
     RDKit          3D

 30 31  0  0  1  0  0  0  0  0999 V2000
   44.6490   35.3510   45.5400 C   0  0  0  0  0  0  0  0  0  0  0  0
   44.9220   35.7320   44.2190 C   0  0  0  0  0  0  0  0  0  0  0  0
   45.6550   34.8190   43.4430 C   0  0  0  0  0  0  0  0  0  0  0  0
   46.0660   33.6330   43.9710 N   0  0  0  0  0  0  0  0  0  0  0  0
   45.7720   33.3190   45.2550 C   0  0  0  0  0  0  0  0  0  0  0  0
   45.0800   34.1750   45.9960 N   0  0  0  0  0  0  0  0  0  0  0  0
   46.2270   32.0600   45.7460 N   0  0  0  0  0  0  0  0  0  0  0  0
   47.2160   31.3400   44.9800 C   0  0  0  0  0  0  0  0  0  0  0  0
   48.0190   30.3630   45.7660 C   0  0  0  0  0  0  0  0  0  0  0  0
   47.6170   30.2220   47.1300 N   0  0  0  0  0  0  0  0  0  0  0  0
   46.1660   30.1230   47.1770 C   0  0  0  0  0  0  0  0  0  0  0  0
   45.6790   31.5530   46.9720 C   0  0  1  0  0  0  0  0  0  0  0  0
   45.8920   32.3770   48.1900 C   0  0  0  0  0  0  0  0  0  0  0  0
   45.3110   31.5950   49.3800 C   0  0  0  0  0  0  0  0  0  0  0  0
   44.0795   36.0220   46.1999 H   0  0  0  0  0  0  0  0  0  0  0  0
   44.5803   36.6950   43.8116 H   0  0  0  0  0  0  0  0  0  0  0  0
   45.8993   35.0644   42.3989 H   0  0  0  0  0  0  0  0  0  0  0  0
   46.6976   30.7924   44.1792 H   0  0  0  0  0  0  0  0  0  0  0  0
   47.9240   32.0916   44.6008 H   0  0  0  0  0  0  0  0  0  0  0  0
   47.9342   29.3798   45.2801 H   0  0  0  0  0  0  0  0  0  0  0  0
   49.0489   30.7489   45.7833 H   0  0  0  0  0  0  0  0  0  0  0  0
   48.0363   29.3701   47.5293 H   0  0  0  0  0  0  0  0  0  0  0  0
   45.7949   29.4672   46.3756 H   0  0  0  0  0  0  0  0  0  0  0  0
   45.8067   29.6902   48.1223 H   0  0  0  0  0  0  0  0  0  0  0  0
   44.5873   31.5921   46.8426 H   0  0  0  0  0  0  0  0  0  0  0  0
   46.9673   32.5511   48.3432 H   0  0  0  0  0  0  0  0  0  0  0  0
   45.3987   33.3550   48.0891 H   0  0  0  0  0  0  0  0  0  0  0  0
   45.6511   32.0527   50.3207 H   0  0  0  0  0  0  0  0  0  0  0  0
   44.2122   31.6221   49.3352 H   0  0  0  0  0  0  0  0  0  0  0  0
   45.6541   30.5508   49.3352 H   0  0  0  0  0  0  0  0  0  0  0  0
  1  6  2  0
  2  1  1  0
  3  4  1  0
  3  2  2  0
  4  5  2  0
  5  7  1  0
  5  6  1  0
  7 12  1  0
  8  7  1  0
  8  9  1  0
  9 10  1  0
 10 11  1  0
 12 11  1  0
 12 13  1  0
 13 14  1  0
  1 15  1  0
  2 16  1  0
  3 17  1  0
  8 18  1  0
  8 19  1  0
  9 20  1  0
  9 21  1  0
 10 22  1  0
 11 23  1  0
 11 24  1  0
 12 25  1  6
 13 26  1  0
 13 27  1  0
 14 28  1  0
 14 29  1  0
 14 30  1  0
M  ISO  8  15  14  16  14  17  14  18  13  19  13  20  13  21  13  22   5
M  ISO  8  23  13  24  13  25  13  26   8  27   8  28   8  29   8  30   8
M  END
>  <minimizedAffinity>  (1) 
-4.19729614

>  <minimizedRMSD>  (1) 
1.66829789

$$$$
