
     RDKit          3D

 24 25  0  0  0  0  0  0  0  0999 V2000
   46.6170   34.7340   41.7680 C   0  0  0  0  0  0  0  0  0  0  0  0
   46.0200   34.7530   43.1110 C   0  0  0  0  0  0  0  0  0  0  0  0
   45.1870   35.8820   43.3240 C   0  0  0  0  0  0  0  0  0  0  0  0
   44.5490   36.0450   44.5490 C   0  0  0  0  0  0  0  0  0  0  0  0
   44.7560   35.1060   45.4990 N   0  0  0  0  0  0  0  0  0  0  0  0
   45.5660   34.0290   45.2640 C   0  0  0  0  0  0  0  0  0  0  0  0
   46.1770   33.8700   44.0930 N   0  0  0  0  0  0  0  0  0  0  0  0
   48.0020   35.3650   41.7800 C   0  0  0  0  0  0  0  0  0  0  0  0
   49.0260   34.3060   41.7290 C   0  0  0  0  0  0  0  0  0  0  0  0
   50.1740   34.2020   42.4790 C   0  0  0  0  0  0  0  0  0  0  0  0
   51.0140   33.1230   42.2800 C   0  0  0  0  0  0  0  0  0  0  0  0
   50.7270   32.1740   41.3670 N   0  0  0  0  0  0  0  0  0  0  0  0
   49.6220   32.2790   40.6490 C   0  0  0  0  0  0  0  0  0  0  0  0
   48.7890   33.3170   40.8220 N   0  0  0  0  0  0  0  0  0  0  0  0
   45.9707   35.2971   41.0786 H   0  0  0  0  0  0  0  0  0  0  0  0
   46.7102   33.6883   41.4397 H   0  0  0  0  0  0  0  0  0  0  0  0
   45.0467   36.6243   42.5244 H   0  0  0  0  0  0  0  0  0  0  0  0
   43.8969   36.9103   44.7387 H   0  0  0  0  0  0  0  0  0  0  0  0
   45.7147   33.2814   46.0571 H   0  0  0  0  0  0  0  0  0  0  0  0
   48.1122   36.0237   40.9060 H   0  0  0  0  0  0  0  0  0  0  0  0
   48.1286   35.9528   42.7011 H   0  0  0  0  0  0  0  0  0  0  0  0
   50.4206   34.9686   43.2284 H   0  0  0  0  0  0  0  0  0  0  0  0
   51.9335   33.0370   42.8775 H   0  0  0  0  0  0  0  0  0  0  0  0
   49.3828   31.5077   39.9021 H   0  0  0  0  0  0  0  0  0  0  0  0
  1  8  1  0
  1  2  1  0
  2  3  2  0
  2  7  1  0
  3  4  1  0
  4  5  2  0
  6  5  1  0
  7  6  2  0
  9  8  1  0
  9 10  2  0
 11 10  1  0
 12 11  2  0
 13 14  2  0
 13 12  1  0
 14  9  1  0
  1 15  1  0
  1 16  1  0
  3 17  1  0
  4 18  1  0
  6 19  1  0
  8 20  1  0
  8 21  1  0
 10 22  1  0
 11 23  1  0
 13 24  1  0
M  ISO  8  15   8  16   8  17  14  18  14  19  14  20   8  21   8  22  14
M  ISO  2  23  14  24  14
M  END
>  <minimizedAffinity>  (1) 
-4.63316965

>  <minimizedRMSD>  (1) 
2.81315827

$$$$
