
     RDKit          3D

 23 24  0  0  0  0  0  0  0  0999 V2000
   46.5700   34.7840   41.7700 C   0  0  0  0  0  0  0  0  0  0  0  0
   45.8850   35.0120   43.0510 C   0  0  0  0  0  0  0  0  0  0  0  0
   46.0980   33.9620   43.9720 C   0  0  0  0  0  0  0  0  0  0  0  0
   45.5150   34.0240   45.2330 C   0  0  0  0  0  0  0  0  0  0  0  0
   44.7580   35.1150   45.5130 N   0  0  0  0  0  0  0  0  0  0  0  0
   44.5710   36.1060   44.6110 C   0  0  0  0  0  0  0  0  0  0  0  0
   45.1310   36.0400   43.4070 N   0  0  0  0  0  0  0  0  0  0  0  0
   47.9890   35.2820   41.7840 C   0  0  0  0  0  0  0  0  0  0  0  0
   49.0080   34.2160   41.7360 C   0  0  0  0  0  0  0  0  0  0  0  0
   50.1290   34.3480   42.5350 C   0  0  0  0  0  0  0  0  0  0  0  0
   50.9170   33.2420   42.3140 C   0  0  0  0  0  0  0  0  0  0  0  0
   50.2560   32.4750   41.3910 C   0  0  0  0  0  0  0  0  0  0  0  0
   49.1610   33.0950   41.0990 O   0  0  0  0  0  0  0  0  0  0  0  0
   46.0188   35.3091   40.9760 H   0  0  0  0  0  0  0  0  0  0  0  0
   46.5963   33.6989   41.5914 H   0  0  0  0  0  0  0  0  0  0  0  0
   46.7217   33.0999   43.6931 H   0  0  0  0  0  0  0  0  0  0  0  0
   45.6612   33.2226   45.9722 H   0  0  0  0  0  0  0  0  0  0  0  0
   43.9499   36.9743   44.8763 H   0  0  0  0  0  0  0  0  0  0  0  0
   48.1331   35.9357   40.9111 H   0  0  0  0  0  0  0  0  0  0  0  0
   48.1285   35.8077   42.7401 H   0  0  0  0  0  0  0  0  0  0  0  0
   50.3493   35.1809   43.2189 H   0  0  0  0  0  0  0  0  0  0  0  0
   51.8855   33.0180   42.7849 H   0  0  0  0  0  0  0  0  0  0  0  0
   50.5937   31.5135   40.9770 H   0  0  0  0  0  0  0  0  0  0  0  0
  1  8  1  0
  1  2  1  0
  2  7  1  0
  2  3  2  0
  3  4  1  0
  4  5  2  0
  6  5  1  0
  7  6  2  0
  9  8  1  0
  9 10  2  0
 11 10  1  0
 12 11  2  0
 13 12  1  0
 13  9  1  0
  1 14  1  0
  1 15  1  0
  3 16  1  0
  4 17  1  0
  6 18  1  0
  8 19  1  0
  8 20  1  0
 10 21  1  0
 11 22  1  0
 12 23  1  0
M  ISO  8  14   8  15   8  16  14  17  14  18  14  19   8  20   8  21  14
M  ISO  2  22  14  23  14
M  END
>  <minimizedAffinity>  (1) 
-4.55135584

>  <minimizedRMSD>  (1) 
3.55631781

$$$$
