
     RDKit          3D

 29 31  0  0  0  0  0  0  0  0999 V2000
   46.3670   34.7710   41.6040 C   0  0  0  0  0  0  0  0  0  0  0  0
   45.2380   33.9210   41.8760 N   0  0  0  0  0  0  0  0  0  0  0  0
   45.1450   32.8140   42.6340 C   0  0  0  0  0  0  0  0  0  0  0  0
   43.8740   32.3680   42.5790 N   0  0  0  0  0  0  0  0  0  0  0  0
   43.1670   33.1960   41.7860 C   0  0  0  0  0  0  0  0  0  0  0  0
   41.8530   33.2690   41.3510 C   0  0  0  0  0  0  0  0  0  0  0  0
   41.4460   34.2460   40.5400 N   0  0  0  0  0  0  0  0  0  0  0  0
   42.2880   35.2110   40.1020 C   0  0  0  0  0  0  0  0  0  0  0  0
   43.5430   35.1250   40.5280 N   0  0  0  0  0  0  0  0  0  0  0  0
   44.0250   34.1780   41.3400 C   0  0  0  0  0  0  0  0  0  0  0  0
   40.9390   32.2690   41.7920 N   0  0  0  0  0  0  0  0  0  0  0  0
   47.5040   33.9440   41.0440 C   0  0  0  0  0  0  0  0  0  0  0  0
   47.3790   33.7960   39.5860 C   0  0  0  0  0  0  0  0  0  0  0  0
   48.3730   34.5280   38.8790 C   0  0  0  0  0  0  0  0  0  0  0  0
   48.3980   34.4980   37.4890 C   0  0  0  0  0  0  0  0  0  0  0  0
   47.4440   33.7500   36.8730 N   0  0  0  0  0  0  0  0  0  0  0  0
   46.5030   33.0580   37.5700 C   0  0  0  0  0  0  0  0  0  0  0  0
   46.4920   33.0960   38.9000 N   0  0  0  0  0  0  0  0  0  0  0  0
   46.0783   35.5394   40.8717 H   0  0  0  0  0  0  0  0  0  0  0  0
   46.6927   35.2542   42.5370 H   0  0  0  0  0  0  0  0  0  0  0  0
   45.9658   32.3515   43.2018 H   0  0  0  0  0  0  0  0  0  0  0  0
   41.9530   36.0178   39.4335 H   0  0  0  0  0  0  0  0  0  0  0  0
   39.9563   32.2980   41.4848 H   0  0  0  0  0  0  0  0  0  0  0  0
   41.2609   31.5171   42.4180 H   0  0  0  0  0  0  0  0  0  0  0  0
   48.4579   34.4407   41.2748 H   0  0  0  0  0  0  0  0  0  0  0  0
   47.4696   32.9446   41.5022 H   0  0  0  0  0  0  0  0  0  0  0  0
   49.1205   35.1167   39.4309 H   0  0  0  0  0  0  0  0  0  0  0  0
   49.1541   35.0534   36.9146 H   0  0  0  0  0  0  0  0  0  0  0  0
   45.7485   32.4650   37.0323 H   0  0  0  0  0  0  0  0  0  0  0  0
  1  2  1  0
  2  3  1  0
  4  3  2  0
  5  4  1  0
  6  5  2  0
  6 11  1  0
  7  6  1  0
  8  9  1  0
  8  7  2  0
  9 10  2  0
 10  5  1  0
 10  2  1  0
 12  1  1  0
 13 12  1  0
 14 13  2  0
 15 14  1  0
 16 15  2  0
 16 17  1  0
 17 18  2  0
 18 13  1  0
  1 19  1  0
  1 20  1  0
  3 21  1  0
  8 22  1  0
 11 23  1  0
 11 24  1  0
 12 25  1  0
 12 26  1  0
 14 27  1  0
 15 28  1  0
 17 29  1  0
M  ISO  8  19   8  20   8  21  14  22  14  25   8  26   8  27  14  28  14
M  ISO  1  29  14
M  END
>  <minimizedAffinity>  (1) 
-4.03273392

>  <minimizedRMSD>  (1) 
7.71001816

$$$$
