
     RDKit          3D

 23 24  0  0  0  0  0  0  0  0999 V2000
   46.6530   34.7430   41.8040 C   0  0  0  0  0  0  0  0  0  0  0  0
   46.0510   34.7540   43.1420 C   0  0  0  0  0  0  0  0  0  0  0  0
   45.2060   35.8650   43.3320 C   0  0  0  0  0  0  0  0  0  0  0  0
   44.5440   36.0370   44.5430 C   0  0  0  0  0  0  0  0  0  0  0  0
   44.7480   35.1100   45.5040 N   0  0  0  0  0  0  0  0  0  0  0  0
   45.5780   34.0370   45.2910 C   0  0  0  0  0  0  0  0  0  0  0  0
   46.2180   33.8740   44.1140 N   0  0  0  0  0  0  0  0  0  0  0  0
   48.0470   35.3340   41.8040 C   0  0  0  0  0  0  0  0  0  0  0  0
   49.0570   34.3160   41.8220 N   0  0  0  0  0  0  0  0  0  0  0  0
   49.1300   33.1230   41.2110 C   0  0  0  0  0  0  0  0  0  0  0  0
   50.2920   32.4420   41.4990 C   0  0  0  0  0  0  0  0  0  0  0  0
   50.9650   33.2750   42.3400 N   0  0  0  0  0  0  0  0  0  0  0  0
   50.2250   34.3750   42.5200 C   0  0  0  0  0  0  0  0  0  0  0  0
   46.0183   35.3304   41.1242 H   0  0  0  0  0  0  0  0  0  0  0  0
   46.7278   33.6964   41.4738 H   0  0  0  0  0  0  0  0  0  0  0  0
   45.0697   36.5969   42.5222 H   0  0  0  0  0  0  0  0  0  0  0  0
   43.8786   36.8965   44.7120 H   0  0  0  0  0  0  0  0  0  0  0  0
   45.7236   33.2982   46.0928 H   0  0  0  0  0  0  0  0  0  0  0  0
   48.1743   35.9459   40.8988 H   0  0  0  0  0  0  0  0  0  0  0  0
   48.1599   35.9438   42.7125 H   0  0  0  0  0  0  0  0  0  0  0  0
   48.3439   32.7303   40.5494 H   0  0  0  0  0  0  0  0  0  0  0  0
   50.6045   31.4526   41.1336 H   0  0  0  0  0  0  0  0  0  0  0  0
   50.5233   35.2230   43.1540 H   0  0  0  0  0  0  0  0  0  0  0  0
  1  8  1  0
  1  2  1  0
  2  3  2  0
  2  7  1  0
  3  4  1  0
  4  5  2  0
  6  5  1  0
  7  6  2  0
  8  9  1  0
  9 13  1  0
 10 11  2  0
 10  9  1  0
 11 12  1  0
 12 13  2  0
  1 14  1  0
  1 15  1  0
  3 16  1  0
  4 17  1  0
  6 18  1  0
  8 19  1  0
  8 20  1  0
 10 21  1  0
 11 22  1  0
 13 23  1  0
M  ISO  8  14   8  15   8  16  14  17  14  18  14  19   8  20   8  21  14
M  ISO  2  22  14  23  14
M  END
>  <minimizedAffinity>  (1) 
-4.21125364

>  <minimizedRMSD>  (1) 
1.53738499

$$$$
