
     RDKit          3D

 25 26  0  0  0  0  0  0  0  0999 V2000
   47.7910   35.0380   41.4320 C   0  0  0  0  0  0  0  0  0  0  0  0
   48.8470   34.0630   41.5030 N   0  0  0  0  0  0  0  0  0  0  0  0
   48.9720   32.8830   40.8710 C   0  0  0  0  0  0  0  0  0  0  0  0
   50.1330   32.2290   41.2000 C   0  0  0  0  0  0  0  0  0  0  0  0
   50.7490   33.0580   42.0830 N   0  0  0  0  0  0  0  0  0  0  0  0
   49.9770   34.1340   42.2510 C   0  0  0  0  0  0  0  0  0  0  0  0
   50.2450   35.2680   43.1000 N   0  0  0  0  0  0  0  0  0  0  0  0
   46.4290   34.4190   41.6010 C   0  0  0  0  0  0  0  0  0  0  0  0
   45.9060   34.5840   42.9540 C   0  0  0  0  0  0  0  0  0  0  0  0
   45.1800   35.7780   43.1330 C   0  0  0  0  0  0  0  0  0  0  0  0
   44.6230   36.0720   44.3650 C   0  0  0  0  0  0  0  0  0  0  0  0
   44.8000   35.1820   45.3760 N   0  0  0  0  0  0  0  0  0  0  0  0
   45.5100   34.0290   45.1720 C   0  0  0  0  0  0  0  0  0  0  0  0
   46.0550   33.7430   43.9630 N   0  0  0  0  0  0  0  0  0  0  0  0
   47.9425   35.7821   42.2279 H   0  0  0  0  0  0  0  0  0  0  0  0
   47.8282   35.5022   40.4354 H   0  0  0  0  0  0  0  0  0  0  0  0
   48.2257   32.4853   40.1675 H   0  0  0  0  0  0  0  0  0  0  0  0
   50.4852   31.2541   40.8320 H   0  0  0  0  0  0  0  0  0  0  0  0
   51.1096   35.3000   43.6589 H   0  0  0  0  0  0  0  0  0  0  0  0
   49.5719   36.0462   43.1477 H   0  0  0  0  0  0  0  0  0  0  0  0
   45.7344   34.8952   40.8934 H   0  0  0  0  0  0  0  0  0  0  0  0
   46.5249   33.3403   41.4080 H   0  0  0  0  0  0  0  0  0  0  0  0
   45.0559   36.4770   42.2928 H   0  0  0  0  0  0  0  0  0  0  0  0
   44.0532   36.9998   44.5213 H   0  0  0  0  0  0  0  0  0  0  0  0
   45.6409   33.3214   46.0040 H   0  0  0  0  0  0  0  0  0  0  0  0
  1  2  1  0
  1  8  1  0
  2  6  1  0
  3  4  2  0
  3  2  1  0
  4  5  1  0
  5  6  2  0
  6  7  1  0
  8  9  1  0
  9 10  2  0
  9 14  1  0
 10 11  1  0
 11 12  2  0
 13 12  1  0
 14 13  2  0
  1 15  1  0
  1 16  1  0
  3 17  1  0
  4 18  1  0
  7 19  1  0
  7 20  1  0
  8 21  1  0
  8 22  1  0
 10 23  1  0
 11 24  1  0
 13 25  1  0
M  ISO  8  15   8  16   8  17  14  18  14  21   8  22   8  23  14  24  14
M  ISO  1  25  14
M  END
>  <minimizedAffinity>  (1) 
-4.87437963

>  <minimizedRMSD>  (1) 
0.367351621

$$$$
