
     RDKit          3D

 30 31  0  0  0  0  0  0  0  0999 V2000
   47.1270   34.4930   40.9810 C   0  0  0  0  0  0  0  0  0  0  0  0
   47.3270   33.3520   40.1510 N   0  0  0  0  0  0  0  0  0  0  0  0
   46.5080   32.6660   39.3490 C   0  0  0  0  0  0  0  0  0  0  0  0
   47.0980   31.6090   38.7100 C   0  0  0  0  0  0  0  0  0  0  0  0
   48.3720   31.6520   39.1530 N   0  0  0  0  0  0  0  0  0  0  0  0
   48.5080   32.6870   40.0080 C   0  0  0  0  0  0  0  0  0  0  0  0
   49.7690   32.9620   40.6290 N   0  0  0  0  0  0  0  0  0  0  0  0
   49.9580   33.2710   42.0240 C   0  0  0  0  0  0  0  0  0  0  0  0
   48.8860   33.0590   42.7120 N   0  0  0  0  0  0  0  0  0  0  0  0
   51.2480   33.7460   42.4160 N   0  0  0  0  0  0  0  0  0  0  0  0
   48.7760   33.2070   43.7230 H   0  0  0  0  0  0  0  0  0  0  0  0
   45.6800   34.6560   41.3790 C   0  0  0  0  0  0  0  0  0  0  0  0
   45.4970   34.6120   42.8320 C   0  0  0  0  0  0  0  0  0  0  0  0
   44.7800   35.7240   43.3170 C   0  0  0  0  0  0  0  0  0  0  0  0
   44.5240   35.8270   44.6870 C   0  0  0  0  0  0  0  0  0  0  0  0
   44.9760   34.8470   45.4990 N   0  0  0  0  0  0  0  0  0  0  0  0
   45.6740   33.7760   44.9750 C   0  0  0  0  0  0  0  0  0  0  0  0
   45.9210   33.6790   43.6600 N   0  0  0  0  0  0  0  0  0  0  0  0
   47.4480   35.3913   40.4333 H   0  0  0  0  0  0  0  0  0  0  0  0
   47.7181   34.3538   41.8982 H   0  0  0  0  0  0  0  0  0  0  0  0
   45.4484   32.9285   39.2135 H   0  0  0  0  0  0  0  0  0  0  0  0
   46.6435   30.8967   38.0057 H   0  0  0  0  0  0  0  0  0  0  0  0
   50.6074   32.9369   40.0312 H   0  0  0  0  0  0  0  0  0  0  0  0
   51.4328   33.9804   43.4018 H   0  0  0  0  0  0  0  0  0  0  0  0
   51.9927   33.8538   41.7127 H   0  0  0  0  0  0  0  0  0  0  0  0
   45.3169   35.6248   41.0055 H   0  0  0  0  0  0  0  0  0  0  0  0
   45.1135   33.8205   40.9420 H   0  0  0  0  0  0  0  0  0  0  0  0
   44.4258   36.5022   42.6250 H   0  0  0  0  0  0  0  0  0  0  0  0
   43.9683   36.6847   45.0938 H   0  0  0  0  0  0  0  0  0  0  0  0
   46.0348   32.9862   45.6503 H   0  0  0  0  0  0  0  0  0  0  0  0
  1 12  1  0
  2  1  1  0
  3  2  1  0
  4  5  1  0
  4  3  2  0
  5  6  2  0
  6  2  1  0
  6  7  1  0
  7  8  1  0
  8 10  1  0
  8  9  2  0
  9 11  1  0
 12 13  1  0
 13 14  2  0
 13 18  1  0
 14 15  1  0
 15 16  2  0
 17 16  1  0
 18 17  2  0
  1 19  1  0
  1 20  1  0
  3 21  1  0
  4 22  1  0
  7 23  1  0
 10 24  1  0
 10 25  1  0
 12 26  1  0
 12 27  1  0
 14 28  1  0
 15 29  1  0
 17 30  1  0
M  ISO  8  19   8  20   8  21  14  22  14  26   8  27   8  28  14  29  14
M  ISO  1  30  14
M  END
>  <minimizedAffinity>  (1) 
-4.76616144

>  <minimizedRMSD>  (1) 
2.76292372

$$$$
