
     RDKit          3D

 32 33  0  0  0  0  0  0  0  0999 V2000
   47.8260   34.7960   41.7330 C   0  0  0  0  0  0  0  0  0  0  0  0
   48.1970   34.0180   40.5950 N   0  0  0  0  0  0  0  0  0  0  0  0
   47.8330   34.1030   39.3060 C   0  0  0  0  0  0  0  0  0  0  0  0
   48.4420   33.1330   38.5280 C   0  0  0  0  0  0  0  0  0  0  0  0
   49.2120   32.4320   39.3930 N   0  0  0  0  0  0  0  0  0  0  0  0
   49.0530   32.9720   40.6140 C   0  0  0  0  0  0  0  0  0  0  0  0
   49.8030   32.3680   41.7450 C   0  0  0  0  0  0  0  0  0  0  0  0
   48.8710   31.8650   42.8150 C   0  0  0  0  0  0  0  0  0  0  0  0
   50.7570   33.3550   42.3790 C   0  0  0  0  0  0  0  0  0  0  0  0
   46.3140   34.9480   41.8380 C   0  0  0  0  0  0  0  0  0  0  0  0
   45.8470   34.8370   43.2180 C   0  0  0  0  0  0  0  0  0  0  0  0
   45.0090   35.8880   43.6000 C   0  0  0  0  0  0  0  0  0  0  0  0
   44.4720   35.9470   44.8740 C   0  0  0  0  0  0  0  0  0  0  0  0
   44.7890   34.9540   45.7280 N   0  0  0  0  0  0  0  0  0  0  0  0
   45.6160   33.9240   45.3380 C   0  0  0  0  0  0  0  0  0  0  0  0
   46.1250   33.8930   44.0890 N   0  0  0  0  0  0  0  0  0  0  0  0
   48.2802   35.7941   41.6468 H   0  0  0  0  0  0  0  0  0  0  0  0
   48.1838   34.2788   42.6355 H   0  0  0  0  0  0  0  0  0  0  0  0
   47.1328   34.8552   38.9136 H   0  0  0  0  0  0  0  0  0  0  0  0
   48.3259   32.9684   37.4466 H   0  0  0  0  0  0  0  0  0  0  0  0
   50.3731   31.5294   41.3188 H   0  0  0  0  0  0  0  0  0  0  0  0
   49.2927   32.0926   43.8052 H   0  0  0  0  0  0  0  0  0  0  0  0
   47.8931   32.3578   42.7108 H   0  0  0  0  0  0  0  0  0  0  0  0
   48.7463   30.7771   42.7108 H   0  0  0  0  0  0  0  0  0  0  0  0
   50.6861   33.2817   43.4743 H   0  0  0  0  0  0  0  0  0  0  0  0
   51.7852   33.1265   42.0620 H   0  0  0  0  0  0  0  0  0  0  0  0
   50.4937   34.3749   42.0620 H   0  0  0  0  0  0  0  0  0  0  0  0
   46.0282   35.9347   41.4447 H   0  0  0  0  0  0  0  0  0  0  0  0
   45.8500   34.1379   41.2562 H   0  0  0  0  0  0  0  0  0  0  0  0
   44.7723   36.6816   42.8760 H   0  0  0  0  0  0  0  0  0  0  0  0
   43.8118   36.7727   45.1779 H   0  0  0  0  0  0  0  0  0  0  0  0
   45.8629   33.1219   46.0491 H   0  0  0  0  0  0  0  0  0  0  0  0
  1 10  1  0
  2  6  1  0
  2  1  1  0
  3  2  1  0
  4  3  2  0
  4  5  1  0
  5  6  2  0
  6  7  1  0
  7  9  1  0
  7  8  1  0
 10 11  1  0
 11 12  2  0
 11 16  1  0
 12 13  1  0
 13 14  2  0
 15 14  1  0
 16 15  2  0
  1 17  1  0
  1 18  1  0
  3 19  1  0
  4 20  1  0
  7 21  1  0
  8 22  1  0
  8 23  1  0
  8 24  1  0
  9 25  1  0
  9 26  1  0
  9 27  1  0
 10 28  1  0
 10 29  1  0
 12 30  1  0
 13 31  1  0
 15 32  1  0
M  ISO  8  17   8  18   8  19  14  20  14  21   8  22   8  23   8  24   8
M  ISO  8  25   8  26   8  27   8  28   8  29   8  30  14  31  14  32  14
M  END
>  <minimizedAffinity>  (1) 
-4.37989855

>  <minimizedRMSD>  (1) 
2.30050993

$$$$
