
     RDKit          3D

 26 27  0  0  0  0  0  0  0  0999 V2000
   46.5480   34.9550   41.9440 C   0  0  0  0  0  0  0  0  0  0  0  0
   45.9810   34.8500   43.2940 C   0  0  0  0  0  0  0  0  0  0  0  0
   45.0970   35.8830   43.6020 C   0  0  0  0  0  0  0  0  0  0  0  0
   44.4710   35.9370   44.8400 C   0  0  0  0  0  0  0  0  0  0  0  0
   44.7590   34.9510   45.7150 N   0  0  0  0  0  0  0  0  0  0  0  0
   45.6260   33.9460   45.4000 C   0  0  0  0  0  0  0  0  0  0  0  0
   46.2240   33.9130   44.1890 N   0  0  0  0  0  0  0  0  0  0  0  0
   48.0520   34.8890   41.9560 C   0  0  0  0  0  0  0  0  0  0  0  0
   48.5510   33.7760   41.1890 N   0  0  0  0  0  0  0  0  0  0  0  0
   48.0090   33.1270   40.1340 C   0  0  0  0  0  0  0  0  0  0  0  0
   48.7960   32.1070   39.6720 C   0  0  0  0  0  0  0  0  0  0  0  0
   49.8730   32.1340   40.4860 N   0  0  0  0  0  0  0  0  0  0  0  0
   49.7190   33.1280   41.3840 C   0  0  0  0  0  0  0  0  0  0  0  0
   50.7490   33.4180   42.4290 C   0  0  0  0  0  0  0  0  0  0  0  0
   46.2383   35.9138   41.5026 H   0  0  0  0  0  0  0  0  0  0  0  0
   46.1758   34.1054   41.3527 H   0  0  0  0  0  0  0  0  0  0  0  0
   44.8931   36.6646   42.8553 H   0  0  0  0  0  0  0  0  0  0  0  0
   43.7720   36.7468   45.0960 H   0  0  0  0  0  0  0  0  0  0  0  0
   45.8396   33.1575   46.1367 H   0  0  0  0  0  0  0  0  0  0  0  0
   48.4515   35.8211   41.5299 H   0  0  0  0  0  0  0  0  0  0  0  0
   48.3773   34.7556   42.9983 H   0  0  0  0  0  0  0  0  0  0  0  0
   47.0366   33.3913   39.6928 H   0  0  0  0  0  0  0  0  0  0  0  0
   48.5974   31.4241   38.8328 H   0  0  0  0  0  0  0  0  0  0  0  0
   50.3040   33.2927   43.4271 H   0  0  0  0  0  0  0  0  0  0  0  0
   51.5937   32.7228   42.3142 H   0  0  0  0  0  0  0  0  0  0  0  0
   51.1068   34.4518   42.3142 H   0  0  0  0  0  0  0  0  0  0  0  0
  1  8  1  0
  1  2  1  0
  2  3  2  0
  2  7  1  0
  3  4  1  0
  4  5  2  0
  6  5  1  0
  7  6  2  0
  9 13  1  0
  9  8  1  0
 10  9  1  0
 11 10  2  0
 11 12  1  0
 12 13  2  0
 13 14  1  0
  1 15  1  0
  1 16  1  0
  3 17  1  0
  4 18  1  0
  6 19  1  0
  8 20  1  0
  8 21  1  0
 10 22  1  0
 11 23  1  0
 14 24  1  0
 14 25  1  0
 14 26  1  0
M  ISO  8  15   8  16   8  17  14  18  14  19  14  20   8  21   8  22  14
M  ISO  4  23  14  24   8  25   8  26   8
M  END
>  <minimizedAffinity>  (1) 
-4.1608963

>  <minimizedRMSD>  (1) 
1.30590773

$$$$
