
     RDKit          3D

 25 26  0  0  0  0  0  0  0  0999 V2000
   47.8460   34.9570   41.7520 C   0  0  0  0  0  0  0  0  0  0  0  0
   48.2620   34.0070   40.7720 N   0  0  0  0  0  0  0  0  0  0  0  0
   47.8450   33.8050   39.5160 C   0  0  0  0  0  0  0  0  0  0  0  0
   48.5150   32.7700   38.8930 C   0  0  0  0  0  0  0  0  0  0  0  0
   49.3860   32.3190   39.8210 N   0  0  0  0  0  0  0  0  0  0  0  0
   49.2250   33.0650   40.9330 C   0  0  0  0  0  0  0  0  0  0  0  0
   50.0270   32.8260   42.1290 C   0  0  0  0  0  0  0  0  0  0  0  0
   51.0820   33.4860   42.4260 O   0  0  0  0  0  0  0  0  0  0  0  0
   46.3370   35.0470   41.8460 C   0  0  0  0  0  0  0  0  0  0  0  0
   45.8670   34.8960   43.2190 C   0  0  0  0  0  0  0  0  0  0  0  0
   45.0040   35.9230   43.6380 C   0  0  0  0  0  0  0  0  0  0  0  0
   44.4660   35.9320   44.9170 C   0  0  0  0  0  0  0  0  0  0  0  0
   44.8210   34.9000   45.7260 N   0  0  0  0  0  0  0  0  0  0  0  0
   45.6600   33.9080   45.3080 C   0  0  0  0  0  0  0  0  0  0  0  0
   46.1720   33.9210   44.0580 N   0  0  0  0  0  0  0  0  0  0  0  0
   48.2451   35.9456   41.4810 H   0  0  0  0  0  0  0  0  0  0  0  0
   48.2296   34.6290   42.7294 H   0  0  0  0  0  0  0  0  0  0  0  0
   47.0549   34.3985   39.0327 H   0  0  0  0  0  0  0  0  0  0  0  0
   48.3710   32.3963   37.8685 H   0  0  0  0  0  0  0  0  0  0  0  0
   49.7048   32.0302   42.8166 H   0  0  0  0  0  0  0  0  0  0  0  0
   46.0149   36.0277   41.4658 H   0  0  0  0  0  0  0  0  0  0  0  0
   45.9090   34.2293   41.2475 H   0  0  0  0  0  0  0  0  0  0  0  0
   44.7505   36.7342   42.9396 H   0  0  0  0  0  0  0  0  0  0  0  0
   43.7898   36.7302   45.2569 H   0  0  0  0  0  0  0  0  0  0  0  0
   45.9218   33.0902   45.9955 H   0  0  0  0  0  0  0  0  0  0  0  0
  1  9  1  0
  2  6  1  0
  2  1  1  0
  3  2  1  0
  4  3  2  0
  4  5  1  0
  5  6  2  0
  6  7  1  0
  7  8  2  0
  9 10  1  0
 10 11  2  0
 10 15  1  0
 11 12  1  0
 12 13  2  0
 14 13  1  0
 15 14  2  0
  1 16  1  0
  1 17  1  0
  3 18  1  0
  4 19  1  0
  7 20  1  0
  9 21  1  0
  9 22  1  0
 11 23  1  0
 12 24  1  0
 14 25  1  0
M  ISO  8  16   8  17   8  18  14  19  14  20   6  21   8  22   8  23  14
M  ISO  2  24  14  25  14
M  END
>  <minimizedAffinity>  (1) 
-4.09468937

>  <minimizedRMSD>  (1) 
1.84632599

$$$$
