
     RDKit          3D

 30 32  0  0  0  0  0  0  0  0999 V2000
   47.6640   34.8830   41.6580 C   0  0  0  0  0  0  0  0  0  0  0  0
   48.0560   34.0460   40.5740 N   0  0  0  0  0  0  0  0  0  0  0  0
   47.6670   34.0160   39.2850 C   0  0  0  0  0  0  0  0  0  0  0  0
   48.3020   33.0310   38.5550 C   0  0  0  0  0  0  0  0  0  0  0  0
   49.1220   32.4340   39.4580 N   0  0  0  0  0  0  0  0  0  0  0  0
   48.9630   33.0470   40.6440 C   0  0  0  0  0  0  0  0  0  0  0  0
   49.7660   32.5680   41.8180 C   0  0  0  0  0  0  0  0  0  0  0  0
   51.2480   32.2840   41.6040 C   0  0  0  0  0  0  0  0  0  0  0  0
   50.8040   33.4510   42.4000 C   0  0  0  0  0  0  0  0  0  0  0  0
   46.1500   34.9560   41.7990 C   0  0  0  0  0  0  0  0  0  0  0  0
   45.7330   34.8500   43.1980 C   0  0  0  0  0  0  0  0  0  0  0  0
   44.9400   35.9270   43.6130 C   0  0  0  0  0  0  0  0  0  0  0  0
   44.4620   35.9770   44.9140 C   0  0  0  0  0  0  0  0  0  0  0  0
   44.7850   34.9700   45.7460 N   0  0  0  0  0  0  0  0  0  0  0  0
   45.5630   33.9240   45.3220 C   0  0  0  0  0  0  0  0  0  0  0  0
   46.0260   33.8830   44.0460 N   0  0  0  0  0  0  0  0  0  0  0  0
   48.0544   35.8966   41.4841 H   0  0  0  0  0  0  0  0  0  0  0  0
   48.0728   34.4547   42.5850 H   0  0  0  0  0  0  0  0  0  0  0  0
   46.9219   34.7038   38.8587 H   0  0  0  0  0  0  0  0  0  0  0  0
   48.1736   32.7868   37.4902 H   0  0  0  0  0  0  0  0  0  0  0  0
   48.9036   32.0157   42.2196 H   0  0  0  0  0  0  0  0  0  0  0  0
   51.7233   31.4251   42.1004 H   0  0  0  0  0  0  0  0  0  0  0  0
   51.8985   32.1341   40.7297 H   0  0  0  0  0  0  0  0  0  0  0  0
   50.9414   34.4667   42.0006 H   0  0  0  0  0  0  0  0  0  0  0  0
   51.0206   33.8128   43.4160 H   0  0  0  0  0  0  0  0  0  0  0  0
   45.7998   35.9169   41.3940 H   0  0  0  0  0  0  0  0  0  0  0  0
   45.7120   34.1128   41.2448 H   0  0  0  0  0  0  0  0  0  0  0  0
   44.6960   36.7341   42.9065 H   0  0  0  0  0  0  0  0  0  0  0  0
   43.8371   36.8153   45.2557 H   0  0  0  0  0  0  0  0  0  0  0  0
   45.8141   33.1120   46.0203 H   0  0  0  0  0  0  0  0  0  0  0  0
  1 10  1  0
  2  6  1  0
  2  1  1  0
  3  2  1  0
  4  3  2  0
  4  5  1  0
  5  6  2  0
  6  7  1  0
  7  9  1  0
  8  7  1  0
  8  9  1  0
 10 11  1  0
 11 12  2  0
 11 16  1  0
 12 13  1  0
 13 14  2  0
 15 14  1  0
 16 15  2  0
  1 17  1  0
  1 18  1  0
  3 19  1  0
  4 20  1  0
  7 21  1  0
  8 22  1  0
  8 23  1  0
  9 24  1  0
  9 25  1  0
 10 26  1  0
 10 27  1  0
 12 28  1  0
 13 29  1  0
 15 30  1  0
M  ISO  8  17   8  18   8  19  14  20  14  21  13  22  13  23  13  24  13
M  ISO  6  25  13  26   8  27   8  28  14  29  14  30  14
M  END
>  <minimizedAffinity>  (1) 
-4.46488476

>  <minimizedRMSD>  (1) 
2.38922739

$$$$
