
     RDKit          3D

 40 43  0  0  0  0  0  0  0  0999 V2000
   44.5310   33.7190   41.6100 C   0  0  0  0  0  0  0  0  0  0  0  0
   44.7230   34.1460   42.9800 C   0  0  0  0  0  0  0  0  0  0  0  0
   44.3080   35.4610   43.2530 C   0  0  0  0  0  0  0  0  0  0  0  0
   44.4210   36.0120   44.5080 C   0  0  0  0  0  0  0  0  0  0  0  0
   44.9470   35.2400   45.4670 N   0  0  0  0  0  0  0  0  0  0  0  0
   45.3540   33.9550   45.2030 C   0  0  0  0  0  0  0  0  0  0  0  0
   45.2290   33.4380   43.9520 N   0  0  0  0  0  0  0  0  0  0  0  0
   45.9210   33.0810   46.1750 N   0  0  0  0  0  0  0  0  0  0  0  0
   45.2370   33.1610   47.3510 C   0  0  0  0  0  0  0  0  0  0  0  0
   45.6260   32.3860   48.4440 C   0  0  0  0  0  0  0  0  0  0  0  0
   46.7050   31.5510   48.2960 C   0  0  0  0  0  0  0  0  0  0  0  0
   47.0670   30.8440   49.2750 O   0  0  0  0  0  0  0  0  0  0  0  0
   47.3410   31.5110   47.1220 N   0  0  0  0  0  0  0  0  0  0  0  0
   46.9720   32.2480   46.0810 C   0  0  0  0  0  0  0  0  0  0  0  0
   47.5110   32.2750   44.9400 O   0  0  0  0  0  0  0  0  0  0  0  0
   45.6440   34.1940   40.7020 C   0  0  0  0  0  0  0  0  0  0  0  0
   46.7870   33.3420   40.7550 N   0  0  0  0  0  0  0  0  0  0  0  0
   47.0100   32.1320   40.2240 C   0  0  0  0  0  0  0  0  0  0  0  0
   48.2630   31.6470   40.5040 C   0  0  0  0  0  0  0  0  0  0  0  0
   48.8240   32.6260   41.2490 N   0  0  0  0  0  0  0  0  0  0  0  0
   47.9320   33.6300   41.3900 C   0  0  0  0  0  0  0  0  0  0  0  0
   48.3280   34.8290   42.2070 C   0  0  0  0  0  0  0  0  0  0  0  0
   49.7850   35.0970   42.4710 C   0  0  0  0  0  0  0  0  0  0  0  0
   49.0350   35.9380   41.4890 C   0  0  0  0  0  0  0  0  0  0  0  0
   44.4966   32.6199   41.5830 H   0  0  0  0  0  0  0  0  0  0  0  0
   43.5895   34.1580   41.2483 H   0  0  0  0  0  0  0  0  0  0  0  0
   43.8808   36.0664   42.4399 H   0  0  0  0  0  0  0  0  0  0  0  0
   44.0936   37.0416   44.7147 H   0  0  0  0  0  0  0  0  0  0  0  0
   44.3752   33.8390   47.4388 H   0  0  0  0  0  0  0  0  0  0  0  0
   45.0825   32.4427   49.3987 H   0  0  0  0  0  0  0  0  0  0  0  0
   48.1508   30.8827   47.0201 H   0  0  0  0  0  0  0  0  0  0  0  0
   45.9433   35.2069   41.0094 H   0  0  0  0  0  0  0  0  0  0  0  0
   45.2639   34.1832   39.6698 H   0  0  0  0  0  0  0  0  0  0  0  0
   46.2664   31.5846   39.6261 H   0  0  0  0  0  0  0  0  0  0  0  0
   48.7060   30.6886   40.1954 H   0  0  0  0  0  0  0  0  0  0  0  0
   47.4383   34.7375   42.8474 H   0  0  0  0  0  0  0  0  0  0  0  0
   50.1000   35.5248   43.4342 H   0  0  0  0  0  0  0  0  0  0  0  0
   50.7054   34.4956   42.4374 H   0  0  0  0  0  0  0  0  0  0  0  0
   49.2479   35.8478   40.4136 H   0  0  0  0  0  0  0  0  0  0  0  0
   48.8609   37.0171   41.3655 H   0  0  0  0  0  0  0  0  0  0  0  0
  1  2  1  0
  2  3  2  0
  2  7  1  0
  3  4  1  0
  4  5  2  0
  6  5  1  0
  6  8  1  0
  7  6  2  0
  8  9  1  0
  9 10  2  0
 11 10  1  0
 11 12  2  0
 13 11  1  0
 14  8  1  0
 14 13  1  0
 15 14  2  0
 16 17  1  0
 16  1  1  0
 17 21  1  0
 18 19  2  0
 18 17  1  0
 19 20  1  0
 20 21  2  0
 21 22  1  0
 22 23  1  0
 24 22  1  0
 24 23  1  0
  1 25  1  0
  1 26  1  0
  3 27  1  0
  4 28  1  0
  9 29  1  0
 10 30  1  0
 13 31  1  0
 16 32  1  0
 16 33  1  0
 18 34  1  0
 19 35  1  0
 22 36  1  0
 23 37  1  0
 23 38  1  0
 24 39  1  0
 24 40  1  0
M  ISO  8  25   8  26   8  27  14  28  14  29  14  30  14  31   9  32   8
M  ISO  8  33   8  34  14  35  14  36  13  37  13  38  13  39  13  40  13
M  END
>  <minimizedAffinity>  (1) 
-6.34349918

>  <minimizedRMSD>  (1) 
1.66083241

$$$$
