
     RDKit          3D

 44 48  0  0  0  0  0  0  0  0999 V2000
   46.3880   35.3400   41.7770 C   0  0  0  0  0  0  0  0  0  0  0  0
   46.0080   34.9250   43.1130 C   0  0  0  0  0  0  0  0  0  0  0  0
   45.0960   35.7510   43.7670 C   0  0  0  0  0  0  0  0  0  0  0  0
   44.6480   35.4770   45.0390 C   0  0  0  0  0  0  0  0  0  0  0  0
   45.1260   34.3680   45.6400 N   0  0  0  0  0  0  0  0  0  0  0  0
   46.0170   33.5620   45.0020 C   0  0  0  0  0  0  0  0  0  0  0  0
   46.4440   33.8620   43.7370 N   0  0  0  0  0  0  0  0  0  0  0  0
   46.5100   32.3730   45.6860 C   0  0  0  0  0  0  0  0  0  0  0  0
   47.3900   31.4890   45.0960 C   0  0  0  0  0  0  0  0  0  0  0  0
   47.6000   30.5420   46.0340 N   0  0  0  0  0  0  0  0  0  0  0  0
   46.8840   30.8180   47.1620 C   0  0  0  0  0  0  0  0  0  0  0  0
   46.7640   30.1650   48.3750 C   0  0  0  0  0  0  0  0  0  0  0  0
   45.9530   30.6730   49.3690 C   0  0  0  0  0  0  0  0  0  0  0  0
   45.2570   31.8440   49.1450 C   0  0  0  0  0  0  0  0  0  0  0  0
   45.3520   32.5230   47.9460 C   0  0  0  0  0  0  0  0  0  0  0  0
   46.1720   31.9930   46.9690 C   0  0  0  0  0  0  0  0  0  0  0  0
   47.8780   35.2000   41.5200 C   0  0  0  0  0  0  0  0  0  0  0  0
   48.1420   34.1970   40.5320 N   0  0  0  0  0  0  0  0  0  0  0  0
   47.7180   34.0830   39.2640 C   0  0  0  0  0  0  0  0  0  0  0  0
   48.2080   32.9460   38.6370 C   0  0  0  0  0  0  0  0  0  0  0  0
   48.9660   32.3520   39.5900 N   0  0  0  0  0  0  0  0  0  0  0  0
   48.9190   33.0960   40.6970 C   0  0  0  0  0  0  0  0  0  0  0  0
   49.6880   32.6620   41.9220 C   0  0  0  0  0  0  0  0  0  0  0  0
   51.1570   32.2790   41.6990 C   0  0  0  0  0  0  0  0  0  0  0  0
   50.7830   33.4920   42.4380 C   0  0  0  0  0  0  0  0  0  0  0  0
   45.8457   34.7195   41.0484 H   0  0  0  0  0  0  0  0  0  0  0  0
   46.1325   36.4051   41.6753 H   0  0  0  0  0  0  0  0  0  0  0  0
   44.7233   36.6483   43.2514 H   0  0  0  0  0  0  0  0  0  0  0  0
   43.9282   36.1366   45.5459 H   0  0  0  0  0  0  0  0  0  0  0  0
   47.8235   31.5440   44.0865 H   0  0  0  0  0  0  0  0  0  0  0  0
   48.2152   29.7245   45.9150 H   0  0  0  0  0  0  0  0  0  0  0  0
   47.3202   29.2321   48.5491 H   0  0  0  0  0  0  0  0  0  0  0  0
   45.8618   30.1492   50.3320 H   0  0  0  0  0  0  0  0  0  0  0  0
   44.6116   32.2457   49.9401 H   0  0  0  0  0  0  0  0  0  0  0  0
   44.7932   33.4549   47.7748 H   0  0  0  0  0  0  0  0  0  0  0  0
   48.2732   36.1640   41.1670 H   0  0  0  0  0  0  0  0  0  0  0  0
   48.3665   34.9006   42.4590 H   0  0  0  0  0  0  0  0  0  0  0  0
   47.0544   34.8113   38.7749 H   0  0  0  0  0  0  0  0  0  0  0  0
   48.0240   32.6064   37.6070 H   0  0  0  0  0  0  0  0  0  0  0  0
   48.7934   32.2100   42.3752 H   0  0  0  0  0  0  0  0  0  0  0  0
   51.5922   31.4191   42.2292 H   0  0  0  0  0  0  0  0  0  0  0  0
   51.7872   32.0523   40.8264 H   0  0  0  0  0  0  0  0  0  0  0  0
   50.9719   34.4788   41.9901 H   0  0  0  0  0  0  0  0  0  0  0  0
   51.0356   33.8825   43.4349 H   0  0  0  0  0  0  0  0  0  0  0  0
  1  2  1  0
  2  7  1  0
  2  3  2  0
  3  4  1  0
  4  5  2  0
  6  5  1  0
  6  8  1  0
  7  6  2  0
  8 16  1  0
  9  8  2  0
  9 10  1  0
 10 11  1  0
 11 12  2  0
 12 13  1  0
 14 13  2  0
 15 14  1  0
 16 11  1  0
 16 15  2  0
 17  1  1  0
 18 22  1  0
 18 17  1  0
 19 18  1  0
 20 19  2  0
 20 21  1  0
 21 22  2  0
 22 23  1  0
 23 25  1  0
 24 23  1  0
 24 25  1  0
  1 26  1  0
  1 27  1  0
  3 28  1  0
  4 29  1  0
  9 30  1  0
 10 31  1  0
 12 32  1  0
 13 33  1  0
 14 34  1  0
 15 35  1  0
 17 36  1  0
 17 37  1  0
 19 38  1  0
 20 39  1  0
 23 40  1  0
 24 41  1  0
 24 42  1  0
 25 43  1  0
 25 44  1  0
M  ISO  8  26   8  27   8  28  14  29  14  30  14  31   9  32  14  33  14
M  ISO  8  34  14  35  14  36   8  37   8  38  14  39  14  40  13  41  13
M  ISO  3  42  13  43  13  44  13
M  END
>  <minimizedAffinity>  (1) 
-6.06139898

>  <minimizedRMSD>  (1) 
1.05311036

$$$$
