
     RDKit          3D

 37 39  0  0  0  0  0  0  0  0999 V2000
   46.0580   34.7500   41.4900 C   0  0  0  0  0  0  0  0  0  0  0  0
   45.6660   34.7430   42.8860 C   0  0  0  0  0  0  0  0  0  0  0  0
   45.0540   35.9200   43.3380 C   0  0  0  0  0  0  0  0  0  0  0  0
   44.6230   36.0610   44.6380 C   0  0  0  0  0  0  0  0  0  0  0  0
   44.8160   35.0150   45.4530 N   0  0  0  0  0  0  0  0  0  0  0  0
   45.4070   33.8700   45.0270 C   0  0  0  0  0  0  0  0  0  0  0  0
   45.8240   33.7620   43.7310 N   0  0  0  0  0  0  0  0  0  0  0  0
   45.6450   32.7270   45.8200 N   0  0  0  0  0  0  0  0  0  0  0  0
   45.5420   32.8590   47.2140 C   0  0  0  0  0  0  0  0  0  0  0  0
   44.6360   33.5530   47.7990 N   0  0  0  0  0  0  0  0  0  0  0  0
   46.4650   32.2050   48.1140 N   0  0  0  0  0  0  0  0  0  0  0  0
   43.9320   34.0510   47.2280 H   0  0  0  0  0  0  0  0  0  0  0  0
   47.5590   34.8600   41.3210 C   0  0  0  0  0  0  0  0  0  0  0  0
   48.0520   33.9670   40.3240 N   0  0  0  0  0  0  0  0  0  0  0  0
   47.7710   33.8480   39.0200 C   0  0  0  0  0  0  0  0  0  0  0  0
   48.4770   32.8490   38.4050 C   0  0  0  0  0  0  0  0  0  0  0  0
   49.2350   32.3300   39.4050 N   0  0  0  0  0  0  0  0  0  0  0  0
   48.9670   33.0100   40.5400 C   0  0  0  0  0  0  0  0  0  0  0  0
   49.6750   32.6030   41.7950 C   0  0  0  0  0  0  0  0  0  0  0  0
   51.1600   32.3340   41.7610 C   0  0  0  0  0  0  0  0  0  0  0  0
   50.6360   33.5760   42.4030 C   0  0  0  0  0  0  0  0  0  0  0  0
   45.7156   33.8160   41.0206 H   0  0  0  0  0  0  0  0  0  0  0  0
   45.5979   35.6280   41.0131 H   0  0  0  0  0  0  0  0  0  0  0  0
   44.9141   36.7542   42.6347 H   0  0  0  0  0  0  0  0  0  0  0  0
   44.1439   36.9865   44.9902 H   0  0  0  0  0  0  0  0  0  0  0  0
   45.8869   31.8233   45.3891 H   0  0  0  0  0  0  0  0  0  0  0  0
   46.3619   32.3222   49.1321 H   0  0  0  0  0  0  0  0  0  0  0  0
   47.2258   31.6218   47.7372 H   0  0  0  0  0  0  0  0  0  0  0  0
   47.8088   35.8907   41.0292 H   0  0  0  0  0  0  0  0  0  0  0  0
   48.0290   34.5923   42.2788 H   0  0  0  0  0  0  0  0  0  0  0  0
   47.0461   34.4882   38.4959 H   0  0  0  0  0  0  0  0  0  0  0  0
   48.4391   32.5398   37.3500 H   0  0  0  0  0  0  0  0  0  0  0  0
   48.7975   32.0370   42.1409 H   0  0  0  0  0  0  0  0  0  0  0  0
   51.5887   31.5327   42.3807 H   0  0  0  0  0  0  0  0  0  0  0  0
   51.8942   32.1152   40.9717 H   0  0  0  0  0  0  0  0  0  0  0  0
   50.8033   34.5526   41.9252 H   0  0  0  0  0  0  0  0  0  0  0  0
   50.7445   34.0397   43.3946 H   0  0  0  0  0  0  0  0  0  0  0  0
  1  2  1  0
  2  3  2  0
  2  7  1  0
  3  4  1  0
  4  5  2  0
  6  5  1  0
  6  8  1  0
  7  6  2  0
  8  9  1  0
  9 10  2  0
  9 11  1  0
 12 10  1  0
 13  1  1  0
 14 18  1  0
 14 13  1  0
 15 14  1  0
 16 15  2  0
 16 17  1  0
 17 18  2  0
 18 19  1  0
 19 21  1  0
 20 19  1  0
 20 21  1  0
  1 22  1  0
  1 23  1  0
  3 24  1  0
  4 25  1  0
  8 26  1  0
 11 27  1  0
 11 28  1  0
 13 29  1  0
 13 30  1  0
 15 31  1  0
 16 32  1  0
 19 33  1  0
 20 34  1  0
 20 35  1  0
 21 36  1  0
 21 37  1  0
M  ISO  8  22   8  23   8  24  14  25  14  29   8  30   8  31  14  32  14
M  ISO  5  33  13  34  13  35  13  36  13  37  13
M  END
>  <minimizedAffinity>  (1) 
-6.03476048

>  <minimizedRMSD>  (1) 
0.306841105

$$$$
