
     RDKit          3D

 45 48  0  0  0  0  0  0  0  0999 V2000
   47.5400   34.8130   41.6510 C   0  0  0  0  0  0  0  0  0  0  0  0
   47.9980   34.0060   40.5650 N   0  0  0  0  0  0  0  0  0  0  0  0
   47.6340   33.9820   39.2790 C   0  0  0  0  0  0  0  0  0  0  0  0
   48.3280   33.0500   38.5470 C   0  0  0  0  0  0  0  0  0  0  0  0
   49.1600   32.4800   39.4530 N   0  0  0  0  0  0  0  0  0  0  0  0
   48.9500   33.0620   40.6540 C   0  0  0  0  0  0  0  0  0  0  0  0
   49.7460   32.5860   41.8200 C   0  0  0  0  0  0  0  0  0  0  0  0
   51.2190   32.2980   41.6570 C   0  0  0  0  0  0  0  0  0  0  0  0
   50.7660   33.5060   42.4070 C   0  0  0  0  0  0  0  0  0  0  0  0
   46.0410   34.7340   41.8300 C   0  0  0  0  0  0  0  0  0  0  0  0
   45.6480   34.7520   43.2260 C   0  0  0  0  0  0  0  0  0  0  0  0
   44.8880   35.8460   43.6130 C   0  0  0  0  0  0  0  0  0  0  0  0
   44.4350   36.0110   44.9030 C   0  0  0  0  0  0  0  0  0  0  0  0
   44.7600   35.0600   45.7920 N   0  0  0  0  0  0  0  0  0  0  0  0
   45.5130   33.9800   45.4040 C   0  0  0  0  0  0  0  0  0  0  0  0
   45.9410   33.8520   44.1240 N   0  0  0  0  0  0  0  0  0  0  0  0
   45.8340   33.0000   46.3730 N   0  0  0  0  0  0  0  0  0  0  0  0
   46.8770   32.0290   46.1050 C   0  0  0  0  0  0  0  0  0  0  0  0
   46.3440   30.6400   46.3560 C   0  0  0  0  0  0  0  0  0  0  0  0
   45.7050   30.5520   47.7070 C   0  0  0  0  0  0  0  0  0  0  0  0
   45.7440   31.8480   48.4530 C   0  0  0  0  0  0  0  0  0  0  0  0
   45.1190   32.9650   47.6340 C   0  0  0  0  0  0  0  0  0  0  0  0
   47.8187   35.8592   41.4568 H   0  0  0  0  0  0  0  0  0  0  0  0
   48.0099   34.4373   42.5719 H   0  0  0  0  0  0  0  0  0  0  0  0
   46.8612   34.6385   38.8526 H   0  0  0  0  0  0  0  0  0  0  0  0
   48.2314   32.8198   37.4757 H   0  0  0  0  0  0  0  0  0  0  0  0
   48.8856   32.0162   42.2008 H   0  0  0  0  0  0  0  0  0  0  0  0
   51.6785   31.4557   42.1950 H   0  0  0  0  0  0  0  0  0  0  0  0
   51.8880   32.1159   40.8031 H   0  0  0  0  0  0  0  0  0  0  0  0
   50.9144   34.5067   41.9751 H   0  0  0  0  0  0  0  0  0  0  0  0
   50.9568   33.9086   43.4127 H   0  0  0  0  0  0  0  0  0  0  0  0
   45.5790   35.5934   41.3221 H   0  0  0  0  0  0  0  0  0  0  0  0
   45.7021   33.7804   41.3990 H   0  0  0  0  0  0  0  0  0  0  0  0
   44.6380   36.6098   42.8619 H   0  0  0  0  0  0  0  0  0  0  0  0
   43.8326   36.8848   45.1921 H   0  0  0  0  0  0  0  0  0  0  0  0
   47.7342   32.2186   46.7677 H   0  0  0  0  0  0  0  0  0  0  0  0
   47.1993   32.1154   45.0568 H   0  0  0  0  0  0  0  0  0  0  0  0
   45.5964   30.3961   45.5869 H   0  0  0  0  0  0  0  0  0  0  0  0
   47.1816   29.9281   46.3150 H   0  0  0  0  0  0  0  0  0  0  0  0
   44.6546   30.2513   47.5799 H   0  0  0  0  0  0  0  0  0  0  0  0
   46.2726   29.8151   48.2941 H   0  0  0  0  0  0  0  0  0  0  0  0
   45.1874   31.7378   49.3954 H   0  0  0  0  0  0  0  0  0  0  0  0
   46.7942   32.1057   48.6545 H   0  0  0  0  0  0  0  0  0  0  0  0
   45.2257   33.9261   48.1582 H   0  0  0  0  0  0  0  0  0  0  0  0
   44.0443   32.7903   47.4774 H   0  0  0  0  0  0  0  0  0  0  0  0
  1 10  1  0
  2  6  1  0
  2  1  1  0
  3  2  1  0
  4  3  2  0
  4  5  1  0
  5  6  2  0
  6  7  1  0
  7  9  1  0
  8  7  1  0
  8  9  1  0
 10 11  1  0
 11 12  2  0
 11 16  1  0
 12 13  1  0
 13 14  2  0
 15 14  1  0
 15 17  1  0
 16 15  2  0
 17 22  1  0
 18 19  1  0
 18 17  1  0
 19 20  1  0
 20 21  1  0
 22 21  1  0
  1 23  1  0
  1 24  1  0
  3 25  1  0
  4 26  1  0
  7 27  1  0
  8 28  1  0
  8 29  1  0
  9 30  1  0
  9 31  1  0
 10 32  1  0
 10 33  1  0
 12 34  1  0
 13 35  1  0
 18 36  1  0
 18 37  1  0
 19 38  1  0
 19 39  1  0
 20 40  1  0
 20 41  1  0
 21 42  1  0
 21 43  1  0
 22 44  1  0
 22 45  1  0
M  ISO  8  23   8  24   8  25  14  26  14  27  13  28  13  29  13  30  13
M  ISO  8  31  13  32   8  33   8  34  14  35  14  36  13  37  13  38  13
M  ISO  7  39  13  40  13  41  13  42  13  43  13  44  13  45  13
M  END
>  <minimizedAffinity>  (1) 
-5.94697714

>  <minimizedRMSD>  (1) 
0.182598159

$$$$
