
     RDKit          3D

 40 43  0  0  0  0  0  0  0  0999 V2000
   45.9570   34.5450   41.8160 C   0  0  0  0  0  0  0  0  0  0  0  0
   45.6020   34.6370   43.2230 C   0  0  0  0  0  0  0  0  0  0  0  0
   44.8310   35.7610   43.5550 C   0  0  0  0  0  0  0  0  0  0  0  0
   44.4010   36.0000   44.8390 C   0  0  0  0  0  0  0  0  0  0  0  0
   44.7660   35.0860   45.7670 N   0  0  0  0  0  0  0  0  0  0  0  0
   45.5140   33.9950   45.4460 C   0  0  0  0  0  0  0  0  0  0  0  0
   45.9250   33.7870   44.1600 N   0  0  0  0  0  0  0  0  0  0  0  0
   45.8910   33.0270   46.4690 C   0  0  0  0  0  0  0  0  0  0  0  0
   46.9610   32.1910   46.2380 C   0  0  0  0  0  0  0  0  0  0  0  0
   47.3800   31.2400   47.1690 C   0  0  0  0  0  0  0  0  0  0  0  0
   46.6530   31.1910   48.3380 C   0  0  0  0  0  0  0  0  0  0  0  0
   45.5760   31.9850   48.6440 C   0  0  0  0  0  0  0  0  0  0  0  0
   45.2200   32.9060   47.6670 C   0  0  0  0  0  0  0  0  0  0  0  0
   47.4300   34.7970   41.5820 C   0  0  0  0  0  0  0  0  0  0  0  0
   47.9510   33.9990   40.5310 N   0  0  0  0  0  0  0  0  0  0  0  0
   47.6480   33.9430   39.2250 C   0  0  0  0  0  0  0  0  0  0  0  0
   48.3960   33.0280   38.5320 C   0  0  0  0  0  0  0  0  0  0  0  0
   49.2100   32.4920   39.4860 N   0  0  0  0  0  0  0  0  0  0  0  0
   48.9250   33.0860   40.6660 C   0  0  0  0  0  0  0  0  0  0  0  0
   49.6870   32.6410   41.8770 C   0  0  0  0  0  0  0  0  0  0  0  0
   51.1570   32.3230   41.7510 C   0  0  0  0  0  0  0  0  0  0  0  0
   50.7130   33.5720   42.4370 C   0  0  0  0  0  0  0  0  0  0  0  0
   45.7077   33.5371   41.4527 H   0  0  0  0  0  0  0  0  0  0  0  0
   45.3914   35.3167   41.2733 H   0  0  0  0  0  0  0  0  0  0  0  0
   44.5617   36.4744   42.7622 H   0  0  0  0  0  0  0  0  0  0  0  0
   43.7961   36.8820   45.0963 H   0  0  0  0  0  0  0  0  0  0  0  0
   47.5046   32.2762   45.2855 H   0  0  0  0  0  0  0  0  0  0  0  0
   48.2346   30.5733   46.9818 H   0  0  0  0  0  0  0  0  0  0  0  0
   46.9623   30.4516   49.0914 H   0  0  0  0  0  0  0  0  0  0  0  0
   45.0327   31.8980   49.5965 H   0  0  0  0  0  0  0  0  0  0  0  0
   44.3634   33.5691   47.8581 H   0  0  0  0  0  0  0  0  0  0  0  0
   47.5713   35.8572   41.3250 H   0  0  0  0  0  0  0  0  0  0  0  0
   47.9680   34.5329   42.5044 H   0  0  0  0  0  0  0  0  0  0  0  0
   46.8750   34.5701   38.7568 H   0  0  0  0  0  0  0  0  0  0  0  0
   48.3508   32.7836   37.4604 H   0  0  0  0  0  0  0  0  0  0  0  0
   48.8120   32.1023   42.2696 H   0  0  0  0  0  0  0  0  0  0  0  0
   51.5945   31.4997   42.3347 H   0  0  0  0  0  0  0  0  0  0  0  0
   51.8356   32.0907   40.9170 H   0  0  0  0  0  0  0  0  0  0  0  0
   50.8842   34.5490   41.9614 H   0  0  0  0  0  0  0  0  0  0  0  0
   50.8952   34.0182   43.4258 H   0  0  0  0  0  0  0  0  0  0  0  0
  1  2  1  0
  2  3  2  0
  2  7  1  0
  3  4  1  0
  4  5  2  0
  6  5  1  0
  6  8  1  0
  7  6  2  0
  8 13  1  0
  9  8  2  0
  9 10  1  0
 10 11  2  0
 11 12  1  0
 13 12  2  0
 14  1  1  0
 15 19  1  0
 15 14  1  0
 16 15  1  0
 17 16  2  0
 17 18  1  0
 18 19  2  0
 19 20  1  0
 20 22  1  0
 21 20  1  0
 21 22  1  0
  1 23  1  0
  1 24  1  0
  3 25  1  0
  4 26  1  0
  9 27  1  0
 10 28  1  0
 11 29  1  0
 12 30  1  0
 13 31  1  0
 14 32  1  0
 14 33  1  0
 16 34  1  0
 17 35  1  0
 20 36  1  0
 21 37  1  0
 21 38  1  0
 22 39  1  0
 22 40  1  0
M  ISO  8  23   8  24   8  25  14  26  14  27  14  28  14  29  14  30  14
M  ISO  8  31  14  32   8  33   8  34  14  35  14  36  13  37  13  38  13
M  ISO  2  39  13  40  13
M  END
>  <minimizedAffinity>  (1) 
-5.89905739

>  <minimizedRMSD>  (1) 
0.48124069

$$$$
