
     RDKit          3D

 42 45  0  0  0  0  0  0  0  0999 V2000
   47.6430   34.8230   41.7590 C   0  0  0  0  0  0  0  0  0  0  0  0
   48.0260   34.0180   40.6560 N   0  0  0  0  0  0  0  0  0  0  0  0
   47.6080   34.0110   39.3790 C   0  0  0  0  0  0  0  0  0  0  0  0
   48.2410   33.0710   38.6070 C   0  0  0  0  0  0  0  0  0  0  0  0
   49.0950   32.4720   39.4740 N   0  0  0  0  0  0  0  0  0  0  0  0
   48.9520   33.0500   40.6860 C   0  0  0  0  0  0  0  0  0  0  0  0
   49.7880   32.5290   41.8320 C   0  0  0  0  0  0  0  0  0  0  0  0
   51.2570   32.2760   41.6070 C   0  0  0  0  0  0  0  0  0  0  0  0
   50.8160   33.4640   42.3970 C   0  0  0  0  0  0  0  0  0  0  0  0
   46.1400   34.9290   41.9030 C   0  0  0  0  0  0  0  0  0  0  0  0
   45.7190   34.8480   43.2860 C   0  0  0  0  0  0  0  0  0  0  0  0
   44.9200   35.9090   43.7280 C   0  0  0  0  0  0  0  0  0  0  0  0
   44.4350   35.9790   45.0130 C   0  0  0  0  0  0  0  0  0  0  0  0
   44.7640   34.9700   45.8430 N   0  0  0  0  0  0  0  0  0  0  0  0
   45.5420   33.9400   45.4100 C   0  0  0  0  0  0  0  0  0  0  0  0
   46.0080   33.8960   44.1320 N   0  0  0  0  0  0  0  0  0  0  0  0
   45.8510   32.9080   46.3390 N   0  0  0  0  0  0  0  0  0  0  0  0
   46.9000   31.9260   46.1380 C   0  0  0  0  0  0  0  0  0  0  0  0
   47.4460   31.7920   47.5350 C   0  0  0  0  0  0  0  0  0  0  0  0
   46.4310   32.3940   48.4840 C   0  0  0  0  0  0  0  0  0  0  0  0
   45.2140   32.6390   47.6150 C   0  0  0  0  0  0  0  0  0  0  0  0
   48.0564   35.8328   41.6195 H   0  0  0  0  0  0  0  0  0  0  0  0
   48.0343   34.3491   42.6713 H   0  0  0  0  0  0  0  0  0  0  0  0
   46.8353   34.6913   38.9916 H   0  0  0  0  0  0  0  0  0  0  0  0
   48.0918   32.8543   37.5389 H   0  0  0  0  0  0  0  0  0  0  0  0
   48.9572   31.9282   42.2306 H   0  0  0  0  0  0  0  0  0  0  0  0
   51.7536   31.4338   42.1110 H   0  0  0  0  0  0  0  0  0  0  0  0
   51.8934   32.1222   40.7231 H   0  0  0  0  0  0  0  0  0  0  0  0
   50.9283   34.4745   41.9772 H   0  0  0  0  0  0  0  0  0  0  0  0
   51.0405   33.8540   43.4007 H   0  0  0  0  0  0  0  0  0  0  0  0
   45.8109   35.8930   41.4878 H   0  0  0  0  0  0  0  0  0  0  0  0
   45.6871   34.0858   41.3608 H   0  0  0  0  0  0  0  0  0  0  0  0
   44.6712   36.7154   43.0225 H   0  0  0  0  0  0  0  0  0  0  0  0
   43.8082   36.8189   45.3473 H   0  0  0  0  0  0  0  0  0  0  0  0
   46.4941   30.9719   45.7705 H   0  0  0  0  0  0  0  0  0  0  0  0
   47.6494   32.2132   45.3857 H   0  0  0  0  0  0  0  0  0  0  0  0
   47.6014   30.7302   47.7765 H   0  0  0  0  0  0  0  0  0  0  0  0
   48.4120   32.3108   47.6232 H   0  0  0  0  0  0  0  0  0  0  0  0
   46.1947   31.6938   49.2988 H   0  0  0  0  0  0  0  0  0  0  0  0
   46.7968   33.3119   48.9674 H   0  0  0  0  0  0  0  0  0  0  0  0
   44.6302   33.5021   47.9675 H   0  0  0  0  0  0  0  0  0  0  0  0
   44.4874   31.8133   47.5999 H   0  0  0  0  0  0  0  0  0  0  0  0
  1 10  1  0
  2  6  1  0
  2  1  1  0
  3  2  1  0
  4  3  2  0
  4  5  1  0
  5  6  2  0
  6  7  1  0
  7  9  1  0
  8  7  1  0
  8  9  1  0
 10 11  1  0
 11 12  2  0
 11 16  1  0
 12 13  1  0
 13 14  2  0
 15 14  1  0
 15 17  1  0
 16 15  2  0
 17 21  1  0
 18 17  1  0
 18 19  1  0
 19 20  1  0
 21 20  1  0
  1 22  1  0
  1 23  1  0
  3 24  1  0
  4 25  1  0
  7 26  1  0
  8 27  1  0
  8 28  1  0
  9 29  1  0
  9 30  1  0
 10 31  1  0
 10 32  1  0
 12 33  1  0
 13 34  1  0
 18 35  1  0
 18 36  1  0
 19 37  1  0
 19 38  1  0
 20 39  1  0
 20 40  1  0
 21 41  1  0
 21 42  1  0
M  ISO  8  22   8  23   8  24  14  25  14  26  13  27  13  28  13  29  13
M  ISO  8  30  13  31   8  32   8  33  14  34  14  35  13  36  13  37  13
M  ISO  5  38  13  39  13  40  13  41  13  42  13
M  END
>  <minimizedAffinity>  (1) 
-5.7656002

>  <minimizedRMSD>  (1) 
0.0921674147

$$$$
