
     RDKit          3D

 38 41  0  0  0  0  0  0  0  0999 V2000
   47.4830   34.8180   41.5760 C   0  0  0  0  0  0  0  0  0  0  0  0
   47.9820   34.0130   40.5180 N   0  0  0  0  0  0  0  0  0  0  0  0
   47.6630   33.9710   39.2150 C   0  0  0  0  0  0  0  0  0  0  0  0
   48.3890   33.0420   38.5140 C   0  0  0  0  0  0  0  0  0  0  0  0
   49.2010   32.4830   39.4530 N   0  0  0  0  0  0  0  0  0  0  0  0
   48.9430   33.0760   40.6380 C   0  0  0  0  0  0  0  0  0  0  0  0
   49.7080   32.6250   41.8310 C   0  0  0  0  0  0  0  0  0  0  0  0
   51.1800   32.3030   41.7020 C   0  0  0  0  0  0  0  0  0  0  0  0
   50.7320   33.5300   42.4210 C   0  0  0  0  0  0  0  0  0  0  0  0
   45.9930   34.6180   41.7870 C   0  0  0  0  0  0  0  0  0  0  0  0
   45.6220   34.6840   43.1860 C   0  0  0  0  0  0  0  0  0  0  0  0
   44.8430   35.7700   43.5550 C   0  0  0  0  0  0  0  0  0  0  0  0
   44.4100   35.9710   44.8450 C   0  0  0  0  0  0  0  0  0  0  0  0
   44.7730   35.0640   45.7550 N   0  0  0  0  0  0  0  0  0  0  0  0
   45.5480   33.9770   45.4000 C   0  0  0  0  0  0  0  0  0  0  0  0
   45.9480   33.8270   44.1130 N   0  0  0  0  0  0  0  0  0  0  0  0
   45.9170   33.0150   46.4240 C   0  0  0  0  0  0  0  0  0  0  0  0
   46.9770   32.1810   46.1970 C   0  0  0  0  0  0  0  0  0  0  0  0
   47.2770   31.2950   47.2020 C   0  0  0  0  0  0  0  0  0  0  0  0
   46.6000   31.2220   48.3430 N   0  0  0  0  0  0  0  0  0  0  0  0
   45.5570   32.0750   48.5140 C   0  0  0  0  0  0  0  0  0  0  0  0
   45.2020   32.9820   47.5580 N   0  0  0  0  0  0  0  0  0  0  0  0
   47.6692   35.8753   41.3363 H   0  0  0  0  0  0  0  0  0  0  0  0
   48.0003   34.5233   42.5010 H   0  0  0  0  0  0  0  0  0  0  0  0
   46.8982   34.6151   38.7565 H   0  0  0  0  0  0  0  0  0  0  0  0
   48.3290   32.8039   37.4418 H   0  0  0  0  0  0  0  0  0  0  0  0
   48.8256   32.0877   42.2088 H   0  0  0  0  0  0  0  0  0  0  0  0
   51.6118   31.4614   42.2634 H   0  0  0  0  0  0  0  0  0  0  0  0
   51.8634   32.0930   40.8660 H   0  0  0  0  0  0  0  0  0  0  0  0
   50.9087   34.5203   41.9759 H   0  0  0  0  0  0  0  0  0  0  0  0
   50.9093   33.9449   43.4242 H   0  0  0  0  0  0  0  0  0  0  0  0
   45.4498   35.4024   41.2396 H   0  0  0  0  0  0  0  0  0  0  0  0
   45.7323   33.6156   41.4166 H   0  0  0  0  0  0  0  0  0  0  0  0
   44.5594   36.5014   42.7839 H   0  0  0  0  0  0  0  0  0  0  0  0
   43.7922   36.8402   45.1148 H   0  0  0  0  0  0  0  0  0  0  0  0
   47.5561   32.2180   45.2625 H   0  0  0  0  0  0  0  0  0  0  0  0
   48.1237   30.6084   47.0546 H   0  0  0  0  0  0  0  0  0  0  0  0
   44.9815   32.0336   49.4505 H   0  0  0  0  0  0  0  0  0  0  0  0
  1 10  1  0
  2  6  1  0
  2  1  1  0
  3  2  1  0
  4  3  2  0
  4  5  1  0
  5  6  2  0
  6  7  1  0
  7  9  1  0
  8  7  1  0
  8  9  1  0
 10 11  1  0
 11 12  2  0
 11 16  1  0
 12 13  1  0
 13 14  2  0
 15 14  1  0
 15 17  1  0
 16 15  2  0
 17 22  1  0
 18 17  2  0
 18 19  1  0
 19 20  2  0
 20 21  1  0
 22 21  2  0
  1 23  1  0
  1 24  1  0
  3 25  1  0
  4 26  1  0
  7 27  1  0
  8 28  1  0
  8 29  1  0
  9 30  1  0
  9 31  1  0
 10 32  1  0
 10 33  1  0
 12 34  1  0
 13 35  1  0
 18 36  1  0
 19 37  1  0
 21 38  1  0
M  ISO  8  23   8  24   8  25  14  26  14  27  13  28  13  29  13  30  13
M  ISO  8  31  13  32   8  33   8  34  14  35  14  36  14  37  14  38  14
M  END
>  <minimizedAffinity>  (1) 
-5.70918083

>  <minimizedRMSD>  (1) 
0.33078289

$$$$
