
     RDKit          3D

 38 41  0  0  0  0  0  0  0  0999 V2000
   47.4780   34.7990   41.5370 C   0  0  0  0  0  0  0  0  0  0  0  0
   47.9990   34.0050   40.4910 N   0  0  0  0  0  0  0  0  0  0  0  0
   47.7080   33.9710   39.1780 C   0  0  0  0  0  0  0  0  0  0  0  0
   48.4520   33.0490   38.4800 C   0  0  0  0  0  0  0  0  0  0  0  0
   49.2350   32.4950   39.4260 N   0  0  0  0  0  0  0  0  0  0  0  0
   48.9550   33.0740   40.6140 C   0  0  0  0  0  0  0  0  0  0  0  0
   49.7040   32.6060   41.8230 C   0  0  0  0  0  0  0  0  0  0  0  0
   51.1810   32.3020   41.7110 C   0  0  0  0  0  0  0  0  0  0  0  0
   50.7190   33.5270   42.4230 C   0  0  0  0  0  0  0  0  0  0  0  0
   45.9860   34.5430   41.7520 C   0  0  0  0  0  0  0  0  0  0  0  0
   45.6150   34.6540   43.1450 C   0  0  0  0  0  0  0  0  0  0  0  0
   44.8480   35.7730   43.4770 C   0  0  0  0  0  0  0  0  0  0  0  0
   44.4170   36.0180   44.7610 C   0  0  0  0  0  0  0  0  0  0  0  0
   44.7660   35.1280   45.6930 N   0  0  0  0  0  0  0  0  0  0  0  0
   45.5240   34.0170   45.3760 C   0  0  0  0  0  0  0  0  0  0  0  0
   45.9260   33.8170   44.0950 N   0  0  0  0  0  0  0  0  0  0  0  0
   45.9090   33.0390   46.3930 C   0  0  0  0  0  0  0  0  0  0  0  0
   46.9620   32.1990   46.1820 C   0  0  0  0  0  0  0  0  0  0  0  0
   47.2940   31.2930   47.1630 C   0  0  0  0  0  0  0  0  0  0  0  0
   46.6100   31.2200   48.3090 N   0  0  0  0  0  0  0  0  0  0  0  0
   45.5590   32.0650   48.5080 C   0  0  0  0  0  0  0  0  0  0  0  0
   45.2340   32.9490   47.5540 N   0  0  0  0  0  0  0  0  0  0  0  0
   47.6252   35.8599   41.2865 H   0  0  0  0  0  0  0  0  0  0  0  0
   48.0082   34.5357   42.4641 H   0  0  0  0  0  0  0  0  0  0  0  0
   46.9504   34.6164   38.7095 H   0  0  0  0  0  0  0  0  0  0  0  0
   48.4163   32.8186   37.4050 H   0  0  0  0  0  0  0  0  0  0  0  0
   48.8260   32.0532   42.1883 H   0  0  0  0  0  0  0  0  0  0  0  0
   51.6157   31.4661   42.2787 H   0  0  0  0  0  0  0  0  0  0  0  0
   51.8737   32.0976   40.8813 H   0  0  0  0  0  0  0  0  0  0  0  0
   50.8912   34.5176   41.9768 H   0  0  0  0  0  0  0  0  0  0  0  0
   50.8845   33.9465   43.4263 H   0  0  0  0  0  0  0  0  0  0  0  0
   45.4115   35.2797   41.1712 H   0  0  0  0  0  0  0  0  0  0  0  0
   45.7650   33.5175   41.4211 H   0  0  0  0  0  0  0  0  0  0  0  0
   44.5784   36.4849   42.6829 H   0  0  0  0  0  0  0  0  0  0  0  0
   43.8140   36.9044   45.0074 H   0  0  0  0  0  0  0  0  0  0  0  0
   47.5357   32.2447   45.2446 H   0  0  0  0  0  0  0  0  0  0  0  0
   48.1427   30.6125   47.0002 H   0  0  0  0  0  0  0  0  0  0  0  0
   44.9823   32.0219   49.4437 H   0  0  0  0  0  0  0  0  0  0  0  0
  1 10  1  0
  2  6  1  0
  2  1  1  0
  3  2  1  0
  4  3  2  0
  4  5  1  0
  5  6  2  0
  6  7  1  0
  7  9  1  0
  8  7  1  0
  8  9  1  0
 10 11  1  0
 11 12  2  0
 11 16  1  0
 12 13  1  0
 13 14  2  0
 15 14  1  0
 15 17  1  0
 16 15  2  0
 17 22  1  0
 18 17  2  0
 18 19  1  0
 19 20  2  0
 20 21  1  0
 22 21  2  0
  1 23  1  0
  1 24  1  0
  3 25  1  0
  4 26  1  0
  7 27  1  0
  8 28  1  0
  8 29  1  0
  9 30  1  0
  9 31  1  0
 10 32  1  0
 10 33  1  0
 12 34  1  0
 13 35  1  0
 18 36  1  0
 19 37  1  0
 21 38  1  0
M  ISO  8  23   8  24   8  25  14  26  14  27  13  28  13  29  13  30  13
M  ISO  8  31  13  32   8  33   8  34  14  35  14  36  14  37  14  38  14
M  END
>  <minimizedAffinity>  (1) 
-5.70218897

>  <minimizedRMSD>  (1) 
0.300573468

$$$$
