
     RDKit          3D

 32 34  0  0  0  0  0  0  0  0999 V2000
   47.6350   34.8540   41.6720 C   0  0  0  0  0  0  0  0  0  0  0  0
   48.0440   34.0250   40.5850 N   0  0  0  0  0  0  0  0  0  0  0  0
   47.6460   34.0050   39.3050 C   0  0  0  0  0  0  0  0  0  0  0  0
   48.2890   33.0470   38.5630 C   0  0  0  0  0  0  0  0  0  0  0  0
   49.1320   32.4500   39.4600 N   0  0  0  0  0  0  0  0  0  0  0  0
   48.9640   33.0510   40.6570 C   0  0  0  0  0  0  0  0  0  0  0  0
   49.7700   32.5690   41.8160 C   0  0  0  0  0  0  0  0  0  0  0  0
   51.2420   32.2840   41.6240 C   0  0  0  0  0  0  0  0  0  0  0  0
   50.8000   33.4820   42.3970 C   0  0  0  0  0  0  0  0  0  0  0  0
   46.1270   34.9450   41.7910 C   0  0  0  0  0  0  0  0  0  0  0  0
   45.6820   34.8900   43.1710 C   0  0  0  0  0  0  0  0  0  0  0  0
   44.9860   36.0070   43.6070 C   0  0  0  0  0  0  0  0  0  0  0  0
   44.4880   36.1250   44.8850 C   0  0  0  0  0  0  0  0  0  0  0  0
   44.7060   35.0970   45.7070 N   0  0  0  0  0  0  0  0  0  0  0  0
   45.3990   33.9790   45.2810 C   0  0  0  0  0  0  0  0  0  0  0  0
   45.8760   33.9070   44.0030 N   0  0  0  0  0  0  0  0  0  0  0  0
   45.6350   32.8860   46.1440 N   0  0  0  0  0  0  0  0  0  0  0  0
   48.0392   35.8653   41.5170 H   0  0  0  0  0  0  0  0  0  0  0  0
   48.0191   34.4054   42.6000 H   0  0  0  0  0  0  0  0  0  0  0  0
   46.8850   34.6844   38.8936 H   0  0  0  0  0  0  0  0  0  0  0  0
   48.1575   32.8134   37.4962 H   0  0  0  0  0  0  0  0  0  0  0  0
   48.9140   32.0006   42.2086 H   0  0  0  0  0  0  0  0  0  0  0  0
   51.7113   31.4355   42.1434 H   0  0  0  0  0  0  0  0  0  0  0  0
   51.8968   32.1134   40.7567 H   0  0  0  0  0  0  0  0  0  0  0  0
   50.9403   34.4883   41.9754 H   0  0  0  0  0  0  0  0  0  0  0  0
   51.0075   33.8717   43.4045 H   0  0  0  0  0  0  0  0  0  0  0  0
   45.7934   35.8954   41.3488 H   0  0  0  0  0  0  0  0  0  0  0  0
   45.6938   34.0834   41.2618 H   0  0  0  0  0  0  0  0  0  0  0  0
   44.8247   36.8350   42.9010 H   0  0  0  0  0  0  0  0  0  0  0  0
   43.9388   37.0204   45.2115 H   0  0  0  0  0  0  0  0  0  0  0  0
   46.1539   32.0639   45.8038 H   0  0  0  0  0  0  0  0  0  0  0  0
   45.2882   32.9111   47.1135 H   0  0  0  0  0  0  0  0  0  0  0  0
  1 10  1  0
  2  6  1  0
  2  1  1  0
  3  2  1  0
  4  3  2  0
  4  5  1  0
  5  6  2  0
  6  7  1  0
  7  9  1  0
  8  7  1  0
  8  9  1  0
 10 11  1  0
 11 12  2  0
 11 16  1  0
 12 13  1  0
 13 14  2  0
 15 14  1  0
 15 17  1  0
 16 15  2  0
  1 18  1  0
  1 19  1  0
  3 20  1  0
  4 21  1  0
  7 22  1  0
  8 23  1  0
  8 24  1  0
  9 25  1  0
  9 26  1  0
 10 27  1  0
 10 28  1  0
 12 29  1  0
 13 30  1  0
 17 31  1  0
 17 32  1  0
M  ISO  8  18   8  19   8  20  14  21  14  22  13  23  13  24  13  25  13
M  ISO  5  26  13  27   8  28   8  29  14  30  14
M  END
>  <minimizedAffinity>  (1) 
-4.81300783

>  <minimizedRMSD>  (1) 
0.0968493521

$$$$
