
     RDKit          3D

 47 51  0  0  0  0  0  0  0  0999 V2000
   46.1710   34.9840   41.9600 C   0  0  0  0  0  0  0  0  0  0  0  0
   45.9140   34.7280   43.3600 C   0  0  0  0  0  0  0  0  0  0  0  0
   44.9040   35.4780   43.9370 C   0  0  0  0  0  0  0  0  0  0  0  0
   44.5340   35.3540   45.2490 C   0  0  0  0  0  0  0  0  0  0  0  0
   45.2040   34.4610   45.9630 N   0  0  0  0  0  0  0  0  0  0  0  0
   46.2130   33.6990   45.4290 C   0  0  0  0  0  0  0  0  0  0  0  0
   46.5510   33.8540   44.1120 N   0  0  0  0  0  0  0  0  0  0  0  0
   46.8170   32.8200   46.2780 O   0  0  0  0  0  0  0  0  0  0  0  0
   46.2410   32.1330   47.2760 C   0  0  0  0  0  0  0  0  0  0  0  0
   45.8990   32.3650   48.5850 C   0  0  0  0  0  0  0  0  0  0  0  0
   45.2960   31.4890   49.4520 C   0  0  0  0  0  0  0  0  0  0  0  0
   45.0030   30.2420   48.9530 C   0  0  0  0  0  0  0  0  0  0  0  0
   45.3010   29.9010   47.6550 C   0  0  0  0  0  0  0  0  0  0  0  0
   44.9540   28.6230   47.2830 C   0  0  0  0  0  0  0  0  0  0  0  0
   45.2310   28.2320   45.9930 C   0  0  0  0  0  0  0  0  0  0  0  0
   45.8350   29.0860   45.1020 C   0  0  0  0  0  0  0  0  0  0  0  0
   46.1480   30.3470   45.5560 C   0  0  0  0  0  0  0  0  0  0  0  0
   45.9150   30.8440   46.8310 C   0  0  0  0  0  0  0  0  0  0  0  0
   47.6410   35.0610   41.6430 C   0  0  0  0  0  0  0  0  0  0  0  0
   48.0340   34.1530   40.6350 N   0  0  0  0  0  0  0  0  0  0  0  0
   47.6730   34.0600   39.3480 C   0  0  0  0  0  0  0  0  0  0  0  0
   48.2880   33.0340   38.6870 C   0  0  0  0  0  0  0  0  0  0  0  0
   49.0760   32.4680   39.6410 N   0  0  0  0  0  0  0  0  0  0  0  0
   48.9070   33.1500   40.7910 C   0  0  0  0  0  0  0  0  0  0  0  0
   49.6720   32.6880   41.9930 C   0  0  0  0  0  0  0  0  0  0  0  0
   51.0530   32.1170   41.8460 C   0  0  0  0  0  0  0  0  0  0  0  0
   50.8690   33.5030   42.4000 C   0  0  0  0  0  0  0  0  0  0  0  0
   45.7251   34.1724   41.3663 H   0  0  0  0  0  0  0  0  0  0  0  0
   45.7268   35.9598   41.7139 H   0  0  0  0  0  0  0  0  0  0  0  0
   44.3726   36.2096   43.3106 H   0  0  0  0  0  0  0  0  0  0  0  0
   43.7269   35.9607   45.6856 H   0  0  0  0  0  0  0  0  0  0  0  0
   46.1343   33.3632   48.9827 H   0  0  0  0  0  0  0  0  0  0  0  0
   45.0600   31.7691   50.4892 H   0  0  0  0  0  0  0  0  0  0  0  0
   44.5196   29.5009   49.6065 H   0  0  0  0  0  0  0  0  0  0  0  0
   44.4709   27.9360   47.9934 H   0  0  0  0  0  0  0  0  0  0  0  0
   44.9635   27.2155   45.6687 H   0  0  0  0  0  0  0  0  0  0  0  0
   46.0586   28.7754   44.0707 H   0  0  0  0  0  0  0  0  0  0  0  0
   46.6298   31.0274   44.8385 H   0  0  0  0  0  0  0  0  0  0  0  0
   47.8745   36.0818   41.3063 H   0  0  0  0  0  0  0  0  0  0  0  0
   48.1905   34.7962   42.5584 H   0  0  0  0  0  0  0  0  0  0  0  0
   46.9533   34.7416   38.8710 H   0  0  0  0  0  0  0  0  0  0  0  0
   48.1733   32.7365   37.6342 H   0  0  0  0  0  0  0  0  0  0  0  0
   48.7507   32.3286   42.4747 H   0  0  0  0  0  0  0  0  0  0  0  0
   51.3835   31.3008   42.5052 H   0  0  0  0  0  0  0  0  0  0  0  0
   51.6300   31.6814   41.0169 H   0  0  0  0  0  0  0  0  0  0  0  0
   51.1675   34.3780   41.8039 H   0  0  0  0  0  0  0  0  0  0  0  0
   51.1816   34.0223   43.3180 H   0  0  0  0  0  0  0  0  0  0  0  0
  1  2  1  0
  2  3  2  0
  2  7  1  0
  3  4  1  0
  4  5  2  0
  6  5  1  0
  6  8  1  0
  7  6  2  0
  8  9  1  0
  9 10  2  0
 10 11  1  0
 12 11  2  0
 13 12  1  0
 14 13  2  0
 15 14  1  0
 16 17  1  0
 16 15  2  0
 17 18  2  0
 18  9  1  0
 18 13  1  0
 19  1  1  0
 20 24  1  0
 20 19  1  0
 21 20  1  0
 22 21  2  0
 22 23  1  0
 23 24  2  0
 24 25  1  0
 25 27  1  0
 26 25  1  0
 26 27  1  0
  1 28  1  0
  1 29  1  0
  3 30  1  0
  4 31  1  0
 10 32  1  0
 11 33  1  0
 12 34  1  0
 14 35  1  0
 15 36  1  0
 16 37  1  0
 17 38  1  0
 19 39  1  0
 19 40  1  0
 21 41  1  0
 22 42  1  0
 25 43  1  0
 26 44  1  0
 26 45  1  0
 27 46  1  0
 27 47  1  0
M  ISO  8  28   8  29   8  30  14  31  14  32  14  33  14  34  14  35  14
M  ISO  8  36  14  37  14  38  14  39   8  40   8  41  14  42  14  43  13
M  ISO  4  44  13  45  13  46  13  47  13
M  END
>  <minimizedAffinity>  (1) 
-6.57548857

>  <minimizedRMSD>  (1) 
1.58891082

$$$$
