
     RDKit          3D

 47 50  0  0  0  0  0  0  0  0999 V2000
   47.5700   34.8600   41.3620 C   0  0  0  0  0  0  0  0  0  0  0  0
   48.0560   33.9760   40.3540 N   0  0  0  0  0  0  0  0  0  0  0  0
   47.7560   33.8840   39.0570 C   0  0  0  0  0  0  0  0  0  0  0  0
   48.4500   32.8950   38.4240 C   0  0  0  0  0  0  0  0  0  0  0  0
   49.2180   32.3560   39.4060 N   0  0  0  0  0  0  0  0  0  0  0  0
   48.9660   33.0170   40.5510 C   0  0  0  0  0  0  0  0  0  0  0  0
   49.6940   32.5850   41.7730 C   0  0  0  0  0  0  0  0  0  0  0  0
   51.1740   32.3220   41.7390 C   0  0  0  0  0  0  0  0  0  0  0  0
   50.6450   33.5540   42.4170 C   0  0  0  0  0  0  0  0  0  0  0  0
   46.0890   34.6600   41.6330 C   0  0  0  0  0  0  0  0  0  0  0  0
   45.8010   34.6430   43.0510 C   0  0  0  0  0  0  0  0  0  0  0  0
   44.7950   35.5020   43.4810 C   0  0  0  0  0  0  0  0  0  0  0  0
   44.4070   35.6040   44.7880 C   0  0  0  0  0  0  0  0  0  0  0  0
   45.0390   34.8340   45.6680 N   0  0  0  0  0  0  0  0  0  0  0  0
   46.0280   33.9850   45.2650 C   0  0  0  0  0  0  0  0  0  0  0  0
   46.3920   33.9090   43.9410 N   0  0  0  0  0  0  0  0  0  0  0  0
   46.6150   33.2350   46.2720 O   0  0  0  0  0  0  0  0  0  0  0  0
   45.7880   32.2210   46.8440 C   0  0  0  0  0  0  0  0  0  0  0  0
   46.5020   30.9050   46.6400 C   0  0  0  0  0  0  0  0  0  0  0  0
   47.6940   30.8370   47.5730 C   0  0  0  0  0  0  0  0  0  0  0  0
   47.1760   30.9300   48.9800 C   0  0  0  0  0  0  0  0  0  0  0  0
   45.7100   31.2230   49.0680 C   0  0  0  0  0  0  0  0  0  0  0  0
   45.4320   32.4880   48.2700 C   0  0  0  0  0  0  0  0  0  0  0  0
   47.7333   35.8969   41.0330 H   0  0  0  0  0  0  0  0  0  0  0  0
   48.1162   34.6452   42.2923 H   0  0  0  0  0  0  0  0  0  0  0  0
   47.0274   34.5357   38.5526 H   0  0  0  0  0  0  0  0  0  0  0  0
   48.3995   32.6022   37.3649 H   0  0  0  0  0  0  0  0  0  0  0  0
   48.8220   31.9968   42.0948 H   0  0  0  0  0  0  0  0  0  0  0  0
   51.6013   31.5048   42.3386 H   0  0  0  0  0  0  0  0  0  0  0  0
   51.9113   32.1260   40.9465 H   0  0  0  0  0  0  0  0  0  0  0  0
   50.8106   34.5437   41.9664 H   0  0  0  0  0  0  0  0  0  0  0  0
   50.7463   33.9937   43.4202 H   0  0  0  0  0  0  0  0  0  0  0  0
   45.5270   35.4817   41.1651 H   0  0  0  0  0  0  0  0  0  0  0  0
   45.7918   33.6884   41.2115 H   0  0  0  0  0  0  0  0  0  0  0  0
   44.2872   36.1294   42.7336 H   0  0  0  0  0  0  0  0  0  0  0  0
   43.6072   36.2928   45.0976 H   0  0  0  0  0  0  0  0  0  0  0  0
   44.8103   32.1995   46.3403 H   0  0  0  0  0  0  0  0  0  0  0  0
   45.8144   30.0750   46.8600 H   0  0  0  0  0  0  0  0  0  0  0  0
   46.8431   30.8265   45.5972 H   0  0  0  0  0  0  0  0  0  0  0  0
   48.2270   29.8852   47.4317 H   0  0  0  0  0  0  0  0  0  0  0  0
   48.3949   31.6587   47.3645 H   0  0  0  0  0  0  0  0  0  0  0  0
   47.3687   29.9715   49.4842 H   0  0  0  0  0  0  0  0  0  0  0  0
   47.6993   31.7710   49.4583 H   0  0  0  0  0  0  0  0  0  0  0  0
   45.1362   30.3837   48.6481 H   0  0  0  0  0  0  0  0  0  0  0  0
   45.4114   31.3613   50.1176 H   0  0  0  0  0  0  0  0  0  0  0  0
   46.0426   33.3164   48.6585 H   0  0  0  0  0  0  0  0  0  0  0  0
   44.3714   32.7675   48.3535 H   0  0  0  0  0  0  0  0  0  0  0  0
  1 10  1  0
  2  6  1  0
  2  1  1  0
  3  2  1  0
  4  3  2  0
  4  5  1  0
  5  6  2  0
  6  7  1  0
  7  9  1  0
  8  7  1  0
  8  9  1  0
 10 11  1  0
 11 12  2  0
 11 16  1  0
 12 13  1  0
 13 14  2  0
 15 14  1  0
 15 17  1  0
 16 15  2  0
 17 18  1  0
 18 23  1  0
 19 18  1  0
 19 20  1  0
 20 21  1  0
 21 22  1  0
 23 22  1  0
  1 24  1  0
  1 25  1  0
  3 26  1  0
  4 27  1  0
  7 28  1  0
  8 29  1  0
  8 30  1  0
  9 31  1  0
  9 32  1  0
 10 33  1  0
 10 34  1  0
 12 35  1  0
 13 36  1  0
 18 37  1  0
 19 38  1  0
 19 39  1  0
 20 40  1  0
 20 41  1  0
 21 42  1  0
 21 43  1  0
 22 44  1  0
 22 45  1  0
 23 46  1  0
 23 47  1  0
M  ISO  8  24   8  25   8  26  14  27  14  28  13  29  13  30  13  31  13
M  ISO  8  32  13  33   8  34   8  35  14  36  14  37  13  38  13  39  13
M  ISO  8  40  13  41  13  42  13  43  13  44  13  45  13  46  13  47  13
M  END
>  <minimizedAffinity>  (1) 
-5.7574954

>  <minimizedRMSD>  (1) 
1.41942072

$$$$
