
     RDKit          3D

 38 41  0  0  0  0  0  0  0  0999 V2000
   47.6480   35.0540   41.6930 C   0  0  0  0  0  0  0  0  0  0  0  0
   48.0310   34.1590   40.6540 N   0  0  0  0  0  0  0  0  0  0  0  0
   47.6600   34.0870   39.3750 C   0  0  0  0  0  0  0  0  0  0  0  0
   48.2700   33.0750   38.6980 C   0  0  0  0  0  0  0  0  0  0  0  0
   49.0670   32.4920   39.6370 N   0  0  0  0  0  0  0  0  0  0  0  0
   48.9040   33.1610   40.7990 C   0  0  0  0  0  0  0  0  0  0  0  0
   49.6770   32.6730   41.9890 C   0  0  0  0  0  0  0  0  0  0  0  0
   51.0530   32.1010   41.8220 C   0  0  0  0  0  0  0  0  0  0  0  0
   50.8780   33.4800   42.4000 C   0  0  0  0  0  0  0  0  0  0  0  0
   46.1810   34.9700   42.0210 C   0  0  0  0  0  0  0  0  0  0  0  0
   45.9430   34.6780   43.4160 C   0  0  0  0  0  0  0  0  0  0  0  0
   44.9350   35.4090   44.0260 C   0  0  0  0  0  0  0  0  0  0  0  0
   44.5820   35.2420   45.3570 C   0  0  0  0  0  0  0  0  0  0  0  0
   45.2830   34.3160   46.0440 N   0  0  0  0  0  0  0  0  0  0  0  0
   46.2750   33.6000   45.4310 C   0  0  0  0  0  0  0  0  0  0  0  0
   46.5880   33.7970   44.1210 N   0  0  0  0  0  0  0  0  0  0  0  0
   46.8720   32.7030   46.2910 O   0  0  0  0  0  0  0  0  0  0  0  0
   46.3030   32.1570   47.3840 C   0  0  0  0  0  0  0  0  0  0  0  0
   45.9520   32.3430   48.7350 C   0  0  0  0  0  0  0  0  0  0  0  0
   45.3280   31.3590   49.4400 C   0  0  0  0  0  0  0  0  0  0  0  0
   45.0240   30.1190   48.7980 C   0  0  0  0  0  0  0  0  0  0  0  0
   45.6940   30.4090   47.0510 S   0  0  0  0  0  0  0  0  0  0  0  0
   47.8793   36.0814   41.3754 H   0  0  0  0  0  0  0  0  0  0  0  0
   48.2073   34.7720   42.5973 H   0  0  0  0  0  0  0  0  0  0  0  0
   46.9355   34.7746   38.9142 H   0  0  0  0  0  0  0  0  0  0  0  0
   48.1480   32.7942   37.6415 H   0  0  0  0  0  0  0  0  0  0  0  0
   48.7591   32.3059   42.4714 H   0  0  0  0  0  0  0  0  0  0  0  0
   51.3862   31.2734   42.4655 H   0  0  0  0  0  0  0  0  0  0  0  0
   51.6218   31.6769   40.9814 H   0  0  0  0  0  0  0  0  0  0  0  0
   51.1739   34.3637   41.8155 H   0  0  0  0  0  0  0  0  0  0  0  0
   51.1990   33.9844   43.3234 H   0  0  0  0  0  0  0  0  0  0  0  0
   45.7089   35.9329   41.7764 H   0  0  0  0  0  0  0  0  0  0  0  0
   45.7521   34.1481   41.4290 H   0  0  0  0  0  0  0  0  0  0  0  0
   44.3909   36.1547   43.4277 H   0  0  0  0  0  0  0  0  0  0  0  0
   43.7783   35.8296   45.8247 H   0  0  0  0  0  0  0  0  0  0  0  0
   46.1855   33.2979   49.2286 H   0  0  0  0  0  0  0  0  0  0  0  0
   45.0602   31.5174   50.4951 H   0  0  0  0  0  0  0  0  0  0  0  0
   44.5293   29.2277   49.2113 H   0  0  0  0  0  0  0  0  0  0  0  0
  1 10  1  0
  2  6  1  0
  2  1  1  0
  3  2  1  0
  4  3  2  0
  4  5  1  0
  5  6  2  0
  6  7  1  0
  7  9  1  0
  8  7  1  0
  8  9  1  0
 10 11  1  0
 11 12  2  0
 11 16  1  0
 12 13  1  0
 13 14  2  0
 15 14  1  0
 15 17  1  0
 16 15  2  0
 17 18  1  0
 18 19  2  0
 19 20  1  0
 21 20  2  0
 22 18  1  0
 22 21  1  0
  1 23  1  0
  1 24  1  0
  3 25  1  0
  4 26  1  0
  7 27  1  0
  8 28  1  0
  8 29  1  0
  9 30  1  0
  9 31  1  0
 10 32  1  0
 10 33  1  0
 12 34  1  0
 13 35  1  0
 19 36  1  0
 20 37  1  0
 21 38  1  0
M  ISO  8  23   8  24   8  25  14  26  14  27  13  28  13  29  13  30  13
M  ISO  8  31  13  32   8  33   8  34  14  35  14  36  14  37  14  38  14
M  END
>  <minimizedAffinity>  (1) 
-5.67042208

>  <minimizedRMSD>  (1) 
1.75243926

$$$$
