
     RDKit          3D

 44 47  0  0  0  0  0  0  0  0999 V2000
   47.5600   34.9440   41.7690 C   0  0  0  0  0  0  0  0  0  0  0  0
   47.9650   34.0960   40.7050 N   0  0  0  0  0  0  0  0  0  0  0  0
   47.5810   34.0290   39.4270 C   0  0  0  0  0  0  0  0  0  0  0  0
   48.2320   33.0610   38.7260 C   0  0  0  0  0  0  0  0  0  0  0  0
   49.0740   32.4950   39.6320 N   0  0  0  0  0  0  0  0  0  0  0  0
   48.8940   33.1350   40.8150 C   0  0  0  0  0  0  0  0  0  0  0  0
   49.7030   32.6640   41.9850 C   0  0  0  0  0  0  0  0  0  0  0  0
   51.1030   32.1720   41.7720 C   0  0  0  0  0  0  0  0  0  0  0  0
   50.8700   33.5190   42.4070 C   0  0  0  0  0  0  0  0  0  0  0  0
   46.0700   34.9430   41.9820 C   0  0  0  0  0  0  0  0  0  0  0  0
   45.7070   34.7540   43.3670 C   0  0  0  0  0  0  0  0  0  0  0  0
   44.9150   35.7650   43.9300 C   0  0  0  0  0  0  0  0  0  0  0  0
   44.4890   35.7080   45.2450 C   0  0  0  0  0  0  0  0  0  0  0  0
   44.8690   34.6300   45.9640 N   0  0  0  0  0  0  0  0  0  0  0  0
   45.6450   33.6480   45.3950 C   0  0  0  0  0  0  0  0  0  0  0  0
   46.0510   33.7260   44.1060 N   0  0  0  0  0  0  0  0  0  0  0  0
   45.9200   32.6380   46.2780 O   0  0  0  0  0  0  0  0  0  0  0  0
   45.9580   32.7220   47.6550 C   0  0  0  0  0  0  0  0  0  0  0  0
   45.0180   31.6240   48.1750 C   0  0  0  0  0  0  0  0  0  0  0  0
   45.6710   30.4320   47.4840 C   0  0  0  0  0  0  0  0  0  0  0  0
   47.1620   30.7170   47.6560 C   0  0  0  0  0  0  0  0  0  0  0  0
   47.2600   32.1480   48.1760 C   0  0  0  0  0  0  0  0  0  0  0  0
   47.8817   35.9710   41.5416 H   0  0  0  0  0  0  0  0  0  0  0  0
   48.0261   34.5645   42.6902 H   0  0  0  0  0  0  0  0  0  0  0  0
   46.8179   34.6879   38.9871 H   0  0  0  0  0  0  0  0  0  0  0  0
   48.1057   32.7961   37.6659 H   0  0  0  0  0  0  0  0  0  0  0  0
   48.8129   32.2423   42.4748 H   0  0  0  0  0  0  0  0  0  0  0  0
   51.4907   31.3390   42.3768 H   0  0  0  0  0  0  0  0  0  0  0  0
   51.6759   31.8103   40.9054 H   0  0  0  0  0  0  0  0  0  0  0  0
   51.1086   34.4384   41.8521 H   0  0  0  0  0  0  0  0  0  0  0  0
   51.1829   34.0045   43.3432 H   0  0  0  0  0  0  0  0  0  0  0  0
   45.6646   35.9066   41.6399 H   0  0  0  0  0  0  0  0  0  0  0  0
   45.6523   34.1011   41.4103 H   0  0  0  0  0  0  0  0  0  0  0  0
   44.6248   36.6259   43.3098 H   0  0  0  0  0  0  0  0  0  0  0  0
   43.8696   36.5038   45.6844 H   0  0  0  0  0  0  0  0  0  0  0  0
   45.7593   33.7657   47.9401 H   0  0  0  0  0  0  0  0  0  0  0  0
   45.0475   31.5364   49.2711 H   0  0  0  0  0  0  0  0  0  0  0  0
   43.9474   31.7711   47.9696 H   0  0  0  0  0  0  0  0  0  0  0  0
   45.3955   30.3910   46.4198 H   0  0  0  0  0  0  0  0  0  0  0  0
   45.3616   29.4627   47.9021 H   0  0  0  0  0  0  0  0  0  0  0  0
   47.6039   30.0164   48.3797 H   0  0  0  0  0  0  0  0  0  0  0  0
   47.7073   30.5947   46.7085 H   0  0  0  0  0  0  0  0  0  0  0  0
   48.1313   32.6731   47.7577 H   0  0  0  0  0  0  0  0  0  0  0  0
   47.3943   32.2315   49.2646 H   0  0  0  0  0  0  0  0  0  0  0  0
  1 10  1  0
  2  6  1  0
  2  1  1  0
  3  2  1  0
  4  3  2  0
  4  5  1  0
  5  6  2  0
  6  7  1  0
  7  9  1  0
  8  7  1  0
  8  9  1  0
 10 11  1  0
 11 12  2  0
 11 16  1  0
 12 13  1  0
 13 14  2  0
 15 14  1  0
 15 17  1  0
 16 15  2  0
 17 18  1  0
 18 19  1  0
 18 22  1  0
 20 21  1  0
 20 19  1  0
 21 22  1  0
  1 23  1  0
  1 24  1  0
  3 25  1  0
  4 26  1  0
  7 27  1  0
  8 28  1  0
  8 29  1  0
  9 30  1  0
  9 31  1  0
 10 32  1  0
 10 33  1  0
 12 34  1  0
 13 35  1  0
 18 36  1  0
 19 37  1  0
 19 38  1  0
 20 39  1  0
 20 40  1  0
 21 41  1  0
 21 42  1  0
 22 43  1  0
 22 44  1  0
M  ISO  8  23   8  24   8  25  14  26  14  27  13  28  13  29  13  30  13
M  ISO  8  31  13  32   8  33   8  34  14  35  14  36  13  37  13  38  13
M  ISO  6  39  13  40  13  41  13  42  13  43  13  44  13
M  END
>  <minimizedAffinity>  (1) 
-5.47114325

>  <minimizedRMSD>  (1) 
0.630764961

$$$$
