
     RDKit          3D

 34 36  0  0  0  0  0  0  0  0999 V2000
   47.1450   34.8750   41.2930 C   0  0  0  0  0  0  0  0  0  0  0  0
   47.8020   33.9630   40.4230 N   0  0  0  0  0  0  0  0  0  0  0  0
   47.5850   33.7050   39.1290 C   0  0  0  0  0  0  0  0  0  0  0  0
   48.4490   32.7460   38.6410 C   0  0  0  0  0  0  0  0  0  0  0  0
   49.2150   32.4260   39.7120 N   0  0  0  0  0  0  0  0  0  0  0  0
   48.8130   33.1670   40.7770 C   0  0  0  0  0  0  0  0  0  0  0  0
   49.5110   32.9650   42.0680 C   0  0  0  0  0  0  0  0  0  0  0  0
   50.9820   32.6760   42.1120 C   0  0  0  0  0  0  0  0  0  0  0  0
   50.4760   34.0370   42.5070 C   0  0  0  0  0  0  0  0  0  0  0  0
   45.7340   34.4560   41.6310 C   0  0  0  0  0  0  0  0  0  0  0  0
   45.4310   34.6320   43.0320 C   0  0  0  0  0  0  0  0  0  0  0  0
   44.8580   35.8530   43.3820 C   0  0  0  0  0  0  0  0  0  0  0  0
   44.5110   36.1710   44.6770 C   0  0  0  0  0  0  0  0  0  0  0  0
   44.7500   35.2470   45.6020 N   0  0  0  0  0  0  0  0  0  0  0  0
   45.3120   34.0490   45.2660 C   0  0  0  0  0  0  0  0  0  0  0  0
   45.6460   33.7600   43.9670 N   0  0  0  0  0  0  0  0  0  0  0  0
   45.5000   33.1880   46.3370 O   0  0  0  0  0  0  0  0  0  0  0  0
   46.7640   32.5270   46.3590 C   0  0  0  0  0  0  0  0  0  0  0  0
   47.4050   32.8720   47.5170 F   0  0  0  0  0  0  0  0  0  0  0  0
   47.4860   32.8990   45.2380 F   0  0  0  0  0  0  0  0  0  0  0  0
   46.5710   31.1510   46.2890 F   0  0  0  0  0  0  0  0  0  0  0  0
   47.1108   35.8609   40.8063 H   0  0  0  0  0  0  0  0  0  0  0  0
   47.7147   34.9008   42.2336 H   0  0  0  0  0  0  0  0  0  0  0  0
   46.8095   34.1988   38.5250 H   0  0  0  0  0  0  0  0  0  0  0  0
   48.5032   32.3371   37.6213 H   0  0  0  0  0  0  0  0  0  0  0  0
   48.6286   32.4625   42.4909 H   0  0  0  0  0  0  0  0  0  0  0  0
   51.3857   31.9966   42.8772 H   0  0  0  0  0  0  0  0  0  0  0  0
   51.7219   32.3025   41.3887 H   0  0  0  0  0  0  0  0  0  0  0  0
   50.6670   34.9051   41.8590 H   0  0  0  0  0  0  0  0  0  0  0  0
   50.5771   34.6788   43.3946 H   0  0  0  0  0  0  0  0  0  0  0  0
   45.0333   35.0626   41.0386 H   0  0  0  0  0  0  0  0  0  0  0  0
   45.6355   33.3857   41.3972 H   0  0  0  0  0  0  0  0  0  0  0  0
   44.6749   36.5947   42.5906 H   0  0  0  0  0  0  0  0  0  0  0  0
   44.0589   37.1407   44.9324 H   0  0  0  0  0  0  0  0  0  0  0  0
  1 10  1  0
  2  6  1  0
  2  1  1  0
  3  2  1  0
  4  3  2  0
  4  5  1  0
  5  6  2  0
  6  7  1  0
  7  8  1  0
  7  9  1  0
  8  9  1  0
 10 11  1  0
 11 12  2  0
 11 16  1  0
 12 13  1  0
 13 14  2  0
 15 14  1  0
 15 17  1  0
 16 15  2  0
 17 18  1  0
 18 19  1  0
 20 18  1  0
 21 18  1  0
  1 22  1  0
  1 23  1  0
  3 24  1  0
  4 25  1  0
  7 26  1  0
  8 27  1  0
  8 28  1  0
  9 29  1  0
  9 30  1  0
 10 31  1  0
 10 32  1  0
 12 33  1  0
 13 34  1  0
M  ISO  8  22   8  23   8  24  14  25  14  26  13  27  13  28  13  29  13
M  ISO  5  30  13  31   8  32   8  33  14  34  14
M  END
>  <minimizedAffinity>  (1) 
-5.11373281

>  <minimizedRMSD>  (1) 
0.758200228

$$$$
