
     RDKit          3D

 40 42  0  0  0  0  0  0  0  0999 V2000
   47.6110   34.9920   41.7470 C   0  0  0  0  0  0  0  0  0  0  0  0
   48.0070   34.1230   40.6930 N   0  0  0  0  0  0  0  0  0  0  0  0
   47.6170   34.0730   39.4180 C   0  0  0  0  0  0  0  0  0  0  0  0
   48.2450   33.0820   38.7090 C   0  0  0  0  0  0  0  0  0  0  0  0
   49.0580   32.5080   39.6240 N   0  0  0  0  0  0  0  0  0  0  0  0
   48.9030   33.1420   40.8040 C   0  0  0  0  0  0  0  0  0  0  0  0
   49.6990   32.6520   41.9710 C   0  0  0  0  0  0  0  0  0  0  0  0
   51.0950   32.1360   41.7770 C   0  0  0  0  0  0  0  0  0  0  0  0
   50.8780   33.4870   42.3960 C   0  0  0  0  0  0  0  0  0  0  0  0
   46.1200   35.0130   41.9570 C   0  0  0  0  0  0  0  0  0  0  0  0
   45.7580   34.7450   43.3310 C   0  0  0  0  0  0  0  0  0  0  0  0
   44.9910   35.7160   43.9580 C   0  0  0  0  0  0  0  0  0  0  0  0
   44.5620   35.6170   45.2620 C   0  0  0  0  0  0  0  0  0  0  0  0
   44.9310   34.5010   45.9240 N   0  0  0  0  0  0  0  0  0  0  0  0
   45.6830   33.5410   45.3210 C   0  0  0  0  0  0  0  0  0  0  0  0
   46.0890   33.6790   44.0220 N   0  0  0  0  0  0  0  0  0  0  0  0
   45.9860   32.4600   46.1130 O   0  0  0  0  0  0  0  0  0  0  0  0
   46.0660   32.6270   47.5100 C   0  0  0  0  0  0  0  0  0  0  0  0
   47.4680   32.3530   48.0230 C   0  0  0  0  0  0  0  0  0  0  0  0
   45.0760   31.6870   48.1660 C   0  0  0  0  0  0  0  0  0  0  0  0
   47.9464   36.0116   41.5066 H   0  0  0  0  0  0  0  0  0  0  0  0
   48.0708   34.6191   42.6741 H   0  0  0  0  0  0  0  0  0  0  0  0
   46.8712   34.7542   38.9823 H   0  0  0  0  0  0  0  0  0  0  0  0
   48.1178   32.8171   37.6490 H   0  0  0  0  0  0  0  0  0  0  0  0
   48.7980   32.2411   42.4499 H   0  0  0  0  0  0  0  0  0  0  0  0
   51.4631   31.3022   42.3928 H   0  0  0  0  0  0  0  0  0  0  0  0
   51.6711   31.7581   40.9195 H   0  0  0  0  0  0  0  0  0  0  0  0
   51.1382   34.3972   41.8359 H   0  0  0  0  0  0  0  0  0  0  0  0
   51.1903   33.9740   43.3316 H   0  0  0  0  0  0  0  0  0  0  0  0
   45.7368   36.0053   41.6768 H   0  0  0  0  0  0  0  0  0  0  0  0
   45.6798   34.2225   41.3315 H   0  0  0  0  0  0  0  0  0  0  0  0
   44.7112   36.6113   43.3834 H   0  0  0  0  0  0  0  0  0  0  0  0
   43.9541   36.4015   45.7364 H   0  0  0  0  0  0  0  0  0  0  0  0
   45.8240   33.6705   47.7599 H   0  0  0  0  0  0  0  0  0  0  0  0
   47.4627   32.3540   49.1230 H   0  0  0  0  0  0  0  0  0  0  0  0
   47.8064   31.3717   47.6589 H   0  0  0  0  0  0  0  0  0  0  0  0
   48.1510   33.1347   47.6589 H   0  0  0  0  0  0  0  0  0  0  0  0
   45.1621   31.7687   49.2596 H   0  0  0  0  0  0  0  0  0  0  0  0
   44.0550   31.9561   47.8574 H   0  0  0  0  0  0  0  0  0  0  0  0
   45.2919   30.6535   47.8574 H   0  0  0  0  0  0  0  0  0  0  0  0
  1 10  1  0
  2  6  1  0
  2  1  1  0
  3  2  1  0
  4  3  2  0
  4  5  1  0
  5  6  2  0
  6  7  1  0
  7  9  1  0
  8  7  1  0
  8  9  1  0
 10 11  1  0
 11 12  2  0
 11 16  1  0
 12 13  1  0
 13 14  2  0
 15 14  1  0
 15 17  1  0
 16 15  2  0
 17 18  1  0
 18 19  1  0
 18 20  1  0
  1 21  1  0
  1 22  1  0
  3 23  1  0
  4 24  1  0
  7 25  1  0
  8 26  1  0
  8 27  1  0
  9 28  1  0
  9 29  1  0
 10 30  1  0
 10 31  1  0
 12 32  1  0
 13 33  1  0
 18 34  1  0
 19 35  1  0
 19 36  1  0
 19 37  1  0
 20 38  1  0
 20 39  1  0
 20 40  1  0
M  ISO  8  21   8  22   8  23  14  24  14  25  13  26  13  27  13  28  13
M  ISO  8  29  13  30   8  31   8  32  14  33  14  34   8  35   8  36   8
M  ISO  4  37   8  38   8  39   8  40   8
M  END
>  <minimizedAffinity>  (1) 
-5.04478598

>  <minimizedRMSD>  (1) 
0.635502815

$$$$
