
     RDKit          3D

 48 50  0  0  1  0  0  0  0  0999 V2000
   43.8950   33.5010   38.7990 N   0  0  0  0  0  0  0  0  0  0  0  0
   43.8190   32.5410   37.8830 C   0  0  0  0  0  0  0  0  0  0  0  0
   44.2010   31.1280   38.3360 C   0  0  0  0  0  0  0  0  0  0  0  0
   44.3390   30.8900   39.7720 C   0  0  0  0  0  0  0  0  0  0  0  0
   44.2330   32.1130   40.6290 C   0  0  0  0  0  0  0  0  0  0  0  0
   44.7820   33.2640   39.8690 C   0  0  2  0  0  0  0  0  0  0  0  0
   42.7450   34.1700   39.1470 C   0  0  0  0  0  0  0  0  0  0  0  0
   41.4930   33.6210   38.6830 C   0  0  1  0  0  0  0  0  0  0  0  0
   40.4040   33.5640   40.9610 C   0  0  0  0  0  0  0  0  0  0  0  0
   40.8250   32.9160   39.7830 C   0  0  0  0  0  0  0  0  0  0  0  0
   40.6000   31.5400   39.6480 C   0  0  0  0  0  0  0  0  0  0  0  0
   39.9860   30.8940   40.6570 N   0  0  0  0  0  0  0  0  0  0  0  0
   39.5870   31.5460   41.7880 C   0  0  0  0  0  0  0  0  0  0  0  0
   39.8010   32.9230   41.9490 N   0  0  0  0  0  0  0  0  0  0  0  0
   40.6420   34.6720   38.0630 C   0  0  0  0  0  0  0  0  0  0  0  0
   41.5950   36.1740   37.6620 S   0  0  0  0  0  0  0  0  0  0  0  0
   44.9190   34.3910   40.8030 C   0  0  0  0  0  0  0  0  0  0  0  0
   46.2670   34.5640   41.4270 C   0  0  0  0  0  0  0  0  0  0  0  0
   46.0120   35.2750   42.7700 C   0  0  0  0  0  0  0  0  0  0  0  0
   45.2110   34.5830   43.8040 C   0  0  0  0  0  0  0  0  0  0  0  0
   44.5550   35.7220   42.9890 C   0  0  0  0  0  0  0  0  0  0  0  0
   44.4868   32.8175   37.0538 H   0  0  0  0  0  0  0  0  0  0  0  0
   42.7542   32.4810   37.6137 H   0  0  0  0  0  0  0  0  0  0  0  0
   43.4265   30.4422   37.9620 H   0  0  0  0  0  0  0  0  0  0  0  0
   45.2103   30.9682   37.9289 H   0  0  0  0  0  0  0  0  0  0  0  0
   43.5492   30.1886   40.0791 H   0  0  0  0  0  0  0  0  0  0  0  0
   45.3552   30.4965   39.9222 H   0  0  0  0  0  0  0  0  0  0  0  0
   43.1786   32.3015   40.8793 H   0  0  0  0  0  0  0  0  0  0  0  0
   44.7973   31.9716   41.5626 H   0  0  0  0  0  0  0  0  0  0  0  0
   45.7800   33.0884   39.4411 H   0  0  0  0  0  0  0  0  0  0  0  0
   42.7031   34.2056   40.2456 H   0  0  0  0  0  0  0  0  0  0  0  0
   42.8259   35.1479   38.6497 H   0  0  0  0  0  0  0  0  0  0  0  0
   41.6872   32.8851   37.8888 H   0  0  0  0  0  0  0  0  0  0  0  0
   40.5835   34.6444   41.0633 H   0  0  0  0  0  0  0  0  0  0  0  0
   40.9164   31.0020   38.7422 H   0  0  0  0  0  0  0  0  0  0  0  0
   39.0879   30.9806   42.5888 H   0  0  0  0  0  0  0  0  0  0  0  0
   40.2024   34.2726   37.1371 H   0  0  0  0  0  0  0  0  0  0  0  0
   39.8614   34.9481   38.7872 H   0  0  0  0  0  0  0  0  0  0  0  0
   41.9858   36.7900   38.8216 H   0  0  0  0  0  0  0  0  0  0  0  0
   44.6811   35.3141   40.2541 H   0  0  0  0  0  0  0  0  0  0  0  0
   44.2327   34.1727   41.6345 H   0  0  0  0  0  0  0  0  0  0  0  0
   46.7415   33.5858   41.5941 H   0  0  0  0  0  0  0  0  0  0  0  0
   46.9438   35.1428   40.7814 H   0  0  0  0  0  0  0  0  0  0  0  0
   47.0022   35.7534   42.7929 H   0  0  0  0  0  0  0  0  0  0  0  0
   44.8927   33.5423   43.6436 H   0  0  0  0  0  0  0  0  0  0  0  0
   45.3457   34.3811   44.8769 H   0  0  0  0  0  0  0  0  0  0  0  0
   44.3342   36.6902   43.4622 H   0  0  0  0  0  0  0  0  0  0  0  0
   43.6572   35.8346   42.3635 H   0  0  0  0  0  0  0  0  0  0  0  0
  1  7  1  0
  1  6  1  0
  2  3  1  0
  2  1  1  0
  3  4  1  0
  4  5  1  0
  6  5  1  0
  6 17  1  0
  8  7  1  0
  8 10  1  0
  9 14  2  0
 10  9  1  0
 11 10  2  0
 11 12  1  0
 12 13  2  0
 13 14  1  0
 15  8  1  0
 16 15  1  0
 17 18  1  0
 18 19  1  0
 19 21  1  0
 19 20  1  0
 21 20  1  0
  2 22  1  0
  2 23  1  0
  3 24  1  0
  3 25  1  0
  4 26  1  0
  4 27  1  0
  5 28  1  0
  5 29  1  0
  6 30  1  6
  7 31  1  0
  7 32  1  0
  8 33  1  6
  9 34  1  0
 11 35  1  0
 13 36  1  0
 15 37  1  0
 15 38  1  0
 16 39  1  0
 17 40  1  0
 17 41  1  0
 18 42  1  0
 18 43  1  0
 19 44  1  0
 20 45  1  0
 20 46  1  0
 21 47  1  0
 21 48  1  0
M  ISO  8  22  13  23  13  24  13  25  13  26  13  27  13  28  13  29  13
M  ISO  8  30  13  31   8  32   8  33   8  34  14  35  14  36  14  37   8
M  ISO  8  38   8  39  11  40   8  41   8  42   8  43   8  44  13  45  13
M  ISO  3  46  13  47  13  48  13
M  END
>  <minimizedAffinity>  (1) 
-3.8258822

>  <minimizedRMSD>  (1) 
5.74329901

$$$$
