
     RDKit          3D

 49 53  0  0  1  0  0  0  0  0999 V2000
   45.6550   34.6600   43.3240 C   0  0  0  0  0  0  0  0  0  0  0  0
   44.8430   35.6990   43.7910 C   0  0  0  0  0  0  0  0  0  0  0  0
   44.4320   35.8060   45.0990 C   0  0  0  0  0  0  0  0  0  0  0  0
   44.8620   34.8320   45.9280 N   0  0  0  0  0  0  0  0  0  0  0  0
   45.6540   33.8170   45.4780 C   0  0  0  0  0  0  0  0  0  0  0  0
   46.0480   33.7400   44.1680 N   0  0  0  0  0  0  0  0  0  0  0  0
   45.9900   34.6970   41.9240 C   0  0  0  0  0  0  0  0  0  0  0  0
   47.4590   34.8520   41.6840 C   0  0  0  0  0  0  0  0  0  0  0  0
   47.9510   34.0340   40.6400 N   0  0  0  0  0  0  0  0  0  0  0  0
   47.6110   33.9990   39.3520 C   0  0  0  0  0  0  0  0  0  0  0  0
   48.3370   33.0600   38.6540 C   0  0  0  0  0  0  0  0  0  0  0  0
   49.1570   32.5060   39.5950 N   0  0  0  0  0  0  0  0  0  0  0  0
   48.8980   33.1160   40.7760 C   0  0  0  0  0  0  0  0  0  0  0  0
   49.6760   32.6290   41.9510 C   0  0  0  0  0  0  0  0  0  0  0  0
   51.0740   32.1480   41.8050 C   0  0  0  0  0  0  0  0  0  0  0  0
   50.8250   33.5160   42.4060 C   0  0  0  0  0  0  0  0  0  0  0  0
   46.0140   32.8950   46.4370 O   0  0  0  0  0  0  0  0  0  0  0  0
   45.2050   32.7550   47.5870 C   0  0  2  0  0  0  0  0  0  0  0  0
   45.9490   32.4310   48.8500 C   0  0  0  0  0  0  0  0  0  0  0  0
   45.0610   31.4290   48.2350 C   0  0  2  0  0  0  0  0  0  0  0  0
   45.4960   30.1990   47.6660 N   0  0  0  0  0  0  0  0  0  0  0  0
   44.6720   29.4110   46.9160 C   0  0  0  0  0  0  0  0  0  0  0  0
   45.0470   28.2110   46.3450 C   0  0  0  0  0  0  0  0  0  0  0  0
   46.3360   27.7520   46.5280 C   0  0  0  0  0  0  0  0  0  0  0  0
   46.6390   26.5100   45.9070 N   0  0  0  0  0  0  0  0  0  0  0  0
   47.1560   28.5210   47.2660 N   0  0  0  0  0  0  0  0  0  0  0  0
   46.7310   29.6820   47.7970 C   0  0  0  0  0  0  0  0  0  0  0  0
   47.5910   30.2810   48.4490 O   0  0  0  0  0  0  0  0  0  0  0  0
   44.5169   36.4689   43.0762 H   0  0  0  0  0  0  0  0  0  0  0  0
   43.7942   36.6319   45.4468 H   0  0  0  0  0  0  0  0  0  0  0  0
   45.6545   33.7591   41.4573 H   0  0  0  0  0  0  0  0  0  0  0  0
   45.4883   35.5725   41.4860 H   0  0  0  0  0  0  0  0  0  0  0  0
   47.6606   35.9025   41.4273 H   0  0  0  0  0  0  0  0  0  0  0  0
   47.9714   34.5413   42.6064 H   0  0  0  0  0  0  0  0  0  0  0  0
   46.8422   34.6432   38.9004 H   0  0  0  0  0  0  0  0  0  0  0  0
   48.2715   32.8129   37.5841 H   0  0  0  0  0  0  0  0  0  0  0  0
   48.7775   32.1808   42.4002 H   0  0  0  0  0  0  0  0  0  0  0  0
   51.4404   31.3290   42.4413 H   0  0  0  0  0  0  0  0  0  0  0  0
   51.6775   31.7711   40.9661 H   0  0  0  0  0  0  0  0  0  0  0  0
   51.0810   34.4242   41.8407 H   0  0  0  0  0  0  0  0  0  0  0  0
   51.1017   34.0262   43.3404 H   0  0  0  0  0  0  0  0  0  0  0  0
   44.4817   33.5081   47.2410 H   0  0  0  0  0  0  0  0  0  0  0  0
   47.0395   32.2891   48.8256 H   0  0  0  0  0  0  0  0  0  0  0  0
   46.0321   32.8920   49.8453 H   0  0  0  0  0  0  0  0  0  0  0  0
   44.2105   30.8283   48.5897 H   0  0  0  0  0  0  0  0  0  0  0  0
   43.6396   29.7550   46.7555 H   0  0  0  0  0  0  0  0  0  0  0  0
   44.3274   27.6279   45.7515 H   0  0  0  0  0  0  0  0  0  0  0  0
   47.5812   26.1042   45.9996 H   0  0  0  0  0  0  0  0  0  0  0  0
   45.9164   26.0157   45.3644 H   0  0  0  0  0  0  0  0  0  0  0  0
  1  2  2  0
  1  6  1  0
  2  3  1  0
  3  4  2  0
  5  4  1  0
  5 17  1  0
  6  5  2  0
  7  1  1  0
  8  7  1  0
  9 13  1  0
  9  8  1  0
 10  9  1  0
 11 10  2  0
 11 12  1  0
 12 13  2  0
 13 14  1  0
 14 16  1  0
 15 14  1  0
 15 16  1  0
 17 18  1  0
 18 20  1  0
 18 19  1  0
 20 19  1  0
 21 27  1  0
 21 20  1  0
 22 21  1  0
 23 24  1  0
 23 22  2  0
 24 26  2  0
 25 24  1  0
 26 27  1  0
 27 28  2  0
  2 29  1  0
  3 30  1  0
  7 31  1  0
  7 32  1  0
  8 33  1  0
  8 34  1  0
 10 35  1  0
 11 36  1  0
 14 37  1  0
 15 38  1  0
 15 39  1  0
 16 40  1  0
 16 41  1  0
 18 42  1  1
 19 43  1  0
 19 44  1  0
 20 45  1  1
 22 46  1  0
 23 47  1  0
 25 48  1  0
 25 49  1  0
M  ISO  8  29  14  30  14  31   8  32   8  33   8  34   8  35  14  36  14
M  ISO  8  37  13  38  13  39  13  40  13  41  13  42  13  43  13  44  13
M  ISO  3  45  13  46  14  47  14
M  END
>  <minimizedAffinity>  (1) 
-6.00638008

>  <minimizedRMSD>  (1) 
0.778287292

$$$$
