
     RDKit          3D

 47 51  0  0  1  0  0  0  0  0999 V2000
   45.6400   34.6150   43.4020 C   0  0  0  0  0  0  0  0  0  0  0  0
   44.8680   35.6710   43.8900 C   0  0  0  0  0  0  0  0  0  0  0  0
   44.4550   35.7700   45.1960 C   0  0  0  0  0  0  0  0  0  0  0  0
   44.8370   34.7740   46.0150 N   0  0  0  0  0  0  0  0  0  0  0  0
   45.5950   33.7330   45.5410 C   0  0  0  0  0  0  0  0  0  0  0  0
   45.9910   33.6650   44.2290 N   0  0  0  0  0  0  0  0  0  0  0  0
   45.9850   34.6650   42.0010 C   0  0  0  0  0  0  0  0  0  0  0  0
   47.4600   34.7800   41.7770 C   0  0  0  0  0  0  0  0  0  0  0  0
   47.9370   33.9940   40.7080 N   0  0  0  0  0  0  0  0  0  0  0  0
   47.5710   33.9820   39.4280 C   0  0  0  0  0  0  0  0  0  0  0  0
   48.2880   33.0670   38.6880 C   0  0  0  0  0  0  0  0  0  0  0  0
   49.1370   32.5020   39.6000 N   0  0  0  0  0  0  0  0  0  0  0  0
   48.8970   33.0840   40.8030 C   0  0  0  0  0  0  0  0  0  0  0  0
   49.7070   32.5830   41.9560 C   0  0  0  0  0  0  0  0  0  0  0  0
   51.1110   32.1250   41.7730 C   0  0  0  0  0  0  0  0  0  0  0  0
   50.8530   33.4820   42.3970 C   0  0  0  0  0  0  0  0  0  0  0  0
   45.9220   32.7730   46.4790 O   0  0  0  0  0  0  0  0  0  0  0  0
   45.1780   32.7430   47.6900 C   0  0  2  0  0  0  0  0  0  0  0  0
   45.9970   32.3520   48.8930 C   0  0  0  0  0  0  0  0  0  0  0  0
   44.9610   31.4450   48.3770 C   0  0  2  0  0  0  0  0  0  0  0  0
   45.4770   30.2100   47.7070 C   0  0  0  0  0  0  0  0  0  0  0  0
   44.6670   29.4170   46.9160 C   0  0  0  0  0  0  0  0  0  0  0  0
   45.0830   28.2700   46.2760 C   0  0  0  0  0  0  0  0  0  0  0  0
   46.3940   27.8700   46.4230 C   0  0  0  0  0  0  0  0  0  0  0  0
   47.1850   28.6740   47.2150 C   0  0  0  0  0  0  0  0  0  0  0  0
   46.7370   29.7870   47.8230 N   0  0  0  0  0  0  0  0  0  0  0  0
   44.5745   36.4673   43.1901 H   0  0  0  0  0  0  0  0  0  0  0  0
   43.8470   36.6149   45.5516 H   0  0  0  0  0  0  0  0  0  0  0  0
   45.6254   33.7454   41.5163 H   0  0  0  0  0  0  0  0  0  0  0  0
   45.5114   35.5605   41.5723 H   0  0  0  0  0  0  0  0  0  0  0  0
   47.6975   35.8331   41.5659 H   0  0  0  0  0  0  0  0  0  0  0  0
   47.9519   34.4117   42.6894 H   0  0  0  0  0  0  0  0  0  0  0  0
   46.7859   34.6286   39.0090 H   0  0  0  0  0  0  0  0  0  0  0  0
   48.1986   32.8432   37.6147 H   0  0  0  0  0  0  0  0  0  0  0  0
   48.8263   32.1117   42.4167 H   0  0  0  0  0  0  0  0  0  0  0  0
   51.5041   31.3041   42.3907 H   0  0  0  0  0  0  0  0  0  0  0  0
   51.7019   31.7681   40.9166 H   0  0  0  0  0  0  0  0  0  0  0  0
   51.0824   34.4011   41.8379 H   0  0  0  0  0  0  0  0  0  0  0  0
   51.1422   33.9846   43.3317 H   0  0  0  0  0  0  0  0  0  0  0  0
   44.5033   33.5584   47.3901 H   0  0  0  0  0  0  0  0  0  0  0  0
   47.0605   32.0966   48.7756 H   0  0  0  0  0  0  0  0  0  0  0  0
   46.2155   32.8101   49.8689 H   0  0  0  0  0  0  0  0  0  0  0  0
   44.0715   30.9494   48.7933 H   0  0  0  0  0  0  0  0  0  0  0  0
   43.6180   29.7227   46.7887 H   0  0  0  0  0  0  0  0  0  0  0  0
   44.3834   27.6855   45.6604 H   0  0  0  0  0  0  0  0  0  0  0  0
   46.7852   26.9638   45.9375 H   0  0  0  0  0  0  0  0  0  0  0  0
   48.2383   28.3905   47.3574 H   0  0  0  0  0  0  0  0  0  0  0  0
  1  2  2  0
  1  6  1  0
  2  3  1  0
  3  4  2  0
  5  4  1  0
  5 17  1  0
  6  5  2  0
  7  1  1  0
  8  7  1  0
  9 13  1  0
  9  8  1  0
 10  9  1  0
 11 10  2  0
 11 12  1  0
 12 13  2  0
 13 14  1  0
 14 16  1  0
 15 14  1  0
 15 16  1  0
 17 18  1  0
 18 20  1  0
 18 19  1  0
 20 19  1  0
 21 26  1  0
 21 20  1  0
 22 21  2  0
 23 24  2  0
 23 22  1  0
 24 25  1  0
 25 26  2  0
  2 27  1  0
  3 28  1  0
  7 29  1  0
  7 30  1  0
  8 31  1  0
  8 32  1  0
 10 33  1  0
 11 34  1  0
 14 35  1  0
 15 36  1  0
 15 37  1  0
 16 38  1  0
 16 39  1  0
 18 40  1  1
 19 41  1  0
 19 42  1  0
 20 43  1  1
 22 44  1  0
 23 45  1  0
 24 46  1  0
 25 47  1  0
M  ISO  8  27  14  28  14  29   8  30   8  31   8  32   8  33  14  34  14
M  ISO  8  35  13  36  13  37  13  38  13  39  13  40  13  41  13  42  13
M  ISO  5  43  13  44  14  45  14  46  14  47  14
M  END
>  <minimizedAffinity>  (1) 
-5.94478226

>  <minimizedRMSD>  (1) 
0.360377073

$$$$
