
     RDKit          3D

 42 43  0  0  1  0  0  0  0  0999 V2000
   45.6540   34.6880   41.3570 N   0  0  0  0  0  0  0  0  0  0  0  0
   44.4170   34.2920   41.0760 C   0  0  0  0  0  0  0  0  0  0  0  0
   44.2760   32.9560   40.3390 C   0  0  0  0  0  0  0  0  0  0  0  0
   45.4510   32.0860   40.2780 C   0  0  0  0  0  0  0  0  0  0  0  0
   46.7110   32.6990   40.7960 C   0  0  0  0  0  0  0  0  0  0  0  0
   46.6700   34.1700   40.5420 C   0  0  2  0  0  0  0  0  0  0  0  0
   45.9990   34.8440   42.6830 C   0  0  0  0  0  0  0  0  0  0  0  0
   45.0010   34.5290   43.6710 C   0  0  1  0  0  0  0  0  0  0  0  0
   45.9720   33.6640   45.8380 C   0  0  0  0  0  0  0  0  0  0  0  0
   45.4850   33.4420   44.5300 C   0  0  0  0  0  0  0  0  0  0  0  0
   45.4540   32.1340   44.0250 C   0  0  0  0  0  0  0  0  0  0  0  0
   45.8930   31.1320   44.8190 N   0  0  0  0  0  0  0  0  0  0  0  0
   46.3570   31.3780   46.0800 C   0  0  0  0  0  0  0  0  0  0  0  0
   46.4000   32.6740   46.6100 N   0  0  0  0  0  0  0  0  0  0  0  0
   44.5820   35.7370   44.4370 C   0  0  0  0  0  0  0  0  0  0  0  0
   45.1020   37.2810   43.5900 S   0  0  0  0  0  0  0  0  0  0  0  0
   48.0150   34.6990   40.8240 C   0  0  0  0  0  0  0  0  0  0  0  0
   49.0610   33.6890   41.1760 C   0  0  0  0  0  0  0  0  0  0  0  0
   50.0210   34.4640   42.5480 S   0  0  0  0  0  0  0  0  0  0  0  0
   43.8691   34.2086   42.0262 H   0  0  0  0  0  0  0  0  0  0  0  0
   44.0200   35.0489   40.3836 H   0  0  0  0  0  0  0  0  0  0  0  0
   43.4736   32.3902   40.8350 H   0  0  0  0  0  0  0  0  0  0  0  0
   44.0815   33.2346   39.2928 H   0  0  0  0  0  0  0  0  0  0  0  0
   45.2402   31.1839   40.8711 H   0  0  0  0  0  0  0  0  0  0  0  0
   45.6246   31.8738   39.2127 H   0  0  0  0  0  0  0  0  0  0  0  0
   46.7957   32.5126   41.8768 H   0  0  0  0  0  0  0  0  0  0  0  0
   47.5793   32.2557   40.2866 H   0  0  0  0  0  0  0  0  0  0  0  0
   46.4326   34.4517   39.5055 H   0  0  0  0  0  0  0  0  0  0  0  0
   46.8684   34.1981   42.8754 H   0  0  0  0  0  0  0  0  0  0  0  0
   46.1789   35.9228   42.8006 H   0  0  0  0  0  0  0  0  0  0  0  0
   44.0908   34.1750   43.1648 H   0  0  0  0  0  0  0  0  0  0  0  0
   45.9969   34.6919   46.2288 H   0  0  0  0  0  0  0  0  0  0  0  0
   45.0825   31.9290   43.0101 H   0  0  0  0  0  0  0  0  0  0  0  0
   46.7062   30.5360   46.6957 H   0  0  0  0  0  0  0  0  0  0  0  0
   43.4866   35.7352   44.5371 H   0  0  0  0  0  0  0  0  0  0  0  0
   45.0643   35.7049   45.4251 H   0  0  0  0  0  0  0  0  0  0  0  0
   45.4215   38.2296   44.5254 H   0  0  0  0  0  0  0  0  0  0  0  0
   48.3577   35.2393   39.9292 H   0  0  0  0  0  0  0  0  0  0  0  0
   47.9020   35.3299   41.7180 H   0  0  0  0  0  0  0  0  0  0  0  0
   48.5960   32.7499   41.5106 H   0  0  0  0  0  0  0  0  0  0  0  0
   49.6977   33.4335   40.3162 H   0  0  0  0  0  0  0  0  0  0  0  0
   49.5113   34.0525   43.7512 H   0  0  0  0  0  0  0  0  0  0  0  0
  1  7  1  0
  2  1  1  0
  3  2  1  0
  4  3  1  0
  4  5  1  0
  6  5  1  0
  6 17  1  0
  6  1  1  0
  7  8  1  0
  8 15  1  0
  8 10  1  0
  9 14  2  0
 10  9  1  0
 11 10  2  0
 11 12  1  0
 12 13  2  0
 13 14  1  0
 16 15  1  0
 17 18  1  0
 18 19  1  0
  2 20  1  0
  2 21  1  0
  3 22  1  0
  3 23  1  0
  4 24  1  0
  4 25  1  0
  5 26  1  0
  5 27  1  0
  6 28  1  6
  7 29  1  0
  7 30  1  0
  8 31  1  6
  9 32  1  0
 11 33  1  0
 13 34  1  0
 15 35  1  0
 15 36  1  0
 16 37  1  0
 17 38  1  0
 17 39  1  0
 18 40  1  0
 18 41  1  0
 19 42  1  0
M  ISO  8  20  13  21  13  22  13  23  13  24  13  25  13  26  13  27  13
M  ISO  8  28  13  29   8  30   8  31   8  32  14  33  14  34  14  35   8
M  ISO  7  36   8  37  11  38   8  39   8  40   8  41   8  42  11
M  END
>  <minimizedAffinity>  (1) 
-3.72797298

>  <minimizedRMSD>  (1) 
1.13020182

$$$$
