
     RDKit          3D

 45 49  0  0  1  0  0  0  0  0999 V2000
   45.9850   34.6920   41.9350 C   0  0  0  0  0  0  0  0  0  0  0  0
   45.6500   34.6670   43.3360 C   0  0  0  0  0  0  0  0  0  0  0  0
   44.8350   35.7080   43.8100 C   0  0  0  0  0  0  0  0  0  0  0  0
   44.4310   35.8110   45.1130 C   0  0  0  0  0  0  0  0  0  0  0  0
   44.8590   34.8440   45.9410 N   0  0  0  0  0  0  0  0  0  0  0  0
   45.6590   33.8140   45.4900 C   0  0  0  0  0  0  0  0  0  0  0  0
   46.0530   33.7320   44.1800 N   0  0  0  0  0  0  0  0  0  0  0  0
   46.0180   32.8910   46.4480 O   0  0  0  0  0  0  0  0  0  0  0  0
   45.2390   32.8060   47.6330 C   0  0  2  0  0  0  0  0  0  0  0  0
   45.9870   32.2930   48.8290 C   0  0  0  0  0  0  0  0  0  0  0  0
   44.9130   31.5010   48.2070 C   0  0  2  0  0  0  0  0  0  0  0  0
   45.1560   30.2070   47.5930 C   0  0  0  0  0  0  0  0  0  0  0  0
   45.1310   28.8680   48.1290 C   0  0  0  0  0  0  0  0  0  0  0  0
   45.4490   27.9030   47.2370 C   0  0  0  0  0  0  0  0  0  0  0  0
   45.7830   28.1540   45.8670 C   0  0  0  0  0  0  0  0  0  0  0  0
   45.6430   30.0140   45.7800 S   0  0  0  0  0  0  0  0  0  0  0  0
   47.4590   34.8390   41.7010 C   0  0  0  0  0  0  0  0  0  0  0  0
   47.9510   34.0220   40.6570 N   0  0  0  0  0  0  0  0  0  0  0  0
   47.5830   33.9940   39.3690 C   0  0  0  0  0  0  0  0  0  0  0  0
   48.3160   33.0520   38.6620 C   0  0  0  0  0  0  0  0  0  0  0  0
   49.1520   32.5060   39.5920 N   0  0  0  0  0  0  0  0  0  0  0  0
   48.9070   33.1090   40.7780 C   0  0  0  0  0  0  0  0  0  0  0  0
   49.6970   32.6350   41.9400 C   0  0  0  0  0  0  0  0  0  0  0  0
   51.1040   32.1800   41.7790 C   0  0  0  0  0  0  0  0  0  0  0  0
   50.8300   33.5300   42.4060 C   0  0  0  0  0  0  0  0  0  0  0  0
   45.6464   33.7523   41.4742 H   0  0  0  0  0  0  0  0  0  0  0  0
   45.4862   35.5640   41.4869 H   0  0  0  0  0  0  0  0  0  0  0  0
   44.5051   36.4789   43.0981 H   0  0  0  0  0  0  0  0  0  0  0  0
   43.7935   36.6368   45.4618 H   0  0  0  0  0  0  0  0  0  0  0  0
   44.6258   33.6801   47.3686 H   0  0  0  0  0  0  0  0  0  0  0  0
   47.0357   31.9758   48.7311 H   0  0  0  0  0  0  0  0  0  0  0  0
   46.1993   32.6679   49.8411 H   0  0  0  0  0  0  0  0  0  0  0  0
   43.9681   31.0457   48.5384 H   0  0  0  0  0  0  0  0  0  0  0  0
   44.8746   28.6502   49.1763 H   0  0  0  0  0  0  0  0  0  0  0  0
   45.4514   26.8596   47.5853 H   0  0  0  0  0  0  0  0  0  0  0  0
   46.0513   27.4394   45.0749 H   0  0  0  0  0  0  0  0  0  0  0  0
   47.6680   35.8891   41.4487 H   0  0  0  0  0  0  0  0  0  0  0  0
   47.9653   34.5218   42.6246 H   0  0  0  0  0  0  0  0  0  0  0  0
   46.8028   34.6334   38.9302 H   0  0  0  0  0  0  0  0  0  0  0  0
   48.2404   32.8018   37.5935 H   0  0  0  0  0  0  0  0  0  0  0  0
   48.8062   32.1714   42.3890 H   0  0  0  0  0  0  0  0  0  0  0  0
   51.4877   31.3559   42.3984 H   0  0  0  0  0  0  0  0  0  0  0  0
   51.7115   31.8297   40.9315 H   0  0  0  0  0  0  0  0  0  0  0  0
   51.0673   34.4534   41.8573 H   0  0  0  0  0  0  0  0  0  0  0  0
   51.1006   34.0267   43.3494 H   0  0  0  0  0  0  0  0  0  0  0  0
  1  2  1  0
  2  3  2  0
  2  7  1  0
  3  4  1  0
  4  5  2  0
  6  5  1  0
  6  8  1  0
  7  6  2  0
  8  9  1  0
  9 11  1  0
  9 10  1  0
 11 10  1  0
 12 13  2  0
 12 11  1  0
 14 13  1  0
 15 14  2  0
 16 15  1  0
 16 12  1  0
 17  1  1  0
 18 22  1  0
 18 17  1  0
 19 18  1  0
 20 19  2  0
 20 21  1  0
 21 22  2  0
 22 23  1  0
 23 25  1  0
 24 23  1  0
 24 25  1  0
  1 26  1  0
  1 27  1  0
  3 28  1  0
  4 29  1  0
  9 30  1  1
 10 31  1  0
 10 32  1  0
 11 33  1  1
 13 34  1  0
 14 35  1  0
 15 36  1  0
 17 37  1  0
 17 38  1  0
 19 39  1  0
 20 40  1  0
 23 41  1  0
 24 42  1  0
 24 43  1  0
 25 44  1  0
 25 45  1  0
M  ISO  8  26   8  27   8  28  14  29  14  30  13  31  13  32  13  33  13
M  ISO  8  34  14  35  14  36  14  37   8  38   8  39  14  40  14  41  13
M  ISO  4  42  13  43  13  44  13  45  13
M  END
>  <minimizedAffinity>  (1) 
-5.78403234

>  <minimizedRMSD>  (1) 
0.385344476

$$$$
