
     RDKit          3D

 41 44  0  0  1  0  0  0  0  0999 V2000
   46.3030   35.0900   41.8800 C   0  0  0  0  0  0  0  0  0  0  0  0
   46.0520   34.7340   43.2510 C   0  0  0  0  0  0  0  0  0  0  0  0
   45.0360   35.4430   43.9110 C   0  0  0  0  0  0  0  0  0  0  0  0
   44.6830   35.2120   45.2110 C   0  0  0  0  0  0  0  0  0  0  0  0
   45.3770   34.2440   45.8490 N   0  0  0  0  0  0  0  0  0  0  0  0
   46.3690   33.5450   45.2190 C   0  0  0  0  0  0  0  0  0  0  0  0
   46.7030   33.7960   43.9160 N   0  0  0  0  0  0  0  0  0  0  0  0
   46.9840   32.5880   45.9970 O   0  0  0  0  0  0  0  0  0  0  0  0
   46.6030   32.4750   47.3610 C   0  0  2  0  0  0  0  0  0  0  0  0
   47.7240   32.0900   48.2850 C   0  0  0  0  0  0  0  0  0  0  0  0
   46.6240   31.1280   47.9960 C   0  0  1  0  0  0  0  0  0  0  0  0
   45.5860   30.8910   49.0420 C   0  0  0  0  0  0  0  0  0  0  0  0
   44.8960   29.8260   49.0840 O   0  0  0  0  0  0  0  0  0  0  0  0
   45.3320   31.8300   50.0160 O   0  0  0  0  0  0  0  0  0  0  0  0
   47.7590   35.1100   41.5480 C   0  0  0  0  0  0  0  0  0  0  0  0
   48.1310   34.1720   40.5560 N   0  0  0  0  0  0  0  0  0  0  0  0
   47.7800   34.0970   39.2750 C   0  0  0  0  0  0  0  0  0  0  0  0
   48.3660   33.0350   38.6350 C   0  0  0  0  0  0  0  0  0  0  0  0
   49.1170   32.4410   39.6060 N   0  0  0  0  0  0  0  0  0  0  0  0
   48.9520   33.1490   40.7480 C   0  0  0  0  0  0  0  0  0  0  0  0
   49.6730   32.6410   41.9460 C   0  0  0  0  0  0  0  0  0  0  0  0
   51.0330   32.0490   41.8440 C   0  0  0  0  0  0  0  0  0  0  0  0
   50.8770   33.4490   42.4030 C   0  0  0  0  0  0  0  0  0  0  0  0
   45.8034   34.3575   41.2289 H   0  0  0  0  0  0  0  0  0  0  0  0
   45.9120   36.1062   41.7232 H   0  0  0  0  0  0  0  0  0  0  0  0
   44.4970   36.2235   43.3540 H   0  0  0  0  0  0  0  0  0  0  0  0
   43.8824   35.7797   45.7078 H   0  0  0  0  0  0  0  0  0  0  0  0
   45.8460   33.2709   47.3013 H   0  0  0  0  0  0  0  0  0  0  0  0
   48.7322   31.9109   47.8832 H   0  0  0  0  0  0  0  0  0  0  0  0
   48.1650   32.5191   49.1968 H   0  0  0  0  0  0  0  0  0  0  0  0
   46.6024   30.0857   47.6451 H   0  0  0  0  0  0  0  0  0  0  0  0
   44.6399   31.6566   50.7023 H   0  0  0  0  0  0  0  0  0  0  0  0
   48.0191   36.1166   41.1886 H   0  0  0  0  0  0  0  0  0  0  0  0
   48.3009   34.8379   42.4658 H   0  0  0  0  0  0  0  0  0  0  0  0
   47.0971   34.8064   38.7847 H   0  0  0  0  0  0  0  0  0  0  0  0
   48.2559   32.7327   37.5831 H   0  0  0  0  0  0  0  0  0  0  0  0
   48.7336   32.2760   42.3867 H   0  0  0  0  0  0  0  0  0  0  0  0
   51.3219   31.2225   42.5099 H   0  0  0  0  0  0  0  0  0  0  0  0
   51.6228   31.6033   41.0294 H   0  0  0  0  0  0  0  0  0  0  0  0
   51.2138   34.3188   41.8199 H   0  0  0  0  0  0  0  0  0  0  0  0
   51.1728   33.9624   43.3298 H   0  0  0  0  0  0  0  0  0  0  0  0
  1  2  1  0
  2  3  2  0
  2  7  1  0
  3  4  1  0
  4  5  2  0
  6  5  1  0
  6  8  1  0
  7  6  2  0
  8  9  1  0
  9 11  1  0
  9 10  1  0
 11 10  1  0
 11 12  1  0
 12 13  2  0
 12 14  1  0
 15  1  1  0
 16 20  1  0
 16 15  1  0
 17 16  1  0
 18 17  2  0
 18 19  1  0
 19 20  2  0
 20 21  1  0
 21 23  1  0
 22 21  1  0
 22 23  1  0
  1 24  1  0
  1 25  1  0
  3 26  1  0
  4 27  1  0
  9 28  1  1
 10 29  1  0
 10 30  1  0
 11 31  1  6
 14 32  1  0
 15 33  1  0
 15 34  1  0
 17 35  1  0
 18 36  1  0
 21 37  1  0
 22 38  1  0
 22 39  1  0
 23 40  1  0
 23 41  1  0
M  ISO  8  24   8  25   8  26  14  27  14  28  13  29  13  30  13  31  13
M  ISO  8  32   3  33   8  34   8  35  14  36  14  37  13  38  13  39  13
M  ISO  2  40  13  41  13
M  END
>  <minimizedAffinity>  (1) 
-5.76749992

>  <minimizedRMSD>  (1) 
1.03388453

$$$$
