
     RDKit          3D

 50 53  0  0  1  0  0  0  0  0999 V2000
   46.0090   34.7060   41.9590 C   0  0  0  0  0  0  0  0  0  0  0  0
   45.6660   34.6950   43.3570 C   0  0  0  0  0  0  0  0  0  0  0  0
   44.7850   35.6820   43.7870 C   0  0  0  0  0  0  0  0  0  0  0  0
   44.3590   35.8020   45.0840 C   0  0  0  0  0  0  0  0  0  0  0  0
   44.8380   34.9020   45.9600 N   0  0  0  0  0  0  0  0  0  0  0  0
   45.7060   33.9270   45.5450 C   0  0  0  0  0  0  0  0  0  0  0  0
   46.1080   33.8390   44.2400 N   0  0  0  0  0  0  0  0  0  0  0  0
   46.1280   33.0590   46.5350 O   0  0  0  0  0  0  0  0  0  0  0  0
   45.2510   32.7650   47.5980 C   0  0  2  0  0  0  0  0  0  0  0  0
   45.9340   32.3020   48.8530 C   0  0  0  0  0  0  0  0  0  0  0  0
   45.0360   31.3950   48.0780 C   0  0  2  0  0  0  0  0  0  0  0  0
   45.6470   30.1610   47.5250 C   0  0  0  0  0  0  0  0  0  0  0  0
   47.1550   30.1200   47.8330 C   0  0  0  0  0  0  0  0  0  0  0  0
   45.1260   28.8600   48.0240 C   0  0  0  0  0  0  0  0  0  0  0  0
   45.5960   30.1820   46.0100 C   0  0  0  0  0  0  0  0  0  0  0  0
   47.4820   34.8300   41.7250 C   0  0  0  0  0  0  0  0  0  0  0  0
   47.9590   34.0250   40.6670 N   0  0  0  0  0  0  0  0  0  0  0  0
   47.6060   33.9980   39.3800 C   0  0  0  0  0  0  0  0  0  0  0  0
   48.3170   33.0750   38.6640 C   0  0  0  0  0  0  0  0  0  0  0  0
   49.1540   32.5100   39.5870 N   0  0  0  0  0  0  0  0  0  0  0  0
   48.9090   33.1080   40.7840 C   0  0  0  0  0  0  0  0  0  0  0  0
   49.7050   32.6090   41.9450 C   0  0  0  0  0  0  0  0  0  0  0  0
   51.1120   32.1570   41.7740 C   0  0  0  0  0  0  0  0  0  0  0  0
   50.8450   33.5100   42.3970 C   0  0  0  0  0  0  0  0  0  0  0  0
   45.6584   33.7681   41.5036 H   0  0  0  0  0  0  0  0  0  0  0  0
   45.5262   35.5845   41.5061 H   0  0  0  0  0  0  0  0  0  0  0  0
   44.4105   36.4044   43.0468 H   0  0  0  0  0  0  0  0  0  0  0  0
   43.6609   36.5942   45.3924 H   0  0  0  0  0  0  0  0  0  0  0  0
   44.5446   33.5492   47.2881 H   0  0  0  0  0  0  0  0  0  0  0  0
   47.0206   32.1308   48.8611 H   0  0  0  0  0  0  0  0  0  0  0  0
   45.9868   32.6534   49.8940 H   0  0  0  0  0  0  0  0  0  0  0  0
   44.1058   30.8260   48.2230 H   0  0  0  0  0  0  0  0  0  0  0  0
   47.3067   30.1159   48.9225 H   0  0  0  0  0  0  0  0  0  0  0  0
   47.5934   29.2096   47.3983 H   0  0  0  0  0  0  0  0  0  0  0  0
   47.6422   31.0052   47.3983 H   0  0  0  0  0  0  0  0  0  0  0  0
   45.1269   28.8623   49.1240 H   0  0  0  0  0  0  0  0  0  0  0  0
   44.0991   28.7118   47.6585 H   0  0  0  0  0  0  0  0  0  0  0  0
   45.7667   28.0440   47.6585 H   0  0  0  0  0  0  0  0  0  0  0  0
   44.6253   30.5817   45.6813 H   0  0  0  0  0  0  0  0  0  0  0  0
   46.4048   30.8203   45.6247 H   0  0  0  0  0  0  0  0  0  0  0  0
   45.7209   29.1593   45.6247 H   0  0  0  0  0  0  0  0  0  0  0  0
   47.7092   35.8806   41.4915 H   0  0  0  0  0  0  0  0  0  0  0  0
   47.9830   34.4857   42.6417 H   0  0  0  0  0  0  0  0  0  0  0  0
   46.8306   34.6453   38.9444 H   0  0  0  0  0  0  0  0  0  0  0  0
   48.2348   32.8407   37.5924 H   0  0  0  0  0  0  0  0  0  0  0  0
   48.8213   32.1357   42.3978 H   0  0  0  0  0  0  0  0  0  0  0  0
   51.5025   31.3364   42.3938 H   0  0  0  0  0  0  0  0  0  0  0  0
   51.7116   31.8038   40.9221 H   0  0  0  0  0  0  0  0  0  0  0  0
   51.0766   34.4307   41.8414 H   0  0  0  0  0  0  0  0  0  0  0  0
   51.1249   34.0117   43.3351 H   0  0  0  0  0  0  0  0  0  0  0  0
  1  2  1  0
  2  3  2  0
  2  7  1  0
  3  4  1  0
  4  5  2  0
  6  5  1  0
  6  8  1  0
  7  6  2  0
  8  9  1  0
  9 11  1  0
  9 10  1  0
 11 10  1  0
 12 13  1  0
 12 14  1  0
 12 11  1  0
 15 12  1  0
 16  1  1  0
 17 21  1  0
 17 16  1  0
 18 17  1  0
 19 18  2  0
 19 20  1  0
 20 21  2  0
 21 22  1  0
 22 24  1  0
 23 22  1  0
 23 24  1  0
  1 25  1  0
  1 26  1  0
  3 27  1  0
  4 28  1  0
  9 29  1  1
 10 30  1  0
 10 31  1  0
 11 32  1  1
 13 33  1  0
 13 34  1  0
 13 35  1  0
 14 36  1  0
 14 37  1  0
 14 38  1  0
 15 39  1  0
 15 40  1  0
 15 41  1  0
 16 42  1  0
 16 43  1  0
 18 44  1  0
 19 45  1  0
 22 46  1  0
 23 47  1  0
 23 48  1  0
 24 49  1  0
 24 50  1  0
M  ISO  8  25   8  26   8  27  14  28  14  29  13  30  13  31  13  32  13
M  ISO  8  33   8  34   8  35   8  36   8  37   8  38   8  39   8  40   8
M  ISO  8  41   8  42   8  43   8  44  14  45  14  46  13  47  13  48  13
M  ISO  2  49  13  50  13
M  END
>  <minimizedAffinity>  (1) 
-5.71778536

>  <minimizedRMSD>  (1) 
0.465021968

$$$$
