
     RDKit          3D

 41 44  0  0  1  0  0  0  0  0999 V2000
   45.9830   34.6780   42.0130 C   0  0  0  0  0  0  0  0  0  0  0  0
   45.6450   34.6250   43.4110 C   0  0  0  0  0  0  0  0  0  0  0  0
   44.8510   35.6720   43.9000 C   0  0  0  0  0  0  0  0  0  0  0  0
   44.4450   35.7570   45.1990 C   0  0  0  0  0  0  0  0  0  0  0  0
   44.8520   34.7650   46.0160 N   0  0  0  0  0  0  0  0  0  0  0  0
   45.6280   33.7360   45.5510 C   0  0  0  0  0  0  0  0  0  0  0  0
   46.0210   33.6750   44.2410 N   0  0  0  0  0  0  0  0  0  0  0  0
   45.9670   32.7920   46.4940 O   0  0  0  0  0  0  0  0  0  0  0  0
   45.1950   32.7080   47.6840 C   0  0  2  0  0  0  0  0  0  0  0  0
   45.9760   32.3510   48.9110 C   0  0  0  0  0  0  0  0  0  0  0  0
   45.0170   31.3750   48.3230 C   0  0  2  0  0  0  0  0  0  0  0  0
   45.4620   30.2150   47.4800 C   0  0  0  0  0  0  0  0  0  0  0  0
   46.8400   30.1780   47.5450 F   0  0  0  0  0  0  0  0  0  0  0  0
   44.9780   29.0460   48.0820 F   0  0  0  0  0  0  0  0  0  0  0  0
   44.9780   30.2350   46.2010 F   0  0  0  0  0  0  0  0  0  0  0  0
   47.4520   34.8020   41.7710 C   0  0  0  0  0  0  0  0  0  0  0  0
   47.9290   34.0110   40.7120 N   0  0  0  0  0  0  0  0  0  0  0  0
   47.5580   33.9830   39.4310 C   0  0  0  0  0  0  0  0  0  0  0  0
   48.2740   33.0670   38.6940 C   0  0  0  0  0  0  0  0  0  0  0  0
   49.1290   32.5120   39.6030 N   0  0  0  0  0  0  0  0  0  0  0  0
   48.8910   33.1040   40.8010 C   0  0  0  0  0  0  0  0  0  0  0  0
   49.7130   32.6140   41.9450 C   0  0  0  0  0  0  0  0  0  0  0  0
   51.1270   32.1910   41.7600 C   0  0  0  0  0  0  0  0  0  0  0  0
   50.8380   33.5320   42.4000 C   0  0  0  0  0  0  0  0  0  0  0  0
   45.6251   33.7564   41.5308 H   0  0  0  0  0  0  0  0  0  0  0  0
   45.5039   35.5746   41.5928 H   0  0  0  0  0  0  0  0  0  0  0  0
   44.5405   36.4633   43.2019 H   0  0  0  0  0  0  0  0  0  0  0  0
   43.8208   36.5878   45.5597 H   0  0  0  0  0  0  0  0  0  0  0  0
   44.4967   33.5018   47.3804 H   0  0  0  0  0  0  0  0  0  0  0  0
   47.0587   32.1695   48.8411 H   0  0  0  0  0  0  0  0  0  0  0  0
   46.1168   32.8032   49.9038 H   0  0  0  0  0  0  0  0  0  0  0  0
   44.2093   30.7821   48.7770 H   0  0  0  0  0  0  0  0  0  0  0  0
   47.6768   35.8546   41.5441 H   0  0  0  0  0  0  0  0  0  0  0  0
   47.9542   34.4466   42.6828 H   0  0  0  0  0  0  0  0  0  0  0  0
   46.7672   34.6214   39.0101 H   0  0  0  0  0  0  0  0  0  0  0  0
   48.1796   32.8359   37.6227 H   0  0  0  0  0  0  0  0  0  0  0  0
   48.8417   32.1186   42.3982 H   0  0  0  0  0  0  0  0  0  0  0  0
   51.5372   31.3713   42.3681 H   0  0  0  0  0  0  0  0  0  0  0  0
   51.7277   31.8588   40.9004 H   0  0  0  0  0  0  0  0  0  0  0  0
   51.0481   34.4631   41.8533 H   0  0  0  0  0  0  0  0  0  0  0  0
   51.1142   34.0287   43.3418 H   0  0  0  0  0  0  0  0  0  0  0  0
  1  2  1  0
  2  3  2  0
  2  7  1  0
  3  4  1  0
  4  5  2  0
  6  5  1  0
  6  8  1  0
  7  6  2  0
  8  9  1  0
  9 11  1  0
  9 10  1  0
 11 10  1  0
 12 13  1  0
 12 14  1  0
 12 11  1  0
 15 12  1  0
 16  1  1  0
 17 21  1  0
 17 16  1  0
 18 17  1  0
 19 18  2  0
 19 20  1  0
 20 21  2  0
 21 22  1  0
 22 24  1  0
 23 22  1  0
 23 24  1  0
  1 25  1  0
  1 26  1  0
  3 27  1  0
  4 28  1  0
  9 29  1  1
 10 30  1  0
 10 31  1  0
 11 32  1  1
 16 33  1  0
 16 34  1  0
 18 35  1  0
 19 36  1  0
 22 37  1  0
 23 38  1  0
 23 39  1  0
 24 40  1  0
 24 41  1  0
M  ISO  8  25   8  26   8  27  14  28  14  29  13  30  13  31  13  32  13
M  ISO  8  33   8  34   8  35  14  36  14  37  13  38  13  39  13  40  13
M  ISO  1  41  13
M  END
>  <minimizedAffinity>  (1) 
-5.70968008

>  <minimizedRMSD>  (1) 
0.467949837

$$$$
