
     RDKit          3D

 45 49  0  0  1  0  0  0  0  0999 V2000
   45.9860   34.6950   41.9910 C   0  0  0  0  0  0  0  0  0  0  0  0
   45.6450   34.6450   43.3910 C   0  0  0  0  0  0  0  0  0  0  0  0
   44.8580   35.6820   43.8660 C   0  0  0  0  0  0  0  0  0  0  0  0
   44.4370   35.7890   45.1730 C   0  0  0  0  0  0  0  0  0  0  0  0
   44.8400   34.8030   45.9980 N   0  0  0  0  0  0  0  0  0  0  0  0
   45.6210   33.7680   45.5370 C   0  0  0  0  0  0  0  0  0  0  0  0
   46.0190   33.7030   44.2200 N   0  0  0  0  0  0  0  0  0  0  0  0
   45.9610   32.8280   46.4790 O   0  0  0  0  0  0  0  0  0  0  0  0
   45.2020   32.7760   47.6780 C   0  0  2  0  0  0  0  0  0  0  0  0
   45.9970   32.3300   48.8800 C   0  0  0  0  0  0  0  0  0  0  0  0
   44.9260   31.4630   48.3110 C   0  0  2  0  0  0  0  0  0  0  0  0
   45.4540   30.2570   47.6710 N   0  0  0  0  0  0  0  0  0  0  0  0
   44.7310   29.4400   46.8600 C   0  0  0  0  0  0  0  0  0  0  0  0
   45.6040   28.4240   46.4710 C   0  0  0  0  0  0  0  0  0  0  0  0
   46.8180   28.6490   47.0450 N   0  0  0  0  0  0  0  0  0  0  0  0
   46.7230   29.7730   47.7800 C   0  0  0  0  0  0  0  0  0  0  0  0
   47.4590   34.8050   41.7610 C   0  0  0  0  0  0  0  0  0  0  0  0
   47.9390   34.0010   40.7020 N   0  0  0  0  0  0  0  0  0  0  0  0
   47.5640   33.9770   39.4200 C   0  0  0  0  0  0  0  0  0  0  0  0
   48.2750   33.0610   38.6910 C   0  0  0  0  0  0  0  0  0  0  0  0
   49.1330   32.5000   39.6020 N   0  0  0  0  0  0  0  0  0  0  0  0
   48.9000   33.0930   40.8060 C   0  0  0  0  0  0  0  0  0  0  0  0
   49.7090   32.6080   41.9470 C   0  0  0  0  0  0  0  0  0  0  0  0
   51.1150   32.1520   41.7770 C   0  0  0  0  0  0  0  0  0  0  0  0
   50.8470   33.5070   42.3970 C   0  0  0  0  0  0  0  0  0  0  0  0
   45.6215   33.7770   41.5068 H   0  0  0  0  0  0  0  0  0  0  0  0
   45.5147   35.5932   41.5655 H   0  0  0  0  0  0  0  0  0  0  0  0
   44.5515   36.4657   43.1576 H   0  0  0  0  0  0  0  0  0  0  0  0
   43.8124   36.6251   45.5207 H   0  0  0  0  0  0  0  0  0  0  0  0
   44.5555   33.6208   47.3981 H   0  0  0  0  0  0  0  0  0  0  0  0
   47.0540   32.0466   48.7685 H   0  0  0  0  0  0  0  0  0  0  0  0
   46.2175   32.7513   49.8719 H   0  0  0  0  0  0  0  0  0  0  0  0
   43.9975   30.9913   48.6649 H   0  0  0  0  0  0  0  0  0  0  0  0
   43.6761   29.5561   46.5705 H   0  0  0  0  0  0  0  0  0  0  0  0
   45.3533   27.5810   45.8103 H   0  0  0  0  0  0  0  0  0  0  0  0
   47.5341   30.2249   48.3698 H   0  0  0  0  0  0  0  0  0  0  0  0
   47.6956   35.8547   41.5325 H   0  0  0  0  0  0  0  0  0  0  0  0
   47.9509   34.4487   42.6781 H   0  0  0  0  0  0  0  0  0  0  0  0
   46.7758   34.6184   38.9988 H   0  0  0  0  0  0  0  0  0  0  0  0
   48.1797   32.8286   37.6201 H   0  0  0  0  0  0  0  0  0  0  0  0
   48.8250   32.1358   42.4003 H   0  0  0  0  0  0  0  0  0  0  0  0
   51.5041   31.3323   42.3988 H   0  0  0  0  0  0  0  0  0  0  0  0
   51.7149   31.7957   40.9266 H   0  0  0  0  0  0  0  0  0  0  0  0
   51.0795   34.4264   41.8396 H   0  0  0  0  0  0  0  0  0  0  0  0
   51.1261   34.0104   43.3344 H   0  0  0  0  0  0  0  0  0  0  0  0
  1  2  1  0
  2  3  2  0
  2  7  1  0
  3  4  1  0
  4  5  2  0
  6  5  1  0
  6  8  1  0
  7  6  2  0
  8  9  1  0
  9 11  1  0
  9 10  1  0
 11 10  1  0
 12 16  1  0
 12 11  1  0
 13 12  1  0
 14 13  2  0
 14 15  1  0
 15 16  2  0
 17  1  1  0
 18 22  1  0
 18 17  1  0
 19 18  1  0
 20 19  2  0
 20 21  1  0
 21 22  2  0
 22 23  1  0
 23 25  1  0
 24 23  1  0
 24 25  1  0
  1 26  1  0
  1 27  1  0
  3 28  1  0
  4 29  1  0
  9 30  1  1
 10 31  1  0
 10 32  1  0
 11 33  1  1
 13 34  1  0
 14 35  1  0
 16 36  1  0
 17 37  1  0
 17 38  1  0
 19 39  1  0
 20 40  1  0
 23 41  1  0
 24 42  1  0
 24 43  1  0
 25 44  1  0
 25 45  1  0
M  ISO  8  26   8  27   8  28  14  29  14  30  13  31  13  32  13  33  13
M  ISO  8  34  14  35  14  36  14  37   8  38   8  39  14  40  14  41  13
M  ISO  4  42  13  43  13  44  13  45  13
M  END
>  <minimizedAffinity>  (1) 
-5.68448162

>  <minimizedRMSD>  (1) 
0.371988088

$$$$
