
     RDKit          3D

 40 43  0  0  1  0  0  0  0  0999 V2000
   46.0040   34.8000   41.9590 C   0  0  0  0  0  0  0  0  0  0  0  0
   45.6620   34.6910   43.3510 C   0  0  0  0  0  0  0  0  0  0  0  0
   44.8740   35.7220   43.8860 C   0  0  0  0  0  0  0  0  0  0  0  0
   44.4690   35.7550   45.1900 C   0  0  0  0  0  0  0  0  0  0  0  0
   44.8640   34.7300   45.9680 N   0  0  0  0  0  0  0  0  0  0  0  0
   45.6350   33.7130   45.4590 C   0  0  0  0  0  0  0  0  0  0  0  0
   46.0300   33.7060   44.1420 N   0  0  0  0  0  0  0  0  0  0  0  0
   45.9700   32.7270   46.3570 O   0  0  0  0  0  0  0  0  0  0  0  0
   45.4220   32.7940   47.6640 C   0  0  2  0  0  0  0  0  0  0  0  0
   46.2090   32.0160   48.6870 C   0  0  0  0  0  0  0  0  0  0  0  0
   44.8480   31.5670   48.2750 C   0  0  2  0  0  0  0  0  0  0  0  0
   44.7440   30.4350   47.3690 N   0  0  0  0  0  0  0  0  0  0  0  0
   47.4800   34.8870   41.7350 C   0  0  0  0  0  0  0  0  0  0  0  0
   47.9450   34.0510   40.6970 N   0  0  0  0  0  0  0  0  0  0  0  0
   47.5730   34.0080   39.4140 C   0  0  0  0  0  0  0  0  0  0  0  0
   48.2700   33.0540   38.7060 C   0  0  0  0  0  0  0  0  0  0  0  0
   49.1080   32.5000   39.6360 N   0  0  0  0  0  0  0  0  0  0  0  0
   48.8850   33.1250   40.8230 C   0  0  0  0  0  0  0  0  0  0  0  0
   49.6820   32.6480   41.9790 C   0  0  0  0  0  0  0  0  0  0  0  0
   51.0810   32.1640   41.8250 C   0  0  0  0  0  0  0  0  0  0  0  0
   50.8360   33.5400   42.4090 C   0  0  0  0  0  0  0  0  0  0  0  0
   45.6190   33.9150   41.4312 H   0  0  0  0  0  0  0  0  0  0  0  0
   45.5536   35.7279   41.5767 H   0  0  0  0  0  0  0  0  0  0  0  0
   44.5675   36.5440   43.2223 H   0  0  0  0  0  0  0  0  0  0  0  0
   43.8523   36.5763   45.5838 H   0  0  0  0  0  0  0  0  0  0  0  0
   45.0374   33.8171   47.5397 H   0  0  0  0  0  0  0  0  0  0  0  0
   47.0956   31.4415   48.3806 H   0  0  0  0  0  0  0  0  0  0  0  0
   46.6967   32.2542   49.6438 H   0  0  0  0  0  0  0  0  0  0  0  0
   43.9382   31.3090   48.8369 H   0  0  0  0  0  0  0  0  0  0  0  0
   44.6641   29.5649   47.9144 H   0  0  0  0  0  0  0  0  0  0  0  0
   43.9097   30.5459   46.7753 H   0  0  0  0  0  0  0  0  0  0  0  0
   47.7326   35.9275   41.4829 H   0  0  0  0  0  0  0  0  0  0  0  0
   47.9670   34.5507   42.6622 H   0  0  0  0  0  0  0  0  0  0  0  0
   46.8014   34.6577   38.9753 H   0  0  0  0  0  0  0  0  0  0  0  0
   48.1753   32.7970   37.6407 H   0  0  0  0  0  0  0  0  0  0  0  0
   48.7895   32.1999   42.4402 H   0  0  0  0  0  0  0  0  0  0  0  0
   51.4544   31.3542   42.4691 H   0  0  0  0  0  0  0  0  0  0  0  0
   51.6764   31.7754   40.9857 H   0  0  0  0  0  0  0  0  0  0  0  0
   51.0859   34.4402   41.8284 H   0  0  0  0  0  0  0  0  0  0  0  0
   51.1220   34.0629   43.3335 H   0  0  0  0  0  0  0  0  0  0  0  0
  1  2  1  0
  2  3  2  0
  2  7  1  0
  3  4  1  0
  4  5  2  0
  6  5  1  0
  6  8  1  0
  7  6  2  0
  8  9  1  0
  9 11  1  0
  9 10  1  0
 11 10  1  0
 12 11  1  0
 13  1  1  0
 14 18  1  0
 14 13  1  0
 15 14  1  0
 16 15  2  0
 16 17  1  0
 17 18  2  0
 18 19  1  0
 19 21  1  0
 20 19  1  0
 20 21  1  0
  1 22  1  0
  1 23  1  0
  3 24  1  0
  4 25  1  0
  9 26  1  1
 10 27  1  0
 10 28  1  0
 11 29  1  1
 12 30  1  0
 12 31  1  0
 13 32  1  0
 13 33  1  0
 15 34  1  0
 16 35  1  0
 19 36  1  0
 20 37  1  0
 20 38  1  0
 21 39  1  0
 21 40  1  0
M  ISO  8  22   8  23   8  24  14  25  14  26  13  27  13  28  13  29  13
M  ISO  8  30   5  31   5  32   8  33   8  34  14  35  14  36  13  37  13
M  ISO  3  38  13  39  13  40  13
M  END
>  <minimizedAffinity>  (1) 
-5.4745512

>  <minimizedRMSD>  (1) 
0.0970755592

$$$$
