
     RDKit          3D

 54 58  0  0  1  0  0  0  0  0999 V2000
   45.9940   34.6340   43.4920 C   0  0  0  0  0  0  0  0  0  0  0  0
   44.9880   35.3210   44.1880 C   0  0  0  0  0  0  0  0  0  0  0  0
   44.6700   35.0590   45.4930 C   0  0  0  0  0  0  0  0  0  0  0  0
   45.3790   34.0910   46.0990 N   0  0  0  0  0  0  0  0  0  0  0  0
   46.3660   33.4110   45.4260 C   0  0  0  0  0  0  0  0  0  0  0  0
   46.6670   33.6950   44.1150 N   0  0  0  0  0  0  0  0  0  0  0  0
   46.2040   35.0270   42.1200 C   0  0  0  0  0  0  0  0  0  0  0  0
   47.6520   35.0800   41.7510 C   0  0  0  0  0  0  0  0  0  0  0  0
   48.0080   34.1690   40.7310 N   0  0  0  0  0  0  0  0  0  0  0  0
   47.6000   34.0950   39.4650 C   0  0  0  0  0  0  0  0  0  0  0  0
   48.1940   33.0640   38.7850 C   0  0  0  0  0  0  0  0  0  0  0  0
   49.0190   32.4770   39.7140 N   0  0  0  0  0  0  0  0  0  0  0  0
   48.8740   33.1750   40.8730 C   0  0  0  0  0  0  0  0  0  0  0  0
   49.6690   32.6740   42.0360 C   0  0  0  0  0  0  0  0  0  0  0  0
   51.0280   32.0960   41.8640 C   0  0  0  0  0  0  0  0  0  0  0  0
   50.8880   33.5000   42.4120 C   0  0  0  0  0  0  0  0  0  0  0  0
   47.0180   32.4420   46.1570 O   0  0  0  0  0  0  0  0  0  0  0  0
   46.2410   31.6080   47.0050 C   0  0  2  0  0  0  0  0  0  0  0  0
   47.0400   30.5570   47.7240 C   0  0  0  0  0  0  0  0  0  0  0  0
   46.0770   30.1700   46.6650 C   0  0  1  0  0  0  0  0  0  0  0  0
   44.7860   29.4610   47.0090 C   0  0  0  0  0  0  0  0  0  0  0  0
   44.8640   28.5750   48.2090 C   0  0  0  0  0  0  0  0  0  0  0  0
   45.1320   27.1300   47.9000 C   0  0  0  0  0  0  0  0  0  0  0  0
   45.6130   26.8820   46.5000 C   0  0  0  0  0  0  0  0  0  0  0  0
   44.7150   27.4710   45.4590 C   0  0  0  0  0  0  0  0  0  0  0  0
   44.1750   28.8230   45.8010 C   0  0  0  0  0  0  0  0  0  0  0  0
   44.4286   36.1072   43.6599 H   0  0  0  0  0  0  0  0  0  0  0  0
   43.8766   35.6111   46.0180 H   0  0  0  0  0  0  0  0  0  0  0  0
   45.7000   34.3012   41.4648 H   0  0  0  0  0  0  0  0  0  0  0  0
   45.7922   36.0396   41.9973 H   0  0  0  0  0  0  0  0  0  0  0  0
   47.8862   36.0979   41.4059 H   0  0  0  0  0  0  0  0  0  0  0  0
   48.2246   34.8011   42.6479 H   0  0  0  0  0  0  0  0  0  0  0  0
   46.8690   34.7836   39.0162 H   0  0  0  0  0  0  0  0  0  0  0  0
   48.0444   32.7727   37.7349 H   0  0  0  0  0  0  0  0  0  0  0  0
   48.7613   32.2986   42.5311 H   0  0  0  0  0  0  0  0  0  0  0  0
   51.3643   31.2819   42.5230 H   0  0  0  0  0  0  0  0  0  0  0  0
   51.5755   31.6458   41.0228 H   0  0  0  0  0  0  0  0  0  0  0  0
   51.1809   34.3652   41.7991 H   0  0  0  0  0  0  0  0  0  0  0  0
   51.2306   34.0290   43.3135 H   0  0  0  0  0  0  0  0  0  0  0  0
   45.5267   32.4043   47.2612 H   0  0  0  0  0  0  0  0  0  0  0  0
   48.1216   30.4683   47.5441 H   0  0  0  0  0  0  0  0  0  0  0  0
   47.1936   30.2793   48.7772 H   0  0  0  0  0  0  0  0  0  0  0  0
   46.1508   29.5726   45.7443 H   0  0  0  0  0  0  0  0  0  0  0  0
   44.0820   30.2403   47.3362 H   0  0  0  0  0  0  0  0  0  0  0  0
   45.6734   28.9437   48.8563 H   0  0  0  0  0  0  0  0  0  0  0  0
   43.8761   28.6137   48.6912 H   0  0  0  0  0  0  0  0  0  0  0  0
   45.8986   26.7637   48.5987 H   0  0  0  0  0  0  0  0  0  0  0  0
   44.1738   26.6001   48.0049 H   0  0  0  0  0  0  0  0  0  0  0  0
   46.6140   27.3245   46.3900 H   0  0  0  0  0  0  0  0  0  0  0  0
   45.6253   25.7930   46.3451 H   0  0  0  0  0  0  0  0  0  0  0  0
   43.8651   26.7884   45.3119 H   0  0  0  0  0  0  0  0  0  0  0  0
   45.3259   27.5974   44.5530 H   0  0  0  0  0  0  0  0  0  0  0  0
   44.3469   29.4867   44.9408 H   0  0  0  0  0  0  0  0  0  0  0  0
   43.1100   28.6785   46.0352 H   0  0  0  0  0  0  0  0  0  0  0  0
  1  6  1  0
  1  2  2  0
  2  3  1  0
  3  4  2  0
  5  4  1  0
  5 17  1  0
  6  5  2  0
  7  1  1  0
  8  7  1  0
  9 13  1  0
  9  8  1  0
 10  9  1  0
 11 10  2  0
 11 12  1  0
 12 13  2  0
 13 14  1  0
 14 16  1  0
 15 14  1  0
 15 16  1  0
 17 18  1  0
 18 19  1  0
 20 18  1  0
 20 21  1  0
 20 19  1  0
 21 22  1  0
 23 22  1  0
 24 23  1  0
 25 26  1  0
 25 24  1  0
 26 21  1  0
  2 27  1  0
  3 28  1  0
  7 29  1  0
  7 30  1  0
  8 31  1  0
  8 32  1  0
 10 33  1  0
 11 34  1  0
 14 35  1  0
 15 36  1  0
 15 37  1  0
 16 38  1  0
 16 39  1  0
 18 40  1  1
 19 41  1  0
 19 42  1  0
 20 43  1  6
 21 44  1  0
 22 45  1  0
 22 46  1  0
 23 47  1  0
 23 48  1  0
 24 49  1  0
 24 50  1  0
 25 51  1  0
 25 52  1  0
 26 53  1  0
 26 54  1  0
M  ISO  8  27  14  28  14  29   8  30   8  31   8  32   8  33  14  34  14
M  ISO  8  35  13  36  13  37  13  38  13  39  13  40  13  41  13  42  13
M  ISO  8  43  13  44  13  45  13  46  13  47  13  48  13  49  13  50  13
M  ISO  4  51  13  52  13  53  13  54  13
M  END
>  <minimizedAffinity>  (1) 
-5.4189167

>  <minimizedRMSD>  (1) 
2.54139256

$$$$
