
     RDKit          3D

 40 43  0  0  1  0  0  0  0  0999 V2000
   46.2650   35.0690   41.9480 C   0  0  0  0  0  0  0  0  0  0  0  0
   46.0120   34.7150   43.3220 C   0  0  0  0  0  0  0  0  0  0  0  0
   45.0170   35.4520   43.9760 C   0  0  0  0  0  0  0  0  0  0  0  0
   44.6550   35.2370   45.2790 C   0  0  0  0  0  0  0  0  0  0  0  0
   45.3170   34.2590   45.9260 N   0  0  0  0  0  0  0  0  0  0  0  0
   46.2980   33.5290   45.2910 C   0  0  0  0  0  0  0  0  0  0  0  0
   46.6380   33.7700   43.9820 N   0  0  0  0  0  0  0  0  0  0  0  0
   46.8920   32.5610   46.0650 O   0  0  0  0  0  0  0  0  0  0  0  0
   46.4180   32.3630   47.3860 C   0  0  2  0  0  0  0  0  0  0  0  0
   47.4760   31.8670   48.3410 C   0  0  0  0  0  0  0  0  0  0  0  0
   46.3470   30.9860   47.9310 C   0  0  1  0  0  0  0  0  0  0  0  0
   45.4110   30.6200   49.0020 C   0  0  0  0  0  0  0  0  0  0  0  0
   45.1430   31.5110   49.8230 O   0  0  0  0  0  0  0  0  0  0  0  0
   47.7250   35.0940   41.6170 C   0  0  0  0  0  0  0  0  0  0  0  0
   48.0950   34.1730   40.6150 N   0  0  0  0  0  0  0  0  0  0  0  0
   47.7280   34.1030   39.3340 C   0  0  0  0  0  0  0  0  0  0  0  0
   48.3180   33.0600   38.6770 C   0  0  0  0  0  0  0  0  0  0  0  0
   49.0940   32.4610   39.6320 N   0  0  0  0  0  0  0  0  0  0  0  0
   48.9330   33.1600   40.7890 C   0  0  0  0  0  0  0  0  0  0  0  0
   49.6750   32.6480   41.9830 C   0  0  0  0  0  0  0  0  0  0  0  0
   51.0370   32.0630   41.8530 C   0  0  0  0  0  0  0  0  0  0  0  0
   50.8830   33.4650   42.4050 C   0  0  0  0  0  0  0  0  0  0  0  0
   45.7694   34.3329   41.2980 H   0  0  0  0  0  0  0  0  0  0  0  0
   45.8708   36.0834   41.7883 H   0  0  0  0  0  0  0  0  0  0  0  0
   44.4999   36.2440   43.4144 H   0  0  0  0  0  0  0  0  0  0  0  0
   43.8684   35.8294   45.7692 H   0  0  0  0  0  0  0  0  0  0  0  0
   45.6904   33.1865   47.3356 H   0  0  0  0  0  0  0  0  0  0  0  0
   48.4946   31.6634   47.9791 H   0  0  0  0  0  0  0  0  0  0  0  0
   47.8890   32.2140   49.2996 H   0  0  0  0  0  0  0  0  0  0  0  0
   46.2175   30.0094   47.4416 H   0  0  0  0  0  0  0  0  0  0  0  0
   44.9726   29.6136   49.0723 H   0  0  0  0  0  0  0  0  0  0  0  0
   47.9857   36.1055   41.2723 H   0  0  0  0  0  0  0  0  0  0  0  0
   48.2668   34.8095   42.5311 H   0  0  0  0  0  0  0  0  0  0  0  0
   47.0282   34.8067   38.8595 H   0  0  0  0  0  0  0  0  0  0  0  0
   48.1970   32.7689   37.6231 H   0  0  0  0  0  0  0  0  0  0  0  0
   48.7489   32.2766   42.4460 H   0  0  0  0  0  0  0  0  0  0  0  0
   51.3470   31.2433   42.5178 H   0  0  0  0  0  0  0  0  0  0  0  0
   51.6109   31.6151   41.0284 H   0  0  0  0  0  0  0  0  0  0  0  0
   51.2002   34.3327   41.8080 H   0  0  0  0  0  0  0  0  0  0  0  0
   51.1966   33.9868   43.3212 H   0  0  0  0  0  0  0  0  0  0  0  0
  1  2  1  0
  2  3  2  0
  2  7  1  0
  3  4  1  0
  4  5  2  0
  6  5  1  0
  6  8  1  0
  7  6  2  0
  8  9  1  0
  9 11  1  0
  9 10  1  0
 11 10  1  0
 11 12  1  0
 12 13  2  0
 14  1  1  0
 15 19  1  0
 15 14  1  0
 16 15  1  0
 17 16  2  0
 17 18  1  0
 18 19  2  0
 19 20  1  0
 20 22  1  0
 21 20  1  0
 21 22  1  0
  1 23  1  0
  1 24  1  0
  3 25  1  0
  4 26  1  0
  9 27  1  1
 10 28  1  0
 10 29  1  0
 11 30  1  6
 12 31  1  0
 14 32  1  0
 14 33  1  0
 16 34  1  0
 17 35  1  0
 20 36  1  0
 21 37  1  0
 21 38  1  0
 22 39  1  0
 22 40  1  0
M  ISO  8  23   8  24   8  25  14  26  14  27  13  28  13  29  13  30  13
M  ISO  8  31   6  32   8  33   8  34  14  35  14  36  13  37  13  38  13
M  ISO  2  39  13  40  13
M  END
>  <minimizedAffinity>  (1) 
-5.29177952

>  <minimizedRMSD>  (1) 
0.779909372

$$$$
