
     RDKit          3D

 30 33  0  0  0  0  0  0  0  0999 V2000
   48.1650   33.7410   42.0460 C   0  0  0  0  0  0  0  0  0  0  0  0
   49.6420   33.6400   42.1870 C   0  0  0  0  0  0  0  0  0  0  0  0
   49.0460   34.9050   41.7430 C   0  0  0  0  0  0  0  0  0  0  0  0
   47.4860   33.0060   40.9460 C   0  0  0  0  0  0  0  0  0  0  0  0
   46.6160   33.7310   40.1150 C   0  0  0  0  0  0  0  0  0  0  0  0
   45.9660   33.0350   39.0790 C   0  0  0  0  0  0  0  0  0  0  0  0
   46.2050   31.7150   38.9280 N   0  0  0  0  0  0  0  0  0  0  0  0
   47.0520   31.0510   39.7480 C   0  0  0  0  0  0  0  0  0  0  0  0
   47.6870   31.6890   40.7490 N   0  0  0  0  0  0  0  0  0  0  0  0
   47.3340   33.7680   43.2530 N   0  0  0  0  0  0  0  0  0  0  0  0
   47.3760   32.9060   44.2890 C   0  0  0  0  0  0  0  0  0  0  0  0
   46.4750   33.2220   45.2320 N   0  0  0  0  0  0  0  0  0  0  0  0
   45.8130   34.3190   44.8230 C   0  0  0  0  0  0  0  0  0  0  0  0
   44.8010   35.0440   45.4130 C   0  0  0  0  0  0  0  0  0  0  0  0
   44.3400   36.1200   44.7300 N   0  0  0  0  0  0  0  0  0  0  0  0
   44.8790   36.4400   43.5170 C   0  0  0  0  0  0  0  0  0  0  0  0
   45.8670   35.7060   42.9750 N   0  0  0  0  0  0  0  0  0  0  0  0
   46.3710   34.6250   43.5980 C   0  0  0  0  0  0  0  0  0  0  0  0
   44.3290   34.6120   46.6720 N   0  0  0  0  0  0  0  0  0  0  0  0
   50.0936   33.5680   43.1874 H   0  0  0  0  0  0  0  0  0  0  0  0
   50.4135   32.9654   41.7875 H   0  0  0  0  0  0  0  0  0  0  0  0
   49.1769   35.2384   40.7029 H   0  0  0  0  0  0  0  0  0  0  0  0
   49.0972   35.9490   42.0856 H   0  0  0  0  0  0  0  0  0  0  0  0
   46.4483   34.8072   40.2690 H   0  0  0  0  0  0  0  0  0  0  0  0
   45.2740   33.5583   38.4028 H   0  0  0  0  0  0  0  0  0  0  0  0
   47.2240   29.9754   39.5947 H   0  0  0  0  0  0  0  0  0  0  0  0
   48.0636   32.0498   44.3532 H   0  0  0  0  0  0  0  0  0  0  0  0
   44.4974   37.3160   42.9720 H   0  0  0  0  0  0  0  0  0  0  0  0
   43.5733   35.1290   47.1438 H   0  0  0  0  0  0  0  0  0  0  0  0
   44.7405   33.7800   47.1185 H   0  0  0  0  0  0  0  0  0  0  0  0
  1  2  1  0
  1 10  1  0
  3  1  1  0
  3  2  1  0
  4  1  1  0
  5  4  2  0
  6  5  1  0
  7  6  2  0
  7  8  1  0
  8  9  2  0
  9  4  1  0
 10 18  1  0
 10 11  1  0
 11 12  2  0
 13 12  1  0
 13 14  2  0
 14 19  1  0
 15 14  1  0
 16 15  2  0
 17 16  1  0
 17 18  2  0
 18 13  1  0
  2 20  1  0
  2 21  1  0
  3 22  1  0
  3 23  1  0
  5 24  1  0
  6 25  1  0
  8 26  1  0
 11 27  1  0
 16 28  1  0
 19 29  1  0
 19 30  1  0
M  ISO  8  20  13  21  13  22  13  23  13  24  14  25  14  26  14  27  14
M  ISO  1  28  14
M  END
>  <minimizedAffinity>  (1) 
-5.35300493

>  <minimizedRMSD>  (1) 
5.22740269

$$$$
