
     RDKit          3D

 27 29  0  0  0  0  0  0  0  0999 V2000
   45.2790   35.4390   42.8850 C   0  0  0  0  0  0  0  0  0  0  0  0
   45.1870   36.8830   43.3020 C   0  0  0  0  0  0  0  0  0  0  0  0
   44.7280   35.8250   44.1940 C   0  0  0  0  0  0  0  0  0  0  0  0
   44.3830   34.9650   41.7820 C   0  0  0  0  0  0  0  0  0  0  0  0
   43.0070   35.3110   41.8960 C   0  0  0  0  0  0  0  0  0  0  0  0
   42.1680   34.8680   40.8810 C   0  0  0  0  0  0  0  0  0  0  0  0
   42.6760   34.1420   39.8500 N   0  0  0  0  0  0  0  0  0  0  0  0
   43.9900   33.8410   39.7900 C   0  0  0  0  0  0  0  0  0  0  0  0
   44.8390   34.2520   40.7530 N   0  0  0  0  0  0  0  0  0  0  0  0
   46.6420   34.8570   42.7380 C   0  0  0  0  0  0  0  0  0  0  0  0
   46.9050   33.7110   43.4750 C   0  0  0  0  0  0  0  0  0  0  0  0
   48.1350   33.1000   43.4040 C   0  0  0  0  0  0  0  0  0  0  0  0
   49.1300   33.6280   42.5890 C   0  0  0  0  0  0  0  0  0  0  0  0
   48.8770   34.7780   41.8450 C   0  0  0  0  0  0  0  0  0  0  0  0
   47.6390   35.3660   41.9370 C   0  0  0  0  0  0  0  0  0  0  0  0
   46.1006   37.4473   43.5403 H   0  0  0  0  0  0  0  0  0  0  0  0
   44.7394   37.7921   42.8740 H   0  0  0  0  0  0  0  0  0  0  0  0
   43.6520   35.7054   44.3889 H   0  0  0  0  0  0  0  0  0  0  0  0
   44.9549   35.5465   45.2337 H   0  0  0  0  0  0  0  0  0  0  0  0
   42.6272   35.8991   42.7445 H   0  0  0  0  0  0  0  0  0  0  0  0
   41.0941   35.1044   40.9116 H   0  0  0  0  0  0  0  0  0  0  0  0
   44.3736   33.2522   38.9437 H   0  0  0  0  0  0  0  0  0  0  0  0
   46.1226   33.2875   44.1219 H   0  0  0  0  0  0  0  0  0  0  0  0
   48.3319   32.1921   43.9930 H   0  0  0  0  0  0  0  0  0  0  0  0
   50.1138   33.1392   42.5320 H   0  0  0  0  0  0  0  0  0  0  0  0
   49.6542   35.2074   41.1957 H   0  0  0  0  0  0  0  0  0  0  0  0
   47.4375   36.2746   41.3506 H   0  0  0  0  0  0  0  0  0  0  0  0
  1  2  1  0
  1  3  1  0
  2  3  1  0
  4  5  2  0
  4  1  1  0
  6  5  1  0
  7  6  2  0
  8  7  1  0
  8  9  2  0
  9  4  1  0
 10  1  1  0
 10 11  2  0
 12 11  1  0
 13 12  2  0
 14 15  2  0
 14 13  1  0
 15 10  1  0
  2 16  1  0
  2 17  1  0
  3 18  1  0
  3 19  1  0
  5 20  1  0
  6 21  1  0
  8 22  1  0
 11 23  1  0
 12 24  1  0
 13 25  1  0
 14 26  1  0
 15 27  1  0
M  ISO  8  16  13  17  13  18  13  19  13  20  14  21  14  22  14  23  14
M  ISO  4  24  14  25  14  26  14  27  14
M  END
>  <minimizedAffinity>  (1) 
-4.75267029

>  <minimizedRMSD>  (1) 
5.54773283

$$$$
