
     RDKit          3D

 31 34  0  0  0  0  0  0  0  0999 V2000
   44.8340   35.1180   43.0140 C   0  0  0  0  0  0  0  0  0  0  0  0
   44.2540   35.9460   44.1370 C   0  0  0  0  0  0  0  0  0  0  0  0
   45.2770   36.5200   43.2760 C   0  0  0  0  0  0  0  0  0  0  0  0
   43.9450   34.8870   41.8390 C   0  0  0  0  0  0  0  0  0  0  0  0
   42.6250   35.3470   41.8270 C   0  0  0  0  0  0  0  0  0  0  0  0
   42.0310   35.0110   40.6730 N   0  0  0  0  0  0  0  0  0  0  0  0
   42.9010   34.3420   39.9100 C   0  0  0  0  0  0  0  0  0  0  0  0
   42.8480   33.7680   38.6550 C   0  0  0  0  0  0  0  0  0  0  0  0
   43.9370   33.1360   38.1280 C   0  0  0  0  0  0  0  0  0  0  0  0
   45.0930   33.0750   38.8620 C   0  0  0  0  0  0  0  0  0  0  0  0
   45.1850   33.6420   40.1310 C   0  0  0  0  0  0  0  0  0  0  0  0
   44.0810   34.2640   40.6270 C   0  0  0  0  0  0  0  0  0  0  0  0
   45.7460   34.0010   43.3510 C   0  0  0  0  0  0  0  0  0  0  0  0
   47.1280   34.1640   43.1970 C   0  0  0  0  0  0  0  0  0  0  0  0
   47.9780   33.1020   43.5120 C   0  0  0  0  0  0  0  0  0  0  0  0
   47.4300   31.9500   43.9570 N   0  0  0  0  0  0  0  0  0  0  0  0
   46.0900   31.8130   44.1000 C   0  0  0  0  0  0  0  0  0  0  0  0
   45.2730   32.8240   43.8000 N   0  0  0  0  0  0  0  0  0  0  0  0
   43.2170   36.3074   44.0734 H   0  0  0  0  0  0  0  0  0  0  0  0
   44.1416   35.8095   45.2227 H   0  0  0  0  0  0  0  0  0  0  0  0
   46.2842   36.7079   43.6763 H   0  0  0  0  0  0  0  0  0  0  0  0
   45.3429   37.4317   42.6641 H   0  0  0  0  0  0  0  0  0  0  0  0
   42.1439   35.9034   42.6449 H   0  0  0  0  0  0  0  0  0  0  0  0
   41.0588   35.2331   40.4153 H   0  0  0  0  0  0  0  0  0  0  0  0
   41.9163   33.8208   38.0727 H   0  0  0  0  0  0  0  0  0  0  0  0
   43.8876   32.6816   37.1275 H   0  0  0  0  0  0  0  0  0  0  0  0
   45.9707   32.5652   38.4380 H   0  0  0  0  0  0  0  0  0  0  0  0
   46.1176   33.5888   40.7119 H   0  0  0  0  0  0  0  0  0  0  0  0
   47.5391   35.1169   42.8324 H   0  0  0  0  0  0  0  0  0  0  0  0
   49.0679   33.2009   43.4005 H   0  0  0  0  0  0  0  0  0  0  0  0
   45.6732   30.8629   44.4655 H   0  0  0  0  0  0  0  0  0  0  0  0
  1  3  1  0
  1 13  1  0
  1  2  1  0
  3  2  1  0
  4  1  1  0
  5  4  2  0
  6  5  1  0
  7 12  2  0
  7  6  1  0
  8  7  1  0
  9  8  2  0
  9 10  1  0
 10 11  2  0
 11 12  1  0
 12  4  1  0
 13 18  1  0
 14 13  2  0
 14 15  1  0
 15 16  2  0
 16 17  1  0
 18 17  2  0
  2 19  1  0
  2 20  1  0
  3 21  1  0
  3 22  1  0
  5 23  1  0
  6 24  1  0
  8 25  1  0
  9 26  1  0
 10 27  1  0
 11 28  1  0
 14 29  1  0
 15 30  1  0
 17 31  1  0
M  ISO  8  19  13  20  13  21  13  22  13  23  14  24   9  25  14  26  14
M  ISO  5  27  14  28  14  29  14  30  14  31  14
M  END
>  <minimizedAffinity>  (1) 
-4.53333759

>  <minimizedRMSD>  (1) 
3.12488961

$$$$
