
     RDKit          3D

 24 26  0  0  0  0  0  0  0  0999 V2000
   45.0370   35.6390   43.2070 C   0  0  0  0  0  0  0  0  0  0  0  0
   44.5930   36.0690   44.5640 C   0  0  0  0  0  0  0  0  0  0  0  0
   45.1280   37.0650   43.6400 C   0  0  0  0  0  0  0  0  0  0  0  0
   46.2500   34.8000   43.0690 C   0  0  0  0  0  0  0  0  0  0  0  0
   47.1850   35.2260   42.1160 C   0  0  0  0  0  0  0  0  0  0  0  0
   48.3540   34.4630   41.9380 C   0  0  0  0  0  0  0  0  0  0  0  0
   48.5120   33.3450   42.7070 N   0  0  0  0  0  0  0  0  0  0  0  0
   47.5780   32.9730   43.6190 C   0  0  0  0  0  0  0  0  0  0  0  0
   46.4570   33.7010   43.7920 N   0  0  0  0  0  0  0  0  0  0  0  0
   43.9790   35.2410   42.2320 C   0  0  0  0  0  0  0  0  0  0  0  0
   44.2660   34.6890   40.9880 C   0  0  0  0  0  0  0  0  0  0  0  0
   43.0780   34.4590   40.3900 N   0  0  0  0  0  0  0  0  0  0  0  0
   42.0960   34.8620   41.2480 C   0  0  0  0  0  0  0  0  0  0  0  0
   42.6520   35.3460   42.3900 N   0  0  0  0  0  0  0  0  0  0  0  0
   43.5218   36.0733   44.8142 H   0  0  0  0  0  0  0  0  0  0  0  0
   44.8348   35.7585   45.5912 H   0  0  0  0  0  0  0  0  0  0  0  0
   46.1119   37.5180   43.8317 H   0  0  0  0  0  0  0  0  0  0  0  0
   44.7635   38.0212   43.2365 H   0  0  0  0  0  0  0  0  0  0  0  0
   47.0094   36.1347   41.5215 H   0  0  0  0  0  0  0  0  0  0  0  0
   49.1169   34.7577   41.2024 H   0  0  0  0  0  0  0  0  0  0  0  0
   47.7377   32.0678   44.2233 H   0  0  0  0  0  0  0  0  0  0  0  0
   45.2635   34.4811   40.5736 H   0  0  0  0  0  0  0  0  0  0  0  0
   41.0163   34.8038   41.0456 H   0  0  0  0  0  0  0  0  0  0  0  0
   42.1541   35.7184   43.2112 H   0  0  0  0  0  0  0  0  0  0  0  0
  1  3  1  0
  1  2  1  0
  3  2  1  0
  4  1  1  0
  4  9  1  0
  5  4  2  0
  6  5  1  0
  6  7  2  0
  7  8  1  0
  8  9  2  0
 10 14  1  0
 10  1  1  0
 11 10  2  0
 12 11  1  0
 12 13  2  0
 13 14  1  0
  2 15  1  0
  2 16  1  0
  3 17  1  0
  3 18  1  0
  5 19  1  0
  6 20  1  0
  8 21  1  0
 11 22  1  0
 13 23  1  0
 14 24  1  0
M  ISO  8  15  13  16  13  17  13  18  13  19  14  20  14  21  14  22  14
M  ISO  2  23  14  24   9
M  END
>  <minimizedAffinity>  (1) 
-4.41564131

>  <minimizedRMSD>  (1) 
2.49190211

$$$$
