
     RDKit          3D

 27 29  0  0  0  0  0  0  0  0999 V2000
   45.3600   34.6320   43.4010 C   0  0  0  0  0  0  0  0  0  0  0  0
   45.0940   34.6530   44.8840 C   0  0  0  0  0  0  0  0  0  0  0  0
   44.9440   35.8780   44.1180 C   0  0  0  0  0  0  0  0  0  0  0  0
   46.7600   34.4580   42.9420 C   0  0  0  0  0  0  0  0  0  0  0  0
   47.2180   35.3930   41.9900 C   0  0  0  0  0  0  0  0  0  0  0  0
   48.5370   35.2740   41.5200 C   0  0  0  0  0  0  0  0  0  0  0  0
   49.3040   34.2670   42.0040 N   0  0  0  0  0  0  0  0  0  0  0  0
   48.8200   33.3940   42.9180 C   0  0  0  0  0  0  0  0  0  0  0  0
   47.5720   33.4920   43.3750 N   0  0  0  0  0  0  0  0  0  0  0  0
   44.3930   33.9400   42.5690 N   0  0  0  0  0  0  0  0  0  0  0  0
   44.1760   32.6170   42.6310 C   0  0  0  0  0  0  0  0  0  0  0  0
   43.3020   31.8630   41.9050 C   0  0  0  0  0  0  0  0  0  0  0  0
   42.5310   32.5620   40.9710 C   0  0  0  0  0  0  0  0  0  0  0  0
   41.7020   31.9650   40.2570 O   0  0  0  0  0  0  0  0  0  0  0  0
   42.7300   33.9040   40.8870 N   0  0  0  0  0  0  0  0  0  0  0  0
   43.6170   34.5780   41.6460 C   0  0  0  0  0  0  0  0  0  0  0  0
   43.7440   35.8310   41.5070 O   0  0  0  0  0  0  0  0  0  0  0  0
   44.2048   34.1473   45.2885 H   0  0  0  0  0  0  0  0  0  0  0  0
   45.6679   34.3644   45.7770 H   0  0  0  0  0  0  0  0  0  0  0  0
   45.6654   36.6975   44.2520 H   0  0  0  0  0  0  0  0  0  0  0  0
   44.1314   36.6074   43.9848 H   0  0  0  0  0  0  0  0  0  0  0  0
   46.5594   36.1948   41.6249 H   0  0  0  0  0  0  0  0  0  0  0  0
   48.9369   35.9806   40.7778 H   0  0  0  0  0  0  0  0  0  0  0  0
   49.4692   32.5881   43.2908 H   0  0  0  0  0  0  0  0  0  0  0  0
   44.7840   32.0679   43.3650 H   0  0  0  0  0  0  0  0  0  0  0  0
   43.2095   30.7759   42.0449 H   0  0  0  0  0  0  0  0  0  0  0  0
   42.1713   34.4361   40.2047 H   0  0  0  0  0  0  0  0  0  0  0  0
  1  3  1  0
  1  2  1  0
  3  2  1  0
  4  9  1  0
  4  1  1  0
  5  4  2  0
  6  5  1  0
  6  7  2  0
  7  8  1  0
  8  9  2  0
 10 11  1  0
 10  1  1  0
 12 11  2  0
 13 12  1  0
 14 13  2  0
 15 13  1  0
 15 16  1  0
 16 10  1  0
 17 16  2  0
  2 18  1  0
  2 19  1  0
  3 20  1  0
  3 21  1  0
  5 22  1  0
  6 23  1  0
  8 24  1  0
 11 25  1  0
 12 26  1  0
 15 27  1  0
M  ISO  8  18  13  19  13  20  13  21  13  22  14  23  14  24  14  25  14
M  ISO  2  26  14  27   9
M  END
>  <minimizedAffinity>  (1) 
-4.40059519

>  <minimizedRMSD>  (1) 
2.89988065

$$$$
