
     RDKit          3D

 25 27  0  0  0  0  0  0  0  0999 V2000
   44.7380   34.6360   41.8480 C   0  0  0  0  0  0  0  0  0  0  0  0
   43.4880   34.0520   41.2260 C   0  0  0  0  0  0  0  0  0  0  0  0
   43.6680   35.5000   41.3060 C   0  0  0  0  0  0  0  0  0  0  0  0
   44.9230   34.4450   43.3050 C   0  0  0  0  0  0  0  0  0  0  0  0
   44.4930   35.5140   44.1390 C   0  0  0  0  0  0  0  0  0  0  0  0
   44.6460   35.3840   45.5160 C   0  0  0  0  0  0  0  0  0  0  0  0
   45.1980   34.2460   45.9990 N   0  0  0  0  0  0  0  0  0  0  0  0
   45.5960   33.2510   45.1870 C   0  0  0  0  0  0  0  0  0  0  0  0
   45.4530   33.3670   43.8700 N   0  0  0  0  0  0  0  0  0  0  0  0
   45.9650   34.3640   41.0220 C   0  0  0  0  0  0  0  0  0  0  0  0
   47.1600   34.9460   41.3970 C   0  0  0  0  0  0  0  0  0  0  0  0
   48.2610   34.6770   40.6110 C   0  0  0  0  0  0  0  0  0  0  0  0
   48.2370   33.8840   39.5060 N   0  0  0  0  0  0  0  0  0  0  0  0
   47.0340   33.3370   39.1850 C   0  0  0  0  0  0  0  0  0  0  0  0
   45.9610   33.5810   39.9240 N   0  0  0  0  0  0  0  0  0  0  0  0
   42.7385   33.5539   41.8586 H   0  0  0  0  0  0  0  0  0  0  0  0
   43.2802   33.3349   40.4182 H   0  0  0  0  0  0  0  0  0  0  0  0
   43.8477   36.0779   40.3874 H   0  0  0  0  0  0  0  0  0  0  0  0
   43.0677   36.3250   41.7170 H   0  0  0  0  0  0  0  0  0  0  0  0
   44.0497   36.4226   43.7054 H   0  0  0  0  0  0  0  0  0  0  0  0
   44.3259   36.1871   46.1962 H   0  0  0  0  0  0  0  0  0  0  0  0
   46.0407   32.3394   45.6128 H   0  0  0  0  0  0  0  0  0  0  0  0
   47.2305   35.5948   42.2825 H   0  0  0  0  0  0  0  0  0  0  0  0
   49.2205   35.1332   40.8961 H   0  0  0  0  0  0  0  0  0  0  0  0
   46.9505   32.6852   38.3028 H   0  0  0  0  0  0  0  0  0  0  0  0
  1  4  1  0
  2  3  1  0
  2  1  1  0
  3  1  1  0
  4  9  1  0
  4  5  2  0
  5  6  1  0
  6  7  2  0
  8  7  1  0
  9  8  2  0
 10 11  2  0
 10  1  1  0
 12 11  1  0
 13 12  2  0
 14 13  1  0
 14 15  2  0
 15 10  1  0
  2 16  1  0
  2 17  1  0
  3 18  1  0
  3 19  1  0
  5 20  1  0
  6 21  1  0
  8 22  1  0
 11 23  1  0
 12 24  1  0
 14 25  1  0
M  ISO  8  16  13  17  13  18  13  19  13  20  14  21  14  22  14  23  14
M  ISO  2  24  14  25  14
M  END
>  <minimizedAffinity>  (1) 
-4.39449644

>  <minimizedRMSD>  (1) 
4.7097187

$$$$
