
     RDKit          3D

 26 28  0  0  0  0  0  0  0  0999 V2000
   45.1720   34.5990   42.5970 C   0  0  0  0  0  0  0  0  0  0  0  0
   44.8590   35.9280   43.1960 C   0  0  0  0  0  0  0  0  0  0  0  0
   45.4260   34.8860   44.0350 C   0  0  0  0  0  0  0  0  0  0  0  0
   44.0550   33.7200   42.1830 C   0  0  0  0  0  0  0  0  0  0  0  0
   44.1330   32.3780   42.5790 C   0  0  0  0  0  0  0  0  0  0  0  0
   43.0940   31.5020   42.2070 C   0  0  0  0  0  0  0  0  0  0  0  0
   42.0660   32.0040   41.4830 N   0  0  0  0  0  0  0  0  0  0  0  0
   42.0230   33.3130   41.1160 C   0  0  0  0  0  0  0  0  0  0  0  0
   43.0050   34.1400   41.4670 N   0  0  0  0  0  0  0  0  0  0  0  0
   46.3140   34.5980   41.6380 C   0  0  0  0  0  0  0  0  0  0  0  0
   47.4830   35.2360   42.0510 C   0  0  0  0  0  0  0  0  0  0  0  0
   48.6210   35.2990   41.2460 C   0  0  0  0  0  0  0  0  0  0  0  0
   48.5930   34.7060   39.9860 C   0  0  0  0  0  0  0  0  0  0  0  0
   47.4020   34.1040   39.6700 C   0  0  0  0  0  0  0  0  0  0  0  0
   46.2800   34.0170   40.4110 N   0  0  0  0  0  0  0  0  0  0  0  0
   45.4648   36.8062   42.9282 H   0  0  0  0  0  0  0  0  0  0  0  0
   43.9605   36.5604   43.2489 H   0  0  0  0  0  0  0  0  0  0  0  0
   44.8059   34.4066   44.8068 H   0  0  0  0  0  0  0  0  0  0  0  0
   46.3048   34.8169   44.6930 H   0  0  0  0  0  0  0  0  0  0  0  0
   44.9882   32.0158   43.1684 H   0  0  0  0  0  0  0  0  0  0  0  0
   43.1174   30.4410   42.4964 H   0  0  0  0  0  0  0  0  0  0  0  0
   41.1736   33.6895   40.5270 H   0  0  0  0  0  0  0  0  0  0  0  0
   47.5090   35.7057   43.0453 H   0  0  0  0  0  0  0  0  0  0  0  0
   49.5279   35.8100   41.6016 H   0  0  0  0  0  0  0  0  0  0  0  0
   49.4541   34.7194   39.3017 H   0  0  0  0  0  0  0  0  0  0  0  0
   47.3566   33.6286   38.6791 H   0  0  0  0  0  0  0  0  0  0  0  0
  1  2  1  0
  1  3  1  0
  2  3  1  0
  4  5  2  0
  4  1  1  0
  6  5  1  0
  7  6  2  0
  8  9  2  0
  8  7  1  0
  9  4  1  0
 10 11  2  0
 10  1  1  0
 12 11  1  0
 13 12  2  0
 14 13  1  0
 14 15  2  0
 15 10  1  0
  2 16  1  0
  2 17  1  0
  3 18  1  0
  3 19  1  0
  5 20  1  0
  6 21  1  0
  8 22  1  0
 11 23  1  0
 12 24  1  0
 13 25  1  0
 14 26  1  0
M  ISO  8  16  13  17  13  18  13  19  13  20  14  21  14  22  14  23  14
M  ISO  3  24  14  25  14  26  14
M  END
>  <minimizedAffinity>  (1) 
-4.36745501

>  <minimizedRMSD>  (1) 
5.26833487

$$$$
