
     RDKit          3D

 24 26  0  0  0  0  0  0  0  0999 V2000
   45.1180   35.3890   43.0840 C   0  0  0  0  0  0  0  0  0  0  0  0
   44.5680   35.7510   44.4140 C   0  0  0  0  0  0  0  0  0  0  0  0
   45.0660   36.8030   43.5270 C   0  0  0  0  0  0  0  0  0  0  0  0
   46.4090   34.6620   42.9930 C   0  0  0  0  0  0  0  0  0  0  0  0
   47.3260   35.1000   42.0270 C   0  0  0  0  0  0  0  0  0  0  0  0
   48.5540   34.4280   41.9060 C   0  0  0  0  0  0  0  0  0  0  0  0
   48.7850   33.3780   42.7460 N   0  0  0  0  0  0  0  0  0  0  0  0
   47.8650   32.9850   43.6730 C   0  0  0  0  0  0  0  0  0  0  0  0
   46.6880   33.6230   43.7940 N   0  0  0  0  0  0  0  0  0  0  0  0
   44.1580   34.9050   42.1000 N   0  0  0  0  0  0  0  0  0  0  0  0
   43.4910   35.6810   41.2340 C   0  0  0  0  0  0  0  0  0  0  0  0
   42.6990   34.8020   40.5030 C   0  0  0  0  0  0  0  0  0  0  0  0
   42.9000   33.5410   40.9350 N   0  0  0  0  0  0  0  0  0  0  0  0
   43.8040   33.6190   41.9230 C   0  0  0  0  0  0  0  0  0  0  0  0
   43.4886   35.6595   44.6050 H   0  0  0  0  0  0  0  0  0  0  0  0
   44.7787   35.4457   45.4495 H   0  0  0  0  0  0  0  0  0  0  0  0
   45.9964   37.3348   43.7750 H   0  0  0  0  0  0  0  0  0  0  0  0
   44.6445   37.7302   43.1116 H   0  0  0  0  0  0  0  0  0  0  0  0
   47.0884   35.9541   41.3758 H   0  0  0  0  0  0  0  0  0  0  0  0
   49.3020   34.7372   41.1611 H   0  0  0  0  0  0  0  0  0  0  0  0
   48.0895   32.1331   44.3316 H   0  0  0  0  0  0  0  0  0  0  0  0
   43.5559   36.7737   41.1253 H   0  0  0  0  0  0  0  0  0  0  0  0
   42.0121   35.0920   39.6942 H   0  0  0  0  0  0  0  0  0  0  0  0
   44.1943   32.7662   42.4978 H   0  0  0  0  0  0  0  0  0  0  0  0
  1  3  1  0
  1  2  1  0
  3  2  1  0
  4  1  1  0
  4  9  1  0
  5  4  2  0
  6  5  1  0
  6  7  2  0
  7  8  1  0
  8  9  2  0
 10  1  1  0
 11 10  1  0
 12 13  1  0
 12 11  2  0
 13 14  2  0
 14 10  1  0
  2 15  1  0
  2 16  1  0
  3 17  1  0
  3 18  1  0
  5 19  1  0
  6 20  1  0
  8 21  1  0
 11 22  1  0
 12 23  1  0
 14 24  1  0
M  ISO  8  15  13  16  13  17  13  18  13  19  14  20  14  21  14  22  14
M  ISO  2  23  14  24  14
M  END
>  <minimizedAffinity>  (1) 
-3.98081875

>  <minimizedRMSD>  (1) 
2.61014891

$$$$
