
     RDKit          3D

 20 21  0  0  0  0  0  0  0  0999 V2000
   44.9470   35.3820   43.1580 C   0  0  0  0  0  0  0  0  0  0  0  0
   44.5600   35.9540   44.4790 C   0  0  0  0  0  0  0  0  0  0  0  0
   45.0300   36.8460   43.4350 C   0  0  0  0  0  0  0  0  0  0  0  0
   46.1990   34.5640   43.0690 C   0  0  0  0  0  0  0  0  0  0  0  0
   47.0240   34.8140   41.9630 C   0  0  0  0  0  0  0  0  0  0  0  0
   48.2040   34.0490   41.8660 C   0  0  0  0  0  0  0  0  0  0  0  0
   48.4680   33.1250   42.8380 N   0  0  0  0  0  0  0  0  0  0  0  0
   47.6380   32.9280   43.8760 C   0  0  0  0  0  0  0  0  0  0  0  0
   46.5160   33.6410   43.9900 N   0  0  0  0  0  0  0  0  0  0  0  0
   43.9260   35.0040   42.1210 C   0  0  0  0  0  0  0  0  0  0  0  0
   44.2130   35.4810   40.8620 F   0  0  0  0  0  0  0  0  0  0  0  0
   43.8830   33.6090   42.0820 F   0  0  0  0  0  0  0  0  0  0  0  0
   42.6800   35.4160   42.5410 F   0  0  0  0  0  0  0  0  0  0  0  0
   43.5018   35.9719   44.7789 H   0  0  0  0  0  0  0  0  0  0  0  0
   44.8558   35.7608   45.5207 H   0  0  0  0  0  0  0  0  0  0  0  0
   46.0129   37.3306   43.5301 H   0  0  0  0  0  0  0  0  0  0  0  0
   44.6284   37.7483   42.9506 H   0  0  0  0  0  0  0  0  0  0  0  0
   46.7631   35.5702   41.2079 H   0  0  0  0  0  0  0  0  0  0  0  0
   48.8983   34.1927   41.0250 H   0  0  0  0  0  0  0  0  0  0  0  0
   47.8852   32.1735   44.6373 H   0  0  0  0  0  0  0  0  0  0  0  0
  1  3  1  0
  1  2  1  0
  3  2  1  0
  4  1  1  0
  4  9  1  0
  5  4  2  0
  6  5  1  0
  6  7  2  0
  7  8  1  0
  8  9  2  0
 10 13  1  0
 10  1  1  0
 11 10  1  0
 12 10  1  0
  2 14  1  0
  2 15  1  0
  3 16  1  0
  3 17  1  0
  5 18  1  0
  6 19  1  0
  8 20  1  0
M  ISO  7  14  13  15  13  16  13  17  13  18  14  19  14  20  14
M  END
>  <minimizedAffinity>  (1) 
-3.85351038

>  <minimizedRMSD>  (1) 
2.19016528

$$$$
