
     RDKit          3D

 19 20  0  0  0  0  0  0  0  0999 V2000
   47.0910   34.4020   42.0490 C   0  0  0  0  0  0  0  0  0  0  0  0
   48.2370   35.4190   41.7480 C   0  0  0  0  0  0  0  0  0  0  0  0
   48.4950   34.0730   42.2290 C   0  0  0  0  0  0  0  0  0  0  0  0
   46.1990   34.8600   43.1470 C   0  0  0  0  0  0  0  0  0  0  0  0
   46.2290   33.9520   44.2720 C   0  0  0  0  0  0  0  0  0  0  0  0
   45.4520   34.1640   45.3920 C   0  0  0  0  0  0  0  0  0  0  0  0
   44.6590   35.2470   45.3740 N   0  0  0  0  0  0  0  0  0  0  0  0
   44.6440   36.0760   44.3140 C   0  0  0  0  0  0  0  0  0  0  0  0
   45.3930   35.8930   43.2310 N   0  0  0  0  0  0  0  0  0  0  0  0
   46.3200   34.2030   40.7720 C   0  0  0  0  0  0  0  0  0  0  0  0
   45.4840   33.3000   40.8670 O   0  0  0  0  0  0  0  0  0  0  0  0
   48.4780   35.6954   40.7109 H   0  0  0  0  0  0  0  0  0  0  0  0
   48.4961   36.4384   42.0699 H   0  0  0  0  0  0  0  0  0  0  0  0
   48.8862   33.9341   43.2476 H   0  0  0  0  0  0  0  0  0  0  0  0
   49.1244   33.2530   41.8528 H   0  0  0  0  0  0  0  0  0  0  0  0
   46.8870   33.0713   44.2338 H   0  0  0  0  0  0  0  0  0  0  0  0
   45.4807   33.4816   46.2543 H   0  0  0  0  0  0  0  0  0  0  0  0
   43.9774   36.9504   44.3453 H   0  0  0  0  0  0  0  0  0  0  0  0
   46.4828   34.7944   39.8589 H   0  0  0  0  0  0  0  0  0  0  0  0
  1  3  1  0
  1  4  1  0
  2  1  1  0
  2  3  1  0
  4  9  1  0
  4  5  2  0
  5  6  1  0
  7  6  2  0
  8  7  1  0
  9  8  2  0
 10 11  2  0
 10  1  1  0
  2 12  1  0
  2 13  1  0
  3 14  1  0
  3 15  1  0
  5 16  1  0
  6 17  1  0
  8 18  1  0
 10 19  1  0
M  ISO  8  12  13  13  13  14  13  15  13  16  14  17  14  18  14  19   6
M  END
>  <minimizedAffinity>  (1) 
-3.80491257

>  <minimizedRMSD>  (1) 
3.6101048

$$$$
