
     RDKit          3D

 26 27  0  0  0  0  0  0  0  0999 V2000
   45.4120   35.0990   42.8850 C   0  0  0  0  0  0  0  0  0  0  0  0
   44.8870   35.4870   44.2240 C   0  0  0  0  0  0  0  0  0  0  0  0
   45.1320   36.5210   43.2330 C   0  0  0  0  0  0  0  0  0  0  0  0
   46.8050   34.6050   42.7660 C   0  0  0  0  0  0  0  0  0  0  0  0
   47.6800   35.3840   41.9980 C   0  0  0  0  0  0  0  0  0  0  0  0
   49.0040   34.9200   41.8610 C   0  0  0  0  0  0  0  0  0  0  0  0
   49.3680   33.7700   42.4610 N   0  0  0  0  0  0  0  0  0  0  0  0
   48.4880   33.0540   43.1920 C   0  0  0  0  0  0  0  0  0  0  0  0
   47.2140   33.4720   43.3420 N   0  0  0  0  0  0  0  0  0  0  0  0
   44.5090   34.5200   41.8160 C   0  0  0  0  0  0  0  0  0  0  0  0
   45.2330   34.0010   40.6180 C   0  0  0  0  0  0  0  0  0  0  0  0
   43.5610   35.6310   41.3870 C   0  0  0  0  0  0  0  0  0  0  0  0
   43.8546   35.2295   44.5031 H   0  0  0  0  0  0  0  0  0  0  0  0
   45.2131   35.3174   45.2608 H   0  0  0  0  0  0  0  0  0  0  0  0
   45.9654   37.2255   43.3710 H   0  0  0  0  0  0  0  0  0  0  0  0
   44.5253   37.3216   42.7848 H   0  0  0  0  0  0  0  0  0  0  0  0
   47.3479   36.3184   41.5219 H   0  0  0  0  0  0  0  0  0  0  0  0
   49.7338   35.4920   41.2692 H   0  0  0  0  0  0  0  0  0  0  0  0
   48.8132   32.1187   43.6711 H   0  0  0  0  0  0  0  0  0  0  0  0
   43.9883   33.6516   42.2458 H   0  0  0  0  0  0  0  0  0  0  0  0
   46.0872   33.3887   40.9426 H   0  0  0  0  0  0  0  0  0  0  0  0
   44.5493   33.3860   40.0143 H   0  0  0  0  0  0  0  0  0  0  0  0
   45.5959   34.8459   40.0143 H   0  0  0  0  0  0  0  0  0  0  0  0
   43.1429   36.1210   42.2787 H   0  0  0  0  0  0  0  0  0  0  0  0
   44.1107   36.3704   40.7861 H   0  0  0  0  0  0  0  0  0  0  0  0
   42.7443   35.2045   40.7861 H   0  0  0  0  0  0  0  0  0  0  0  0
  1  3  1  0
  1  2  1  0
  3  2  1  0
  4  1  1  0
  4  9  1  0
  5  4  2  0
  6  5  1  0
  6  7  2  0
  7  8  1  0
  8  9  2  0
 10  1  1  0
 11 10  1  0
 12 10  1  0
  2 13  1  0
  2 14  1  0
  3 15  1  0
  3 16  1  0
  5 17  1  0
  6 18  1  0
  8 19  1  0
 10 20  1  0
 11 21  1  0
 11 22  1  0
 11 23  1  0
 12 24  1  0
 12 25  1  0
 12 26  1  0
M  ISO  8  13  13  14  13  15  13  16  13  17  14  18  14  19  14  20   8
M  ISO  6  21   8  22   8  23   8  24   8  25   8  26   8
M  END
>  <minimizedAffinity>  (1) 
-3.79796791

>  <minimizedRMSD>  (1) 
2.87383127

$$$$
