
     RDKit          3D

 22 24  0  0  0  0  0  0  0  0999 V2000
   45.3060   34.7740   43.2000 C   0  0  0  0  0  0  0  0  0  0  0  0
   45.3840   36.2600   43.1380 C   0  0  0  0  0  0  0  0  0  0  0  0
   46.3720   35.4710   42.4180 C   0  0  0  0  0  0  0  0  0  0  0  0
   45.6440   34.0800   44.4590 C   0  0  0  0  0  0  0  0  0  0  0  0
   46.6220   33.0690   44.4160 C   0  0  0  0  0  0  0  0  0  0  0  0
   46.9410   32.3830   45.5810 C   0  0  0  0  0  0  0  0  0  0  0  0
   46.2850   32.7240   46.7250 N   0  0  0  0  0  0  0  0  0  0  0  0
   45.3550   33.6940   46.7360 C   0  0  0  0  0  0  0  0  0  0  0  0
   45.0370   34.3680   45.6100 N   0  0  0  0  0  0  0  0  0  0  0  0
   44.1860   34.1160   42.4250 C   0  0  0  0  0  0  0  0  0  0  0  0
   43.9800   32.8010   42.2150 N   0  0  0  0  0  0  0  0  0  0  0  0
   42.9170   32.5930   41.4990 O   0  0  0  0  0  0  0  0  0  0  0  0
   42.4130   33.7710   41.2290 C   0  0  0  0  0  0  0  0  0  0  0  0
   43.1710   34.7420   41.7860 N   0  0  0  0  0  0  0  0  0  0  0  0
   44.6228   36.8251   42.5801 H   0  0  0  0  0  0  0  0  0  0  0  0
   45.4351   37.0623   43.8888 H   0  0  0  0  0  0  0  0  0  0  0  0
   46.3539   35.4407   41.3186 H   0  0  0  0  0  0  0  0  0  0  0  0
   47.4713   35.4333   42.4035 H   0  0  0  0  0  0  0  0  0  0  0  0
   47.1282   32.8247   43.4704 H   0  0  0  0  0  0  0  0  0  0  0  0
   47.7010   31.5878   45.5797 H   0  0  0  0  0  0  0  0  0  0  0  0
   44.8443   33.9431   47.6779 H   0  0  0  0  0  0  0  0  0  0  0  0
   41.5039   33.9454   40.6347 H   0  0  0  0  0  0  0  0  0  0  0  0
  1  4  1  0
  2  1  1  0
  3  2  1  0
  3  1  1  0
  4  9  1  0
  5  4  2  0
  5  6  1  0
  6  7  2  0
  7  8  1  0
  9  8  2  0
 10  1  1  0
 11 10  2  0
 12 11  1  0
 13 12  1  0
 13 14  2  0
 14 10  1  0
  2 15  1  0
  2 16  1  0
  3 17  1  0
  3 18  1  0
  5 19  1  0
  6 20  1  0
  8 21  1  0
 13 22  1  0
M  ISO  8  15  13  16  13  17  13  18  13  19  14  20  14  21  14  22  14
M  END
>  <minimizedAffinity>  (1) 
-3.64076209

>  <minimizedRMSD>  (1) 
1.50046694

$$$$
