
     RDKit          3D

 23 24  0  0  0  0  0  0  0  0999 V2000
   45.1760   35.1770   43.1290 C   0  0  0  0  0  0  0  0  0  0  0  0
   44.8050   35.7340   44.4600 C   0  0  0  0  0  0  0  0  0  0  0  0
   44.9530   36.6330   43.3290 C   0  0  0  0  0  0  0  0  0  0  0  0
   46.5210   34.5930   42.9530 C   0  0  0  0  0  0  0  0  0  0  0  0
   47.3270   35.2750   42.0350 C   0  0  0  0  0  0  0  0  0  0  0  0
   48.6310   34.7950   41.7750 C   0  0  0  0  0  0  0  0  0  0  0  0
   49.0280   33.6740   42.4530 N   0  0  0  0  0  0  0  0  0  0  0  0
   48.2060   33.0540   43.3330 C   0  0  0  0  0  0  0  0  0  0  0  0
   46.9680   33.5130   43.5760 N   0  0  0  0  0  0  0  0  0  0  0  0
   44.1450   34.5030   42.2460 C   0  0  0  0  0  0  0  0  0  0  0  0
   43.6850   35.4750   41.1750 C   0  0  0  0  0  0  0  0  0  0  0  0
   43.8063   35.5378   44.8772 H   0  0  0  0  0  0  0  0  0  0  0  0
   45.2397   35.6819   45.4691 H   0  0  0  0  0  0  0  0  0  0  0  0
   45.8049   37.3278   43.2897 H   0  0  0  0  0  0  0  0  0  0  0  0
   44.3103   37.3885   42.8535 H   0  0  0  0  0  0  0  0  0  0  0  0
   46.9510   36.1727   41.5224 H   0  0  0  0  0  0  0  0  0  0  0  0
   49.2970   35.2998   41.0597 H   0  0  0  0  0  0  0  0  0  0  0  0
   48.5602   32.1556   43.8596 H   0  0  0  0  0  0  0  0  0  0  0  0
   44.5919   33.6175   41.7704 H   0  0  0  0  0  0  0  0  0  0  0  0
   43.2836   34.1949   42.8567 H   0  0  0  0  0  0  0  0  0  0  0  0
   43.2608   36.3713   41.6511 H   0  0  0  0  0  0  0  0  0  0  0  0
   44.5422   35.7633   40.5488 H   0  0  0  0  0  0  0  0  0  0  0  0
   42.9186   34.9949   40.5488 H   0  0  0  0  0  0  0  0  0  0  0  0
  1  3  1  0
  1  2  1  0
  3  2  1  0
  4  1  1  0
  4  9  1  0
  5  4  2  0
  6  5  1  0
  6  7  2  0
  7  8  1  0
  8  9  2  0
 10  1  1  0
 11 10  1  0
  2 12  1  0
  2 13  1  0
  3 14  1  0
  3 15  1  0
  5 16  1  0
  6 17  1  0
  8 18  1  0
 10 19  1  0
 10 20  1  0
 11 21  1  0
 11 22  1  0
 11 23  1  0
M  ISO  8  12  13  13  13  14  13  15  13  16  14  17  14  18  14  19   8
M  ISO  4  20   8  21   8  22   8  23   8
M  END
>  <minimizedAffinity>  (1) 
-3.49413371

>  <minimizedRMSD>  (1) 
2.77616358

$$$$
