
     RDKit          3D

 25 27  0  0  0  0  0  0  0  0999 V2000
   45.0570   35.2860   43.1370 C   0  0  0  0  0  0  0  0  0  0  0  0
   44.6770   35.8910   44.4870 C   0  0  0  0  0  0  0  0  0  0  0  0
   44.9400   36.7490   43.3140 C   0  0  0  0  0  0  0  0  0  0  0  0
   46.3730   34.6350   43.0120 C   0  0  0  0  0  0  0  0  0  0  0  0
   47.3480   35.1730   42.1490 C   0  0  0  0  0  0  0  0  0  0  0  0
   48.5880   34.5640   42.0190 C   0  0  0  0  0  0  0  0  0  0  0  0
   48.8020   33.4460   42.7550 N   0  0  0  0  0  0  0  0  0  0  0  0
   47.8530   32.9420   43.5830 C   0  0  0  0  0  0  0  0  0  0  0  0
   46.6530   33.5290   43.7090 N   0  0  0  0  0  0  0  0  0  0  0  0
   44.0300   34.5180   42.6090 O   0  0  0  0  0  0  0  0  0  0  0  0
   43.0990   34.8550   41.6740 C   0  0  0  0  0  0  0  0  0  0  0  0
   41.8200   35.3020   41.5830 C   0  0  0  0  0  0  0  0  0  0  0  0
   41.4740   35.4400   40.2630 C   0  0  0  0  0  0  0  0  0  0  0  0
   42.6160   35.0490   39.5830 C   0  0  0  0  0  0  0  0  0  0  0  0
   43.5590   34.7100   40.4310 O   0  0  0  0  0  0  0  0  0  0  0  0
   43.6530   35.7814   44.8735 H   0  0  0  0  0  0  0  0  0  0  0  0
   45.0670   35.8251   45.5134 H   0  0  0  0  0  0  0  0  0  0  0  0
   45.8450   37.3737   43.2893 H   0  0  0  0  0  0  0  0  0  0  0  0
   44.3705   37.5379   42.8009 H   0  0  0  0  0  0  0  0  0  0  0  0
   47.1244   36.0834   41.5735 H   0  0  0  0  0  0  0  0  0  0  0  0
   49.3612   34.9695   41.3499 H   0  0  0  0  0  0  0  0  0  0  0  0
   48.0717   32.0333   44.1631 H   0  0  0  0  0  0  0  0  0  0  0  0
   41.1621   35.5200   42.4372 H   0  0  0  0  0  0  0  0  0  0  0  0
   40.5160   35.7807   39.8433 H   0  0  0  0  0  0  0  0  0  0  0  0
   42.7180   35.0259   38.4880 H   0  0  0  0  0  0  0  0  0  0  0  0
  1  3  1  0
  1  2  1  0
  3  2  1  0
  4  1  1  0
  4  9  1  0
  5  4  2  0
  6  5  1  0
  6  7  2  0
  7  8  1  0
  8  9  2  0
 10  1  1  0
 11 10  1  0
 12 11  2  0
 13 12  1  0
 14 13  2  0
 14 15  1  0
 15 11  1  0
  2 16  1  0
  2 17  1  0
  3 18  1  0
  3 19  1  0
  5 20  1  0
  6 21  1  0
  8 22  1  0
 12 23  1  0
 13 24  1  0
 14 25  1  0
M  ISO  8  16  13  17  13  18  13  19  13  20  14  21  14  22  14  23  14
M  ISO  2  24  14  25  14
M  END
>  <minimizedAffinity>  (1) 
-4.20995712

>  <minimizedRMSD>  (1) 
3.21385741

$$$$
