
     RDKit          3D

 26 28  0  0  0  0  0  0  0  0999 V2000
   45.1480   35.2000   43.1460 C   0  0  0  0  0  0  0  0  0  0  0  0
   44.8450   35.8070   44.4910 C   0  0  0  0  0  0  0  0  0  0  0  0
   44.9320   36.6400   43.2670 C   0  0  0  0  0  0  0  0  0  0  0  0
   46.5020   34.6390   42.9040 C   0  0  0  0  0  0  0  0  0  0  0  0
   47.3770   35.2600   41.9920 C   0  0  0  0  0  0  0  0  0  0  0  0
   48.6340   34.7520   41.7570 C   0  0  0  0  0  0  0  0  0  0  0  0
   48.9840   33.6310   42.4460 N   0  0  0  0  0  0  0  0  0  0  0  0
   48.1230   33.0520   43.3200 C   0  0  0  0  0  0  0  0  0  0  0  0
   46.8870   33.5400   43.5590 N   0  0  0  0  0  0  0  0  0  0  0  0
   44.1330   34.3110   42.7250 O   0  0  0  0  0  0  0  0  0  0  0  0
   43.3410   34.5760   41.6240 C   0  0  0  0  0  0  0  0  0  0  0  0
   42.1140   35.2360   41.6660 C   0  0  0  0  0  0  0  0  0  0  0  0
   41.4140   35.4390   40.4730 C   0  0  0  0  0  0  0  0  0  0  0  0
   41.9460   34.9890   39.3210 N   0  0  0  0  0  0  0  0  0  0  0  0
   43.1500   34.3480   39.3250 C   0  0  0  0  0  0  0  0  0  0  0  0
   43.8300   34.1460   40.4460 N   0  0  0  0  0  0  0  0  0  0  0  0
   43.8720   35.6296   44.9725 H   0  0  0  0  0  0  0  0  0  0  0  0
   45.3273   35.8090   45.4796 H   0  0  0  0  0  0  0  0  0  0  0  0
   45.7775   37.3315   43.1365 H   0  0  0  0  0  0  0  0  0  0  0  0
   44.2595   37.3601   42.7779 H   0  0  0  0  0  0  0  0  0  0  0  0
   47.0505   36.1653   41.4592 H   0  0  0  0  0  0  0  0  0  0  0  0
   49.3240   35.2293   41.0456 H   0  0  0  0  0  0  0  0  0  0  0  0
   48.4453   32.1473   43.8563 H   0  0  0  0  0  0  0  0  0  0  0  0
   41.7031   35.5914   42.6225 H   0  0  0  0  0  0  0  0  0  0  0  0
   40.4442   35.9580   40.4755 H   0  0  0  0  0  0  0  0  0  0  0  0
   43.5683   33.9889   38.3731 H   0  0  0  0  0  0  0  0  0  0  0  0
  1  3  1  0
  1  2  1  0
  3  2  1  0
  4  1  1  0
  4  9  1  0
  5  4  2  0
  6  5  1  0
  6  7  2  0
  7  8  1  0
  8  9  2  0
 10  1  1  0
 11 12  2  0
 11 10  1  0
 13 12  1  0
 14 15  1  0
 14 13  2  0
 15 16  2  0
 16 11  1  0
  2 17  1  0
  2 18  1  0
  3 19  1  0
  3 20  1  0
  5 21  1  0
  6 22  1  0
  8 23  1  0
 12 24  1  0
 13 25  1  0
 15 26  1  0
M  ISO  8  17  13  18  13  19  13  20  13  21  14  22  14  23  14  24  14
M  ISO  2  25  14  26  14
M  END
>  <minimizedAffinity>  (1) 
-4.18878603

>  <minimizedRMSD>  (1) 
3.76015019

$$$$
