
     RDKit          3D

 25 27  0  0  0  0  0  0  0  0999 V2000
   45.2050   34.6150   43.2430 C   0  0  0  0  0  0  0  0  0  0  0  0
   45.0460   36.0950   43.5030 C   0  0  0  0  0  0  0  0  0  0  0  0
   46.0400   35.6000   42.5360 C   0  0  0  0  0  0  0  0  0  0  0  0
   45.7730   33.7690   44.3310 C   0  0  0  0  0  0  0  0  0  0  0  0
   46.7540   32.7960   44.0230 C   0  0  0  0  0  0  0  0  0  0  0  0
   47.2930   32.0030   45.0120 C   0  0  0  0  0  0  0  0  0  0  0  0
   46.8390   32.2050   46.2820 N   0  0  0  0  0  0  0  0  0  0  0  0
   45.8990   33.1470   46.5440 C   0  0  0  0  0  0  0  0  0  0  0  0
   45.3630   33.9280   45.5820 N   0  0  0  0  0  0  0  0  0  0  0  0
   44.0790   34.0320   42.6660 O   0  0  0  0  0  0  0  0  0  0  0  0
   43.1340   34.6550   41.8890 C   0  0  0  0  0  0  0  0  0  0  0  0
   43.1760   34.6350   40.4950 C   0  0  0  0  0  0  0  0  0  0  0  0
   42.1290   35.3250   39.9680 N   0  0  0  0  0  0  0  0  0  0  0  0
   41.4190   35.7840   41.0260 C   0  0  0  0  0  0  0  0  0  0  0  0
   42.0320   35.3780   42.1550 N   0  0  0  0  0  0  0  0  0  0  0  0
   44.1485   36.6245   43.1506 H   0  0  0  0  0  0  0  0  0  0  0  0
   45.0736   36.7410   44.3929 H   0  0  0  0  0  0  0  0  0  0  0  0
   47.1122   35.6739   42.7703 H   0  0  0  0  0  0  0  0  0  0  0  0
   46.2499   35.8085   41.4765 H   0  0  0  0  0  0  0  0  0  0  0  0
   47.0895   32.6719   42.9828 H   0  0  0  0  0  0  0  0  0  0  0  0
   48.0547   31.2417   44.7877 H   0  0  0  0  0  0  0  0  0  0  0  0
   45.5598   33.2800   47.5819 H   0  0  0  0  0  0  0  0  0  0  0  0
   43.9517   34.1291   39.9015 H   0  0  0  0  0  0  0  0  0  0  0  0
   40.4994   36.3853   40.9727 H   0  0  0  0  0  0  0  0  0  0  0  0
   41.6977   35.5948   43.1048 H   0  0  0  0  0  0  0  0  0  0  0  0
  1  2  1  0
  1  4  1  0
  3  1  1  0
  3  2  1  0
  4  9  1  0
  5  4  2  0
  5  6  1  0
  6  7  2  0
  7  8  1  0
  9  8  2  0
 10  1  1  0
 11 15  1  0
 11 10  1  0
 12 11  2  0
 13 12  1  0
 13 14  2  0
 14 15  1  0
  2 16  1  0
  2 17  1  0
  3 18  1  0
  3 19  1  0
  5 20  1  0
  6 21  1  0
  8 22  1  0
 12 23  1  0
 14 24  1  0
 15 25  1  0
M  ISO  8  16  13  17  13  18  13  19  13  20  14  21  14  22  14  23  14
M  ISO  2  24  14  25   9
M  END
>  <minimizedAffinity>  (1) 
-4.10677052

>  <minimizedRMSD>  (1) 
0.384917408

$$$$
