
     RDKit          3D

 24 26  0  0  0  0  0  0  0  0999 V2000
   45.0400   35.3030   43.1880 C   0  0  0  0  0  0  0  0  0  0  0  0
   44.7060   35.9180   44.5390 C   0  0  0  0  0  0  0  0  0  0  0  0
   44.9610   36.7650   43.3720 C   0  0  0  0  0  0  0  0  0  0  0  0
   46.3610   34.6210   43.0620 C   0  0  0  0  0  0  0  0  0  0  0  0
   47.3270   35.1680   42.1650 C   0  0  0  0  0  0  0  0  0  0  0  0
   48.5550   34.5620   42.0250 C   0  0  0  0  0  0  0  0  0  0  0  0
   48.7960   33.4490   42.7620 N   0  0  0  0  0  0  0  0  0  0  0  0
   47.8490   32.9490   43.6140 C   0  0  0  0  0  0  0  0  0  0  0  0
   46.6550   33.5310   43.7540 N   0  0  0  0  0  0  0  0  0  0  0  0
   44.0080   34.5200   42.6970 O   0  0  0  0  0  0  0  0  0  0  0  0
   43.2150   34.7680   41.5860 C   0  0  0  0  0  0  0  0  0  0  0  0
   43.7100   34.4060   40.2770 C   0  0  0  0  0  0  0  0  0  0  0  0
   42.2350   34.9760   39.2550 S   0  0  0  0  0  0  0  0  0  0  0  0
   41.2890   35.5660   40.7790 C   0  0  0  0  0  0  0  0  0  0  0  0
   42.0380   35.3240   41.7560 N   0  0  0  0  0  0  0  0  0  0  0  0
   43.6884   35.8331   44.9480 H   0  0  0  0  0  0  0  0  0  0  0  0
   45.1177   35.8428   45.5563 H   0  0  0  0  0  0  0  0  0  0  0  0
   45.8796   37.3686   43.3289 H   0  0  0  0  0  0  0  0  0  0  0  0
   44.3985   37.5683   42.8737 H   0  0  0  0  0  0  0  0  0  0  0  0
   47.0904   36.0729   41.5861 H   0  0  0  0  0  0  0  0  0  0  0  0
   49.3144   34.9662   41.3394 H   0  0  0  0  0  0  0  0  0  0  0  0
   48.0768   32.0452   44.1981 H   0  0  0  0  0  0  0  0  0  0  0  0
   44.6584   33.9400   39.9714 H   0  0  0  0  0  0  0  0  0  0  0  0
   40.2900   36.0258   40.8048 H   0  0  0  0  0  0  0  0  0  0  0  0
  1  3  1  0
  1  2  1  0
  3  2  1  0
  4  1  1  0
  4  9  1  0
  5  4  2  0
  6  5  1  0
  6  7  2  0
  7  8  1  0
  8  9  2  0
 10  1  1  0
 11 15  1  0
 11 10  1  0
 12 11  2  0
 13 12  1  0
 13 14  1  0
 14 15  2  0
  2 16  1  0
  2 17  1  0
  3 18  1  0
  3 19  1  0
  5 20  1  0
  6 21  1  0
  8 22  1  0
 12 23  1  0
 14 24  1  0
M  ISO  8  16  13  17  13  18  13  19  13  20  14  21  14  22  14  23  14
M  ISO  1  24  14
M  END
>  <minimizedAffinity>  (1) 
-4.0862546

>  <minimizedRMSD>  (1) 
3.10658121

$$$$
