
     RDKit          3D

 22 23  0  0  0  0  0  0  0  0999 V2000
   46.4620   34.4720   42.1570 C   0  0  0  0  0  0  0  0  0  0  0  0
   47.7170   35.2780   41.8480 C   0  0  0  0  0  0  0  0  0  0  0  0
   47.7790   33.8300   42.0560 C   0  0  0  0  0  0  0  0  0  0  0  0
   45.8210   34.7070   43.4780 C   0  0  0  0  0  0  0  0  0  0  0  0
   46.0070   33.7520   44.5120 C   0  0  0  0  0  0  0  0  0  0  0  0
   45.4300   33.9360   45.7490 C   0  0  0  0  0  0  0  0  0  0  0  0
   44.6840   35.0650   45.9200 N   0  0  0  0  0  0  0  0  0  0  0  0
   44.5250   35.9620   44.9080 C   0  0  0  0  0  0  0  0  0  0  0  0
   45.0880   35.7830   43.7060 N   0  0  0  0  0  0  0  0  0  0  0  0
   45.5440   34.5000   41.1140 O   0  0  0  0  0  0  0  0  0  0  0  0
   44.1820   34.5850   41.1860 C   0  0  0  0  0  0  0  0  0  0  0  0
   43.5150   33.5390   41.8600 N   0  0  0  0  0  0  0  0  0  0  0  0
   43.5400   35.5370   40.6860 O   0  0  0  0  0  0  0  0  0  0  0  0
   48.1336   35.9633   42.6009 H   0  0  0  0  0  0  0  0  0  0  0  0
   48.0286   35.9702   41.0519 H   0  0  0  0  0  0  0  0  0  0  0  0
   47.9963   33.1682   41.2046 H   0  0  0  0  0  0  0  0  0  0  0  0
   48.3635   33.1801   42.7238 H   0  0  0  0  0  0  0  0  0  0  0  0
   46.6177   32.8567   44.3234 H   0  0  0  0  0  0  0  0  0  0  0  0
   45.5645   33.2064   46.5612 H   0  0  0  0  0  0  0  0  0  0  0  0
   43.9157   36.8609   45.0830 H   0  0  0  0  0  0  0  0  0  0  0  0
   42.4885   33.5525   41.9439 H   0  0  0  0  0  0  0  0  0  0  0  0
   44.0549   32.7624   42.2678 H   0  0  0  0  0  0  0  0  0  0  0  0
  1  4  1  0
  2  3  1  0
  2  1  1  0
  3  1  1  0
  4  9  1  0
  4  5  2  0
  5  6  1  0
  6  7  2  0
  8  7  1  0
  9  8  2  0
 10 11  1  0
 10  1  1  0
 11 12  1  0
 13 11  2  0
  2 14  1  0
  2 15  1  0
  3 16  1  0
  3 17  1  0
  5 18  1  0
  6 19  1  0
  8 20  1  0
 12 21  1  0
 12 22  1  0
M  ISO  7  14  13  15  13  16  13  17  13  18  14  19  14  20  14
M  END
>  <minimizedAffinity>  (1) 
-4.02259445

>  <minimizedRMSD>  (1) 
2.73338103

$$$$
