
     RDKit          3D

 21 22  0  0  0  0  0  0  0  0999 V2000
   45.9960   34.9290   42.6070 C   0  0  0  0  0  0  0  0  0  0  0  0
   47.3730   35.2910   42.0840 C   0  0  0  0  0  0  0  0  0  0  0  0
   46.6340   34.1470   41.5320 C   0  0  0  0  0  0  0  0  0  0  0  0
   45.8780   34.3830   43.9710 C   0  0  0  0  0  0  0  0  0  0  0  0
   46.6560   33.2760   44.3730 C   0  0  0  0  0  0  0  0  0  0  0  0
   46.5430   32.7680   45.6520 C   0  0  0  0  0  0  0  0  0  0  0  0
   45.6720   33.3640   46.4870 N   0  0  0  0  0  0  0  0  0  0  0  0
   44.9210   34.4400   46.0830 C   0  0  0  0  0  0  0  0  0  0  0  0
   45.0280   34.9400   44.8370 N   0  0  0  0  0  0  0  0  0  0  0  0
   45.0620   35.9340   42.3490 O   0  0  0  0  0  0  0  0  0  0  0  0
   43.8000   35.5730   41.8350 C   0  0  0  0  0  0  0  0  0  0  0  0
   43.5660   35.3200   40.6260 O   0  0  0  0  0  0  0  0  0  0  0  0
   42.7830   35.5090   42.7910 O   0  0  0  0  0  0  0  0  0  0  0  0
   47.5135   36.2005   41.4815 H   0  0  0  0  0  0  0  0  0  0  0  0
   48.3667   35.4384   42.5321 H   0  0  0  0  0  0  0  0  0  0  0  0
   46.2334   34.2002   40.5089 H   0  0  0  0  0  0  0  0  0  0  0  0
   46.8651   33.0803   41.3948 H   0  0  0  0  0  0  0  0  0  0  0  0
   47.3574   32.8146   43.6622 H   0  0  0  0  0  0  0  0  0  0  0  0
   47.1441   31.9060   45.9771 H   0  0  0  0  0  0  0  0  0  0  0  0
   44.2179   34.9029   46.7911 H   0  0  0  0  0  0  0  0  0  0  0  0
   41.8633   35.2630   42.5196 H   0  0  0  0  0  0  0  0  0  0  0  0
  1  4  1  0
  2  1  1  0
  3  2  1  0
  3  1  1  0
  4  5  2  0
  4  9  1  0
  5  6  1  0
  6  7  2  0
  8  7  1  0
  9  8  2  0
 10  1  1  0
 11 10  1  0
 11 13  1  0
 12 11  2  0
  2 14  1  0
  2 15  1  0
  3 16  1  0
  3 17  1  0
  5 18  1  0
  6 19  1  0
  8 20  1  0
 13 21  1  0
M  ISO  8  14  13  15  13  16  13  17  13  18  14  19  14  20  14  21   3
M  END
>  <minimizedAffinity>  (1) 
-4.00529432

>  <minimizedRMSD>  (1) 
2.01007724

$$$$
