
     RDKit          3D

 21 22  0  0  0  0  0  0  0  0999 V2000
   45.1170   35.1570   43.2280 C   0  0  0  0  0  0  0  0  0  0  0  0
   44.7250   35.5450   44.6320 C   0  0  0  0  0  0  0  0  0  0  0  0
   44.8670   36.5560   43.5670 C   0  0  0  0  0  0  0  0  0  0  0  0
   46.4830   34.6490   42.9930 C   0  0  0  0  0  0  0  0  0  0  0  0
   47.3860   35.3960   42.1950 C   0  0  0  0  0  0  0  0  0  0  0  0
   48.6610   34.9410   41.9580 C   0  0  0  0  0  0  0  0  0  0  0  0
   49.0020   33.7470   42.5280 N   0  0  0  0  0  0  0  0  0  0  0  0
   48.1170   33.0440   43.2940 C   0  0  0  0  0  0  0  0  0  0  0  0
   46.8740   33.4910   43.5220 N   0  0  0  0  0  0  0  0  0  0  0  0
   44.1430   34.3350   42.6220 O   0  0  0  0  0  0  0  0  0  0  0  0
   43.7960   34.7970   41.3610 C   0  0  0  0  0  0  0  0  0  0  0  0
   42.5600   34.3860   40.9290 F   0  0  0  0  0  0  0  0  0  0  0  0
   43.9200   36.1780   41.3760 F   0  0  0  0  0  0  0  0  0  0  0  0
   44.7740   34.3140   40.5000 F   0  0  0  0  0  0  0  0  0  0  0  0
   43.7290   35.2860   45.0205 H   0  0  0  0  0  0  0  0  0  0  0  0
   45.1494   35.3962   45.6359 H   0  0  0  0  0  0  0  0  0  0  0  0
   45.7056   37.2671   43.5991 H   0  0  0  0  0  0  0  0  0  0  0  0
   44.2097   37.3382   43.1595 H   0  0  0  0  0  0  0  0  0  0  0  0
   47.0617   36.3527   41.7597 H   0  0  0  0  0  0  0  0  0  0  0  0
   49.3715   35.5097   41.3402 H   0  0  0  0  0  0  0  0  0  0  0  0
   48.4319   32.0868   43.7351 H   0  0  0  0  0  0  0  0  0  0  0  0
  1  3  1  0
  1  2  1  0
  3  2  1  0
  4  1  1  0
  4  9  1  0
  5  4  2  0
  6  5  1  0
  6  7  2  0
  7  8  1  0
  8  9  2  0
 10  1  1  0
 11 13  1  0
 11 10  1  0
 12 11  1  0
 14 11  1  0
  2 15  1  0
  2 16  1  0
  3 17  1  0
  3 18  1  0
  5 19  1  0
  6 20  1  0
  8 21  1  0
M  ISO  7  15  13  16  13  17  13  18  13  19  14  20  14  21  14
M  END
>  <minimizedAffinity>  (1) 
-3.86442637

>  <minimizedRMSD>  (1) 
3.00640655

$$$$
