
     RDKit          3D

 25 27  0  0  0  0  0  0  0  0999 V2000
   45.0540   35.4410   43.1930 C   0  0  0  0  0  0  0  0  0  0  0  0
   44.6470   35.9300   44.5780 C   0  0  0  0  0  0  0  0  0  0  0  0
   45.0060   36.8670   43.4910 C   0  0  0  0  0  0  0  0  0  0  0  0
   46.3410   34.7000   43.0780 C   0  0  0  0  0  0  0  0  0  0  0  0
   47.3180   35.1720   42.1770 C   0  0  0  0  0  0  0  0  0  0  0  0
   48.5190   34.5130   42.0360 C   0  0  0  0  0  0  0  0  0  0  0  0
   48.7170   33.4020   42.7970 N   0  0  0  0  0  0  0  0  0  0  0  0
   47.7580   32.9720   43.6550 C   0  0  0  0  0  0  0  0  0  0  0  0
   46.5860   33.6080   43.7980 N   0  0  0  0  0  0  0  0  0  0  0  0
   44.0130   34.7510   42.5720 O   0  0  0  0  0  0  0  0  0  0  0  0
   43.7080   35.4180   41.3890 C   0  0  0  0  0  0  0  0  0  0  0  0
   42.2450   35.3700   40.9240 C   0  0  0  0  0  0  0  0  0  0  0  0
   43.3050   34.6200   40.2050 C   0  0  0  0  0  0  0  0  0  0  0  0
   43.6030   35.8422   44.9133 H   0  0  0  0  0  0  0  0  0  0  0  0
   44.9854   35.7507   45.6092 H   0  0  0  0  0  0  0  0  0  0  0  0
   45.9428   37.4400   43.5555 H   0  0  0  0  0  0  0  0  0  0  0  0
   44.5002   37.7265   43.0269 H   0  0  0  0  0  0  0  0  0  0  0  0
   47.1188   36.0750   41.5813 H   0  0  0  0  0  0  0  0  0  0  0  0
   49.2883   34.8705   41.3357 H   0  0  0  0  0  0  0  0  0  0  0  0
   47.9485   32.0697   44.2546 H   0  0  0  0  0  0  0  0  0  0  0  0
   44.4581   36.2004   41.5763 H   0  0  0  0  0  0  0  0  0  0  0  0
   41.4928   34.8314   41.5190 H   0  0  0  0  0  0  0  0  0  0  0  0
   41.4850   36.1152   40.6462 H   0  0  0  0  0  0  0  0  0  0  0  0
   43.3245   33.5214   40.2578 H   0  0  0  0  0  0  0  0  0  0  0  0
   43.6394   34.5850   39.1576 H   0  0  0  0  0  0  0  0  0  0  0  0
  1  3  1  0
  1  2  1  0
  3  2  1  0
  4  1  1  0
  4  9  1  0
  5  4  2  0
  6  5  1  0
  6  7  2  0
  7  8  1  0
  8  9  2  0
 10  1  1  0
 11 10  1  0
 12 11  1  0
 13 12  1  0
 13 11  1  0
  2 14  1  0
  2 15  1  0
  3 16  1  0
  3 17  1  0
  5 18  1  0
  6 19  1  0
  8 20  1  0
 11 21  1  0
 12 22  1  0
 12 23  1  0
 13 24  1  0
 13 25  1  0
M  ISO  8  14  13  15  13  16  13  17  13  18  14  19  14  20  14  21  13
M  ISO  4  22  13  23  13  24  13  25  13
M  END
>  <minimizedAffinity>  (1) 
-3.80580497

>  <minimizedRMSD>  (1) 
3.06451035

$$$$
