
     RDKit          3D

 23 25  0  0  0  0  0  0  0  0999 V2000
   44.9770   34.9640   43.5650 C   0  0  0  0  0  0  0  0  0  0  0  0
   44.7040   36.3320   44.1530 C   0  0  0  0  0  0  0  0  0  0  0  0
   45.6230   36.1460   43.0120 C   0  0  0  0  0  0  0  0  0  0  0  0
   45.6800   33.9690   44.4020 C   0  0  0  0  0  0  0  0  0  0  0  0
   46.6310   33.1120   43.7660 C   0  0  0  0  0  0  0  0  0  0  0  0
   47.3170   32.1650   44.5010 C   0  0  0  0  0  0  0  0  0  0  0  0
   47.0510   32.0910   45.8230 N   0  0  0  0  0  0  0  0  0  0  0  0
   46.1310   32.9280   46.4060 C   0  0  0  0  0  0  0  0  0  0  0  0
   45.4590   33.8550   45.6950 N   0  0  0  0  0  0  0  0  0  0  0  0
   43.8050   34.4100   43.0000 O   0  0  0  0  0  0  0  0  0  0  0  0
   43.4770   34.5240   41.6640 C   0  0  0  0  0  0  0  0  0  0  0  0
   44.0930   33.7260   40.7430 N   0  0  0  0  0  0  0  0  0  0  0  0
   43.6340   34.0030   39.5580 O   0  0  0  0  0  0  0  0  0  0  0  0
   42.7310   34.9570   39.6420 C   0  0  0  0  0  0  0  0  0  0  0  0
   42.6300   35.2850   40.9470 N   0  0  0  0  0  0  0  0  0  0  0  0
   43.7265   36.8144   44.0051 H   0  0  0  0  0  0  0  0  0  0  0  0
   44.7703   36.7878   45.1519 H   0  0  0  0  0  0  0  0  0  0  0  0
   46.7039   36.2921   43.1547 H   0  0  0  0  0  0  0  0  0  0  0  0
   45.6885   36.5809   42.0037 H   0  0  0  0  0  0  0  0  0  0  0  0
   46.8174   33.2072   42.6861 H   0  0  0  0  0  0  0  0  0  0  0  0
   48.0517   31.4968   44.0279 H   0  0  0  0  0  0  0  0  0  0  0  0
   45.9370   32.8390   47.4851 H   0  0  0  0  0  0  0  0  0  0  0  0
   42.1671   35.4014   38.8086 H   0  0  0  0  0  0  0  0  0  0  0  0
  1  2  1  0
  1  4  1  0
  3  1  1  0
  3  2  1  0
  4  9  1  0
  5  4  2  0
  5  6  1  0
  6  7  2  0
  7  8  1  0
  9  8  2  0
 10  1  1  0
 11 10  1  0
 12 11  2  0
 13 14  1  0
 13 12  1  0
 14 15  2  0
 15 11  1  0
  2 16  1  0
  2 17  1  0
  3 18  1  0
  3 19  1  0
  5 20  1  0
  6 21  1  0
  8 22  1  0
 14 23  1  0
M  ISO  8  16  13  17  13  18  13  19  13  20  14  21  14  22  14  23  14
M  END
>  <minimizedAffinity>  (1) 
-3.62892604

>  <minimizedRMSD>  (1) 
1.00336385

$$$$
