
     RDKit          3D

 30 31  0  0  0  0  0  0  0  0999 V2000
   44.9900   34.8690   43.5190 C   0  0  0  0  0  0  0  0  0  0  0  0
   44.6910   36.2580   44.0960 C   0  0  0  0  0  0  0  0  0  0  0  0
   45.6800   36.0940   43.0390 C   0  0  0  0  0  0  0  0  0  0  0  0
   45.7130   33.9090   44.3800 C   0  0  0  0  0  0  0  0  0  0  0  0
   46.6930   33.0620   43.8260 C   0  0  0  0  0  0  0  0  0  0  0  0
   47.3380   32.1560   44.6710 C   0  0  0  0  0  0  0  0  0  0  0  0
   46.9940   32.1310   45.9810 N   0  0  0  0  0  0  0  0  0  0  0  0
   46.0430   32.9660   46.4730 C   0  0  0  0  0  0  0  0  0  0  0  0
   45.4170   33.8360   45.6830 N   0  0  0  0  0  0  0  0  0  0  0  0
   43.9100   34.3540   42.8730 O   0  0  0  0  0  0  0  0  0  0  0  0
   43.7800   34.2690   41.5540 C   0  0  0  0  0  0  0  0  0  0  0  0
   42.9670   32.9590   41.3170 C   0  0  0  0  0  0  0  0  0  0  0  0
   45.0770   34.0000   40.8210 C   0  0  0  0  0  0  0  0  0  0  0  0
   42.9710   35.3500   40.8840 C   0  0  0  0  0  0  0  0  0  0  0  0
   43.7306   36.7493   43.8810 H   0  0  0  0  0  0  0  0  0  0  0  0
   44.6904   36.7016   45.1026 H   0  0  0  0  0  0  0  0  0  0  0  0
   46.7462   36.2401   43.2669 H   0  0  0  0  0  0  0  0  0  0  0  0
   45.8174   36.5511   42.0479 H   0  0  0  0  0  0  0  0  0  0  0  0
   46.9436   33.1128   42.7561 H   0  0  0  0  0  0  0  0  0  0  0  0
   48.1098   31.4764   44.2806 H   0  0  0  0  0  0  0  0  0  0  0  0
   45.7856   32.9230   47.5416 H   0  0  0  0  0  0  0  0  0  0  0  0
   42.6928   32.5172   42.2863 H   0  0  0  0  0  0  0  0  0  0  0  0
   42.0543   33.1916   40.7488 H   0  0  0  0  0  0  0  0  0  0  0  0
   43.5806   32.2444   40.7488 H   0  0  0  0  0  0  0  0  0  0  0  0
   45.8828   33.8329   41.5509 H   0  0  0  0  0  0  0  0  0  0  0  0
   44.9629   33.1064   40.1898 H   0  0  0  0  0  0  0  0  0  0  0  0
   45.3277   34.8653   40.1898 H   0  0  0  0  0  0  0  0  0  0  0  0
   42.4980   35.9820   41.6500 H   0  0  0  0  0  0  0  0  0  0  0  0
   43.6314   35.9666   40.2565 H   0  0  0  0  0  0  0  0  0  0  0  0
   42.1932   34.8903   40.2565 H   0  0  0  0  0  0  0  0  0  0  0  0
  1  2  1  0
  1  4  1  0
  3  1  1  0
  3  2  1  0
  4  9  1  0
  5  4  2  0
  5  6  1  0
  6  7  2  0
  7  8  1  0
  9  8  2  0
 10  1  1  0
 11 10  1  0
 12 11  1  0
 13 11  1  0
 14 11  1  0
  2 15  1  0
  2 16  1  0
  3 17  1  0
  3 18  1  0
  5 19  1  0
  6 20  1  0
  8 21  1  0
 12 22  1  0
 12 23  1  0
 12 24  1  0
 13 25  1  0
 13 26  1  0
 13 27  1  0
 14 28  1  0
 14 29  1  0
 14 30  1  0
M  ISO  8  15  13  16  13  17  13  18  13  19  14  20  14  21  14  22   8
M  ISO  8  23   8  24   8  25   8  26   8  27   8  28   8  29   8  30   8
M  END
>  <minimizedAffinity>  (1) 
-3.59465551

>  <minimizedRMSD>  (1) 
1.276878

$$$$
