
     RDKit          3D

 35 37  0  0  0  0  0  0  0  0999 V2000
   43.0610   35.0420   40.4270 C   0  0  0  0  0  0  0  0  0  0  0  0
   42.1900   35.0940   39.3760 C   0  0  0  0  0  0  0  0  0  0  0  0
   40.8740   35.4010   39.5160 C   0  0  0  0  0  0  0  0  0  0  0  0
   40.3700   35.6770   40.7750 C   0  0  0  0  0  0  0  0  0  0  0  0
   41.2070   35.6370   41.8620 C   0  0  0  0  0  0  0  0  0  0  0  0
   42.5810   35.3120   41.6780 C   0  0  0  0  0  0  0  0  0  0  0  0
   43.0250   35.5260   43.0120 N   0  0  0  0  0  0  0  0  0  0  0  0
   44.1590   35.8820   43.7630 C   0  0  0  0  0  0  0  0  0  0  0  0
   44.8560   36.6600   42.9630 N   0  0  0  0  0  0  0  0  0  0  0  0
   44.2290   35.3400   45.1060 N   0  0  0  0  0  0  0  0  0  0  0  0
   45.7450   37.0970   43.1950 H   0  0  0  0  0  0  0  0  0  0  0  0
   44.3740   34.7600   40.4720 O   0  0  0  0  0  0  0  0  0  0  0  0
   45.0720   33.5870   40.7420 C   0  0  0  0  0  0  0  0  0  0  0  0
   45.2750   32.6990   39.5220 C   0  0  0  0  0  0  0  0  0  0  0  0
   44.4620   32.2560   40.6640 C   0  0  0  0  0  0  0  0  0  0  0  0
   46.2530   33.8270   41.5960 C   0  0  0  0  0  0  0  0  0  0  0  0
   46.4750   33.0480   42.7410 C   0  0  0  0  0  0  0  0  0  0  0  0
   47.5760   33.2910   43.5510 C   0  0  0  0  0  0  0  0  0  0  0  0
   48.4110   34.2950   43.1930 N   0  0  0  0  0  0  0  0  0  0  0  0
   48.1800   35.0410   42.0750 C   0  0  0  0  0  0  0  0  0  0  0  0
   47.1180   34.7790   41.3270 N   0  0  0  0  0  0  0  0  0  0  0  0
   42.5726   34.8769   38.3678 H   0  0  0  0  0  0  0  0  0  0  0  0
   40.2146   35.4300   38.6360 H   0  0  0  0  0  0  0  0  0  0  0  0
   39.3064   35.9266   40.9036 H   0  0  0  0  0  0  0  0  0  0  0  0
   40.8191   35.8545   42.8681 H   0  0  0  0  0  0  0  0  0  0  0  0
   42.2375   35.3623   43.6554 H   0  0  0  0  0  0  0  0  0  0  0  0
   45.0336   35.5618   45.7096 H   0  0  0  0  0  0  0  0  0  0  0  0
   43.4741   34.7332   45.4564 H   0  0  0  0  0  0  0  0  0  0  0  0
   46.2554   32.2392   39.3288 H   0  0  0  0  0  0  0  0  0  0  0  0
   45.1166   32.8041   38.4385 H   0  0  0  0  0  0  0  0  0  0  0  0
   43.3717   32.1641   40.5512 H   0  0  0  0  0  0  0  0  0  0  0  0
   44.4795   31.3693   41.3148 H   0  0  0  0  0  0  0  0  0  0  0  0
   45.7735   32.2408   42.9984 H   0  0  0  0  0  0  0  0  0  0  0  0
   47.7635   32.6889   44.4523 H   0  0  0  0  0  0  0  0  0  0  0  0
   48.8686   35.8524   41.7968 H   0  0  0  0  0  0  0  0  0  0  0  0
  1 12  1  0
  1  6  2  0
  2  3  2  0
  2  1  1  0
  3  4  1  0
  4  5  2  0
  6  5  1  0
  6  7  1  0
  7  8  1  0
  8 10  1  0
  9 11  1  0
  9  8  2  0
 12 13  1  0
 13 16  1  0
 14 15  1  0
 14 13  1  0
 15 13  1  0
 16 17  2  0
 17 18  1  0
 19 18  2  0
 20 19  1  0
 21 16  1  0
 21 20  2  0
  2 22  1  0
  3 23  1  0
  4 24  1  0
  5 25  1  0
  7 26  1  0
 10 27  1  0
 10 28  1  0
 14 29  1  0
 14 30  1  0
 15 31  1  0
 15 32  1  0
 17 33  1  0
 18 34  1  0
 20 35  1  0
M  ISO  8  22  14  23  14  24  14  25  14  29  13  30  13  31  13  32  13
M  ISO  3  33  14  34  14  35  14
M  END
>  <minimizedAffinity>  (1) 
-5.64180946

>  <minimizedRMSD>  (1) 
2.22715425

$$$$
