
     RDKit          3D

 29 31  0  0  0  0  0  0  0  0999 V2000
   44.6650   34.4360   41.5110 C   0  0  0  0  0  0  0  0  0  0  0  0
   45.9440   34.2360   40.7140 C   0  0  0  0  0  0  0  0  0  0  0  0
   44.9520   33.1580   40.8330 C   0  0  0  0  0  0  0  0  0  0  0  0
   44.8050   34.5450   42.9780 C   0  0  0  0  0  0  0  0  0  0  0  0
   45.3350   33.4760   43.7300 C   0  0  0  0  0  0  0  0  0  0  0  0
   45.4620   33.5710   45.1110 C   0  0  0  0  0  0  0  0  0  0  0  0
   45.0510   34.7370   45.6860 N   0  0  0  0  0  0  0  0  0  0  0  0
   44.5430   35.7580   44.9440 C   0  0  0  0  0  0  0  0  0  0  0  0
   44.4390   35.6280   43.6310 N   0  0  0  0  0  0  0  0  0  0  0  0
   43.8400   35.4310   40.9850 O   0  0  0  0  0  0  0  0  0  0  0  0
   42.5800   35.3160   40.4470 C   0  0  0  0  0  0  0  0  0  0  0  0
   42.2180   35.1090   39.1190 C   0  0  0  0  0  0  0  0  0  0  0  0
   40.9180   35.0130   38.7440 C   0  0  0  0  0  0  0  0  0  0  0  0
   39.9320   35.1200   39.6740 C   0  0  0  0  0  0  0  0  0  0  0  0
   40.2540   35.3250   40.9920 C   0  0  0  0  0  0  0  0  0  0  0  0
   41.5750   35.4240   41.3860 C   0  0  0  0  0  0  0  0  0  0  0  0
   41.5710   35.6300   42.7650 O   0  0  0  0  0  0  0  0  0  0  0  0
   46.9111   34.1566   41.2320 H   0  0  0  0  0  0  0  0  0  0  0  0
   46.4372   34.7579   39.8808 H   0  0  0  0  0  0  0  0  0  0  0  0
   44.3602   32.8639   39.9536 H   0  0  0  0  0  0  0  0  0  0  0  0
   44.9973   32.1099   41.1639 H   0  0  0  0  0  0  0  0  0  0  0  0
   45.6518   32.5557   43.2174 H   0  0  0  0  0  0  0  0  0  0  0  0
   45.8739   32.7459   45.7106 H   0  0  0  0  0  0  0  0  0  0  0  0
   44.2198   36.6884   45.4337 H   0  0  0  0  0  0  0  0  0  0  0  0
   43.0049   35.0212   38.3554 H   0  0  0  0  0  0  0  0  0  0  0  0
   40.6614   34.8485   37.6871 H   0  0  0  0  0  0  0  0  0  0  0  0
   38.8776   35.0423   39.3703 H   0  0  0  0  0  0  0  0  0  0  0  0
   39.4536   35.4113   41.7416 H   0  0  0  0  0  0  0  0  0  0  0  0
   40.7127   35.6758   43.2562 H   0  0  0  0  0  0  0  0  0  0  0  0
  1  4  1  0
  2  3  1  0
  2  1  1  0
  3  1  1  0
  4  9  1  0
  4  5  2  0
  5  6  1  0
  6  7  2  0
  8  7  1  0
  9  8  2  0
 10  1  1  0
 11 10  1  0
 11 16  1  0
 12 11  2  0
 13 12  1  0
 13 14  2  0
 14 15  1  0
 15 16  2  0
 16 17  1  0
  2 18  1  0
  2 19  1  0
  3 20  1  0
  3 21  1  0
  5 22  1  0
  6 23  1  0
  8 24  1  0
 12 25  1  0
 13 26  1  0
 14 27  1  0
 15 28  1  0
 17 29  1  0
M  ISO  8  18  13  19  13  20  13  21  13  22  14  23  14  24  14  25  14
M  ISO  4  26  14  27  14  28  14  29   3
M  END
>  <minimizedAffinity>  (1) 
-5.5585556

>  <minimizedRMSD>  (1) 
0.0915844738

$$$$
