
     RDKit          3D

 31 33  0  0  0  0  0  0  0  0999 V2000
   43.5390   34.1640   41.0530 C   0  0  0  0  0  0  0  0  0  0  0  0
   44.5190   33.9210   39.9160 C   0  0  0  0  0  0  0  0  0  0  0  0
   43.6610   32.8360   40.4080 C   0  0  0  0  0  0  0  0  0  0  0  0
   44.1270   34.3650   42.3870 C   0  0  0  0  0  0  0  0  0  0  0  0
   44.7920   33.3070   43.0710 C   0  0  0  0  0  0  0  0  0  0  0  0
   45.3320   33.4920   44.3350 C   0  0  0  0  0  0  0  0  0  0  0  0
   45.1880   34.7370   44.8780 N   0  0  0  0  0  0  0  0  0  0  0  0
   44.5420   35.7430   44.2000 C   0  0  0  0  0  0  0  0  0  0  0  0
   44.0480   35.5110   42.9980 N   0  0  0  0  0  0  0  0  0  0  0  0
   42.5500   35.1130   40.7680 O   0  0  0  0  0  0  0  0  0  0  0  0
   41.6000   35.0450   39.7540 C   0  0  0  0  0  0  0  0  0  0  0  0
   41.6910   35.5370   38.4450 C   0  0  0  0  0  0  0  0  0  0  0  0
   40.7010   35.3860   37.5470 C   0  0  0  0  0  0  0  0  0  0  0  0
   39.6030   34.7390   37.9560 C   0  0  0  0  0  0  0  0  0  0  0  0
   39.4680   34.2520   39.2090 C   0  0  0  0  0  0  0  0  0  0  0  0
   40.4240   34.3750   40.1470 C   0  0  0  0  0  0  0  0  0  0  0  0
   39.8830   33.7190   41.3740 C   0  0  0  0  0  0  0  0  0  0  0  0
   40.6870   32.6540   41.8690 F   0  0  0  0  0  0  0  0  0  0  0  0
   38.7260   33.0380   41.2010 F   0  0  0  0  0  0  0  0  0  0  0  0
   39.9890   34.5320   42.4960 F   0  0  0  0  0  0  0  0  0  0  0  0
   45.6008   33.9021   40.1146 H   0  0  0  0  0  0  0  0  0  0  0  0
   44.7094   34.3835   38.9363 H   0  0  0  0  0  0  0  0  0  0  0  0
   42.8424   32.4605   39.7764 H   0  0  0  0  0  0  0  0  0  0  0  0
   43.8513   31.8187   40.7806 H   0  0  0  0  0  0  0  0  0  0  0  0
   44.8790   32.3232   42.5867 H   0  0  0  0  0  0  0  0  0  0  0  0
   45.8476   32.6812   44.8704 H   0  0  0  0  0  0  0  0  0  0  0  0
   44.4370   36.7379   44.6573 H   0  0  0  0  0  0  0  0  0  0  0  0
   42.6060   36.0663   38.1406 H   0  0  0  0  0  0  0  0  0  0  0  0
   40.7898   35.7767   36.5226 H   0  0  0  0  0  0  0  0  0  0  0  0
   38.7772   34.5981   37.2432 H   0  0  0  0  0  0  0  0  0  0  0  0
   38.5354   33.7322   39.4736 H   0  0  0  0  0  0  0  0  0  0  0  0
  1  4  1  0
  2  3  1  0
  2  1  1  0
  3  1  1  0
  4  9  1  0
  4  5  2  0
  5  6  1  0
  6  7  2  0
  8  7  1  0
  9  8  2  0
 10  1  1  0
 11 16  1  0
 11 10  1  0
 12 11  2  0
 13 14  2  0
 13 12  1  0
 14 15  1  0
 15 16  2  0
 16 17  1  0
 17 18  1  0
 17 20  1  0
 19 17  1  0
  2 21  1  0
  2 22  1  0
  3 23  1  0
  3 24  1  0
  5 25  1  0
  6 26  1  0
  8 27  1  0
 12 28  1  0
 13 29  1  0
 14 30  1  0
 15 31  1  0
M  ISO  8  21  13  22  13  23  13  24  13  25  14  26  14  27  14  28  14
M  ISO  3  29  14  30  14  31  14
M  END
>  <minimizedAffinity>  (1) 
-5.45141888

>  <minimizedRMSD>  (1) 
1.81343305

$$$$
