
     RDKit          3D

 40 43  0  0  0  0  0  0  0  0999 V2000
   42.4840   34.7750   41.0220 O   0  0  0  0  0  0  0  0  0  0  0  0
   41.7560   34.8890   39.8550 C   0  0  0  0  0  0  0  0  0  0  0  0
   41.9920   35.7340   38.7770 C   0  0  0  0  0  0  0  0  0  0  0  0
   41.1940   35.7470   37.6750 C   0  0  0  0  0  0  0  0  0  0  0  0
   40.1320   34.9000   37.6350 C   0  0  0  0  0  0  0  0  0  0  0  0
   39.8710   34.0520   38.6850 C   0  0  0  0  0  0  0  0  0  0  0  0
   40.6800   34.0440   39.7950 C   0  0  0  0  0  0  0  0  0  0  0  0
   40.0720   33.0050   40.5660 N   0  0  0  0  0  0  0  0  0  0  0  0
   40.6160   31.8820   41.3010 C   0  0  0  0  0  0  0  0  0  0  0  0
   39.4610   31.0520   41.7430 C   0  0  0  0  0  0  0  0  0  0  0  0
   38.2530   31.5590   40.9920 C   0  0  0  0  0  0  0  0  0  0  0  0
   38.6280   32.9790   40.6980 C   0  0  0  0  0  0  0  0  0  0  0  0
   43.6560   34.0590   41.2520 C   0  0  0  0  0  0  0  0  0  0  0  0
   44.6250   34.1020   40.0820 C   0  0  0  0  0  0  0  0  0  0  0  0
   44.0310   32.8310   40.5210 C   0  0  0  0  0  0  0  0  0  0  0  0
   44.2170   34.3360   42.5910 C   0  0  0  0  0  0  0  0  0  0  0  0
   44.9220   33.3120   43.2850 C   0  0  0  0  0  0  0  0  0  0  0  0
   45.4410   33.5450   44.5530 C   0  0  0  0  0  0  0  0  0  0  0  0
   45.2410   34.7850   45.0810 N   0  0  0  0  0  0  0  0  0  0  0  0
   44.5580   35.7490   44.3860 C   0  0  0  0  0  0  0  0  0  0  0  0
   44.0670   35.5080   43.1750 N   0  0  0  0  0  0  0  0  0  0  0  0
   42.8541   36.4161   38.8161 H   0  0  0  0  0  0  0  0  0  0  0  0
   41.4035   36.4271   36.8362 H   0  0  0  0  0  0  0  0  0  0  0  0
   39.4744   34.8929   36.7532 H   0  0  0  0  0  0  0  0  0  0  0  0
   39.0064   33.3737   38.6358 H   0  0  0  0  0  0  0  0  0  0  0  0
   41.2796   31.2914   40.6523 H   0  0  0  0  0  0  0  0  0  0  0  0
   41.2062   32.2254   42.1634 H   0  0  0  0  0  0  0  0  0  0  0  0
   39.6404   29.9936   41.5031 H   0  0  0  0  0  0  0  0  0  0  0  0
   39.3121   31.1263   42.8303 H   0  0  0  0  0  0  0  0  0  0  0  0
   38.0935   30.9896   40.0645 H   0  0  0  0  0  0  0  0  0  0  0  0
   37.3131   31.4607   41.5549 H   0  0  0  0  0  0  0  0  0  0  0  0
   38.3099   33.6344   41.5222 H   0  0  0  0  0  0  0  0  0  0  0  0
   38.1383   33.3378   39.7807 H   0  0  0  0  0  0  0  0  0  0  0  0
   45.6926   34.3019   40.2562 H   0  0  0  0  0  0  0  0  0  0  0  0
   44.6801   34.6529   39.1315 H   0  0  0  0  0  0  0  0  0  0  0  0
   43.2882   32.3287   39.8839 H   0  0  0  0  0  0  0  0  0  0  0  0
   44.4437   31.8569   40.8222 H   0  0  0  0  0  0  0  0  0  0  0  0
   45.0571   32.3275   42.8133 H   0  0  0  0  0  0  0  0  0  0  0  0
   45.9873   32.7654   45.1041 H   0  0  0  0  0  0  0  0  0  0  0  0
   44.4136   36.7408   44.8393 H   0  0  0  0  0  0  0  0  0  0  0  0
  1 13  1  0
  2  1  1  0
  3  2  2  0
  4  3  1  0
  5  4  2  0
  5  6  1  0
  6  7  2  0
  7  2  1  0
  7  8  1  0
  8 12  1  0
  8  9  1  0
  9 10  1  0
 11 10  1  0
 12 11  1  0
 13 16  1  0
 14 15  1  0
 14 13  1  0
 15 13  1  0
 16 21  1  0
 16 17  2  0
 17 18  1  0
 18 19  2  0
 20 19  1  0
 21 20  2  0
  3 22  1  0
  4 23  1  0
  5 24  1  0
  6 25  1  0
  9 26  1  0
  9 27  1  0
 10 28  1  0
 10 29  1  0
 11 30  1  0
 11 31  1  0
 12 32  1  0
 12 33  1  0
 14 34  1  0
 14 35  1  0
 15 36  1  0
 15 37  1  0
 17 38  1  0
 18 39  1  0
 20 40  1  0
M  ISO  8  22  14  23  14  24  14  25  14  26  13  27  13  28  13  29  13
M  ISO  8  30  13  31  13  32  13  33  13  34  13  35  13  36  13  37  13
M  ISO  3  38  14  39  14  40  14
M  END
>  <minimizedAffinity>  (1) 
-5.33360434

>  <minimizedRMSD>  (1) 
2.79941463

$$$$
