
     RDKit          3D

 35 38  0  0  0  0  0  0  0  0999 V2000
   42.4860   34.9160   41.0050 O   0  0  0  0  0  0  0  0  0  0  0  0
   41.7630   35.0020   39.8340 C   0  0  0  0  0  0  0  0  0  0  0  0
   41.8130   35.9410   38.7950 C   0  0  0  0  0  0  0  0  0  0  0  0
   41.0600   35.8810   37.6850 C   0  0  0  0  0  0  0  0  0  0  0  0
   40.2000   34.8550   37.5520 C   0  0  0  0  0  0  0  0  0  0  0  0
   40.1100   33.9180   38.5420 C   0  0  0  0  0  0  0  0  0  0  0  0
   40.8800   33.9770   39.6950 C   0  0  0  0  0  0  0  0  0  0  0  0
   40.1580   32.9540   40.4960 C   0  0  0  0  0  0  0  0  0  0  0  0
   38.8120   32.7520   40.2780 C   0  0  0  0  0  0  0  0  0  0  0  0
   38.2810   31.7650   41.0720 C   0  0  0  0  0  0  0  0  0  0  0  0
   39.4030   31.3990   41.7740 C   0  0  0  0  0  0  0  0  0  0  0  0
   40.4440   32.0900   41.4230 O   0  0  0  0  0  0  0  0  0  0  0  0
   43.6240   34.1320   41.2360 C   0  0  0  0  0  0  0  0  0  0  0  0
   44.6080   34.1310   40.0720 C   0  0  0  0  0  0  0  0  0  0  0  0
   43.9710   32.8860   40.5060 C   0  0  0  0  0  0  0  0  0  0  0  0
   44.2030   34.3370   42.5790 C   0  0  0  0  0  0  0  0  0  0  0  0
   44.9030   33.3370   43.2620 C   0  0  0  0  0  0  0  0  0  0  0  0
   45.4450   33.5370   44.5150 C   0  0  0  0  0  0  0  0  0  0  0  0
   45.2580   34.7690   45.0570 N   0  0  0  0  0  0  0  0  0  0  0  0
   44.5800   35.7330   44.3950 C   0  0  0  0  0  0  0  0  0  0  0  0
   44.0860   35.4790   43.1950 N   0  0  0  0  0  0  0  0  0  0  0  0
   42.5149   36.7820   38.8954 H   0  0  0  0  0  0  0  0  0  0  0  0
   41.1441   36.6512   36.9042 H   0  0  0  0  0  0  0  0  0  0  0  0
   39.5733   34.7711   36.6519 H   0  0  0  0  0  0  0  0  0  0  0  0
   39.4009   33.0859   38.4207 H   0  0  0  0  0  0  0  0  0  0  0  0
   38.2239   33.3223   39.5440 H   0  0  0  0  0  0  0  0  0  0  0  0
   37.2526   31.3788   41.1291 H   0  0  0  0  0  0  0  0  0  0  0  0
   39.4177   30.6128   42.5432 H   0  0  0  0  0  0  0  0  0  0  0  0
   45.6800   34.2951   40.2563 H   0  0  0  0  0  0  0  0  0  0  0  0
   44.6903   34.6746   39.1193 H   0  0  0  0  0  0  0  0  0  0  0  0
   43.2197   32.4062   39.8615 H   0  0  0  0  0  0  0  0  0  0  0  0
   44.3499   31.9002   40.8134 H   0  0  0  0  0  0  0  0  0  0  0  0
   45.0260   32.3547   42.7824 H   0  0  0  0  0  0  0  0  0  0  0  0
   45.9961   32.7456   45.0441 H   0  0  0  0  0  0  0  0  0  0  0  0
   44.4399   36.7236   44.8522 H   0  0  0  0  0  0  0  0  0  0  0  0
  1 13  1  0
  2  1  1  0
  3  2  2  0
  4  3  1  0
  5  4  2  0
  5  6  1  0
  6  7  2  0
  7  2  1  0
  7  8  1  0
  8 12  1  0
  9  8  2  0
  9 10  1  0
 10 11  2  0
 12 11  1  0
 13 16  1  0
 14 15  1  0
 14 13  1  0
 15 13  1  0
 16 21  1  0
 16 17  2  0
 17 18  1  0
 18 19  2  0
 20 19  1  0
 21 20  2  0
  3 22  1  0
  4 23  1  0
  5 24  1  0
  6 25  1  0
  9 26  1  0
 10 27  1  0
 11 28  1  0
 14 29  1  0
 14 30  1  0
 15 31  1  0
 15 32  1  0
 17 33  1  0
 18 34  1  0
 20 35  1  0
M  ISO  8  22  14  23  14  24  14  25  14  26  14  27  14  28  14  29  13
M  ISO  6  30  13  31  13  32  13  33  14  34  14  35  14
M  END
>  <minimizedAffinity>  (1) 
-5.22826672

>  <minimizedRMSD>  (1) 
2.83561993

$$$$
