
     RDKit          3D

 34 37  0  0  0  0  0  0  0  0999 V2000
   43.7270   34.1540   41.2220 C   0  0  0  0  0  0  0  0  0  0  0  0
   44.7410   34.1400   40.0840 C   0  0  0  0  0  0  0  0  0  0  0  0
   44.0540   32.9140   40.4970 C   0  0  0  0  0  0  0  0  0  0  0  0
   44.2520   34.3830   42.5830 C   0  0  0  0  0  0  0  0  0  0  0  0
   44.9340   33.3360   43.2660 C   0  0  0  0  0  0  0  0  0  0  0  0
   45.4200   33.5420   44.5500 C   0  0  0  0  0  0  0  0  0  0  0  0
   45.2170   34.7670   45.1050 N   0  0  0  0  0  0  0  0  0  0  0  0
   44.5550   35.7550   44.4200 C   0  0  0  0  0  0  0  0  0  0  0  0
   44.0960   35.5420   43.1940 N   0  0  0  0  0  0  0  0  0  0  0  0
   42.6120   34.9470   40.9490 O   0  0  0  0  0  0  0  0  0  0  0  0
   41.8310   34.9710   39.8130 C   0  0  0  0  0  0  0  0  0  0  0  0
   41.8960   35.8420   38.7400 C   0  0  0  0  0  0  0  0  0  0  0  0
   41.0510   35.7410   37.6710 C   0  0  0  0  0  0  0  0  0  0  0  0
   40.1150   34.7550   37.6540 C   0  0  0  0  0  0  0  0  0  0  0  0
   40.0360   33.8820   38.7120 C   0  0  0  0  0  0  0  0  0  0  0  0
   40.8820   33.9770   39.7910 C   0  0  0  0  0  0  0  0  0  0  0  0
   40.4600   32.9000   40.6440 N   0  0  0  0  0  0  0  0  0  0  0  0
   39.8850   32.8420   41.8590 C   0  0  0  0  0  0  0  0  0  0  0  0
   39.7390   31.5450   42.1740 N   0  0  0  0  0  0  0  0  0  0  0  0
   40.2100   30.7710   41.1800 C   0  0  0  0  0  0  0  0  0  0  0  0
   40.6490   31.6310   40.2460 N   0  0  0  0  0  0  0  0  0  0  0  0
   45.8122   34.2717   40.2965 H   0  0  0  0  0  0  0  0  0  0  0  0
   44.8652   34.6880   39.1384 H   0  0  0  0  0  0  0  0  0  0  0  0
   43.3049   32.4608   39.8311 H   0  0  0  0  0  0  0  0  0  0  0  0
   44.3959   31.9159   40.8084 H   0  0  0  0  0  0  0  0  0  0  0  0
   45.0760   32.3619   42.7751 H   0  0  0  0  0  0  0  0  0  0  0  0
   45.9479   32.7466   45.0965 H   0  0  0  0  0  0  0  0  0  0  0  0
   44.4032   36.7360   44.8938 H   0  0  0  0  0  0  0  0  0  0  0  0
   42.6519   36.6411   38.7477 H   0  0  0  0  0  0  0  0  0  0  0  0
   41.1272   36.4497   36.8332 H   0  0  0  0  0  0  0  0  0  0  0  0
   39.4273   34.6571   36.8011 H   0  0  0  0  0  0  0  0  0  0  0  0
   39.2762   33.0867   38.6950 H   0  0  0  0  0  0  0  0  0  0  0  0
   39.5888   33.7000   42.4804 H   0  0  0  0  0  0  0  0  0  0  0  0
   40.2312   29.6719   41.1404 H   0  0  0  0  0  0  0  0  0  0  0  0
  1  4  1  0
  2  3  1  0
  2  1  1  0
  3  1  1  0
  4  9  1  0
  4  5  2  0
  5  6  1  0
  6  7  2  0
  8  7  1  0
  9  8  2  0
 10  1  1  0
 11 10  1  0
 12 11  2  0
 13 12  1  0
 14 13  2  0
 14 15  1  0
 15 16  2  0
 16 11  1  0
 16 17  1  0
 17 18  1  0
 18 19  2  0
 20 19  1  0
 21 17  1  0
 21 20  2  0
  2 22  1  0
  2 23  1  0
  3 24  1  0
  3 25  1  0
  5 26  1  0
  6 27  1  0
  8 28  1  0
 12 29  1  0
 13 30  1  0
 14 31  1  0
 15 32  1  0
 18 33  1  0
 20 34  1  0
M  ISO  8  22  13  23  13  24  13  25  13  26  14  27  14  28  14  29  14
M  ISO  5  30  14  31  14  32  14  33  14  34  14
M  END
>  <minimizedAffinity>  (1) 
-5.01609278

>  <minimizedRMSD>  (1) 
2.56518626

$$$$
