
     RDKit          3D

 31 33  0  0  0  0  0  0  0  0999 V2000
   44.3000   34.3210   41.2070 C   0  0  0  0  0  0  0  0  0  0  0  0
   45.4930   33.9460   40.3420 C   0  0  0  0  0  0  0  0  0  0  0  0
   44.4410   32.9690   40.6340 C   0  0  0  0  0  0  0  0  0  0  0  0
   44.5700   34.5280   42.6430 C   0  0  0  0  0  0  0  0  0  0  0  0
   45.1080   33.4830   43.4460 C   0  0  0  0  0  0  0  0  0  0  0  0
   45.3500   33.6850   44.8010 C   0  0  0  0  0  0  0  0  0  0  0  0
   45.0490   34.9140   45.3110 N   0  0  0  0  0  0  0  0  0  0  0  0
   44.5310   35.9050   44.5090 C   0  0  0  0  0  0  0  0  0  0  0  0
   44.3160   35.6730   43.2260 N   0  0  0  0  0  0  0  0  0  0  0  0
   43.5150   35.3380   40.6610 O   0  0  0  0  0  0  0  0  0  0  0  0
   42.3410   35.1950   39.9300 C   0  0  0  0  0  0  0  0  0  0  0  0
   42.2010   35.0520   38.5430 C   0  0  0  0  0  0  0  0  0  0  0  0
   40.9990   34.9040   37.9480 C   0  0  0  0  0  0  0  0  0  0  0  0
   39.9090   34.8960   38.7380 C   0  0  0  0  0  0  0  0  0  0  0  0
   39.9970   35.0340   40.0760 C   0  0  0  0  0  0  0  0  0  0  0  0
   41.1960   35.1880   40.7060 C   0  0  0  0  0  0  0  0  0  0  0  0
   40.9090   35.3360   42.1620 C   0  0  0  0  0  0  0  0  0  0  0  0
   46.4898   33.8358   40.7938 H   0  0  0  0  0  0  0  0  0  0  0  0
   45.9550   34.3491   39.4287 H   0  0  0  0  0  0  0  0  0  0  0  0
   43.7619   32.6452   39.8315 H   0  0  0  0  0  0  0  0  0  0  0  0
   44.4370   31.9546   41.0593 H   0  0  0  0  0  0  0  0  0  0  0  0
   45.3343   32.5073   42.9912 H   0  0  0  0  0  0  0  0  0  0  0  0
   45.7663   32.8877   45.4342 H   0  0  0  0  0  0  0  0  0  0  0  0
   44.2957   36.8910   44.9362 H   0  0  0  0  0  0  0  0  0  0  0  0
   43.1047   35.0607   37.9159 H   0  0  0  0  0  0  0  0  0  0  0  0
   40.9129   34.7939   36.8569 H   0  0  0  0  0  0  0  0  0  0  0  0
   38.9173   34.7732   38.2781 H   0  0  0  0  0  0  0  0  0  0  0  0
   39.0754   35.0220   40.6764 H   0  0  0  0  0  0  0  0  0  0  0  0
   41.7383   34.9083   42.7445 H   0  0  0  0  0  0  0  0  0  0  0  0
   40.8001   36.4027   42.4077 H   0  0  0  0  0  0  0  0  0  0  0  0
   39.9769   34.8062   42.4077 H   0  0  0  0  0  0  0  0  0  0  0  0
  1  4  1  0
  2  3  1  0
  2  1  1  0
  3  1  1  0
  4  9  1  0
  4  5  2  0
  5  6  1  0
  6  7  2  0
  8  7  1  0
  9  8  2  0
 10  1  1  0
 11 10  1  0
 11 16  1  0
 12 11  2  0
 13 12  1  0
 13 14  2  0
 14 15  1  0
 15 16  2  0
 16 17  1  0
  2 18  1  0
  2 19  1  0
  3 20  1  0
  3 21  1  0
  5 22  1  0
  6 23  1  0
  8 24  1  0
 12 25  1  0
 13 26  1  0
 14 27  1  0
 15 28  1  0
 17 29  1  0
 17 30  1  0
 17 31  1  0
M  ISO  8  18  13  19  13  20  13  21  13  22  14  23  14  24  14  25  14
M  ISO  6  26  14  27  14  28  14  29   8  30   8  31   8
M  END
>  <minimizedAffinity>  (1) 
-4.79856777

>  <minimizedRMSD>  (1) 
0.646082163

$$$$
