
     RDKit          3D

 53 56  0  0  0  0  0  0  0  0999 V2000
   41.5750   34.9510   39.7150 C   0  0  0  0  0  0  0  0  0  0  0  0
   41.7390   35.6130   38.4710 C   0  0  0  0  0  0  0  0  0  0  0  0
   40.8520   35.5250   37.5070 C   0  0  0  0  0  0  0  0  0  0  0  0
   39.7790   34.7710   37.7820 C   0  0  0  0  0  0  0  0  0  0  0  0
   39.5630   34.1220   38.9410 C   0  0  0  0  0  0  0  0  0  0  0  0
   40.4360   34.1700   39.9570 C   0  0  0  0  0  0  0  0  0  0  0  0
   42.4460   34.9670   40.7970 O   0  0  0  0  0  0  0  0  0  0  0  0
   43.5600   34.1380   40.9910 C   0  0  0  0  0  0  0  0  0  0  0  0
   44.5370   34.1380   39.8420 C   0  0  0  0  0  0  0  0  0  0  0  0
   43.8450   32.9200   40.2400 C   0  0  0  0  0  0  0  0  0  0  0  0
   44.1240   34.3470   42.3380 C   0  0  0  0  0  0  0  0  0  0  0  0
   44.7850   33.2780   43.0230 C   0  0  0  0  0  0  0  0  0  0  0  0
   45.3230   33.4470   44.2840 C   0  0  0  0  0  0  0  0  0  0  0  0
   45.1880   34.6850   44.8360 N   0  0  0  0  0  0  0  0  0  0  0  0
   44.5500   35.6950   44.1590 C   0  0  0  0  0  0  0  0  0  0  0  0
   44.0560   35.4760   42.9570 N   0  0  0  0  0  0  0  0  0  0  0  0
   39.8370   33.2980   40.9950 C   0  0  0  0  0  0  0  0  0  0  0  0
   40.7080   32.0330   41.2880 C   0  0  0  0  0  0  0  0  0  0  0  0
   39.9430   33.9700   42.3110 C   0  0  0  0  0  0  0  0  0  0  0  0
   38.5970   32.6160   40.6120 C   0  0  0  0  0  0  0  0  0  0  0  0
   38.4800   31.1530   40.6540 C   0  0  0  0  0  0  0  0  0  0  0  0
   37.3410   30.4910   41.3030 C   0  0  0  0  0  0  0  0  0  0  0  0
   36.7700   29.4220   40.4360 C   0  0  0  0  0  0  0  0  0  0  0  0
   37.6700   29.3640   39.2550 C   0  0  0  0  0  0  0  0  0  0  0  0
   38.1960   30.7750   39.1690 C   0  0  0  0  0  0  0  0  0  0  0  0
   42.6409   36.2213   38.3084 H   0  0  0  0  0  0  0  0  0  0  0  0
   40.9808   36.0348   36.5408 H   0  0  0  0  0  0  0  0  0  0  0  0
   39.0136   34.6748   36.9978 H   0  0  0  0  0  0  0  0  0  0  0  0
   38.6410   33.5336   39.0582 H   0  0  0  0  0  0  0  0  0  0  0  0
   45.6147   34.2491   40.0325 H   0  0  0  0  0  0  0  0  0  0  0  0
   44.6478   34.7069   38.9071 H   0  0  0  0  0  0  0  0  0  0  0  0
   43.0731   32.4938   39.5823 H   0  0  0  0  0  0  0  0  0  0  0  0
   44.1771   31.9096   40.5206 H   0  0  0  0  0  0  0  0  0  0  0  0
   44.8666   32.2967   42.5327 H   0  0  0  0  0  0  0  0  0  0  0  0
   45.8320   32.6277   44.8128 H   0  0  0  0  0  0  0  0  0  0  0  0
   44.4511   36.6885   44.6207 H   0  0  0  0  0  0  0  0  0  0  0  0
   40.8020   31.8964   42.3754 H   0  0  0  0  0  0  0  0  0  0  0  0
   40.2276   31.1470   40.8474 H   0  0  0  0  0  0  0  0  0  0  0  0
   41.7071   32.1657   40.8474 H   0  0  0  0  0  0  0  0  0  0  0  0
   39.8257   33.2263   43.1130 H   0  0  0  0  0  0  0  0  0  0  0  0
   40.9282   34.4514   42.3986 H   0  0  0  0  0  0  0  0  0  0  0  0
   39.1538   34.7313   42.3986 H   0  0  0  0  0  0  0  0  0  0  0  0
   38.3870   32.9141   39.5742 H   0  0  0  0  0  0  0  0  0  0  0  0
   37.9007   32.9310   41.4032 H   0  0  0  0  0  0  0  0  0  0  0  0
   39.3791   30.8427   41.2065 H   0  0  0  0  0  0  0  0  0  0  0  0
   37.6786   30.0428   42.2491 H   0  0  0  0  0  0  0  0  0  0  0  0
   36.5600   31.2438   41.4858 H   0  0  0  0  0  0  0  0  0  0  0  0
   36.7633   28.4575   40.9649 H   0  0  0  0  0  0  0  0  0  0  0  0
   35.7283   29.6323   40.1521 H   0  0  0  0  0  0  0  0  0  0  0  0
   38.4872   28.6451   39.4141 H   0  0  0  0  0  0  0  0  0  0  0  0
   37.1643   29.0301   38.3370 H   0  0  0  0  0  0  0  0  0  0  0  0
   39.1182   30.8143   38.5707 H   0  0  0  0  0  0  0  0  0  0  0  0
   37.4915   31.4641   38.6804 H   0  0  0  0  0  0  0  0  0  0  0  0
  1  6  1  0
  1  7  1  0
  2  1  2  0
  3  4  2  0
  3  2  1  0
  4  5  1  0
  5  6  2  0
  6 17  1  0
  7  8  1  0
  8 11  1  0
  9 10  1  0
  9  8  1  0
 10  8  1  0
 11 16  1  0
 11 12  2  0
 12 13  1  0
 13 14  2  0
 15 14  1  0
 16 15  2  0
 17 18  1  0
 17 19  1  0
 20 21  1  0
 20 17  1  0
 21 22  1  0
 23 22  1  0
 24 23  1  0
 25 24  1  0
 25 21  1  0
  2 26  1  0
  3 27  1  0
  4 28  1  0
  5 29  1  0
  9 30  1  0
  9 31  1  0
 10 32  1  0
 10 33  1  0
 12 34  1  0
 13 35  1  0
 15 36  1  0
 18 37  1  0
 18 38  1  0
 18 39  1  0
 19 40  1  0
 19 41  1  0
 19 42  1  0
 20 43  1  0
 20 44  1  0
 21 45  1  0
 22 46  1  0
 22 47  1  0
 23 48  1  0
 23 49  1  0
 24 50  1  0
 24 51  1  0
 25 52  1  0
 25 53  1  0
M  ISO  8  26  14  27  14  28  14  29  14  30  13  31  13  32  13  33  13
M  ISO  8  34  14  35  14  36  14  37   8  38   8  39   8  40   8  41   8
M  ISO  8  42   8  43   8  44   8  45  13  46  13  47  13  48  13  49  13
M  ISO  4  50  13  51  13  52  13  53  13
M  END
>  <minimizedAffinity>  (1) 
-5.84599543

>  <minimizedRMSD>  (1) 
0.95173794

$$$$
