
     RDKit          3D

 56 59  0  0  0  0  0  0  0  0999 V2000
   41.4330   34.5640   39.7750 C   0  0  0  0  0  0  0  0  0  0  0  0
   41.6490   35.5380   38.7630 C   0  0  0  0  0  0  0  0  0  0  0  0
   40.8880   35.6080   37.6940 C   0  0  0  0  0  0  0  0  0  0  0  0
   39.9000   34.7030   37.6370 C   0  0  0  0  0  0  0  0  0  0  0  0
   39.6450   33.7620   38.5660 C   0  0  0  0  0  0  0  0  0  0  0  0
   40.3880   33.6370   39.6710 C   0  0  0  0  0  0  0  0  0  0  0  0
   42.1720   34.3900   40.9440 O   0  0  0  0  0  0  0  0  0  0  0  0
   43.4430   33.8050   41.0510 C   0  0  0  0  0  0  0  0  0  0  0  0
   44.3110   33.9490   39.8270 C   0  0  0  0  0  0  0  0  0  0  0  0
   43.8930   32.6330   40.2960 C   0  0  0  0  0  0  0  0  0  0  0  0
   44.0630   34.1530   42.3380 C   0  0  0  0  0  0  0  0  0  0  0  0
   44.7850   33.1810   43.0930 C   0  0  0  0  0  0  0  0  0  0  0  0
   45.3690   33.4960   44.3050 C   0  0  0  0  0  0  0  0  0  0  0  0
   45.2200   34.7800   44.7440 N   0  0  0  0  0  0  0  0  0  0  0  0
   44.5200   35.6980   44.0010 C   0  0  0  0  0  0  0  0  0  0  0  0
   43.9840   35.3430   42.8500 N   0  0  0  0  0  0  0  0  0  0  0  0
   39.8010   32.4680   40.3730 C   0  0  0  0  0  0  0  0  0  0  0  0
   40.7330   31.2650   40.4590 C   0  0  0  0  0  0  0  0  0  0  0  0
   39.7370   32.8220   41.8430 C   0  0  0  0  0  0  0  0  0  0  0  0
   38.6250   31.9010   39.7570 C   0  0  0  0  0  0  0  0  0  0  0  0
   37.9260   30.6530   40.0070 C   0  0  0  0  0  0  0  0  0  0  0  0
   38.3560   29.3840   39.3810 C   0  0  0  0  0  0  0  0  0  0  0  0
   38.7460   28.2470   40.2860 C   0  0  0  0  0  0  0  0  0  0  0  0
   37.5210   28.0410   41.1900 C   0  0  0  0  0  0  0  0  0  0  0  0
   37.6270   29.2310   42.0980 C   0  0  0  0  0  0  0  0  0  0  0  0
   37.3590   30.5180   41.4080 C   0  0  0  0  0  0  0  0  0  0  0  0
   42.4766   36.2535   38.8777 H   0  0  0  0  0  0  0  0  0  0  0  0
   41.0497   36.3551   36.9029 H   0  0  0  0  0  0  0  0  0  0  0  0
   39.2417   34.7318   36.7562 H   0  0  0  0  0  0  0  0  0  0  0  0
   38.7998   33.0752   38.4113 H   0  0  0  0  0  0  0  0  0  0  0  0
   45.3602   34.2637   39.9279 H   0  0  0  0  0  0  0  0  0  0  0  0
   44.2402   34.5004   38.8778 H   0  0  0  0  0  0  0  0  0  0  0  0
   43.1664   32.0518   39.7093 H   0  0  0  0  0  0  0  0  0  0  0  0
   44.4285   31.7100   40.5630 H   0  0  0  0  0  0  0  0  0  0  0  0
   44.8788   32.1574   42.7012 H   0  0  0  0  0  0  0  0  0  0  0  0
   45.9269   32.7484   44.8879 H   0  0  0  0  0  0  0  0  0  0  0  0
   44.4064   36.7295   44.3659 H   0  0  0  0  0  0  0  0  0  0  0  0
   40.9214   31.0219   41.5151 H   0  0  0  0  0  0  0  0  0  0  0  0
   40.2651   30.4024   39.9620 H   0  0  0  0  0  0  0  0  0  0  0  0
   41.6851   31.5025   39.9620 H   0  0  0  0  0  0  0  0  0  0  0  0
   39.9007   31.9165   42.4457 H   0  0  0  0  0  0  0  0  0  0  0  0
   40.5157   33.5632   42.0759 H   0  0  0  0  0  0  0  0  0  0  0  0
   38.7481   33.2436   42.0759 H   0  0  0  0  0  0  0  0  0  0  0  0
   38.8868   31.8470   38.6900 H   0  0  0  0  0  0  0  0  0  0  0  0
   37.8896   32.5650   40.2348 H   0  0  0  0  0  0  0  0  0  0  0  0
   37.0885   30.8371   39.3180 H   0  0  0  0  0  0  0  0  0  0  0  0
   37.5252   29.0314   38.7521 H   0  0  0  0  0  0  0  0  0  0  0  0
   39.2829   29.6410   38.8473 H   0  0  0  0  0  0  0  0  0  0  0  0
   38.9558   27.3389   39.7018 H   0  0  0  0  0  0  0  0  0  0  0  0
   39.6594   28.4622   40.8600 H   0  0  0  0  0  0  0  0  0  0  0  0
   36.5855   28.0572   40.6115 H   0  0  0  0  0  0  0  0  0  0  0  0
   37.5029   27.0735   41.7131 H   0  0  0  0  0  0  0  0  0  0  0  0
   36.8993   29.1138   42.9146 H   0  0  0  0  0  0  0  0  0  0  0  0
   38.6618   29.2681   42.4693 H   0  0  0  0  0  0  0  0  0  0  0  0
   37.7854   31.3244   42.0227 H   0  0  0  0  0  0  0  0  0  0  0  0
   36.2664   30.5699   41.2917 H   0  0  0  0  0  0  0  0  0  0  0  0
  1  7  1  0
  2  1  2  0
  3  2  1  0
  4  3  2  0
  4  5  1  0
  5  6  2  0
  6  1  1  0
  6 17  1  0
  7  8  1  0
  8 11  1  0
  9 10  1  0
  9  8  1  0
 10  8  1  0
 11 16  1  0
 11 12  2  0
 12 13  1  0
 13 14  2  0
 15 14  1  0
 16 15  2  0
 17 18  1  0
 17 19  1  0
 20 21  1  0
 20 17  1  0
 21 26  1  0
 22 21  1  0
 22 23  1  0
 23 24  1  0
 24 25  1  0
 26 25  1  0
  2 27  1  0
  3 28  1  0
  4 29  1  0
  5 30  1  0
  9 31  1  0
  9 32  1  0
 10 33  1  0
 10 34  1  0
 12 35  1  0
 13 36  1  0
 15 37  1  0
 18 38  1  0
 18 39  1  0
 18 40  1  0
 19 41  1  0
 19 42  1  0
 19 43  1  0
 20 44  1  0
 20 45  1  0
 21 46  1  0
 22 47  1  0
 22 48  1  0
 23 49  1  0
 23 50  1  0
 24 51  1  0
 24 52  1  0
 25 53  1  0
 25 54  1  0
 26 55  1  0
 26 56  1  0
M  ISO  8  27  14  28  14  29  14  30  14  31  13  32  13  33  13  34  13
M  ISO  8  35  14  36  14  37  14  38   8  39   8  40   8  41   8  42   8
M  ISO  8  43   8  44   8  45   8  46  13  47  13  48  13  49  13  50  13
M  ISO  6  51  13  52  13  53  13  54  13  55  13  56  13
M  END
>  <minimizedAffinity>  (1) 
-5.84548998

>  <minimizedRMSD>  (1) 
1.34669328

$$$$
