
     RDKit          3D

 47 50  0  0  0  0  0  0  0  0999 V2000
   41.8360   34.6530   40.0690 C   0  0  0  0  0  0  0  0  0  0  0  0
   41.9630   35.5270   38.9600 C   0  0  0  0  0  0  0  0  0  0  0  0
   41.1970   35.4250   37.8980 C   0  0  0  0  0  0  0  0  0  0  0  0
   40.2900   34.4430   37.9420 C   0  0  0  0  0  0  0  0  0  0  0  0
   40.1100   33.5810   38.9620 C   0  0  0  0  0  0  0  0  0  0  0  0
   40.8680   33.6380   40.0650 C   0  0  0  0  0  0  0  0  0  0  0  0
   42.5890   34.6500   41.2460 O   0  0  0  0  0  0  0  0  0  0  0  0
   43.8760   34.1050   41.4040 C   0  0  0  0  0  0  0  0  0  0  0  0
   44.8440   34.4280   40.2940 C   0  0  0  0  0  0  0  0  0  0  0  0
   44.4530   33.0530   40.5570 C   0  0  0  0  0  0  0  0  0  0  0  0
   44.3540   34.3150   42.7770 C   0  0  0  0  0  0  0  0  0  0  0  0
   45.0420   33.2760   43.4800 C   0  0  0  0  0  0  0  0  0  0  0  0
   45.4960   33.4580   44.7750 C   0  0  0  0  0  0  0  0  0  0  0  0
   45.2530   34.6770   45.3430 N   0  0  0  0  0  0  0  0  0  0  0  0
   44.5910   35.6530   44.6440 C   0  0  0  0  0  0  0  0  0  0  0  0
   44.1790   35.4260   43.4110 N   0  0  0  0  0  0  0  0  0  0  0  0
   40.3760   32.5130   40.9010 C   0  0  0  0  0  0  0  0  0  0  0  0
   41.5090   31.6660   41.5700 C   0  0  0  0  0  0  0  0  0  0  0  0
   39.7770   33.0670   42.1570 C   0  0  0  0  0  0  0  0  0  0  0  0
   39.7010   31.4240   40.1820 C   0  0  0  0  0  0  0  0  0  0  0  0
   38.7130   30.6300   40.9570 C   0  0  0  0  0  0  0  0  0  0  0  0
   38.7360   29.4770   41.7570 C   0  0  0  0  0  0  0  0  0  0  0  0
   37.4920   29.1750   42.2180 C   0  0  0  0  0  0  0  0  0  0  0  0
   36.6930   30.1290   41.7130 N   0  0  0  0  0  0  0  0  0  0  0  0
   37.3880   30.9680   40.9870 N   0  0  0  0  0  0  0  0  0  0  0  0
   42.7283   36.3166   38.9900 H   0  0  0  0  0  0  0  0  0  0  0  0
   41.2944   36.0990   37.0341 H   0  0  0  0  0  0  0  0  0  0  0  0
   39.6324   34.3289   37.0676 H   0  0  0  0  0  0  0  0  0  0  0  0
   39.3244   32.8147   38.8873 H   0  0  0  0  0  0  0  0  0  0  0  0
   45.8631   34.7668   40.5321 H   0  0  0  0  0  0  0  0  0  0  0  0
   44.8320   35.0890   39.4148 H   0  0  0  0  0  0  0  0  0  0  0  0
   43.8129   32.5222   39.8369 H   0  0  0  0  0  0  0  0  0  0  0  0
   45.0080   32.1253   40.7606 H   0  0  0  0  0  0  0  0  0  0  0  0
   45.2140   32.3112   42.9804 H   0  0  0  0  0  0  0  0  0  0  0  0
   46.0254   32.6620   45.3191 H   0  0  0  0  0  0  0  0  0  0  0  0
   44.4024   36.6299   45.1131 H   0  0  0  0  0  0  0  0  0  0  0  0
   41.4194   31.7330   42.6643 H   0  0  0  0  0  0  0  0  0  0  0  0
   41.4143   30.6154   41.2580 H   0  0  0  0  0  0  0  0  0  0  0  0
   42.4898   32.0541   41.2580 H   0  0  0  0  0  0  0  0  0  0  0  0
   40.2688   32.6121   43.0294 H   0  0  0  0  0  0  0  0  0  0  0  0
   39.9209   34.1573   42.1820 H   0  0  0  0  0  0  0  0  0  0  0  0
   38.7013   32.8385   42.1820 H   0  0  0  0  0  0  0  0  0  0  0  0
   39.1745   31.8664   39.3235 H   0  0  0  0  0  0  0  0  0  0  0  0
   40.4978   30.7148   39.9135 H   0  0  0  0  0  0  0  0  0  0  0  0
   39.6412   28.8939   41.9818 H   0  0  0  0  0  0  0  0  0  0  0  0
   37.2035   28.3326   42.8639 H   0  0  0  0  0  0  0  0  0  0  0  0
   35.6776   30.1917   41.8740 H   0  0  0  0  0  0  0  0  0  0  0  0
  1  7  1  0
  2  1  2  0
  3  4  2  0
  3  2  1  0
  4  5  1  0
  5  6  2  0
  6  1  1  0
  6 17  1  0
  7  8  1  0
  8 11  1  0
  9 10  1  0
  9  8  1  0
 10  8  1  0
 11 16  1  0
 11 12  2  0
 12 13  1  0
 13 14  2  0
 15 14  1  0
 16 15  2  0
 17 18  1  0
 17 19  1  0
 20 17  1  0
 20 21  1  0
 21 25  2  0
 21 22  1  0
 22 23  2  0
 24 23  1  0
 25 24  1  0
  2 26  1  0
  3 27  1  0
  4 28  1  0
  5 29  1  0
  9 30  1  0
  9 31  1  0
 10 32  1  0
 10 33  1  0
 12 34  1  0
 13 35  1  0
 15 36  1  0
 18 37  1  0
 18 38  1  0
 18 39  1  0
 19 40  1  0
 19 41  1  0
 19 42  1  0
 20 43  1  0
 20 44  1  0
 22 45  1  0
 23 46  1  0
 24 47  1  0
M  ISO  8  26  14  27  14  28  14  29  14  30  13  31  13  32  13  33  13
M  ISO  8  34  14  35  14  36  14  37   8  38   8  39   8  40   8  41   8
M  ISO  6  42   8  43   8  44   8  45  14  46  14  47   9
M  END
>  <minimizedAffinity>  (1) 
-5.53249741

>  <minimizedRMSD>  (1) 
1.20080149

$$$$
