
     RDKit          3D

 42 44  0  0  0  0  0  0  0  0999 V2000
   41.7460   35.1680   39.6210 C   0  0  0  0  0  0  0  0  0  0  0  0
   42.0550   35.8460   38.4190 C   0  0  0  0  0  0  0  0  0  0  0  0
   41.2370   35.8460   37.3860 C   0  0  0  0  0  0  0  0  0  0  0  0
   40.1020   35.1650   37.5580 C   0  0  0  0  0  0  0  0  0  0  0  0
   39.7420   34.5020   38.6750 C   0  0  0  0  0  0  0  0  0  0  0  0
   40.5360   34.4650   39.7540 C   0  0  0  0  0  0  0  0  0  0  0  0
   42.5280   35.0850   40.7800 O   0  0  0  0  0  0  0  0  0  0  0  0
   43.5720   34.1610   40.9990 C   0  0  0  0  0  0  0  0  0  0  0  0
   44.5580   34.0230   39.8680 C   0  0  0  0  0  0  0  0  0  0  0  0
   43.7550   32.8880   40.2970 C   0  0  0  0  0  0  0  0  0  0  0  0
   44.1390   34.3600   42.3480 C   0  0  0  0  0  0  0  0  0  0  0  0
   44.7870   33.2990   43.0360 C   0  0  0  0  0  0  0  0  0  0  0  0
   45.3230   33.4550   44.2970 C   0  0  0  0  0  0  0  0  0  0  0  0
   45.1990   34.6850   44.8530 N   0  0  0  0  0  0  0  0  0  0  0  0
   44.5680   35.7010   44.1730 C   0  0  0  0  0  0  0  0  0  0  0  0
   44.0750   35.4910   42.9690 N   0  0  0  0  0  0  0  0  0  0  0  0
   39.7990   33.6310   40.7320 C   0  0  0  0  0  0  0  0  0  0  0  0
   40.3980   32.1900   40.9060 C   0  0  0  0  0  0  0  0  0  0  0  0
   40.0540   34.1340   42.1130 C   0  0  0  0  0  0  0  0  0  0  0  0
   38.4340   33.2300   40.3510 C   0  0  0  0  0  0  0  0  0  0  0  0
   37.9390   32.1240   41.1290 N   0  0  0  0  0  0  0  0  0  0  0  0
   43.0079   36.3903   38.3441 H   0  0  0  0  0  0  0  0  0  0  0  0
   41.4728   36.3702   36.4481 H   0  0  0  0  0  0  0  0  0  0  0  0
   39.3979   35.1429   36.7132 H   0  0  0  0  0  0  0  0  0  0  0  0
   38.7744   33.9794   38.7015 H   0  0  0  0  0  0  0  0  0  0  0  0
   45.6387   34.0433   40.0722 H   0  0  0  0  0  0  0  0  0  0  0  0
   44.7315   34.5423   38.9139 H   0  0  0  0  0  0  0  0  0  0  0  0
   42.9567   32.5080   39.6425 H   0  0  0  0  0  0  0  0  0  0  0  0
   43.9899   31.8631   40.6200 H   0  0  0  0  0  0  0  0  0  0  0  0
   44.8639   32.3177   42.5450 H   0  0  0  0  0  0  0  0  0  0  0  0
   45.8230   32.6278   44.8221 H   0  0  0  0  0  0  0  0  0  0  0  0
   44.4745   36.6940   44.6368 H   0  0  0  0  0  0  0  0  0  0  0  0
   40.4938   31.9596   41.9773 H   0  0  0  0  0  0  0  0  0  0  0  0
   39.7306   31.4557   40.4313 H   0  0  0  0  0  0  0  0  0  0  0  0
   41.3893   32.1452   40.4313 H   0  0  0  0  0  0  0  0  0  0  0  0
   39.6825   33.4013   42.8445 H   0  0  0  0  0  0  0  0  0  0  0  0
   41.1348   34.2797   42.2564 H   0  0  0  0  0  0  0  0  0  0  0  0
   39.5327   35.0919   42.2564 H   0  0  0  0  0  0  0  0  0  0  0  0
   37.7624   34.0892   40.4948 H   0  0  0  0  0  0  0  0  0  0  0  0
   38.4651   32.9074   39.2998 H   0  0  0  0  0  0  0  0  0  0  0  0
   38.0353   32.3392   42.1317 H   0  0  0  0  0  0  0  0  0  0  0  0
   36.9462   31.9644   40.9059 H   0  0  0  0  0  0  0  0  0  0  0  0
  1  6  1  0
  1  7  1  0
  2  1  2  0
  3  4  2  0
  3  2  1  0
  4  5  1  0
  5  6  2  0
  6 17  1  0
  7  8  1  0
  8 11  1  0
  9 10  1  0
  9  8  1  0
 10  8  1  0
 11 16  1  0
 11 12  2  0
 12 13  1  0
 13 14  2  0
 15 14  1  0
 16 15  2  0
 17 18  1  0
 17 19  1  0
 20 17  1  0
 20 21  1  0
  2 22  1  0
  3 23  1  0
  4 24  1  0
  5 25  1  0
  9 26  1  0
  9 27  1  0
 10 28  1  0
 10 29  1  0
 12 30  1  0
 13 31  1  0
 15 32  1  0
 18 33  1  0
 18 34  1  0
 18 35  1  0
 19 36  1  0
 19 37  1  0
 19 38  1  0
 20 39  1  0
 20 40  1  0
 21 41  1  0
 21 42  1  0
M  ISO  8  22  14  23  14  24  14  25  14  26  13  27  13  28  13  29  13
M  ISO  8  30  14  31  14  32  14  33   8  34   8  35   8  36   8  37   8
M  ISO  5  38   8  39   8  40   8  41   5  42   5
M  END
>  <minimizedAffinity>  (1) 
-5.43443155

>  <minimizedRMSD>  (1) 
0.134076953

$$$$
