
     RDKit          3D

 48 51  0  0  0  0  0  0  0  0999 V2000
   45.8740   33.5110   40.0110 C   0  0  0  0  0  0  0  0  0  0  0  0
   46.7000   33.1970   38.8990 C   0  0  0  0  0  0  0  0  0  0  0  0
   46.4520   32.1750   38.1130 C   0  0  0  0  0  0  0  0  0  0  0  0
   45.3680   31.4580   38.4300 C   0  0  0  0  0  0  0  0  0  0  0  0
   44.5410   31.7040   39.4640 C   0  0  0  0  0  0  0  0  0  0  0  0
   44.7490   32.7280   40.3020 C   0  0  0  0  0  0  0  0  0  0  0  0
   46.0310   34.5580   40.9250 O   0  0  0  0  0  0  0  0  0  0  0  0
   46.8900   34.5480   42.0440 C   0  0  0  0  0  0  0  0  0  0  0  0
   48.1540   35.3530   41.8890 C   0  0  0  0  0  0  0  0  0  0  0  0
   48.2070   33.9180   42.1060 C   0  0  0  0  0  0  0  0  0  0  0  0
   46.1130   34.7770   43.2720 C   0  0  0  0  0  0  0  0  0  0  0  0
   46.2090   33.8920   44.3840 C   0  0  0  0  0  0  0  0  0  0  0  0
   45.4890   34.0860   45.5430 C   0  0  0  0  0  0  0  0  0  0  0  0
   44.6760   35.1710   45.5740 N   0  0  0  0  0  0  0  0  0  0  0  0
   44.5930   36.0190   44.4930 C   0  0  0  0  0  0  0  0  0  0  0  0
   45.3050   35.7820   43.4100 N   0  0  0  0  0  0  0  0  0  0  0  0
   43.6530   32.6050   41.3000 C   0  0  0  0  0  0  0  0  0  0  0  0
   42.4800   31.6790   40.8530 C   0  0  0  0  0  0  0  0  0  0  0  0
   44.1410   31.7680   42.4450 C   0  0  0  0  0  0  0  0  0  0  0  0
   42.8830   33.8240   41.5560 C   0  0  0  0  0  0  0  0  0  0  0  0
   42.0970   34.3850   40.4340 C   0  0  0  0  0  0  0  0  0  0  0  0
   42.5450   34.9030   39.2080 C   0  0  0  0  0  0  0  0  0  0  0  0
   41.7240   35.4240   38.2470 C   0  0  0  0  0  0  0  0  0  0  0  0
   40.3940   35.4390   38.4940 N   0  0  0  0  0  0  0  0  0  0  0  0
   39.9360   34.9490   39.6610 C   0  0  0  0  0  0  0  0  0  0  0  0
   40.7420   34.4370   40.6060 N   0  0  0  0  0  0  0  0  0  0  0  0
   47.5750   33.8300   38.6898 H   0  0  0  0  0  0  0  0  0  0  0  0
   47.0913   31.9256   37.2533 H   0  0  0  0  0  0  0  0  0  0  0  0
   45.1321   30.5938   37.7916 H   0  0  0  0  0  0  0  0  0  0  0  0
   43.6730   31.0476   39.6244 H   0  0  0  0  0  0  0  0  0  0  0  0
   48.4242   35.7738   40.9092 H   0  0  0  0  0  0  0  0  0  0  0  0
   48.5853   36.2359   42.3835 H   0  0  0  0  0  0  0  0  0  0  0  0
   48.5777   33.5265   43.0648 H   0  0  0  0  0  0  0  0  0  0  0  0
   48.6798   33.0812   41.5710 H   0  0  0  0  0  0  0  0  0  0  0  0
   46.8810   33.0238   44.3153 H   0  0  0  0  0  0  0  0  0  0  0  0
   45.5695   33.3976   46.3972 H   0  0  0  0  0  0  0  0  0  0  0  0
   43.9308   36.8964   44.5333 H   0  0  0  0  0  0  0  0  0  0  0  0
   41.9710   31.2772   41.7415 H   0  0  0  0  0  0  0  0  0  0  0  0
   41.7644   32.2584   40.2511 H   0  0  0  0  0  0  0  0  0  0  0  0
   42.8774   30.8485   40.2511 H   0  0  0  0  0  0  0  0  0  0  0  0
   43.8615   32.2473   43.3948 H   0  0  0  0  0  0  0  0  0  0  0  0
   43.6838   30.7690   42.3900 H   0  0  0  0  0  0  0  0  0  0  0  0
   45.2356   31.6738   42.3900 H   0  0  0  0  0  0  0  0  0  0  0  0
   42.1800   33.6040   42.3730 H   0  0  0  0  0  0  0  0  0  0  0  0
   43.6392   34.5911   41.7791 H   0  0  0  0  0  0  0  0  0  0  0  0
   43.6266   34.8886   39.0080 H   0  0  0  0  0  0  0  0  0  0  0  0
   42.1313   35.8179   37.3042 H   0  0  0  0  0  0  0  0  0  0  0  0
   38.8525   34.9687   39.8495 H   0  0  0  0  0  0  0  0  0  0  0  0
  1  6  1  0
  1  7  1  0
  2  1  2  0
  3  4  2  0
  3  2  1  0
  4  5  1  0
  5  6  2  0
  6 17  1  0
  7  8  1  0
  8 10  1  0
  8 11  1  0
  9  8  1  0
  9 10  1  0
 11 16  1  0
 11 12  2  0
 12 13  1  0
 13 14  2  0
 15 14  1  0
 16 15  2  0
 17 20  1  0
 17 19  1  0
 18 17  1  0
 21 26  1  0
 21 20  1  0
 22 21  2  0
 23 24  2  0
 23 22  1  0
 24 25  1  0
 25 26  2  0
  2 27  1  0
  3 28  1  0
  4 29  1  0
  5 30  1  0
  9 31  1  0
  9 32  1  0
 10 33  1  0
 10 34  1  0
 12 35  1  0
 13 36  1  0
 15 37  1  0
 18 38  1  0
 18 39  1  0
 18 40  1  0
 19 41  1  0
 19 42  1  0
 19 43  1  0
 20 44  1  0
 20 45  1  0
 22 46  1  0
 23 47  1  0
 25 48  1  0
M  ISO  8  27  14  28  14  29  14  30  14  31  13  32  13  33  13  34  13
M  ISO  8  35  14  36  14  37  14  38   8  39   8  40   8  41   8  42   8
M  ISO  6  43   8  44   8  45   8  46  14  47  14  48  14
M  END
>  <minimizedAffinity>  (1) 
-5.40993023

>  <minimizedRMSD>  (1) 
4.73758078

$$$$
