
     RDKit          3D

 45 48  0  0  0  0  0  0  0  0999 V2000
   41.6400   34.7200   39.7790 C   0  0  0  0  0  0  0  0  0  0  0  0
   41.9730   35.7390   38.8620 C   0  0  0  0  0  0  0  0  0  0  0  0
   41.2980   35.9200   37.7390 C   0  0  0  0  0  0  0  0  0  0  0  0
   40.2870   35.0740   37.5440 C   0  0  0  0  0  0  0  0  0  0  0  0
   39.9070   34.0820   38.3730 C   0  0  0  0  0  0  0  0  0  0  0  0
   40.5470   33.8490   39.5160 C   0  0  0  0  0  0  0  0  0  0  0  0
   42.2780   34.4190   40.9890 O   0  0  0  0  0  0  0  0  0  0  0  0
   43.5380   33.8100   41.1240 C   0  0  0  0  0  0  0  0  0  0  0  0
   44.4310   33.9220   39.9150 C   0  0  0  0  0  0  0  0  0  0  0  0
   43.9940   32.6130   40.4160 C   0  0  0  0  0  0  0  0  0  0  0  0
   44.1390   34.1790   42.4230 C   0  0  0  0  0  0  0  0  0  0  0  0
   44.8720   33.2380   43.1880 C   0  0  0  0  0  0  0  0  0  0  0  0
   45.4400   33.5460   44.4040 C   0  0  0  0  0  0  0  0  0  0  0  0
   45.2610   34.8210   44.8380 N   0  0  0  0  0  0  0  0  0  0  0  0
   44.5470   35.7230   44.0830 C   0  0  0  0  0  0  0  0  0  0  0  0
   44.0270   35.3640   42.9280 N   0  0  0  0  0  0  0  0  0  0  0  0
   39.8470   32.7000   40.1490 C   0  0  0  0  0  0  0  0  0  0  0  0
   40.7070   31.4140   40.1520 C   0  0  0  0  0  0  0  0  0  0  0  0
   39.6980   32.9300   41.6060 C   0  0  0  0  0  0  0  0  0  0  0  0
   38.6870   32.1910   39.3990 C   0  0  0  0  0  0  0  0  0  0  0  0
   38.1300   31.0430   40.2110 C   0  0  0  0  0  0  0  0  0  0  0  0
   38.1510   29.8030   39.6330 N   0  0  0  0  0  0  0  0  0  0  0  0
   37.6280   28.9430   40.4560 O   0  0  0  0  0  0  0  0  0  0  0  0
   37.2540   29.5310   41.5590 C   0  0  0  0  0  0  0  0  0  0  0  0
   37.5530   30.8300   41.4320 N   0  0  0  0  0  0  0  0  0  0  0  0
   42.8200   36.4035   39.0878 H   0  0  0  0  0  0  0  0  0  0  0  0
   41.5526   36.7112   37.0185 H   0  0  0  0  0  0  0  0  0  0  0  0
   39.7071   35.1973   36.6175 H   0  0  0  0  0  0  0  0  0  0  0  0
   39.0488   33.4509   38.0988 H   0  0  0  0  0  0  0  0  0  0  0  0
   45.4791   34.2359   40.0288 H   0  0  0  0  0  0  0  0  0  0  0  0
   44.3825   34.4485   38.9504 H   0  0  0  0  0  0  0  0  0  0  0  0
   43.2757   32.0185   39.8324 H   0  0  0  0  0  0  0  0  0  0  0  0
   44.5178   31.6950   40.7207 H   0  0  0  0  0  0  0  0  0  0  0  0
   44.9924   32.2182   42.7937 H   0  0  0  0  0  0  0  0  0  0  0  0
   46.0045   32.8047   44.9886 H   0  0  0  0  0  0  0  0  0  0  0  0
   44.4096   36.7518   44.4472 H   0  0  0  0  0  0  0  0  0  0  0  0
   40.9097   31.1109   41.1898 H   0  0  0  0  0  0  0  0  0  0  0  0
   40.1648   30.6091   39.6342 H   0  0  0  0  0  0  0  0  0  0  0  0
   41.6580   31.6076   39.6342 H   0  0  0  0  0  0  0  0  0  0  0  0
   40.2153   32.1315   42.1580 H   0  0  0  0  0  0  0  0  0  0  0  0
   40.1379   33.9029   41.8705 H   0  0  0  0  0  0  0  0  0  0  0  0
   38.6303   32.9263   41.8705 H   0  0  0  0  0  0  0  0  0  0  0  0
   37.9297   32.9808   39.2859 H   0  0  0  0  0  0  0  0  0  0  0  0
   38.9748   31.8647   38.3887 H   0  0  0  0  0  0  0  0  0  0  0  0
   36.7823   29.0505   42.4288 H   0  0  0  0  0  0  0  0  0  0  0  0
  1  7  1  0
  2  1  2  0
  3  2  1  0
  4  3  2  0
  4  5  1  0
  5  6  2  0
  6  1  1  0
  6 17  1  0
  7  8  1  0
  8 11  1  0
  9 10  1  0
  9  8  1  0
 10  8  1  0
 11 16  1  0
 11 12  2  0
 12 13  1  0
 13 14  2  0
 15 14  1  0
 16 15  2  0
 17 18  1  0
 17 19  1  0
 20 17  1  0
 20 21  1  0
 21 25  1  0
 22 21  2  0
 22 23  1  0
 23 24  1  0
 25 24  2  0
  2 26  1  0
  3 27  1  0
  4 28  1  0
  5 29  1  0
  9 30  1  0
  9 31  1  0
 10 32  1  0
 10 33  1  0
 12 34  1  0
 13 35  1  0
 15 36  1  0
 18 37  1  0
 18 38  1  0
 18 39  1  0
 19 40  1  0
 19 41  1  0
 19 42  1  0
 20 43  1  0
 20 44  1  0
 24 45  1  0
M  ISO  8  26  14  27  14  28  14  29  14  30  13  31  13  32  13  33  13
M  ISO  8  34  14  35  14  36  14  37   8  38   8  39   8  40   8  41   8
M  ISO  4  42   8  43   8  44   8  45  14
M  END
>  <minimizedAffinity>  (1) 
-5.38057041

>  <minimizedRMSD>  (1) 
1.40779591

$$$$
