
     RDKit          3D

 49 52  0  0  0  0  0  0  0  0999 V2000
   42.8070   34.6090   41.5590 C   0  0  0  0  0  0  0  0  0  0  0  0
   41.6970   35.4910   41.6360 C   0  0  0  0  0  0  0  0  0  0  0  0
   41.0390   35.8790   40.5680 C   0  0  0  0  0  0  0  0  0  0  0  0
   41.4840   35.3830   39.4100 C   0  0  0  0  0  0  0  0  0  0  0  0
   42.5260   34.5400   39.2630 C   0  0  0  0  0  0  0  0  0  0  0  0
   43.2350   34.1160   40.3170 C   0  0  0  0  0  0  0  0  0  0  0  0
   43.5910   34.1300   42.6110 O   0  0  0  0  0  0  0  0  0  0  0  0
   44.7130   34.7810   43.1610 C   0  0  0  0  0  0  0  0  0  0  0  0
   44.4080   35.8090   44.2180 C   0  0  0  0  0  0  0  0  0  0  0  0
   45.0580   36.1980   42.9750 C   0  0  0  0  0  0  0  0  0  0  0  0
   45.7590   33.7950   43.4790 C   0  0  0  0  0  0  0  0  0  0  0  0
   47.1330   34.0610   43.1900 C   0  0  0  0  0  0  0  0  0  0  0  0
   48.1310   33.1540   43.4770 C   0  0  0  0  0  0  0  0  0  0  0  0
   47.7370   31.9910   44.0510 N   0  0  0  0  0  0  0  0  0  0  0  0
   46.4050   31.7440   44.3270 C   0  0  0  0  0  0  0  0  0  0  0  0
   45.4980   32.6540   44.0260 N   0  0  0  0  0  0  0  0  0  0  0  0
   44.2890   33.2520   39.7260 C   0  0  0  0  0  0  0  0  0  0  0  0
   45.7440   33.7800   39.9390 C   0  0  0  0  0  0  0  0  0  0  0  0
   44.4110   32.0010   40.5380 C   0  0  0  0  0  0  0  0  0  0  0  0
   44.3000   33.1730   38.2610 C   0  0  0  0  0  0  0  0  0  0  0  0
   45.4210   32.4190   37.6410 C   0  0  0  0  0  0  0  0  0  0  0  0
   46.3570   33.1720   36.9190 C   0  0  0  0  0  0  0  0  0  0  0  0
   47.4720   32.7060   36.2550 C   0  0  0  0  0  0  0  0  0  0  0  0
   47.6890   31.3460   36.3100 C   0  0  0  0  0  0  0  0  0  0  0  0
   46.7770   30.5920   37.0160 C   0  0  0  0  0  0  0  0  0  0  0  0
   45.6990   31.0770   37.6520 N   0  0  0  0  0  0  0  0  0  0  0  0
   41.3782   35.8610   42.6216 H   0  0  0  0  0  0  0  0  0  0  0  0
   40.1808   36.5649   40.6229 H   0  0  0  0  0  0  0  0  0  0  0  0
   40.9537   35.6893   38.4962 H   0  0  0  0  0  0  0  0  0  0  0  0
   42.7996   34.1931   38.2556 H   0  0  0  0  0  0  0  0  0  0  0  0
   43.3673   36.1074   44.4129 H   0  0  0  0  0  0  0  0  0  0  0  0
   44.6384   35.9209   45.2878 H   0  0  0  0  0  0  0  0  0  0  0  0
   46.1135   36.5075   42.9861 H   0  0  0  0  0  0  0  0  0  0  0  0
   44.8393   36.9441   42.1968 H   0  0  0  0  0  0  0  0  0  0  0  0
   47.4030   35.0200   42.7237 H   0  0  0  0  0  0  0  0  0  0  0  0
   49.1875   33.3625   43.2528 H   0  0  0  0  0  0  0  0  0  0  0  0
   46.1032   30.7951   44.7945 H   0  0  0  0  0  0  0  0  0  0  0  0
   45.9525   33.8557   41.0164 H   0  0  0  0  0  0  0  0  0  0  0  0
   46.4583   33.0838   39.4753 H   0  0  0  0  0  0  0  0  0  0  0  0
   45.8455   34.7723   39.4753 H   0  0  0  0  0  0  0  0  0  0  0  0
   44.3863   32.2546   41.6081 H   0  0  0  0  0  0  0  0  0  0  0  0
   43.5743   31.3272   40.3014 H   0  0  0  0  0  0  0  0  0  0  0  0
   45.3621   31.5016   40.3014 H   0  0  0  0  0  0  0  0  0  0  0  0
   43.3615   32.6934   37.9461 H   0  0  0  0  0  0  0  0  0  0  0  0
   44.4243   34.2103   37.9167 H   0  0  0  0  0  0  0  0  0  0  0  0
   46.1824   34.2573   36.8774 H   0  0  0  0  0  0  0  0  0  0  0  0
   48.1498   33.3813   35.7122 H   0  0  0  0  0  0  0  0  0  0  0  0
   48.5532   30.8824   35.8117 H   0  0  0  0  0  0  0  0  0  0  0  0
   46.9458   29.5060   37.0621 H   0  0  0  0  0  0  0  0  0  0  0  0
  1  2  2  0
  1  7  1  0
  3  2  1  0
  4  3  2  0
  5  4  1  0
  5  6  2  0
  6  1  1  0
  7  8  1  0
  8 11  1  0
  8  9  1  0
 10  8  1  0
 10  9  1  0
 11 16  2  0
 12 13  2  0
 12 11  1  0
 13 14  1  0
 14 15  2  0
 16 15  1  0
 17 18  1  0
 17  6  1  0
 17 19  1  0
 20 17  1  0
 21 26  1  0
 21 20  1  0
 22 21  2  0
 23 24  2  0
 23 22  1  0
 24 25  1  0
 25 26  2  0
  2 27  1  0
  3 28  1  0
  4 29  1  0
  5 30  1  0
  9 31  1  0
  9 32  1  0
 10 33  1  0
 10 34  1  0
 12 35  1  0
 13 36  1  0
 15 37  1  0
 18 38  1  0
 18 39  1  0
 18 40  1  0
 19 41  1  0
 19 42  1  0
 19 43  1  0
 20 44  1  0
 20 45  1  0
 22 46  1  0
 23 47  1  0
 24 48  1  0
 25 49  1  0
M  ISO  8  27  14  28  14  29  14  30  14  31  13  32  13  33  13  34  13
M  ISO  8  35  14  36  14  37  14  38   8  39   8  40   8  41   8  42   8
M  ISO  7  43   8  44   8  45   8  46  14  47  14  48  14  49  14
M  END
>  <minimizedAffinity>  (1) 
-4.7583003

>  <minimizedRMSD>  (1) 
6.28283215

$$$$
