
     RDKit          3D

 23 24  0  0  0  0  0  0  0  0999 V2000
   45.8990   32.6020   46.4870 C   0  0  0  0  0  0  0  0  0  0  0  0
   45.4530   33.8000   45.9540 C   0  0  0  0  0  0  0  0  0  0  0  0
   45.9480   34.2750   44.7560 C   0  0  0  0  0  0  0  0  0  0  0  0
   46.9050   33.5510   44.0690 C   0  0  0  0  0  0  0  0  0  0  0  0
   47.3740   32.3530   44.5700 C   0  0  0  0  0  0  0  0  0  0  0  0
   46.8600   31.8900   45.7840 C   0  0  0  0  0  0  0  0  0  0  0  0
   47.2480   34.2900   40.4880 C   0  0  0  0  0  0  0  0  0  0  0  0
   48.4410   35.0450   40.4450 C   0  0  0  0  0  0  0  0  0  0  0  0
   49.0980   35.2820   41.6510 C   0  0  0  0  0  0  0  0  0  0  0  0
   48.5700   34.7810   42.8110 N   0  0  0  0  0  0  0  0  0  0  0  0
   47.4210   34.0590   42.8090 C   0  0  0  0  0  0  0  0  0  0  0  0
   46.7700   33.8180   41.6570 N   0  0  0  0  0  0  0  0  0  0  0  0
   45.2400   32.0410   48.0100 S   0  0  0  0  0  0  0  0  0  0  0  0
   46.2860   32.2370   49.0960 O   0  0  0  0  0  0  0  0  0  0  0  0
   44.8320   30.6040   47.8930 O   0  0  0  0  0  0  0  0  0  0  0  0
   44.6920   34.3825   46.4940 H   0  0  0  0  0  0  0  0  0  0  0  0
   45.5814   35.2286   44.3483 H   0  0  0  0  0  0  0  0  0  0  0  0
   48.1356   31.7757   44.0254 H   0  0  0  0  0  0  0  0  0  0  0  0
   47.2266   30.9368   46.1927 H   0  0  0  0  0  0  0  0  0  0  0  0
   46.7018   34.0844   39.5556 H   0  0  0  0  0  0  0  0  0  0  0  0
   48.8370   35.4317   39.4944 H   0  0  0  0  0  0  0  0  0  0  0  0
   50.0305   35.8651   41.6709 H   0  0  0  0  0  0  0  0  0  0  0  0
   44.1219   32.7609   48.3394 H   0  0  0  0  0  0  0  0  0  0  0  0
  1 13  1  0
  2  1  2  0
  3  2  1  0
  4  5  1  0
  4  3  2  0
  5  6  2  0
  6  1  1  0
  7 12  2  0
  8  7  1  0
  8  9  2  0
  9 10  1  0
 11 10  2  0
 11  4  1  0
 12 11  1  0
 13 14  2  0
 15 13  2  0
  2 16  1  0
  3 17  1  0
  5 18  1  0
  6 19  1  0
  7 20  1  0
  8 21  1  0
  9 22  1  0
 13 23  1  0
M  ISO  8  16  14  17  14  18  14  19  14  20  14  21  14  22  14  23  11
M  END
>  <minimizedAffinity>  (1) 
-4.47967482

>  <minimizedRMSD>  (1) 
3.61262321

$$$$
