
     RDKit          3D

 28 30  0  0  0  0  0  0  0  0999 V2000
   46.4530   32.1360   46.1780 C   0  0  0  0  0  0  0  0  0  0  0  0
   47.2250   31.4250   45.2630 C   0  0  0  0  0  0  0  0  0  0  0  0
   47.5600   31.9770   44.0390 C   0  0  0  0  0  0  0  0  0  0  0  0
   47.1250   33.2570   43.7060 C   0  0  0  0  0  0  0  0  0  0  0  0
   46.3640   33.9750   44.5880 C   0  0  0  0  0  0  0  0  0  0  0  0
   46.0400   33.3970   45.8170 C   0  0  0  0  0  0  0  0  0  0  0  0
   48.7000   35.3860   41.1640 C   0  0  0  0  0  0  0  0  0  0  0  0
   48.1930   34.8520   39.9690 C   0  0  0  0  0  0  0  0  0  0  0  0
   47.3120   33.7630   40.0590 C   0  0  0  0  0  0  0  0  0  0  0  0
   46.9810   33.2640   41.2980 N   0  0  0  0  0  0  0  0  0  0  0  0
   47.4930   33.8090   42.4170 C   0  0  0  0  0  0  0  0  0  0  0  0
   48.3440   34.8610   42.3530 N   0  0  0  0  0  0  0  0  0  0  0  0
   46.0440   31.3960   47.7010 S   0  0  0  0  0  0  0  0  0  0  0  0
   45.0710   30.2730   47.4660 O   0  0  0  0  0  0  0  0  0  0  0  0
   45.4420   32.4390   48.6200 O   0  0  0  0  0  0  0  0  0  0  0  0
   47.4810   30.7180   48.4230 C   0  0  0  0  0  0  0  0  0  0  0  0
   47.9650   29.5220   48.0480 N   0  0  0  0  0  0  0  0  0  0  0  0
   49.0270   29.3120   48.7670 O   0  0  0  0  0  0  0  0  0  0  0  0
   49.2670   30.2900   49.5840 C   0  0  0  0  0  0  0  0  0  0  0  0
   48.2880   31.2080   49.3820 N   0  0  0  0  0  0  0  0  0  0  0  0
   47.5727   30.4126   45.5161 H   0  0  0  0  0  0  0  0  0  0  0  0
   48.1716   31.4030   43.3273 H   0  0  0  0  0  0  0  0  0  0  0  0
   46.0147   34.9867   44.3340 H   0  0  0  0  0  0  0  0  0  0  0  0
   45.4288   33.9745   46.5262 H   0  0  0  0  0  0  0  0  0  0  0  0
   49.3931   36.2395   41.1297 H   0  0  0  0  0  0  0  0  0  0  0  0
   48.4770   35.2734   38.9934 H   0  0  0  0  0  0  0  0  0  0  0  0
   46.8903   33.3129   39.1482 H   0  0  0  0  0  0  0  0  0  0  0  0
   50.0995   30.3615   50.2994 H   0  0  0  0  0  0  0  0  0  0  0  0
  1 13  1  0
  2  1  2  0
  3  2  1  0
  4  3  2  0
  4  5  1  0
  5  6  2  0
  6  1  1  0
  7 12  2  0
  8  9  2  0
  8  7  1  0
  9 10  1  0
 10 11  2  0
 11  4  1  0
 12 11  1  0
 13 16  1  0
 13 15  2  0
 14 13  2  0
 16 20  1  0
 17 16  2  0
 17 18  1  0
 18 19  1  0
 20 19  2  0
  2 21  1  0
  3 22  1  0
  5 23  1  0
  6 24  1  0
  7 25  1  0
  8 26  1  0
  9 27  1  0
 19 28  1  0
M  ISO  8  21  14  22  14  23  14  24  14  25  14  26  14  27  14  28  14
M  END
>  <minimizedAffinity>  (1) 
-5.00440884

>  <minimizedRMSD>  (1) 
3.82721066

$$$$
