
     RDKit          3D

 30 32  0  0  0  0  0  0  0  0999 V2000
   46.7100   31.1730   45.8180 C   0  0  0  0  0  0  0  0  0  0  0  0
   46.2980   32.4800   45.7470 C   0  0  0  0  0  0  0  0  0  0  0  0
   46.6940   33.3170   44.7280 C   0  0  0  0  0  0  0  0  0  0  0  0
   47.5240   32.8570   43.7370 C   0  0  0  0  0  0  0  0  0  0  0  0
   47.9580   31.5580   43.7680 C   0  0  0  0  0  0  0  0  0  0  0  0
   47.5410   30.7350   44.8140 C   0  0  0  0  0  0  0  0  0  0  0  0
   47.7320   34.4810   40.4540 C   0  0  0  0  0  0  0  0  0  0  0  0
   48.7390   35.4390   40.6490 C   0  0  0  0  0  0  0  0  0  0  0  0
   49.3280   35.5040   41.9130 C   0  0  0  0  0  0  0  0  0  0  0  0
   48.9170   34.6520   42.9080 N   0  0  0  0  0  0  0  0  0  0  0  0
   47.9370   33.7420   42.6660 C   0  0  0  0  0  0  0  0  0  0  0  0
   47.3470   33.6550   41.4490 N   0  0  0  0  0  0  0  0  0  0  0  0
   46.2030   30.1560   47.1470 S   0  0  0  0  0  0  0  0  0  0  0  0
   47.0090   28.8890   47.1500 O   0  0  0  0  0  0  0  0  0  0  0  0
   44.7250   29.8540   47.0060 O   0  0  0  0  0  0  0  0  0  0  0  0
   46.4390   30.9970   48.6730 C   0  0  0  0  0  0  0  0  0  0  0  0
   45.2870   31.1630   49.6160 C   0  0  0  0  0  0  0  0  0  0  0  0
   45.7900   32.3680   48.8780 C   0  0  0  0  0  0  0  0  0  0  0  0
   45.6304   32.8713   46.5288 H   0  0  0  0  0  0  0  0  0  0  0  0
   46.3433   34.3594   44.7083 H   0  0  0  0  0  0  0  0  0  0  0  0
   48.6233   31.1710   42.9821 H   0  0  0  0  0  0  0  0  0  0  0  0
   47.8914   29.6925   44.8366 H   0  0  0  0  0  0  0  0  0  0  0  0
   47.2468   34.4020   39.4700 H   0  0  0  0  0  0  0  0  0  0  0  0
   49.0519   36.1124   39.8375 H   0  0  0  0  0  0  0  0  0  0  0  0
   50.1222   36.2386   42.1120 H   0  0  0  0  0  0  0  0  0  0  0  0
   47.4583   30.5913   48.7532 H   0  0  0  0  0  0  0  0  0  0  0  0
   44.3060   30.7361   49.3602 H   0  0  0  0  0  0  0  0  0  0  0  0
   45.1204   30.9245   50.6768 H   0  0  0  0  0  0  0  0  0  0  0  0
   46.3307   33.1597   49.4172 H   0  0  0  0  0  0  0  0  0  0  0  0
   45.3404   33.1268   48.2207 H   0  0  0  0  0  0  0  0  0  0  0  0
  1 13  1  0
  2  1  2  0
  3  2  1  0
  4  5  1  0
  4  3  2  0
  5  6  2  0
  6  1  1  0
  7  8  2  0
  7 12  1  0
  8  9  1  0
  9 10  2  0
 11 10  1  0
 11  4  1  0
 12 11  2  0
 13 14  2  0
 13 16  1  0
 15 13  2  0
 16 18  1  0
 16 17  1  0
 18 17  1  0
  2 19  1  0
  3 20  1  0
  5 21  1  0
  6 22  1  0
  7 23  1  0
  8 24  1  0
  9 25  1  0
 16 26  1  0
 17 27  1  0
 17 28  1  0
 18 29  1  0
 18 30  1  0
M  ISO  8  19  14  20  14  21  14  22  14  23  14  24  14  25  14  26  13
M  ISO  4  27  13  28  13  29  13  30  13
M  END
>  <minimizedAffinity>  (1) 
-4.93865252

>  <minimizedRMSD>  (1) 
2.00033641

$$$$
