
     RDKit          3D

 29 30  0  0  0  0  0  0  0  0999 V2000
   46.6500   31.0790   46.0930 C   0  0  0  0  0  0  0  0  0  0  0  0
   46.3260   32.4150   46.0810 C   0  0  0  0  0  0  0  0  0  0  0  0
   46.7040   33.2520   45.0550 C   0  0  0  0  0  0  0  0  0  0  0  0
   47.4310   32.7630   43.9980 C   0  0  0  0  0  0  0  0  0  0  0  0
   47.7740   31.4380   43.9700 C   0  0  0  0  0  0  0  0  0  0  0  0
   47.3770   30.6160   45.0220 C   0  0  0  0  0  0  0  0  0  0  0  0
   47.4240   34.5360   40.7830 C   0  0  0  0  0  0  0  0  0  0  0  0
   48.5980   35.3290   40.8780 C   0  0  0  0  0  0  0  0  0  0  0  0
   49.3540   35.2270   42.0450 C   0  0  0  0  0  0  0  0  0  0  0  0
   48.9520   34.3840   43.0480 N   0  0  0  0  0  0  0  0  0  0  0  0
   47.8270   33.6450   42.9180 C   0  0  0  0  0  0  0  0  0  0  0  0
   47.0680   33.7190   41.7980 N   0  0  0  0  0  0  0  0  0  0  0  0
   46.1700   30.0660   47.4340 S   0  0  0  0  0  0  0  0  0  0  0  0
   46.9830   28.8000   47.4250 O   0  0  0  0  0  0  0  0  0  0  0  0
   44.6920   29.7560   47.3160 O   0  0  0  0  0  0  0  0  0  0  0  0
   46.4690   30.9050   48.9610 C   0  0  0  0  0  0  0  0  0  0  0  0
   45.2140   31.4440   49.5760 C   0  0  0  0  0  0  0  0  0  0  0  0
   45.7456   32.8290   46.9187 H   0  0  0  0  0  0  0  0  0  0  0  0
   46.4228   34.3151   45.0823 H   0  0  0  0  0  0  0  0  0  0  0  0
   48.3541   31.0289   43.1297 H   0  0  0  0  0  0  0  0  0  0  0  0
   47.6567   29.5525   44.9947 H   0  0  0  0  0  0  0  0  0  0  0  0
   46.8010   34.5873   39.8779 H   0  0  0  0  0  0  0  0  0  0  0  0
   48.9002   35.9997   40.0602 H   0  0  0  0  0  0  0  0  0  0  0  0
   50.2718   35.8223   42.1605 H   0  0  0  0  0  0  0  0  0  0  0  0
   46.9322   30.1992   49.6662 H   0  0  0  0  0  0  0  0  0  0  0  0
   47.1300   31.7584   48.7490 H   0  0  0  0  0  0  0  0  0  0  0  0
   45.2980   31.4079   50.6722 H   0  0  0  0  0  0  0  0  0  0  0  0
   45.0656   32.4852   49.2537 H   0  0  0  0  0  0  0  0  0  0  0  0
   44.3567   30.8347   49.2537 H   0  0  0  0  0  0  0  0  0  0  0  0
  1 13  1  0
  2  1  2  0
  3  2  1  0
  4  3  2  0
  5  4  1  0
  5  6  2  0
  6  1  1  0
  7  8  2  0
  7 12  1  0
  8  9  1  0
  9 10  2  0
 11 10  1  0
 11  4  1  0
 12 11  2  0
 13 16  1  0
 14 13  2  0
 15 13  2  0
 16 17  1  0
  2 18  1  0
  3 19  1  0
  5 20  1  0
  6 21  1  0
  7 22  1  0
  8 23  1  0
  9 24  1  0
 16 25  1  0
 16 26  1  0
 17 27  1  0
 17 28  1  0
 17 29  1  0
M  ISO  8  18  14  19  14  20  14  21  14  22  14  23  14  24  14  25   8
M  ISO  4  26   8  27   8  28   8  29   8
M  END
>  <minimizedAffinity>  (1) 
-4.666605

>  <minimizedRMSD>  (1) 
1.88621461

$$$$
