
     RDKit          3D

 32 33  0  0  0  0  0  0  0  0999 V2000
   46.7440   31.5310   45.6470 C   0  0  0  0  0  0  0  0  0  0  0  0
   46.3520   32.8400   45.4950 C   0  0  0  0  0  0  0  0  0  0  0  0
   46.7330   33.5960   44.4100 C   0  0  0  0  0  0  0  0  0  0  0  0
   47.5280   33.0480   43.4350 C   0  0  0  0  0  0  0  0  0  0  0  0
   47.9380   31.7470   43.5490 C   0  0  0  0  0  0  0  0  0  0  0  0
   47.5390   31.0020   44.6570 C   0  0  0  0  0  0  0  0  0  0  0  0
   47.9590   34.1820   39.9700 C   0  0  0  0  0  0  0  0  0  0  0  0
   48.7070   35.3730   40.1340 C   0  0  0  0  0  0  0  0  0  0  0  0
   49.0480   35.7590   41.4390 C   0  0  0  0  0  0  0  0  0  0  0  0
   48.6450   34.9740   42.4880 N   0  0  0  0  0  0  0  0  0  0  0  0
   47.9300   33.8430   42.2900 C   0  0  0  0  0  0  0  0  0  0  0  0
   47.5880   33.4470   41.0400 N   0  0  0  0  0  0  0  0  0  0  0  0
   46.2620   30.6270   47.0600 S   0  0  0  0  0  0  0  0  0  0  0  0
   47.3720   29.6950   47.4680 O   0  0  0  0  0  0  0  0  0  0  0  0
   45.0010   29.8500   46.7510 O   0  0  0  0  0  0  0  0  0  0  0  0
   45.9560   31.7270   48.4110 C   0  0  0  0  0  0  0  0  0  0  0  0
   45.3830   30.8930   49.5670 C   0  0  0  0  0  0  0  0  0  0  0  0
   44.9710   32.7870   48.0340 C   0  0  0  0  0  0  0  0  0  0  0  0
   45.7136   33.2976   46.2651 H   0  0  0  0  0  0  0  0  0  0  0  0
   46.3998   34.6408   44.3242 H   0  0  0  0  0  0  0  0  0  0  0  0
   48.5752   31.2947   42.7748 H   0  0  0  0  0  0  0  0  0  0  0  0
   47.8707   29.9567   44.7427 H   0  0  0  0  0  0  0  0  0  0  0  0
   47.6770   33.8518   38.9593 H   0  0  0  0  0  0  0  0  0  0  0  0
   49.0110   35.9763   39.2659 H   0  0  0  0  0  0  0  0  0  0  0  0
   49.6289   36.6759   41.6174 H   0  0  0  0  0  0  0  0  0  0  0  0
   46.8938   32.2248   48.6987 H   0  0  0  0  0  0  0  0  0  0  0  0
   45.6881   31.3371   50.5260 H   0  0  0  0  0  0  0  0  0  0  0  0
   44.2850   30.8810   49.5014 H   0  0  0  0  0  0  0  0  0  0  0  0
   45.7656   29.8638   49.5014 H   0  0  0  0  0  0  0  0  0  0  0  0
   44.5515   33.2385   48.9451 H   0  0  0  0  0  0  0  0  0  0  0  0
   45.4764   33.5625   47.4398 H   0  0  0  0  0  0  0  0  0  0  0  0
   44.1605   32.3398   47.4398 H   0  0  0  0  0  0  0  0  0  0  0  0
  1 13  1  0
  2  1  2  0
  3  2  1  0
  4  5  1  0
  4  3  2  0
  5  6  2  0
  6  1  1  0
  7  8  2  0
  7 12  1  0
  8  9  1  0
  9 10  2  0
 11 10  1  0
 11  4  1  0
 12 11  2  0
 13 14  2  0
 13 16  1  0
 15 13  2  0
 16 17  1  0
 18 16  1  0
  2 19  1  0
  3 20  1  0
  5 21  1  0
  6 22  1  0
  7 23  1  0
  8 24  1  0
  9 25  1  0
 16 26  1  0
 17 27  1  0
 17 28  1  0
 17 29  1  0
 18 30  1  0
 18 31  1  0
 18 32  1  0
M  ISO  8  19  14  20  14  21  14  22  14  23  14  24  14  25  14  26   8
M  ISO  6  27   8  28   8  29   8  30   8  31   8  32   8
M  END
>  <minimizedAffinity>  (1) 
-4.56965685

>  <minimizedRMSD>  (1) 
1.68727291

$$$$
