
     RDKit          3D

 26 27  0  0  0  0  0  0  0  0999 V2000
   46.4810   31.6350   46.2730 C   0  0  0  0  0  0  0  0  0  0  0  0
   46.1030   32.9420   46.0710 C   0  0  0  0  0  0  0  0  0  0  0  0
   46.4860   33.6560   44.9590 C   0  0  0  0  0  0  0  0  0  0  0  0
   47.2740   33.0670   44.0030 C   0  0  0  0  0  0  0  0  0  0  0  0
   47.6750   31.7670   44.1610 C   0  0  0  0  0  0  0  0  0  0  0  0
   47.2690   31.0720   45.3000 C   0  0  0  0  0  0  0  0  0  0  0  0
   47.3360   34.3850   40.5750 C   0  0  0  0  0  0  0  0  0  0  0  0
   48.4760   35.2320   40.6050 C   0  0  0  0  0  0  0  0  0  0  0  0
   49.1840   35.3220   41.7960 C   0  0  0  0  0  0  0  0  0  0  0  0
   48.7690   34.6050   42.8900 N   0  0  0  0  0  0  0  0  0  0  0  0
   47.6820   33.8110   42.8260 C   0  0  0  0  0  0  0  0  0  0  0  0
   46.9690   33.7020   41.6760 N   0  0  0  0  0  0  0  0  0  0  0  0
   45.9880   30.7930   47.7250 S   0  0  0  0  0  0  0  0  0  0  0  0
   47.0280   29.7730   48.0930 O   0  0  0  0  0  0  0  0  0  0  0  0
   44.6580   30.1030   47.4580 O   0  0  0  0  0  0  0  0  0  0  0  0
   45.6430   31.9320   49.0250 C   0  0  0  0  0  0  0  0  0  0  0  0
   45.4718   33.4341   46.8256 H   0  0  0  0  0  0  0  0  0  0  0  0
   46.1602   34.6995   44.8365 H   0  0  0  0  0  0  0  0  0  0  0  0
   48.3060   31.2797   43.4031 H   0  0  0  0  0  0  0  0  0  0  0  0
   47.5940   30.0284   45.4240 H   0  0  0  0  0  0  0  0  0  0  0  0
   46.7508   34.2867   39.6488 H   0  0  0  0  0  0  0  0  0  0  0  0
   48.7874   35.7977   39.7145 H   0  0  0  0  0  0  0  0  0  0  0  0
   50.0738   35.9653   41.8623 H   0  0  0  0  0  0  0  0  0  0  0  0
   45.7930   31.4368   49.9957 H   0  0  0  0  0  0  0  0  0  0  0  0
   46.3199   32.7954   48.9453 H   0  0  0  0  0  0  0  0  0  0  0  0
   44.6008   32.2746   48.9453 H   0  0  0  0  0  0  0  0  0  0  0  0
  1 13  1  0
  2  1  2  0
  3  2  1  0
  4  5  1  0
  4  3  2  0
  5  6  2  0
  6  1  1  0
  7  8  2  0
  7 12  1  0
  8  9  1  0
  9 10  2  0
 11 10  1  0
 11  4  1  0
 12 11  2  0
 13 14  2  0
 13 16  1  0
 15 13  2  0
  2 17  1  0
  3 18  1  0
  5 19  1  0
  6 20  1  0
  7 21  1  0
  8 22  1  0
  9 23  1  0
 16 24  1  0
 16 25  1  0
 16 26  1  0
M  ISO  8  17  14  18  14  19  14  20  14  21  14  22  14  23  14  24   8
M  ISO  2  25   8  26   8
M  END
>  <minimizedAffinity>  (1) 
-4.51058102

>  <minimizedRMSD>  (1) 
1.14951921

$$$$
