
     RDKit          3D

 31 33  0  0  0  0  0  0  0  0999 V2000
   47.8290   30.4000   44.8270 C   0  0  0  0  0  0  0  0  0  0  0  0
   47.1310   31.5810   44.9210 C   0  0  0  0  0  0  0  0  0  0  0  0
   47.3250   32.6150   44.0300 C   0  0  0  0  0  0  0  0  0  0  0  0
   48.2350   32.4880   43.0110 C   0  0  0  0  0  0  0  0  0  0  0  0
   48.9520   31.3280   42.8790 C   0  0  0  0  0  0  0  0  0  0  0  0
   48.7340   30.3000   43.7950 C   0  0  0  0  0  0  0  0  0  0  0  0
   48.2230   34.4360   39.8960 C   0  0  0  0  0  0  0  0  0  0  0  0
   48.8060   35.6610   40.3090 C   0  0  0  0  0  0  0  0  0  0  0  0
   49.1890   35.7820   41.6540 C   0  0  0  0  0  0  0  0  0  0  0  0
   48.9870   34.7280   42.5040 N   0  0  0  0  0  0  0  0  0  0  0  0
   48.4300   33.5800   42.0740 C   0  0  0  0  0  0  0  0  0  0  0  0
   48.0490   33.4310   40.7810 N   0  0  0  0  0  0  0  0  0  0  0  0
   47.5670   29.1330   46.0040 S   0  0  0  0  0  0  0  0  0  0  0  0
   48.8770   28.5050   46.3740 O   0  0  0  0  0  0  0  0  0  0  0  0
   46.6250   28.1000   45.4110 O   0  0  0  0  0  0  0  0  0  0  0  0
   46.7080   29.7830   47.3820 C   0  0  0  0  0  0  0  0  0  0  0  0
   45.3890   29.5630   47.7390 C   0  0  0  0  0  0  0  0  0  0  0  0
   44.9170   30.1730   48.8640 C   0  0  0  0  0  0  0  0  0  0  0  0
   45.7210   30.9670   49.6000 N   0  0  0  0  0  0  0  0  0  0  0  0
   47.0180   31.1910   49.2600 C   0  0  0  0  0  0  0  0  0  0  0  0
   47.4680   30.5850   48.1530 N   0  0  0  0  0  0  0  0  0  0  0  0
   46.3966   31.7043   45.7306 H   0  0  0  0  0  0  0  0  0  0  0  0
   46.7480   33.5454   44.1364 H   0  0  0  0  0  0  0  0  0  0  0  0
   49.6846   31.2103   42.0669 H   0  0  0  0  0  0  0  0  0  0  0  0
   49.3100   29.3690   43.6884 H   0  0  0  0  0  0  0  0  0  0  0  0
   47.9110   34.3038   38.8495 H   0  0  0  0  0  0  0  0  0  0  0  0
   48.9531   36.4885   39.5993 H   0  0  0  0  0  0  0  0  0  0  0  0
   49.6461   36.7129   42.0208 H   0  0  0  0  0  0  0  0  0  0  0  0
   44.7396   28.9145   47.1326 H   0  0  0  0  0  0  0  0  0  0  0  0
   43.8730   30.0161   49.1731 H   0  0  0  0  0  0  0  0  0  0  0  0
   47.6679   31.8397   49.8656 H   0  0  0  0  0  0  0  0  0  0  0  0
  1  2  2  0
  1 13  1  0
  3  2  1  0
  4  3  2  0
  5  4  1  0
  5  6  2  0
  6  1  1  0
  7  8  2  0
  7 12  1  0
  8  9  1  0
  9 10  2  0
 11 10  1  0
 11  4  1  0
 12 11  2  0
 13 14  2  0
 13 16  1  0
 15 13  2  0
 16 17  2  0
 16 21  1  0
 17 18  1  0
 18 19  2  0
 20 19  1  0
 21 20  2  0
  2 22  1  0
  3 23  1  0
  5 24  1  0
  6 25  1  0
  7 26  1  0
  8 27  1  0
  9 28  1  0
 17 29  1  0
 18 30  1  0
 20 31  1  0
M  ISO  8  22  14  23  14  24  14  25  14  26  14  27  14  28  14  29  14
M  ISO  2  30  14  31  14
M  END
>  <minimizedAffinity>  (1) 
-4.40754604

>  <minimizedRMSD>  (1) 
3.55955625

$$$$
