
     RDKit          3D

 41 45  0  0  0  0  0  0  0  0999 V2000
   45.8300   30.6410   47.6920 S   0  0  0  0  0  0  0  0  0  0  0  0
   44.7180   31.3900   48.3530 O   0  0  0  0  0  0  0  0  0  0  0  0
   47.0060   30.4640   48.6430 O   0  0  0  0  0  0  0  0  0  0  0  0
   46.3920   31.5130   46.2890 C   0  0  0  0  0  0  0  0  0  0  0  0
   46.0410   32.8250   46.1170 C   0  0  0  0  0  0  0  0  0  0  0  0
   46.4540   33.5630   45.0300 C   0  0  0  0  0  0  0  0  0  0  0  0
   47.2450   32.9880   44.0710 C   0  0  0  0  0  0  0  0  0  0  0  0
   47.6140   31.6810   44.2100 C   0  0  0  0  0  0  0  0  0  0  0  0
   47.1870   30.9430   45.3180 C   0  0  0  0  0  0  0  0  0  0  0  0
   47.3890   34.4880   40.7320 C   0  0  0  0  0  0  0  0  0  0  0  0
   48.5680   35.2410   40.7830 C   0  0  0  0  0  0  0  0  0  0  0  0
   49.3020   35.2180   41.9880 C   0  0  0  0  0  0  0  0  0  0  0  0
   48.8390   34.4740   43.0300 N   0  0  0  0  0  0  0  0  0  0  0  0
   47.6830   33.7610   42.9230 C   0  0  0  0  0  0  0  0  0  0  0  0
   46.9800   33.7740   41.7920 N   0  0  0  0  0  0  0  0  0  0  0  0
   45.2160   29.0800   47.2080 C   0  0  0  0  0  0  0  0  0  0  0  0
   44.1060   28.7660   46.4470 C   0  0  0  0  0  0  0  0  0  0  0  0
   44.0230   27.3840   46.3280 C   0  0  0  0  0  0  0  0  0  0  0  0
   45.0720   26.9380   47.0160 N   0  0  0  0  0  0  0  0  0  0  0  0
   45.7990   27.9110   47.5480 N   0  0  0  0  0  0  0  0  0  0  0  0
   45.7520   23.3380   49.9030 N   0  0  0  0  0  0  0  0  0  0  0  0
   45.3600   24.4360   50.5800 C   0  0  0  0  0  0  0  0  0  0  0  0
   45.1910   25.4140   49.6630 N   0  0  0  0  0  0  0  0  0  0  0  0
   45.4710   24.9450   48.4300 C   0  0  0  0  0  0  0  0  0  0  0  0
   45.4380   25.5730   47.2010 C   0  0  0  0  0  0  0  0  0  0  0  0
   45.7860   24.7930   46.1370 N   0  0  0  0  0  0  0  0  0  0  0  0
   46.1330   23.5020   46.2980 C   0  0  0  0  0  0  0  0  0  0  0  0
   46.1660   22.8840   47.4930 N   0  0  0  0  0  0  0  0  0  0  0  0
   45.8290   23.6200   48.5810 C   0  0  0  0  0  0  0  0  0  0  0  0
   45.4059   33.3074   46.8746 H   0  0  0  0  0  0  0  0  0  0  0  0
   46.1483   34.6151   44.9319 H   0  0  0  0  0  0  0  0  0  0  0  0
   48.2495   31.2069   43.4476 H   0  0  0  0  0  0  0  0  0  0  0  0
   47.4905   29.8903   45.4164 H   0  0  0  0  0  0  0  0  0  0  0  0
   46.7893   34.4815   39.8099 H   0  0  0  0  0  0  0  0  0  0  0  0
   48.9090   35.8278   39.9174 H   0  0  0  0  0  0  0  0  0  0  0  0
   50.2349   35.7929   42.0841 H   0  0  0  0  0  0  0  0  0  0  0  0
   43.4042   29.4904   46.0080 H   0  0  0  0  0  0  0  0  0  0  0  0
   43.2658   26.7948   45.7899 H   0  0  0  0  0  0  0  0  0  0  0  0
   45.9612   22.4231   50.3273 H   0  0  0  0  0  0  0  0  0  0  0  0
   45.2076   24.5194   51.6662 H   0  0  0  0  0  0  0  0  0  0  0  0
   46.4042   22.9209   45.4042 H   0  0  0  0  0  0  0  0  0  0  0  0
  1  2  2  0
  1  3  2  0
  4  1  1  0
  5  4  2  0
  6  5  1  0
  7  8  1  0
  7  6  2  0
  8  9  2  0
  9  4  1  0
 10 11  2  0
 10 15  1  0
 11 12  1  0
 12 13  2  0
 14 13  1  0
 14  7  1  0
 15 14  2  0
 16 20  2  0
 16  1  1  0
 17 16  1  0
 18 17  2  0
 18 19  1  0
 19 25  1  0
 19 20  1  0
 21 22  1  0
 23 22  2  0
 24 29  2  0
 24 23  1  0
 25 24  1  0
 26 27  1  0
 26 25  2  0
 27 28  2  0
 28 29  1  0
 29 21  1  0
  5 30  1  0
  6 31  1  0
  8 32  1  0
  9 33  1  0
 10 34  1  0
 11 35  1  0
 12 36  1  0
 17 37  1  0
 18 38  1  0
 21 39  1  0
 22 40  1  0
 27 41  1  0
M  ISO  8  30  14  31  14  32  14  33  14  34  14  35  14  36  14  37  14
M  ISO  4  38  14  39   9  40  14  41  14
M  END
>  <minimizedAffinity>  (1) 
-6.32887268

>  <minimizedRMSD>  (1) 
2.6468153

$$$$
