
     RDKit          3D

 37 40  0  0  0  0  0  0  0  0999 V2000
   46.3010   31.8700   46.3240 C   0  0  0  0  0  0  0  0  0  0  0  0
   45.9060   33.1490   46.0290 C   0  0  0  0  0  0  0  0  0  0  0  0
   46.3180   33.8080   44.8940 C   0  0  0  0  0  0  0  0  0  0  0  0
   47.1610   33.1770   44.0020 C   0  0  0  0  0  0  0  0  0  0  0  0
   47.5710   31.9010   44.2690 C   0  0  0  0  0  0  0  0  0  0  0  0
   47.1420   31.2520   45.4250 C   0  0  0  0  0  0  0  0  0  0  0  0
   47.3510   34.3700   40.5440 C   0  0  0  0  0  0  0  0  0  0  0  0
   48.4860   35.1900   40.5600 C   0  0  0  0  0  0  0  0  0  0  0  0
   49.1690   35.3170   41.7720 C   0  0  0  0  0  0  0  0  0  0  0  0
   48.7080   34.6460   42.8740 N   0  0  0  0  0  0  0  0  0  0  0  0
   47.6020   33.8640   42.8000 C   0  0  0  0  0  0  0  0  0  0  0  0
   46.9440   33.7340   41.6560 N   0  0  0  0  0  0  0  0  0  0  0  0
   45.7320   31.1110   47.7830 S   0  0  0  0  0  0  0  0  0  0  0  0
   44.5370   31.8340   48.3210 O   0  0  0  0  0  0  0  0  0  0  0  0
   46.8620   31.1170   48.7990 O   0  0  0  0  0  0  0  0  0  0  0  0
   45.2470   29.4680   47.4440 C   0  0  0  0  0  0  0  0  0  0  0  0
   44.3760   28.9910   46.4640 C   0  0  0  0  0  0  0  0  0  0  0  0
   44.3060   27.6060   46.5860 C   0  0  0  0  0  0  0  0  0  0  0  0
   45.1170   27.3200   47.6080 N   0  0  0  0  0  0  0  0  0  0  0  0
   45.6790   28.3880   48.1260 N   0  0  0  0  0  0  0  0  0  0  0  0
   45.2760   25.9490   48.0030 C   0  0  0  0  0  0  0  0  0  0  0  0
   45.7330   24.9390   47.1760 C   0  0  0  0  0  0  0  0  0  0  0  0
   45.7200   23.7960   47.9820 C   0  0  0  0  0  0  0  0  0  0  0  0
   45.2760   24.1250   49.2210 N   0  0  0  0  0  0  0  0  0  0  0  0
   45.0090   25.4240   49.2320 N   0  0  0  0  0  0  0  0  0  0  0  0
   45.2333   33.6687   46.7271 H   0  0  0  0  0  0  0  0  0  0  0  0
   45.9765   34.8351   44.6979 H   0  0  0  0  0  0  0  0  0  0  0  0
   48.2428   31.3839   43.5681 H   0  0  0  0  0  0  0  0  0  0  0  0
   47.4820   30.2249   45.6238 H   0  0  0  0  0  0  0  0  0  0  0  0
   46.7851   34.2447   39.6091 H   0  0  0  0  0  0  0  0  0  0  0  0
   48.8262   35.7133   39.6543 H   0  0  0  0  0  0  0  0  0  0  0  0
   50.0669   35.9487   41.8408 H   0  0  0  0  0  0  0  0  0  0  0  0
   43.8385   29.6024   45.7242 H   0  0  0  0  0  0  0  0  0  0  0  0
   43.7157   26.9050   45.9777 H   0  0  0  0  0  0  0  0  0  0  0  0
   46.0379   25.0170   46.1220 H   0  0  0  0  0  0  0  0  0  0  0  0
   46.0224   22.7881   47.6615 H   0  0  0  0  0  0  0  0  0  0  0  0
   45.1655   23.4784   50.0151 H   0  0  0  0  0  0  0  0  0  0  0  0
  1 13  1  0
  2  1  2  0
  3  2  1  0
  4  5  1  0
  4  3  2  0
  5  6  2  0
  6  1  1  0
  7  8  2  0
  7 12  1  0
  8  9  1  0
  9 10  2  0
 11 10  1  0
 11  4  1  0
 12 11  2  0
 13 14  2  0
 13 15  2  0
 16 13  1  0
 16 20  2  0
 17 18  2  0
 17 16  1  0
 18 19  1  0
 19 21  1  0
 19 20  1  0
 21 25  2  0
 22 23  2  0
 22 21  1  0
 23 24  1  0
 24 25  1  0
  2 26  1  0
  3 27  1  0
  5 28  1  0
  6 29  1  0
  7 30  1  0
  8 31  1  0
  9 32  1  0
 17 33  1  0
 18 34  1  0
 22 35  1  0
 23 36  1  0
 24 37  1  0
M  ISO  8  26  14  27  14  28  14  29  14  30  14  31  14  32  14  33  14
M  ISO  4  34  14  35  14  36  14  37   9
M  END
>  <minimizedAffinity>  (1) 
-5.9337244

>  <minimizedRMSD>  (1) 
1.75890112

$$$$
