
     RDKit          3D

 46 49  0  0  0  0  0  0  0  0999 V2000
   46.2690   31.6580   46.3130 C   0  0  0  0  0  0  0  0  0  0  0  0
   45.8810   32.9620   46.0820 C   0  0  0  0  0  0  0  0  0  0  0  0
   46.3290   33.6810   44.9910 C   0  0  0  0  0  0  0  0  0  0  0  0
   47.1810   33.1010   44.1020 C   0  0  0  0  0  0  0  0  0  0  0  0
   47.5910   31.8070   44.2920 C   0  0  0  0  0  0  0  0  0  0  0  0
   47.1320   31.0870   45.3990 C   0  0  0  0  0  0  0  0  0  0  0  0
   47.4290   34.5600   40.7430 C   0  0  0  0  0  0  0  0  0  0  0  0
   48.6310   35.2770   40.8010 C   0  0  0  0  0  0  0  0  0  0  0  0
   49.3370   35.2450   42.0020 C   0  0  0  0  0  0  0  0  0  0  0  0
   48.8460   34.5290   43.0670 N   0  0  0  0  0  0  0  0  0  0  0  0
   47.6610   33.8440   42.9500 C   0  0  0  0  0  0  0  0  0  0  0  0
   46.9740   33.8680   41.8010 N   0  0  0  0  0  0  0  0  0  0  0  0
   45.6670   30.8160   47.7030 S   0  0  0  0  0  0  0  0  0  0  0  0
   44.5570   31.6150   48.3540 O   0  0  0  0  0  0  0  0  0  0  0  0
   46.8140   30.6100   48.6810 O   0  0  0  0  0  0  0  0  0  0  0  0
   44.9990   29.2770   47.2390 C   0  0  0  0  0  0  0  0  0  0  0  0
   44.9360   28.1010   47.9590 C   0  0  0  0  0  0  0  0  0  0  0  0
   44.3170   27.1230   47.1960 C   0  0  0  0  0  0  0  0  0  0  0  0
   44.0390   27.7630   46.0510 N   0  0  0  0  0  0  0  0  0  0  0  0
   44.4270   29.0170   46.0560 N   0  0  0  0  0  0  0  0  0  0  0  0
   43.3680   27.1470   44.8960 C   0  0  0  0  0  0  0  0  0  0  0  0
   42.8390   25.7800   45.1870 C   0  0  0  0  0  0  0  0  0  0  0  0
   41.3230   25.7210   45.1930 C   0  0  0  0  0  0  0  0  0  0  0  0
   40.7390   26.8230   46.0590 C   0  0  0  0  0  0  0  0  0  0  0  0
   41.1780   28.1720   45.5440 C   0  0  0  0  0  0  0  0  0  0  0  0
   42.2140   28.0400   44.4380 C   0  0  0  0  0  0  0  0  0  0  0  0
   45.1919   33.4450   46.7904 H   0  0  0  0  0  0  0  0  0  0  0  0
   45.9982   34.7193   44.8411 H   0  0  0  0  0  0  0  0  0  0  0  0
   48.2797   31.3361   43.5751 H   0  0  0  0  0  0  0  0  0  0  0  0
   47.4639   30.0484   45.5442 H   0  0  0  0  0  0  0  0  0  0  0  0
   46.8449   34.5636   39.8109 H   0  0  0  0  0  0  0  0  0  0  0  0
   49.0025   35.8424   39.9336 H   0  0  0  0  0  0  0  0  0  0  0  0
   50.2864   35.7924   42.0973 H   0  0  0  0  0  0  0  0  0  0  0  0
   45.3182   27.9613   48.9810 H   0  0  0  0  0  0  0  0  0  0  0  0
   44.1056   26.0774   47.4643 H   0  0  0  0  0  0  0  0  0  0  0  0
   44.1260   27.0448   44.1054 H   0  0  0  0  0  0  0  0  0  0  0  0
   43.2139   25.0879   44.4185 H   0  0  0  0  0  0  0  0  0  0  0  0
   43.1836   25.5008   46.1936 H   0  0  0  0  0  0  0  0  0  0  0  0
   40.9543   25.8391   44.1634 H   0  0  0  0  0  0  0  0  0  0  0  0
   41.0117   24.7496   45.6047 H   0  0  0  0  0  0  0  0  0  0  0  0
   39.6409   26.7631   46.0333 H   0  0  0  0  0  0  0  0  0  0  0  0
   41.0956   26.6975   47.0920 H   0  0  0  0  0  0  0  0  0  0  0  0
   40.3010   28.7060   45.1495 H   0  0  0  0  0  0  0  0  0  0  0  0
   41.6339   28.7264   46.3776 H   0  0  0  0  0  0  0  0  0  0  0  0
   42.6046   29.0369   44.1857 H   0  0  0  0  0  0  0  0  0  0  0  0
   41.7394   27.5869   43.5552 H   0  0  0  0  0  0  0  0  0  0  0  0
  1 13  1  0
  2  1  2  0
  3  2  1  0
  4  5  1  0
  4  3  2  0
  5  6  2  0
  6  1  1  0
  7  8  2  0
  7 12  1  0
  8  9  1  0
  9 10  2  0
 11 10  1  0
 11  4  1  0
 12 11  2  0
 13 14  2  0
 13 15  2  0
 16 13  1  0
 16 17  1  0
 18 17  2  0
 19 20  1  0
 19 18  1  0
 20 16  2  0
 21 22  1  0
 21 19  1  0
 22 23  1  0
 23 24  1  0
 25 24  1  0
 26 21  1  0
 26 25  1  0
  2 27  1  0
  3 28  1  0
  5 29  1  0
  6 30  1  0
  7 31  1  0
  8 32  1  0
  9 33  1  0
 17 34  1  0
 18 35  1  0
 21 36  1  0
 22 37  1  0
 22 38  1  0
 23 39  1  0
 23 40  1  0
 24 41  1  0
 24 42  1  0
 25 43  1  0
 25 44  1  0
 26 45  1  0
 26 46  1  0
M  ISO  8  27  14  28  14  29  14  30  14  31  14  32  14  33  14  34  14
M  ISO  8  35  14  36  13  37  13  38  13  39  13  40  13  41  13  42  13
M  ISO  4  43  13  44  13  45  13  46  13
M  END
>  <minimizedAffinity>  (1) 
-5.83521748

>  <minimizedRMSD>  (1) 
2.76913357

$$$$
