
     RDKit          3D

 42 44  0  0  0  0  0  0  0  0999 V2000
   46.3200   31.8660   46.3260 C   0  0  0  0  0  0  0  0  0  0  0  0
   45.8960   33.1370   46.0140 C   0  0  0  0  0  0  0  0  0  0  0  0
   46.3070   33.7930   44.8770 C   0  0  0  0  0  0  0  0  0  0  0  0
   47.1770   33.1770   44.0000 C   0  0  0  0  0  0  0  0  0  0  0  0
   47.6180   31.9200   44.2780 C   0  0  0  0  0  0  0  0  0  0  0  0
   47.1860   31.2700   45.4400 C   0  0  0  0  0  0  0  0  0  0  0  0
   47.3620   34.3840   40.5450 C   0  0  0  0  0  0  0  0  0  0  0  0
   48.5070   35.2150   40.5740 C   0  0  0  0  0  0  0  0  0  0  0  0
   49.1840   35.3360   41.7850 C   0  0  0  0  0  0  0  0  0  0  0  0
   48.7290   34.6600   42.8910 N   0  0  0  0  0  0  0  0  0  0  0  0
   47.6100   33.8650   42.8040 C   0  0  0  0  0  0  0  0  0  0  0  0
   46.9500   33.7370   41.6540 N   0  0  0  0  0  0  0  0  0  0  0  0
   45.7690   31.0870   47.7740 S   0  0  0  0  0  0  0  0  0  0  0  0
   44.6580   31.9100   48.3900 O   0  0  0  0  0  0  0  0  0  0  0  0
   46.9150   30.9550   48.7380 O   0  0  0  0  0  0  0  0  0  0  0  0
   45.0960   29.5290   47.4020 C   0  0  0  0  0  0  0  0  0  0  0  0
   44.5400   29.0650   46.2160 C   0  0  0  0  0  0  0  0  0  0  0  0
   44.1300   27.7460   46.3840 C   0  0  0  0  0  0  0  0  0  0  0  0
   44.4610   27.4840   47.6640 N   0  0  0  0  0  0  0  0  0  0  0  0
   45.0230   28.5030   48.2750 N   0  0  0  0  0  0  0  0  0  0  0  0
   44.2270   26.2110   48.3170 C   0  0  0  0  0  0  0  0  0  0  0  0
   45.3450   25.2290   48.0720 C   0  0  0  0  0  0  0  0  0  0  0  0
   42.9480   25.5560   47.7790 C   0  0  0  0  0  0  0  0  0  0  0  0
   44.0230   26.3610   49.8060 C   0  0  0  0  0  0  0  0  0  0  0  0
   45.2029   33.6474   46.6989 H   0  0  0  0  0  0  0  0  0  0  0  0
   45.9422   34.8092   44.6665 H   0  0  0  0  0  0  0  0  0  0  0  0
   48.3129   31.4155   43.5906 H   0  0  0  0  0  0  0  0  0  0  0  0
   47.5498   30.2534   45.6502 H   0  0  0  0  0  0  0  0  0  0  0  0
   46.8012   34.2644   39.6063 H   0  0  0  0  0  0  0  0  0  0  0  0
   48.8496   35.7457   39.6735 H   0  0  0  0  0  0  0  0  0  0  0  0
   50.0798   35.9705   41.8557 H   0  0  0  0  0  0  0  0  0  0  0  0
   44.4397   29.6491   45.2893 H   0  0  0  0  0  0  0  0  0  0  0  0
   43.6522   27.0795   45.6508 H   0  0  0  0  0  0  0  0  0  0  0  0
   45.7434   24.8791   49.0357 H   0  0  0  0  0  0  0  0  0  0  0  0
   44.9608   24.3710   47.5008 H   0  0  0  0  0  0  0  0  0  0  0  0
   46.1462   25.7206   47.5008 H   0  0  0  0  0  0  0  0  0  0  0  0
   42.3187   25.2337   48.6217 H   0  0  0  0  0  0  0  0  0  0  0  0
   42.3948   26.2818   47.1648 H   0  0  0  0  0  0  0  0  0  0  0  0
   43.2136   24.6829   47.1648 H   0  0  0  0  0  0  0  0  0  0  0  0
   44.7972   25.7917   50.3413 H   0  0  0  0  0  0  0  0  0  0  0  0
   44.0937   27.4238   50.0805 H   0  0  0  0  0  0  0  0  0  0  0  0
   43.0296   25.9767   50.0805 H   0  0  0  0  0  0  0  0  0  0  0  0
  1 13  1  0
  2  1  2  0
  3  2  1  0
  4  5  1  0
  4  3  2  0
  5  6  2  0
  6  1  1  0
  7  8  2  0
  7 12  1  0
  8  9  1  0
  9 10  2  0
 11 10  1  0
 11  4  1  0
 12 11  2  0
 13 14  2  0
 13 15  2  0
 16 13  1  0
 16 20  2  0
 17 18  2  0
 17 16  1  0
 18 19  1  0
 19 20  1  0
 19 21  1  0
 21 24  1  0
 22 21  1  0
 23 21  1  0
  2 25  1  0
  3 26  1  0
  5 27  1  0
  6 28  1  0
  7 29  1  0
  8 30  1  0
  9 31  1  0
 17 32  1  0
 18 33  1  0
 22 34  1  0
 22 35  1  0
 22 36  1  0
 23 37  1  0
 23 38  1  0
 23 39  1  0
 24 40  1  0
 24 41  1  0
 24 42  1  0
M  ISO  8  25  14  26  14  27  14  28  14  29  14  30  14  31  14  32  14
M  ISO  8  33  14  34   8  35   8  36   8  37   8  38   8  39   8  40   8
M  ISO  2  41   8  42   8
M  END
>  <minimizedAffinity>  (1) 
-5.82145452

>  <minimizedRMSD>  (1) 
1.53484774

$$$$
