
     RDKit          3D

 33 35  0  0  0  0  0  0  0  0999 V2000
   46.2950   31.6610   46.3910 C   0  0  0  0  0  0  0  0  0  0  0  0
   45.8990   32.9510   46.1350 C   0  0  0  0  0  0  0  0  0  0  0  0
   46.3180   33.6570   45.0210 C   0  0  0  0  0  0  0  0  0  0  0  0
   47.1670   33.0520   44.1270 C   0  0  0  0  0  0  0  0  0  0  0  0
   47.5960   31.7570   44.3380 C   0  0  0  0  0  0  0  0  0  0  0  0
   47.1530   31.0780   45.4710 C   0  0  0  0  0  0  0  0  0  0  0  0
   47.3450   34.4410   40.7390 C   0  0  0  0  0  0  0  0  0  0  0  0
   48.5570   35.1790   40.7790 C   0  0  0  0  0  0  0  0  0  0  0  0
   49.2800   35.1780   41.9770 C   0  0  0  0  0  0  0  0  0  0  0  0
   48.7880   34.4730   43.0320 N   0  0  0  0  0  0  0  0  0  0  0  0
   47.6200   33.7790   42.9490 C   0  0  0  0  0  0  0  0  0  0  0  0
   46.9240   33.7720   41.8220 N   0  0  0  0  0  0  0  0  0  0  0  0
   45.7170   30.8490   47.8220 S   0  0  0  0  0  0  0  0  0  0  0  0
   44.6740   31.6770   48.4990 O   0  0  0  0  0  0  0  0  0  0  0  0
   46.9100   30.6000   48.7350 O   0  0  0  0  0  0  0  0  0  0  0  0
   44.9890   29.3240   47.3810 C   0  0  0  0  0  0  0  0  0  0  0  0
   44.4080   28.9510   46.1840 C   0  0  0  0  0  0  0  0  0  0  0  0
   43.9640   27.6370   46.2800 C   0  0  0  0  0  0  0  0  0  0  0  0
   44.2990   27.2950   47.5210 N   0  0  0  0  0  0  0  0  0  0  0  0
   44.9040   28.2640   48.1980 N   0  0  0  0  0  0  0  0  0  0  0  0
   44.0270   25.9700   48.0900 C   0  0  0  0  0  0  0  0  0  0  0  0
   42.6770   25.7010   48.1160 F   0  0  0  0  0  0  0  0  0  0  0  0
   44.6870   24.9720   47.4250 F   0  0  0  0  0  0  0  0  0  0  0  0
   44.4490   25.9100   49.4180 F   0  0  0  0  0  0  0  0  0  0  0  0
   45.2197   33.4441   46.8459 H   0  0  0  0  0  0  0  0  0  0  0  0
   45.9756   34.6889   44.8538 H   0  0  0  0  0  0  0  0  0  0  0  0
   48.2760   31.2695   43.6238 H   0  0  0  0  0  0  0  0  0  0  0  0
   47.4948   30.0464   45.6411 H   0  0  0  0  0  0  0  0  0  0  0  0
   46.7484   34.4179   39.8151 H   0  0  0  0  0  0  0  0  0  0  0  0
   48.9154   35.7325   39.8986 H   0  0  0  0  0  0  0  0  0  0  0  0
   50.2248   35.7345   42.0641 H   0  0  0  0  0  0  0  0  0  0  0  0
   44.3120   29.5924   45.2955 H   0  0  0  0  0  0  0  0  0  0  0  0
   43.4587   27.0283   45.5157 H   0  0  0  0  0  0  0  0  0  0  0  0
  1 13  1  0
  2  1  2  0
  3  2  1  0
  4  5  1  0
  4  3  2  0
  5  6  2  0
  6  1  1  0
  7  8  2  0
  7 12  1  0
  8  9  1  0
  9 10  2  0
 11 10  1  0
 11  4  1  0
 12 11  2  0
 13 14  2  0
 13 15  2  0
 16 13  1  0
 16 20  2  0
 17 18  2  0
 17 16  1  0
 18 19  1  0
 19 21  1  0
 19 20  1  0
 21 22  1  0
 21 24  1  0
 23 21  1  0
  2 25  1  0
  3 26  1  0
  5 27  1  0
  6 28  1  0
  7 29  1  0
  8 30  1  0
  9 31  1  0
 17 32  1  0
 18 33  1  0
M  ISO  8  25  14  26  14  27  14  28  14  29  14  30  14  31  14  32  14
M  ISO  1  33  14
M  END
>  <minimizedAffinity>  (1) 
-5.72518396

>  <minimizedRMSD>  (1) 
1.76562607

$$$$
