
     RDKit          3D

 35 38  0  0  0  0  0  0  0  0999 V2000
   46.3210   31.8330   46.2940 C   0  0  0  0  0  0  0  0  0  0  0  0
   45.9250   33.1270   46.0240 C   0  0  0  0  0  0  0  0  0  0  0  0
   46.3450   33.7920   44.8840 C   0  0  0  0  0  0  0  0  0  0  0  0
   47.1680   33.1770   43.9910 C   0  0  0  0  0  0  0  0  0  0  0  0
   47.5810   31.8890   44.2250 C   0  0  0  0  0  0  0  0  0  0  0  0
   47.1510   31.2310   45.3810 C   0  0  0  0  0  0  0  0  0  0  0  0
   47.3850   34.3980   40.5410 C   0  0  0  0  0  0  0  0  0  0  0  0
   48.5140   35.2260   40.5730 C   0  0  0  0  0  0  0  0  0  0  0  0
   49.1860   35.3500   41.7990 C   0  0  0  0  0  0  0  0  0  0  0  0
   48.7230   34.6700   42.8930 N   0  0  0  0  0  0  0  0  0  0  0  0
   47.6080   33.8700   42.7980 C   0  0  0  0  0  0  0  0  0  0  0  0
   46.9680   33.7490   41.6430 N   0  0  0  0  0  0  0  0  0  0  0  0
   45.7600   31.0510   47.7420 S   0  0  0  0  0  0  0  0  0  0  0  0
   44.5370   31.7630   48.2680 O   0  0  0  0  0  0  0  0  0  0  0  0
   46.8640   31.0760   48.7700 O   0  0  0  0  0  0  0  0  0  0  0  0
   45.2970   29.4000   47.3950 C   0  0  0  0  0  0  0  0  0  0  0  0
   44.3600   28.9290   46.4830 C   0  0  0  0  0  0  0  0  0  0  0  0
   44.3310   27.5450   46.5550 C   0  0  0  0  0  0  0  0  0  0  0  0
   45.2370   27.2520   47.4920 N   0  0  0  0  0  0  0  0  0  0  0  0
   45.8170   28.3280   47.9990 N   0  0  0  0  0  0  0  0  0  0  0  0
   45.5510   25.9200   47.9060 C   0  0  0  0  0  0  0  0  0  0  0  0
   44.7310   24.8420   47.9870 N   0  0  0  0  0  0  0  0  0  0  0  0
   45.3990   23.8100   48.4080 O   0  0  0  0  0  0  0  0  0  0  0  0
   46.6520   24.1320   48.6220 C   0  0  0  0  0  0  0  0  0  0  0  0
   46.7450   25.4470   48.3080 N   0  0  0  0  0  0  0  0  0  0  0  0
   45.2594   33.6430   46.7316 H   0  0  0  0  0  0  0  0  0  0  0  0
   46.0114   34.8237   44.6990 H   0  0  0  0  0  0  0  0  0  0  0  0
   48.2438   31.3797   43.5099 H   0  0  0  0  0  0  0  0  0  0  0  0
   47.4877   30.2000   45.5646 H   0  0  0  0  0  0  0  0  0  0  0  0
   46.8300   34.2763   39.5991 H   0  0  0  0  0  0  0  0  0  0  0  0
   48.8600   35.7574   39.6742 H   0  0  0  0  0  0  0  0  0  0  0  0
   50.0779   35.9887   41.8800 H   0  0  0  0  0  0  0  0  0  0  0  0
   43.7445   29.5504   45.8158 H   0  0  0  0  0  0  0  0  0  0  0  0
   43.7067   26.8493   45.9751 H   0  0  0  0  0  0  0  0  0  0  0  0
   47.4572   23.4739   48.9805 H   0  0  0  0  0  0  0  0  0  0  0  0
  1 13  1  0
  2  1  2  0
  3  2  1  0
  4  5  1  0
  4  3  2  0
  5  6  2  0
  6  1  1  0
  7  8  2  0
  7 12  1  0
  8  9  1  0
  9 10  2  0
 11 10  1  0
 11  4  1  0
 12 11  2  0
 13 14  2  0
 13 15  2  0
 16 13  1  0
 16 20  2  0
 17 18  2  0
 17 16  1  0
 18 19  1  0
 19 21  1  0
 19 20  1  0
 21 22  2  0
 21 25  1  0
 22 23  1  0
 23 24  1  0
 25 24  2  0
  2 26  1  0
  3 27  1  0
  5 28  1  0
  6 29  1  0
  7 30  1  0
  8 31  1  0
  9 32  1  0
 17 33  1  0
 18 34  1  0
 24 35  1  0
M  ISO  8  26  14  27  14  28  14  29  14  30  14  31  14  32  14  33  14
M  ISO  2  34  14  35  14
M  END
>  <minimizedAffinity>  (1) 
-5.68285894

>  <minimizedRMSD>  (1) 
1.90507972

$$$$
