
     RDKit          3D

 37 40  0  0  0  0  0  0  0  0999 V2000
   46.2890   31.9310   46.3430 C   0  0  0  0  0  0  0  0  0  0  0  0
   45.8810   33.2120   46.0290 C   0  0  0  0  0  0  0  0  0  0  0  0
   46.2950   33.8520   44.8770 C   0  0  0  0  0  0  0  0  0  0  0  0
   47.1370   33.2150   44.0050 C   0  0  0  0  0  0  0  0  0  0  0  0
   47.5560   31.9460   44.2910 C   0  0  0  0  0  0  0  0  0  0  0  0
   47.1310   31.3110   45.4580 C   0  0  0  0  0  0  0  0  0  0  0  0
   47.3270   34.3450   40.5170 C   0  0  0  0  0  0  0  0  0  0  0  0
   48.4740   35.1710   40.5310 C   0  0  0  0  0  0  0  0  0  0  0  0
   49.1510   35.3160   41.7400 C   0  0  0  0  0  0  0  0  0  0  0  0
   48.6920   34.6670   42.8580 N   0  0  0  0  0  0  0  0  0  0  0  0
   47.5780   33.8800   42.7900 C   0  0  0  0  0  0  0  0  0  0  0  0
   46.9230   33.7310   41.6480 N   0  0  0  0  0  0  0  0  0  0  0  0
   45.7230   31.1910   47.8160 S   0  0  0  0  0  0  0  0  0  0  0  0
   44.4800   31.8970   48.3040 O   0  0  0  0  0  0  0  0  0  0  0  0
   46.8220   31.2680   48.8480 O   0  0  0  0  0  0  0  0  0  0  0  0
   45.2870   29.5200   47.5090 C   0  0  0  0  0  0  0  0  0  0  0  0
   44.4470   29.0000   46.5320 C   0  0  0  0  0  0  0  0  0  0  0  0
   44.4220   27.6150   46.6960 C   0  0  0  0  0  0  0  0  0  0  0  0
   45.2260   27.3830   47.7360 N   0  0  0  0  0  0  0  0  0  0  0  0
   45.7430   28.4850   48.2260 N   0  0  0  0  0  0  0  0  0  0  0  0
   45.4200   26.0340   48.1690 C   0  0  0  0  0  0  0  0  0  0  0  0
   45.0230   25.0270   47.3140 C   0  0  0  0  0  0  0  0  0  0  0  0
   45.2810   23.8540   47.8850 N   0  0  0  0  0  0  0  0  0  0  0  0
   45.8330   24.1110   49.0850 C   0  0  0  0  0  0  0  0  0  0  0  0
   45.9250   25.4510   49.2740 N   0  0  0  0  0  0  0  0  0  0  0  0
   45.2049   33.7396   46.7179 H   0  0  0  0  0  0  0  0  0  0  0  0
   45.9484   34.8732   44.6601 H   0  0  0  0  0  0  0  0  0  0  0  0
   48.2314   31.4231   43.5979 H   0  0  0  0  0  0  0  0  0  0  0  0
   47.4796   30.2900   45.6723 H   0  0  0  0  0  0  0  0  0  0  0  0
   46.7635   34.2028   39.5831 H   0  0  0  0  0  0  0  0  0  0  0  0
   48.8197   35.6811   39.6198 H   0  0  0  0  0  0  0  0  0  0  0  0
   50.0495   35.9480   41.7978 H   0  0  0  0  0  0  0  0  0  0  0  0
   43.9017   29.5750   45.7691 H   0  0  0  0  0  0  0  0  0  0  0  0
   43.8637   26.8777   46.1005 H   0  0  0  0  0  0  0  0  0  0  0  0
   44.5679   25.1706   46.3229 H   0  0  0  0  0  0  0  0  0  0  0  0
   46.1610   23.3476   49.8058 H   0  0  0  0  0  0  0  0  0  0  0  0
   46.3069   25.9302   50.1019 H   0  0  0  0  0  0  0  0  0  0  0  0
  1 13  1  0
  2  1  2  0
  3  2  1  0
  4  5  1  0
  4  3  2  0
  5  6  2  0
  6  1  1  0
  7  8  2  0
  7 12  1  0
  8  9  1  0
  9 10  2  0
 11 10  1  0
 11  4  1  0
 12 11  2  0
 13 14  2  0
 13 15  2  0
 16 13  1  0
 16 20  2  0
 17 18  2  0
 17 16  1  0
 18 19  1  0
 19 21  1  0
 19 20  1  0
 21 25  1  0
 22 23  1  0
 22 21  2  0
 23 24  2  0
 24 25  1  0
  2 26  1  0
  3 27  1  0
  5 28  1  0
  6 29  1  0
  7 30  1  0
  8 31  1  0
  9 32  1  0
 17 33  1  0
 18 34  1  0
 22 35  1  0
 24 36  1  0
 25 37  1  0
M  ISO  8  26  14  27  14  28  14  29  14  30  14  31  14  32  14  33  14
M  ISO  4  34  14  35  14  36  14  37   9
M  END
>  <minimizedAffinity>  (1) 
-5.57330227

>  <minimizedRMSD>  (1) 
1.81223011

$$$$
