
     RDKit          3D

 37 40  0  0  0  0  0  0  0  0999 V2000
   46.2920   31.6630   46.3180 C   0  0  0  0  0  0  0  0  0  0  0  0
   45.9430   32.9750   46.1060 C   0  0  0  0  0  0  0  0  0  0  0  0
   46.3740   33.6870   45.0140 C   0  0  0  0  0  0  0  0  0  0  0  0
   47.1860   33.0800   44.0860 C   0  0  0  0  0  0  0  0  0  0  0  0
   47.5640   31.7670   44.2550 C   0  0  0  0  0  0  0  0  0  0  0  0
   47.1060   31.0730   45.3780 C   0  0  0  0  0  0  0  0  0  0  0  0
   47.3930   34.4970   40.7100 C   0  0  0  0  0  0  0  0  0  0  0  0
   48.5940   35.2500   40.7710 C   0  0  0  0  0  0  0  0  0  0  0  0
   49.3090   35.2510   41.9870 C   0  0  0  0  0  0  0  0  0  0  0  0
   48.8050   34.5310   43.0260 N   0  0  0  0  0  0  0  0  0  0  0  0
   47.6510   33.8200   42.9260 C   0  0  0  0  0  0  0  0  0  0  0  0
   46.9690   33.8120   41.7880 N   0  0  0  0  0  0  0  0  0  0  0  0
   45.6960   30.8390   47.7340 S   0  0  0  0  0  0  0  0  0  0  0  0
   44.5530   31.5910   48.3410 O   0  0  0  0  0  0  0  0  0  0  0  0
   46.8390   30.7120   48.7320 O   0  0  0  0  0  0  0  0  0  0  0  0
   45.1180   29.2510   47.2910 C   0  0  0  0  0  0  0  0  0  0  0  0
   44.1630   28.8890   46.3620 C   0  0  0  0  0  0  0  0  0  0  0  0
   44.0440   27.5040   46.3640 C   0  0  0  0  0  0  0  0  0  0  0  0
   44.9190   27.0970   47.2800 N   0  0  0  0  0  0  0  0  0  0  0  0
   45.5670   28.1100   47.8430 N   0  0  0  0  0  0  0  0  0  0  0  0
   45.1820   25.7480   47.6620 C   0  0  0  0  0  0  0  0  0  0  0  0
   45.6370   25.3690   48.9250 C   0  0  0  0  0  0  0  0  0  0  0  0
   45.7730   23.9880   48.9120 C   0  0  0  0  0  0  0  0  0  0  0  0
   45.3970   23.5860   47.6480 C   0  0  0  0  0  0  0  0  0  0  0  0
   45.0600   24.6470   46.9530 O   0  0  0  0  0  0  0  0  0  0  0  0
   45.2930   33.4743   46.8397 H   0  0  0  0  0  0  0  0  0  0  0  0
   46.0714   34.7364   44.8827 H   0  0  0  0  0  0  0  0  0  0  0  0
   48.2152   31.2729   43.5189 H   0  0  0  0  0  0  0  0  0  0  0  0
   47.4051   30.0233   45.5149 H   0  0  0  0  0  0  0  0  0  0  0  0
   46.8071   34.4731   39.7794 H   0  0  0  0  0  0  0  0  0  0  0  0
   48.9556   35.8144   39.8988 H   0  0  0  0  0  0  0  0  0  0  0  0
   50.2463   35.8171   42.0923 H   0  0  0  0  0  0  0  0  0  0  0  0
   43.5915   29.5812   45.7262 H   0  0  0  0  0  0  0  0  0  0  0  0
   43.3767   26.8841   45.7472 H   0  0  0  0  0  0  0  0  0  0  0  0
   45.8482   26.0386   49.7717 H   0  0  0  0  0  0  0  0  0  0  0  0
   46.1110   23.3466   49.7393 H   0  0  0  0  0  0  0  0  0  0  0  0
   45.3820   22.5485   47.2828 H   0  0  0  0  0  0  0  0  0  0  0  0
  1 13  1  0
  2  1  2  0
  3  2  1  0
  4  5  1  0
  4  3  2  0
  5  6  2  0
  6  1  1  0
  7  8  2  0
  7 12  1  0
  8  9  1  0
  9 10  2  0
 11 10  1  0
 11  4  1  0
 12 11  2  0
 13 14  2  0
 13 15  2  0
 16 13  1  0
 16 20  2  0
 17 18  2  0
 17 16  1  0
 18 19  1  0
 19 21  1  0
 19 20  1  0
 21 22  2  0
 23 22  1  0
 24 23  2  0
 25 24  1  0
 25 21  1  0
  2 26  1  0
  3 27  1  0
  5 28  1  0
  6 29  1  0
  7 30  1  0
  8 31  1  0
  9 32  1  0
 17 33  1  0
 18 34  1  0
 22 35  1  0
 23 36  1  0
 24 37  1  0
M  ISO  8  26  14  27  14  28  14  29  14  30  14  31  14  32  14  33  14
M  ISO  4  34  14  35  14  36  14  37  14
M  END
>  <minimizedAffinity>  (1) 
-5.54956913

>  <minimizedRMSD>  (1) 
2.17626476

$$$$
