
     RDKit          3D

 33 35  0  0  0  0  0  0  0  0999 V2000
   46.2750   31.6700   46.3510 C   0  0  0  0  0  0  0  0  0  0  0  0
   45.8930   32.9680   46.1120 C   0  0  0  0  0  0  0  0  0  0  0  0
   46.3350   33.6630   45.0040 C   0  0  0  0  0  0  0  0  0  0  0  0
   47.1850   33.0510   44.1050 C   0  0  0  0  0  0  0  0  0  0  0  0
   47.5850   31.7630   44.3090 C   0  0  0  0  0  0  0  0  0  0  0  0
   47.1170   31.0850   45.4440 C   0  0  0  0  0  0  0  0  0  0  0  0
   47.3680   34.4680   40.7220 C   0  0  0  0  0  0  0  0  0  0  0  0
   48.5790   35.2080   40.7790 C   0  0  0  0  0  0  0  0  0  0  0  0
   49.2960   35.1990   41.9730 C   0  0  0  0  0  0  0  0  0  0  0  0
   48.8270   34.4900   43.0490 N   0  0  0  0  0  0  0  0  0  0  0  0
   47.6480   33.7910   42.9380 C   0  0  0  0  0  0  0  0  0  0  0  0
   46.9570   33.7930   41.8080 N   0  0  0  0  0  0  0  0  0  0  0  0
   45.6790   30.8510   47.7690 S   0  0  0  0  0  0  0  0  0  0  0  0
   44.6000   31.6570   48.4210 O   0  0  0  0  0  0  0  0  0  0  0  0
   46.8400   30.6510   48.7350 O   0  0  0  0  0  0  0  0  0  0  0  0
   45.0020   29.3110   47.3250 C   0  0  0  0  0  0  0  0  0  0  0  0
   44.3070   28.9550   46.1840 C   0  0  0  0  0  0  0  0  0  0  0  0
   43.9640   27.6000   46.2780 C   0  0  0  0  0  0  0  0  0  0  0  0
   44.4650   27.2260   47.4540 N   0  0  0  0  0  0  0  0  0  0  0  0
   45.0750   28.2050   48.0820 N   0  0  0  0  0  0  0  0  0  0  0  0
   44.2890   25.8380   47.8890 C   0  0  0  0  0  0  0  0  0  0  0  0
   45.2171   33.4666   46.8223 H   0  0  0  0  0  0  0  0  0  0  0  0
   46.0109   34.7010   44.8382 H   0  0  0  0  0  0  0  0  0  0  0  0
   48.2610   31.2661   43.5976 H   0  0  0  0  0  0  0  0  0  0  0  0
   47.4379   30.0462   45.6113 H   0  0  0  0  0  0  0  0  0  0  0  0
   46.7725   34.4479   39.7974 H   0  0  0  0  0  0  0  0  0  0  0  0
   48.9399   35.7715   39.9060 H   0  0  0  0  0  0  0  0  0  0  0  0
   50.2385   35.7606   42.0529 H   0  0  0  0  0  0  0  0  0  0  0  0
   44.0644   29.6229   45.3443 H   0  0  0  0  0  0  0  0  0  0  0  0
   43.4104   26.9881   45.5507 H   0  0  0  0  0  0  0  0  0  0  0  0
   44.2837   25.7961   48.9882 H   0  0  0  0  0  0  0  0  0  0  0  0
   43.3346   25.4509   47.5027 H   0  0  0  0  0  0  0  0  0  0  0  0
   45.1166   25.2249   47.5027 H   0  0  0  0  0  0  0  0  0  0  0  0
  1 13  1  0
  2  1  2  0
  3  2  1  0
  4  5  1  0
  4  3  2  0
  5  6  2  0
  6  1  1  0
  7  8  2  0
  7 12  1  0
  8  9  1  0
  9 10  2  0
 11 10  1  0
 11  4  1  0
 12 11  2  0
 13 14  2  0
 13 15  2  0
 16 13  1  0
 16 20  2  0
 17 18  2  0
 17 16  1  0
 18 19  1  0
 19 21  1  0
 19 20  1  0
  2 22  1  0
  3 23  1  0
  5 24  1  0
  6 25  1  0
  7 26  1  0
  8 27  1  0
  9 28  1  0
 17 29  1  0
 18 30  1  0
 21 31  1  0
 21 32  1  0
 21 33  1  0
M  ISO  8  22  14  23  14  24  14  25  14  26  14  27  14  28  14  29  14
M  ISO  4  30  14  31   8  32   8  33   8
M  END
>  <minimizedAffinity>  (1) 
-5.27775478

>  <minimizedRMSD>  (1) 
1.61490846

$$$$
