
     RDKit          3D

 21 22  0  0  0  0  0  0  0  0999 V2000
   46.1140   34.3920   41.1760 C   0  0  0  0  0  0  0  0  0  0  0  0
   47.3190   35.0450   41.5250 C   0  0  0  0  0  0  0  0  0  0  0  0
   48.4070   34.9050   40.6590 C   0  0  0  0  0  0  0  0  0  0  0  0
   48.2570   34.1610   39.5440 N   0  0  0  0  0  0  0  0  0  0  0  0
   47.0830   33.5470   39.2450 C   0  0  0  0  0  0  0  0  0  0  0  0
   46.0200   33.6600   40.0510 N   0  0  0  0  0  0  0  0  0  0  0  0
   45.0510   34.5360   42.0340 O   0  0  0  0  0  0  0  0  0  0  0  0
   45.0820   34.4480   43.3960 C   0  0  0  0  0  0  0  0  0  0  0  0
   45.6310   33.3370   44.0410 C   0  0  0  0  0  0  0  0  0  0  0  0
   45.6730   33.2260   45.4230 C   0  0  0  0  0  0  0  0  0  0  0  0
   45.1470   34.2640   46.1750 C   0  0  0  0  0  0  0  0  0  0  0  0
   44.6030   35.3630   45.5470 C   0  0  0  0  0  0  0  0  0  0  0  0
   44.5590   35.4770   44.1660 C   0  0  0  0  0  0  0  0  0  0  0  0
   47.3971   35.6420   42.4456 H   0  0  0  0  0  0  0  0  0  0  0  0
   49.3675   35.3924   40.8825 H   0  0  0  0  0  0  0  0  0  0  0  0
   47.0043   32.9474   38.3261 H   0  0  0  0  0  0  0  0  0  0  0  0
   46.0449   32.5207   43.4308 H   0  0  0  0  0  0  0  0  0  0  0  0
   46.1107   32.3406   45.9073 H   0  0  0  0  0  0  0  0  0  0  0  0
   45.1637   34.2106   47.2736 H   0  0  0  0  0  0  0  0  0  0  0  0
   44.1901   36.1766   46.1614 H   0  0  0  0  0  0  0  0  0  0  0  0
   44.1183   36.3655   43.6902 H   0  0  0  0  0  0  0  0  0  0  0  0
  1  2  2  0
  1  7  1  0
  3  2  1  0
  4  3  2  0
  5  4  1  0
  5  6  2  0
  6  1  1  0
  7  8  1  0
  8  9  2  0
  8 13  1  0
  9 10  1  0
 10 11  2  0
 12 11  1  0
 13 12  2  0
  2 14  1  0
  3 15  1  0
  5 16  1  0
  9 17  1  0
 10 18  1  0
 11 19  1  0
 12 20  1  0
 13 21  1  0
M  ISO  8  14  14  15  14  16  14  17  14  18  14  19  14  20  14  21  14
M  END
>  <minimizedAffinity>  (1) 
-3.79847765

>  <minimizedRMSD>  (1) 
4.6113739

$$$$
