
     RDKit          3D

 23 23  0  0  0  0  0  0  0  0999 V2000
   44.4240   35.3500   42.2290 C   0  0  0  0  0  0  0  0  0  0  0  0
   45.6190   34.7200   41.8410 C   0  0  0  0  0  0  0  0  0  0  0  0
   46.4770   34.2790   42.8760 C   0  0  0  0  0  0  0  0  0  0  0  0
   46.1070   34.4830   44.1680 N   0  0  0  0  0  0  0  0  0  0  0  0
   44.9380   35.0990   44.4840 C   0  0  0  0  0  0  0  0  0  0  0  0
   44.1030   35.5280   43.5100 N   0  0  0  0  0  0  0  0  0  0  0  0
   43.5960   35.7770   41.2400 O   0  0  0  0  0  0  0  0  0  0  0  0
   42.4380   35.1420   40.7890 C   0  0  0  0  0  0  0  0  0  0  0  0
   41.1820   35.6310   41.4580 C   0  0  0  0  0  0  0  0  0  0  0  0
   42.3020   35.1650   39.2800 C   0  0  0  0  0  0  0  0  0  0  0  0
   42.5730   33.6580   41.1580 C   0  0  0  0  0  0  0  0  0  0  0  0
   45.8755   34.5763   40.7810 H   0  0  0  0  0  0  0  0  0  0  0  0
   47.4279   33.7793   42.6390 H   0  0  0  0  0  0  0  0  0  0  0  0
   44.6685   35.2500   45.5397 H   0  0  0  0  0  0  0  0  0  0  0  0
   41.3056   35.5829   42.5500 H   0  0  0  0  0  0  0  0  0  0  0  0
   40.9870   36.6708   41.1565 H   0  0  0  0  0  0  0  0  0  0  0  0
   40.3353   34.9969   41.1565 H   0  0  0  0  0  0  0  0  0  0  0  0
   41.2508   35.3428   39.0093 H   0  0  0  0  0  0  0  0  0  0  0  0
   42.9280   35.9700   38.8677 H   0  0  0  0  0  0  0  0  0  0  0  0
   42.6285   34.1989   38.8677 H   0  0  0  0  0  0  0  0  0  0  0  0
   42.5827   33.5518   42.2528 H   0  0  0  0  0  0  0  0  0  0  0  0
   41.7221   33.0980   40.7428 H   0  0  0  0  0  0  0  0  0  0  0  0
   43.5110   33.2608   40.7428 H   0  0  0  0  0  0  0  0  0  0  0  0
  1  6  2  0
  2  1  1  0
  2  3  2  0
  3  4  1  0
  4  5  2  0
  6  5  1  0
  7  1  1  0
  8 11  1  0
  8  7  1  0
  8  9  1  0
 10  8  1  0
  2 12  1  0
  3 13  1  0
  5 14  1  0
  9 15  1  0
  9 16  1  0
  9 17  1  0
 10 18  1  0
 10 19  1  0
 10 20  1  0
 11 21  1  0
 11 22  1  0
 11 23  1  0
M  ISO  8  12  14  13  14  14  14  15   8  16   8  17   8  18   8  19   8
M  ISO  4  20   8  21   8  22   8  23   8
M  END
>  <minimizedAffinity>  (1) 
-3.31030273

>  <minimizedRMSD>  (1) 
3.52174878

$$$$
