
     RDKit          3D

 14 14  0  0  0  0  0  0  0  0999 V2000
   45.1810   34.9580   43.3650 C   0  0  0  0  0  0  0  0  0  0  0  0
   46.3920   34.9190   42.6370 C   0  0  0  0  0  0  0  0  0  0  0  0
   47.4350   34.1450   43.2050 C   0  0  0  0  0  0  0  0  0  0  0  0
   47.2080   33.5110   44.3760 N   0  0  0  0  0  0  0  0  0  0  0  0
   46.0390   33.5800   45.0290 C   0  0  0  0  0  0  0  0  0  0  0  0
   45.0300   34.3000   44.5250 N   0  0  0  0  0  0  0  0  0  0  0  0
   44.1640   35.7000   42.8320 O   0  0  0  0  0  0  0  0  0  0  0  0
   43.2650   35.2470   41.8420 C   0  0  0  0  0  0  0  0  0  0  0  0
   43.5940   35.7120   40.5860 F   0  0  0  0  0  0  0  0  0  0  0  0
   41.9630   35.5800   42.0890 F   0  0  0  0  0  0  0  0  0  0  0  0
   43.3480   33.8690   41.7740 F   0  0  0  0  0  0  0  0  0  0  0  0
   46.5176   35.4574   41.6860 H   0  0  0  0  0  0  0  0  0  0  0  0
   48.4098   34.0623   42.7022 H   0  0  0  0  0  0  0  0  0  0  0  0
   45.9092   33.0438   45.9807 H   0  0  0  0  0  0  0  0  0  0  0  0
  1  6  2  0
  2  3  2  0
  2  1  1  0
  3  4  1  0
  4  5  2  0
  6  5  1  0
  7  1  1  0
  8 10  1  0
  8  7  1  0
  9  8  1  0
 11  8  1  0
  2 12  1  0
  3 13  1  0
  5 14  1  0
M  ISO  3  12  14  13  14  14  14
M  END
>  <minimizedAffinity>  (1) 
-3.27407646

>  <minimizedRMSD>  (1) 
1.70467436

$$$$
