
     RDKit          3D

 24 25  0  0  0  0  0  0  0  0999 V2000
   45.9560   34.1660   43.8060 C   0  0  0  0  0  0  0  0  0  0  0  0
   45.3600   34.1740   45.0900 C   0  0  0  0  0  0  0  0  0  0  0  0
   44.6580   35.3330   45.4480 C   0  0  0  0  0  0  0  0  0  0  0  0
   44.5800   36.3650   44.5810 N   0  0  0  0  0  0  0  0  0  0  0  0
   45.1670   36.3070   43.3650 C   0  0  0  0  0  0  0  0  0  0  0  0
   45.8450   35.2240   42.9810 N   0  0  0  0  0  0  0  0  0  0  0  0
   46.6450   33.0480   43.4370 O   0  0  0  0  0  0  0  0  0  0  0  0
   46.0950   32.1600   42.4870 C   0  0  0  0  0  0  0  0  0  0  0  0
   44.5810   32.2330   42.4610 C   0  0  0  0  0  0  0  0  0  0  0  0
   44.0960   30.8470   42.7930 C   0  0  0  0  0  0  0  0  0  0  0  0
   45.2180   30.3610   43.7010 C   0  0  0  0  0  0  0  0  0  0  0  0
   46.4240   30.7240   42.8330 C   0  0  0  0  0  0  0  0  0  0  0  0
   45.4436   33.3148   45.7717 H   0  0  0  0  0  0  0  0  0  0  0  0
   44.1720   35.4016   46.4324 H   0  0  0  0  0  0  0  0  0  0  0  0
   45.0846   37.1652   42.6819 H   0  0  0  0  0  0  0  0  0  0  0  0
   46.5239   32.4576   41.5188 H   0  0  0  0  0  0  0  0  0  0  0  0
   44.2197   32.9543   43.2088 H   0  0  0  0  0  0  0  0  0  0  0  0
   44.2093   32.5673   41.4812 H   0  0  0  0  0  0  0  0  0  0  0  0
   43.1308   30.8714   43.3200 H   0  0  0  0  0  0  0  0  0  0  0  0
   43.9102   30.2079   41.9172 H   0  0  0  0  0  0  0  0  0  0  0  0
   45.2286   30.8963   44.6619 H   0  0  0  0  0  0  0  0  0  0  0  0
   45.1557   29.3029   43.9953 H   0  0  0  0  0  0  0  0  0  0  0  0
   46.4815   30.0929   41.9339 H   0  0  0  0  0  0  0  0  0  0  0  0
   47.3990   30.5830   43.3223 H   0  0  0  0  0  0  0  0  0  0  0  0
  1  2  2  0
  2  3  1  0
  4  3  2  0
  5  4  1  0
  6  5  2  0
  6  1  1  0
  7  1  1  0
  8 12  1  0
  8  7  1  0
  9  8  1  0
  9 10  1  0
 10 11  1  0
 12 11  1  0
  2 13  1  0
  3 14  1  0
  5 15  1  0
  8 16  1  0
  9 17  1  0
  9 18  1  0
 10 19  1  0
 10 20  1  0
 11 21  1  0
 11 22  1  0
 12 23  1  0
 12 24  1  0
M  ISO  8  13  14  14  14  15  14  16  13  17  13  18  13  19  13  20  13
M  ISO  4  21  13  22  13  23  13  24  13
M  END
>  <minimizedAffinity>  (1) 
-2.97296786

>  <minimizedRMSD>  (1) 
4.47263575

$$$$
