
     RDKit          3D

 34 36  0  0  1  0  0  0  0  0999 V2000
   47.7170   34.9380   41.0300 C   0  0  2  0  0  0  0  0  0  0  0  0
   48.8790   35.7600   41.3470 C   0  0  0  0  0  0  0  0  0  0  0  0
   49.6590   35.0360   42.4460 C   0  0  0  0  0  0  0  0  0  0  0  0
   48.9700   33.7130   42.6840 C   0  0  0  0  0  0  0  0  0  0  0  0
   47.5810   33.9550   42.2050 C   0  0  1  0  0  0  0  0  0  0  0  0
   46.6660   34.3650   43.2070 N   0  0  0  0  0  0  0  0  0  0  0  0
   45.7930   35.3870   43.2310 C   0  0  0  0  0  0  0  0  0  0  0  0
   44.9590   35.6590   44.2950 C   0  0  0  0  0  0  0  0  0  0  0  0
   44.9890   34.8630   45.4200 C   0  0  0  0  0  0  0  0  0  0  0  0
   44.1400   35.1280   46.5230 N   0  0  0  0  0  0  0  0  0  0  0  0
   45.8610   33.8600   45.3690 N   0  0  0  0  0  0  0  0  0  0  0  0
   46.6740   33.5960   44.3300 C   0  0  0  0  0  0  0  0  0  0  0  0
   47.4200   32.5850   44.5140 O   0  0  0  0  0  0  0  0  0  0  0  0
   47.7870   34.1010   39.8130 C   0  0  0  0  0  0  0  0  0  0  0  0
   48.4380   34.5980   38.6700 C   0  0  0  0  0  0  0  0  0  0  0  0
   48.5280   33.7970   37.5350 C   0  0  0  0  0  0  0  0  0  0  0  0
   47.9600   32.5540   37.6190 N   0  0  0  0  0  0  0  0  0  0  0  0
   47.3410   32.0970   38.7210 C   0  0  0  0  0  0  0  0  0  0  0  0
   47.2550   32.8740   39.8200 N   0  0  0  0  0  0  0  0  0  0  0  0
   46.8889   35.6409   40.8565 H   0  0  0  0  0  0  0  0  0  0  0  0
   49.5100   35.8809   40.4541 H   0  0  0  0  0  0  0  0  0  0  0  0
   48.5695   36.7609   41.6824 H   0  0  0  0  0  0  0  0  0  0  0  0
   50.6971   34.8678   42.1233 H   0  0  0  0  0  0  0  0  0  0  0  0
   49.6831   35.6355   43.3679 H   0  0  0  0  0  0  0  0  0  0  0  0
   49.4509   32.9095   42.1068 H   0  0  0  0  0  0  0  0  0  0  0  0
   49.0114   33.3907   43.7349 H   0  0  0  0  0  0  0  0  0  0  0  0
   47.1183   33.0118   41.8792 H   0  0  0  0  0  0  0  0  0  0  0  0
   45.7409   36.0445   42.3507 H   0  0  0  0  0  0  0  0  0  0  0  0
   44.2680   36.5134   44.2459 H   0  0  0  0  0  0  0  0  0  0  0  0
   44.1746   34.5237   47.3564 H   0  0  0  0  0  0  0  0  0  0  0  0
   43.4883   35.9250   46.4914 H   0  0  0  0  0  0  0  0  0  0  0  0
   48.8715   35.6090   38.6727 H   0  0  0  0  0  0  0  0  0  0  0  0
   49.0289   34.1442   36.6193 H   0  0  0  0  0  0  0  0  0  0  0  0
   46.9038   31.0876   38.7266 H   0  0  0  0  0  0  0  0  0  0  0  0
  1  2  1  0
  1  5  1  0
  2  3  1  0
  3  4  1  0
  5  4  1  0
  5  6  1  0
  6  7  1  0
  6 12  1  0
  7  8  2  0
  8  9  1  0
  9 10  1  0
 11  9  2  0
 12 13  2  0
 12 11  1  0
 14 19  1  0
 14  1  1  0
 15 14  2  0
 16 17  2  0
 16 15  1  0
 17 18  1  0
 18 19  2  0
  1 20  1  6
  2 21  1  0
  2 22  1  0
  3 23  1  0
  3 24  1  0
  4 25  1  0
  4 26  1  0
  5 27  1  6
  7 28  1  0
  8 29  1  0
 10 30  1  0
 10 31  1  0
 15 32  1  0
 16 33  1  0
 18 34  1  0
M  ISO  8  20  13  21  13  22  13  23  13  24  13  25  13  26  13  27  13
M  ISO  5  28  14  29  14  32  14  33  14  34  14
M  END
>  <minimizedAffinity>  (1) 
-6.52961397

>  <minimizedRMSD>  (1) 
4.05563736

$$$$
