
     RDKit          3D

 32 34  0  0  1  0  0  0  0  0999 V2000
   45.3090   34.4680   43.7500 C   0  0  2  0  0  0  0  0  0  0  0  0
   44.9440   35.0210   45.1150 C   0  0  0  0  0  0  0  0  0  0  0  0
   45.2610   33.5670   44.9200 C   0  0  2  0  0  0  0  0  0  0  0  0
   46.5060   33.0510   45.4790 N   0  0  0  0  0  0  0  0  0  0  0  0
   46.7820   31.8030   44.8470 C   0  0  0  0  0  0  0  0  0  0  0  0
   46.5420   30.6970   45.8820 C   0  0  0  0  0  0  0  0  0  0  0  0
   47.5910   30.8430   46.8600 N   0  0  0  0  0  0  0  0  0  0  0  0
   47.4110   32.0840   47.5570 C   0  0  0  0  0  0  0  0  0  0  0  0
   46.4850   33.0550   46.9040 C   0  0  0  0  0  0  0  0  0  0  0  0
   46.6140   34.8810   43.3400 O   0  0  0  0  0  0  0  0  0  0  0  0
   47.0610   34.7080   42.0560 C   0  0  0  0  0  0  0  0  0  0  0  0
   48.2310   35.4450   41.7790 C   0  0  0  0  0  0  0  0  0  0  0  0
   48.7910   35.3650   40.5060 C   0  0  0  0  0  0  0  0  0  0  0  0
   48.1750   34.5730   39.5920 N   0  0  0  0  0  0  0  0  0  0  0  0
   47.0560   33.8830   39.8990 C   0  0  0  0  0  0  0  0  0  0  0  0
   46.5160   33.9520   41.1050 N   0  0  0  0  0  0  0  0  0  0  0  0
   44.8529   34.4369   42.7495 H   0  0  0  0  0  0  0  0  0  0  0  0
   45.6466   35.6735   45.6541 H   0  0  0  0  0  0  0  0  0  0  0  0
   44.1016   35.5927   45.5317 H   0  0  0  0  0  0  0  0  0  0  0  0
   44.7406   32.6221   45.1351 H   0  0  0  0  0  0  0  0  0  0  0  0
   46.1125   31.6625   43.9856 H   0  0  0  0  0  0  0  0  0  0  0  0
   47.8201   31.7745   44.4843 H   0  0  0  0  0  0  0  0  0  0  0  0
   45.5567   30.8217   46.3550 H   0  0  0  0  0  0  0  0  0  0  0  0
   46.5543   29.6990   45.4196 H   0  0  0  0  0  0  0  0  0  0  0  0
   47.5497   30.0617   47.5299 H   0  0  0  0  0  0  0  0  0  0  0  0
   47.0146   31.8571   48.5577 H   0  0  0  0  0  0  0  0  0  0  0  0
   48.3980   32.5693   47.5728 H   0  0  0  0  0  0  0  0  0  0  0  0
   46.7556   34.0651   47.2452 H   0  0  0  0  0  0  0  0  0  0  0  0
   45.4690   32.7497   47.1946 H   0  0  0  0  0  0  0  0  0  0  0  0
   48.6936   36.0725   42.5551 H   0  0  0  0  0  0  0  0  0  0  0  0
   49.7024   35.9252   40.2500 H   0  0  0  0  0  0  0  0  0  0  0  0
   46.5841   33.2514   39.1319 H   0  0  0  0  0  0  0  0  0  0  0  0
  1  3  1  0
  1  2  1  0
  3  2  1  0
  3  4  1  0
  4  9  1  0
  5  4  1  0
  5  6  1  0
  6  7  1  0
  7  8  1  0
  9  8  1  0
 10  1  1  0
 11 10  1  0
 12 11  2  0
 13 12  1  0
 14 15  1  0
 14 13  2  0
 15 16  2  0
 16 11  1  0
  1 17  1  6
  2 18  1  0
  2 19  1  0
  3 20  1  6
  5 21  1  0
  5 22  1  0
  6 23  1  0
  6 24  1  0
  7 25  1  0
  8 26  1  0
  8 27  1  0
  9 28  1  0
  9 29  1  0
 12 30  1  0
 13 31  1  0
 15 32  1  0
M  ISO  8  17  13  18  13  19  13  20  13  21  13  22  13  23  13  24  13
M  ISO  8  25   5  26  13  27  13  28  13  29  13  30  14  31  14  32  14
M  END
>  <minimizedAffinity>  (1) 
-4.03077316

>  <minimizedRMSD>  (1) 
1.55954146

$$$$
