
     RDKit          3D

 20 21  0  0  1  0  0  0  0  0999 V2000
   42.3700   35.4300   41.6910 O   0  0  0  0  0  0  0  0  0  0  0  0
   43.7120   35.1340   41.6480 C   0  0  0  0  0  0  0  0  0  0  0  0
   44.4290   35.6710   42.7380 C   0  0  0  0  0  0  0  0  0  0  0  0
   45.8150   35.4360   42.8010 C   0  0  0  0  0  0  0  0  0  0  0  0
   46.3610   34.7090   41.8060 N   0  0  0  0  0  0  0  0  0  0  0  0
   45.6510   34.2170   40.7900 C   0  0  0  0  0  0  0  0  0  0  0  0
   44.3440   34.4280   40.7160 N   0  0  0  0  0  0  0  0  0  0  0  0
   41.5700   35.4600   40.5050 C   0  0  2  0  0  0  0  0  0  0  0  0
   40.3180   36.2850   40.6730 C   0  0  0  0  0  0  0  0  0  0  0  0
   40.2420   34.8120   40.6060 C   0  0  2  0  0  0  0  0  0  0  0  0
   39.9490   33.9620   41.7790 C   0  0  0  0  0  0  0  0  0  0  0  0
   39.4940   32.8560   41.6500 O   0  0  0  0  0  0  0  0  0  0  0  0
   43.9189   36.2569   43.5167 H   0  0  0  0  0  0  0  0  0  0  0  0
   46.4265   35.8287   43.6267 H   0  0  0  0  0  0  0  0  0  0  0  0
   46.1539   33.6311   40.0066 H   0  0  0  0  0  0  0  0  0  0  0  0
   42.4011   35.3971   39.7871 H   0  0  0  0  0  0  0  0  0  0  0  0
   40.1233   36.8046   41.6228 H   0  0  0  0  0  0  0  0  0  0  0  0
   39.8515   37.1167   40.1247 H   0  0  0  0  0  0  0  0  0  0  0  0
   39.6430   34.1250   39.9902 H   0  0  0  0  0  0  0  0  0  0  0  0
   40.1508   34.3481   42.7891 H   0  0  0  0  0  0  0  0  0  0  0  0
  2  1  1  0
  2  3  2  0
  3  4  1  0
  5  4  2  0
  6  5  1  0
  7  6  2  0
  7  2  1  0
  8 10  1  0
  8  9  1  0
  8  1  1  0
 10  9  1  0
 10 11  1  0
 12 11  2  0
  3 13  1  0
  4 14  1  0
  6 15  1  0
  8 16  1  6
  9 17  1  0
  9 18  1  0
 10 19  1  6
 11 20  1  0
M  ISO  8  13  14  14  14  15  14  16  13  17  13  18  13  19  13  20   6
M  END
>  <minimizedAffinity>  (1) 
-3.79447913

>  <minimizedRMSD>  (1) 
5.08571053

$$$$
