
     RDKit          3D

 27 28  0  0  1  0  0  0  0  0999 V2000
   46.0660   34.1230   43.3830 O   0  0  0  0  0  0  0  0  0  0  0  0
   47.2250   33.6150   42.8570 C   0  0  0  0  0  0  0  0  0  0  0  0
   47.5260   32.3330   43.3640 C   0  0  0  0  0  0  0  0  0  0  0  0
   48.6920   31.6920   42.9140 C   0  0  0  0  0  0  0  0  0  0  0  0
   49.4610   32.3610   42.0080 N   0  0  0  0  0  0  0  0  0  0  0  0
   49.1340   33.5710   41.5590 C   0  0  0  0  0  0  0  0  0  0  0  0
   48.0380   34.1860   41.9740 N   0  0  0  0  0  0  0  0  0  0  0  0
   45.7340   35.5120   43.2620 C   0  0  2  0  0  0  0  0  0  0  0  0
   44.4450   35.8660   43.9650 C   0  0  0  0  0  0  0  0  0  0  0  0
   44.5160   35.7990   42.4690 C   0  0  2  0  0  0  0  0  0  0  0  0
   43.7350   34.6620   41.8460 C   0  0  0  0  0  0  0  0  0  0  0  0
   44.3350   34.2280   40.5270 C   0  0  0  0  0  0  0  0  0  0  0  0
   42.2920   35.1360   41.6460 C   0  0  0  0  0  0  0  0  0  0  0  0
   46.8629   31.8469   44.0947 H   0  0  0  0  0  0  0  0  0  0  0  0
   48.9730   30.6924   43.2771 H   0  0  0  0  0  0  0  0  0  0  0  0
   49.7879   34.0696   40.8284 H   0  0  0  0  0  0  0  0  0  0  0  0
   46.7640   35.8979   43.2516 H   0  0  0  0  0  0  0  0  0  0  0  0
   43.8930   35.0983   44.5272 H   0  0  0  0  0  0  0  0  0  0  0  0
   44.1362   36.6220   44.7019 H   0  0  0  0  0  0  0  0  0  0  0  0
   44.3212   36.4767   41.6247 H   0  0  0  0  0  0  0  0  0  0  0  0
   43.7681   33.7882   42.5134 H   0  0  0  0  0  0  0  0  0  0  0  0
   45.2132   33.5928   40.7150 H   0  0  0  0  0  0  0  0  0  0  0  0
   43.5877   33.6601   39.9534 H   0  0  0  0  0  0  0  0  0  0  0  0
   44.6405   35.1155   39.9534 H   0  0  0  0  0  0  0  0  0  0  0  0
   41.8180   35.2917   42.6263 H   0  0  0  0  0  0  0  0  0  0  0  0
   42.2912   36.0816   41.0840 H   0  0  0  0  0  0  0  0  0  0  0  0
   41.7307   34.3750   41.0840 H   0  0  0  0  0  0  0  0  0  0  0  0
  2  3  2  0
  2  1  1  0
  4  3  1  0
  5  4  2  0
  6  7  2  0
  6  5  1  0
  7  2  1  0
  8  1  1  0
  8  9  1  0
 10  8  1  0
 10  9  1  0
 11 10  1  0
 12 11  1  0
 13 11  1  0
  3 14  1  0
  4 15  1  0
  6 16  1  0
  8 17  1  6
  9 18  1  0
  9 19  1  0
 10 20  1  6
 11 21  1  0
 12 22  1  0
 12 23  1  0
 12 24  1  0
 13 25  1  0
 13 26  1  0
 13 27  1  0
M  ISO  8  14  14  15  14  16  14  17  13  18  13  19  13  20  13  21   8
M  ISO  6  22   8  23   8  24   8  25   8  26   8  27   8
M  END
>  <minimizedAffinity>  (1) 
-3.14473224

>  <minimizedRMSD>  (1) 
3.6312232

$$$$
