
     RDKit          3D

 19 20  0  0  1  0  0  0  0  0999 V2000
   47.0890   34.2220   43.8700 O   0  0  0  0  0  0  0  0  0  0  0  0
   47.6130   33.8920   42.6410 C   0  0  0  0  0  0  0  0  0  0  0  0
   47.6930   34.9880   41.7560 C   0  0  0  0  0  0  0  0  0  0  0  0
   48.2030   34.7660   40.4810 C   0  0  0  0  0  0  0  0  0  0  0  0
   48.5920   33.5200   40.1630 N   0  0  0  0  0  0  0  0  0  0  0  0
   48.5040   32.5060   41.0250 C   0  0  0  0  0  0  0  0  0  0  0  0
   48.0160   32.6810   42.2630 N   0  0  0  0  0  0  0  0  0  0  0  0
   46.2240   33.3320   44.5810 C   0  0  2  0  0  0  0  0  0  0  0  0
   45.4270   34.0350   45.6560 C   0  0  0  0  0  0  0  0  0  0  0  0
   46.5300   33.1180   46.0100 C   0  0  1  0  0  0  0  0  0  0  0  0
   46.0710   31.4550   46.6340 S   0  0  0  0  0  0  0  0  0  0  0  0
   47.3613   35.9901   42.0656 H   0  0  0  0  0  0  0  0  0  0  0  0
   48.2854   35.5872   39.7538 H   0  0  0  0  0  0  0  0  0  0  0  0
   48.8385   31.5051   40.7147 H   0  0  0  0  0  0  0  0  0  0  0  0
   46.0204   32.6580   43.7359 H   0  0  0  0  0  0  0  0  0  0  0  0
   45.5397   35.1187   45.8074 H   0  0  0  0  0  0  0  0  0  0  0  0
   44.3607   34.1129   45.9147 H   0  0  0  0  0  0  0  0  0  0  0  0
   47.4186   33.2220   46.6499 H   0  0  0  0  0  0  0  0  0  0  0  0
   46.0736   31.4645   48.0040 H   0  0  0  0  0  0  0  0  0  0  0  0
  1  8  1  0
  2  1  1  0
  3  2  2  0
  4  3  1  0
  5  4  2  0
  5  6  1  0
  6  7  2  0
  7  2  1  0
  8  9  1  0
  8 10  1  0
  9 10  1  0
 10 11  1  0
  3 12  1  0
  4 13  1  0
  6 14  1  0
  8 15  1  6
  9 16  1  0
  9 17  1  0
 10 18  1  6
 11 19  1  0
M  ISO  8  12  14  13  14  14  14  15  13  16  13  17  13  18  13  19  11
M  END
>  <minimizedAffinity>  (1) 
-3.01851797

>  <minimizedRMSD>  (1) 
2.09887242

$$$$
