
     RDKit          3D

 36 38  0  0  1  0  0  0  0  0999 V2000
   47.2130   33.7970   42.6410 C   0  0  2  0  0  0  0  0  0  0  0  0
   48.5600   33.5240   43.1470 C   0  0  0  0  0  0  0  0  0  0  0  0
   49.4790   34.6330   42.6320 C   0  0  0  0  0  0  0  0  0  0  0  0
   48.6130   35.6330   41.9110 C   0  0  0  0  0  0  0  0  0  0  0  0
   47.4160   34.8530   41.5220 C   0  0  1  0  0  0  0  0  0  0  0  0
   46.2520   34.4100   43.5760 C   0  0  0  0  0  0  0  0  0  0  0  0
   46.0530   33.8290   44.8370 C   0  0  0  0  0  0  0  0  0  0  0  0
   45.1630   34.4190   45.7370 C   0  0  0  0  0  0  0  0  0  0  0  0
   44.5290   35.5580   45.3120 N   0  0  0  0  0  0  0  0  0  0  0  0
   44.7430   36.0970   44.0890 C   0  0  0  0  0  0  0  0  0  0  0  0
   45.5970   35.5250   43.2320 N   0  0  0  0  0  0  0  0  0  0  0  0
   47.4630   33.1410   37.5810 C   0  0  0  0  0  0  0  0  0  0  0  0
   46.5520   32.6860   38.5100 C   0  0  0  0  0  0  0  0  0  0  0  0
   46.5530   33.2500   39.7710 C   0  0  0  0  0  0  0  0  0  0  0  0
   47.4100   34.2560   40.1950 C   0  0  0  0  0  0  0  0  0  0  0  0
   48.2920   34.6410   39.1720 C   0  0  0  0  0  0  0  0  0  0  0  0
   48.3470   34.1260   37.8980 C   0  0  0  0  0  0  0  0  0  0  0  0
   47.5050   32.4690   35.9800 S   0  0  0  0  0  0  0  0  0  0  0  0
   48.3590   31.2350   35.9570 O   0  0  0  0  0  0  0  0  0  0  0  0
   46.1250   32.1540   35.4720 O   0  0  0  0  0  0  0  0  0  0  0  0
   46.7858   32.8220   42.3638 H   0  0  0  0  0  0  0  0  0  0  0  0
   48.5545   33.5216   44.2470 H   0  0  0  0  0  0  0  0  0  0  0  0
   48.9106   32.5398   42.8030 H   0  0  0  0  0  0  0  0  0  0  0  0
   49.9925   35.1183   43.4751 H   0  0  0  0  0  0  0  0  0  0  0  0
   50.2447   34.2226   41.9573 H   0  0  0  0  0  0  0  0  0  0  0  0
   48.3387   36.4648   42.5765 H   0  0  0  0  0  0  0  0  0  0  0  0
   49.1205   36.0894   41.0484 H   0  0  0  0  0  0  0  0  0  0  0  0
   46.5754   35.5569   41.4324 H   0  0  0  0  0  0  0  0  0  0  0  0
   46.5952   32.9133   45.1156 H   0  0  0  0  0  0  0  0  0  0  0  0
   44.9802   33.9924   46.7343 H   0  0  0  0  0  0  0  0  0  0  0  0
   44.2100   37.0138   43.7968 H   0  0  0  0  0  0  0  0  0  0  0  0
   45.8383   31.8896   38.2523 H   0  0  0  0  0  0  0  0  0  0  0  0
   45.8169   32.8722   40.4959 H   0  0  0  0  0  0  0  0  0  0  0  0
   49.0126   35.4359   39.4147 H   0  0  0  0  0  0  0  0  0  0  0  0
   49.0774   34.4960   37.1634 H   0  0  0  0  0  0  0  0  0  0  0  0
   48.0500   33.4116   35.1486 H   0  0  0  0  0  0  0  0  0  0  0  0
  1  2  1  0
  1  6  1  0
  3  2  1  0
  4  3  1  0
  5  4  1  0
  5  1  1  0
  6  7  2  0
  7  8  1  0
  9  8  2  0
 10  9  1  0
 11  6  1  0
 11 10  2  0
 12 17  2  0
 12 13  1  0
 13 14  2  0
 14 15  1  0
 15  5  1  0
 16 15  2  0
 17 16  1  0
 18 12  1  0
 19 18  2  0
 20 18  2  0
  1 21  1  6
  2 22  1  0
  2 23  1  0
  3 24  1  0
  3 25  1  0
  4 26  1  0
  4 27  1  0
  5 28  1  6
  7 29  1  0
  8 30  1  0
 10 31  1  0
 13 32  1  0
 14 33  1  0
 16 34  1  0
 17 35  1  0
 18 36  1  0
M  ISO  8  21  13  22  13  23  13  24  13  25  13  26  13  27  13  28  13
M  ISO  8  29  14  30  14  31  14  32  14  33  14  34  14  35  14  36  11
M  END
>  <minimizedAffinity>  (1) 
-5.93132305

>  <minimizedRMSD>  (1) 
6.50172949

$$$$
