
     RDKit          3D

 25 27  0  0  1  0  0  0  0  0999 V2000
   46.6880   31.5420   44.2500 C   0  0  2  0  0  0  0  0  0  0  0  0
   47.7480   30.5220   44.6000 C   0  0  0  0  0  0  0  0  0  0  0  0
   47.4790   30.8750   43.1890 C   0  0  2  0  0  0  0  0  0  0  0  0
   48.4010   31.6400   42.3860 N   0  0  0  0  0  0  0  0  0  0  0  0
   49.6760   31.8830   42.6050 N   0  0  0  0  0  0  0  0  0  0  0  0
   50.1890   32.6320   41.6290 C   0  0  0  0  0  0  0  0  0  0  0  0
   49.1450   32.8640   40.7410 C   0  0  0  0  0  0  0  0  0  0  0  0
   48.0050   32.2260   41.2330 C   0  0  0  0  0  0  0  0  0  0  0  0
   47.1020   32.8740   44.5810 O   0  0  0  0  0  0  0  0  0  0  0  0
   46.2180   33.9250   44.5660 C   0  0  0  0  0  0  0  0  0  0  0  0
   46.2240   34.6470   43.3540 C   0  0  0  0  0  0  0  0  0  0  0  0
   45.3690   35.7370   43.2290 C   0  0  0  0  0  0  0  0  0  0  0  0
   44.5720   36.0560   44.2700 N   0  0  0  0  0  0  0  0  0  0  0  0
   44.5970   35.3360   45.4130 C   0  0  0  0  0  0  0  0  0  0  0  0
   45.4040   34.2960   45.5520 N   0  0  0  0  0  0  0  0  0  0  0  0
   45.6115   31.6801   44.4292 H   0  0  0  0  0  0  0  0  0  0  0  0
   48.6846   30.8421   45.0799 H   0  0  0  0  0  0  0  0  0  0  0  0
   47.7723   29.5882   45.1809 H   0  0  0  0  0  0  0  0  0  0  0  0
   47.2479   30.2786   42.2941 H   0  0  0  0  0  0  0  0  0  0  0  0
   51.2249   32.9922   41.5438 H   0  0  0  0  0  0  0  0  0  0  0  0
   49.2065   33.4490   39.8115 H   0  0  0  0  0  0  0  0  0  0  0  0
   47.0023   32.2045   40.7811 H   0  0  0  0  0  0  0  0  0  0  0  0
   46.8888   34.3550   42.5277 H   0  0  0  0  0  0  0  0  0  0  0  0
   45.3431   36.3267   42.3008 H   0  0  0  0  0  0  0  0  0  0  0  0
   43.9341   35.6194   46.2438 H   0  0  0  0  0  0  0  0  0  0  0  0
  1  9  1  0
  1  2  1  0
  3  1  1  0
  3  2  1  0
  4  5  1  0
  4  3  1  0
  6  5  2  0
  7  8  2  0
  7  6  1  0
  8  4  1  0
 10  9  1  0
 10 15  1  0
 11 10  2  0
 12 11  1  0
 12 13  2  0
 13 14  1  0
 14 15  2  0
  1 16  1  6
  2 17  1  0
  2 18  1  0
  3 19  1  6
  6 20  1  0
  7 21  1  0
  8 22  1  0
 11 23  1  0
 12 24  1  0
 14 25  1  0
M  ISO  8  16  13  17  13  18  13  19  13  20  14  21  14  22  14  23  14
M  ISO  2  24  14  25  14
M  END
>  <minimizedAffinity>  (1) 
-3.52788949

>  <minimizedRMSD>  (1) 
5.33350658

$$$$
