
     RDKit          3D

 32 35  0  0  1  0  0  0  0  0999 V2000
   45.3660   32.3750   43.8380 O   0  0  0  0  0  0  0  0  0  0  0  0
   44.9450   33.5530   43.3090 C   0  0  0  0  0  0  0  0  0  0  0  0
   45.7260   34.6430   43.7730 C   0  0  0  0  0  0  0  0  0  0  0  0
   45.4180   35.9320   43.3190 C   0  0  0  0  0  0  0  0  0  0  0  0
   44.3810   36.0700   42.4500 N   0  0  0  0  0  0  0  0  0  0  0  0
   43.6730   35.0060   42.0400 C   0  0  0  0  0  0  0  0  0  0  0  0
   43.9540   33.7740   42.4650 N   0  0  0  0  0  0  0  0  0  0  0  0
   42.5630   35.1870   41.1050 C   0  0  0  0  0  0  0  0  0  0  0  0
   42.6200   34.9830   39.7350 C   0  0  0  0  0  0  0  0  0  0  0  0
   41.3650   35.2660   39.2510 C   0  0  0  0  0  0  0  0  0  0  0  0
   40.5770   35.6290   40.2940 N   0  0  0  0  0  0  0  0  0  0  0  0
   41.3060   35.5800   41.4150 N   0  0  0  0  0  0  0  0  0  0  0  0
   46.7260   31.9630   43.7990 C   0  0  2  0  0  0  0  0  0  0  0  0
   46.9300   30.4970   43.9930 C   0  0  0  0  0  0  0  0  0  0  0  0
   47.2390   31.4140   45.0970 C   0  0  2  0  0  0  0  0  0  0  0  0
   46.4700   31.5510   46.2960 N   0  0  0  0  0  0  0  0  0  0  0  0
   45.6200   30.6730   46.8090 N   0  0  0  0  0  0  0  0  0  0  0  0
   45.0950   31.1660   47.9440 C   0  0  0  0  0  0  0  0  0  0  0  0
   45.6720   32.4310   48.1230 C   0  0  0  0  0  0  0  0  0  0  0  0
   46.5580   32.6750   47.0590 C   0  0  0  0  0  0  0  0  0  0  0  0
   46.5567   34.4791   44.4752 H   0  0  0  0  0  0  0  0  0  0  0  0
   45.9967   36.8051   43.6548 H   0  0  0  0  0  0  0  0  0  0  0  0
   43.4947   34.6593   39.1518 H   0  0  0  0  0  0  0  0  0  0  0  0
   41.0529   35.2080   38.1978 H   0  0  0  0  0  0  0  0  0  0  0  0
   39.5844   35.8972   40.2332 H   0  0  0  0  0  0  0  0  0  0  0  0
   47.0658   32.7153   43.0719 H   0  0  0  0  0  0  0  0  0  0  0  0
   46.0599   29.8277   44.0642 H   0  0  0  0  0  0  0  0  0  0  0  0
   47.4903   29.7171   43.4564 H   0  0  0  0  0  0  0  0  0  0  0  0
   48.1272   31.5467   45.7323 H   0  0  0  0  0  0  0  0  0  0  0  0
   44.3607   30.6757   48.6000 H   0  0  0  0  0  0  0  0  0  0  0  0
   45.4659   33.1181   48.9569 H   0  0  0  0  0  0  0  0  0  0  0  0
   47.1780   33.5666   46.8838 H   0  0  0  0  0  0  0  0  0  0  0  0
  2  3  2  0
  2  1  1  0
  4  3  1  0
  5  4  2  0
  6  5  1  0
  6  7  2  0
  7  2  1  0
  8 12  2  0
  8  6  1  0
  9  8  1  0
 10  9  2  0
 10 11  1  0
 11 12  1  0
 13  1  1  0
 13 14  1  0
 13 15  1  0
 14 15  1  0
 15 16  1  0
 16 17  1  0
 16 20  1  0
 17 18  2  0
 18 19  1  0
 20 19  2  0
  3 21  1  0
  4 22  1  0
  9 23  1  0
 10 24  1  0
 11 25  1  0
 13 26  1  6
 14 27  1  0
 14 28  1  0
 15 29  1  1
 18 30  1  0
 19 31  1  0
 20 32  1  0
M  ISO  8  21  14  22  14  23  14  24  14  25   9  26  13  27  13  28  13
M  ISO  4  29  13  30  14  31  14  32  14
M  END
>  <minimizedAffinity>  (1) 
-4.59668827

>  <minimizedRMSD>  (1) 
5.19308424

$$$$
