
     RDKit          3D

 32 35  0  0  1  0  0  0  0  0999 V2000
   48.3150   31.0500   42.7250 C   0  0  2  0  0  0  0  0  0  0  0  0
   49.8020   30.9280   42.7050 C   0  0  0  0  0  0  0  0  0  0  0  0
   49.1480   31.8480   41.7670 C   0  0  2  0  0  0  0  0  0  0  0  0
   49.1850   33.2760   41.8520 N   0  0  0  0  0  0  0  0  0  0  0  0
   49.9720   34.0150   42.6180 N   0  0  0  0  0  0  0  0  0  0  0  0
   49.7060   35.3160   42.4170 C   0  0  0  0  0  0  0  0  0  0  0  0
   48.6840   35.3620   41.4600 C   0  0  0  0  0  0  0  0  0  0  0  0
   48.3500   34.0440   41.0990 C   0  0  0  0  0  0  0  0  0  0  0  0
   47.7970   31.8000   43.8160 O   0  0  0  0  0  0  0  0  0  0  0  0
   47.0640   31.2290   44.8060 C   0  0  0  0  0  0  0  0  0  0  0  0
   46.1300   30.2920   44.2910 C   0  0  0  0  0  0  0  0  0  0  0  0
   45.2940   29.6120   45.1730 C   0  0  0  0  0  0  0  0  0  0  0  0
   45.4170   29.8830   46.4930 N   0  0  0  0  0  0  0  0  0  0  0  0
   46.3170   30.7800   46.9480 C   0  0  0  0  0  0  0  0  0  0  0  0
   47.1080   31.4250   46.1110 N   0  0  0  0  0  0  0  0  0  0  0  0
   46.4000   31.0340   48.4230 C   0  0  0  0  0  0  0  0  0  0  0  0
   45.9700   32.3460   48.9630 C   0  0  0  0  0  0  0  0  0  0  0  0
   45.0470   31.2040   49.1470 C   0  0  0  0  0  0  0  0  0  0  0  0
   47.4682   30.3527   42.6429 H   0  0  0  0  0  0  0  0  0  0  0  0
   50.3955   31.3280   43.5403 H   0  0  0  0  0  0  0  0  0  0  0  0
   50.5072   30.0903   42.6006 H   0  0  0  0  0  0  0  0  0  0  0  0
   49.2165   31.9793   40.6770 H   0  0  0  0  0  0  0  0  0  0  0  0
   50.1927   36.1730   42.9055 H   0  0  0  0  0  0  0  0  0  0  0  0
   48.2206   36.2752   41.0583 H   0  0  0  0  0  0  0  0  0  0  0  0
   47.5906   33.7111   40.3762 H   0  0  0  0  0  0  0  0  0  0  0  0
   46.0675   30.1055   43.2087 H   0  0  0  0  0  0  0  0  0  0  0  0
   44.5586   28.8794   44.8090 H   0  0  0  0  0  0  0  0  0  0  0  0
   47.3067   30.4213   48.5349 H   0  0  0  0  0  0  0  0  0  0  0  0
   46.4890   32.7694   49.8355 H   0  0  0  0  0  0  0  0  0  0  0  0
   45.8609   33.3497   48.5263 H   0  0  0  0  0  0  0  0  0  0  0  0
   44.1057   31.1560   48.5798 H   0  0  0  0  0  0  0  0  0  0  0  0
   44.5491   30.7265   50.0038 H   0  0  0  0  0  0  0  0  0  0  0  0
  1  9  1  0
  2  1  1  0
  3  4  1  0
  3  2  1  0
  3  1  1  0
  4  5  1  0
  6  5  2  0
  7  6  1  0
  8  7  2  0
  8  4  1  0
  9 10  1  0
 10 15  1  0
 11 10  2  0
 11 12  1  0
 12 13  2  0
 13 14  1  0
 14 16  1  0
 15 14  2  0
 16 17  1  0
 16 18  1  0
 17 18  1  0
  1 19  1  6
  2 20  1  0
  2 21  1  0
  3 22  1  6
  6 23  1  0
  7 24  1  0
  8 25  1  0
 11 26  1  0
 12 27  1  0
 16 28  1  0
 17 29  1  0
 17 30  1  0
 18 31  1  0
 18 32  1  0
M  ISO  8  19  13  20  13  21  13  22  13  23  14  24  14  25  14  26  14
M  ISO  6  27  14  28  13  29  13  30  13  31  13  32  13
M  END
>  <minimizedAffinity>  (1) 
-4.1327095

>  <minimizedRMSD>  (1) 
3.99969053

$$$$
