
     RDKit          3D

 42 45  0  0  1  0  0  0  0  0999 V2000
   48.5590   33.8000   42.8510 O   0  0  0  0  0  0  0  0  0  0  0  0
   47.3930   33.9840   43.5290 C   0  0  0  0  0  0  0  0  0  0  0  0
   46.5700   34.9430   42.9130 C   0  0  0  0  0  0  0  0  0  0  0  0
   45.3350   35.2310   43.5090 C   0  0  0  0  0  0  0  0  0  0  0  0
   44.9990   34.5690   44.6460 N   0  0  0  0  0  0  0  0  0  0  0  0
   45.8350   33.6570   45.1910 C   0  0  0  0  0  0  0  0  0  0  0  0
   46.9770   33.4000   44.6270 N   0  0  0  0  0  0  0  0  0  0  0  0
   45.4820   32.9830   46.3580 O   0  0  0  0  0  0  0  0  0  0  0  0
   46.4650   32.2530   47.0530 C   0  0  0  0  0  0  0  0  0  0  0  0
   46.2550   30.7910   46.6960 C   0  0  0  0  0  0  0  0  0  0  0  0
   44.9180   30.4120   47.3040 C   0  0  0  0  0  0  0  0  0  0  0  0
   45.1500   30.1480   48.7720 C   0  0  0  0  0  0  0  0  0  0  0  0
   46.2540   31.0540   49.2520 C   0  0  0  0  0  0  0  0  0  0  0  0
   46.2600   32.4010   48.5280 C   0  0  0  0  0  0  0  0  0  0  0  0
   49.1570   32.5170   42.7050 C   0  0  2  0  0  0  0  0  0  0  0  0
   50.3160   32.5100   41.7530 C   0  0  0  0  0  0  0  0  0  0  0  0
   49.0230   31.9410   41.3300 C   0  0  2  0  0  0  0  0  0  0  0  0
   48.1460   32.5480   40.3590 N   0  0  0  0  0  0  0  0  0  0  0  0
   48.4620   33.4720   39.4620 N   0  0  0  0  0  0  0  0  0  0  0  0
   47.3650   33.7740   38.7480 C   0  0  0  0  0  0  0  0  0  0  0  0
   46.3160   32.9780   39.2490 C   0  0  0  0  0  0  0  0  0  0  0  0
   46.8360   32.1970   40.2840 C   0  0  0  0  0  0  0  0  0  0  0  0
   46.8862   35.4521   41.9906 H   0  0  0  0  0  0  0  0  0  0  0  0
   44.6551   35.9743   43.0672 H   0  0  0  0  0  0  0  0  0  0  0  0
   47.4712   32.6094   46.7873 H   0  0  0  0  0  0  0  0  0  0  0  0
   46.2309   30.6618   45.6039 H   0  0  0  0  0  0  0  0  0  0  0  0
   47.0699   30.1575   47.0763 H   0  0  0  0  0  0  0  0  0  0  0  0
   44.2005   31.2363   47.1788 H   0  0  0  0  0  0  0  0  0  0  0  0
   44.5042   29.5210   46.8092 H   0  0  0  0  0  0  0  0  0  0  0  0
   44.2287   30.3546   49.3363 H   0  0  0  0  0  0  0  0  0  0  0  0
   45.4321   29.0960   48.9258 H   0  0  0  0  0  0  0  0  0  0  0  0
   46.1209   31.2327   50.3292 H   0  0  0  0  0  0  0  0  0  0  0  0
   47.2118   30.5559   49.0409 H   0  0  0  0  0  0  0  0  0  0  0  0
   47.0726   33.0190   48.9377 H   0  0  0  0  0  0  0  0  0  0  0  0
   45.2783   32.8716   48.6854 H   0  0  0  0  0  0  0  0  0  0  0  0
   48.9717   32.1561   43.7274 H   0  0  0  0  0  0  0  0  0  0  0  0
   50.6706   33.4538   41.3130 H   0  0  0  0  0  0  0  0  0  0  0  0
   51.3505   32.1384   41.7936 H   0  0  0  0  0  0  0  0  0  0  0  0
   48.7317   30.9725   40.8973 H   0  0  0  0  0  0  0  0  0  0  0  0
   47.2983   34.5041   37.9279 H   0  0  0  0  0  0  0  0  0  0  0  0
   45.2762   32.9725   38.8903 H   0  0  0  0  0  0  0  0  0  0  0  0
   46.3022   31.4601   40.9021 H   0  0  0  0  0  0  0  0  0  0  0  0
  1  2  1  0
  2  7  2  0
  3  4  2  0
  3  2  1  0
  4  5  1  0
  5  6  2  0
  6  8  1  0
  7  6  1  0
  8  9  1  0
  9 14  1  0
 10  9  1  0
 10 11  1  0
 11 12  1  0
 12 13  1  0
 14 13  1  0
 15  1  1  0
 16 15  1  0
 17 16  1  0
 17 15  1  0
 18 17  1  0
 19 18  1  0
 20 21  1  0
 20 19  2  0
 21 22  2  0
 22 18  1  0
  3 23  1  0
  4 24  1  0
  9 25  1  0
 10 26  1  0
 10 27  1  0
 11 28  1  0
 11 29  1  0
 12 30  1  0
 12 31  1  0
 13 32  1  0
 13 33  1  0
 14 34  1  0
 14 35  1  0
 15 36  1  1
 16 37  1  0
 16 38  1  0
 17 39  1  1
 20 40  1  0
 21 41  1  0
 22 42  1  0
M  ISO  8  23  14  24  14  25  13  26  13  27  13  28  13  29  13  30  13
M  ISO  8  31  13  32  13  33  13  34  13  35  13  36  13  37  13  38  13
M  ISO  4  39  13  40  14  41  14  42  14
M  END
>  <minimizedAffinity>  (1) 
-4.9151516

>  <minimizedRMSD>  (1) 
2.68254352

$$$$
