
     RDKit          3D

 33 36  0  0  1  0  0  0  0  0999 V2000
   50.5540   31.2360   37.9240 O   0  0  0  0  0  0  0  0  0  0  0  0
   49.5560   32.1480   37.9200 C   0  0  0  0  0  0  0  0  0  0  0  0
   49.1270   32.4330   36.5950 C   0  0  0  0  0  0  0  0  0  0  0  0
   48.0930   33.3620   36.4020 C   0  0  0  0  0  0  0  0  0  0  0  0
   47.5560   33.9430   37.5050 N   0  0  0  0  0  0  0  0  0  0  0  0
   48.0000   33.6360   38.7260 C   0  0  0  0  0  0  0  0  0  0  0  0
   48.9610   32.7730   38.9130 N   0  0  0  0  0  0  0  0  0  0  0  0
   47.4410   34.2380   39.8510 O   0  0  0  0  0  0  0  0  0  0  0  0
   48.1030   34.3640   41.0480 C   0  0  0  0  0  0  0  0  0  0  0  0
   48.8910   35.4980   41.1650 C   0  0  0  0  0  0  0  0  0  0  0  0
   49.4970   35.4990   42.4110 C   0  0  0  0  0  0  0  0  0  0  0  0
   49.0630   34.3670   43.0200 N   0  0  0  0  0  0  0  0  0  0  0  0
   48.2420   33.7000   42.2160 N   0  0  0  0  0  0  0  0  0  0  0  0
   51.9320   31.6390   37.8370 C   0  0  2  0  0  0  0  0  0  0  0  0
   52.9050   30.5270   37.9610 C   0  0  0  0  0  0  0  0  0  0  0  0
   52.7020   31.4180   39.1040 C   0  0  2  0  0  0  0  0  0  0  0  0
   52.0280   31.0510   40.3210 N   0  0  0  0  0  0  0  0  0  0  0  0
   51.7640   29.8410   40.7670 N   0  0  0  0  0  0  0  0  0  0  0  0
   51.1250   29.9180   41.9320 C   0  0  0  0  0  0  0  0  0  0  0  0
   50.9870   31.2870   42.2200 C   0  0  0  0  0  0  0  0  0  0  0  0
   51.5720   32.0090   41.1750 C   0  0  0  0  0  0  0  0  0  0  0  0
   49.5977   31.9337   35.7353 H   0  0  0  0  0  0  0  0  0  0  0  0
   47.7308   33.6103   35.3935 H   0  0  0  0  0  0  0  0  0  0  0  0
   49.0153   36.2721   40.3934 H   0  0  0  0  0  0  0  0  0  0  0  0
   50.1832   36.2557   42.8191 H   0  0  0  0  0  0  0  0  0  0  0  0
   49.3312   34.0679   43.9684 H   0  0  0  0  0  0  0  0  0  0  0  0
   51.7819   32.4733   37.1360 H   0  0  0  0  0  0  0  0  0  0  0  0
   52.5454   29.4884   38.0067 H   0  0  0  0  0  0  0  0  0  0  0  0
   53.7827   30.2026   37.3828 H   0  0  0  0  0  0  0  0  0  0  0  0
   53.3871   32.0000   39.7379 H   0  0  0  0  0  0  0  0  0  0  0  0
   50.7742   29.0767   42.5478 H   0  0  0  0  0  0  0  0  0  0  0  0
   50.5038   31.7150   43.1107 H   0  0  0  0  0  0  0  0  0  0  0  0
   51.6468   33.1012   41.0673 H   0  0  0  0  0  0  0  0  0  0  0  0
  2  1  1  0
  2  7  1  0
  3  2  2  0
  4  3  1  0
  4  5  2  0
  5  6  1  0
  6  7  2  0
  6  8  1  0
  8  9  1  0
  9 10  1  0
  9 13  2  0
 10 11  2  0
 11 12  1  0
 13 12  1  0
 14  1  1  0
 14 15  1  0
 14 16  1  0
 15 16  1  0
 16 17  1  0
 17 18  1  0
 17 21  1  0
 18 19  2  0
 19 20  1  0
 21 20  2  0
  3 22  1  0
  4 23  1  0
 10 24  1  0
 11 25  1  0
 12 26  1  0
 14 27  1  6
 15 28  1  0
 15 29  1  0
 16 30  1  1
 19 31  1  0
 20 32  1  0
 21 33  1  0
M  ISO  8  22  14  23  14  24  14  25  14  26   9  27  13  28  13  29  13
M  ISO  4  30  13  31  14  32  14  33  14
M  END
>  <minimizedAffinity>  (1) 
-4.17354345

>  <minimizedRMSD>  (1) 
7.02902174

$$$$
