
     RDKit          3D

 30 32  0  0  1  0  0  0  0  0999 V2000
   47.6380   33.7590   42.2510 C   0  0  2  0  0  0  0  0  0  0  0  0
   49.0030   33.4980   42.7140 C   0  0  0  0  0  0  0  0  0  0  0  0
   49.8630   34.7080   42.3460 C   0  0  0  0  0  0  0  0  0  0  0  0
   48.9470   35.7390   41.7400 C   0  0  0  0  0  0  0  0  0  0  0  0
   47.7930   34.9460   41.2540 C   0  0  1  0  0  0  0  0  0  0  0  0
   46.6580   34.2170   43.2480 C   0  0  0  0  0  0  0  0  0  0  0  0
   46.5940   33.5670   44.4910 C   0  0  0  0  0  0  0  0  0  0  0  0
   45.6850   34.0030   45.4540 C   0  0  0  0  0  0  0  0  0  0  0  0
   44.8920   35.0690   45.1120 N   0  0  0  0  0  0  0  0  0  0  0  0
   44.9770   35.6770   43.9030 C   0  0  0  0  0  0  0  0  0  0  0  0
   45.8520   35.2510   42.9820 N   0  0  0  0  0  0  0  0  0  0  0  0
   47.9290   34.4420   39.8850 C   0  0  0  0  0  0  0  0  0  0  0  0
   47.3350   33.3580   39.2720 C   0  0  0  0  0  0  0  0  0  0  0  0
   47.7350   33.2480   37.9970 N   0  0  0  0  0  0  0  0  0  0  0  0
   48.5940   34.2450   37.7410 C   0  0  0  0  0  0  0  0  0  0  0  0
   48.7020   34.9550   38.8840 N   0  0  0  0  0  0  0  0  0  0  0  0
   47.2478   32.8026   41.8729 H   0  0  0  0  0  0  0  0  0  0  0  0
   49.0068   33.3544   43.8046 H   0  0  0  0  0  0  0  0  0  0  0  0
   49.4004   32.5873   42.2420 H   0  0  0  0  0  0  0  0  0  0  0  0
   50.3451   35.1155   43.2469 H   0  0  0  0  0  0  0  0  0  0  0  0
   50.6536   34.4232   41.6362 H   0  0  0  0  0  0  0  0  0  0  0  0
   48.6281   36.4721   42.4956 H   0  0  0  0  0  0  0  0  0  0  0  0
   49.4305   36.3197   40.9406 H   0  0  0  0  0  0  0  0  0  0  0  0
   46.9091   35.5997   41.2156 H   0  0  0  0  0  0  0  0  0  0  0  0
   47.2587   32.7168   44.7042 H   0  0  0  0  0  0  0  0  0  0  0  0
   45.6076   33.5171   46.4378 H   0  0  0  0  0  0  0  0  0  0  0  0
   44.3202   36.5296   43.6757 H   0  0  0  0  0  0  0  0  0  0  0  0
   46.6272   32.6747   39.7640 H   0  0  0  0  0  0  0  0  0  0  0  0
   49.1082   34.4446   36.7893 H   0  0  0  0  0  0  0  0  0  0  0  0
   49.2989   35.7878   38.9886 H   0  0  0  0  0  0  0  0  0  0  0  0
  1  2  1  0
  1  6  1  0
  3  2  1  0
  4  3  1  0
  5  4  1  0
  5  1  1  0
  6  7  2  0
  7  8  1  0
  9  8  2  0
 10  9  1  0
 11  6  1  0
 11 10  2  0
 12  5  1  0
 13 12  2  0
 14 13  1  0
 15 14  2  0
 15 16  1  0
 16 12  1  0
  1 17  1  6
  2 18  1  0
  2 19  1  0
  3 20  1  0
  3 21  1  0
  4 22  1  0
  4 23  1  0
  5 24  1  6
  7 25  1  0
  8 26  1  0
 10 27  1  0
 13 28  1  0
 15 29  1  0
 16 30  1  0
M  ISO  8  17  13  18  13  19  13  20  13  21  13  22  13  23  13  24  13
M  ISO  6  25  14  26  14  27  14  28  14  29  14  30   9
M  END
>  <minimizedAffinity>  (1) 
-5.65967035

>  <minimizedRMSD>  (1) 
4.24822712

$$$$
