
     RDKit          3D

 46 50  0  0  1  0  0  0  0  0999 V2000
   46.3050   34.4790   43.5880 C   0  0  0  0  0  0  0  0  0  0  0  0
   45.5340   35.6300   43.3030 C   0  0  0  0  0  0  0  0  0  0  0  0
   44.6190   36.0900   44.2670 C   0  0  0  0  0  0  0  0  0  0  0  0
   44.5280   35.3970   45.4250 N   0  0  0  0  0  0  0  0  0  0  0  0
   45.2890   34.3040   45.6470 C   0  0  0  0  0  0  0  0  0  0  0  0
   46.1310   33.8870   44.7490 N   0  0  0  0  0  0  0  0  0  0  0  0
   47.1390   34.1660   42.5660 O   0  0  0  0  0  0  0  0  0  0  0  0
   48.5550   34.0460   42.7580 C   0  0  2  0  0  0  0  0  0  0  0  0
   49.3240   35.1640   42.1400 C   0  0  0  0  0  0  0  0  0  0  0  0
   49.3390   33.8310   41.5030 C   0  0  2  0  0  0  0  0  0  0  0  0
   48.6610   33.5150   40.2780 N   0  0  0  0  0  0  0  0  0  0  0  0
   48.1300   34.3530   39.4140 N   0  0  0  0  0  0  0  0  0  0  0  0
   47.5850   33.6980   38.3900 C   0  0  0  0  0  0  0  0  0  0  0  0
   47.8070   32.3270   38.6590 C   0  0  0  0  0  0  0  0  0  0  0  0
   48.4970   32.2350   39.8700 C   0  0  0  0  0  0  0  0  0  0  0  0
   45.1940   33.5950   46.8360 O   0  0  0  0  0  0  0  0  0  0  0  0
   45.7940   32.2910   46.9940 C   0  0  0  0  0  0  0  0  0  0  0  0
   46.1830   32.1220   48.4300 C   0  0  0  0  0  0  0  0  0  0  0  0
   47.4750   31.4360   48.5730 C   0  0  0  0  0  0  0  0  0  0  0  0
   48.7410   31.7170   49.0230 C   0  0  0  0  0  0  0  0  0  0  0  0
   49.5540   30.6510   48.8920 N   0  0  0  0  0  0  0  0  0  0  0  0
   48.8590   29.6310   48.3540 C   0  0  0  0  0  0  0  0  0  0  0  0
   49.2690   28.3490   48.0350 C   0  0  0  0  0  0  0  0  0  0  0  0
   48.3250   27.4870   47.4760 C   0  0  0  0  0  0  0  0  0  0  0  0
   47.0240   27.8970   47.2480 C   0  0  0  0  0  0  0  0  0  0  0  0
   46.7090   29.1900   47.5970 C   0  0  0  0  0  0  0  0  0  0  0  0
   47.5830   30.1050   48.1550 C   0  0  0  0  0  0  0  0  0  0  0  0
   45.6480   36.1564   42.3439 H   0  0  0  0  0  0  0  0  0  0  0  0
   43.9999   36.9810   44.0858 H   0  0  0  0  0  0  0  0  0  0  0  0
   48.5177   33.5567   43.7425 H   0  0  0  0  0  0  0  0  0  0  0  0
   48.7903   35.9964   41.6581 H   0  0  0  0  0  0  0  0  0  0  0  0
   50.0966   35.8621   42.4946 H   0  0  0  0  0  0  0  0  0  0  0  0
   50.1490   33.1666   41.1675 H   0  0  0  0  0  0  0  0  0  0  0  0
   47.0711   34.1315   37.5194 H   0  0  0  0  0  0  0  0  0  0  0  0
   47.4923   31.4835   38.0270 H   0  0  0  0  0  0  0  0  0  0  0  0
   48.8338   31.3210   40.3810 H   0  0  0  0  0  0  0  0  0  0  0  0
   45.0707   31.5122   46.7107 H   0  0  0  0  0  0  0  0  0  0  0  0
   46.6803   32.2015   46.3487 H   0  0  0  0  0  0  0  0  0  0  0  0
   46.2543   33.1150   48.8979 H   0  0  0  0  0  0  0  0  0  0  0  0
   45.4148   31.5057   48.9200 H   0  0  0  0  0  0  0  0  0  0  0  0
   49.0516   32.6876   49.4372 H   0  0  0  0  0  0  0  0  0  0  0  0
   50.5480   30.6210   49.1604 H   0  0  0  0  0  0  0  0  0  0  0  0
   50.3032   28.0206   48.2157 H   0  0  0  0  0  0  0  0  0  0  0  0
   48.6213   26.4612   47.2115 H   0  0  0  0  0  0  0  0  0  0  0  0
   46.2760   27.2209   46.8082 H   0  0  0  0  0  0  0  0  0  0  0  0
   45.6763   29.5236   47.4173 H   0  0  0  0  0  0  0  0  0  0  0  0
  1  6  1  0
  2  1  2  0
  2  3  1  0
  3  4  2  0
  4  5  1  0
  5 16  1  0
  6  5  2  0
  7  8  1  0
  7  1  1  0
  9  8  1  0
 10  9  1  0
 10  8  1  0
 11 10  1  0
 12 11  1  0
 13 14  1  0
 13 12  2  0
 14 15  2  0
 15 11  1  0
 16 17  1  0
 17 18  1  0
 18 19  1  0
 19 20  2  0
 21 20  1  0
 22 21  1  0
 23 22  2  0
 24 23  1  0
 25 24  2  0
 25 26  1  0
 26 27  2  0
 27 22  1  0
 27 19  1  0
  2 28  1  0
  3 29  1  0
  8 30  1  1
  9 31  1  0
  9 32  1  0
 10 33  1  1
 13 34  1  0
 14 35  1  0
 15 36  1  0
 17 37  1  0
 17 38  1  0
 18 39  1  0
 18 40  1  0
 20 41  1  0
 21 42  1  0
 23 43  1  0
 24 44  1  0
 25 45  1  0
 26 46  1  0
M  ISO  8  28  14  29  14  30  13  31  13  32  13  33  13  34  14  35  14
M  ISO  8  36  14  37   8  38   8  39   8  40   8  41  14  42   9  43  14
M  ISO  3  44  14  45  14  46  14
M  END
>  <minimizedAffinity>  (1) 
-5.71518564

>  <minimizedRMSD>  (1) 
1.91382241

$$$$
