
     RDKit          3D

 43 47  0  0  1  0  0  0  0  0999 V2000
   46.3100   34.2020   43.7930 C   0  0  0  0  0  0  0  0  0  0  0  0
   45.6120   35.3590   43.3960 C   0  0  0  0  0  0  0  0  0  0  0  0
   44.7070   35.9330   44.3130 C   0  0  0  0  0  0  0  0  0  0  0  0
   44.5530   35.3460   45.5230 N   0  0  0  0  0  0  0  0  0  0  0  0
   45.2500   34.2390   45.8430 C   0  0  0  0  0  0  0  0  0  0  0  0
   46.0920   33.7010   44.9970 N   0  0  0  0  0  0  0  0  0  0  0  0
   47.1490   33.7550   42.8190 O   0  0  0  0  0  0  0  0  0  0  0  0
   48.5650   33.6710   43.0330 C   0  0  2  0  0  0  0  0  0  0  0  0
   49.2970   34.8890   42.5840 C   0  0  0  0  0  0  0  0  0  0  0  0
   49.3870   33.6480   41.7870 C   0  0  2  0  0  0  0  0  0  0  0  0
   48.7510   33.4740   40.5150 N   0  0  0  0  0  0  0  0  0  0  0  0
   48.1520   34.3740   39.7720 N   0  0  0  0  0  0  0  0  0  0  0  0
   47.6820   33.8200   38.6510 C   0  0  0  0  0  0  0  0  0  0  0  0
   48.0240   32.4690   38.7120 C   0  0  0  0  0  0  0  0  0  0  0  0
   48.7080   32.2620   39.9110 C   0  0  0  0  0  0  0  0  0  0  0  0
   45.0880   33.6400   47.0900 O   0  0  0  0  0  0  0  0  0  0  0  0
   45.4960   32.2880   47.3010 C   0  0  0  0  0  0  0  0  0  0  0  0
   46.3790   32.1950   48.5160 C   0  0  0  0  0  0  0  0  0  0  0  0
   47.2690   31.0660   48.3250 N   0  0  0  0  0  0  0  0  0  0  0  0
   47.0860   29.8630   47.7710 C   0  0  0  0  0  0  0  0  0  0  0  0
   48.2210   29.1430   47.8270 N   0  0  0  0  0  0  0  0  0  0  0  0
   49.1740   29.8780   48.4270 C   0  0  0  0  0  0  0  0  0  0  0  0
   50.5080   29.6700   48.7550 C   0  0  0  0  0  0  0  0  0  0  0  0
   51.1900   30.6470   49.3720 N   0  0  0  0  0  0  0  0  0  0  0  0
   50.5820   31.8260   49.6700 C   0  0  0  0  0  0  0  0  0  0  0  0
   49.2990   32.0330   49.3570 N   0  0  0  0  0  0  0  0  0  0  0  0
   48.5680   31.0940   48.7410 C   0  0  0  0  0  0  0  0  0  0  0  0
   45.7679   35.8015   42.4011 H   0  0  0  0  0  0  0  0  0  0  0  0
   44.1389   36.8377   44.0507 H   0  0  0  0  0  0  0  0  0  0  0  0
   48.5261   33.0594   43.9465 H   0  0  0  0  0  0  0  0  0  0  0  0
   48.7383   35.7526   42.1939 H   0  0  0  0  0  0  0  0  0  0  0  0
   50.0282   35.5687   43.0459 H   0  0  0  0  0  0  0  0  0  0  0  0
   50.2317   33.0607   41.3979 H   0  0  0  0  0  0  0  0  0  0  0  0
   47.1352   34.3272   37.8424 H   0  0  0  0  0  0  0  0  0  0  0  0
   47.7961   31.7058   37.9533 H   0  0  0  0  0  0  0  0  0  0  0  0
   49.1240   31.3153   40.2861 H   0  0  0  0  0  0  0  0  0  0  0  0
   44.6060   31.6589   47.4497 H   0  0  0  0  0  0  0  0  0  0  0  0
   46.0583   31.9414   46.4214 H   0  0  0  0  0  0  0  0  0  0  0  0
   46.9643   33.1198   48.6261 H   0  0  0  0  0  0  0  0  0  0  0  0
   45.7736   32.0607   49.4245 H   0  0  0  0  0  0  0  0  0  0  0  0
   46.1408   29.5116   47.3315 H   0  0  0  0  0  0  0  0  0  0  0  0
   50.9990   28.7161   48.5119 H   0  0  0  0  0  0  0  0  0  0  0  0
   51.1528   32.6193   50.1748 H   0  0  0  0  0  0  0  0  0  0  0  0
  1  6  1  0
  2  1  2  0
  2  3  1  0
  3  4  2  0
  4  5  1  0
  5 16  1  0
  6  5  2  0
  7  8  1  0
  7  1  1  0
  9  8  1  0
 10  9  1  0
 10  8  1  0
 11 10  1  0
 12 11  1  0
 13 14  1  0
 13 12  2  0
 14 15  2  0
 15 11  1  0
 16 17  1  0
 17 18  1  0
 19 18  1  0
 19 27  1  0
 20 21  2  0
 20 19  1  0
 21 22  1  0
 22 27  2  0
 22 23  1  0
 23 24  2  0
 24 25  1  0
 26 25  2  0
 27 26  1  0
  2 28  1  0
  3 29  1  0
  8 30  1  1
  9 31  1  0
  9 32  1  0
 10 33  1  1
 13 34  1  0
 14 35  1  0
 15 36  1  0
 17 37  1  0
 17 38  1  0
 18 39  1  0
 18 40  1  0
 20 41  1  0
 23 42  1  0
 25 43  1  0
M  ISO  8  28  14  29  14  30  13  31  13  32  13  33  13  34  14  35  14
M  ISO  8  36  14  37   8  38   8  39   8  40   8  41  14  42  14  43  14
M  END
>  <minimizedAffinity>  (1) 
-5.70521688

>  <minimizedRMSD>  (1) 
1.22160625

$$$$
