
     RDKit          3D

 40 43  0  0  1  0  0  0  0  0999 V2000
   46.3270   34.3990   43.6880 C   0  0  0  0  0  0  0  0  0  0  0  0
   45.5790   35.5420   43.3720 C   0  0  0  0  0  0  0  0  0  0  0  0
   44.6510   36.0220   44.3160 C   0  0  0  0  0  0  0  0  0  0  0  0
   44.5290   35.3540   45.4880 N   0  0  0  0  0  0  0  0  0  0  0  0
   45.2740   34.2640   45.7350 C   0  0  0  0  0  0  0  0  0  0  0  0
   46.1310   33.8240   44.8550 N   0  0  0  0  0  0  0  0  0  0  0  0
   47.1840   34.0460   42.6960 O   0  0  0  0  0  0  0  0  0  0  0  0
   48.5690   33.7740   42.9490 C   0  0  2  0  0  0  0  0  0  0  0  0
   49.4630   34.8660   42.4580 C   0  0  0  0  0  0  0  0  0  0  0  0
   49.4040   33.5820   41.7260 C   0  0  2  0  0  0  0  0  0  0  0  0
   48.7710   33.4340   40.4470 N   0  0  0  0  0  0  0  0  0  0  0  0
   48.2390   34.3540   39.6790 N   0  0  0  0  0  0  0  0  0  0  0  0
   47.7470   33.8250   38.5640 C   0  0  0  0  0  0  0  0  0  0  0  0
   47.9980   32.4540   38.6490 C   0  0  0  0  0  0  0  0  0  0  0  0
   48.6550   32.2180   39.8600 C   0  0  0  0  0  0  0  0  0  0  0  0
   45.1460   33.5760   46.9450 O   0  0  0  0  0  0  0  0  0  0  0  0
   45.7570   32.3130   47.1520 C   0  0  0  0  0  0  0  0  0  0  0  0
   46.3180   32.2210   48.5460 C   0  0  0  0  0  0  0  0  0  0  0  0
   47.4580   31.2490   48.4970 C   0  0  0  0  0  0  0  0  0  0  0  0
   48.6900   31.4810   49.0930 C   0  0  0  0  0  0  0  0  0  0  0  0
   49.6650   30.5120   48.9810 C   0  0  0  0  0  0  0  0  0  0  0  0
   49.4330   29.3590   48.3090 N   0  0  0  0  0  0  0  0  0  0  0  0
   48.2260   29.1600   47.7390 C   0  0  0  0  0  0  0  0  0  0  0  0
   47.2370   30.0890   47.8240 N   0  0  0  0  0  0  0  0  0  0  0  0
   45.7142   36.0529   42.4072 H   0  0  0  0  0  0  0  0  0  0  0  0
   44.0423   36.9142   44.1076 H   0  0  0  0  0  0  0  0  0  0  0  0
   48.4334   33.2137   43.8858 H   0  0  0  0  0  0  0  0  0  0  0  0
   49.0284   35.7728   42.0121 H   0  0  0  0  0  0  0  0  0  0  0  0
   50.2679   35.4693   42.9032 H   0  0  0  0  0  0  0  0  0  0  0  0
   50.1706   32.8689   41.3888 H   0  0  0  0  0  0  0  0  0  0  0  0
   47.2451   34.3575   37.7427 H   0  0  0  0  0  0  0  0  0  0  0  0
   47.7276   31.6966   37.8986 H   0  0  0  0  0  0  0  0  0  0  0  0
   49.0035   31.2514   40.2528 H   0  0  0  0  0  0  0  0  0  0  0  0
   45.0073   31.5206   47.0104 H   0  0  0  0  0  0  0  0  0  0  0  0
   46.5776   32.1920   46.4295 H   0  0  0  0  0  0  0  0  0  0  0  0
   46.6767   33.2076   48.8746 H   0  0  0  0  0  0  0  0  0  0  0  0
   45.5482   31.8873   49.2574 H   0  0  0  0  0  0  0  0  0  0  0  0
   48.8839   32.4148   49.6412 H   0  0  0  0  0  0  0  0  0  0  0  0
   50.6482   30.6784   49.4455 H   0  0  0  0  0  0  0  0  0  0  0  0
   48.0379   28.2240   47.1927 H   0  0  0  0  0  0  0  0  0  0  0  0
  1  6  1  0
  2  1  2  0
  2  3  1  0
  3  4  2  0
  4  5  1  0
  5 16  1  0
  6  5  2  0
  7  8  1  0
  7  1  1  0
  9  8  1  0
 10  9  1  0
 10  8  1  0
 11 10  1  0
 12 11  1  0
 13 14  1  0
 13 12  2  0
 14 15  2  0
 15 11  1  0
 16 17  1  0
 17 18  1  0
 19 18  1  0
 19 20  2  0
 21 20  1  0
 22 21  2  0
 23 24  2  0
 23 22  1  0
 24 19  1  0
  2 25  1  0
  3 26  1  0
  8 27  1  1
  9 28  1  0
  9 29  1  0
 10 30  1  1
 13 31  1  0
 14 32  1  0
 15 33  1  0
 17 34  1  0
 17 35  1  0
 18 36  1  0
 18 37  1  0
 20 38  1  0
 21 39  1  0
 23 40  1  0
M  ISO  8  25  14  26  14  27  13  28  13  29  13  30  13  31  14  32  14
M  ISO  8  33  14  34   8  35   8  36   8  37   8  38  14  39  14  40  14
M  END
>  <minimizedAffinity>  (1) 
-5.3981595

>  <minimizedRMSD>  (1) 
1.34748304

$$$$
