
     RDKit          3D

 45 48  0  0  1  0  0  0  0  0999 V2000
   46.2160   34.7790   43.4070 C   0  0  0  0  0  0  0  0  0  0  0  0
   45.3690   35.9020   43.3300 C   0  0  0  0  0  0  0  0  0  0  0  0
   44.5060   36.1720   44.3980 C   0  0  0  0  0  0  0  0  0  0  0  0
   44.5300   35.3380   45.4610 N   0  0  0  0  0  0  0  0  0  0  0  0
   45.3610   34.2770   45.4840 C   0  0  0  0  0  0  0  0  0  0  0  0
   46.1610   34.0270   44.4910 N   0  0  0  0  0  0  0  0  0  0  0  0
   46.9890   34.6570   42.2930 O   0  0  0  0  0  0  0  0  0  0  0  0
   48.4200   34.7430   42.3670 C   0  0  2  0  0  0  0  0  0  0  0  0
   48.9970   35.7420   41.4230 C   0  0  0  0  0  0  0  0  0  0  0  0
   49.1330   34.2990   41.1320 C   0  0  2  0  0  0  0  0  0  0  0  0
   48.4100   33.6310   40.0890 N   0  0  0  0  0  0  0  0  0  0  0  0
   47.7820   34.1670   39.0580 N   0  0  0  0  0  0  0  0  0  0  0  0
   47.2310   33.1980   38.3150 C   0  0  0  0  0  0  0  0  0  0  0  0
   47.5430   31.9880   38.9340 C   0  0  0  0  0  0  0  0  0  0  0  0
   48.3010   32.2770   40.0740 C   0  0  0  0  0  0  0  0  0  0  0  0
   45.3910   33.4100   46.5800 O   0  0  0  0  0  0  0  0  0  0  0  0
   46.0840   32.1700   46.5350 C   0  0  0  0  0  0  0  0  0  0  0  0
   47.1750   32.1600   47.5950 C   0  0  0  0  0  0  0  0  0  0  0  0
   46.9850   31.1490   48.5780 N   0  0  0  0  0  0  0  0  0  0  0  0
   46.5040   29.8880   48.1050 C   0  0  0  0  0  0  0  0  0  0  0  0
   47.5270   29.0240   47.4330 C   0  0  0  0  0  0  0  0  0  0  0  0
   48.7370   28.9390   48.0780 O   0  0  0  0  0  0  0  0  0  0  0  0
   49.2270   30.2030   48.4100 C   0  0  0  0  0  0  0  0  0  0  0  0
   48.2310   30.9480   49.2890 C   0  0  0  0  0  0  0  0  0  0  0  0
   45.3857   36.5556   42.4454 H   0  0  0  0  0  0  0  0  0  0  0  0
   43.8279   37.0378   44.3729 H   0  0  0  0  0  0  0  0  0  0  0  0
   48.5140   34.5208   43.4402 H   0  0  0  0  0  0  0  0  0  0  0  0
   48.3307   36.3654   40.8087 H   0  0  0  0  0  0  0  0  0  0  0  0
   49.6991   36.5834   41.5181 H   0  0  0  0  0  0  0  0  0  0  0  0
   49.9914   33.6532   40.8949 H   0  0  0  0  0  0  0  0  0  0  0  0
   46.6450   33.3312   37.3936 H   0  0  0  0  0  0  0  0  0  0  0  0
   47.2466   30.9867   38.5883 H   0  0  0  0  0  0  0  0  0  0  0  0
   48.7178   31.5633   40.7999 H   0  0  0  0  0  0  0  0  0  0  0  0
   45.3783   31.3484   46.7274 H   0  0  0  0  0  0  0  0  0  0  0  0
   46.5371   32.0391   45.5412 H   0  0  0  0  0  0  0  0  0  0  0  0
   48.1429   31.9907   47.1004 H   0  0  0  0  0  0  0  0  0  0  0  0
   47.1420   33.1311   48.1107 H   0  0  0  0  0  0  0  0  0  0  0  0
   46.1027   29.3328   48.9656 H   0  0  0  0  0  0  0  0  0  0  0  0
   45.7494   30.1183   47.3385 H   0  0  0  0  0  0  0  0  0  0  0  0
   47.7060   29.4293   46.4262 H   0  0  0  0  0  0  0  0  0  0  0  0
   47.1111   28.0056   47.4298 H   0  0  0  0  0  0  0  0  0  0  0  0
   50.1768   30.0916   48.9536 H   0  0  0  0  0  0  0  0  0  0  0  0
   49.3841   30.7775   47.4852 H   0  0  0  0  0  0  0  0  0  0  0  0
   48.6522   31.9255   49.5665 H   0  0  0  0  0  0  0  0  0  0  0  0
   48.0353   30.3518   50.1925 H   0  0  0  0  0  0  0  0  0  0  0  0
  1  6  1  0
  2  1  2  0
  2  3  1  0
  3  4  2  0
  4  5  1  0
  5 16  1  0
  6  5  2  0
  7  8  1  0
  7  1  1  0
  9  8  1  0
 10  9  1  0
 10  8  1  0
 11 10  1  0
 12 11  1  0
 13 14  1  0
 13 12  2  0
 14 15  2  0
 15 11  1  0
 17 16  1  0
 17 18  1  0
 18 19  1  0
 19 24  1  0
 20 19  1  0
 21 22  1  0
 21 20  1  0
 22 23  1  0
 23 24  1  0
  2 25  1  0
  3 26  1  0
  8 27  1  1
  9 28  1  0
  9 29  1  0
 10 30  1  1
 13 31  1  0
 14 32  1  0
 15 33  1  0
 17 34  1  0
 17 35  1  0
 18 36  1  0
 18 37  1  0
 20 38  1  0
 20 39  1  0
 21 40  1  0
 21 41  1  0
 23 42  1  0
 23 43  1  0
 24 44  1  0
 24 45  1  0
M  ISO  8  25  14  26  14  27  13  28  13  29  13  30  13  31  14  32  14
M  ISO  8  33  14  34   8  35   8  36   8  37   8  38  13  39  13  40  13
M  ISO  5  41  13  42  13  43  13  44  13  45  13
M  END
>  <minimizedAffinity>  (1) 
-5.22390318

>  <minimizedRMSD>  (1) 
1.45614958

$$$$
