
     RDKit          3D

 39 42  0  0  1  0  0  0  0  0999 V2000
   46.3200   34.3110   43.7150 C   0  0  0  0  0  0  0  0  0  0  0  0
   45.6010   35.4640   43.3620 C   0  0  0  0  0  0  0  0  0  0  0  0
   44.6850   35.9900   44.2950 C   0  0  0  0  0  0  0  0  0  0  0  0
   44.5470   35.3520   45.4880 N   0  0  0  0  0  0  0  0  0  0  0  0
   45.2660   34.2490   45.7640 C   0  0  0  0  0  0  0  0  0  0  0  0
   46.1150   33.7660   44.8930 N   0  0  0  0  0  0  0  0  0  0  0  0
   47.1650   33.9200   42.7250 O   0  0  0  0  0  0  0  0  0  0  0  0
   48.5730   33.7740   42.9490 C   0  0  2  0  0  0  0  0  0  0  0  0
   49.3680   34.9370   42.4620 C   0  0  0  0  0  0  0  0  0  0  0  0
   49.3960   33.6670   41.7080 C   0  0  2  0  0  0  0  0  0  0  0  0
   48.7550   33.4820   40.4390 N   0  0  0  0  0  0  0  0  0  0  0  0
   48.1960   34.3810   39.6660 N   0  0  0  0  0  0  0  0  0  0  0  0
   47.7050   33.8170   38.5620 C   0  0  0  0  0  0  0  0  0  0  0  0
   47.9880   32.4550   38.6670 C   0  0  0  0  0  0  0  0  0  0  0  0
   48.6610   32.2540   39.8750 C   0  0  0  0  0  0  0  0  0  0  0  0
   45.1130   33.6070   46.9880 O   0  0  0  0  0  0  0  0  0  0  0  0
   45.6940   32.3130   47.2140 C   0  0  0  0  0  0  0  0  0  0  0  0
   46.2390   32.2480   48.6180 C   0  0  0  0  0  0  0  0  0  0  0  0
   47.3650   31.3190   48.5690 N   0  0  0  0  0  0  0  0  0  0  0  0
   47.2730   30.1810   47.8570 C   0  0  0  0  0  0  0  0  0  0  0  0
   48.4830   29.5340   48.0110 C   0  0  0  0  0  0  0  0  0  0  0  0
   49.2910   30.2660   48.8000 N   0  0  0  0  0  0  0  0  0  0  0  0
   48.5860   31.3590   49.1330 C   0  0  0  0  0  0  0  0  0  0  0  0
   45.7487   35.9440   42.3833 H   0  0  0  0  0  0  0  0  0  0  0  0
   44.0981   36.8914   44.0647 H   0  0  0  0  0  0  0  0  0  0  0  0
   48.5004   33.1979   43.8833 H   0  0  0  0  0  0  0  0  0  0  0  0
   48.8555   35.8143   42.0406 H   0  0  0  0  0  0  0  0  0  0  0  0
   50.1321   35.5935   42.9038 H   0  0  0  0  0  0  0  0  0  0  0  0
   50.2106   33.0245   41.3424 H   0  0  0  0  0  0  0  0  0  0  0  0
   47.1830   34.3228   37.7364 H   0  0  0  0  0  0  0  0  0  0  0  0
   47.7282   31.6793   37.9316 H   0  0  0  0  0  0  0  0  0  0  0  0
   49.0345   31.3023   40.2810 H   0  0  0  0  0  0  0  0  0  0  0  0
   44.9253   31.5373   47.0823 H   0  0  0  0  0  0  0  0  0  0  0  0
   46.5093   32.1453   46.4949 H   0  0  0  0  0  0  0  0  0  0  0  0
   46.5778   33.2427   48.9431 H   0  0  0  0  0  0  0  0  0  0  0  0
   45.4724   31.9153   49.3333 H   0  0  0  0  0  0  0  0  0  0  0  0
   46.4086   29.8359   47.2708 H   0  0  0  0  0  0  0  0  0  0  0  0
   48.7465   28.5670   47.5576 H   0  0  0  0  0  0  0  0  0  0  0  0
   48.9544   32.1720   49.7758 H   0  0  0  0  0  0  0  0  0  0  0  0
  1  6  1  0
  2  1  2  0
  2  3  1  0
  3  4  2  0
  4  5  1  0
  5 16  1  0
  6  5  2  0
  7  8  1  0
  7  1  1  0
  9  8  1  0
 10  9  1  0
 10  8  1  0
 11 10  1  0
 12 11  1  0
 13 14  1  0
 13 12  2  0
 14 15  2  0
 15 11  1  0
 16 17  1  0
 17 18  1  0
 19 18  1  0
 19 23  1  0
 20 21  2  0
 20 19  1  0
 21 22  1  0
 22 23  2  0
  2 24  1  0
  3 25  1  0
  8 26  1  1
  9 27  1  0
  9 28  1  0
 10 29  1  1
 13 30  1  0
 14 31  1  0
 15 32  1  0
 17 33  1  0
 17 34  1  0
 18 35  1  0
 18 36  1  0
 20 37  1  0
 21 38  1  0
 23 39  1  0
M  ISO  8  24  14  25  14  26  13  27  13  28  13  29  13  30  14  31  14
M  ISO  8  32  14  33   8  34   8  35   8  36   8  37  14  38  14  39  14
M  END
>  <minimizedAffinity>  (1) 
-5.20299435

>  <minimizedRMSD>  (1) 
1.31940758

$$$$
