
     RDKit          3D

 26 28  0  0  0  0  0  0  0  0999 V2000
   47.4780   33.7870   42.8210 C   0  0  0  0  0  0  0  0  0  0  0  0
   48.0680   32.7300   43.1830 O   0  0  0  0  0  0  0  0  0  0  0  0
   47.9350   34.3220   41.5430 C   0  0  0  0  0  0  0  0  0  0  0  0
   48.7750   35.4300   41.4280 C   0  0  0  0  0  0  0  0  0  0  0  0
   48.9740   35.6200   40.0960 N   0  0  0  0  0  0  0  0  0  0  0  0
   48.2850   34.6670   39.4030 C   0  0  0  0  0  0  0  0  0  0  0  0
   48.1650   34.4330   38.0490 C   0  0  0  0  0  0  0  0  0  0  0  0
   47.3750   33.3620   37.6370 C   0  0  0  0  0  0  0  0  0  0  0  0
   46.7100   32.5300   38.5370 C   0  0  0  0  0  0  0  0  0  0  0  0
   46.8390   32.7770   39.8930 C   0  0  0  0  0  0  0  0  0  0  0  0
   47.6170   33.8300   40.2940 C   0  0  0  0  0  0  0  0  0  0  0  0
   44.7180   35.9930   44.0410 C   0  0  0  0  0  0  0  0  0  0  0  0
   45.7040   35.4810   43.1830 C   0  0  0  0  0  0  0  0  0  0  0  0
   46.4300   34.3850   43.6500 C   0  0  0  0  0  0  0  0  0  0  0  0
   46.1390   33.8920   44.8870 N   0  0  0  0  0  0  0  0  0  0  0  0
   45.1840   34.4170   45.6750 C   0  0  0  0  0  0  0  0  0  0  0  0
   44.4570   35.4870   45.2470 N   0  0  0  0  0  0  0  0  0  0  0  0
   49.1927   36.0298   42.2500 H   0  0  0  0  0  0  0  0  0  0  0  0
   49.5515   36.3632   39.6777 H   0  0  0  0  0  0  0  0  0  0  0  0
   48.6779   35.0731   37.3161 H   0  0  0  0  0  0  0  0  0  0  0  0
   47.2718   33.1650   36.5597 H   0  0  0  0  0  0  0  0  0  0  0  0
   46.0943   31.6929   38.1762 H   0  0  0  0  0  0  0  0  0  0  0  0
   46.3281   32.1418   40.6316 H   0  0  0  0  0  0  0  0  0  0  0  0
   44.1293   36.8576   43.7005 H   0  0  0  0  0  0  0  0  0  0  0  0
   45.8945   35.9214   42.1932 H   0  0  0  0  0  0  0  0  0  0  0  0
   44.9895   33.9820   46.6664 H   0  0  0  0  0  0  0  0  0  0  0  0
  1  2  2  0
  1 14  1  0
  3  1  1  0
  4  3  2  0
  5  4  1  0
  6  5  1  0
  6 11  2  0
  7  6  1  0
  8  7  2  0
  8  9  1  0
  9 10  2  0
 10 11  1  0
 11  3  1  0
 12 17  2  0
 13 14  2  0
 13 12  1  0
 14 15  1  0
 15 16  2  0
 17 16  1  0
  4 18  1  0
  5 19  1  0
  7 20  1  0
  8 21  1  0
  9 22  1  0
 10 23  1  0
 12 24  1  0
 13 25  1  0
 16 26  1  0
M  ISO  8  18  14  19   9  20  14  21  14  22  14  23  14  24  14  25  14
M  ISO  1  26  14
M  END
>  <minimizedAffinity>  (1) 
-5.30391169

>  <minimizedRMSD>  (1) 
2.69997025

$$$$
