
     RDKit          3D

 28 30  0  0  0  0  0  0  0  0999 V2000
   47.1520   34.7610   41.9670 C   0  0  0  0  0  0  0  0  0  0  0  0
   48.2880   35.3290   41.9350 O   0  0  0  0  0  0  0  0  0  0  0  0
   46.4780   33.9800   40.9360 C   0  0  0  0  0  0  0  0  0  0  0  0
   45.3110   33.2740   41.2150 C   0  0  0  0  0  0  0  0  0  0  0  0
   44.6260   32.5230   40.2900 C   0  0  0  0  0  0  0  0  0  0  0  0
   45.1000   32.4460   38.9980 C   0  0  0  0  0  0  0  0  0  0  0  0
   46.2440   33.1230   38.6760 C   0  0  0  0  0  0  0  0  0  0  0  0
   46.7580   33.0760   37.3960 C   0  0  0  0  0  0  0  0  0  0  0  0
   47.9020   33.7310   37.0010 C   0  0  0  0  0  0  0  0  0  0  0  0
   48.5460   34.4680   37.9730 C   0  0  0  0  0  0  0  0  0  0  0  0
   48.0450   34.5250   39.2580 C   0  0  0  0  0  0  0  0  0  0  0  0
   46.8990   33.8640   39.6370 C   0  0  0  0  0  0  0  0  0  0  0  0
   44.5910   35.9730   44.4050 C   0  0  0  0  0  0  0  0  0  0  0  0
   45.3920   35.8910   43.2530 C   0  0  0  0  0  0  0  0  0  0  0  0
   46.3180   34.8430   43.1750 C   0  0  0  0  0  0  0  0  0  0  0  0
   46.3860   33.9750   44.2090 N   0  0  0  0  0  0  0  0  0  0  0  0
   45.6010   34.0910   45.2970 C   0  0  0  0  0  0  0  0  0  0  0  0
   44.6980   35.0890   45.4030 N   0  0  0  0  0  0  0  0  0  0  0  0
   44.9125   33.3201   42.2392 H   0  0  0  0  0  0  0  0  0  0  0  0
   43.7086   31.9887   40.5779 H   0  0  0  0  0  0  0  0  0  0  0  0
   44.5684   31.8515   38.2404 H   0  0  0  0  0  0  0  0  0  0  0  0
   46.2202   32.4782   36.6454 H   0  0  0  0  0  0  0  0  0  0  0  0
   48.2808   33.6704   35.9701 H   0  0  0  0  0  0  0  0  0  0  0  0
   49.4667   35.0150   37.7220 H   0  0  0  0  0  0  0  0  0  0  0  0
   48.5831   35.1224   40.0087 H   0  0  0  0  0  0  0  0  0  0  0  0
   43.8556   36.7868   44.4881 H   0  0  0  0  0  0  0  0  0  0  0  0
   45.2949   36.6254   42.4398 H   0  0  0  0  0  0  0  0  0  0  0  0
   45.6972   33.3601   46.1134 H   0  0  0  0  0  0  0  0  0  0  0  0
  1 15  1  0
  2  1  2  0
  3  4  2  0
  3  1  1  0
  5  4  1  0
  6  5  2  0
  7  6  1  0
  7 12  2  0
  8  7  1  0
  9  8  2  0
  9 10  1  0
 10 11  2  0
 11 12  1  0
 12  3  1  0
 13 18  2  0
 14 13  1  0
 15 14  2  0
 15 16  1  0
 16 17  2  0
 17 18  1  0
  4 19  1  0
  5 20  1  0
  6 21  1  0
  8 22  1  0
  9 23  1  0
 10 24  1  0
 11 25  1  0
 13 26  1  0
 14 27  1  0
 17 28  1  0
M  ISO  8  19  14  20  14  21  14  22  14  23  14  24  14  25  14  26  14
M  ISO  2  27  14  28  14
M  END
>  <minimizedAffinity>  (1) 
-5.20508003

>  <minimizedRMSD>  (1) 
0.356691092

$$$$
