
     RDKit          3D

 28 30  0  0  1  0  0  0  0  0999 V2000
   47.0270   34.3010   40.6160 C   0  0  0  0  0  0  0  0  0  0  0  0
   48.1000   34.3090   39.8260 N   0  0  0  0  0  0  0  0  0  0  0  0
   48.1230   33.7440   38.5770 C   0  0  0  0  0  0  0  0  0  0  0  0
   47.0370   33.1390   38.0740 N   0  0  0  0  0  0  0  0  0  0  0  0
   45.8940   33.0720   38.7880 C   0  0  0  0  0  0  0  0  0  0  0  0
   44.7670   32.4640   38.3000 C   0  0  0  0  0  0  0  0  0  0  0  0
   43.6080   32.4100   39.0380 C   0  0  0  0  0  0  0  0  0  0  0  0
   43.6200   32.9960   40.3040 C   0  0  0  0  0  0  0  0  0  0  0  0
   44.7820   33.5880   40.7330 C   0  0  0  0  0  0  0  0  0  0  0  0
   45.9600   33.6640   40.0270 C   0  0  0  0  0  0  0  0  0  0  0  0
   47.1060   34.9240   41.9150 C   0  0  0  0  0  0  0  0  0  0  0  0
   48.2030   35.5930   41.8640 O   0  0  0  0  0  0  0  0  0  0  0  0
   44.5960   35.9840   44.4750 C   0  0  0  0  0  0  0  0  0  0  0  0
   45.3820   35.9900   43.3130 C   0  0  0  0  0  0  0  0  0  0  0  0
   46.3160   34.9540   43.1230 C   0  0  0  0  0  0  0  0  0  0  0  0
   46.4010   33.9960   44.0990 N   0  0  0  0  0  0  0  0  0  0  0  0
   45.6140   34.0370   45.2080 C   0  0  0  0  0  0  0  0  0  0  0  0
   44.7140   35.0190   45.4040 N   0  0  0  0  0  0  0  0  0  0  0  0
   49.0453   33.7876   37.9791 H   0  0  0  0  0  0  0  0  0  0  0  0
   44.7900   32.0102   37.2982 H   0  0  0  0  0  0  0  0  0  0  0  0
   42.7040   31.9223   38.6444 H   0  0  0  0  0  0  0  0  0  0  0  0
   42.7232   32.9840   40.9409 H   0  0  0  0  0  0  0  0  0  0  0  0
   44.7698   34.0438   41.7341 H   0  0  0  0  0  0  0  0  0  0  0  0
   47.6555   34.0522   42.2997 H   0  0  0  0  0  0  0  0  0  0  0  0
   48.5161   35.7840   42.7836 H   0  0  0  0  0  0  0  0  0  0  0  0
   43.8638   36.7901   44.6303 H   0  0  0  0  0  0  0  0  0  0  0  0
   45.2706   36.7887   42.5649 H   0  0  0  0  0  0  0  0  0  0  0  0
   45.7158   33.2459   45.9655 H   0  0  0  0  0  0  0  0  0  0  0  0
  1 11  1  0
  2  1  2  0
  3  2  1  0
  4  3  2  0
  4  5  1  0
  5 10  2  0
  6  5  1  0
  6  7  2  0
  7  8  1  0
  8  9  2  0
 10  1  1  0
 10  9  1  0
 11 12  1  0
 11 15  1  0
 13 18  2  0
 14 13  1  0
 15 14  2  0
 15 16  1  0
 16 17  2  0
 17 18  1  0
  3 19  1  0
  6 20  1  0
  7 21  1  0
  8 22  1  0
  9 23  1  0
 11 24  1  0
 12 25  1  0
 13 26  1  0
 14 27  1  0
 17 28  1  0
M  ISO  8  19  14  20  14  21  14  22  14  23  14  24   8  25   3  26  14
M  ISO  2  27  14  28  14
M  END
>  <minimizedAffinity>  (1) 
-4.87391376

>  <minimizedRMSD>  (1) 
1.19509268

$$$$
