
     RDKit          3D

 23 25  0  0  0  0  0  0  0  0999 V2000
   46.8560   34.6960   41.9620 C   0  0  0  0  0  0  0  0  0  0  0  0
   47.9630   35.2800   41.7630 O   0  0  0  0  0  0  0  0  0  0  0  0
   47.3810   33.2940   37.5620 N   0  0  0  0  0  0  0  0  0  0  0  0
   48.3600   34.1640   37.9430 C   0  0  0  0  0  0  0  0  0  0  0  0
   48.1350   34.5170   39.2190 N   0  0  0  0  0  0  0  0  0  0  0  0
   47.0320   33.8890   39.6570 C   0  0  0  0  0  0  0  0  0  0  0  0
   46.3490   33.8760   40.8560 C   0  0  0  0  0  0  0  0  0  0  0  0
   45.2390   33.1200   40.9920 N   0  0  0  0  0  0  0  0  0  0  0  0
   44.8150   32.3810   39.9360 C   0  0  0  0  0  0  0  0  0  0  0  0
   45.4480   32.3570   38.7370 N   0  0  0  0  0  0  0  0  0  0  0  0
   46.5570   33.1120   38.6010 C   0  0  0  0  0  0  0  0  0  0  0  0
   44.5390   36.0240   44.5450 C   0  0  0  0  0  0  0  0  0  0  0  0
   45.2490   35.9110   43.3230 C   0  0  0  0  0  0  0  0  0  0  0  0
   46.1250   34.8210   43.2070 C   0  0  0  0  0  0  0  0  0  0  0  0
   46.2390   33.9640   44.2400 N   0  0  0  0  0  0  0  0  0  0  0  0
   45.5370   34.1120   45.3960 C   0  0  0  0  0  0  0  0  0  0  0  0
   44.6800   35.1530   45.5470 N   0  0  0  0  0  0  0  0  0  0  0  0
   47.2913   32.8534   36.6353 H   0  0  0  0  0  0  0  0  0  0  0  0
   49.1907   34.5158   37.3135 H   0  0  0  0  0  0  0  0  0  0  0  0
   43.9095   31.7687   40.0591 H   0  0  0  0  0  0  0  0  0  0  0  0
   43.8421   36.8654   44.6730 H   0  0  0  0  0  0  0  0  0  0  0  0
   45.1199   36.6393   42.5088 H   0  0  0  0  0  0  0  0  0  0  0  0
   45.6647   33.3848   46.2114 H   0  0  0  0  0  0  0  0  0  0  0  0
  1 14  1  0
  2  1  2  0
  3  4  1  0
  3 11  1  0
  4  5  2  0
  5  6  1  0
  6  7  2  0
  7  8  1  0
  7  1  1  0
  9  8  2  0
 10  9  1  0
 11 10  2  0
 11  6  1  0
 12 17  2  0
 13 12  1  0
 14 13  2  0
 14 15  1  0
 15 16  2  0
 16 17  1  0
  3 18  1  0
  4 19  1  0
  9 20  1  0
 12 21  1  0
 13 22  1  0
 16 23  1  0
M  ISO  6  18   9  19  14  20  14  21  14  22  14  23  14
M  END
>  <minimizedAffinity>  (1) 
-4.68296337

>  <minimizedRMSD>  (1) 
0.234596416

$$$$
