
     RDKit          3D

 25 26  0  0  0  0  0  0  0  0999 V2000
   44.6000   35.9970   44.4880 C   0  0  0  0  0  0  0  0  0  0  0  0
   45.3830   35.9770   43.3190 C   0  0  0  0  0  0  0  0  0  0  0  0
   46.2920   34.9280   43.1410 C   0  0  0  0  0  0  0  0  0  0  0  0
   46.3550   33.9910   44.1210 N   0  0  0  0  0  0  0  0  0  0  0  0
   45.5960   34.0330   45.2280 C   0  0  0  0  0  0  0  0  0  0  0  0
   44.7070   35.0340   45.4300 N   0  0  0  0  0  0  0  0  0  0  0  0
   47.0780   34.9490   41.9220 C   0  0  0  0  0  0  0  0  0  0  0  0
   48.1840   35.5640   41.8630 O   0  0  0  0  0  0  0  0  0  0  0  0
   46.7170   34.3090   40.7000 N   0  0  0  0  0  0  0  0  0  0  0  0
   47.7720   34.1660   39.7270 C   0  0  0  0  0  0  0  0  0  0  0  0
   47.4770   33.2310   38.6300 C   0  0  0  0  0  0  0  0  0  0  0  0
   46.3000   32.5950   38.5610 O   0  0  0  0  0  0  0  0  0  0  0  0
   45.3840   32.6470   39.5190 C   0  0  0  0  0  0  0  0  0  0  0  0
   45.3630   33.8240   40.4410 C   0  0  0  0  0  0  0  0  0  0  0  0
   43.8827   36.8172   44.6389 H   0  0  0  0  0  0  0  0  0  0  0  0
   45.2828   36.7685   42.5617 H   0  0  0  0  0  0  0  0  0  0  0  0
   45.6983   33.2404   45.9838 H   0  0  0  0  0  0  0  0  0  0  0  0
   47.9702   35.1555   39.2893 H   0  0  0  0  0  0  0  0  0  0  0  0
   48.6356   33.7488   40.2657 H   0  0  0  0  0  0  0  0  0  0  0  0
   47.5779   33.8034   37.6961 H   0  0  0  0  0  0  0  0  0  0  0  0
   48.1842   32.4095   38.8168 H   0  0  0  0  0  0  0  0  0  0  0  0
   44.4010   32.6057   39.0271 H   0  0  0  0  0  0  0  0  0  0  0  0
   45.6420   31.8031   40.1757 H   0  0  0  0  0  0  0  0  0  0  0  0
   44.7734   34.6309   39.9813 H   0  0  0  0  0  0  0  0  0  0  0  0
   44.9125   33.5142   41.3955 H   0  0  0  0  0  0  0  0  0  0  0  0
  1  6  2  0
  2  1  1  0
  3  2  2  0
  3  4  1  0
  4  5  2  0
  5  6  1  0
  7  3  1  0
  8  7  2  0
  9  7  1  0
 10  9  1  0
 11 10  1  0
 12 11  1  0
 12 13  1  0
 13 14  1  0
 14  9  1  0
  1 15  1  0
  2 16  1  0
  5 17  1  0
 10 18  1  0
 10 19  1  0
 11 20  1  0
 11 21  1  0
 13 22  1  0
 13 23  1  0
 14 24  1  0
 14 25  1  0
M  ISO  8  15  14  16  14  17  14  18  13  19  13  20  13  21  13  22  13
M  ISO  3  23  13  24  13  25  13
M  END
>  <minimizedAffinity>  (1) 
-4.36720562

>  <minimizedRMSD>  (1) 
0.297134101

$$$$
