
     RDKit          3D

 21 22  0  0  0  0  0  0  0  0999 V2000
   44.6370   35.9560   44.3380 C   0  0  0  0  0  0  0  0  0  0  0  0
   45.4650   35.9950   43.2070 C   0  0  0  0  0  0  0  0  0  0  0  0
   46.4120   34.9770   43.0770 C   0  0  0  0  0  0  0  0  0  0  0  0
   46.4780   34.0160   44.0400 N   0  0  0  0  0  0  0  0  0  0  0  0
   45.6610   34.0130   45.1160 C   0  0  0  0  0  0  0  0  0  0  0  0
   44.7430   34.9910   45.2510 N   0  0  0  0  0  0  0  0  0  0  0  0
   47.2930   34.9960   41.9020 C   0  0  0  0  0  0  0  0  0  0  0  0
   48.3910   35.6200   41.9260 O   0  0  0  0  0  0  0  0  0  0  0  0
   46.9140   34.2870   40.6720 C   0  0  0  0  0  0  0  0  0  0  0  0
   47.8650   34.2310   39.6710 C   0  0  0  0  0  0  0  0  0  0  0  0
   47.4870   33.5550   38.5140 C   0  0  0  0  0  0  0  0  0  0  0  0
   46.2240   33.0170   38.4830 C   0  0  0  0  0  0  0  0  0  0  0  0
   45.2910   33.0920   39.5080 C   0  0  0  0  0  0  0  0  0  0  0  0
   45.6770   33.7410   40.5990 N   0  0  0  0  0  0  0  0  0  0  0  0
   43.8802   36.7424   44.4752 H   0  0  0  0  0  0  0  0  0  0  0  0
   45.3726   36.7926   42.4551 H   0  0  0  0  0  0  0  0  0  0  0  0
   45.7440   33.2205   45.8743 H   0  0  0  0  0  0  0  0  0  0  0  0
   48.8579   34.6914   39.7813 H   0  0  0  0  0  0  0  0  0  0  0  0
   48.1724   33.4559   37.6593 H   0  0  0  0  0  0  0  0  0  0  0  0
   45.9267   32.4817   37.5692 H   0  0  0  0  0  0  0  0  0  0  0  0
   44.2917   32.6405   39.4210 H   0  0  0  0  0  0  0  0  0  0  0  0
  1  6  2  0
  2  1  1  0
  3  2  2  0
  3  4  1  0
  4  5  2  0
  5  6  1  0
  7  8  2  0
  7  3  1  0
  9  7  1  0
 10  9  2  0
 11 10  1  0
 12 11  2  0
 12 13  1  0
 13 14  2  0
 14  9  1  0
  1 15  1  0
  2 16  1  0
  5 17  1  0
 10 18  1  0
 11 19  1  0
 12 20  1  0
 13 21  1  0
M  ISO  7  15  14  16  14  17  14  18  14  19  14  20  14  21  14
M  END
>  <minimizedAffinity>  (1) 
-4.33208036

>  <minimizedRMSD>  (1) 
0.623561203

$$$$
