
     RDKit          3D

 19 20  0  0  0  0  0  0  0  0999 V2000
   44.5390   35.9200   44.6850 C   0  0  0  0  0  0  0  0  0  0  0  0
   45.2990   35.9050   43.4810 C   0  0  0  0  0  0  0  0  0  0  0  0
   46.2010   34.8720   43.2990 C   0  0  0  0  0  0  0  0  0  0  0  0
   46.3300   33.9290   44.2530 N   0  0  0  0  0  0  0  0  0  0  0  0
   45.6010   33.9640   45.3850 C   0  0  0  0  0  0  0  0  0  0  0  0
   44.6960   34.9550   45.6230 N   0  0  0  0  0  0  0  0  0  0  0  0
   46.9450   34.9060   42.0550 C   0  0  0  0  0  0  0  0  0  0  0  0
   48.0500   35.4690   41.9120 O   0  0  0  0  0  0  0  0  0  0  0  0
   45.0750   33.4680   39.3330 N   0  0  0  0  0  0  0  0  0  0  0  0
   45.1550   34.1000   40.5120 N   0  0  0  0  0  0  0  0  0  0  0  0
   46.4360   34.2630   40.8440 C   0  0  0  0  0  0  0  0  0  0  0  0
   47.1960   33.7110   39.8340 C   0  0  0  0  0  0  0  0  0  0  0  0
   46.3230   33.2150   38.8890 C   0  0  0  0  0  0  0  0  0  0  0  0
   43.8127   36.7281   44.8564 H   0  0  0  0  0  0  0  0  0  0  0  0
   45.1730   36.6894   42.7202 H   0  0  0  0  0  0  0  0  0  0  0  0
   45.7395   33.1727   46.1365 H   0  0  0  0  0  0  0  0  0  0  0  0
   44.2031   33.2166   38.8457 H   0  0  0  0  0  0  0  0  0  0  0  0
   48.2945   33.6734   39.7905 H   0  0  0  0  0  0  0  0  0  0  0  0
   46.5933   32.7088   37.9506 H   0  0  0  0  0  0  0  0  0  0  0  0
  1  6  2  0
  2  1  1  0
  3  2  2  0
  3  4  1  0
  4  5  2  0
  5  6  1  0
  7  3  1  0
  8  7  2  0
  9 10  1  0
 10 11  2  0
 11  7  1  0
 12 11  1  0
 13  9  1  0
 13 12  2  0
  1 14  1  0
  2 15  1  0
  5 16  1  0
  9 17  1  0
 12 18  1  0
 13 19  1  0
M  ISO  6  14  14  15  14  16  14  17   9  18  14  19  14
M  END
>  <minimizedAffinity>  (1) 
-4.16559839

>  <minimizedRMSD>  (1) 
0.392228454

$$$$
