
     RDKit          3D

 19 20  0  0  0  0  0  0  0  0999 V2000
   44.6130   35.8850   44.3380 C   0  0  0  0  0  0  0  0  0  0  0  0
   45.4420   35.9140   43.2060 C   0  0  0  0  0  0  0  0  0  0  0  0
   46.4330   34.9270   43.0880 C   0  0  0  0  0  0  0  0  0  0  0  0
   46.5370   33.9920   44.0790 N   0  0  0  0  0  0  0  0  0  0  0  0
   45.7190   34.0100   45.1400 C   0  0  0  0  0  0  0  0  0  0  0  0
   44.7460   34.9550   45.2860 N   0  0  0  0  0  0  0  0  0  0  0  0
   47.2780   34.9780   41.9080 C   0  0  0  0  0  0  0  0  0  0  0  0
   48.3450   35.6280   41.8800 O   0  0  0  0  0  0  0  0  0  0  0  0
   46.8500   34.2370   40.7250 C   0  0  0  0  0  0  0  0  0  0  0  0
   47.6970   34.0820   39.6270 C   0  0  0  0  0  0  0  0  0  0  0  0
   46.9680   33.3350   38.7040 C   0  0  0  0  0  0  0  0  0  0  0  0
   45.7270   33.0800   39.2880 C   0  0  0  0  0  0  0  0  0  0  0  0
   45.7290   33.6400   40.4770 O   0  0  0  0  0  0  0  0  0  0  0  0
   43.8310   36.6509   44.4471 H   0  0  0  0  0  0  0  0  0  0  0  0
   45.3188   36.6876   42.4338 H   0  0  0  0  0  0  0  0  0  0  0  0
   45.8355   33.2397   45.9166 H   0  0  0  0  0  0  0  0  0  0  0  0
   48.7212   34.4672   39.5142 H   0  0  0  0  0  0  0  0  0  0  0  0
   47.3053   33.0097   37.7088 H   0  0  0  0  0  0  0  0  0  0  0  0
   44.8989   32.5142   38.8363 H   0  0  0  0  0  0  0  0  0  0  0  0
  1  6  2  0
  2  1  1  0
  3  2  2  0
  3  4  1  0
  4  5  2  0
  5  6  1  0
  7  3  1  0
  8  7  2  0
  9  7  1  0
 10  9  2  0
 11 12  2  0
 11 10  1  0
 12 13  1  0
 13  9  1  0
  1 14  1  0
  2 15  1  0
  5 16  1  0
 10 17  1  0
 11 18  1  0
 12 19  1  0
M  ISO  6  14  14  15  14  16  14  17  14  18  14  19  14
M  END
>  <minimizedAffinity>  (1) 
-4.0808382

>  <minimizedRMSD>  (1) 
0.502560079

$$$$
