
     RDKit          3D

 19 20  0  0  0  0  0  0  0  0999 V2000
   44.5920   35.9850   44.4320 C   0  0  0  0  0  0  0  0  0  0  0  0
   45.3490   35.9860   43.2410 C   0  0  0  0  0  0  0  0  0  0  0  0
   46.2680   34.9630   43.0660 C   0  0  0  0  0  0  0  0  0  0  0  0
   46.3830   34.0260   44.0490 N   0  0  0  0  0  0  0  0  0  0  0  0
   45.6470   34.0540   45.1700 C   0  0  0  0  0  0  0  0  0  0  0  0
   44.7390   35.0340   45.3820 N   0  0  0  0  0  0  0  0  0  0  0  0
   47.0730   34.9180   41.8560 C   0  0  0  0  0  0  0  0  0  0  0  0
   48.1870   35.5200   41.7800 O   0  0  0  0  0  0  0  0  0  0  0  0
   46.6540   34.1830   40.6650 C   0  0  0  0  0  0  0  0  0  0  0  0
   45.4970   33.4820   40.5250 C   0  0  0  0  0  0  0  0  0  0  0  0
   45.5550   32.9800   39.2610 N   0  0  0  0  0  0  0  0  0  0  0  0
   46.6930   33.3630   38.6740 C   0  0  0  0  0  0  0  0  0  0  0  0
   47.4070   34.1180   39.5270 N   0  0  0  0  0  0  0  0  0  0  0  0
   43.8561   36.7865   44.5933 H   0  0  0  0  0  0  0  0  0  0  0  0
   45.2149   36.7690   42.4802 H   0  0  0  0  0  0  0  0  0  0  0  0
   45.7838   33.2686   45.9279 H   0  0  0  0  0  0  0  0  0  0  0  0
   44.6950   33.3503   41.2662 H   0  0  0  0  0  0  0  0  0  0  0  0
   46.9985   33.1008   37.6503 H   0  0  0  0  0  0  0  0  0  0  0  0
   48.3249   34.5539   39.3586 H   0  0  0  0  0  0  0  0  0  0  0  0
  1  6  2  0
  2  1  1  0
  3  2  2  0
  3  4  1  0
  4  5  2  0
  5  6  1  0
  7  3  1  0
  8  7  2  0
  9  7  1  0
 10  9  2  0
 11 10  1  0
 12 11  2  0
 12 13  1  0
 13  9  1  0
  1 14  1  0
  2 15  1  0
  5 16  1  0
 10 17  1  0
 12 18  1  0
 13 19  1  0
M  ISO  6  14  14  15  14  16  14  17  14  18  14  19   9
M  END
>  <minimizedAffinity>  (1) 
-4.06838083

>  <minimizedRMSD>  (1) 
0.805731177

$$$$
