
     RDKit          3D

 26 28  0  0  0  0  0  0  0  0999 V2000
   44.7820   35.2230   45.4470 C   0  0  0  0  0  0  0  0  0  0  0  0
   44.2340   35.6840   44.2450 C   0  0  0  0  0  0  0  0  0  0  0  0
   44.5590   34.9690   43.0910 C   0  0  0  0  0  0  0  0  0  0  0  0
   45.3780   33.8770   43.1660 N   0  0  0  0  0  0  0  0  0  0  0  0
   45.8930   33.4610   44.3690 C   0  0  0  0  0  0  0  0  0  0  0  0
   45.5840   34.1390   45.4650 N   0  0  0  0  0  0  0  0  0  0  0  0
   46.7480   32.3390   44.4660 N   0  0  0  0  0  0  0  0  0  0  0  0
   47.4590   32.0270   43.3500 C   0  0  0  0  0  0  0  0  0  0  0  0
   48.2150   30.9010   43.7100 C   0  0  0  0  0  0  0  0  0  0  0  0
   47.9540   30.5790   44.9700 N   0  0  0  0  0  0  0  0  0  0  0  0
   47.0480   31.4550   45.4580 C   0  0  0  0  0  0  0  0  0  0  0  0
   46.4640   31.4960   46.7740 C   0  0  0  0  0  0  0  0  0  0  0  0
   45.5770   30.4800   47.0660 C   0  0  0  0  0  0  0  0  0  0  0  0
   44.9120   30.3330   48.2610 C   0  0  0  0  0  0  0  0  0  0  0  0
   45.1070   31.2420   49.2770 C   0  0  0  0  0  0  0  0  0  0  0  0
   45.9960   32.2440   48.9570 C   0  0  0  0  0  0  0  0  0  0  0  0
   46.6130   32.3360   47.7820 N   0  0  0  0  0  0  0  0  0  0  0  0
   44.5566   35.7497   46.3860 H   0  0  0  0  0  0  0  0  0  0  0  0
   43.5789   36.5670   44.2110 H   0  0  0  0  0  0  0  0  0  0  0  0
   44.1548   35.2853   42.1181 H   0  0  0  0  0  0  0  0  0  0  0  0
   47.4448   32.5434   42.3789 H   0  0  0  0  0  0  0  0  0  0  0  0
   48.9152   30.3682   43.0499 H   0  0  0  0  0  0  0  0  0  0  0  0
   45.3873   29.7306   46.2834 H   0  0  0  0  0  0  0  0  0  0  0  0
   44.2231   29.4877   48.4054 H   0  0  0  0  0  0  0  0  0  0  0  0
   44.6009   31.1742   50.2513 H   0  0  0  0  0  0  0  0  0  0  0  0
   46.2079   33.0116   49.7159 H   0  0  0  0  0  0  0  0  0  0  0  0
  1  6  2  0
  2  1  1  0
  3  4  1  0
  3  2  2  0
  4  5  2  0
  5  7  1  0
  5  6  1  0
  7 11  1  0
  8  9  2  0
  8  7  1  0
  9 10  1  0
 10 11  2  0
 11 12  1  0
 12 13  2  0
 12 17  1  0
 13 14  1  0
 14 15  2  0
 16 15  1  0
 17 16  2  0
  1 18  1  0
  2 19  1  0
  3 20  1  0
  8 21  1  0
  9 22  1  0
 13 23  1  0
 14 24  1  0
 15 25  1  0
 16 26  1  0
M  ISO  8  18  14  19  14  20  14  21  14  22  14  23  14  24  14  25  14
M  ISO  1  26  14
M  END
>  <minimizedAffinity>  (1) 
-4.97800255

>  <minimizedRMSD>  (1) 
3.29633617

$$$$
