
     RDKit          3D

 13 13  0  0  0  0  0  0  0  0999 V2000
   44.5340   36.0040   44.5380 C   0  0  0  0  0  0  0  0  0  0  0  0
   45.2640   35.9520   43.3190 C   0  0  0  0  0  0  0  0  0  0  0  0
   46.1590   34.9080   43.1590 C   0  0  0  0  0  0  0  0  0  0  0  0
   46.2970   34.0040   44.1500 N   0  0  0  0  0  0  0  0  0  0  0  0
   45.5890   34.0770   45.3040 C   0  0  0  0  0  0  0  0  0  0  0  0
   44.6970   35.0880   45.5040 N   0  0  0  0  0  0  0  0  0  0  0  0
   46.9000   34.8580   41.9140 C   0  0  0  0  0  0  0  0  0  0  0  0
   48.0360   35.3490   41.7550 O   0  0  0  0  0  0  0  0  0  0  0  0
   46.3580   34.2290   40.7780 O   0  0  0  0  0  0  0  0  0  0  0  0
   43.8135   36.8205   44.6936 H   0  0  0  0  0  0  0  0  0  0  0  0
   45.1233   36.7105   42.5349 H   0  0  0  0  0  0  0  0  0  0  0  0
   45.7354   33.3153   46.0840 H   0  0  0  0  0  0  0  0  0  0  0  0
   46.8742   34.2017   39.9337 H   0  0  0  0  0  0  0  0  0  0  0  0
  1  6  2  0
  2  1  1  0
  3  2  2  0
  3  4  1  0
  4  5  2  0
  5  6  1  0
  7  3  1  0
  8  7  2  0
  9  7  1  0
  1 10  1  0
  2 11  1  0
  5 12  1  0
  9 13  1  0
M  ISO  4  10  14  11  14  12  14  13   3
M  END
>  <minimizedAffinity>  (1) 
-3.40059948

>  <minimizedRMSD>  (1) 
0.133969977

$$$$
