
     RDKit          3D

 19 20  0  0  0  0  0  0  0  0999 V2000
   44.5810   35.8770   44.3550 C   0  0  0  0  0  0  0  0  0  0  0  0
   45.4140   35.9160   43.1990 C   0  0  0  0  0  0  0  0  0  0  0  0
   46.4000   34.9510   43.0970 C   0  0  0  0  0  0  0  0  0  0  0  0
   46.5370   34.0290   44.0710 N   0  0  0  0  0  0  0  0  0  0  0  0
   45.7310   34.0120   45.1650 C   0  0  0  0  0  0  0  0  0  0  0  0
   44.7400   34.9400   45.3180 N   0  0  0  0  0  0  0  0  0  0  0  0
   47.2420   34.9960   41.9200 C   0  0  0  0  0  0  0  0  0  0  0  0
   48.2920   35.6670   41.8380 O   0  0  0  0  0  0  0  0  0  0  0  0
   46.8760   34.2110   40.7020 C   0  0  0  0  0  0  0  0  0  0  0  0
   47.5880   33.0000   40.3010 C   0  0  0  0  0  0  0  0  0  0  0  0
   47.9860   34.2670   39.6480 C   0  0  0  0  0  0  0  0  0  0  0  0
   43.7867   36.6297   44.4673 H   0  0  0  0  0  0  0  0  0  0  0  0
   45.2785   36.6813   42.4206 H   0  0  0  0  0  0  0  0  0  0  0  0
   45.8782   33.2419   45.9365 H   0  0  0  0  0  0  0  0  0  0  0  0
   45.7994   34.4084   40.8111 H   0  0  0  0  0  0  0  0  0  0  0  0
   48.2760   32.5158   41.0096 H   0  0  0  0  0  0  0  0  0  0  0  0
   47.2668   32.0177   39.9243 H   0  0  0  0  0  0  0  0  0  0  0  0
   48.9536   34.7338   39.8846 H   0  0  0  0  0  0  0  0  0  0  0  0
   48.0738   34.6277   38.6125 H   0  0  0  0  0  0  0  0  0  0  0  0
  1  6  2  0
  2  1  1  0
  3  2  2  0
  3  4  1  0
  4  5  2  0
  5  6  1  0
  7  3  1  0
  8  7  2  0
  9  7  1  0
 10  9  1  0
 11 10  1  0
 11  9  1  0
  1 12  1  0
  2 13  1  0
  5 14  1  0
  9 15  1  0
 10 16  1  0
 10 17  1  0
 11 18  1  0
 11 19  1  0
M  ISO  8  12  14  13  14  14  14  15  13  16  13  17  13  18  13  19  13
M  END
>  <minimizedAffinity>  (1) 
-3.81475329

>  <minimizedRMSD>  (1) 
0.426628202

$$$$
