
     RDKit          3D

 30 32  0  0  1  0  0  0  0  0999 V2000
   47.1030   33.9760   41.3410 C   0  0  2  0  0  0  0  0  0  0  0  0
   45.6640   34.3440   41.1270 C   0  0  0  0  0  0  0  0  0  0  0  0
   46.4690   35.0190   42.1900 C   0  0  1  0  0  0  0  0  0  0  0  0
   45.9950   34.7250   43.5240 N   0  0  0  0  0  0  0  0  0  0  0  0
   46.3160   33.6610   44.2760 C   0  0  0  0  0  0  0  0  0  0  0  0
   45.7660   33.5350   45.5450 C   0  0  0  0  0  0  0  0  0  0  0  0
   44.9100   34.4980   46.0010 C   0  0  0  0  0  0  0  0  0  0  0  0
   44.3080   34.4270   47.3020 N   0  0  0  0  0  0  0  0  0  0  0  0
   44.5930   35.5510   45.2560 N   0  0  0  0  0  0  0  0  0  0  0  0
   45.1340   35.6590   44.0290 C   0  0  0  0  0  0  0  0  0  0  0  0
   44.7910   36.6940   43.3620 O   0  0  0  0  0  0  0  0  0  0  0  0
   48.1200   34.5340   40.3720 C   0  0  0  0  0  0  0  0  0  0  0  0
   48.6900   35.6060   40.7280 O   0  0  0  0  0  0  0  0  0  0  0  0
   48.9980   31.9370   37.8830 C   0  0  0  0  0  0  0  0  0  0  0  0
   48.7420   32.5450   39.1580 C   0  0  0  0  0  0  0  0  0  0  0  0
   48.3880   33.8600   39.1290 C   0  0  0  0  0  0  0  0  0  0  0  0
   48.3000   34.5020   37.9350 N   0  0  0  0  0  0  0  0  0  0  0  0
   48.5450   33.9100   36.7520 C   0  0  0  0  0  0  0  0  0  0  0  0
   48.9010   32.6030   36.7120 N   0  0  0  0  0  0  0  0  0  0  0  0
   47.6215   33.0183   41.4958 H   0  0  0  0  0  0  0  0  0  0  0  0
   45.3651   34.8992   40.2257 H   0  0  0  0  0  0  0  0  0  0  0  0
   44.7128   33.7922   41.1002 H   0  0  0  0  0  0  0  0  0  0  0  0
   46.7981   36.0336   42.4590 H   0  0  0  0  0  0  0  0  0  0  0  0
   47.0074   32.8967   43.8914 H   0  0  0  0  0  0  0  0  0  0  0  0
   46.0165   32.6697   46.1762 H   0  0  0  0  0  0  0  0  0  0  0  0
   43.6671   35.1704   47.6142 H   0  0  0  0  0  0  0  0  0  0  0  0
   44.5169   33.6326   47.9235 H   0  0  0  0  0  0  0  0  0  0  0  0
   49.2875   30.8761   37.8585 H   0  0  0  0  0  0  0  0  0  0  0  0
   48.8265   31.9836   40.1002 H   0  0  0  0  0  0  0  0  0  0  0  0
   48.4565   34.4858   35.8189 H   0  0  0  0  0  0  0  0  0  0  0  0
  1  3  1  0
  2  1  1  0
  2  3  1  0
  3  4  1  0
  4 10  1  0
  4  5  1  0
  5  6  2  0
  6  7  1  0
  7  8  1  0
  9  7  2  0
 10  9  1  0
 11 10  2  0
 12 13  2  0
 12  1  1  0
 14 15  2  0
 16 15  1  0
 16 12  1  0
 17 16  2  0
 18 17  1  0
 19 18  2  0
 19 14  1  0
  1 20  1  1
  2 21  1  0
  2 22  1  0
  3 23  1  6
  5 24  1  0
  6 25  1  0
  8 26  1  0
  8 27  1  0
 14 28  1  0
 15 29  1  0
 18 30  1  0
M  ISO  8  20  13  21  13  22  13  23  13  24  14  25  14  28  14  29  14
M  ISO  1  30  14
M  END
>  <minimizedAffinity>  (1) 
-5.90875244

>  <minimizedRMSD>  (1) 
7.40619564

$$$$
