
     RDKit          3D

 33 36  0  0  1  0  0  0  0  0999 V2000
   47.2180   33.9380   40.8700 C   0  0  2  0  0  0  0  0  0  0  0  0
   48.4060   33.0780   40.5590 C   0  0  0  0  0  0  0  0  0  0  0  0
   48.0400   34.2180   39.6620 C   0  0  1  0  0  0  0  0  0  0  0  0
   47.6320   33.7510   38.3060 C   0  0  0  0  0  0  0  0  0  0  0  0
   48.5170   34.0660   37.2650 C   0  0  0  0  0  0  0  0  0  0  0  0
   47.9990   33.5550   36.1130 N   0  0  0  0  0  0  0  0  0  0  0  0
   46.8360   32.9320   36.3650 C   0  0  0  0  0  0  0  0  0  0  0  0
   45.8550   32.2440   35.6770 C   0  0  0  0  0  0  0  0  0  0  0  0
   44.7330   31.7210   36.3200 C   0  0  0  0  0  0  0  0  0  0  0  0
   44.5530   31.8750   37.7000 C   0  0  0  0  0  0  0  0  0  0  0  0
   45.5390   32.5660   38.3870 C   0  0  0  0  0  0  0  0  0  0  0  0
   46.6180   33.0590   37.7210 C   0  0  0  0  0  0  0  0  0  0  0  0
   47.3530   34.9690   41.9590 C   0  0  0  0  0  0  0  0  0  0  0  0
   48.2890   35.8080   41.8100 O   0  0  0  0  0  0  0  0  0  0  0  0
   44.6180   35.8390   44.2990 C   0  0  0  0  0  0  0  0  0  0  0  0
   45.4760   35.8990   43.1490 C   0  0  0  0  0  0  0  0  0  0  0  0
   46.4570   34.9580   43.0820 C   0  0  0  0  0  0  0  0  0  0  0  0
   46.5650   34.0400   44.0780 N   0  0  0  0  0  0  0  0  0  0  0  0
   45.7510   33.9980   45.1490 C   0  0  0  0  0  0  0  0  0  0  0  0
   44.7540   34.9080   45.2760 N   0  0  0  0  0  0  0  0  0  0  0  0
   46.1625   33.7178   41.0879 H   0  0  0  0  0  0  0  0  0  0  0  0
   49.3084   33.1371   41.1853 H   0  0  0  0  0  0  0  0  0  0  0  0
   48.5742   31.9997   40.4215 H   0  0  0  0  0  0  0  0  0  0  0  0
   48.4726   35.1579   39.2885 H   0  0  0  0  0  0  0  0  0  0  0  0
   49.4596   34.6249   37.3611 H   0  0  0  0  0  0  0  0  0  0  0  0
   48.4359   33.6349   35.1837 H   0  0  0  0  0  0  0  0  0  0  0  0
   45.9618   32.1047   34.5911 H   0  0  0  0  0  0  0  0  0  0  0  0
   43.9771   31.1786   35.7332 H   0  0  0  0  0  0  0  0  0  0  0  0
   43.6707   31.4669   38.2148 H   0  0  0  0  0  0  0  0  0  0  0  0
   45.4488   32.7160   39.4730 H   0  0  0  0  0  0  0  0  0  0  0  0
   43.8129   36.5828   44.3919 H   0  0  0  0  0  0  0  0  0  0  0  0
   45.3477   36.6619   42.3670 H   0  0  0  0  0  0  0  0  0  0  0  0
   45.8944   33.2267   45.9200 H   0  0  0  0  0  0  0  0  0  0  0  0
  1 13  1  0
  2  1  1  0
  3  2  1  0
  3  1  1  0
  4  3  1  0
  5  4  2  0
  6  7  1  0
  6  5  1  0
  7 12  2  0
  8  9  2  0
  8  7  1  0
  9 10  1  0
 10 11  2  0
 12  4  1  0
 12 11  1  0
 13 17  1  0
 14 13  2  0
 15 20  2  0
 16 15  1  0
 17 16  2  0
 17 18  1  0
 18 19  2  0
 19 20  1  0
  1 21  1  6
  2 22  1  0
  2 23  1  0
  3 24  1  6
  5 25  1  0
  6 26  1  0
  8 27  1  0
  9 28  1  0
 10 29  1  0
 11 30  1  0
 15 31  1  0
 16 32  1  0
 19 33  1  0
M  ISO  8  21  13  22  13  23  13  24  13  25  14  26   9  27  14  28  14
M  ISO  5  29  14  30  14  31  14  32  14  33  14
M  END
>  <minimizedAffinity>  (1) 
-5.40833235

>  <minimizedRMSD>  (1) 
0.614919901

$$$$
