
     RDKit          3D

 31 33  0  0  1  0  0  0  0  0999 V2000
   46.2510   34.2140   40.7860 C   0  0  2  0  0  0  0  0  0  0  0  0
   46.1220   32.7300   40.8160 C   0  0  0  0  0  0  0  0  0  0  0  0
   47.2460   33.3610   40.0640 C   0  0  1  0  0  0  0  0  0  0  0  0
   47.1730   33.4980   38.6250 N   0  0  0  0  0  0  0  0  0  0  0  0
   47.0760   32.2510   37.9230 C   0  0  0  0  0  0  0  0  0  0  0  0
   47.2300   32.7270   36.4730 C   0  0  0  0  0  0  0  0  0  0  0  0
   48.4520   33.6320   36.6490 C   0  0  0  0  0  0  0  0  0  0  0  0
   48.2540   34.2290   38.0460 C   0  0  0  0  0  0  0  0  0  0  0  0
   46.8450   34.9050   41.9920 C   0  0  0  0  0  0  0  0  0  0  0  0
   47.9780   35.4390   41.8390 O   0  0  0  0  0  0  0  0  0  0  0  0
   44.5190   35.8750   44.7020 C   0  0  0  0  0  0  0  0  0  0  0  0
   45.2010   35.9180   43.4430 C   0  0  0  0  0  0  0  0  0  0  0  0
   46.1150   34.9240   43.2460 C   0  0  0  0  0  0  0  0  0  0  0  0
   46.3230   33.9890   44.2090 N   0  0  0  0  0  0  0  0  0  0  0  0
   45.6660   33.9740   45.3840 C   0  0  0  0  0  0  0  0  0  0  0  0
   44.7320   34.9450   45.6480 N   0  0  0  0  0  0  0  0  0  0  0  0
   45.5443   35.0208   40.5419 H   0  0  0  0  0  0  0  0  0  0  0  0
   46.3242   32.1797   41.7467 H   0  0  0  0  0  0  0  0  0  0  0  0
   45.3249   32.0147   40.5652 H   0  0  0  0  0  0  0  0  0  0  0  0
   48.3314   33.1822   40.0698 H   0  0  0  0  0  0  0  0  0  0  0  0
   47.8825   31.5604   38.2105 H   0  0  0  0  0  0  0  0  0  0  0  0
   46.1534   31.6860   38.1221 H   0  0  0  0  0  0  0  0  0  0  0  0
   46.3486   33.2863   36.1263 H   0  0  0  0  0  0  0  0  0  0  0  0
   47.3343   31.9307   35.7213 H   0  0  0  0  0  0  0  0  0  0  0  0
   49.3837   33.0494   36.5984 H   0  0  0  0  0  0  0  0  0  0  0  0
   48.5363   34.3971   35.8632 H   0  0  0  0  0  0  0  0  0  0  0  0
   49.1662   34.1075   38.6485 H   0  0  0  0  0  0  0  0  0  0  0  0
   48.0395   35.3070   38.0018 H   0  0  0  0  0  0  0  0  0  0  0  0
   43.7713   36.6551   44.9079 H   0  0  0  0  0  0  0  0  0  0  0  0
   45.0025   36.6952   42.6903 H   0  0  0  0  0  0  0  0  0  0  0  0
   45.8758   33.1901   46.1266 H   0  0  0  0  0  0  0  0  0  0  0  0
  1  2  1  0
  1  9  1  0
  3  1  1  0
  3  2  1  0
  4  5  1  0
  4  3  1  0
  6  7  1  0
  6  5  1  0
  7  8  1  0
  8  4  1  0
  9 13  1  0
 10  9  2  0
 11 16  2  0
 12 11  1  0
 13 12  2  0
 13 14  1  0
 14 15  2  0
 15 16  1  0
  1 17  1  6
  2 18  1  0
  2 19  1  0
  3 20  1  1
  5 21  1  0
  5 22  1  0
  6 23  1  0
  6 24  1  0
  7 25  1  0
  7 26  1  0
  8 27  1  0
  8 28  1  0
 11 29  1  0
 12 30  1  0
 15 31  1  0
M  ISO  8  17  13  18  13  19  13  20  13  21  13  22  13  23  13  24  13
M  ISO  7  25  13  26  13  27  13  28  13  29  14  30  14  31  14
M  END
>  <minimizedAffinity>  (1) 
-4.45815706

>  <minimizedRMSD>  (1) 
0.87763077

$$$$
