
     RDKit          3D

 26 28  0  0  1  0  0  0  0  0999 V2000
   46.7820   34.2270   40.6810 C   0  0  2  0  0  0  0  0  0  0  0  0
   46.6800   32.7420   40.7720 C   0  0  0  0  0  0  0  0  0  0  0  0
   47.8780   33.3670   40.1380 C   0  0  1  0  0  0  0  0  0  0  0  0
   47.9800   33.3360   38.6700 N   0  0  0  0  0  0  0  0  0  0  0  0
   47.5930   32.2770   37.9760 N   0  0  0  0  0  0  0  0  0  0  0  0
   47.7810   32.4840   36.6640 C   0  0  0  0  0  0  0  0  0  0  0  0
   48.3190   33.7610   36.5840 C   0  0  0  0  0  0  0  0  0  0  0  0
   48.4450   34.3000   37.8550 C   0  0  0  0  0  0  0  0  0  0  0  0
   47.1850   34.9930   41.9140 C   0  0  0  0  0  0  0  0  0  0  0  0
   48.2760   35.6210   41.8490 O   0  0  0  0  0  0  0  0  0  0  0  0
   44.5660   35.8600   44.3780 C   0  0  0  0  0  0  0  0  0  0  0  0
   45.3580   35.9180   43.1960 C   0  0  0  0  0  0  0  0  0  0  0  0
   46.3370   34.9770   43.0900 C   0  0  0  0  0  0  0  0  0  0  0  0
   46.5130   34.0570   44.0760 N   0  0  0  0  0  0  0  0  0  0  0  0
   45.7410   34.0290   45.1930 C   0  0  0  0  0  0  0  0  0  0  0  0
   44.7460   34.9490   45.3480 N   0  0  0  0  0  0  0  0  0  0  0  0
   46.1006   35.0037   40.3036 H   0  0  0  0  0  0  0  0  0  0  0  0
   46.7719   32.2436   41.7483 H   0  0  0  0  0  0  0  0  0  0  0  0
   45.9369   31.9936   40.4593 H   0  0  0  0  0  0  0  0  0  0  0  0
   48.9624   33.2669   40.2929 H   0  0  0  0  0  0  0  0  0  0  0  0
   47.5583   31.7951   35.8359 H   0  0  0  0  0  0  0  0  0  0  0  0
   48.6031   34.2696   35.6510 H   0  0  0  0  0  0  0  0  0  0  0  0
   48.8359   35.2898   38.1335 H   0  0  0  0  0  0  0  0  0  0  0  0
   43.7633   36.6016   44.5033 H   0  0  0  0  0  0  0  0  0  0  0  0
   45.1896   36.6759   42.4167 H   0  0  0  0  0  0  0  0  0  0  0  0
   45.9171   33.2688   45.9682 H   0  0  0  0  0  0  0  0  0  0  0  0
  1  2  1  0
  1  9  1  0
  3  1  1  0
  3  2  1  0
  4  3  1  0
  5  4  1  0
  6  5  2  0
  7  6  1  0
  7  8  2  0
  8  4  1  0
  9 13  1  0
 10  9  2  0
 11 16  2  0
 12 11  1  0
 13 12  2  0
 13 14  1  0
 14 15  2  0
 15 16  1  0
  1 17  1  6
  2 18  1  0
  2 19  1  0
  3 20  1  1
  6 21  1  0
  7 22  1  0
  8 23  1  0
 11 24  1  0
 12 25  1  0
 15 26  1  0
M  ISO  8  17  13  18  13  19  13  20  13  21  14  22  14  23  14  24  14
M  ISO  2  25  14  26  14
M  END
>  <minimizedAffinity>  (1) 
-4.3819952

>  <minimizedRMSD>  (1) 
1.26265252

$$$$
