
     RDKit          3D

 33 35  0  0  1  0  0  0  0  0999 V2000
   43.3840   35.4280   40.9680 C   0  0  2  0  0  0  0  0  0  0  0  0
   42.0890   35.3460   41.6910 C   0  0  0  0  0  0  0  0  0  0  0  0
   42.3510   34.4590   40.5170 C   0  0  2  0  0  0  0  0  0  0  0  0
   42.3900   33.0450   40.7000 N   0  0  0  0  0  0  0  0  0  0  0  0
   42.6070   32.4090   39.3810 C   0  0  0  0  0  0  0  0  0  0  0  0
   41.6800   33.0290   38.3720 C   0  0  0  0  0  0  0  0  0  0  0  0
   40.4120   33.2860   39.0230 N   0  0  0  0  0  0  0  0  0  0  0  0
   40.1940   32.2060   39.9690 C   0  0  0  0  0  0  0  0  0  0  0  0
   41.1550   32.4260   41.1310 C   0  0  0  0  0  0  0  0  0  0  0  0
   44.6230   34.8060   41.5370 C   0  0  0  0  0  0  0  0  0  0  0  0
   45.4570   34.4110   40.6910 O   0  0  0  0  0  0  0  0  0  0  0  0
   44.6470   35.5900   45.1590 C   0  0  0  0  0  0  0  0  0  0  0  0
   44.4550   35.7500   43.7460 C   0  0  0  0  0  0  0  0  0  0  0  0
   44.7930   34.6870   42.9580 C   0  0  0  0  0  0  0  0  0  0  0  0
   45.2820   33.5610   43.5420 N   0  0  0  0  0  0  0  0  0  0  0  0
   45.4550   33.4330   44.8720 C   0  0  0  0  0  0  0  0  0  0  0  0
   45.1350   34.4600   45.7070 N   0  0  0  0  0  0  0  0  0  0  0  0
   43.9425   36.2750   40.5430 H   0  0  0  0  0  0  0  0  0  0  0  0
   42.0505   34.9205   42.7046 H   0  0  0  0  0  0  0  0  0  0  0  0
   41.3024   36.0650   41.9636 H   0  0  0  0  0  0  0  0  0  0  0  0
   41.9081   34.2533   39.5314 H   0  0  0  0  0  0  0  0  0  0  0  0
   43.6495   32.5632   39.0657 H   0  0  0  0  0  0  0  0  0  0  0  0
   42.4041   31.3304   39.4540 H   0  0  0  0  0  0  0  0  0  0  0  0
   41.5326   32.3391   37.5280 H   0  0  0  0  0  0  0  0  0  0  0  0
   42.1077   33.9668   37.9878 H   0  0  0  0  0  0  0  0  0  0  0  0
   40.4450   34.1886   39.5181 H   0  0  0  0  0  0  0  0  0  0  0  0
   39.1551   32.2248   40.3300 H   0  0  0  0  0  0  0  0  0  0  0  0
   40.3706   31.2292   39.4949 H   0  0  0  0  0  0  0  0  0  0  0  0
   41.3860   31.4536   41.5904 H   0  0  0  0  0  0  0  0  0  0  0  0
   40.6694   33.0999   41.8521 H   0  0  0  0  0  0  0  0  0  0  0  0
   44.3844   36.4262   45.8237 H   0  0  0  0  0  0  0  0  0  0  0  0
   44.0557   36.6818   43.3190 H   0  0  0  0  0  0  0  0  0  0  0  0
   45.8561   32.4956   45.2848 H   0  0  0  0  0  0  0  0  0  0  0  0
  1 10  1  0
  1  2  1  0
  3  4  1  0
  3  1  1  0
  3  2  1  0
  4  9  1  0
  5  4  1  0
  6  7  1  0
  6  5  1  0
  7  8  1  0
  8  9  1  0
 10 14  1  0
 11 10  2  0
 12 17  2  0
 13 12  1  0
 14 15  1  0
 14 13  2  0
 15 16  2  0
 16 17  1  0
  1 18  1  6
  2 19  1  0
  2 20  1  0
  3 21  1  6
  5 22  1  0
  5 23  1  0
  6 24  1  0
  6 25  1  0
  7 26  1  0
  8 27  1  0
  8 28  1  0
  9 29  1  0
  9 30  1  0
 12 31  1  0
 13 32  1  0
 16 33  1  0
M  ISO  8  18  13  19  13  20  13  21  13  22  13  23  13  24  13  25  13
M  ISO  8  26   5  27  13  28  13  29  13  30  13  31  14  32  14  33  14
M  END
>  <minimizedAffinity>  (1) 
-4.34165144

>  <minimizedRMSD>  (1) 
5.78932333

$$$$
