
     RDKit          3D

 22 23  0  0  1  0  0  0  0  0999 V2000
   46.5120   34.9170   42.2480 C   0  0  0  0  0  0  0  0  0  0  0  0
   47.5100   35.6250   41.9720 O   0  0  0  0  0  0  0  0  0  0  0  0
   44.5160   35.4770   45.3150 C   0  0  0  0  0  0  0  0  0  0  0  0
   45.0200   35.6800   43.9850 C   0  0  0  0  0  0  0  0  0  0  0  0
   45.9550   34.7820   43.5710 C   0  0  0  0  0  0  0  0  0  0  0  0
   46.3420   33.7880   44.4060 N   0  0  0  0  0  0  0  0  0  0  0  0
   45.8590   33.6130   45.6490 C   0  0  0  0  0  0  0  0  0  0  0  0
   44.9180   34.4810   46.1230 N   0  0  0  0  0  0  0  0  0  0  0  0
   45.9260   34.1990   41.0840 C   0  0  2  0  0  0  0  0  0  0  0  0
   46.3960   32.8310   40.7280 C   0  0  0  0  0  0  0  0  0  0  0  0
   46.7780   34.0180   39.9060 C   0  0  2  0  0  0  0  0  0  0  0  0
   48.2330   34.2110   39.8090 C   0  0  0  0  0  0  0  0  0  0  0  0
   48.9680   33.4050   40.6960 F   0  0  0  0  0  0  0  0  0  0  0  0
   48.6280   33.6540   38.5650 F   0  0  0  0  0  0  0  0  0  0  0  0
   48.7030   35.4860   39.7230 F   0  0  0  0  0  0  0  0  0  0  0  0
   43.7571   36.1773   45.6940 H   0  0  0  0  0  0  0  0  0  0  0  0
   44.6738   36.5050   43.3450 H   0  0  0  0  0  0  0  0  0  0  0  0
   46.2171   32.7822   46.2748 H   0  0  0  0  0  0  0  0  0  0  0  0
   44.9336   34.6290   41.2845 H   0  0  0  0  0  0  0  0  0  0  0  0
   47.1477   32.3246   41.3513 H   0  0  0  0  0  0  0  0  0  0  0  0
   45.9137   31.8623   40.5306 H   0  0  0  0  0  0  0  0  0  0  0  0
   46.6592   34.4407   38.8974 H   0  0  0  0  0  0  0  0  0  0  0  0
  1  5  1  0
  2  1  2  0
  3  8  2  0
  4  3  1  0
  5  4  2  0
  5  6  1  0
  6  7  2  0
  7  8  1  0
  9  1  1  0
 10  9  1  0
 11 10  1  0
 11  9  1  0
 12 11  1  0
 12 13  1  0
 14 12  1  0
 15 12  1  0
  3 16  1  0
  4 17  1  0
  7 18  1  0
  9 19  1  6
 10 20  1  0
 10 21  1  0
 11 22  1  6
M  ISO  7  16  14  17  14  18  14  19  13  20  13  21  13  22  13
M  END
>  <minimizedAffinity>  (1) 
-4.3928113

>  <minimizedRMSD>  (1) 
1.15015507

$$$$
