
     RDKit          3D

 35 36  0  0  1  0  0  0  0  0999 V2000
   47.5340   33.7880   42.4800 C   0  0  2  0  0  0  0  0  0  0  0  0
   48.8900   33.7970   43.0400 C   0  0  0  0  0  0  0  0  0  0  0  0
   49.6770   34.8860   42.3060 C   0  0  0  0  0  0  0  0  0  0  0  0
   48.7190   35.5740   41.3750 C   0  0  0  0  0  0  0  0  0  0  0  0
   47.6420   34.5880   41.1620 C   0  0  1  0  0  0  0  0  0  0  0  0
   46.4790   34.4640   43.2610 C   0  0  0  0  0  0  0  0  0  0  0  0
   46.1240   33.9540   44.5200 C   0  0  0  0  0  0  0  0  0  0  0  0
   45.1500   34.5960   45.2800 C   0  0  0  0  0  0  0  0  0  0  0  0
   44.5900   35.7210   44.7210 N   0  0  0  0  0  0  0  0  0  0  0  0
   44.9440   36.1900   43.5130 C   0  0  0  0  0  0  0  0  0  0  0  0
   45.8860   35.5650   42.7840 N   0  0  0  0  0  0  0  0  0  0  0  0
   47.7360   33.7090   39.9770 C   0  0  0  0  0  0  0  0  0  0  0  0
   48.6260   32.5210   40.0800 C   0  0  0  0  0  0  0  0  0  0  0  0
   46.3630   33.3770   39.4450 C   0  0  0  0  0  0  0  0  0  0  0  0
   48.3340   34.5690   38.8550 C   0  0  0  0  0  0  0  0  0  0  0  0
   47.2331   32.7318   42.4177 H   0  0  0  0  0  0  0  0  0  0  0  0
   48.8515   34.0207   44.1163 H   0  0  0  0  0  0  0  0  0  0  0  0
   49.3708   32.8158   42.9132 H   0  0  0  0  0  0  0  0  0  0  0  0
   50.0850   35.6082   43.0285 H   0  0  0  0  0  0  0  0  0  0  0  0
   50.5195   34.4509   41.7485 H   0  0  0  0  0  0  0  0  0  0  0  0
   48.3216   36.4914   41.8337 H   0  0  0  0  0  0  0  0  0  0  0  0
   49.1975   35.8821   40.4337 H   0  0  0  0  0  0  0  0  0  0  0  0
   46.7284   35.1486   40.9151 H   0  0  0  0  0  0  0  0  0  0  0  0
   46.6148   33.0482   44.9055 H   0  0  0  0  0  0  0  0  0  0  0  0
   44.8460   34.2251   46.2699 H   0  0  0  0  0  0  0  0  0  0  0  0
   44.4588   37.0939   43.1161 H   0  0  0  0  0  0  0  0  0  0  0  0
   48.8023   32.2857   41.1400 H   0  0  0  0  0  0  0  0  0  0  0  0
   48.1480   31.6610   39.5881 H   0  0  0  0  0  0  0  0  0  0  0  0
   49.5856   32.7380   39.5881 H   0  0  0  0  0  0  0  0  0  0  0  0
   45.6742   33.2104   40.2863 H   0  0  0  0  0  0  0  0  0  0  0  0
   45.9960   34.2123   38.8305 H   0  0  0  0  0  0  0  0  0  0  0  0
   46.4182   32.4663   38.8305 H   0  0  0  0  0  0  0  0  0  0  0  0
   48.9096   35.3968   39.2947 H   0  0  0  0  0  0  0  0  0  0  0  0
   48.9979   33.9505   38.2331 H   0  0  0  0  0  0  0  0  0  0  0  0
   47.5231   34.9760   38.2331 H   0  0  0  0  0  0  0  0  0  0  0  0
  1  2  1  0
  1  6  1  0
  3  2  1  0
  4  3  1  0
  5  4  1  0
  5  1  1  0
  6  7  2  0
  7  8  1  0
  9  8  2  0
 10  9  1  0
 11  6  1  0
 11 10  2  0
 12 13  1  0
 12  5  1  0
 14 12  1  0
 15 12  1  0
  1 16  1  6
  2 17  1  0
  2 18  1  0
  3 19  1  0
  3 20  1  0
  4 21  1  0
  4 22  1  0
  5 23  1  6
  7 24  1  0
  8 25  1  0
 10 26  1  0
 13 27  1  0
 13 28  1  0
 13 29  1  0
 14 30  1  0
 14 31  1  0
 14 32  1  0
 15 33  1  0
 15 34  1  0
 15 35  1  0
M  ISO  8  16  13  17  13  18  13  19  13  20  13  21  13  22  13  23  13
M  ISO  8  24  14  25  14  26  14  27   8  28   8  29   8  30   8  31   8
M  ISO  4  32   8  33   8  34   8  35   8
M  END
>  <minimizedAffinity>  (1) 
-5.2657094

>  <minimizedRMSD>  (1) 
4.02833176

$$$$
