
     RDKit          3D

 35 38  0  0  1  0  0  0  0  0999 V2000
   46.5080   34.2260   40.8020 C   0  0  2  0  0  0  0  0  0  0  0  0
   46.0400   32.7940   40.9160 C   0  0  0  0  0  0  0  0  0  0  0  0
   47.3310   33.1120   40.3120 C   0  0  1  0  0  0  0  0  0  0  0  0
   47.7230   33.4270   38.9560 N   0  0  0  0  0  0  0  0  0  0  0  0
   48.3780   34.4800   38.4340 C   0  0  0  0  0  0  0  0  0  0  0  0
   48.4900   34.2920   37.1110 N   0  0  0  0  0  0  0  0  0  0  0  0
   47.9020   33.1210   36.8140 C   0  0  0  0  0  0  0  0  0  0  0  0
   47.7350   32.4490   35.6020 C   0  0  0  0  0  0  0  0  0  0  0  0
   47.0980   31.2610   35.5500 N   0  0  0  0  0  0  0  0  0  0  0  0
   46.6200   30.7250   36.7060 C   0  0  0  0  0  0  0  0  0  0  0  0
   46.7810   31.3680   37.8700 N   0  0  0  0  0  0  0  0  0  0  0  0
   47.4040   32.5510   37.9880 C   0  0  0  0  0  0  0  0  0  0  0  0
   48.2360   33.0140   34.3970 N   0  0  0  0  0  0  0  0  0  0  0  0
   48.4550   32.4570   41.0390 C   0  0  0  0  0  0  0  0  0  0  0  0
   48.1860   32.0830   42.3540 F   0  0  0  0  0  0  0  0  0  0  0  0
   48.7130   31.2370   40.4050 F   0  0  0  0  0  0  0  0  0  0  0  0
   49.6860   33.0910   40.9410 F   0  0  0  0  0  0  0  0  0  0  0  0
   46.9540   34.9820   41.9840 C   0  0  0  0  0  0  0  0  0  0  0  0
   48.0580   35.5490   41.8510 O   0  0  0  0  0  0  0  0  0  0  0  0
   44.4840   35.9400   44.5680 C   0  0  0  0  0  0  0  0  0  0  0  0
   45.2240   35.9890   43.3250 C   0  0  0  0  0  0  0  0  0  0  0  0
   46.1530   35.0260   43.1690 C   0  0  0  0  0  0  0  0  0  0  0  0
   46.3240   34.1010   44.1650 N   0  0  0  0  0  0  0  0  0  0  0  0
   45.6270   34.0730   45.3100 C   0  0  0  0  0  0  0  0  0  0  0  0
   44.6780   35.0160   45.5260 N   0  0  0  0  0  0  0  0  0  0  0  0
   46.0803   35.1478   40.3809 H   0  0  0  0  0  0  0  0  0  0  0  0
   45.9965   32.3041   41.8999 H   0  0  0  0  0  0  0  0  0  0  0  0
   45.1456   32.2360   40.6019 H   0  0  0  0  0  0  0  0  0  0  0  0
   48.7567   35.3464   38.9961 H   0  0  0  0  0  0  0  0  0  0  0  0
   46.0978   29.7571   36.6843 H   0  0  0  0  0  0  0  0  0  0  0  0
   48.1115   32.5161   33.5040 H   0  0  0  0  0  0  0  0  0  0  0  0
   48.7234   33.9211   34.4172 H   0  0  0  0  0  0  0  0  0  0  0  0
   43.7144   36.7068   44.7400 H   0  0  0  0  0  0  0  0  0  0  0  0
   45.0406   36.7589   42.5610 H   0  0  0  0  0  0  0  0  0  0  0  0
   45.8227   33.2957   46.0633 H   0  0  0  0  0  0  0  0  0  0  0  0
  1  2  1  0
  1 18  1  0
  3  1  1  0
  3  2  1  0
  3 14  1  1
  4  3  1  0
  5  4  1  0
  6  5  2  0
  7  6  1  0
  7 12  2  0
  8  7  1  0
  9  8  2  0
  9 10  1  0
 10 11  2  0
 11 12  1  0
 12  4  1  0
 13  8  1  0
 14 15  1  0
 16 14  1  0
 17 14  1  0
 18 22  1  0
 19 18  2  0
 20 25  2  0
 21 20  1  0
 22 21  2  0
 22 23  1  0
 23 24  2  0
 24 25  1  0
  1 26  1  6
  2 27  1  0
  2 28  1  0
  5 29  1  0
 10 30  1  0
 13 31  1  0
 13 32  1  0
 20 33  1  0
 21 34  1  0
 24 35  1  0
M  ISO  8  26  13  27  13  28  13  29  14  30  14  33  14  34  14  35  14
M  END
>  <minimizedAffinity>  (1) 
-5.71678162

>  <minimizedRMSD>  (1) 
3.40092611

$$$$
