
     RDKit          3D

 36 39  0  0  1  0  0  0  0  0999 V2000
   46.1670   33.2450   41.3770 C   0  0  2  0  0  0  0  0  0  0  0  0
   47.0750   32.0530   41.2260 C   0  0  0  0  0  0  0  0  0  0  0  0
   46.8910   32.9920   40.1220 C   0  0  1  0  0  0  0  0  0  0  0  0
   45.8980   33.0490   39.0220 C   0  0  0  0  0  0  0  0  0  0  0  0
   46.0290   33.0700   37.6490 C   0  0  0  0  0  0  0  0  0  0  0  0
   44.7890   33.1250   37.1750 N   0  0  0  0  0  0  0  0  0  0  0  0
   43.8650   33.1410   38.1520 C   0  0  0  0  0  0  0  0  0  0  0  0
   42.4870   33.1930   38.1050 C   0  0  0  0  0  0  0  0  0  0  0  0
   41.7380   33.1980   39.2670 C   0  0  0  0  0  0  0  0  0  0  0  0
   42.4090   33.1510   40.4730 C   0  0  0  0  0  0  0  0  0  0  0  0
   43.7890   33.0990   40.4890 C   0  0  0  0  0  0  0  0  0  0  0  0
   44.5570   33.0920   39.3430 C   0  0  0  0  0  0  0  0  0  0  0  0
   48.1800   33.6090   39.7060 C   0  0  0  0  0  0  0  0  0  0  0  0
   49.2170   33.5290   40.6310 F   0  0  0  0  0  0  0  0  0  0  0  0
   48.6640   32.8780   38.6150 F   0  0  0  0  0  0  0  0  0  0  0  0
   48.0860   34.8880   39.1680 F   0  0  0  0  0  0  0  0  0  0  0  0
   46.5500   34.4040   42.2000 C   0  0  0  0  0  0  0  0  0  0  0  0
   47.4830   35.0890   41.7360 O   0  0  0  0  0  0  0  0  0  0  0  0
   44.4820   35.9440   44.8450 C   0  0  0  0  0  0  0  0  0  0  0  0
   45.0910   35.7680   43.5510 C   0  0  0  0  0  0  0  0  0  0  0  0
   45.8760   34.6780   43.4330 C   0  0  0  0  0  0  0  0  0  0  0  0
   46.0290   33.8460   44.5120 N   0  0  0  0  0  0  0  0  0  0  0  0
   45.4520   34.0280   45.7080 C   0  0  0  0  0  0  0  0  0  0  0  0
   44.6530   35.1060   45.8920 N   0  0  0  0  0  0  0  0  0  0  0  0
   45.1190   33.3813   41.6821 H   0  0  0  0  0  0  0  0  0  0  0  0
   48.0327   32.0172   41.7659 H   0  0  0  0  0  0  0  0  0  0  0  0
   46.9650   30.9660   41.3536 H   0  0  0  0  0  0  0  0  0  0  0  0
   46.9632   33.0462   37.0688 H   0  0  0  0  0  0  0  0  0  0  0  0
   44.5608   33.1523   36.1710 H   0  0  0  0  0  0  0  0  0  0  0  0
   41.9779   33.2310   37.1306 H   0  0  0  0  0  0  0  0  0  0  0  0
   40.6393   33.2383   39.2319 H   0  0  0  0  0  0  0  0  0  0  0  0
   41.8461   33.1550   41.4180 H   0  0  0  0  0  0  0  0  0  0  0  0
   44.3003   33.0614   41.4622 H   0  0  0  0  0  0  0  0  0  0  0  0
   43.8334   36.8204   44.9910 H   0  0  0  0  0  0  0  0  0  0  0  0
   44.9276   36.4709   42.7208 H   0  0  0  0  0  0  0  0  0  0  0  0
   45.6245   33.3137   46.5265 H   0  0  0  0  0  0  0  0  0  0  0  0
  1 17  1  0
  2  1  1  0
  3 13  1  6
  3  2  1  0
  3  1  1  0
  4 12  1  0
  4  3  1  0
  5  4  2  0
  6  5  1  0
  6  7  1  0
  7 12  2  0
  8  7  1  0
  8  9  2  0
  9 10  1  0
 10 11  2  0
 12 11  1  0
 13 14  1  0
 15 13  1  0
 16 13  1  0
 17 21  1  0
 18 17  2  0
 19 24  2  0
 20 19  1  0
 21 20  2  0
 21 22  1  0
 22 23  2  0
 23 24  1  0
  1 25  1  6
  2 26  1  0
  2 27  1  0
  5 28  1  0
  6 29  1  0
  8 30  1  0
  9 31  1  0
 10 32  1  0
 11 33  1  0
 19 34  1  0
 20 35  1  0
 23 36  1  0
M  ISO  8  25  13  26  13  27  13  28  14  29   9  30  14  31  14  32  14
M  ISO  4  33  14  34  14  35  14  36  14
M  END
>  <minimizedAffinity>  (1) 
-5.36646175

>  <minimizedRMSD>  (1) 
1.51301253

$$$$
