
     RDKit          3D

 32 34  0  0  1  0  0  0  0  0999 V2000
   46.9720   33.8280   41.0940 C   0  0  2  0  0  0  0  0  0  0  0  0
   46.7710   32.3830   41.4590 C   0  0  0  0  0  0  0  0  0  0  0  0
   48.0320   32.8300   40.8670 C   0  0  1  0  0  0  0  0  0  0  0  0
   48.4090   32.9240   39.4350 C   0  0  0  0  0  0  0  0  0  0  0  0
   48.0470   34.1310   38.8740 C   0  0  0  0  0  0  0  0  0  0  0  0
   48.2970   34.4520   37.5420 C   0  0  0  0  0  0  0  0  0  0  0  0
   48.9390   33.5270   36.7210 C   0  0  0  0  0  0  0  0  0  0  0  0
   49.2820   32.3340   37.3240 C   0  0  0  0  0  0  0  0  0  0  0  0
   49.0370   32.0140   38.6410 C   0  0  0  0  0  0  0  0  0  0  0  0
   49.1760   32.5670   41.7600 C   0  0  0  0  0  0  0  0  0  0  0  0
   48.8800   32.5320   43.1410 F   0  0  0  0  0  0  0  0  0  0  0  0
   49.6400   31.2710   41.5180 F   0  0  0  0  0  0  0  0  0  0  0  0
   50.3240   33.3270   41.5680 F   0  0  0  0  0  0  0  0  0  0  0  0
   47.1570   34.8720   42.1040 C   0  0  0  0  0  0  0  0  0  0  0  0
   48.1250   35.6210   41.8930 O   0  0  0  0  0  0  0  0  0  0  0  0
   44.5020   35.9470   44.4400 C   0  0  0  0  0  0  0  0  0  0  0  0
   45.3240   35.9370   43.2640 C   0  0  0  0  0  0  0  0  0  0  0  0
   46.2690   34.9740   43.2230 C   0  0  0  0  0  0  0  0  0  0  0  0
   46.3760   34.0980   44.2750 N   0  0  0  0  0  0  0  0  0  0  0  0
   45.5930   34.1280   45.3670 C   0  0  0  0  0  0  0  0  0  0  0  0
   44.6270   35.0710   45.4660 N   0  0  0  0  0  0  0  0  0  0  0  0
   46.4138   34.5533   40.4838 H   0  0  0  0  0  0  0  0  0  0  0  0
   46.7347   32.0814   42.5162 H   0  0  0  0  0  0  0  0  0  0  0  0
   46.0241   31.6131   41.2155 H   0  0  0  0  0  0  0  0  0  0  0  0
   47.5382   34.8731   39.5068 H   0  0  0  0  0  0  0  0  0  0  0  0
   47.9898   35.4291   37.1408 H   0  0  0  0  0  0  0  0  0  0  0  0
   49.1578   33.7339   35.6630 H   0  0  0  0  0  0  0  0  0  0  0  0
   49.7905   31.5803   36.7048 H   0  0  0  0  0  0  0  0  0  0  0  0
   49.3441   31.0381   39.0450 H   0  0  0  0  0  0  0  0  0  0  0  0
   43.7191   36.7162   44.5134 H   0  0  0  0  0  0  0  0  0  0  0  0
   45.1929   36.6654   42.4502 H   0  0  0  0  0  0  0  0  0  0  0  0
   45.7359   33.3930   46.1728 H   0  0  0  0  0  0  0  0  0  0  0  0
  1  2  1  0
  1 14  1  0
  3  1  1  0
  3  2  1  0
  3 10  1  1
  4  3  1  0
  5  4  2  0
  6  5  1  0
  7  8  1  0
  7  6  2  0
  8  9  2  0
  9  4  1  0
 10 11  1  0
 12 10  1  0
 13 10  1  0
 14 18  1  0
 15 14  2  0
 16 21  2  0
 17 16  1  0
 18 17  2  0
 18 19  1  0
 19 20  2  0
 20 21  1  0
  1 22  1  6
  2 23  1  0
  2 24  1  0
  5 25  1  0
  6 26  1  0
  7 27  1  0
  8 28  1  0
  9 29  1  0
 16 30  1  0
 17 31  1  0
 20 32  1  0
M  ISO  8  22  13  23  13  24  13  25  14  26  14  27  14  28  14  29  14
M  ISO  3  30  14  31  14  32  14
M  END
>  <minimizedAffinity>  (1) 
-5.25888443

>  <minimizedRMSD>  (1) 
2.7886405

$$$$
