
     RDKit          3D

 30 32  0  0  1  0  0  0  0  0999 V2000
   46.7230   33.8950   41.0060 C   0  0  2  0  0  0  0  0  0  0  0  0
   46.4580   32.4440   41.3090 C   0  0  0  0  0  0  0  0  0  0  0  0
   47.7120   32.8510   40.6760 C   0  0  1  0  0  0  0  0  0  0  0  0
   48.0760   33.0270   39.2490 C   0  0  0  0  0  0  0  0  0  0  0  0
   48.1480   34.2950   38.7130 C   0  0  0  0  0  0  0  0  0  0  0  0
   48.4750   34.5450   37.3980 C   0  0  0  0  0  0  0  0  0  0  0  0
   48.7420   33.5200   36.5720 N   0  0  0  0  0  0  0  0  0  0  0  0
   48.6750   32.2780   37.0810 C   0  0  0  0  0  0  0  0  0  0  0  0
   48.3560   32.0330   38.3620 N   0  0  0  0  0  0  0  0  0  0  0  0
   48.8860   32.4740   41.5060 C   0  0  0  0  0  0  0  0  0  0  0  0
   48.6380   32.2870   42.8660 F   0  0  0  0  0  0  0  0  0  0  0  0
   49.3180   31.2120   41.0910 F   0  0  0  0  0  0  0  0  0  0  0  0
   50.0330   33.2390   41.3170 F   0  0  0  0  0  0  0  0  0  0  0  0
   47.0200   34.8650   42.0650 C   0  0  0  0  0  0  0  0  0  0  0  0
   48.0320   35.5550   41.8580 O   0  0  0  0  0  0  0  0  0  0  0  0
   44.4860   35.9480   44.5380 C   0  0  0  0  0  0  0  0  0  0  0  0
   45.2560   35.9360   43.3110 C   0  0  0  0  0  0  0  0  0  0  0  0
   46.1830   34.9620   43.2250 C   0  0  0  0  0  0  0  0  0  0  0  0
   46.3270   34.0810   44.2680 N   0  0  0  0  0  0  0  0  0  0  0  0
   45.6010   34.1120   45.3960 C   0  0  0  0  0  0  0  0  0  0  0  0
   44.6530   35.0680   45.5440 N   0  0  0  0  0  0  0  0  0  0  0  0
   46.1803   34.6814   40.4610 H   0  0  0  0  0  0  0  0  0  0  0  0
   46.4559   32.0899   42.3505 H   0  0  0  0  0  0  0  0  0  0  0  0
   45.6573   31.7299   41.0663 H   0  0  0  0  0  0  0  0  0  0  0  0
   47.9333   35.1515   39.3690 H   0  0  0  0  0  0  0  0  0  0  0  0
   48.5172   35.5794   37.0263 H   0  0  0  0  0  0  0  0  0  0  0  0
   48.8907   31.4257   36.4199 H   0  0  0  0  0  0  0  0  0  0  0  0
   43.7162   36.7249   44.6556 H   0  0  0  0  0  0  0  0  0  0  0  0
   45.0954   36.6695   42.5071 H   0  0  0  0  0  0  0  0  0  0  0  0
   45.7735   33.3707   46.1902 H   0  0  0  0  0  0  0  0  0  0  0  0
  1  2  1  0
  1 14  1  0
  3  1  1  0
  3  2  1  0
  3 10  1  1
  4  3  1  0
  5  4  2  0
  6  5  1  0
  7  8  1  0
  7  6  2  0
  8  9  2  0
  9  4  1  0
 10 11  1  0
 12 10  1  0
 13 10  1  0
 14 18  1  0
 15 14  2  0
 16 21  2  0
 17 16  1  0
 18 17  2  0
 18 19  1  0
 19 20  2  0
 20 21  1  0
  1 22  1  6
  2 23  1  0
  2 24  1  0
  5 25  1  0
  6 26  1  0
  8 27  1  0
 16 28  1  0
 17 29  1  0
 20 30  1  0
M  ISO  8  22  13  23  13  24  13  25  14  26  14  27  14  28  14  29  14
M  ISO  1  30  14
M  END
>  <minimizedAffinity>  (1) 
-5.15715599

>  <minimizedRMSD>  (1) 
2.54220676

$$$$
