
     RDKit          3D

 37 39  0  0  1  0  0  0  0  0999 V2000
   46.2630   34.2270   40.8640 C   0  0  2  0  0  0  0  0  0  0  0  0
   45.6840   32.8380   40.9760 C   0  0  0  0  0  0  0  0  0  0  0  0
   46.9750   33.0500   40.3210 C   0  0  1  0  0  0  0  0  0  0  0  0
   47.3130   33.3710   39.0010 N   0  0  0  0  0  0  0  0  0  0  0  0
   48.2110   34.4070   38.7270 C   0  0  0  0  0  0  0  0  0  0  0  0
   48.4790   34.4710   37.2370 C   0  0  0  0  0  0  0  0  0  0  0  0
   48.6000   33.1500   36.5650 C   0  0  0  0  0  0  0  0  0  0  0  0
   47.6100   32.1120   37.0410 C   0  0  0  0  0  0  0  0  0  0  0  0
   46.6080   32.8910   37.9030 C   0  0  0  0  0  0  0  0  0  0  0  0
   48.0460   32.2920   41.0290 C   0  0  0  0  0  0  0  0  0  0  0  0
   47.7140   31.8000   42.2910 F   0  0  0  0  0  0  0  0  0  0  0  0
   48.2850   31.1190   40.3040 F   0  0  0  0  0  0  0  0  0  0  0  0
   49.3020   32.8740   41.0570 F   0  0  0  0  0  0  0  0  0  0  0  0
   46.8070   34.9250   42.0350 C   0  0  0  0  0  0  0  0  0  0  0  0
   47.9250   35.4400   41.8570 O   0  0  0  0  0  0  0  0  0  0  0  0
   44.4950   35.8980   44.7580 C   0  0  0  0  0  0  0  0  0  0  0  0
   45.1680   35.9490   43.4810 C   0  0  0  0  0  0  0  0  0  0  0  0
   46.0710   34.9750   43.2620 C   0  0  0  0  0  0  0  0  0  0  0  0
   46.2760   34.0360   44.2400 N   0  0  0  0  0  0  0  0  0  0  0  0
   45.6420   34.0030   45.4200 C   0  0  0  0  0  0  0  0  0  0  0  0
   44.7210   34.9600   45.6970 N   0  0  0  0  0  0  0  0  0  0  0  0
   45.8999   35.1888   40.4727 H   0  0  0  0  0  0  0  0  0  0  0  0
   45.6382   32.3374   41.9544 H   0  0  0  0  0  0  0  0  0  0  0  0
   44.7332   32.3641   40.6906 H   0  0  0  0  0  0  0  0  0  0  0  0
   47.7805   35.3621   39.0623 H   0  0  0  0  0  0  0  0  0  0  0  0
   49.1555   34.2201   39.2589 H   0  0  0  0  0  0  0  0  0  0  0  0
   47.6514   35.0202   36.7643 H   0  0  0  0  0  0  0  0  0  0  0  0
   49.4539   34.9669   37.1201 H   0  0  0  0  0  0  0  0  0  0  0  0
   49.6146   32.7649   36.7444 H   0  0  0  0  0  0  0  0  0  0  0  0
   48.3869   33.3203   35.4994 H   0  0  0  0  0  0  0  0  0  0  0  0
   47.1019   31.6409   36.1867 H   0  0  0  0  0  0  0  0  0  0  0  0
   48.0970   31.3007   37.6019 H   0  0  0  0  0  0  0  0  0  0  0  0
   46.1848   33.7284   37.3288 H   0  0  0  0  0  0  0  0  0  0  0  0
   45.7741   32.2471   38.2193 H   0  0  0  0  0  0  0  0  0  0  0  0
   43.7492   36.6762   44.9776 H   0  0  0  0  0  0  0  0  0  0  0  0
   44.9568   36.7314   42.7372 H   0  0  0  0  0  0  0  0  0  0  0  0
   45.8646   33.2129   46.1522 H   0  0  0  0  0  0  0  0  0  0  0  0
  1  2  1  0
  1 14  1  0
  3  1  1  0
  3  2  1  0
  3 10  1  1
  4  3  1  0
  5  4  1  0
  6  5  1  0
  7  8  1  0
  7  6  1  0
  8  9  1  0
  9  4  1  0
 10 13  1  0
 10 11  1  0
 12 10  1  0
 14 18  1  0
 15 14  2  0
 16 21  2  0
 17 16  1  0
 18 17  2  0
 18 19  1  0
 19 20  2  0
 20 21  1  0
  1 22  1  6
  2 23  1  0
  2 24  1  0
  5 25  1  0
  5 26  1  0
  6 27  1  0
  6 28  1  0
  7 29  1  0
  7 30  1  0
  8 31  1  0
  8 32  1  0
  9 33  1  0
  9 34  1  0
 16 35  1  0
 17 36  1  0
 20 37  1  0
M  ISO  8  22  13  23  13  24  13  25  13  26  13  27  13  28  13  29  13
M  ISO  8  30  13  31  13  32  13  33  13  34  13  35  14  36  14  37  14
M  END
>  <minimizedAffinity>  (1) 
-5.02864218

>  <minimizedRMSD>  (1) 
2.09593606

$$$$
