
     RDKit          3D

 34 36  0  0  1  0  0  0  0  0999 V2000
   46.1460   33.4250   41.1710 C   0  0  2  0  0  0  0  0  0  0  0  0
   46.9630   32.1710   41.1190 C   0  0  0  0  0  0  0  0  0  0  0  0
   46.9760   33.1220   39.9960 C   0  0  1  0  0  0  0  0  0  0  0  0
   46.1160   33.2810   38.8940 N   0  0  0  0  0  0  0  0  0  0  0  0
   46.6220   33.1020   37.6030 C   0  0  0  0  0  0  0  0  0  0  0  0
   45.6710   32.8550   36.5130 C   0  0  0  0  0  0  0  0  0  0  0  0
   44.3320   32.4880   36.8500 N   0  0  0  0  0  0  0  0  0  0  0  0
   44.1300   32.2000   38.2400 C   0  0  0  0  0  0  0  0  0  0  0  0
   44.7310   33.3660   39.0020 C   0  0  0  0  0  0  0  0  0  0  0  0
   48.3520   33.6390   39.7610 C   0  0  0  0  0  0  0  0  0  0  0  0
   49.2460   33.5040   40.8250 F   0  0  0  0  0  0  0  0  0  0  0  0
   48.9680   32.8310   38.7970 F   0  0  0  0  0  0  0  0  0  0  0  0
   48.4440   34.8910   39.1800 F   0  0  0  0  0  0  0  0  0  0  0  0
   46.5100   34.5620   42.0330 C   0  0  0  0  0  0  0  0  0  0  0  0
   47.3820   35.3250   41.5660 O   0  0  0  0  0  0  0  0  0  0  0  0
   44.5020   35.8420   44.8620 C   0  0  0  0  0  0  0  0  0  0  0  0
   45.0650   35.7760   43.5390 C   0  0  0  0  0  0  0  0  0  0  0  0
   45.8830   34.7300   43.3120 C   0  0  0  0  0  0  0  0  0  0  0  0
   46.1140   33.8330   44.3200 N   0  0  0  0  0  0  0  0  0  0  0  0
   45.5770   33.9150   45.5500 C   0  0  0  0  0  0  0  0  0  0  0  0
   44.7460   34.9470   45.8350 N   0  0  0  0  0  0  0  0  0  0  0  0
   45.0843   33.6372   41.3654 H   0  0  0  0  0  0  0  0  0  0  0  0
   47.8497   32.0631   41.7610 H   0  0  0  0  0  0  0  0  0  0  0  0
   46.7542   31.0969   41.2312 H   0  0  0  0  0  0  0  0  0  0  0  0
   47.7040   33.1452   37.4095 H   0  0  0  0  0  0  0  0  0  0  0  0
   45.9815   32.9501   35.4620 H   0  0  0  0  0  0  0  0  0  0  0  0
   43.5754   32.4348   36.1531 H   0  0  0  0  0  0  0  0  0  0  0  0
   43.0557   32.1132   38.4598 H   0  0  0  0  0  0  0  0  0  0  0  0
   44.6002   31.2475   38.5259 H   0  0  0  0  0  0  0  0  0  0  0  0
   44.4349   33.3131   40.0601 H   0  0  0  0  0  0  0  0  0  0  0  0
   44.3727   34.3196   38.5870 H   0  0  0  0  0  0  0  0  0  0  0  0
   43.8276   36.6800   45.0921 H   0  0  0  0  0  0  0  0  0  0  0  0
   44.8428   36.5274   42.7670 H   0  0  0  0  0  0  0  0  0  0  0  0
   45.8084   33.1568   46.3126 H   0  0  0  0  0  0  0  0  0  0  0  0
  1 14  1  0
  2  1  1  0
  3 10  1  6
  3  2  1  0
  3  1  1  0
  4  9  1  0
  4  3  1  0
  5  4  1  0
  6  7  1  0
  6  5  2  0
  7  8  1  0
  8  9  1  0
 10 11  1  0
 12 10  1  0
 13 10  1  0
 14 18  1  0
 15 14  2  0
 16 21  2  0
 17 16  1  0
 18 17  2  0
 18 19  1  0
 19 20  2  0
 20 21  1  0
  1 22  1  6
  2 23  1  0
  2 24  1  0
  5 25  1  0
  6 26  1  0
  7 27  1  0
  8 28  1  0
  8 29  1  0
  9 30  1  0
  9 31  1  0
 16 32  1  0
 17 33  1  0
 20 34  1  0
M  ISO  8  22  13  23  13  24  13  25  13  26  13  28  13  29  13  30  13
M  ISO  4  31  13  32  14  33  14  34  14
M  END
>  <minimizedAffinity>  (1) 
-4.90732718

>  <minimizedRMSD>  (1) 
1.19974339

$$$$
