
     RDKit          3D

 34 36  0  0  1  0  0  0  0  0999 V2000
   46.1170   34.2460   40.8540 C   0  0  2  0  0  0  0  0  0  0  0  0
   45.6570   32.8120   40.9070 C   0  0  0  0  0  0  0  0  0  0  0  0
   46.8630   33.1800   40.1730 C   0  0  1  0  0  0  0  0  0  0  0  0
   47.1320   33.6030   38.8450 N   0  0  0  0  0  0  0  0  0  0  0  0
   46.7310   32.7660   37.7820 C   0  0  0  0  0  0  0  0  0  0  0  0
   47.6680   33.0130   36.6180 C   0  0  0  0  0  0  0  0  0  0  0  0
   48.7620   33.8690   37.1970 C   0  0  0  0  0  0  0  0  0  0  0  0
   48.2540   34.3670   38.5530 C   0  0  0  0  0  0  0  0  0  0  0  0
   48.0630   32.4630   40.7040 C   0  0  0  0  0  0  0  0  0  0  0  0
   47.9330   31.9370   41.9850 F   0  0  0  0  0  0  0  0  0  0  0  0
   48.2530   31.3220   39.9150 F   0  0  0  0  0  0  0  0  0  0  0  0
   49.2710   33.1230   40.5420 F   0  0  0  0  0  0  0  0  0  0  0  0
   46.7210   34.8980   42.0290 C   0  0  0  0  0  0  0  0  0  0  0  0
   47.8400   35.4180   41.8260 O   0  0  0  0  0  0  0  0  0  0  0  0
   44.5190   35.7680   44.8650 C   0  0  0  0  0  0  0  0  0  0  0  0
   45.1270   35.8570   43.5680 C   0  0  0  0  0  0  0  0  0  0  0  0
   46.0390   34.9050   43.2880 C   0  0  0  0  0  0  0  0  0  0  0  0
   46.3120   33.9490   44.2340 N   0  0  0  0  0  0  0  0  0  0  0  0
   45.7300   33.8860   45.4430 C   0  0  0  0  0  0  0  0  0  0  0  0
   44.8060   34.8160   45.7800 N   0  0  0  0  0  0  0  0  0  0  0  0
   45.6447   35.1979   40.5696 H   0  0  0  0  0  0  0  0  0  0  0  0
   45.7340   32.2421   41.8447 H   0  0  0  0  0  0  0  0  0  0  0  0
   44.7253   32.2804   40.6634 H   0  0  0  0  0  0  0  0  0  0  0  0
   46.7902   31.7125   38.0927 H   0  0  0  0  0  0  0  0  0  0  0  0
   45.6927   32.9847   37.4920 H   0  0  0  0  0  0  0  0  0  0  0  0
   47.1487   33.5415   35.8050 H   0  0  0  0  0  0  0  0  0  0  0  0
   48.0515   32.0790   36.1815 H   0  0  0  0  0  0  0  0  0  0  0  0
   49.6787   33.2756   37.3294 H   0  0  0  0  0  0  0  0  0  0  0  0
   49.0039   34.7097   36.5301 H   0  0  0  0  0  0  0  0  0  0  0  0
   49.0244   34.2255   39.3253 H   0  0  0  0  0  0  0  0  0  0  0  0
   48.0145   35.4402   38.5243 H   0  0  0  0  0  0  0  0  0  0  0  0
   43.7684   36.5263   45.1324 H   0  0  0  0  0  0  0  0  0  0  0  0
   44.8662   36.6490   42.8506 H   0  0  0  0  0  0  0  0  0  0  0  0
   46.0010   33.0885   46.1505 H   0  0  0  0  0  0  0  0  0  0  0  0
  1  2  1  0
  1 13  1  0
  3  9  1  1
  3  1  1  0
  3  2  1  0
  4  5  1  0
  4  3  1  0
  6  7  1  0
  6  5  1  0
  7  8  1  0
  8  4  1  0
  9 10  1  0
 11  9  1  0
 12  9  1  0
 13 17  1  0
 14 13  2  0
 15 20  2  0
 16 15  1  0
 17 16  2  0
 17 18  1  0
 18 19  2  0
 19 20  1  0
  1 21  1  6
  2 22  1  0
  2 23  1  0
  5 24  1  0
  5 25  1  0
  6 26  1  0
  6 27  1  0
  7 28  1  0
  7 29  1  0
  8 30  1  0
  8 31  1  0
 15 32  1  0
 16 33  1  0
 19 34  1  0
M  ISO  8  21  13  22  13  23  13  24  13  25  13  26  13  27  13  28  13
M  ISO  6  29  13  30  13  31  13  32  14  33  14  34  14
M  END
>  <minimizedAffinity>  (1) 
-4.75962877

>  <minimizedRMSD>  (1) 
1.70702744

$$$$
