
     RDKit          3D

 35 37  0  0  1  0  0  0  0  0999 V2000
   45.7820   33.1810   41.8670 C   0  0  2  0  0  0  0  0  0  0  0  0
   45.8450   34.2400   40.7980 C   0  0  0  0  0  0  0  0  0  0  0  0
   44.7730   34.2460   41.7940 C   0  0  1  0  0  0  0  0  0  0  0  0
   43.4800   33.6220   41.8390 N   0  0  0  0  0  0  0  0  0  0  0  0
   43.5620   32.1990   42.0770 C   0  0  0  0  0  0  0  0  0  0  0  0
   42.3060   31.4770   41.6470 C   0  0  0  0  0  0  0  0  0  0  0  0
   41.1790   32.2770   41.8180 O   0  0  0  0  0  0  0  0  0  0  0  0
   41.2340   33.4490   41.0880 C   0  0  0  0  0  0  0  0  0  0  0  0
   42.6400   33.8530   40.6920 C   0  0  0  0  0  0  0  0  0  0  0  0
   44.7720   35.5120   42.5800 C   0  0  0  0  0  0  0  0  0  0  0  0
   46.0080   36.1320   42.7350 F   0  0  0  0  0  0  0  0  0  0  0  0
   44.0290   36.4560   41.8620 F   0  0  0  0  0  0  0  0  0  0  0  0
   44.0760   35.4720   43.7810 F   0  0  0  0  0  0  0  0  0  0  0  0
   46.7300   33.1680   42.9940 C   0  0  0  0  0  0  0  0  0  0  0  0
   46.2010   33.0670   44.1210 O   0  0  0  0  0  0  0  0  0  0  0  0
   50.2860   32.4040   42.3100 C   0  0  0  0  0  0  0  0  0  0  0  0
   48.8730   32.1670   42.5140 C   0  0  0  0  0  0  0  0  0  0  0  0
   48.1390   33.2720   42.7620 C   0  0  0  0  0  0  0  0  0  0  0  0
   48.7620   34.4930   42.8030 N   0  0  0  0  0  0  0  0  0  0  0  0
   50.0750   34.6850   42.6100 C   0  0  0  0  0  0  0  0  0  0  0  0
   50.8670   33.6160   42.3570 N   0  0  0  0  0  0  0  0  0  0  0  0
   45.7831   32.0810   41.8626 H   0  0  0  0  0  0  0  0  0  0  0  0
   45.6248   33.9819   39.7516 H   0  0  0  0  0  0  0  0  0  0  0  0
   46.6003   34.9636   40.4576 H   0  0  0  0  0  0  0  0  0  0  0  0
   44.4148   31.7937   41.5128 H   0  0  0  0  0  0  0  0  0  0  0  0
   43.6885   32.0434   43.1586 H   0  0  0  0  0  0  0  0  0  0  0  0
   42.1927   30.5645   42.2507 H   0  0  0  0  0  0  0  0  0  0  0  0
   42.3966   31.2284   40.5793 H   0  0  0  0  0  0  0  0  0  0  0  0
   40.6396   33.3161   40.1720 H   0  0  0  0  0  0  0  0  0  0  0  0
   40.8385   34.2484   41.7319 H   0  0  0  0  0  0  0  0  0  0  0  0
   42.9835   33.2442   39.8427 H   0  0  0  0  0  0  0  0  0  0  0  0
   42.6747   34.9086   40.3846 H   0  0  0  0  0  0  0  0  0  0  0  0
   50.9276   31.5349   42.1027 H   0  0  0  0  0  0  0  0  0  0  0  0
   48.4302   31.1610   42.4702 H   0  0  0  0  0  0  0  0  0  0  0  0
   50.5031   35.6972   42.6566 H   0  0  0  0  0  0  0  0  0  0  0  0
  1 14  1  0
  2  3  1  0
  2  1  1  0
  3  4  1  0
  3  1  1  0
  3 10  1  1
  4  5  1  0
  6  7  1  0
  6  5  1  0
  8  7  1  0
  9  8  1  0
  9  4  1  0
 10 11  1  0
 10 13  1  0
 12 10  1  0
 14 15  2  0
 16 21  2  0
 16 17  1  0
 17 18  2  0
 18 19  1  0
 18 14  1  0
 20 19  2  0
 21 20  1  0
  1 22  1  6
  2 23  1  0
  2 24  1  0
  5 25  1  0
  5 26  1  0
  6 27  1  0
  6 28  1  0
  8 29  1  0
  8 30  1  0
  9 31  1  0
  9 32  1  0
 16 33  1  0
 17 34  1  0
 20 35  1  0
M  ISO  8  22  13  23  13  24  13  25  13  26  13  27  13  28  13  29  13
M  ISO  6  30  13  31  13  32  13  33  14  34  14  35  14
M  END
>  <minimizedAffinity>  (1) 
-4.75877523

>  <minimizedRMSD>  (1) 
4.9205718

$$$$
