
     RDKit          3D

 25 26  0  0  1  0  0  0  0  0999 V2000
   46.6300   33.8970   41.9970 C   0  0  2  0  0  0  0  0  0  0  0  0
   47.6210   32.8420   42.4090 C   0  0  0  0  0  0  0  0  0  0  0  0
   48.0310   33.9630   41.5620 C   0  0  0  0  0  0  0  0  0  0  0  0
   49.1160   34.7580   42.2010 C   0  0  0  0  0  0  0  0  0  0  0  0
   49.2190   34.6470   43.5850 F   0  0  0  0  0  0  0  0  0  0  0  0
   50.3380   34.2540   41.7440 F   0  0  0  0  0  0  0  0  0  0  0  0
   49.1970   36.0890   41.8040 F   0  0  0  0  0  0  0  0  0  0  0  0
   48.0380   34.1460   40.0620 C   0  0  0  0  0  0  0  0  0  0  0  0
   48.8760   33.2490   39.4360 F   0  0  0  0  0  0  0  0  0  0  0  0
   48.5120   35.4210   39.8090 F   0  0  0  0  0  0  0  0  0  0  0  0
   46.7540   34.1020   39.5430 F   0  0  0  0  0  0  0  0  0  0  0  0
   46.1280   34.9010   42.9490 C   0  0  0  0  0  0  0  0  0  0  0  0
   46.0520   36.0590   42.4930 O   0  0  0  0  0  0  0  0  0  0  0  0
   44.5630   34.7520   46.2910 C   0  0  0  0  0  0  0  0  0  0  0  0
   44.8260   35.2080   44.9590 C   0  0  0  0  0  0  0  0  0  0  0  0
   45.7740   34.5280   44.2850 C   0  0  0  0  0  0  0  0  0  0  0  0
   46.4010   33.4760   44.9030 N   0  0  0  0  0  0  0  0  0  0  0  0
   46.1380   33.0650   46.1560 C   0  0  0  0  0  0  0  0  0  0  0  0
   45.1940   33.7120   46.8800 N   0  0  0  0  0  0  0  0  0  0  0  0
   45.6428   33.8768   41.5122 H   0  0  0  0  0  0  0  0  0  0  0  0
   47.9640   32.7843   43.4526 H   0  0  0  0  0  0  0  0  0  0  0  0
   47.6726   31.7457   42.3344 H   0  0  0  0  0  0  0  0  0  0  0  0
   43.7962   35.2837   46.8735 H   0  0  0  0  0  0  0  0  0  0  0  0
   44.2885   36.0588   44.5148 H   0  0  0  0  0  0  0  0  0  0  0  0
   46.6834   32.2130   46.5880 H   0  0  0  0  0  0  0  0  0  0  0  0
  1  2  1  0
  1 12  1  0
  3  1  1  0
  3  4  1  0
  3  2  1  0
  4  5  1  0
  6  4  1  0
  7  4  1  0
  8  3  1  0
  9  8  1  0
 10  8  1  0
 11  8  1  0
 12 16  1  0
 13 12  2  0
 14 19  2  0
 15 14  1  0
 16 17  1  0
 16 15  2  0
 17 18  2  0
 18 19  1  0
  1 20  1  6
  2 21  1  0
  2 22  1  0
 14 23  1  0
 15 24  1  0
 18 25  1  0
M  ISO  6  20  13  21  13  22  13  23  14  24  14  25  14
M  END
>  <minimizedAffinity>  (1) 
-4.75829554

>  <minimizedRMSD>  (1) 
2.07743263

$$$$
