
     RDKit          3D

 25 26  0  0  1  0  0  0  0  0999 V2000
   46.7480   33.8200   41.9210 C   0  0  2  0  0  0  0  0  0  0  0  0
   47.8200   32.8060   42.1810 C   0  0  0  0  0  0  0  0  0  0  0  0
   48.1180   34.0080   41.3980 C   0  0  2  0  0  0  0  0  0  0  0  0
   49.1740   34.8430   42.0350 C   0  0  0  0  0  0  0  0  0  0  0  0
   49.1820   34.8250   43.4380 F   0  0  0  0  0  0  0  0  0  0  0  0
   50.4050   34.2510   41.7230 F   0  0  0  0  0  0  0  0  0  0  0  0
   49.3370   36.1170   41.5360 F   0  0  0  0  0  0  0  0  0  0  0  0
   46.2450   34.7120   42.9720 C   0  0  0  0  0  0  0  0  0  0  0  0
   46.0650   35.8960   42.6070 O   0  0  0  0  0  0  0  0  0  0  0  0
   44.8750   34.2330   46.3770 C   0  0  0  0  0  0  0  0  0  0  0  0
   45.0360   34.7950   45.0560 C   0  0  0  0  0  0  0  0  0  0  0  0
   45.9950   34.2320   44.2940 C   0  0  0  0  0  0  0  0  0  0  0  0
   46.7290   33.1900   44.8050 N   0  0  0  0  0  0  0  0  0  0  0  0
   46.5660   32.6790   46.0350 C   0  0  0  0  0  0  0  0  0  0  0  0
   45.6190   33.2040   46.8510 N   0  0  0  0  0  0  0  0  0  0  0  0
   47.9880   34.3090   39.9580 C   0  0  0  0  0  0  0  0  0  0  0  0
   46.8460   33.8600   39.5900 O   0  0  0  0  0  0  0  0  0  0  0  0
   48.6360   34.8720   38.9090 O   0  0  0  0  0  0  0  0  0  0  0  0
   45.7320   33.7744   41.5019 H   0  0  0  0  0  0  0  0  0  0  0  0
   48.2354   32.6913   43.1931 H   0  0  0  0  0  0  0  0  0  0  0  0
   47.9245   31.7235   42.0161 H   0  0  0  0  0  0  0  0  0  0  0  0
   44.1059   34.6641   47.0347 H   0  0  0  0  0  0  0  0  0  0  0  0
   44.4159   35.6288   44.6951 H   0  0  0  0  0  0  0  0  0  0  0  0
   47.1939   31.8433   46.3775 H   0  0  0  0  0  0  0  0  0  0  0  0
   48.2065   34.8968   38.0174 H   0  0  0  0  0  0  0  0  0  0  0  0
  1  2  1  0
  1  8  1  0
  3 16  1  0
  3  1  1  0
  3  4  1  1
  3  2  1  0
  4  5  1  0
  6  4  1  0
  7  4  1  0
  8 12  1  0
  9  8  2  0
 10 15  2  0
 11 10  1  0
 12 13  1  0
 12 11  2  0
 13 14  2  0
 14 15  1  0
 17 16  2  0
 18 16  1  0
  1 19  1  6
  2 20  1  0
  2 21  1  0
 10 22  1  0
 11 23  1  0
 14 24  1  0
 18 25  1  0
M  ISO  7  19  13  20  13  21  13  22  14  23  14  24  14  25   3
M  END
>  <minimizedAffinity>  (1) 
-4.75017118

>  <minimizedRMSD>  (1) 
2.04825521

$$$$
