
     RDKit          3D

 34 35  0  0  1  0  0  0  0  0999 V2000
   46.3970   33.9840   40.9500 C   0  0  2  0  0  0  0  0  0  0  0  0
   46.0480   32.5350   41.1650 C   0  0  0  0  0  0  0  0  0  0  0  0
   47.2800   32.9010   40.4710 C   0  0  2  0  0  0  0  0  0  0  0  0
   48.4770   32.3880   41.1850 C   0  0  0  0  0  0  0  0  0  0  0  0
   48.3230   32.1580   42.5530 F   0  0  0  0  0  0  0  0  0  0  0  0
   48.7600   31.1090   40.6930 F   0  0  0  0  0  0  0  0  0  0  0  0
   49.6730   33.0560   40.9410 F   0  0  0  0  0  0  0  0  0  0  0  0
   47.5350   33.1570   39.0100 C   0  0  0  0  0  0  0  0  0  0  0  0
   48.4080   32.0470   38.4030 C   0  0  0  0  0  0  0  0  0  0  0  0
   46.2750   33.1430   38.1890 C   0  0  0  0  0  0  0  0  0  0  0  0
   48.3200   34.4320   38.7420 C   0  0  0  0  0  0  0  0  0  0  0  0
   46.8340   34.8500   42.0460 C   0  0  0  0  0  0  0  0  0  0  0  0
   47.8880   35.4680   41.8190 O   0  0  0  0  0  0  0  0  0  0  0  0
   44.4830   35.9160   44.7010 C   0  0  0  0  0  0  0  0  0  0  0  0
   45.1760   35.9230   43.4300 C   0  0  0  0  0  0  0  0  0  0  0  0
   46.0800   34.9370   43.2600 C   0  0  0  0  0  0  0  0  0  0  0  0
   46.2720   34.0310   44.2700 N   0  0  0  0  0  0  0  0  0  0  0  0
   45.6200   34.0420   45.4420 C   0  0  0  0  0  0  0  0  0  0  0  0
   44.6980   35.0070   45.6740 N   0  0  0  0  0  0  0  0  0  0  0  0
   45.8777   34.8464   40.5067 H   0  0  0  0  0  0  0  0  0  0  0  0
   46.0927   32.1017   42.1751 H   0  0  0  0  0  0  0  0  0  0  0  0
   45.1813   31.8990   40.9317 H   0  0  0  0  0  0  0  0  0  0  0  0
   48.8694   31.4603   39.2110 H   0  0  0  0  0  0  0  0  0  0  0  0
   47.7837   31.3879   37.7818 H   0  0  0  0  0  0  0  0  0  0  0  0
   49.1956   32.4984   37.7818 H   0  0  0  0  0  0  0  0  0  0  0  0
   45.4017   33.1333   38.8578 H   0  0  0  0  0  0  0  0  0  0  0  0
   46.2409   34.0408   37.5544 H   0  0  0  0  0  0  0  0  0  0  0  0
   46.2608   32.2446   37.5544 H   0  0  0  0  0  0  0  0  0  0  0  0
   48.6050   34.8949   39.6983 H   0  0  0  0  0  0  0  0  0  0  0  0
   49.2261   34.1907   38.1670 H   0  0  0  0  0  0  0  0  0  0  0  0
   47.6965   35.1324   38.1670 H   0  0  0  0  0  0  0  0  0  0  0  0
   43.7345   36.7009   44.8847 H   0  0  0  0  0  0  0  0  0  0  0  0
   44.9788   36.6800   42.6567 H   0  0  0  0  0  0  0  0  0  0  0  0
   45.8311   33.2778   46.2045 H   0  0  0  0  0  0  0  0  0  0  0  0
  1  2  1  0
  1 12  1  0
  3  8  1  6
  3  1  1  0
  3  2  1  0
  3  4  1  0
  4  5  1  0
  6  4  1  0
  7  4  1  0
  9  8  1  0
 10  8  1  0
 11  8  1  0
 12 16  1  0
 13 12  2  0
 14 19  2  0
 15 14  1  0
 16 15  2  0
 16 17  1  0
 17 18  2  0
 18 19  1  0
  1 20  1  6
  2 21  1  0
  2 22  1  0
  9 23  1  0
  9 24  1  0
  9 25  1  0
 10 26  1  0
 10 27  1  0
 10 28  1  0
 11 29  1  0
 11 30  1  0
 11 31  1  0
 14 32  1  0
 15 33  1  0
 18 34  1  0
M  ISO  8  20  13  21  13  22  13  23   8  24   8  25   8  26   8  27   8
M  ISO  7  28   8  29   8  30   8  31   8  32  14  33  14  34  14
M  END
>  <minimizedAffinity>  (1) 
-4.50014162

>  <minimizedRMSD>  (1) 
1.83929932

$$$$
