
     RDKit          3D

 29 31  0  0  1  0  0  0  0  0999 V2000
   47.4900   33.1470   41.0780 C   0  0  2  0  0  0  0  0  0  0  0  0
   46.6870   34.3850   40.7870 C   0  0  0  0  0  0  0  0  0  0  0  0
   47.7500   34.4110   41.7940 C   0  0  2  0  0  0  0  0  0  0  0  0
   48.7960   35.4040   41.4260 C   0  0  0  0  0  0  0  0  0  0  0  0
   48.8390   35.7980   40.0960 F   0  0  0  0  0  0  0  0  0  0  0  0
   48.5020   36.5950   42.1010 F   0  0  0  0  0  0  0  0  0  0  0  0
   50.0730   35.1340   41.9120 F   0  0  0  0  0  0  0  0  0  0  0  0
   47.7450   34.1280   43.2780 C   0  0  0  0  0  0  0  0  0  0  0  0
   46.4510   33.8880   43.9850 C   0  0  0  0  0  0  0  0  0  0  0  0
   47.5070   32.7990   43.8560 C   0  0  0  0  0  0  0  0  0  0  0  0
   48.4940   32.6300   40.1370 C   0  0  0  0  0  0  0  0  0  0  0  0
   49.5600   32.2740   40.6620 O   0  0  0  0  0  0  0  0  0  0  0  0
   47.1850   31.6440   36.8210 C   0  0  0  0  0  0  0  0  0  0  0  0
   47.3920   31.6190   38.2390 C   0  0  0  0  0  0  0  0  0  0  0  0
   48.2110   32.5700   38.7330 C   0  0  0  0  0  0  0  0  0  0  0  0
   48.7760   33.4730   37.8680 N   0  0  0  0  0  0  0  0  0  0  0  0
   48.5710   33.4800   36.5390 C   0  0  0  0  0  0  0  0  0  0  0  0
   47.7560   32.5470   35.9890 N   0  0  0  0  0  0  0  0  0  0  0  0
   47.2364   32.1117   41.3497 H   0  0  0  0  0  0  0  0  0  0  0  0
   46.8189   34.9157   39.8326 H   0  0  0  0  0  0  0  0  0  0  0  0
   45.6160   34.6356   40.7766 H   0  0  0  0  0  0  0  0  0  0  0  0
   48.5772   34.8411   43.3718 H   0  0  0  0  0  0  0  0  0  0  0  0
   46.2558   34.3588   44.9598 H   0  0  0  0  0  0  0  0  0  0  0  0
   45.3850   33.9857   43.7319 H   0  0  0  0  0  0  0  0  0  0  0  0
   47.3300   31.9361   43.1972 H   0  0  0  0  0  0  0  0  0  0  0  0
   48.0454   32.1493   44.5617 H   0  0  0  0  0  0  0  0  0  0  0  0
   46.5222   30.8837   36.3820 H   0  0  0  0  0  0  0  0  0  0  0  0
   46.9119   30.8695   38.8854 H   0  0  0  0  0  0  0  0  0  0  0  0
   49.0594   34.2347   35.9051 H   0  0  0  0  0  0  0  0  0  0  0  0
  1  3  1  0
  2  1  1  0
  2  3  1  0
  3  4  1  6
  3  8  1  0
  4  7  1  0
  4  6  1  0
  5  4  1  0
  8 10  1  0
  8  9  1  0
 10  9  1  0
 11 12  2  0
 11  1  1  0
 13 14  2  0
 14 15  1  0
 15 11  1  0
 16 15  2  0
 17 16  1  0
 18 17  2  0
 18 13  1  0
  1 19  1  1
  2 20  1  0
  2 21  1  0
  8 22  1  0
  9 23  1  0
  9 24  1  0
 10 25  1  0
 10 26  1  0
 13 27  1  0
 14 28  1  0
 17 29  1  0
M  ISO  8  19  13  20  13  21  13  22  13  23  13  24  13  25  13  26  13
M  ISO  3  27  14  28  14  29  14
M  END
>  <minimizedAffinity>  (1) 
-4.42575932

>  <minimizedRMSD>  (1) 
5.90348482

$$$$
