
     RDKit          3D

 29 31  0  0  1  0  0  0  0  0999 V2000
   44.1960   33.2840   42.5990 C   0  0  2  0  0  0  0  0  0  0  0  0
   44.6160   32.3560   41.4900 C   0  0  0  0  0  0  0  0  0  0  0  0
   43.5570   33.3420   41.2760 C   0  0  1  0  0  0  0  0  0  0  0  0
   42.0920   33.2840   41.4920 C   0  0  0  0  0  0  0  0  0  0  0  0
   41.4790   32.0510   41.4300 C   0  0  0  0  0  0  0  0  0  0  0  0
   40.1440   32.2250   41.6560 N   0  0  0  0  0  0  0  0  0  0  0  0
   39.9690   33.5430   41.8470 C   0  0  0  0  0  0  0  0  0  0  0  0
   41.1250   34.2130   41.7540 N   0  0  0  0  0  0  0  0  0  0  0  0
   43.9020   34.2790   40.1720 C   0  0  0  0  0  0  0  0  0  0  0  0
   45.1450   34.0830   39.5750 F   0  0  0  0  0  0  0  0  0  0  0  0
   43.0030   34.0480   39.1250 F   0  0  0  0  0  0  0  0  0  0  0  0
   43.6840   35.6260   40.4330 F   0  0  0  0  0  0  0  0  0  0  0  0
   45.0450   34.4060   43.0320 C   0  0  0  0  0  0  0  0  0  0  0  0
   44.4320   35.3420   43.5770 O   0  0  0  0  0  0  0  0  0  0  0  0
   48.6460   33.5890   43.1980 C   0  0  0  0  0  0  0  0  0  0  0  0
   47.2410   33.5160   43.4970 C   0  0  0  0  0  0  0  0  0  0  0  0
   46.4590   34.3780   42.8150 C   0  0  0  0  0  0  0  0  0  0  0  0
   47.0410   35.2320   41.9130 N   0  0  0  0  0  0  0  0  0  0  0  0
   48.3580   35.2830   41.6490 C   0  0  0  0  0  0  0  0  0  0  0  0
   49.1920   34.4420   42.3050 N   0  0  0  0  0  0  0  0  0  0  0  0
   43.8696   33.1403   43.6396 H   0  0  0  0  0  0  0  0  0  0  0  0
   45.5949   32.4836   41.0048 H   0  0  0  0  0  0  0  0  0  0  0  0
   44.7036   31.2656   41.3744 H   0  0  0  0  0  0  0  0  0  0  0  0
   41.9795   31.0916   41.2324 H   0  0  0  0  0  0  0  0  0  0  0  0
   38.9967   34.0138   42.0541 H   0  0  0  0  0  0  0  0  0  0  0  0
   41.2587   35.2288   41.8593 H   0  0  0  0  0  0  0  0  0  0  0  0
   49.3208   32.9042   43.7325 H   0  0  0  0  0  0  0  0  0  0  0  0
   46.8323   32.8062   44.2312 H   0  0  0  0  0  0  0  0  0  0  0  0
   48.7522   35.9972   40.9111 H   0  0  0  0  0  0  0  0  0  0  0  0
  1 13  1  0
  2  1  1  0
  3  9  1  6
  3  2  1  0
  3  4  1  0
  3  1  1  0
  4  8  1  0
  5  4  2  0
  5  6  1  0
  6  7  2  0
  8  7  1  0
  9 12  1  0
 10  9  1  0
 11  9  1  0
 13 14  2  0
 15 16  2  0
 17 13  1  0
 17 16  1  0
 18 17  2  0
 19 18  1  0
 19 20  2  0
 20 15  1  0
  1 21  1  1
  2 22  1  0
  2 23  1  0
  5 24  1  0
  7 25  1  0
  8 26  1  0
 15 27  1  0
 16 28  1  0
 19 29  1  0
M  ISO  8  21  13  22  13  23  13  24  14  25  14  26   9  27  14  28  14
M  ISO  1  29  14
M  END
>  <minimizedAffinity>  (1) 
-4.2326889

>  <minimizedRMSD>  (1) 
4.76042461

$$$$
