
     RDKit          3D

 25 26  0  0  1  0  0  0  0  0999 V2000
   46.5950   34.3010   40.7740 C   0  0  2  0  0  0  0  0  0  0  0  0
   46.0930   32.8810   40.8130 C   0  0  0  0  0  0  0  0  0  0  0  0
   47.4030   33.1900   40.2430 C   0  0  2  0  0  0  0  0  0  0  0  0
   48.4940   32.4770   40.9610 C   0  0  0  0  0  0  0  0  0  0  0  0
   48.1730   31.9840   42.2230 F   0  0  0  0  0  0  0  0  0  0  0  0
   48.8000   31.3230   40.2340 F   0  0  0  0  0  0  0  0  0  0  0  0
   49.7230   33.1310   40.9830 F   0  0  0  0  0  0  0  0  0  0  0  0
   47.0410   34.9980   41.9880 C   0  0  0  0  0  0  0  0  0  0  0  0
   48.1370   35.5730   41.8810 O   0  0  0  0  0  0  0  0  0  0  0  0
   44.5400   35.7890   44.5920 C   0  0  0  0  0  0  0  0  0  0  0  0
   45.2700   35.8940   43.3640 C   0  0  0  0  0  0  0  0  0  0  0  0
   46.2430   34.9790   43.1760 C   0  0  0  0  0  0  0  0  0  0  0  0
   46.4610   34.0370   44.1510 N   0  0  0  0  0  0  0  0  0  0  0  0
   45.7650   33.9560   45.2970 C   0  0  0  0  0  0  0  0  0  0  0  0
   44.7760   34.8500   45.5370 N   0  0  0  0  0  0  0  0  0  0  0  0
   47.8090   33.5520   38.8370 C   0  0  0  0  0  0  0  0  0  0  0  0
   46.1919   35.2505   40.3921 H   0  0  0  0  0  0  0  0  0  0  0  0
   46.0209   32.3477   41.7724 H   0  0  0  0  0  0  0  0  0  0  0  0
   45.1901   32.3619   40.4590 H   0  0  0  0  0  0  0  0  0  0  0  0
   43.7372   36.5175   44.7784 H   0  0  0  0  0  0  0  0  0  0  0  0
   45.0504   36.6735   42.6196 H   0  0  0  0  0  0  0  0  0  0  0  0
   45.9958   33.1718   46.0330 H   0  0  0  0  0  0  0  0  0  0  0  0
   48.6297   34.2837   38.8692 H   0  0  0  0  0  0  0  0  0  0  0  0
   48.1445   32.6478   38.3079 H   0  0  0  0  0  0  0  0  0  0  0  0
   46.9491   33.9886   38.3079 H   0  0  0  0  0  0  0  0  0  0  0  0
  1  2  1  0
  1  8  1  0
  3 16  1  6
  3  1  1  0
  3  2  1  0
  3  4  1  0
  4  7  1  0
  4  5  1  0
  6  4  1  0
  8 12  1  0
  9  8  2  0
 10 15  2  0
 11 10  1  0
 12 11  2  0
 12 13  1  0
 13 14  2  0
 14 15  1  0
  1 17  1  6
  2 18  1  0
  2 19  1  0
 10 20  1  0
 11 21  1  0
 14 22  1  0
 16 23  1  0
 16 24  1  0
 16 25  1  0
M  ISO  8  17  13  18  13  19  13  20  14  21  14  22  14  23   8  24   8
M  ISO  1  25   8
M  END
>  <minimizedAffinity>  (1) 
-4.21800041

>  <minimizedRMSD>  (1) 
1.48022783

$$$$
