
     RDKit          3D

 29 31  0  0  1  0  0  0  0  0999 V2000
   47.2690   33.8120   42.4380 C   0  0  2  0  0  0  0  0  0  0  0  0
   48.6200   33.5040   42.9120 C   0  0  0  0  0  0  0  0  0  0  0  0
   49.5450   34.6330   42.4610 C   0  0  0  0  0  0  0  0  0  0  0  0
   48.6820   35.6790   41.7980 C   0  0  0  0  0  0  0  0  0  0  0  0
   47.4800   34.9240   41.3700 C   0  0  1  0  0  0  0  0  0  0  0  0
   46.3270   34.3870   43.4150 C   0  0  0  0  0  0  0  0  0  0  0  0
   46.1710   33.7730   44.6680 C   0  0  0  0  0  0  0  0  0  0  0  0
   45.2990   34.3270   45.6030 C   0  0  0  0  0  0  0  0  0  0  0  0
   44.6340   35.4600   45.2270 N   0  0  0  0  0  0  0  0  0  0  0  0
   44.8030   36.0350   44.0060 C   0  0  0  0  0  0  0  0  0  0  0  0
   45.6460   35.4980   43.1070 N   0  0  0  0  0  0  0  0  0  0  0  0
   47.5890   34.3400   40.0620 N   0  0  0  0  0  0  0  0  0  0  0  0
   46.9600   33.2860   39.5130 C   0  0  0  0  0  0  0  0  0  0  0  0
   47.3750   33.0910   38.2460 N   0  0  0  0  0  0  0  0  0  0  0  0
   48.2740   34.0390   38.0050 C   0  0  0  0  0  0  0  0  0  0  0  0
   48.3960   34.7930   39.1170 N   0  0  0  0  0  0  0  0  0  0  0  0
   46.8225   32.8589   42.1181 H   0  0  0  0  0  0  0  0  0  0  0  0
   48.6239   33.4337   44.0097 H   0  0  0  0  0  0  0  0  0  0  0  0
   48.9604   32.5424   42.5003 H   0  0  0  0  0  0  0  0  0  0  0  0
   50.0621   35.0664   43.3298 H   0  0  0  0  0  0  0  0  0  0  0  0
   50.3084   34.2574   41.7638 H   0  0  0  0  0  0  0  0  0  0  0  0
   48.4131   36.4739   42.5092 H   0  0  0  0  0  0  0  0  0  0  0  0
   49.1892   36.1822   40.9616 H   0  0  0  0  0  0  0  0  0  0  0  0
   46.6291   35.6172   41.2969 H   0  0  0  0  0  0  0  0  0  0  0  0
   46.7341   32.8596   44.9102 H   0  0  0  0  0  0  0  0  0  0  0  0
   45.1531   33.8746   46.5950 H   0  0  0  0  0  0  0  0  0  0  0  0
   44.2446   36.9480   43.7518 H   0  0  0  0  0  0  0  0  0  0  0  0
   46.2096   32.6678   40.0276 H   0  0  0  0  0  0  0  0  0  0  0  0
   48.8232   34.1839   37.0630 H   0  0  0  0  0  0  0  0  0  0  0  0
  1  2  1  0
  1  6  1  0
  3  2  1  0
  4  3  1  0
  5  4  1  0
  5  1  1  0
  6  7  2  0
  7  8  1  0
  9  8  2  0
 10  9  1  0
 11  6  1  0
 11 10  2  0
 12  5  1  0
 13 12  1  0
 14 13  2  0
 15 14  1  0
 15 16  2  0
 16 12  1  0
  1 17  1  6
  2 18  1  0
  2 19  1  0
  3 20  1  0
  3 21  1  0
  4 22  1  0
  4 23  1  0
  5 24  1  6
  7 25  1  0
  8 26  1  0
 10 27  1  0
 13 28  1  0
 15 29  1  0
M  ISO  8  17  13  18  13  19  13  20  13  21  13  22  13  23  13  24  13
M  ISO  5  25  14  26  14  27  14  28  14  29  14
M  END
>  <minimizedAffinity>  (1) 
-5.19828606

>  <minimizedRMSD>  (1) 
4.28482866

$$$$
