
     RDKit          3D

 42 45  0  0  1  0  0  0  0  0999 V2000
   46.9670   33.2330   41.7590 C   0  0  2  0  0  0  0  0  0  0  0  0
   48.1870   33.2060   42.5660 C   0  0  0  0  0  0  0  0  0  0  0  0
   48.2560   33.8140   41.2530 C   0  0  2  0  0  0  0  0  0  0  0  0
   48.6260   35.2370   41.2660 C   0  0  0  0  0  0  0  0  0  0  0  0
   47.8940   36.0560   42.0980 F   0  0  0  0  0  0  0  0  0  0  0  0
   49.9230   35.3130   41.8050 F   0  0  0  0  0  0  0  0  0  0  0  0
   48.8140   35.8100   40.0110 F   0  0  0  0  0  0  0  0  0  0  0  0
   48.5510   33.1660   39.9380 C   0  0  0  0  0  0  0  0  0  0  0  0
   49.1520   31.8330   39.9310 C   0  0  0  0  0  0  0  0  0  0  0  0
   50.6140   31.7220   40.0480 C   0  0  0  0  0  0  0  0  0  0  0  0
   51.5210   31.9470   41.0550 C   0  0  0  0  0  0  0  0  0  0  0  0
   52.7990   31.7490   40.7170 N   0  0  0  0  0  0  0  0  0  0  0  0
   52.7370   31.3770   39.4330 C   0  0  0  0  0  0  0  0  0  0  0  0
   53.8590   31.0750   38.6460 C   0  0  0  0  0  0  0  0  0  0  0  0
   53.6340   30.7230   37.3320 C   0  0  0  0  0  0  0  0  0  0  0  0
   52.3450   30.6750   36.8290 C   0  0  0  0  0  0  0  0  0  0  0  0
   51.2620   30.9880   37.6640 C   0  0  0  0  0  0  0  0  0  0  0  0
   51.4350   31.3440   38.9750 C   0  0  0  0  0  0  0  0  0  0  0  0
   45.8420   34.1540   41.9970 C   0  0  0  0  0  0  0  0  0  0  0  0
   45.2850   34.5760   40.9740 O   0  0  0  0  0  0  0  0  0  0  0  0
   45.2610   34.0170   45.6490 C   0  0  0  0  0  0  0  0  0  0  0  0
   45.6970   33.6010   44.3390 C   0  0  0  0  0  0  0  0  0  0  0  0
   45.4560   34.4970   43.3360 C   0  0  0  0  0  0  0  0  0  0  0  0
   44.8480   35.6730   43.6280 N   0  0  0  0  0  0  0  0  0  0  0  0
   44.4490   36.0460   44.8510 C   0  0  0  0  0  0  0  0  0  0  0  0
   44.6540   35.2100   45.8950 N   0  0  0  0  0  0  0  0  0  0  0  0
   46.2431   32.4585   41.4657 H   0  0  0  0  0  0  0  0  0  0  0  0
   48.2601   33.8385   43.4630 H   0  0  0  0  0  0  0  0  0  0  0  0
   48.7529   32.4094   43.0712 H   0  0  0  0  0  0  0  0  0  0  0  0
   47.5991   33.0948   39.3914 H   0  0  0  0  0  0  0  0  0  0  0  0
   49.3230   33.8093   39.4906 H   0  0  0  0  0  0  0  0  0  0  0  0
   48.7156   31.2755   40.7729 H   0  0  0  0  0  0  0  0  0  0  0  0
   48.9318   31.4435   38.9261 H   0  0  0  0  0  0  0  0  0  0  0  0
   51.2184   32.2660   42.0633 H   0  0  0  0  0  0  0  0  0  0  0  0
   53.6362   31.8574   41.3071 H   0  0  0  0  0  0  0  0  0  0  0  0
   54.8769   31.1174   39.0607 H   0  0  0  0  0  0  0  0  0  0  0  0
   54.4846   30.4786   36.6788 H   0  0  0  0  0  0  0  0  0  0  0  0
   52.1710   30.3929   35.7801 H   0  0  0  0  0  0  0  0  0  0  0  0
   50.2425   30.9462   37.2530 H   0  0  0  0  0  0  0  0  0  0  0  0
   45.4279   33.3336   46.4947 H   0  0  0  0  0  0  0  0  0  0  0  0
   46.1878   32.6329   44.1602 H   0  0  0  0  0  0  0  0  0  0  0  0
   43.9608   37.0197   45.0047 H   0  0  0  0  0  0  0  0  0  0  0  0
  1 19  1  0
  1  2  1  0
  3  8  1  6
  3  4  1  0
  3  1  1  0
  3  2  1  0
  4  6  1  0
  4  5  1  0
  7  4  1  0
  9  8  1  0
  9 10  1  0
 10 11  2  0
 12 11  1  0
 13 12  1  0
 14 13  2  0
 15 14  1  0
 16 15  2  0
 16 17  1  0
 17 18  2  0
 18 13  1  0
 18 10  1  0
 19 23  1  0
 20 19  2  0
 21 26  2  0
 22 21  1  0
 23 24  1  0
 23 22  2  0
 24 25  2  0
 25 26  1  0
  1 27  1  6
  2 28  1  0
  2 29  1  0
  8 30  1  0
  8 31  1  0
  9 32  1  0
  9 33  1  0
 11 34  1  0
 12 35  1  0
 14 36  1  0
 15 37  1  0
 16 38  1  0
 17 39  1  0
 21 40  1  0
 22 41  1  0
 25 42  1  0
M  ISO  8  27  13  28  13  29  13  30   8  31   8  32   8  33   8  34  14
M  ISO  8  35   9  36  14  37  14  38  14  39  14  40  14  41  14  42  14
M  END
>  <minimizedAffinity>  (1) 
-6.16563988

>  <minimizedRMSD>  (1) 
1.78958333

$$$$
