
     RDKit          3D

 38 40  0  0  1  0  0  0  0  0999 V2000
   46.8460   33.2350   41.5500 C   0  0  2  0  0  0  0  0  0  0  0  0
   48.0740   33.0860   42.3570 C   0  0  0  0  0  0  0  0  0  0  0  0
   48.1620   33.8000   41.1030 C   0  0  2  0  0  0  0  0  0  0  0  0
   48.5830   35.2080   41.2390 C   0  0  0  0  0  0  0  0  0  0  0  0
   47.8480   35.9890   42.1020 F   0  0  0  0  0  0  0  0  0  0  0  0
   49.8590   35.1910   41.8270 F   0  0  0  0  0  0  0  0  0  0  0  0
   48.8390   35.8730   40.0410 F   0  0  0  0  0  0  0  0  0  0  0  0
   48.4220   33.2720   39.7270 C   0  0  0  0  0  0  0  0  0  0  0  0
   48.9800   31.9040   39.6390 C   0  0  0  0  0  0  0  0  0  0  0  0
   50.3780   31.7760   39.4160 N   0  0  0  0  0  0  0  0  0  0  0  0
   51.4860   31.4890   40.1110 C   0  0  0  0  0  0  0  0  0  0  0  0
   52.7660   31.4160   39.6340 C   0  0  0  0  0  0  0  0  0  0  0  0
   52.9740   31.6570   38.2960 C   0  0  0  0  0  0  0  0  0  0  0  0
   54.1540   31.5820   37.8880 O   0  0  0  0  0  0  0  0  0  0  0  0
   51.9060   31.9470   37.5530 N   0  0  0  0  0  0  0  0  0  0  0  0
   50.6540   32.0050   38.0880 C   0  0  0  0  0  0  0  0  0  0  0  0
   49.8090   32.2980   37.1880 O   0  0  0  0  0  0  0  0  0  0  0  0
   45.7640   34.1610   41.8770 C   0  0  0  0  0  0  0  0  0  0  0  0
   45.1840   34.6380   40.9010 O   0  0  0  0  0  0  0  0  0  0  0  0
   45.3580   33.8780   45.5460 C   0  0  0  0  0  0  0  0  0  0  0  0
   45.7360   33.5230   44.2090 C   0  0  0  0  0  0  0  0  0  0  0  0
   45.4420   34.4470   43.2490 C   0  0  0  0  0  0  0  0  0  0  0  0
   44.8310   35.6050   43.6090 N   0  0  0  0  0  0  0  0  0  0  0  0
   44.4840   35.9200   44.8690 C   0  0  0  0  0  0  0  0  0  0  0  0
   44.7490   35.0400   45.8790 N   0  0  0  0  0  0  0  0  0  0  0  0
   46.0906   32.5254   41.1815 H   0  0  0  0  0  0  0  0  0  0  0  0
   48.1732   33.6351   43.3050 H   0  0  0  0  0  0  0  0  0  0  0  0
   48.6080   32.2274   42.7902 H   0  0  0  0  0  0  0  0  0  0  0  0
   47.4675   33.2794   39.1804 H   0  0  0  0  0  0  0  0  0  0  0  0
   49.1958   33.9297   39.3043 H   0  0  0  0  0  0  0  0  0  0  0  0
   48.7497   31.3933   40.5856 H   0  0  0  0  0  0  0  0  0  0  0  0
   48.5135   31.4695   38.7426 H   0  0  0  0  0  0  0  0  0  0  0  0
   51.3521   31.2899   41.1845 H   0  0  0  0  0  0  0  0  0  0  0  0
   53.6053   31.1714   40.3017 H   0  0  0  0  0  0  0  0  0  0  0  0
   52.0304   32.1322   36.5475 H   0  0  0  0  0  0  0  0  0  0  0  0
   45.5766   33.1612   46.3512 H   0  0  0  0  0  0  0  0  0  0  0  0
   46.2302   32.5690   43.9730 H   0  0  0  0  0  0  0  0  0  0  0  0
   43.9905   36.8791   45.0847 H   0  0  0  0  0  0  0  0  0  0  0  0
  1 18  1  0
  1  2  1  0
  3  8  1  6
  3  4  1  0
  3  1  1  0
  3  2  1  0
  4  6  1  0
  4  5  1  0
  7  4  1  0
  9  8  1  0
 10  9  1  0
 10 11  1  0
 12 11  2  0
 13 12  1  0
 14 13  2  0
 15 16  1  0
 15 13  1  0
 16 10  1  0
 17 16  2  0
 18 22  1  0
 19 18  2  0
 20 25  2  0
 21 20  1  0
 22 23  1  0
 22 21  2  0
 23 24  2  0
 24 25  1  0
  1 26  1  6
  2 27  1  0
  2 28  1  0
  8 29  1  0
  8 30  1  0
  9 31  1  0
  9 32  1  0
 11 33  1  0
 12 34  1  0
 15 35  1  0
 20 36  1  0
 21 37  1  0
 24 38  1  0
M  ISO  8  26  13  27  13  28  13  29   8  30   8  31   8  32   8  33  14
M  ISO  5  34  14  35   9  36  14  37  14  38  14
M  END
>  <minimizedAffinity>  (1) 
-5.9755249

>  <minimizedRMSD>  (1) 
2.02475429

$$$$
