
     RDKit          3D

 44 47  0  0  1  0  0  0  0  0999 V2000
   46.8920   33.2420   41.6270 C   0  0  2  0  0  0  0  0  0  0  0  0
   48.1160   33.1390   42.4410 C   0  0  0  0  0  0  0  0  0  0  0  0
   48.2030   33.8060   41.1630 C   0  0  2  0  0  0  0  0  0  0  0  0
   48.6040   35.2250   41.2490 C   0  0  0  0  0  0  0  0  0  0  0  0
   47.8720   36.0200   42.1000 F   0  0  0  0  0  0  0  0  0  0  0  0
   49.8910   35.2440   41.8140 F   0  0  0  0  0  0  0  0  0  0  0  0
   48.8290   35.8580   40.0290 F   0  0  0  0  0  0  0  0  0  0  0  0
   48.4730   33.2320   39.8030 C   0  0  0  0  0  0  0  0  0  0  0  0
   48.9270   31.8290   39.7560 C   0  0  0  0  0  0  0  0  0  0  0  0
   50.3770   31.5910   39.6220 C   0  0  0  0  0  0  0  0  0  0  0  0
   51.3550   31.7090   40.5810 C   0  0  0  0  0  0  0  0  0  0  0  0
   52.7020   31.5030   40.4060 C   0  0  0  0  0  0  0  0  0  0  0  0
   53.1610   31.1390   39.1600 C   0  0  0  0  0  0  0  0  0  0  0  0
   52.2460   30.9980   38.1450 C   0  0  0  0  0  0  0  0  0  0  0  0
   52.7740   30.6160   36.9340 C   0  0  0  0  0  0  0  0  0  0  0  0
   51.9310   30.4300   35.8620 C   0  0  0  0  0  0  0  0  0  0  0  0
   50.5770   30.6310   36.0310 C   0  0  0  0  0  0  0  0  0  0  0  0
   50.1150   31.0130   37.2700 C   0  0  0  0  0  0  0  0  0  0  0  0
   50.9050   31.2180   38.3790 C   0  0  0  0  0  0  0  0  0  0  0  0
   45.7940   34.1650   41.9090 C   0  0  0  0  0  0  0  0  0  0  0  0
   45.2260   34.6120   40.9100 O   0  0  0  0  0  0  0  0  0  0  0  0
   45.2970   33.9590   45.5760 C   0  0  0  0  0  0  0  0  0  0  0  0
   45.7030   33.5700   44.2510 C   0  0  0  0  0  0  0  0  0  0  0  0
   45.4440   34.4790   43.2680 C   0  0  0  0  0  0  0  0  0  0  0  0
   44.8410   35.6520   43.5910 N   0  0  0  0  0  0  0  0  0  0  0  0
   44.4700   35.9980   44.8350 C   0  0  0  0  0  0  0  0  0  0  0  0
   44.6980   35.1370   45.8660 N   0  0  0  0  0  0  0  0  0  0  0  0
   46.1464   32.5088   41.2858 H   0  0  0  0  0  0  0  0  0  0  0  0
   48.2045   33.7244   43.3681 H   0  0  0  0  0  0  0  0  0  0  0  0
   48.6579   32.3034   42.9079 H   0  0  0  0  0  0  0  0  0  0  0  0
   47.5422   33.3012   39.2209 H   0  0  0  0  0  0  0  0  0  0  0  0
   49.3102   33.8212   39.4007 H   0  0  0  0  0  0  0  0  0  0  0  0
   48.5971   31.3436   40.6864 H   0  0  0  0  0  0  0  0  0  0  0  0
   48.4875   31.4207   38.8340 H   0  0  0  0  0  0  0  0  0  0  0  0
   51.0258   31.9974   41.5902 H   0  0  0  0  0  0  0  0  0  0  0  0
   53.4012   31.6266   41.2462 H   0  0  0  0  0  0  0  0  0  0  0  0
   54.2325   30.9656   38.9819 H   0  0  0  0  0  0  0  0  0  0  0  0
   53.8574   30.4609   36.8234 H   0  0  0  0  0  0  0  0  0  0  0  0
   52.3316   30.1252   34.8839 H   0  0  0  0  0  0  0  0  0  0  0  0
   49.8800   30.4888   35.1920 H   0  0  0  0  0  0  0  0  0  0  0  0
   49.0316   31.1663   37.3829 H   0  0  0  0  0  0  0  0  0  0  0  0
   45.4848   33.2570   46.4017 H   0  0  0  0  0  0  0  0  0  0  0  0
   46.1892   32.6050   44.0453 H   0  0  0  0  0  0  0  0  0  0  0  0
   43.9861   36.9685   45.0196 H   0  0  0  0  0  0  0  0  0  0  0  0
  1 20  1  0
  1  2  1  0
  3  8  1  6
  3  4  1  0
  3  1  1  0
  3  2  1  0
  4  6  1  0
  4  5  1  0
  7  4  1  0
  9  8  1  0
 10  9  1  0
 10 11  2  0
 12 11  1  0
 13 12  2  0
 14 19  2  0
 14 13  1  0
 15 14  1  0
 16 17  1  0
 16 15  2  0
 17 18  2  0
 18 19  1  0
 19 10  1  0
 20 24  1  0
 21 20  2  0
 22 27  2  0
 23 22  1  0
 24 25  1  0
 24 23  2  0
 25 26  2  0
 26 27  1  0
  1 28  1  6
  2 29  1  0
  2 30  1  0
  8 31  1  0
  8 32  1  0
  9 33  1  0
  9 34  1  0
 11 35  1  0
 12 36  1  0
 13 37  1  0
 15 38  1  0
 16 39  1  0
 17 40  1  0
 18 41  1  0
 22 42  1  0
 23 43  1  0
 26 44  1  0
M  ISO  8  28  13  29  13  30  13  31   8  32   8  33   8  34   8  35  14
M  ISO  8  36  14  37  14  38  14  39  14  40  14  41  14  42  14  43  14
M  ISO  1  44  14
M  END
>  <minimizedAffinity>  (1) 
-5.81520748

>  <minimizedRMSD>  (1) 
2.42665029

$$$$
