
     RDKit          3D

 37 40  0  0  1  0  0  0  0  0999 V2000
   47.6930   34.3600   42.2850 C   0  0  2  0  0  0  0  0  0  0  0  0
   47.3750   34.9020   40.9680 C   0  0  0  0  0  0  0  0  0  0  0  0
   46.9360   33.7330   40.0860 C   0  0  0  0  0  0  0  0  0  0  0  0
   46.9130   32.5090   40.9650 C   0  0  0  0  0  0  0  0  0  0  0  0
   47.8500   32.8330   42.0600 C   0  0  1  0  0  0  0  0  0  0  0  0
   49.2500   32.5770   41.7440 N   0  0  0  0  0  0  0  0  0  0  0  0
   50.2090   33.2500   42.4070 C   0  0  0  0  0  0  0  0  0  0  0  0
   51.4040   32.8370   41.9340 N   0  0  0  0  0  0  0  0  0  0  0  0
   51.2370   31.9150   40.9870 C   0  0  0  0  0  0  0  0  0  0  0  0
   51.9830   31.1210   40.1370 C   0  0  0  0  0  0  0  0  0  0  0  0
   53.2310   31.2520   40.2270 O   0  0  0  0  0  0  0  0  0  0  0  0
   51.4320   30.2530   39.2590 N   0  0  0  0  0  0  0  0  0  0  0  0
   50.0720   30.1550   39.2070 C   0  0  0  0  0  0  0  0  0  0  0  0
   49.4780   29.2450   38.2870 N   0  0  0  0  0  0  0  0  0  0  0  0
   49.3270   30.9180   40.0240 N   0  0  0  0  0  0  0  0  0  0  0  0
   49.8580   31.7680   40.8840 C   0  0  0  0  0  0  0  0  0  0  0  0
   46.6960   34.5070   43.3530 C   0  0  0  0  0  0  0  0  0  0  0  0
   45.6990   35.4890   43.2180 C   0  0  0  0  0  0  0  0  0  0  0  0
   44.7310   35.6300   44.2120 C   0  0  0  0  0  0  0  0  0  0  0  0
   44.8250   34.7740   45.2830 N   0  0  0  0  0  0  0  0  0  0  0  0
   45.7940   33.8420   45.3860 C   0  0  0  0  0  0  0  0  0  0  0  0
   46.7290   33.7070   44.4230 N   0  0  0  0  0  0  0  0  0  0  0  0
   48.5689   34.9244   42.6375 H   0  0  0  0  0  0  0  0  0  0  0  0
   46.5608   35.6371   41.0506 H   0  0  0  0  0  0  0  0  0  0  0  0
   48.2503   35.4080   40.5347 H   0  0  0  0  0  0  0  0  0  0  0  0
   47.6492   33.5929   39.2603 H   0  0  0  0  0  0  0  0  0  0  0  0
   45.9458   33.9211   39.6453 H   0  0  0  0  0  0  0  0  0  0  0  0
   45.9012   32.3292   41.3574 H   0  0  0  0  0  0  0  0  0  0  0  0
   47.1975   31.5951   40.4230 H   0  0  0  0  0  0  0  0  0  0  0  0
   47.6097   32.2030   42.9291 H   0  0  0  0  0  0  0  0  0  0  0  0
   50.0477   34.0019   43.1935 H   0  0  0  0  0  0  0  0  0  0  0  0
   52.0254   29.6787   38.6433 H   0  0  0  0  0  0  0  0  0  0  0  0
   48.4528   29.1598   38.2361 H   0  0  0  0  0  0  0  0  0  0  0  0
   50.0735   28.6719   37.6724 H   0  0  0  0  0  0  0  0  0  0  0  0
   45.6825   36.1425   42.3333 H   0  0  0  0  0  0  0  0  0  0  0  0
   43.9349   36.3859   44.1425 H   0  0  0  0  0  0  0  0  0  0  0  0
   45.8224   33.1833   46.2665 H   0  0  0  0  0  0  0  0  0  0  0  0
  1 17  1  0
  2  1  1  0
  3  4  1  0
  3  2  1  0
  4  5  1  0
  5  1  1  0
  6  5  1  0
  6  7  1  0
  8  7  2  0
  9  8  1  0
 10 11  2  0
 10  9  1  0
 12 10  1  0
 13 12  1  0
 13 15  2  0
 14 13  1  0
 15 16  1  0
 16  9  2  0
 16  6  1  0
 17 22  1  0
 18 17  2  0
 18 19  1  0
 19 20  2  0
 20 21  1  0
 22 21  2  0
  1 23  1  1
  2 24  1  0
  2 25  1  0
  3 26  1  0
  3 27  1  0
  4 28  1  0
  4 29  1  0
  5 30  1  1
  7 31  1  0
 12 32  1  0
 14 33  1  0
 14 34  1  0
 18 35  1  0
 19 36  1  0
 21 37  1  0
M  ISO  8  23  13  24  13  25  13  26  13  27  13  28  13  29  13  30  13
M  ISO  5  31  14  32   9  35  14  36  14  37  14
M  END
>  <minimizedAffinity>  (1) 
-5.02837276

>  <minimizedRMSD>  (1) 
7.10758591

$$$$
