
     RDKit          3D

 36 38  0  0  1  0  0  0  0  0999 V2000
   46.9170   33.2150   41.5660 C   0  0  2  0  0  0  0  0  0  0  0  0
   48.1290   33.1190   42.3990 C   0  0  0  0  0  0  0  0  0  0  0  0
   48.2290   33.7930   41.1260 C   0  0  2  0  0  0  0  0  0  0  0  0
   48.6140   35.2150   41.2280 C   0  0  0  0  0  0  0  0  0  0  0  0
   47.8660   35.9960   42.0790 F   0  0  0  0  0  0  0  0  0  0  0  0
   49.8960   35.2450   41.8000 F   0  0  0  0  0  0  0  0  0  0  0  0
   48.8420   35.8590   40.0130 F   0  0  0  0  0  0  0  0  0  0  0  0
   48.5230   33.2340   39.7700 C   0  0  0  0  0  0  0  0  0  0  0  0
   49.0630   31.8590   39.7190 C   0  0  0  0  0  0  0  0  0  0  0  0
   50.5080   31.6860   39.6350 C   0  0  0  0  0  0  0  0  0  0  0  0
   51.5570   31.4910   40.5010 C   0  0  0  0  0  0  0  0  0  0  0  0
   52.8720   31.3400   40.1470 C   0  0  0  0  0  0  0  0  0  0  0  0
   53.2050   31.3810   38.8550 N   0  0  0  0  0  0  0  0  0  0  0  0
   52.1990   31.5730   37.9530 C   0  0  0  0  0  0  0  0  0  0  0  0
   50.9170   31.7180   38.3250 N   0  0  0  0  0  0  0  0  0  0  0  0
   45.8050   34.1250   41.8390 C   0  0  0  0  0  0  0  0  0  0  0  0
   45.2260   34.5480   40.8340 O   0  0  0  0  0  0  0  0  0  0  0  0
   45.3020   33.9600   45.5070 C   0  0  0  0  0  0  0  0  0  0  0  0
   45.7060   33.5580   44.1850 C   0  0  0  0  0  0  0  0  0  0  0  0
   45.4550   34.4570   43.1920 C   0  0  0  0  0  0  0  0  0  0  0  0
   44.8590   35.6370   43.5020 N   0  0  0  0  0  0  0  0  0  0  0  0
   44.4880   35.9940   44.7440 C   0  0  0  0  0  0  0  0  0  0  0  0
   44.7100   35.1430   45.7830 N   0  0  0  0  0  0  0  0  0  0  0  0
   46.1839   32.4775   41.2073 H   0  0  0  0  0  0  0  0  0  0  0  0
   48.1975   33.7005   43.3302 H   0  0  0  0  0  0  0  0  0  0  0  0
   48.6714   32.2862   42.8704 H   0  0  0  0  0  0  0  0  0  0  0  0
   47.5853   33.2448   39.1951 H   0  0  0  0  0  0  0  0  0  0  0  0
   49.3209   33.8720   39.3623 H   0  0  0  0  0  0  0  0  0  0  0  0
   48.7258   31.3428   40.6299 H   0  0  0  0  0  0  0  0  0  0  0  0
   48.6858   31.4547   38.7681 H   0  0  0  0  0  0  0  0  0  0  0  0
   51.3198   31.4527   41.5744 H   0  0  0  0  0  0  0  0  0  0  0  0
   53.6427   31.1871   40.9169 H   0  0  0  0  0  0  0  0  0  0  0  0
   52.4475   31.6103   36.8821 H   0  0  0  0  0  0  0  0  0  0  0  0
   45.4856   33.2649   46.3395 H   0  0  0  0  0  0  0  0  0  0  0  0
   46.1862   32.5880   43.9891 H   0  0  0  0  0  0  0  0  0  0  0  0
   44.0079   36.9680   44.9195 H   0  0  0  0  0  0  0  0  0  0  0  0
  1 16  1  0
  1  2  1  0
  3  8  1  6
  3  4  1  0
  3  1  1  0
  3  2  1  0
  4  6  1  0
  4  5  1  0
  7  4  1  0
  9  8  1  0
 10  9  1  0
 10 11  2  0
 12 11  1  0
 13 12  2  0
 14 15  2  0
 14 13  1  0
 15 10  1  0
 16 20  1  0
 17 16  2  0
 18 23  2  0
 19 18  1  0
 20 21  1  0
 20 19  2  0
 21 22  2  0
 22 23  1  0
  1 24  1  6
  2 25  1  0
  2 26  1  0
  8 27  1  0
  8 28  1  0
  9 29  1  0
  9 30  1  0
 11 31  1  0
 12 32  1  0
 14 33  1  0
 18 34  1  0
 19 35  1  0
 22 36  1  0
M  ISO  8  24  13  25  13  26  13  27   8  28   8  29   8  30   8  31  14
M  ISO  5  32  14  33  14  34  14  35  14  36  14
M  END
>  <minimizedAffinity>  (1) 
-5.49500036

>  <minimizedRMSD>  (1) 
1.4531014

$$$$
