
     RDKit          3D

 35 37  0  0  1  0  0  0  0  0999 V2000
   47.0230   33.2370   41.6960 C   0  0  2  0  0  0  0  0  0  0  0  0
   48.2190   33.2280   42.5580 C   0  0  0  0  0  0  0  0  0  0  0  0
   48.3250   33.8360   41.2550 C   0  0  2  0  0  0  0  0  0  0  0  0
   48.6630   35.2750   41.2810 C   0  0  0  0  0  0  0  0  0  0  0  0
   47.9000   36.0710   42.1060 F   0  0  0  0  0  0  0  0  0  0  0  0
   49.9490   35.3660   41.8400 F   0  0  0  0  0  0  0  0  0  0  0  0
   48.8620   35.8660   40.0370 F   0  0  0  0  0  0  0  0  0  0  0  0
   48.6780   33.2450   39.9270 C   0  0  0  0  0  0  0  0  0  0  0  0
   49.1510   31.8370   39.9220 C   0  0  0  0  0  0  0  0  0  0  0  0
   50.5690   31.5890   40.1200 C   0  0  0  0  0  0  0  0  0  0  0  0
   50.9690   30.7840   41.2030 C   0  0  0  0  0  0  0  0  0  0  0  0
   52.3110   30.6630   41.2130 N   0  0  0  0  0  0  0  0  0  0  0  0
   52.8250   31.3590   40.1740 C   0  0  0  0  0  0  0  0  0  0  0  0
   51.7560   31.8890   39.5580 N   0  0  0  0  0  0  0  0  0  0  0  0
   45.8770   34.1340   41.9020 C   0  0  0  0  0  0  0  0  0  0  0  0
   45.3150   34.5040   40.8680 O   0  0  0  0  0  0  0  0  0  0  0  0
   45.2280   34.0790   45.5520 C   0  0  0  0  0  0  0  0  0  0  0  0
   45.6760   33.6320   44.2580 C   0  0  0  0  0  0  0  0  0  0  0  0
   45.4790   34.5090   43.2330 C   0  0  0  0  0  0  0  0  0  0  0  0
   44.8940   35.7070   43.4890 N   0  0  0  0  0  0  0  0  0  0  0  0
   44.4820   36.1040   44.7050 C   0  0  0  0  0  0  0  0  0  0  0  0
   44.6480   35.2760   45.7750 N   0  0  0  0  0  0  0  0  0  0  0  0
   46.3235   32.4568   41.3612 H   0  0  0  0  0  0  0  0  0  0  0  0
   48.2466   33.8600   43.4579 H   0  0  0  0  0  0  0  0  0  0  0  0
   48.7786   32.4408   43.0845 H   0  0  0  0  0  0  0  0  0  0  0  0
   47.7816   33.2966   39.2915 H   0  0  0  0  0  0  0  0  0  0  0  0
   49.5337   33.8361   39.5686 H   0  0  0  0  0  0  0  0  0  0  0  0
   48.6125   31.3090   40.7228 H   0  0  0  0  0  0  0  0  0  0  0  0
   48.9530   31.4863   38.8984 H   0  0  0  0  0  0  0  0  0  0  0  0
   50.2875   30.3223   41.9327 H   0  0  0  0  0  0  0  0  0  0  0  0
   53.8836   31.4671   39.8953 H   0  0  0  0  0  0  0  0  0  0  0  0
   51.8375   32.4805   38.7188 H   0  0  0  0  0  0  0  0  0  0  0  0
   45.3672   33.4039   46.4092 H   0  0  0  0  0  0  0  0  0  0  0  0
   46.1456   32.6488   44.1070 H   0  0  0  0  0  0  0  0  0  0  0  0
   44.0138   37.0907   44.8360 H   0  0  0  0  0  0  0  0  0  0  0  0
  1 15  1  0
  1  2  1  0
  3  8  1  6
  3  4  1  0
  3  1  1  0
  3  2  1  0
  4  6  1  0
  4  5  1  0
  7  4  1  0
  9  8  1  0
  9 10  1  0
 10 11  2  0
 11 12  1  0
 13 12  2  0
 14 10  1  0
 14 13  1  0
 15 19  1  0
 16 15  2  0
 17 22  2  0
 18 17  1  0
 19 20  1  0
 19 18  2  0
 20 21  2  0
 21 22  1  0
  1 23  1  6
  2 24  1  0
  2 25  1  0
  8 26  1  0
  8 27  1  0
  9 28  1  0
  9 29  1  0
 11 30  1  0
 13 31  1  0
 14 32  1  0
 17 33  1  0
 18 34  1  0
 21 35  1  0
M  ISO  8  23  13  24  13  25  13  26   8  27   8  28   8  29   8  30  14
M  ISO  5  31  14  32   9  33  14  34  14  35  14
M  END
>  <minimizedAffinity>  (1) 
-5.37424898

>  <minimizedRMSD>  (1) 
0.992247999

$$$$
