
     RDKit          3D

 34 36  0  0  1  0  0  0  0  0999 V2000
   47.0030   33.2460   41.7240 C   0  0  2  0  0  0  0  0  0  0  0  0
   48.2100   33.2300   42.5710 C   0  0  0  0  0  0  0  0  0  0  0  0
   48.3040   33.8360   41.2650 C   0  0  2  0  0  0  0  0  0  0  0  0
   48.6490   35.2710   41.2830 C   0  0  0  0  0  0  0  0  0  0  0  0
   47.8950   36.0750   42.1080 F   0  0  0  0  0  0  0  0  0  0  0  0
   49.9390   35.3610   41.8340 F   0  0  0  0  0  0  0  0  0  0  0  0
   48.8450   35.8550   40.0350 F   0  0  0  0  0  0  0  0  0  0  0  0
   48.6370   33.2330   39.9390 C   0  0  0  0  0  0  0  0  0  0  0  0
   49.1890   31.8570   39.9450 C   0  0  0  0  0  0  0  0  0  0  0  0
   50.6040   31.6970   39.9950 N   0  0  0  0  0  0  0  0  0  0  0  0
   51.5830   31.7270   40.9180 C   0  0  0  0  0  0  0  0  0  0  0  0
   52.7870   31.5100   40.3160 N   0  0  0  0  0  0  0  0  0  0  0  0
   52.5290   31.3470   39.0150 C   0  0  0  0  0  0  0  0  0  0  0  0
   51.2200   31.4580   38.8230 N   0  0  0  0  0  0  0  0  0  0  0  0
   45.8660   34.1460   41.9410 C   0  0  0  0  0  0  0  0  0  0  0  0
   45.3070   34.5320   40.9120 O   0  0  0  0  0  0  0  0  0  0  0  0
   45.2350   34.0620   45.5930 C   0  0  0  0  0  0  0  0  0  0  0  0
   45.6830   33.6250   44.2960 C   0  0  0  0  0  0  0  0  0  0  0  0
   45.4720   34.5080   43.2760 C   0  0  0  0  0  0  0  0  0  0  0  0
   44.8760   35.6970   43.5430 N   0  0  0  0  0  0  0  0  0  0  0  0
   44.4660   36.0830   44.7640 C   0  0  0  0  0  0  0  0  0  0  0  0
   44.6460   35.2480   45.8270 N   0  0  0  0  0  0  0  0  0  0  0  0
   46.2940   32.4700   41.3996 H   0  0  0  0  0  0  0  0  0  0  0  0
   48.2533   33.8630   43.4696 H   0  0  0  0  0  0  0  0  0  0  0  0
   48.7708   32.4397   43.0915 H   0  0  0  0  0  0  0  0  0  0  0  0
   47.7144   33.2178   39.3402 H   0  0  0  0  0  0  0  0  0  0  0  0
   49.4428   33.8623   39.5332 H   0  0  0  0  0  0  0  0  0  0  0  0
   48.7719   31.3426   40.8233 H   0  0  0  0  0  0  0  0  0  0  0  0
   48.9038   31.4458   38.9654 H   0  0  0  0  0  0  0  0  0  0  0  0
   51.4345   31.9002   41.9941 H   0  0  0  0  0  0  0  0  0  0  0  0
   53.2774   31.1529   38.2325 H   0  0  0  0  0  0  0  0  0  0  0  0
   45.3839   33.3832   46.4456 H   0  0  0  0  0  0  0  0  0  0  0  0
   46.1620   32.6475   44.1379 H   0  0  0  0  0  0  0  0  0  0  0  0
   43.9893   37.0643   44.9043 H   0  0  0  0  0  0  0  0  0  0  0  0
  1 15  1  0
  1  2  1  0
  3  8  1  6
  3  4  1  0
  3  1  1  0
  3  2  1  0
  4  6  1  0
  4  5  1  0
  7  4  1  0
  8  9  1  0
  9 10  1  0
 10 11  1  0
 12 11  2  0
 13 12  1  0
 14 13  2  0
 14 10  1  0
 15 19  1  0
 16 15  2  0
 17 22  2  0
 18 17  1  0
 19 20  1  0
 19 18  2  0
 20 21  2  0
 21 22  1  0
  1 23  1  6
  2 24  1  0
  2 25  1  0
  8 26  1  0
  8 27  1  0
  9 28  1  0
  9 29  1  0
 11 30  1  0
 13 31  1  0
 17 32  1  0
 18 33  1  0
 21 34  1  0
M  ISO  8  23  13  24  13  25  13  26   8  27   8  28   8  29   8  30  14
M  ISO  4  31  14  32  14  33  14  34  14
M  END
>  <minimizedAffinity>  (1) 
-5.32451677

>  <minimizedRMSD>  (1) 
1.01642883

$$$$
