
     RDKit          3D

 34 36  0  0  1  0  0  0  0  0999 V2000
   47.1260   33.1820   41.8720 C   0  0  2  0  0  0  0  0  0  0  0  0
   48.3180   33.2840   42.7270 C   0  0  0  0  0  0  0  0  0  0  0  0
   48.4010   33.8000   41.3820 C   0  0  2  0  0  0  0  0  0  0  0  0
   48.6870   35.2460   41.3030 C   0  0  0  0  0  0  0  0  0  0  0  0
   47.9120   36.0670   42.0900 F   0  0  0  0  0  0  0  0  0  0  0  0
   49.9830   35.4230   41.8210 F   0  0  0  0  0  0  0  0  0  0  0  0
   48.8320   35.7550   40.0150 F   0  0  0  0  0  0  0  0  0  0  0  0
   48.7810   33.1140   40.1020 C   0  0  0  0  0  0  0  0  0  0  0  0
   49.3500   31.7480   40.2350 C   0  0  0  0  0  0  0  0  0  0  0  0
   50.7460   31.5960   39.7330 C   0  0  0  0  0  0  0  0  0  0  0  0
   50.9600   31.6000   38.2940 C   0  0  0  0  0  0  0  0  0  0  0  0
   52.7690   31.3970   38.1280 S   0  0  0  0  0  0  0  0  0  0  0  0
   52.9570   31.3390   40.0170 C   0  0  0  0  0  0  0  0  0  0  0  0
   51.8980   31.4520   40.3900 N   0  0  0  0  0  0  0  0  0  0  0  0
   45.9460   34.0440   42.0060 C   0  0  0  0  0  0  0  0  0  0  0  0
   45.3910   34.3320   40.9420 O   0  0  0  0  0  0  0  0  0  0  0  0
   45.1740   34.1520   45.6310 C   0  0  0  0  0  0  0  0  0  0  0  0
   45.6630   33.6440   44.3730 C   0  0  0  0  0  0  0  0  0  0  0  0
   45.5090   34.4780   43.3060 C   0  0  0  0  0  0  0  0  0  0  0  0
   44.9260   35.6910   43.4890 N   0  0  0  0  0  0  0  0  0  0  0  0
   44.4770   36.1440   44.6740 C   0  0  0  0  0  0  0  0  0  0  0  0
   44.6010   35.3580   45.7820 N   0  0  0  0  0  0  0  0  0  0  0  0
   46.4589   32.3498   41.6027 H   0  0  0  0  0  0  0  0  0  0  0  0
   48.3194   33.9804   43.5785 H   0  0  0  0  0  0  0  0  0  0  0  0
   48.9086   32.5603   43.3079 H   0  0  0  0  0  0  0  0  0  0  0  0
   47.8777   33.0423   39.4784 H   0  0  0  0  0  0  0  0  0  0  0  0
   49.5839   33.7267   39.6661 H   0  0  0  0  0  0  0  0  0  0  0  0
   49.3389   31.4758   41.3007 H   0  0  0  0  0  0  0  0  0  0  0  0
   48.7253   31.0922   39.6107 H   0  0  0  0  0  0  0  0  0  0  0  0
   50.2107   31.7012   37.4951 H   0  0  0  0  0  0  0  0  0  0  0  0
   53.8783   31.2230   40.6067 H   0  0  0  0  0  0  0  0  0  0  0  0
   45.2763   33.5135   46.5209 H   0  0  0  0  0  0  0  0  0  0  0  0
   46.1283   32.6515   44.2809 H   0  0  0  0  0  0  0  0  0  0  0  0
   44.0142   37.1391   44.7485 H   0  0  0  0  0  0  0  0  0  0  0  0
  1 15  1  0
  1  2  1  0
  3  8  1  6
  3  1  1  0
  3  2  1  0
  4  3  1  0
  4  6  1  0
  4  5  1  0
  7  4  1  0
  8  9  1  0
 10  9  1  0
 10 14  1  0
 11 10  2  0
 12 11  1  0
 12 13  1  0
 13 14  2  0
 15 19  1  0
 16 15  2  0
 17 22  2  0
 18 17  1  0
 19 20  1  0
 19 18  2  0
 20 21  2  0
 21 22  1  0
  1 23  1  6
  2 24  1  0
  2 25  1  0
  8 26  1  0
  8 27  1  0
  9 28  1  0
  9 29  1  0
 11 30  1  0
 13 31  1  0
 17 32  1  0
 18 33  1  0
 21 34  1  0
M  ISO  8  23  13  24  13  25  13  26   8  27   8  28   8  29   8  30  14
M  ISO  4  31  14  32  14  33  14  34  14
M  END
>  <minimizedAffinity>  (1) 
-5.25623131

>  <minimizedRMSD>  (1) 
1.38246524

$$$$
