
     RDKit          3D

 44 46  0  0  1  0  0  0  0  0999 V2000
   47.3670   32.9870   42.2580 C   0  0  2  0  0  0  0  0  0  0  0  0
   48.5210   33.3920   43.0700 C   0  0  0  0  0  0  0  0  0  0  0  0
   48.5360   33.7120   41.6610 C   0  0  2  0  0  0  0  0  0  0  0  0
   48.6050   35.1570   41.3720 C   0  0  0  0  0  0  0  0  0  0  0  0
   47.7590   35.9680   42.0940 F   0  0  0  0  0  0  0  0  0  0  0  0
   49.8850   35.5890   41.7720 F   0  0  0  0  0  0  0  0  0  0  0  0
   48.6080   35.4930   40.0230 F   0  0  0  0  0  0  0  0  0  0  0  0
   49.0410   32.9080   40.4990 C   0  0  0  0  0  0  0  0  0  0  0  0
   50.3100   32.1620   40.7120 C   0  0  0  0  0  0  0  0  0  0  0  0
   50.6860   31.2310   39.5950 C   0  0  0  0  0  0  0  0  0  0  0  0
   52.1650   31.2520   39.3050 C   0  0  0  0  0  0  0  0  0  0  0  0
   52.4610   31.7790   37.9100 C   0  0  0  0  0  0  0  0  0  0  0  0
   51.8290   30.8680   36.8730 C   0  0  0  0  0  0  0  0  0  0  0  0
   50.4350   30.4540   37.3100 C   0  0  0  0  0  0  0  0  0  0  0  0
   49.9620   31.4930   38.3110 C   0  0  0  0  0  0  0  0  0  0  0  0
   46.0660   33.6750   42.2740 C   0  0  0  0  0  0  0  0  0  0  0  0
   45.4740   33.7030   41.1930 O   0  0  0  0  0  0  0  0  0  0  0  0
   45.1340   34.1770   45.8250 C   0  0  0  0  0  0  0  0  0  0  0  0
   45.6790   33.5390   44.6570 C   0  0  0  0  0  0  0  0  0  0  0  0
   45.5700   34.2460   43.4980 C   0  0  0  0  0  0  0  0  0  0  0  0
   44.9730   35.4640   43.5230 N   0  0  0  0  0  0  0  0  0  0  0  0
   44.4690   36.0390   44.6310 C   0  0  0  0  0  0  0  0  0  0  0  0
   44.5480   35.3830   45.8220 N   0  0  0  0  0  0  0  0  0  0  0  0
   46.8364   32.0321   42.1289 H   0  0  0  0  0  0  0  0  0  0  0  0
   48.4099   34.1980   43.8103 H   0  0  0  0  0  0  0  0  0  0  0  0
   49.2098   32.8591   43.7420 H   0  0  0  0  0  0  0  0  0  0  0  0
   48.2631   32.1764   40.2351 H   0  0  0  0  0  0  0  0  0  0  0  0
   49.2627   33.6421   39.7104 H   0  0  0  0  0  0  0  0  0  0  0  0
   51.1214   32.8944   40.8353 H   0  0  0  0  0  0  0  0  0  0  0  0
   50.1553   31.5335   41.6014 H   0  0  0  0  0  0  0  0  0  0  0  0
   50.3836   30.2419   39.9696 H   0  0  0  0  0  0  0  0  0  0  0  0
   52.6630   31.8985   40.0426 H   0  0  0  0  0  0  0  0  0  0  0  0
   52.5394   30.2195   39.3663 H   0  0  0  0  0  0  0  0  0  0  0  0
   52.0468   32.7928   37.8068 H   0  0  0  0  0  0  0  0  0  0  0  0
   53.5497   31.8066   37.7549 H   0  0  0  0  0  0  0  0  0  0  0  0
   52.4524   29.9698   36.7518 H   0  0  0  0  0  0  0  0  0  0  0  0
   51.7570   31.4103   35.9187 H   0  0  0  0  0  0  0  0  0  0  0  0
   49.7585   30.4280   36.4430 H   0  0  0  0  0  0  0  0  0  0  0  0
   50.4441   29.4496   37.7584 H   0  0  0  0  0  0  0  0  0  0  0  0
   50.1968   32.5034   37.9451 H   0  0  0  0  0  0  0  0  0  0  0  0
   48.8735   31.4290   38.4559 H   0  0  0  0  0  0  0  0  0  0  0  0
   45.2023   33.6408   46.7830 H   0  0  0  0  0  0  0  0  0  0  0  0
   46.1521   32.5467   44.6970 H   0  0  0  0  0  0  0  0  0  0  0  0
   43.9970   37.0310   44.5749 H   0  0  0  0  0  0  0  0  0  0  0  0
  1 16  1  0
  1  2  1  0
  3  8  1  6
  3  1  1  0
  3  2  1  0
  4  3  1  0
  4  6  1  0
  4  5  1  0
  7  4  1  0
  8  9  1  0
 10  9  1  0
 11 10  1  0
 12 11  1  0
 13 14  1  0
 13 12  1  0
 14 15  1  0
 15 10  1  0
 16 20  1  0
 17 16  2  0
 19 18  2  0
 20 21  2  0
 20 19  1  0
 21 22  1  0
 22 23  2  0
 23 18  1  0
  1 24  1  6
  2 25  1  0
  2 26  1  0
  8 27  1  0
  8 28  1  0
  9 29  1  0
  9 30  1  0
 10 31  1  0
 11 32  1  0
 11 33  1  0
 12 34  1  0
 12 35  1  0
 13 36  1  0
 13 37  1  0
 14 38  1  0
 14 39  1  0
 15 40  1  0
 15 41  1  0
 18 42  1  0
 19 43  1  0
 22 44  1  0
M  ISO  8  24  13  25  13  26  13  27   8  28   8  29   8  30   8  31  13
M  ISO  8  32  13  33  13  34  13  35  13  36  13  37  13  38  13  39  13
M  ISO  5  40  13  41  13  42  14  43  14  44  14
M  END
>  <minimizedAffinity>  (1) 
-5.2006011

>  <minimizedRMSD>  (1) 
0.321909368

$$$$
