
     RDKit          3D

 43 45  0  0  1  0  0  0  0  0999 V2000
   47.3060   33.0330   42.1160 C   0  0  2  0  0  0  0  0  0  0  0  0
   48.4770   33.3380   42.9480 C   0  0  0  0  0  0  0  0  0  0  0  0
   48.5010   33.7390   41.5550 C   0  0  2  0  0  0  0  0  0  0  0  0
   48.6370   35.1950   41.3560 C   0  0  0  0  0  0  0  0  0  0  0  0
   47.7990   35.9960   42.1040 F   0  0  0  0  0  0  0  0  0  0  0  0
   49.9130   35.5560   41.8210 F   0  0  0  0  0  0  0  0  0  0  0  0
   48.6970   35.6050   40.0240 F   0  0  0  0  0  0  0  0  0  0  0  0
   48.9570   32.9660   40.3460 C   0  0  0  0  0  0  0  0  0  0  0  0
   50.1970   32.1590   40.5250 C   0  0  0  0  0  0  0  0  0  0  0  0
   50.2220   30.9310   39.7170 N   0  0  0  0  0  0  0  0  0  0  0  0
   49.9610   31.2490   38.3230 C   0  0  0  0  0  0  0  0  0  0  0  0
   51.1390   31.0870   37.4230 C   0  0  0  0  0  0  0  0  0  0  0  0
   52.3660   31.8040   37.9880 C   0  0  0  0  0  0  0  0  0  0  0  0
   52.6500   31.2620   39.3610 C   0  0  0  0  0  0  0  0  0  0  0  0
   51.5350   30.3230   39.7470 C   0  0  0  0  0  0  0  0  0  0  0  0
   46.0340   33.7750   42.1680 C   0  0  0  0  0  0  0  0  0  0  0  0
   45.4440   33.8940   41.0930 O   0  0  0  0  0  0  0  0  0  0  0  0
   45.1840   34.1270   45.7570 C   0  0  0  0  0  0  0  0  0  0  0  0
   45.7110   33.5370   44.5530 C   0  0  0  0  0  0  0  0  0  0  0  0
   45.5620   34.2910   43.4230 C   0  0  0  0  0  0  0  0  0  0  0  0
   44.9520   35.4990   43.5140 N   0  0  0  0  0  0  0  0  0  0  0  0
   44.4720   36.0180   44.6590 C   0  0  0  0  0  0  0  0  0  0  0  0
   44.5860   35.3230   45.8150 N   0  0  0  0  0  0  0  0  0  0  0  0
   46.7345   32.1100   41.9388 H   0  0  0  0  0  0  0  0  0  0  0  0
   48.4025   34.1035   43.7345 H   0  0  0  0  0  0  0  0  0  0  0  0
   49.1429   32.7379   43.5855 H   0  0  0  0  0  0  0  0  0  0  0  0
   48.1464   32.2806   40.0575 H   0  0  0  0  0  0  0  0  0  0  0  0
   49.1973   33.7194   39.5814 H   0  0  0  0  0  0  0  0  0  0  0  0
   51.0598   32.7796   40.2412 H   0  0  0  0  0  0  0  0  0  0  0  0
   50.2320   31.8513   41.5805 H   0  0  0  0  0  0  0  0  0  0  0  0
   49.1596   30.5868   37.9633 H   0  0  0  0  0  0  0  0  0  0  0  0
   49.6850   32.3133   38.2902 H   0  0  0  0  0  0  0  0  0  0  0  0
   50.8983   31.5099   36.4365 H   0  0  0  0  0  0  0  0  0  0  0  0
   51.3691   30.0147   37.3381 H   0  0  0  0  0  0  0  0  0  0  0  0
   53.2323   31.6271   37.3336 H   0  0  0  0  0  0  0  0  0  0  0  0
   52.1757   32.8860   38.0437 H   0  0  0  0  0  0  0  0  0  0  0  0
   53.6065   30.7188   39.3546 H   0  0  0  0  0  0  0  0  0  0  0  0
   52.7142   32.0874   40.0853 H   0  0  0  0  0  0  0  0  0  0  0  0
   51.7255   29.9595   40.7676 H   0  0  0  0  0  0  0  0  0  0  0  0
   51.5289   29.5111   39.0049 H   0  0  0  0  0  0  0  0  0  0  0  0
   45.2796   33.5557   46.6922 H   0  0  0  0  0  0  0  0  0  0  0  0
   46.1982   32.5508   44.5439 H   0  0  0  0  0  0  0  0  0  0  0  0
   43.9877   37.0056   44.6556 H   0  0  0  0  0  0  0  0  0  0  0  0
  1 16  1  0
  1  2  1  0
  3  8  1  6
  3  1  1  0
  3  2  1  0
  4  3  1  0
  4  6  1  0
  4  5  1  0
  7  4  1  0
  8  9  1  0
 10 15  1  0
 10  9  1  0
 11 10  1  0
 12 13  1  0
 12 11  1  0
 13 14  1  0
 14 15  1  0
 16 20  1  0
 17 16  2  0
 18 23  2  0
 19 18  1  0
 20 21  1  0
 20 19  2  0
 21 22  2  0
 22 23  1  0
  1 24  1  6
  2 25  1  0
  2 26  1  0
  8 27  1  0
  8 28  1  0
  9 29  1  0
  9 30  1  0
 11 31  1  0
 11 32  1  0
 12 33  1  0
 12 34  1  0
 13 35  1  0
 13 36  1  0
 14 37  1  0
 14 38  1  0
 15 39  1  0
 15 40  1  0
 18 41  1  0
 19 42  1  0
 22 43  1  0
M  ISO  8  24  13  25  13  26  13  27   8  28   8  29   8  30   8  31  13
M  ISO  8  32  13  33  13  34  13  35  13  36  13  37  13  38  13  39  13
M  ISO  4  40  13  41  14  42  14  43  14
M  END
>  <minimizedAffinity>  (1) 
-5.17584229

>  <minimizedRMSD>  (1) 
0.730215549

$$$$
