
     RDKit          3D

 41 44  0  0  1  0  0  0  0  0999 V2000
   45.2710   32.9040   42.2590 C   0  0  2  0  0  0  0  0  0  0  0  0
   44.9330   33.2140   43.6590 C   0  0  0  0  0  0  0  0  0  0  0  0
   45.5910   34.2320   42.8770 C   0  0  2  0  0  0  0  0  0  0  0  0
   44.8090   35.4710   42.7040 C   0  0  0  0  0  0  0  0  0  0  0  0
   43.6950   35.6080   43.5030 F   0  0  0  0  0  0  0  0  0  0  0  0
   45.6390   36.5260   43.1230 F   0  0  0  0  0  0  0  0  0  0  0  0
   44.5410   35.8340   41.3870 F   0  0  0  0  0  0  0  0  0  0  0  0
   47.0560   34.4680   42.6600 C   0  0  0  0  0  0  0  0  0  0  0  0
   47.4610   34.9370   41.3190 C   0  0  0  0  0  0  0  0  0  0  0  0
   48.1150   33.9790   40.4710 N   0  0  0  0  0  0  0  0  0  0  0  0
   48.7200   33.0010   41.1960 C   0  0  0  0  0  0  0  0  0  0  0  0
   49.3360   32.0640   40.4160 N   0  0  0  0  0  0  0  0  0  0  0  0
   49.1340   32.4260   39.1540 C   0  0  0  0  0  0  0  0  0  0  0  0
   49.4340   32.0110   37.8730 C   0  0  0  0  0  0  0  0  0  0  0  0
   49.0160   32.7180   36.8060 N   0  0  0  0  0  0  0  0  0  0  0  0
   48.2940   33.8480   36.9290 C   0  0  0  0  0  0  0  0  0  0  0  0
   48.0050   34.2470   38.1610 N   0  0  0  0  0  0  0  0  0  0  0  0
   48.4020   33.5740   39.2320 C   0  0  0  0  0  0  0  0  0  0  0  0
   50.2080   30.7990   37.7650 N   0  0  0  0  0  0  0  0  0  0  0  0
   44.2930   32.8540   41.1750 C   0  0  0  0  0  0  0  0  0  0  0  0
   44.7700   32.9760   40.0430 O   0  0  0  0  0  0  0  0  0  0  0  0
   41.0580   31.3450   42.1580 C   0  0  0  0  0  0  0  0  0  0  0  0
   42.4680   31.4550   41.9210 C   0  0  0  0  0  0  0  0  0  0  0  0
   42.8960   32.6650   41.4610 C   0  0  0  0  0  0  0  0  0  0  0  0
   41.9920   33.6580   41.2620 N   0  0  0  0  0  0  0  0  0  0  0  0
   40.6700   33.5360   41.4880 C   0  0  0  0  0  0  0  0  0  0  0  0
   40.1770   32.3520   41.9500 N   0  0  0  0  0  0  0  0  0  0  0  0
   45.8065   32.0744   41.7743 H   0  0  0  0  0  0  0  0  0  0  0  0
   43.8801   33.3454   43.9489 H   0  0  0  0  0  0  0  0  0  0  0  0
   45.1463   32.7312   44.6241 H   0  0  0  0  0  0  0  0  0  0  0  0
   47.3838   35.2227   43.3901 H   0  0  0  0  0  0  0  0  0  0  0  0
   47.5280   33.4812   42.7759 H   0  0  0  0  0  0  0  0  0  0  0  0
   46.5549   35.2797   40.7979 H   0  0  0  0  0  0  0  0  0  0  0  0
   48.2104   35.7213   41.5010 H   0  0  0  0  0  0  0  0  0  0  0  0
   48.7141   32.9677   42.2955 H   0  0  0  0  0  0  0  0  0  0  0  0
   47.9589   34.4148   36.0478 H   0  0  0  0  0  0  0  0  0  0  0  0
   50.4663   30.4339   36.8372 H   0  0  0  0  0  0  0  0  0  0  0  0
   50.5025   30.2985   38.6157 H   0  0  0  0  0  0  0  0  0  0  0  0
   40.6692   30.3859   42.5308 H   0  0  0  0  0  0  0  0  0  0  0  0
   43.1591   30.6179   42.0987 H   0  0  0  0  0  0  0  0  0  0  0  0
   39.9943   34.3838   41.3016 H   0  0  0  0  0  0  0  0  0  0  0  0
  1  3  1  0
  1  2  1  0
  3  8  1  1
  3  2  1  0
  4  3  1  0
  4  6  1  0
  4  5  1  0
  7  4  1  0
  9  8  1  0
 10 11  1  0
 10  9  1  0
 12 11  2  0
 13 18  2  0
 13 12  1  0
 14 13  1  0
 15 16  1  0
 15 14  2  0
 16 17  2  0
 17 18  1  0
 18 10  1  0
 19 14  1  0
 20 24  1  0
 20  1  1  0
 21 20  2  0
 23 22  2  0
 24 23  1  0
 25 24  2  0
 25 26  1  0
 26 27  2  0
 27 22  1  0
  1 28  1  1
  2 29  1  0
  2 30  1  0
  8 31  1  0
  8 32  1  0
  9 33  1  0
  9 34  1  0
 11 35  1  0
 16 36  1  0
 19 37  1  0
 19 38  1  0
 22 39  1  0
 23 40  1  0
 26 41  1  0
M  ISO  8  28  13  29  13  30  13  31   8  32   8  33   8  34   8  35  14
M  ISO  4  36  14  39  14  40  14  41  14
M  END
>  <minimizedAffinity>  (1) 
-4.95750952

>  <minimizedRMSD>  (1) 
4.88541555

$$$$
