
     RDKit          3D

 30 32  0  0  1  0  0  0  0  0999 V2000
   47.2200   34.8950   41.2290 C   0  0  2  0  0  0  0  0  0  0  0  0
   48.4910   35.4420   41.6950 C   0  0  0  0  0  0  0  0  0  0  0  0
   48.9900   34.5670   42.8480 C   0  0  0  0  0  0  0  0  0  0  0  0
   48.0040   33.4290   42.9920 C   0  0  0  0  0  0  0  0  0  0  0  0
   46.7660   33.9650   42.3710 C   0  0  1  0  0  0  0  0  0  0  0  0
   47.2410   34.0520   40.0200 C   0  0  0  0  0  0  0  0  0  0  0  0
   48.2190   34.2990   39.0290 C   0  0  0  0  0  0  0  0  0  0  0  0
   48.2560   33.4900   37.8930 C   0  0  0  0  0  0  0  0  0  0  0  0
   47.3180   32.4890   37.8190 N   0  0  0  0  0  0  0  0  0  0  0  0
   46.3980   32.2790   38.7820 C   0  0  0  0  0  0  0  0  0  0  0  0
   46.3630   33.0540   39.8680 N   0  0  0  0  0  0  0  0  0  0  0  0
   45.9400   34.6630   43.3140 N   0  0  0  0  0  0  0  0  0  0  0  0
   45.2720   35.8220   43.3580 C   0  0  0  0  0  0  0  0  0  0  0  0
   44.6400   35.9430   44.5770 C   0  0  0  0  0  0  0  0  0  0  0  0
   44.9480   34.8250   45.2610 N   0  0  0  0  0  0  0  0  0  0  0  0
   45.7360   34.0460   44.5000 C   0  0  0  0  0  0  0  0  0  0  0  0
   46.5856   35.7558   40.9710 H   0  0  0  0  0  0  0  0  0  0  0  0
   49.2242   35.4325   40.8751 H   0  0  0  0  0  0  0  0  0  0  0  0
   48.3583   36.4801   42.0336 H   0  0  0  0  0  0  0  0  0  0  0  0
   49.9914   34.1736   42.6188 H   0  0  0  0  0  0  0  0  0  0  0  0
   49.0626   35.1464   43.7802 H   0  0  0  0  0  0  0  0  0  0  0  0
   48.3559   32.5336   42.4588 H   0  0  0  0  0  0  0  0  0  0  0  0
   47.8594   33.1159   44.0365 H   0  0  0  0  0  0  0  0  0  0  0  0
   46.1420   33.1416   41.9933 H   0  0  0  0  0  0  0  0  0  0  0  0
   48.9418   35.1190   39.1523 H   0  0  0  0  0  0  0  0  0  0  0  0
   48.9988   33.6458   37.0967 H   0  0  0  0  0  0  0  0  0  0  0  0
   45.6699   31.4618   38.6716 H   0  0  0  0  0  0  0  0  0  0  0  0
   45.2333   36.5636   42.5465 H   0  0  0  0  0  0  0  0  0  0  0  0
   44.0137   36.7797   44.9199 H   0  0  0  0  0  0  0  0  0  0  0  0
   46.1468   33.0687   44.7933 H   0  0  0  0  0  0  0  0  0  0  0  0
  1  2  1  0
  1  5  1  0
  2  3  1  0
  3  4  1  0
  5  4  1  0
  5 12  1  0
  6  1  1  0
  7  6  2  0
  8  7  1  0
  9  8  2  0
  9 10  1  0
 10 11  2  0
 11  6  1  0
 12 13  1  0
 12 16  1  0
 13 14  2  0
 14 15  1  0
 16 15  2  0
  1 17  1  6
  2 18  1  0
  2 19  1  0
  3 20  1  0
  3 21  1  0
  4 22  1  0
  4 23  1  0
  5 24  1  6
  7 25  1  0
  8 26  1  0
 10 27  1  0
 13 28  1  0
 14 29  1  0
 16 30  1  0
M  ISO  8  17  13  18  13  19  13  20  13  21  13  22  13  23  13  24  13
M  ISO  6  25  14  26  14  27  14  28  14  29  14  30  14
M  END
>  <minimizedAffinity>  (1) 
-4.8074255

>  <minimizedRMSD>  (1) 
3.21133494

$$$$
