
     RDKit          3D

 30 31  0  0  1  0  0  0  0  0999 V2000
   47.3310   32.9570   42.2630 C   0  0  2  0  0  0  0  0  0  0  0  0
   48.4950   33.3690   43.0670 C   0  0  0  0  0  0  0  0  0  0  0  0
   48.5000   33.6650   41.6490 C   0  0  2  0  0  0  0  0  0  0  0  0
   48.5740   35.1090   41.3460 C   0  0  0  0  0  0  0  0  0  0  0  0
   47.7460   35.9350   42.0770 F   0  0  0  0  0  0  0  0  0  0  0  0
   49.8610   35.5360   41.7230 F   0  0  0  0  0  0  0  0  0  0  0  0
   48.5580   35.4390   39.9960 F   0  0  0  0  0  0  0  0  0  0  0  0
   48.9800   32.8550   40.4910 C   0  0  0  0  0  0  0  0  0  0  0  0
   50.2690   32.1230   40.6710 C   0  0  0  0  0  0  0  0  0  0  0  0
   50.1110   30.7450   41.0550 N   0  0  0  0  0  0  0  0  0  0  0  0
   46.0340   33.6530   42.2830 C   0  0  0  0  0  0  0  0  0  0  0  0
   45.4330   33.6790   41.2060 O   0  0  0  0  0  0  0  0  0  0  0  0
   45.1270   34.1780   45.8380 C   0  0  0  0  0  0  0  0  0  0  0  0
   45.6620   33.5340   44.6670 C   0  0  0  0  0  0  0  0  0  0  0  0
   45.5480   34.2360   43.5060 C   0  0  0  0  0  0  0  0  0  0  0  0
   44.9590   35.4570   43.5280 N   0  0  0  0  0  0  0  0  0  0  0  0
   44.4670   36.0390   44.6370 C   0  0  0  0  0  0  0  0  0  0  0  0
   44.5490   35.3860   45.8320 N   0  0  0  0  0  0  0  0  0  0  0  0
   46.7947   32.0037   42.1467 H   0  0  0  0  0  0  0  0  0  0  0  0
   48.3929   34.1877   43.7946 H   0  0  0  0  0  0  0  0  0  0  0  0
   49.1849   32.8441   43.7442 H   0  0  0  0  0  0  0  0  0  0  0  0
   48.2036   32.1105   40.2607 H   0  0  0  0  0  0  0  0  0  0  0  0
   49.1716   33.5834   39.6893 H   0  0  0  0  0  0  0  0  0  0  0  0
   50.8212   32.1560   39.7202 H   0  0  0  0  0  0  0  0  0  0  0  0
   50.8066   32.6221   41.4906 H   0  0  0  0  0  0  0  0  0  0  0  0
   50.1028   30.6737   42.0825 H   0  0  0  0  0  0  0  0  0  0  0  0
   49.2230   30.3834   40.6787 H   0  0  0  0  0  0  0  0  0  0  0  0
   45.1973   33.6447   46.7975 H   0  0  0  0  0  0  0  0  0  0  0  0
   46.1319   32.5403   44.7075 H   0  0  0  0  0  0  0  0  0  0  0  0
   44.0020   37.0343   44.5804 H   0  0  0  0  0  0  0  0  0  0  0  0
  1 11  1  0
  1  2  1  0
  3  8  1  6
  3  1  1  0
  3  2  1  0
  4  3  1  0
  4  6  1  0
  4  5  1  0
  7  4  1  0
  8  9  1  0
  9 10  1  0
 11 15  1  0
 12 11  2  0
 14 13  2  0
 15 16  2  0
 15 14  1  0
 16 17  1  0
 17 18  2  0
 18 13  1  0
  1 19  1  6
  2 20  1  0
  2 21  1  0
  8 22  1  0
  8 23  1  0
  9 24  1  0
  9 25  1  0
 10 26  1  0
 10 27  1  0
 13 28  1  0
 14 29  1  0
 17 30  1  0
M  ISO  8  19  13  20  13  21  13  22   8  23   8  24   8  25   8  26   5
M  ISO  4  27   5  28  14  29  14  30  14
M  END
>  <minimizedAffinity>  (1) 
-4.5698514

>  <minimizedRMSD>  (1) 
0.274934351

$$$$
