
     RDKit          3D

 29 30  0  0  1  0  0  0  0  0999 V2000
   47.3290   32.9460   42.2650 C   0  0  2  0  0  0  0  0  0  0  0  0
   48.4890   33.3660   43.0700 C   0  0  0  0  0  0  0  0  0  0  0  0
   48.4990   33.6560   41.6530 C   0  0  2  0  0  0  0  0  0  0  0  0
   48.5660   35.0990   41.3390 C   0  0  0  0  0  0  0  0  0  0  0  0
   47.7420   35.9270   42.0740 F   0  0  0  0  0  0  0  0  0  0  0  0
   49.8550   35.5270   41.7060 F   0  0  0  0  0  0  0  0  0  0  0  0
   48.5420   35.4250   39.9890 F   0  0  0  0  0  0  0  0  0  0  0  0
   48.9760   32.8510   40.4890 C   0  0  0  0  0  0  0  0  0  0  0  0
   50.2530   32.0980   40.6590 C   0  0  0  0  0  0  0  0  0  0  0  0
   50.1370   30.8400   41.1860 O   0  0  0  0  0  0  0  0  0  0  0  0
   46.0300   33.6430   42.2890 C   0  0  0  0  0  0  0  0  0  0  0  0
   45.4280   33.6620   41.2110 O   0  0  0  0  0  0  0  0  0  0  0  0
   45.1220   34.1830   45.8420 C   0  0  0  0  0  0  0  0  0  0  0  0
   45.6560   33.5310   44.6730 C   0  0  0  0  0  0  0  0  0  0  0  0
   45.5450   34.2300   43.5090 C   0  0  0  0  0  0  0  0  0  0  0  0
   44.9580   35.4520   43.5270 N   0  0  0  0  0  0  0  0  0  0  0  0
   44.4670   36.0430   44.6300 C   0  0  0  0  0  0  0  0  0  0  0  0
   44.5470   35.3940   45.8280 N   0  0  0  0  0  0  0  0  0  0  0  0
   46.7964   31.9910   42.1452 H   0  0  0  0  0  0  0  0  0  0  0  0
   48.3815   34.1874   43.7936 H   0  0  0  0  0  0  0  0  0  0  0  0
   49.1784   32.8462   43.7516 H   0  0  0  0  0  0  0  0  0  0  0  0
   48.1902   32.1200   40.2478 H   0  0  0  0  0  0  0  0  0  0  0  0
   49.1843   33.5886   39.7000 H   0  0  0  0  0  0  0  0  0  0  0  0
   50.7256   32.0073   39.6698 H   0  0  0  0  0  0  0  0  0  0  0  0
   50.8446   32.6733   41.3864 H   0  0  0  0  0  0  0  0  0  0  0  0
   50.1420   30.8946   42.1745 H   0  0  0  0  0  0  0  0  0  0  0  0
   45.1904   33.6548   46.8045 H   0  0  0  0  0  0  0  0  0  0  0  0
   46.1220   32.5356   44.7176 H   0  0  0  0  0  0  0  0  0  0  0  0
   44.0054   37.0395   44.5677 H   0  0  0  0  0  0  0  0  0  0  0  0
  1 11  1  0
  1  2  1  0
  3  8  1  6
  3  1  1  0
  3  2  1  0
  4  3  1  0
  4  6  1  0
  4  5  1  0
  7  4  1  0
  8  9  1  0
  9 10  1  0
 11 15  1  0
 12 11  2  0
 14 13  2  0
 15 16  2  0
 15 14  1  0
 16 17  1  0
 17 18  2  0
 18 13  1  0
  1 19  1  6
  2 20  1  0
  2 21  1  0
  8 22  1  0
  8 23  1  0
  9 24  1  0
  9 25  1  0
 10 26  1  0
 13 27  1  0
 14 28  1  0
 17 29  1  0
M  ISO  8  19  13  20  13  21  13  22   8  23   8  24   8  25   8  26   3
M  ISO  3  27  14  28  14  29  14
M  END
>  <minimizedAffinity>  (1) 
-4.56887817

>  <minimizedRMSD>  (1) 
0.265079528

$$$$
