
     RDKit          3D

 35 37  0  0  1  0  0  0  0  0999 V2000
   47.1050   33.2430   41.8190 C   0  0  2  0  0  0  0  0  0  0  0  0
   48.2980   33.2960   42.6750 C   0  0  0  0  0  0  0  0  0  0  0  0
   48.3920   33.8520   41.3440 C   0  0  2  0  0  0  0  0  0  0  0  0
   48.7020   35.2930   41.3090 C   0  0  0  0  0  0  0  0  0  0  0  0
   47.9300   36.1070   42.1080 F   0  0  0  0  0  0  0  0  0  0  0  0
   49.9920   35.4370   41.8500 F   0  0  0  0  0  0  0  0  0  0  0  0
   48.8710   35.8370   40.0390 F   0  0  0  0  0  0  0  0  0  0  0  0
   48.7550   33.1860   40.0520 C   0  0  0  0  0  0  0  0  0  0  0  0
   49.2230   31.7790   40.1440 C   0  0  0  0  0  0  0  0  0  0  0  0
   50.6110   31.6210   39.7690 N   0  0  0  0  0  0  0  0  0  0  0  0
   51.3780   31.4240   38.7070 C   0  0  0  0  0  0  0  0  0  0  0  0
   52.7220   31.3350   38.9940 C   0  0  0  0  0  0  0  0  0  0  0  0
   52.8140   31.4850   40.3200 N   0  0  0  0  0  0  0  0  0  0  0  0
   51.5590   31.6520   40.7600 C   0  0  0  0  0  0  0  0  0  0  0  0
   45.9400   34.1160   41.9760 C   0  0  0  0  0  0  0  0  0  0  0  0
   45.3900   34.4420   40.9210 O   0  0  0  0  0  0  0  0  0  0  0  0
   45.1830   34.1420   45.6000 C   0  0  0  0  0  0  0  0  0  0  0  0
   45.6650   33.6650   44.3370 C   0  0  0  0  0  0  0  0  0  0  0  0
   45.5090   34.5210   43.2870 C   0  0  0  0  0  0  0  0  0  0  0  0
   44.9300   35.7290   43.4960 N   0  0  0  0  0  0  0  0  0  0  0  0
   44.4840   36.1590   44.6930 C   0  0  0  0  0  0  0  0  0  0  0  0
   44.6100   35.3480   45.7840 N   0  0  0  0  0  0  0  0  0  0  0  0
   46.4220   32.4316   41.5272 H   0  0  0  0  0  0  0  0  0  0  0  0
   48.3129   33.9661   43.5472 H   0  0  0  0  0  0  0  0  0  0  0  0
   48.8743   32.5435   43.2332 H   0  0  0  0  0  0  0  0  0  0  0  0
   47.8650   33.2013   39.4057 H   0  0  0  0  0  0  0  0  0  0  0  0
   49.6115   33.7543   39.6603 H   0  0  0  0  0  0  0  0  0  0  0  0
   49.0985   31.4350   41.1814 H   0  0  0  0  0  0  0  0  0  0  0  0
   48.6216   31.1848   39.4403 H   0  0  0  0  0  0  0  0  0  0  0  0
   50.9769   31.3390   37.6863 H   0  0  0  0  0  0  0  0  0  0  0  0
   53.5458   31.1745   38.2830 H   0  0  0  0  0  0  0  0  0  0  0  0
   51.3113   31.8007   41.8214 H   0  0  0  0  0  0  0  0  0  0  0  0
   45.2874   33.4822   46.4740 H   0  0  0  0  0  0  0  0  0  0  0  0
   46.1297   32.6746   44.2225 H   0  0  0  0  0  0  0  0  0  0  0  0
   44.0232   37.1531   44.7899 H   0  0  0  0  0  0  0  0  0  0  0  0
  1 15  1  0
  1  2  1  0
  3  8  1  6
  3  1  1  0
  3  2  1  0
  4  3  1  0
  4  6  1  0
  4  5  1  0
  7  4  1  0
  8  9  1  0
 10  9  1  0
 10 14  1  0
 11 12  2  0
 11 10  1  0
 12 13  1  0
 13 14  2  0
 15 19  1  0
 16 15  2  0
 17 22  2  0
 18 17  1  0
 19 20  1  0
 19 18  2  0
 20 21  2  0
 21 22  1  0
  1 23  1  6
  2 24  1  0
  2 25  1  0
  8 26  1  0
  8 27  1  0
  9 28  1  0
  9 29  1  0
 11 30  1  0
 12 31  1  0
 14 32  1  0
 17 33  1  0
 18 34  1  0
 21 35  1  0
M  ISO  8  23  13  24  13  25  13  26   8  27   8  28   8  29   8  30  14
M  ISO  5  31  14  32  14  33  14  34  14  35  14
M  END
>  <minimizedAffinity>  (1) 
-5.30119562

>  <minimizedRMSD>  (1) 
1.28658807

$$$$
