
     RDKit          3D

 30 31  0  0  1  0  0  0  0  0999 V2000
   46.7320   35.1340   42.7580 C   0  0  2  0  0  0  0  0  0  0  0  0
   47.9600   35.0430   41.9500 C   0  0  0  0  0  0  0  0  0  0  0  0
   48.5870   33.6860   42.2650 C   0  0  0  0  0  0  0  0  0  0  0  0
   47.6160   32.9280   43.1250 C   0  0  0  0  0  0  0  0  0  0  0  0
   46.8590   34.0200   43.8010 C   0  0  2  0  0  0  0  0  0  0  0  0
   45.4690   34.9150   42.0400 C   0  0  0  0  0  0  0  0  0  0  0  0
   45.4440   34.1610   40.8600 C   0  0  0  0  0  0  0  0  0  0  0  0
   44.2240   33.9480   40.2180 C   0  0  0  0  0  0  0  0  0  0  0  0
   43.1110   34.5040   40.8020 N   0  0  0  0  0  0  0  0  0  0  0  0
   43.1570   35.2240   41.9340 C   0  0  0  0  0  0  0  0  0  0  0  0
   44.3320   35.4100   42.5210 N   0  0  0  0  0  0  0  0  0  0  0  0
   45.6350   33.5390   44.3290 N   0  0  0  0  0  0  0  0  0  0  0  0
   45.9570   33.1060   45.6770 C   0  0  0  0  0  0  0  0  0  0  0  0
   46.8790   33.3590   46.5860 N   0  0  0  0  0  0  0  0  0  0  0  0
   45.3610   32.1840   46.6180 N   0  0  0  0  0  0  0  0  0  0  0  0
   47.5940   34.0520   46.3140 H   0  0  0  0  0  0  0  0  0  0  0  0
   46.6695   36.1607   43.1478 H   0  0  0  0  0  0  0  0  0  0  0  0
   48.6531   35.8536   42.2194 H   0  0  0  0  0  0  0  0  0  0  0  0
   47.7381   35.1392   40.8769 H   0  0  0  0  0  0  0  0  0  0  0  0
   48.7737   33.1331   41.3325 H   0  0  0  0  0  0  0  0  0  0  0  0
   49.5471   33.8147   42.7861 H   0  0  0  0  0  0  0  0  0  0  0  0
   46.9492   32.3019   42.5139 H   0  0  0  0  0  0  0  0  0  0  0  0
   48.1021   32.2337   43.8262 H   0  0  0  0  0  0  0  0  0  0  0  0
   47.3702   34.4212   44.6885 H   0  0  0  0  0  0  0  0  0  0  0  0
   46.3731   33.7428   40.4454 H   0  0  0  0  0  0  0  0  0  0  0  0
   44.1560   33.3631   39.2889 H   0  0  0  0  0  0  0  0  0  0  0  0
   42.2397   35.6508   42.3658 H   0  0  0  0  0  0  0  0  0  0  0  0
   44.7187   33.5042   43.8598 H   0  0  0  0  0  0  0  0  0  0  0  0
   45.7902   32.0437   47.5438 H   0  0  0  0  0  0  0  0  0  0  0  0
   44.5073   31.6675   46.3626 H   0  0  0  0  0  0  0  0  0  0  0  0
  1  5  1  0
  2  3  1  0
  2  1  1  0
  3  4  1  0
  4  5  1  0
  5 12  1  0
  6 11  1  0
  6  1  1  0
  7  6  2  0
  8  9  2  0
  8  7  1  0
  9 10  1  0
 10 11  2  0
 12 13  1  0
 13 14  2  0
 13 15  1  0
 16 14  1  0
  1 17  1  1
  2 18  1  0
  2 19  1  0
  3 20  1  0
  3 21  1  0
  4 22  1  0
  4 23  1  0
  5 24  1  1
  7 25  1  0
  8 26  1  0
 10 27  1  0
 12 28  1  0
 15 29  1  0
 15 30  1  0
M  ISO  8  17  13  18  13  19  13  20  13  21  13  22  13  23  13  24  13
M  ISO  3  25  14  26  14  27  14
M  END
>  <minimizedAffinity>  (1) 
-4.80732059

>  <minimizedRMSD>  (1) 
2.35615683

$$$$
