
     RDKit          3D

 38 40  0  0  1  0  0  0  0  0999 V2000
   48.2360   32.3380   42.2250 C   0  0  2  0  0  0  0  0  0  0  0  0
   49.1270   33.4140   42.5640 C   0  0  0  0  0  0  0  0  0  0  0  0
   48.6400   33.4150   41.2180 C   0  0  2  0  0  0  0  0  0  0  0  0
   47.8230   34.5450   40.8010 C   0  0  0  0  0  0  0  0  0  0  0  0
   47.5490   35.4940   41.7490 F   0  0  0  0  0  0  0  0  0  0  0  0
   48.6110   35.2540   39.8620 F   0  0  0  0  0  0  0  0  0  0  0  0
   46.6970   34.2410   40.0420 F   0  0  0  0  0  0  0  0  0  0  0  0
   49.2220   32.7230   40.0180 C   0  0  0  0  0  0  0  0  0  0  0  0
   50.1040   31.5530   40.2680 C   0  0  0  0  0  0  0  0  0  0  0  0
   51.2620   31.5370   39.4030 N   0  0  0  0  0  0  0  0  0  0  0  0
   51.5190   31.6590   38.1020 C   0  0  0  0  0  0  0  0  0  0  0  0
   52.8740   31.5580   37.8170 C   0  0  0  0  0  0  0  0  0  0  0  0
   53.4800   31.3640   38.9940 N   0  0  0  0  0  0  0  0  0  0  0  0
   52.5150   31.3530   39.9320 C   0  0  0  0  0  0  0  0  0  0  0  0
   46.8140   32.2610   42.5860 C   0  0  0  0  0  0  0  0  0  0  0  0
   46.1140   31.6210   41.8160 O   0  0  0  0  0  0  0  0  0  0  0  0
   46.0160   32.9170   46.1500 C   0  0  0  0  0  0  0  0  0  0  0  0
   46.5430   32.2620   44.9870 C   0  0  0  0  0  0  0  0  0  0  0  0
   46.3300   32.9020   43.7860 C   0  0  0  0  0  0  0  0  0  0  0  0
   45.6630   34.0680   43.7730 N   0  0  0  0  0  0  0  0  0  0  0  0
   45.1740   34.6710   44.8750 C   0  0  0  0  0  0  0  0  0  0  0  0
   45.3510   34.0870   46.1070 N   0  0  0  0  0  0  0  0  0  0  0  0
   44.4470   35.9470   44.8420 C   0  0  0  0  0  0  0  0  0  0  0  0
   48.3012   31.2486   42.3628 H   0  0  0  0  0  0  0  0  0  0  0  0
   48.7861   34.1952   43.2594 H   0  0  0  0  0  0  0  0  0  0  0  0
   50.1378   33.4440   42.9970 H   0  0  0  0  0  0  0  0  0  0  0  0
   48.3829   32.3776   39.3963 H   0  0  0  0  0  0  0  0  0  0  0  0
   49.8743   33.4734   39.5475 H   0  0  0  0  0  0  0  0  0  0  0  0
   50.4451   31.5855   41.3133 H   0  0  0  0  0  0  0  0  0  0  0  0
   49.5199   30.6442   40.0608 H   0  0  0  0  0  0  0  0  0  0  0  0
   50.7441   31.8217   37.3384 H   0  0  0  0  0  0  0  0  0  0  0  0
   53.3508   31.6239   36.8279 H   0  0  0  0  0  0  0  0  0  0  0  0
   52.7093   31.2119   41.0055 H   0  0  0  0  0  0  0  0  0  0  0  0
   46.1632   32.4376   47.1290 H   0  0  0  0  0  0  0  0  0  0  0  0
   47.0844   31.3066   45.0508 H   0  0  0  0  0  0  0  0  0  0  0  0
   44.2540   36.2857   45.8706 H   0  0  0  0  0  0  0  0  0  0  0  0
   45.0517   36.7000   44.3153 H   0  0  0  0  0  0  0  0  0  0  0  0
   43.4909   35.8108   44.3153 H   0  0  0  0  0  0  0  0  0  0  0  0
  1  2  1  0
  1 15  1  0
  3  8  1  6
  3  1  1  0
  3  2  1  0
  4  3  1  0
  4  5  1  0
  6  4  1  0
  7  4  1  0
  8  9  1  0
 10 14  1  0
 10  9  1  0
 11 10  1  0
 12 11  2  0
 12 13  1  0
 13 14  2  0
 15 19  1  0
 16 15  2  0
 18 17  2  0
 19 18  1  0
 20 19  2  0
 20 21  1  0
 21 22  2  0
 22 17  1  0
 23 21  1  0
  1 24  1  6
  2 25  1  0
  2 26  1  0
  8 27  1  0
  8 28  1  0
  9 29  1  0
  9 30  1  0
 11 31  1  0
 12 32  1  0
 14 33  1  0
 17 34  1  0
 18 35  1  0
 23 36  1  0
 23 37  1  0
 23 38  1  0
M  ISO  8  24  13  25  13  26  13  27   8  28   8  29   8  30   8  31  14
M  ISO  7  32  14  33  14  34  14  35  14  36   8  37   8  38   8
M  END
>  <minimizedAffinity>  (1) 
-4.97587633

>  <minimizedRMSD>  (1) 
1.6193074

$$$$
