
     RDKit          3D

 38 40  0  0  1  0  0  0  0  0999 V2000
   48.7110   33.2360   42.7760 C   0  0  2  0  0  0  0  0  0  0  0  0
   47.7670   32.3840   42.1060 C   0  0  0  0  0  0  0  0  0  0  0  0
   47.6820   33.7790   41.7840 C   0  0  2  0  0  0  0  0  0  0  0  0
   47.9420   34.1640   40.4060 C   0  0  0  0  0  0  0  0  0  0  0  0
   48.5230   33.2240   39.5990 F   0  0  0  0  0  0  0  0  0  0  0  0
   46.6650   34.3400   39.8160 F   0  0  0  0  0  0  0  0  0  0  0  0
   48.5080   35.4210   40.2170 F   0  0  0  0  0  0  0  0  0  0  0  0
   46.8910   34.8480   42.4850 C   0  0  0  0  0  0  0  0  0  0  0  0
   45.5750   34.4550   43.0540 C   0  0  0  0  0  0  0  0  0  0  0  0
   44.4880   34.6270   42.1180 N   0  0  0  0  0  0  0  0  0  0  0  0
   43.8070   35.6370   41.5780 C   0  0  0  0  0  0  0  0  0  0  0  0
   42.8240   35.1990   40.7000 C   0  0  0  0  0  0  0  0  0  0  0  0
   42.9010   33.8680   40.6960 N   0  0  0  0  0  0  0  0  0  0  0  0
   43.8930   33.5330   41.5410 C   0  0  0  0  0  0  0  0  0  0  0  0
   50.1270   33.3910   42.4180 C   0  0  0  0  0  0  0  0  0  0  0  0
   50.5880   34.5100   42.5850 O   0  0  0  0  0  0  0  0  0  0  0  0
   51.8780   30.1230   42.2500 C   0  0  0  0  0  0  0  0  0  0  0  0
   51.0970   31.2050   42.7740 C   0  0  0  0  0  0  0  0  0  0  0  0
   50.8800   32.2630   41.9200 C   0  0  0  0  0  0  0  0  0  0  0  0
   51.3960   32.2210   40.6810 N   0  0  0  0  0  0  0  0  0  0  0  0
   52.1290   31.1950   40.2020 C   0  0  0  0  0  0  0  0  0  0  0  0
   52.3840   30.1080   41.0040 N   0  0  0  0  0  0  0  0  0  0  0  0
   52.6840   31.1870   38.8270 C   0  0  0  0  0  0  0  0  0  0  0  0
   54.0010   31.5670   38.7920 F   0  0  0  0  0  0  0  0  0  0  0  0
   52.5140   29.9000   38.3330 F   0  0  0  0  0  0  0  0  0  0  0  0
   51.9370   32.0190   37.9850 F   0  0  0  0  0  0  0  0  0  0  0  0
   48.9956   33.3388   43.8335 H   0  0  0  0  0  0  0  0  0  0  0  0
   48.1272   31.6773   41.3438 H   0  0  0  0  0  0  0  0  0  0  0  0
   47.0310   31.6496   42.4651 H   0  0  0  0  0  0  0  0  0  0  0  0
   47.5088   35.2287   43.3117 H   0  0  0  0  0  0  0  0  0  0  0  0
   46.6539   35.5846   41.7032 H   0  0  0  0  0  0  0  0  0  0  0  0
   45.6213   33.3962   43.3486 H   0  0  0  0  0  0  0  0  0  0  0  0
   45.3774   35.1093   43.9159 H   0  0  0  0  0  0  0  0  0  0  0  0
   44.0011   36.6963   41.8019 H   0  0  0  0  0  0  0  0  0  0  0  0
   42.1243   35.8233   40.1249 H   0  0  0  0  0  0  0  0  0  0  0  0
   44.1943   32.4953   41.7470 H   0  0  0  0  0  0  0  0  0  0  0  0
   52.0739   29.2589   42.9019 H   0  0  0  0  0  0  0  0  0  0  0  0
   50.6949   31.1908   43.7978 H   0  0  0  0  0  0  0  0  0  0  0  0
  2  1  1  0
  3  4  1  6
  3  2  1  0
  3  8  1  0
  3  1  1  0
  5  4  1  0
  6  4  1  0
  7  4  1  0
  8  9  1  0
 10  9  1  0
 11 10  1  0
 12 11  2  0
 13 12  1  0
 13 14  2  0
 14 10  1  0
 15 16  2  0
 15  1  1  0
 17 18  2  0
 19 15  1  0
 19 18  1  0
 20 19  2  0
 21 20  1  0
 21 22  2  0
 22 17  1  0
 23 21  1  0
 24 23  1  0
 25 23  1  0
 26 23  1  0
  1 27  1  1
  2 28  1  0
  2 29  1  0
  8 30  1  0
  8 31  1  0
  9 32  1  0
  9 33  1  0
 11 34  1  0
 12 35  1  0
 14 36  1  0
 17 37  1  0
 18 38  1  0
M  ISO  8  27  13  28  13  29  13  30   8  31   8  32   8  33   8  34  14
M  ISO  4  35  14  36  14  37  14  38  14
M  END
>  <minimizedAffinity>  (1) 
-4.8458848

>  <minimizedRMSD>  (1) 
7.97519875

$$$$
