
     RDKit          3D

 39 42  0  0  1  0  0  0  0  0999 V2000
   45.4800   34.6850   41.1850 C   0  0  1  0  0  0  0  0  0  0  0  0
   46.6750   33.7200   40.9620 C   0  0  0  0  0  0  0  0  0  0  0  0
   46.5040   33.2640   39.5200 C   0  0  0  0  0  0  0  0  0  0  0  0
   45.0050   33.2520   39.2910 C   0  0  0  0  0  0  0  0  0  0  0  0
   44.4510   33.8660   40.5350 C   0  0  2  0  0  0  0  0  0  0  0  0
   43.0470   34.1470   40.6450 C   0  0  0  0  0  0  0  0  0  0  0  0
   42.3940   35.3150   40.2010 C   0  0  0  0  0  0  0  0  0  0  0  0
   41.0740   35.6240   40.2620 C   0  0  0  0  0  0  0  0  0  0  0  0
   40.2530   34.6920   40.8270 C   0  0  0  0  0  0  0  0  0  0  0  0
   40.7470   33.5170   41.3000 C   0  0  0  0  0  0  0  0  0  0  0  0
   39.8850   32.6030   41.8690 C   0  0  0  0  0  0  0  0  0  0  0  0
   40.3470   31.4120   42.3640 C   0  0  0  0  0  0  0  0  0  0  0  0
   41.7090   31.1150   42.2910 C   0  0  0  0  0  0  0  0  0  0  0  0
   42.5240   32.0660   41.7110 C   0  0  0  0  0  0  0  0  0  0  0  0
   42.1170   33.2610   41.2060 C   0  0  0  0  0  0  0  0  0  0  0  0
   44.6130   36.0100   44.5480 C   0  0  0  0  0  0  0  0  0  0  0  0
   44.9100   34.9120   45.3840 C   0  0  0  0  0  0  0  0  0  0  0  0
   45.4040   33.7410   44.7780 C   0  0  0  0  0  0  0  0  0  0  0  0
   45.5670   33.7270   43.4270 N   0  0  0  0  0  0  0  0  0  0  0  0
   45.2640   34.8160   42.6640 C   0  0  0  0  0  0  0  0  0  0  0  0
   44.7940   35.9360   43.2280 N   0  0  0  0  0  0  0  0  0  0  0  0
   45.5512   35.7161   40.8085 H   0  0  0  0  0  0  0  0  0  0  0  0
   47.6329   34.2436   41.0972 H   0  0  0  0  0  0  0  0  0  0  0  0
   46.6870   32.8832   41.6759 H   0  0  0  0  0  0  0  0  0  0  0  0
   46.9954   33.9666   38.8308 H   0  0  0  0  0  0  0  0  0  0  0  0
   46.9588   32.2787   39.3401 H   0  0  0  0  0  0  0  0  0  0  0  0
   44.7386   33.8495   38.4066 H   0  0  0  0  0  0  0  0  0  0  0  0
   44.6110   32.2425   39.1023 H   0  0  0  0  0  0  0  0  0  0  0  0
   44.2314   33.0700   41.2618 H   0  0  0  0  0  0  0  0  0  0  0  0
   43.0412   36.0780   39.7439 H   0  0  0  0  0  0  0  0  0  0  0  0
   40.6855   36.5777   39.8754 H   0  0  0  0  0  0  0  0  0  0  0  0
   39.1743   34.8946   40.9009 H   0  0  0  0  0  0  0  0  0  0  0  0
   38.8110   32.8336   41.9262 H   0  0  0  0  0  0  0  0  0  0  0  0
   39.6481   30.6933   42.8167 H   0  0  0  0  0  0  0  0  0  0  0  0
   42.1136   30.1679   42.6774 H   0  0  0  0  0  0  0  0  0  0  0  0
   43.5982   31.8368   41.6521 H   0  0  0  0  0  0  0  0  0  0  0  0
   44.2269   36.9399   44.9910 H   0  0  0  0  0  0  0  0  0  0  0  0
   44.7605   34.9693   46.4723 H   0  0  0  0  0  0  0  0  0  0  0  0
   45.6527   32.8569   45.3833 H   0  0  0  0  0  0  0  0  0  0  0  0
  1 20  1  0
  2  1  1  0
  3  2  1  0
  4  3  1  0
  4  5  1  0
  5  6  1  0
  5  1  1  0
  6 15  2  0
  7  8  2  0
  7  6  1  0
  8  9  1  0
  9 10  2  0
 10 11  1  0
 11 12  2  0
 13 12  1  0
 14 13  2  0
 15 10  1  0
 15 14  1  0
 16 17  2  0
 18 17  1  0
 19 18  2  0
 20 21  2  0
 20 19  1  0
 21 16  1  0
  1 22  1  6
  2 23  1  0
  2 24  1  0
  3 25  1  0
  3 26  1  0
  4 27  1  0
  4 28  1  0
  5 29  1  1
  7 30  1  0
  8 31  1  0
  9 32  1  0
 11 33  1  0
 12 34  1  0
 13 35  1  0
 14 36  1  0
 16 37  1  0
 17 38  1  0
 18 39  1  0
M  ISO  8  22  13  23  13  24  13  25  13  26  13  27  13  28  13  29  13
M  ISO  8  30  14  31  14  32  14  33  14  34  14  35  14  36  14  37  14
M  ISO  2  38  14  39  14
M  END
>  <minimizedAffinity>  (1) 
-5.87982559

>  <minimizedRMSD>  (1) 
2.77157521

$$$$
