
     RDKit          3D

 37 40  0  0  1  0  0  0  0  0999 V2000
   46.6040   35.0250   42.2090 C   0  0  1  0  0  0  0  0  0  0  0  0
   48.1260   35.0790   42.1530 C   0  0  0  0  0  0  0  0  0  0  0  0
   48.4530   35.0800   40.6810 C   0  0  0  0  0  0  0  0  0  0  0  0
   47.3570   34.2200   40.0800 C   0  0  0  0  0  0  0  0  0  0  0  0
   46.3400   33.9600   41.1820 C   0  0  2  0  0  0  0  0  0  0  0  0
   44.9580   34.0400   40.6550 C   0  0  0  0  0  0  0  0  0  0  0  0
   44.2530   35.1500   41.0010 N   0  0  0  0  0  0  0  0  0  0  0  0
   42.9740   35.3350   40.5810 C   0  0  0  0  0  0  0  0  0  0  0  0
   42.3410   34.4330   39.8040 N   0  0  0  0  0  0  0  0  0  0  0  0
   43.0190   33.3170   39.4420 C   0  0  0  0  0  0  0  0  0  0  0  0
   42.4420   32.3380   38.6430 C   0  0  0  0  0  0  0  0  0  0  0  0
   43.1590   31.1980   38.2840 C   0  0  0  0  0  0  0  0  0  0  0  0
   44.4550   31.0490   38.7310 C   0  0  0  0  0  0  0  0  0  0  0  0
   45.0390   32.0050   39.5210 C   0  0  0  0  0  0  0  0  0  0  0  0
   44.3190   33.1180   39.8630 C   0  0  0  0  0  0  0  0  0  0  0  0
   46.3630   33.2240   45.4460 C   0  0  0  0  0  0  0  0  0  0  0  0
   45.3490   33.9580   46.1080 C   0  0  0  0  0  0  0  0  0  0  0  0
   44.7620   35.0580   45.4380 C   0  0  0  0  0  0  0  0  0  0  0  0
   45.2140   35.3340   44.2000 N   0  0  0  0  0  0  0  0  0  0  0  0
   46.1790   34.6270   43.5810 C   0  0  0  0  0  0  0  0  0  0  0  0
   46.7530   33.5710   44.2070 N   0  0  0  0  0  0  0  0  0  0  0  0
   46.0669   35.9639   42.0089 H   0  0  0  0  0  0  0  0  0  0  0  0
   48.5000   35.9946   42.6344 H   0  0  0  0  0  0  0  0  0  0  0  0
   48.5930   34.2360   42.6833 H   0  0  0  0  0  0  0  0  0  0  0  0
   48.4227   36.1004   40.2712 H   0  0  0  0  0  0  0  0  0  0  0  0
   49.4636   34.7036   40.4641 H   0  0  0  0  0  0  0  0  0  0  0  0
   46.8790   34.7485   39.2420 H   0  0  0  0  0  0  0  0  0  0  0  0
   47.7671   33.2752   39.6937 H   0  0  0  0  0  0  0  0  0  0  0  0
   46.4363   32.9514   41.6104 H   0  0  0  0  0  0  0  0  0  0  0  0
   42.4394   36.2474   40.8838 H   0  0  0  0  0  0  0  0  0  0  0  0
   41.4079   32.4639   38.2898 H   0  0  0  0  0  0  0  0  0  0  0  0
   42.6964   30.4261   37.6514 H   0  0  0  0  0  0  0  0  0  0  0  0
   45.0270   30.1523   38.4503 H   0  0  0  0  0  0  0  0  0  0  0  0
   46.0727   31.8795   39.8755 H   0  0  0  0  0  0  0  0  0  0  0  0
   46.8338   32.3658   45.9478 H   0  0  0  0  0  0  0  0  0  0  0  0
   45.0244   33.6792   47.1214 H   0  0  0  0  0  0  0  0  0  0  0  0
   43.9712   35.6610   45.9081 H   0  0  0  0  0  0  0  0  0  0  0  0
  1 20  1  0
  2  1  1  0
  3  2  1  0
  4  3  1  0
  4  5  1  0
  5  1  1  0
  6  7  2  0
  6  5  1  0
  8  7  1  0
  9  8  2  0
 10  9  1  0
 10 15  2  0
 11 10  1  0
 12 11  2  0
 12 13  1  0
 13 14  2  0
 14 15  1  0
 15  6  1  0
 16 17  2  0
 18 17  1  0
 19 18  2  0
 20 19  1  0
 20 21  2  0
 21 16  1  0
  1 22  1  6
  2 23  1  0
  2 24  1  0
  3 25  1  0
  3 26  1  0
  4 27  1  0
  4 28  1  0
  5 29  1  1
  8 30  1  0
 11 31  1  0
 12 32  1  0
 13 33  1  0
 14 34  1  0
 16 35  1  0
 17 36  1  0
 18 37  1  0
M  ISO  8  22  13  23  13  24  13  25  13  26  13  27  13  28  13  29  13
M  ISO  8  30  14  31  14  32  14  33  14  34  14  35  14  36  14  37  14
M  END
>  <minimizedAffinity>  (1) 
-5.6645813

>  <minimizedRMSD>  (1) 
0.941055894

$$$$
