
     RDKit          3D

 33 35  0  0  1  0  0  0  0  0999 V2000
   46.4290   35.0940   42.1280 C   0  0  1  0  0  0  0  0  0  0  0  0
   47.9500   35.1800   42.0880 C   0  0  0  0  0  0  0  0  0  0  0  0
   48.3340   34.9830   40.6430 C   0  0  0  0  0  0  0  0  0  0  0  0
   47.2090   34.1160   40.0700 C   0  0  0  0  0  0  0  0  0  0  0  0
   46.1590   34.0110   41.1500 C   0  0  2  0  0  0  0  0  0  0  0  0
   46.0670   33.4580   45.4330 C   0  0  0  0  0  0  0  0  0  0  0  0
   45.1230   34.2690   46.0690 C   0  0  0  0  0  0  0  0  0  0  0  0
   44.6160   35.3680   45.3640 C   0  0  0  0  0  0  0  0  0  0  0  0
   45.0680   35.5920   44.0980 N   0  0  0  0  0  0  0  0  0  0  0  0
   45.9870   34.7810   43.5150 C   0  0  0  0  0  0  0  0  0  0  0  0
   46.4710   33.7300   44.1890 N   0  0  0  0  0  0  0  0  0  0  0  0
   44.8210   34.1360   40.5070 C   0  0  0  0  0  0  0  0  0  0  0  0
   43.9530   35.1020   40.9730 C   0  0  0  0  0  0  0  0  0  0  0  0
   42.7210   35.2200   40.3820 C   0  0  0  0  0  0  0  0  0  0  0  0
   42.3820   34.3790   39.3500 C   0  0  0  0  0  0  0  0  0  0  0  0
   43.2070   33.3920   38.8390 C   0  0  0  0  0  0  0  0  0  0  0  0
   44.4240   33.3200   39.4660 C   0  0  0  0  0  0  0  0  0  0  0  0
   45.8871   36.0161   41.8710 H   0  0  0  0  0  0  0  0  0  0  0  0
   48.2876   36.1648   42.4434 H   0  0  0  0  0  0  0  0  0  0  0  0
   48.4158   34.4244   42.7377 H   0  0  0  0  0  0  0  0  0  0  0  0
   48.3881   35.9485   40.1186 H   0  0  0  0  0  0  0  0  0  0  0  0
   49.3241   34.5172   40.5299 H   0  0  0  0  0  0  0  0  0  0  0  0
   46.7848   34.5883   39.1717 H   0  0  0  0  0  0  0  0  0  0  0  0
   47.5807   33.1229   39.7775 H   0  0  0  0  0  0  0  0  0  0  0  0
   46.1817   33.0483   41.6817 H   0  0  0  0  0  0  0  0  0  0  0  0
   46.4814   32.5871   45.9620 H   0  0  0  0  0  0  0  0  0  0  0  0
   44.7879   34.0505   47.0937 H   0  0  0  0  0  0  0  0  0  0  0  0
   43.8703   36.0348   45.8216 H   0  0  0  0  0  0  0  0  0  0  0  0
   44.2433   35.7643   41.8019 H   0  0  0  0  0  0  0  0  0  0  0  0
   42.0095   35.9825   40.7318 H   0  0  0  0  0  0  0  0  0  0  0  0
   41.3860   34.4982   38.8985 H   0  0  0  0  0  0  0  0  0  0  0  0
   42.9146   32.7300   38.0106 H   0  0  0  0  0  0  0  0  0  0  0  0
   45.1351   32.5578   39.1148 H   0  0  0  0  0  0  0  0  0  0  0  0
  1 10  1  0
  2  1  1  0
  3  2  1  0
  4  3  1  0
  4  5  1  0
  5  1  1  0
  6  7  2  0
  8  7  1  0
  9  8  2  0
 10  9  1  0
 10 11  2  0
 11  6  1  0
 12 13  2  0
 12  5  1  0
 14 13  1  0
 15 14  2  0
 16 15  1  0
 16 17  2  0
 17 12  1  0
  1 18  1  6
  2 19  1  0
  2 20  1  0
  3 21  1  0
  3 22  1  0
  4 23  1  0
  4 24  1  0
  5 25  1  1
  6 26  1  0
  7 27  1  0
  8 28  1  0
 13 29  1  0
 14 30  1  0
 15 31  1  0
 16 32  1  0
 17 33  1  0
M  ISO  8  18  13  19  13  20  13  21  13  22  13  23  13  24  13  25  13
M  ISO  8  26  14  27  14  28  14  29  14  30  14  31  14  32  14  33  14
M  END
>  <minimizedAffinity>  (1) 
-5.49060583

>  <minimizedRMSD>  (1) 
0.552129388

$$$$
