
     RDKit          3D

 33 35  0  0  1  0  0  0  0  0999 V2000
   46.6320   35.0860   42.1670 C   0  0  1  0  0  0  0  0  0  0  0  0
   48.1510   35.1600   42.1330 C   0  0  0  0  0  0  0  0  0  0  0  0
   48.5160   35.0340   40.6660 C   0  0  0  0  0  0  0  0  0  0  0  0
   47.3670   34.2550   40.0470 C   0  0  0  0  0  0  0  0  0  0  0  0
   46.3630   34.0240   41.1510 C   0  0  2  0  0  0  0  0  0  0  0  0
   46.3210   33.2910   45.4020 C   0  0  0  0  0  0  0  0  0  0  0  0
   45.3090   34.0240   46.0480 C   0  0  0  0  0  0  0  0  0  0  0  0
   44.7500   35.1220   45.3790 C   0  0  0  0  0  0  0  0  0  0  0  0
   45.2210   35.4090   44.1430 N   0  0  0  0  0  0  0  0  0  0  0  0
   46.1910   34.6910   43.5420 C   0  0  0  0  0  0  0  0  0  0  0  0
   46.7400   33.6340   44.1700 N   0  0  0  0  0  0  0  0  0  0  0  0
   45.0240   34.0170   40.5640 C   0  0  0  0  0  0  0  0  0  0  0  0
   44.7290   33.0150   39.6350 C   0  0  0  0  0  0  0  0  0  0  0  0
   43.4500   33.0100   39.0740 C   0  0  0  0  0  0  0  0  0  0  0  0
   42.5500   34.0020   39.4750 C   0  0  0  0  0  0  0  0  0  0  0  0
   42.8680   34.9750   40.3890 C   0  0  0  0  0  0  0  0  0  0  0  0
   44.1270   34.9730   40.9350 C   0  0  0  0  0  0  0  0  0  0  0  0
   46.1011   36.0242   41.9480 H   0  0  0  0  0  0  0  0  0  0  0  0
   48.5006   36.1213   42.5375 H   0  0  0  0  0  0  0  0  0  0  0  0
   48.6174   34.3735   42.7444 H   0  0  0  0  0  0  0  0  0  0  0  0
   48.6054   36.0273   40.2020 H   0  0  0  0  0  0  0  0  0  0  0  0
   49.4843   34.5330   40.5200 H   0  0  0  0  0  0  0  0  0  0  0  0
   46.9094   34.8355   39.2323 H   0  0  0  0  0  0  0  0  0  0  0  0
   47.7156   33.3030   39.6202 H   0  0  0  0  0  0  0  0  0  0  0  0
   46.4431   33.0534   41.6624 H   0  0  0  0  0  0  0  0  0  0  0  0
   46.7752   32.4274   45.9098 H   0  0  0  0  0  0  0  0  0  0  0  0
   44.9645   33.7425   47.0540 H   0  0  0  0  0  0  0  0  0  0  0  0
   43.9574   35.7282   45.8418 H   0  0  0  0  0  0  0  0  0  0  0  0
   45.4769   32.2581   39.3560 H   0  0  0  0  0  0  0  0  0  0  0  0
   43.1588   32.2469   38.3372 H   0  0  0  0  0  0  0  0  0  0  0  0
   41.5406   34.0026   39.0378 H   0  0  0  0  0  0  0  0  0  0  0  0
   42.1308   35.7388   40.6773 H   0  0  0  0  0  0  0  0  0  0  0  0
   44.4110   35.7407   41.6698 H   0  0  0  0  0  0  0  0  0  0  0  0
  1 10  1  0
  2  1  1  0
  3  2  1  0
  4  3  1  0
  4  5  1  0
  5  1  1  0
  6  7  2  0
  8  7  1  0
  9  8  2  0
 10  9  1  0
 10 11  2  0
 11  6  1  0
 12 17  1  0
 12  5  1  0
 13 12  2  0
 14 15  2  0
 14 13  1  0
 15 16  1  0
 16 17  2  0
  1 18  1  6
  2 19  1  0
  2 20  1  0
  3 21  1  0
  3 22  1  0
  4 23  1  0
  4 24  1  0
  5 25  1  1
  6 26  1  0
  7 27  1  0
  8 28  1  0
 13 29  1  0
 14 30  1  0
 15 31  1  0
 16 32  1  0
 17 33  1  0
M  ISO  8  18  13  19  13  20  13  21  13  22  13  23  13  24  13  25  13
M  ISO  8  26  14  27  14  28  14  29  14  30  14  31  14  32  14  33  14
M  END
>  <minimizedAffinity>  (1) 
-5.37796879

>  <minimizedRMSD>  (1) 
0.795535326

$$$$
