
     RDKit          3D

 30 32  0  0  1  0  0  0  0  0999 V2000
   46.5040   35.1000   42.0920 C   0  0  1  0  0  0  0  0  0  0  0  0
   48.0380   35.2540   42.1030 C   0  0  0  0  0  0  0  0  0  0  0  0
   48.4330   35.1150   40.6580 C   0  0  0  0  0  0  0  0  0  0  0  0
   47.3960   34.1720   40.0710 C   0  0  0  0  0  0  0  0  0  0  0  0
   46.3200   33.9910   41.1360 C   0  0  2  0  0  0  0  0  0  0  0  0
   46.0700   33.4920   45.3890 C   0  0  0  0  0  0  0  0  0  0  0  0
   45.1060   34.3100   46.0020 C   0  0  0  0  0  0  0  0  0  0  0  0
   44.6160   35.4040   45.2810 C   0  0  0  0  0  0  0  0  0  0  0  0
   45.0990   35.6100   44.0310 N   0  0  0  0  0  0  0  0  0  0  0  0
   46.0330   34.7980   43.4640 C   0  0  0  0  0  0  0  0  0  0  0  0
   46.5050   33.7510   44.1490 N   0  0  0  0  0  0  0  0  0  0  0  0
   44.9650   34.0730   40.5270 C   0  0  0  0  0  0  0  0  0  0  0  0
   43.9570   34.9850   40.8190 C   0  0  0  0  0  0  0  0  0  0  0  0
   42.9190   34.6010   39.9630 C   0  0  0  0  0  0  0  0  0  0  0  0
   43.4020   33.5060   39.2480 C   0  0  0  0  0  0  0  0  0  0  0  0
   44.6290   33.2170   39.6090 O   0  0  0  0  0  0  0  0  0  0  0  0
   45.9294   35.9898   41.7953 H   0  0  0  0  0  0  0  0  0  0  0  0
   48.3283   36.2405   42.4937 H   0  0  0  0  0  0  0  0  0  0  0  0
   48.5314   34.5120   42.7480 H   0  0  0  0  0  0  0  0  0  0  0  0
   48.4031   36.0907   40.1508 H   0  0  0  0  0  0  0  0  0  0  0  0
   49.4589   34.7364   40.5386 H   0  0  0  0  0  0  0  0  0  0  0  0
   46.9592   34.6076   39.1602 H   0  0  0  0  0  0  0  0  0  0  0  0
   47.8476   33.2076   39.7952 H   0  0  0  0  0  0  0  0  0  0  0  0
   46.4053   33.0090   41.6242 H   0  0  0  0  0  0  0  0  0  0  0  0
   46.4732   32.6265   45.9353 H   0  0  0  0  0  0  0  0  0  0  0  0
   44.7470   34.0963   47.0196 H   0  0  0  0  0  0  0  0  0  0  0  0
   43.8617   36.0768   45.7150 H   0  0  0  0  0  0  0  0  0  0  0  0
   43.9720   35.8094   41.5472 H   0  0  0  0  0  0  0  0  0  0  0  0
   41.9266   35.0669   39.8728 H   0  0  0  0  0  0  0  0  0  0  0  0
   42.8308   32.9583   38.4840 H   0  0  0  0  0  0  0  0  0  0  0  0
  1  2  1  0
  1 10  1  0
  3  2  1  0
  4  3  1  0
  4  5  1  0
  5  1  1  0
  6  7  2  0
  8  7  1  0
  9  8  2  0
 10  9  1  0
 10 11  2  0
 11  6  1  0
 12 13  2  0
 12  5  1  0
 14 13  1  0
 15 16  1  0
 15 14  2  0
 16 12  1  0
  1 17  1  6
  2 18  1  0
  2 19  1  0
  3 20  1  0
  3 21  1  0
  4 22  1  0
  4 23  1  0
  5 24  1  1
  6 25  1  0
  7 26  1  0
  8 27  1  0
 13 28  1  0
 14 29  1  0
 15 30  1  0
M  ISO  8  17  13  18  13  19  13  20  13  21  13  22  13  23  13  24  13
M  ISO  6  25  14  26  14  27  14  28  14  29  14  30  14
M  END
>  <minimizedAffinity>  (1) 
-5.15580177

>  <minimizedRMSD>  (1) 
0.666041851

$$$$
