
     RDKit          3D

 29 31  0  0  1  0  0  0  0  0999 V2000
   46.5710   35.1650   42.0180 C   0  0  1  0  0  0  0  0  0  0  0  0
   48.0920   35.2440   42.0610 C   0  0  0  0  0  0  0  0  0  0  0  0
   48.5270   35.0650   40.6250 C   0  0  0  0  0  0  0  0  0  0  0  0
   47.4200   34.2180   40.0010 C   0  0  0  0  0  0  0  0  0  0  0  0
   46.3740   34.0230   41.0720 C   0  0  2  0  0  0  0  0  0  0  0  0
   46.0240   33.5860   45.3220 C   0  0  0  0  0  0  0  0  0  0  0  0
   45.0510   34.4090   45.8990 C   0  0  0  0  0  0  0  0  0  0  0  0
   44.5890   35.4970   45.1520 C   0  0  0  0  0  0  0  0  0  0  0  0
   45.1070   35.7040   43.9040 N   0  0  0  0  0  0  0  0  0  0  0  0
   46.0510   34.8800   43.3800 C   0  0  0  0  0  0  0  0  0  0  0  0
   46.4920   33.8380   44.0970 N   0  0  0  0  0  0  0  0  0  0  0  0
   44.9890   33.9550   40.5300 C   0  0  0  0  0  0  0  0  0  0  0  0
   44.5920   32.8380   39.8100 C   0  0  0  0  0  0  0  0  0  0  0  0
   42.7990   33.2780   39.3800 S   0  0  0  0  0  0  0  0  0  0  0  0
   42.9700   34.8880   40.2690 C   0  0  0  0  0  0  0  0  0  0  0  0
   44.0700   34.8950   40.6760 N   0  0  0  0  0  0  0  0  0  0  0  0
   46.0481   36.0795   41.7014 H   0  0  0  0  0  0  0  0  0  0  0  0
   48.4188   36.2211   42.4462 H   0  0  0  0  0  0  0  0  0  0  0  0
   48.5292   34.4844   42.7257 H   0  0  0  0  0  0  0  0  0  0  0  0
   48.6071   36.0376   40.1175 H   0  0  0  0  0  0  0  0  0  0  0  0
   49.5170   34.5931   40.5404 H   0  0  0  0  0  0  0  0  0  0  0  0
   46.9850   34.7391   39.1354 H   0  0  0  0  0  0  0  0  0  0  0  0
   47.8101   33.2528   39.6456 H   0  0  0  0  0  0  0  0  0  0  0  0
   46.4950   33.0533   41.5770 H   0  0  0  0  0  0  0  0  0  0  0  0
   46.4079   32.7216   45.8837 H   0  0  0  0  0  0  0  0  0  0  0  0
   44.6619   34.2068   46.9078 H   0  0  0  0  0  0  0  0  0  0  0  0
   43.8236   36.1732   45.5606 H   0  0  0  0  0  0  0  0  0  0  0  0
   45.1662   31.9349   39.5556 H   0  0  0  0  0  0  0  0  0  0  0  0
   42.2062   35.6702   40.3904 H   0  0  0  0  0  0  0  0  0  0  0  0
  1  2  1  0
  1 10  1  0
  3  2  1  0
  4  3  1  0
  4  5  1  0
  5  1  1  0
  6  7  2  0
  8  7  1  0
  9  8  2  0
 10  9  1  0
 10 11  2  0
 11  6  1  0
 12 16  1  0
 12  5  1  0
 13 12  2  0
 14 13  1  0
 14 15  1  0
 15 16  2  0
  1 17  1  6
  2 18  1  0
  2 19  1  0
  3 20  1  0
  3 21  1  0
  4 22  1  0
  4 23  1  0
  5 24  1  1
  6 25  1  0
  7 26  1  0
  8 27  1  0
 13 28  1  0
 15 29  1  0
M  ISO  8  17  13  18  13  19  13  20  13  21  13  22  13  23  13  24  13
M  ISO  5  25  14  26  14  27  14  28  14  29  14
M  END
>  <minimizedAffinity>  (1) 
-5.05996513

>  <minimizedRMSD>  (1) 
0.329256922

$$$$
