
     RDKit          3D

 36 38  0  0  1  0  0  0  0  0999 V2000
   46.4370   35.1160   42.1450 C   0  0  1  0  0  0  0  0  0  0  0  0
   47.9590   35.1210   42.0920 C   0  0  0  0  0  0  0  0  0  0  0  0
   48.3180   34.9240   40.6430 C   0  0  0  0  0  0  0  0  0  0  0  0
   47.1600   34.1420   40.0660 C   0  0  0  0  0  0  0  0  0  0  0  0
   46.1080   34.0500   41.1710 C   0  0  2  0  0  0  0  0  0  0  0  0
   46.0760   33.4730   45.4570 C   0  0  0  0  0  0  0  0  0  0  0  0
   45.1150   34.2740   46.0880 C   0  0  0  0  0  0  0  0  0  0  0  0
   44.6010   35.3610   45.3810 C   0  0  0  0  0  0  0  0  0  0  0  0
   45.0640   35.5820   44.1170 N   0  0  0  0  0  0  0  0  0  0  0  0
   46.0020   34.7790   43.5370 C   0  0  0  0  0  0  0  0  0  0  0  0
   46.4970   33.7350   44.2110 N   0  0  0  0  0  0  0  0  0  0  0  0
   44.8270   34.0720   40.5820 N   0  0  0  0  0  0  0  0  0  0  0  0
   43.9500   35.1230   40.8480 C   0  0  0  0  0  0  0  0  0  0  0  0
   42.4910   34.7820   40.8720 C   0  0  0  0  0  0  0  0  0  0  0  0
   42.1480   33.7100   40.0490 O   0  0  0  0  0  0  0  0  0  0  0  0
   42.8930   32.6190   40.5370 C   0  0  0  0  0  0  0  0  0  0  0  0
   44.3150   32.8610   40.0720 C   0  0  0  0  0  0  0  0  0  0  0  0
   45.9442   36.0696   41.9045 H   0  0  0  0  0  0  0  0  0  0  0  0
   48.3521   36.0812   42.4572 H   0  0  0  0  0  0  0  0  0  0  0  0
   48.3895   34.3329   42.7272 H   0  0  0  0  0  0  0  0  0  0  0  0
   48.4240   35.8934   40.1340 H   0  0  0  0  0  0  0  0  0  0  0  0
   49.2777   34.4011   40.5184 H   0  0  0  0  0  0  0  0  0  0  0  0
   46.7472   34.6641   39.1902 H   0  0  0  0  0  0  0  0  0  0  0  0
   47.4792   33.1427   39.7351 H   0  0  0  0  0  0  0  0  0  0  0  0
   46.1057   33.1097   41.7418 H   0  0  0  0  0  0  0  0  0  0  0  0
   46.4944   32.6100   45.9957 H   0  0  0  0  0  0  0  0  0  0  0  0
   44.7759   34.0522   47.1107 H   0  0  0  0  0  0  0  0  0  0  0  0
   43.8441   36.0210   45.8298 H   0  0  0  0  0  0  0  0  0  0  0  0
   44.2132   35.5379   41.8322 H   0  0  0  0  0  0  0  0  0  0  0  0
   44.0726   35.8257   40.0106 H   0  0  0  0  0  0  0  0  0  0  0  0
   42.2114   34.5287   41.9053 H   0  0  0  0  0  0  0  0  0  0  0  0
   41.9510   35.6619   40.4921 H   0  0  0  0  0  0  0  0  0  0  0  0
   42.8483   32.5833   41.6355 H   0  0  0  0  0  0  0  0  0  0  0  0
   42.5007   31.6593   40.1695 H   0  0  0  0  0  0  0  0  0  0  0  0
   44.9497   32.0314   40.4167 H   0  0  0  0  0  0  0  0  0  0  0  0
   44.3130   32.9227   38.9737 H   0  0  0  0  0  0  0  0  0  0  0  0
  1 10  1  0
  2  1  1  0
  3  2  1  0
  4  3  1  0
  4  5  1  0
  5  1  1  0
  6  7  2  0
  8  7  1  0
  9  8  2  0
 10  9  1  0
 10 11  2  0
 11  6  1  0
 12 13  1  0
 12  5  1  0
 13 14  1  0
 15 16  1  0
 15 14  1  0
 17 16  1  0
 17 12  1  0
  1 18  1  6
  2 19  1  0
  2 20  1  0
  3 21  1  0
  3 22  1  0
  4 23  1  0
  4 24  1  0
  5 25  1  1
  6 26  1  0
  7 27  1  0
  8 28  1  0
 13 29  1  0
 13 30  1  0
 14 31  1  0
 14 32  1  0
 16 33  1  0
 16 34  1  0
 17 35  1  0
 17 36  1  0
M  ISO  8  18  13  19  13  20  13  21  13  22  13  23  13  24  13  25  13
M  ISO  8  26  14  27  14  28  14  29  13  30  13  31  13  32  13  33  13
M  ISO  3  34  13  35  13  36  13
M  END
>  <minimizedAffinity>  (1) 
-5.05243158

>  <minimizedRMSD>  (1) 
0.58509469

$$$$
