
     RDKit          3D

 35 36  0  0  1  0  0  0  0  0999 V2000
   46.4760   34.9760   42.1090 C   0  0  1  0  0  0  0  0  0  0  0  0
   47.9710   35.2190   42.0350 C   0  0  0  0  0  0  0  0  0  0  0  0
   48.3450   35.0400   40.5900 C   0  0  0  0  0  0  0  0  0  0  0  0
   47.2870   34.0860   40.0380 C   0  0  0  0  0  0  0  0  0  0  0  0
   46.3160   33.8280   41.1720 C   0  0  2  0  0  0  0  0  0  0  0  0
   46.3280   33.3110   45.4270 C   0  0  0  0  0  0  0  0  0  0  0  0
   45.3360   34.0620   46.0870 C   0  0  0  0  0  0  0  0  0  0  0  0
   44.7380   35.1180   45.3980 C   0  0  0  0  0  0  0  0  0  0  0  0
   45.1510   35.3520   44.1370 N   0  0  0  0  0  0  0  0  0  0  0  0
   46.1120   34.6140   43.5150 C   0  0  0  0  0  0  0  0  0  0  0  0
   46.6930   33.5990   44.1650 N   0  0  0  0  0  0  0  0  0  0  0  0
   44.9450   33.6420   40.6080 C   0  0  0  0  0  0  0  0  0  0  0  0
   44.2380   32.5190   41.3830 C   0  0  0  0  0  0  0  0  0  0  0  0
   44.9180   33.2180   39.1710 C   0  0  0  0  0  0  0  0  0  0  0  0
   44.0770   34.8620   40.7440 C   0  0  0  0  0  0  0  0  0  0  0  0
   45.8375   35.8321   41.8458 H   0  0  0  0  0  0  0  0  0  0  0  0
   48.2100   36.2395   42.3688 H   0  0  0  0  0  0  0  0  0  0  0  0
   48.5260   34.5267   42.6852 H   0  0  0  0  0  0  0  0  0  0  0  0
   48.3161   36.0026   40.0585 H   0  0  0  0  0  0  0  0  0  0  0  0
   49.3661   34.6498   40.4668 H   0  0  0  0  0  0  0  0  0  0  0  0
   46.7649   34.5472   39.1867 H   0  0  0  0  0  0  0  0  0  0  0  0
   47.7401   33.1505   39.6782 H   0  0  0  0  0  0  0  0  0  0  0  0
   46.5079   32.9031   41.7357 H   0  0  0  0  0  0  0  0  0  0  0  0
   46.8124   32.4748   45.9526 H   0  0  0  0  0  0  0  0  0  0  0  0
   45.0402   33.8223   47.1190 H   0  0  0  0  0  0  0  0  0  0  0  0
   43.9584   35.7364   45.8669 H   0  0  0  0  0  0  0  0  0  0  0  0
   44.3480   32.6937   42.4635 H   0  0  0  0  0  0  0  0  0  0  0  0
   43.1699   32.5083   41.1201 H   0  0  0  0  0  0  0  0  0  0  0  0
   44.6900   31.5512   41.1201 H   0  0  0  0  0  0  0  0  0  0  0  0
   44.8482   32.1217   39.1134 H   0  0  0  0  0  0  0  0  0  0  0  0
   44.0467   33.6676   38.6724 H   0  0  0  0  0  0  0  0  0  0  0  0
   45.8393   33.5534   38.6724 H   0  0  0  0  0  0  0  0  0  0  0  0
   43.9197   35.0831   41.8100 H   0  0  0  0  0  0  0  0  0  0  0  0
   44.5699   35.7184   40.2607 H   0  0  0  0  0  0  0  0  0  0  0  0
   43.1063   34.6771   40.2607 H   0  0  0  0  0  0  0  0  0  0  0  0
  1 10  1  0
  2  1  1  0
  3  2  1  0
  4  3  1  0
  4  5  1  0
  5  1  1  0
  6  7  2  0
  8  7  1  0
  9  8  2  0
 10  9  1  0
 10 11  2  0
 11  6  1  0
 12 15  1  0
 12  5  1  0
 12 13  1  0
 14 12  1  0
  1 16  1  6
  2 17  1  0
  2 18  1  0
  3 19  1  0
  3 20  1  0
  4 21  1  0
  4 22  1  0
  5 23  1  1
  6 24  1  0
  7 25  1  0
  8 26  1  0
 13 27  1  0
 13 28  1  0
 13 29  1  0
 14 30  1  0
 14 31  1  0
 14 32  1  0
 15 33  1  0
 15 34  1  0
 15 35  1  0
M  ISO  8  16  13  17  13  18  13  19  13  20  13  21  13  22  13  23  13
M  ISO  8  24  14  25  14  26  14  27   8  28   8  29   8  30   8  31   8
M  ISO  4  32   8  33   8  34   8  35   8
M  END
>  <minimizedAffinity>  (1) 
-4.69743919

>  <minimizedRMSD>  (1) 
0.731244862

$$$$
