
     RDKit          3D

 24 25  0  0  1  0  0  0  0  0999 V2000
   46.6650   35.2630   41.8440 C   0  0  1  0  0  0  0  0  0  0  0  0
   48.1790   35.3070   41.9410 C   0  0  0  0  0  0  0  0  0  0  0  0
   48.6840   35.0490   40.5460 C   0  0  0  0  0  0  0  0  0  0  0  0
   47.5790   34.2560   39.8800 C   0  0  0  0  0  0  0  0  0  0  0  0
   46.4430   34.1310   40.8890 C   0  0  2  0  0  0  0  0  0  0  0  0
   45.9340   33.7680   45.1520 C   0  0  0  0  0  0  0  0  0  0  0  0
   44.9610   34.6260   45.6670 C   0  0  0  0  0  0  0  0  0  0  0  0
   44.5560   35.7130   44.8830 C   0  0  0  0  0  0  0  0  0  0  0  0
   45.1360   35.8740   43.6540 N   0  0  0  0  0  0  0  0  0  0  0  0
   46.0780   35.0200   43.1880 C   0  0  0  0  0  0  0  0  0  0  0  0
   46.4710   33.9750   43.9370 N   0  0  0  0  0  0  0  0  0  0  0  0
   45.2090   34.2530   40.2950 O   0  0  0  0  0  0  0  0  0  0  0  0
   46.1902   36.1933   41.4989 H   0  0  0  0  0  0  0  0  0  0  0  0
   48.5123   36.2944   42.2931 H   0  0  0  0  0  0  0  0  0  0  0  0
   48.5620   34.5635   42.6556 H   0  0  0  0  0  0  0  0  0  0  0  0
   48.8568   35.9963   40.0142 H   0  0  0  0  0  0  0  0  0  0  0  0
   49.6436   34.5112   40.5426 H   0  0  0  0  0  0  0  0  0  0  0  0
   47.2276   34.7818   38.9800 H   0  0  0  0  0  0  0  0  0  0  0  0
   47.9406   33.2632   39.5740 H   0  0  0  0  0  0  0  0  0  0  0  0
   46.4474   33.1441   41.3748 H   0  0  0  0  0  0  0  0  0  0  0  0
   46.2673   32.9075   45.7507 H   0  0  0  0  0  0  0  0  0  0  0  0
   44.5243   34.4529   46.6617 H   0  0  0  0  0  0  0  0  0  0  0  0
   43.7929   36.4179   45.2448 H   0  0  0  0  0  0  0  0  0  0  0  0
   44.5116   34.3220   40.9942 H   0  0  0  0  0  0  0  0  0  0  0  0
  1  2  1  0
  1 10  1  0
  3  2  1  0
  4  3  1  0
  4  5  1  0
  5  1  1  0
  6  7  2  0
  8  7  1  0
  9  8  2  0
 10  9  1  0
 10 11  2  0
 11  6  1  0
 12  5  1  0
  1 13  1  6
  2 14  1  0
  2 15  1  0
  3 16  1  0
  3 17  1  0
  4 18  1  0
  4 19  1  0
  5 20  1  1
  6 21  1  0
  7 22  1  0
  8 23  1  0
 12 24  1  0
M  ISO  8  13  13  14  13  15  13  16  13  17  13  18  13  19  13  20  13
M  ISO  4  21  14  22  14  23  14  24   3
M  END
>  <minimizedAffinity>  (1) 
-4.61080074

>  <minimizedRMSD>  (1) 
0.0734199136

$$$$
