
     RDKit          3D

 25 26  0  0  1  0  0  0  0  0999 V2000
   46.6610   34.9950   42.1130 C   0  0  1  0  0  0  0  0  0  0  0  0
   48.1650   35.2120   42.0640 C   0  0  0  0  0  0  0  0  0  0  0  0
   48.4920   35.1890   40.5880 C   0  0  0  0  0  0  0  0  0  0  0  0
   47.5100   34.1700   40.0140 C   0  0  0  0  0  0  0  0  0  0  0  0
   46.4680   33.9170   41.0910 C   0  0  2  0  0  0  0  0  0  0  0  0
   46.4690   33.2430   45.3570 C   0  0  0  0  0  0  0  0  0  0  0  0
   45.4300   33.9440   46.0100 C   0  0  0  0  0  0  0  0  0  0  0  0
   44.8070   35.0080   45.3330 C   0  0  0  0  0  0  0  0  0  0  0  0
   45.2440   35.2990   44.0830 N   0  0  0  0  0  0  0  0  0  0  0  0
   46.2350   34.6170   43.4810 C   0  0  0  0  0  0  0  0  0  0  0  0
   46.8310   33.6040   44.1200 N   0  0  0  0  0  0  0  0  0  0  0  0
   45.1190   33.9820   40.4630 C   0  0  0  0  0  0  0  0  0  0  0  0
   44.2730   34.8320   40.7310 O   0  0  0  0  0  0  0  0  0  0  0  0
   46.0501   35.8823   41.8905 H   0  0  0  0  0  0  0  0  0  0  0  0
   48.4346   36.1813   42.5088 H   0  0  0  0  0  0  0  0  0  0  0  0
   48.7205   34.4510   42.6318 H   0  0  0  0  0  0  0  0  0  0  0  0
   48.3370   36.1801   40.1367 H   0  0  0  0  0  0  0  0  0  0  0  0
   49.5417   34.9277   40.3886 H   0  0  0  0  0  0  0  0  0  0  0  0
   47.0308   34.5725   39.1093 H   0  0  0  0  0  0  0  0  0  0  0  0
   48.0237   33.2390   39.7324 H   0  0  0  0  0  0  0  0  0  0  0  0
   46.5649   32.9299   41.5667 H   0  0  0  0  0  0  0  0  0  0  0  0
   46.9762   32.4073   45.8614 H   0  0  0  0  0  0  0  0  0  0  0  0
   45.1152   33.6635   47.0260 H   0  0  0  0  0  0  0  0  0  0  0  0
   43.9945   35.5833   45.8009 H   0  0  0  0  0  0  0  0  0  0  0  0
   44.8637   33.2205   39.7113 H   0  0  0  0  0  0  0  0  0  0  0  0
  1 10  1  0
  2  1  1  0
  3  2  1  0
  4  3  1  0
  4  5  1  0
  5  1  1  0
  6  7  2  0
  8  7  1  0
  9  8  2  0
 10  9  1  0
 10 11  2  0
 11  6  1  0
 12 13  2  0
 12  5  1  0
  1 14  1  6
  2 15  1  0
  2 16  1  0
  3 17  1  0
  3 18  1  0
  4 19  1  0
  4 20  1  0
  5 21  1  1
  6 22  1  0
  7 23  1  0
  8 24  1  0
 12 25  1  0
M  ISO  8  14  13  15  13  16  13  17  13  18  13  19  13  20  13  21  13
M  ISO  4  22  14  23  14  24  14  25   6
M  END
>  <minimizedAffinity>  (1) 
-4.46258497

>  <minimizedRMSD>  (1) 
0.513736546

$$$$
