
     RDKit          3D

 20 21  0  0  0  0  0  0  0  0999 V2000
   44.5790   35.6190   45.2330 C   0  0  0  0  0  0  0  0  0  0  0  0
   44.4220   35.7230   43.8510 C   0  0  0  0  0  0  0  0  0  0  0  0
   44.8800   34.6580   43.0670 C   0  0  0  0  0  0  0  0  0  0  0  0
   45.4500   33.5830   43.6810 N   0  0  0  0  0  0  0  0  0  0  0  0
   45.5830   33.5240   45.0390 C   0  0  0  0  0  0  0  0  0  0  0  0
   45.1510   34.5340   45.8150 N   0  0  0  0  0  0  0  0  0  0  0  0
   46.1710   32.4160   45.6990 N   0  0  0  0  0  0  0  0  0  0  0  0
   47.0200   31.6580   44.9490 C   0  0  0  0  0  0  0  0  0  0  0  0
   47.4790   30.6440   45.7710 C   0  0  0  0  0  0  0  0  0  0  0  0
   46.9180   30.7910   46.9880 N   0  0  0  0  0  0  0  0  0  0  0  0
   46.1220   31.8720   46.9420 C   0  0  0  0  0  0  0  0  0  0  0  0
   45.2690   32.5030   47.9640 C   0  0  0  0  0  0  0  0  0  0  0  0
   46.0310   32.7790   49.0860 F   0  0  0  0  0  0  0  0  0  0  0  0
   44.3450   31.5290   48.3700 F   0  0  0  0  0  0  0  0  0  0  0  0
   44.5400   33.5660   47.5230 F   0  0  0  0  0  0  0  0  0  0  0  0
   44.2280   36.4427   45.8720 H   0  0  0  0  0  0  0  0  0  0  0  0
   43.9558   36.6086   43.3945 H   0  0  0  0  0  0  0  0  0  0  0  0
   44.7814   34.6881   41.9718 H   0  0  0  0  0  0  0  0  0  0  0  0
   47.2882   31.8208   43.8947 H   0  0  0  0  0  0  0  0  0  0  0  0
   48.1836   29.8509   45.4802 H   0  0  0  0  0  0  0  0  0  0  0  0
  1  6  2  0
  2  1  1  0
  3  4  1  0
  3  2  2  0
  4  5  2  0
  5  7  1  0
  5  6  1  0
  7 11  1  0
  8  7  1  0
  8  9  2  0
  9 10  1  0
 11 10  2  0
 11 12  1  0
 12 14  1  0
 12 13  1  0
 15 12  1  0
  1 16  1  0
  2 17  1  0
  3 18  1  0
  8 19  1  0
  9 20  1  0
M  ISO  5  16  14  17  14  18  14  19  14  20  14
M  END
>  <minimizedAffinity>  (1) 
-4.91392803

>  <minimizedRMSD>  (1) 
1.59649837

$$$$
