
     RDKit          3D

 46 49  0  0  1  0  0  0  0  0999 V2000
   46.0130   34.9630   41.7290 C   0  0  1  0  0  0  0  0  0  0  0  0
   47.5310   34.9320   41.6540 C   0  0  0  0  0  0  0  0  0  0  0  0
   47.8520   34.4810   40.2610 C   0  0  0  0  0  0  0  0  0  0  0  0
   46.6720   33.6220   39.8620 C   0  0  0  0  0  0  0  0  0  0  0  0
   45.6340   33.7330   40.9960 C   0  0  2  0  0  0  0  0  0  0  0  0
   45.5170   33.8980   45.2400 C   0  0  0  0  0  0  0  0  0  0  0  0
   44.7730   34.9370   45.7810 C   0  0  0  0  0  0  0  0  0  0  0  0
   44.4400   36.0030   44.9440 C   0  0  0  0  0  0  0  0  0  0  0  0
   44.8820   35.9050   43.6880 N   0  0  0  0  0  0  0  0  0  0  0  0
   45.5960   34.9140   43.1570 C   0  0  0  0  0  0  0  0  0  0  0  0
   45.9080   33.9030   43.9670 N   0  0  0  0  0  0  0  0  0  0  0  0
   44.2450   33.7180   40.4140 C   0  0  2  0  0  0  0  0  0  0  0  0
   44.2860   33.1000   39.0500 C   0  0  0  0  0  0  0  0  0  0  0  0
   43.6210   35.0800   40.3900 C   0  0  0  0  0  0  0  0  0  0  0  0
   42.4080   35.0470   39.4890 C   0  0  0  0  0  0  0  0  0  0  0  0
   42.2840   35.4860   38.1860 C   0  0  0  0  0  0  0  0  0  0  0  0
   41.0450   35.2810   37.7310 N   0  0  0  0  0  0  0  0  0  0  0  0
   40.3150   34.7050   38.7140 C   0  0  0  0  0  0  0  0  0  0  0  0
   38.9970   34.3000   38.7430 C   0  0  0  0  0  0  0  0  0  0  0  0
   38.4550   33.7260   39.8750 C   0  0  0  0  0  0  0  0  0  0  0  0
   39.2910   33.5780   40.9650 C   0  0  0  0  0  0  0  0  0  0  0  0
   40.6250   33.9780   40.9570 C   0  0  0  0  0  0  0  0  0  0  0  0
   41.1560   34.5590   39.7990 C   0  0  0  0  0  0  0  0  0  0  0  0
   45.5421   35.8628   41.3063 H   0  0  0  0  0  0  0  0  0  0  0  0
   47.9459   35.9337   41.8394 H   0  0  0  0  0  0  0  0  0  0  0  0
   47.9642   34.2616   42.4109 H   0  0  0  0  0  0  0  0  0  0  0  0
   47.9514   35.3437   39.5858 H   0  0  0  0  0  0  0  0  0  0  0  0
   48.8054   33.9351   40.2064 H   0  0  0  0  0  0  0  0  0  0  0  0
   46.2411   33.9862   38.9177 H   0  0  0  0  0  0  0  0  0  0  0  0
   46.9792   32.5767   39.7102 H   0  0  0  0  0  0  0  0  0  0  0  0
   45.6260   32.8900   41.7025 H   0  0  0  0  0  0  0  0  0  0  0  0
   45.7914   33.0467   45.8804 H   0  0  0  0  0  0  0  0  0  0  0  0
   44.4563   34.9209   46.8343 H   0  0  0  0  0  0  0  0  0  0  0  0
   43.8536   36.8649   45.2951 H   0  0  0  0  0  0  0  0  0  0  0  0
   43.6022   33.1074   41.0652 H   0  0  0  0  0  0  0  0  0  0  0  0
   44.3585   32.0065   39.1449 H   0  0  0  0  0  0  0  0  0  0  0  0
   43.3686   33.3604   38.5017 H   0  0  0  0  0  0  0  0  0  0  0  0
   45.1610   33.4793   38.5017 H   0  0  0  0  0  0  0  0  0  0  0  0
   43.3171   35.3649   41.4081 H   0  0  0  0  0  0  0  0  0  0  0  0
   44.3462   35.8156   40.0118 H   0  0  0  0  0  0  0  0  0  0  0  0
   43.0960   35.9430   37.6014 H   0  0  0  0  0  0  0  0  0  0  0  0
   40.7027   35.5211   36.7897 H   0  0  0  0  0  0  0  0  0  0  0  0
   38.3684   34.4365   37.8507 H   0  0  0  0  0  0  0  0  0  0  0  0
   37.4046   33.4009   39.9080 H   0  0  0  0  0  0  0  0  0  0  0  0
   38.8845   33.1237   41.8806 H   0  0  0  0  0  0  0  0  0  0  0  0
   41.2535   33.8393   41.8491 H   0  0  0  0  0  0  0  0  0  0  0  0
  1 10  1  0
  2  1  1  0
  3  2  1  0
  4  3  1  0
  4  5  1  0
  5  1  1  0
  6  7  2  0
  8  7  1  0
  9  8  2  0
 10  9  1  0
 10 11  2  0
 11  6  1  0
 12  5  1  0
 13 12  1  0
 14 12  1  0
 15 23  1  0
 15 14  1  0
 16 15  2  0
 17 16  1  0
 17 18  1  0
 18 19  2  0
 18 23  1  0
 19 20  1  0
 20 21  2  0
 22 21  1  0
 23 22  2  0
  1 24  1  6
  2 25  1  0
  2 26  1  0
  3 27  1  0
  3 28  1  0
  4 29  1  0
  4 30  1  0
  5 31  1  1
  6 32  1  0
  7 33  1  0
  8 34  1  0
 12 35  1  1
 13 36  1  0
 13 37  1  0
 13 38  1  0
 14 39  1  0
 14 40  1  0
 16 41  1  0
 17 42  1  0
 19 43  1  0
 20 44  1  0
 21 45  1  0
 22 46  1  0
M  ISO  8  24  13  25  13  26  13  27  13  28  13  29  13  30  13  31  13
M  ISO  8  32  14  33  14  34  14  35   8  36   8  37   8  38   8  39   8
M  ISO  7  40   8  41  14  42   9  43  14  44  14  45  14  46  14
M  END
>  <minimizedAffinity>  (1) 
-6.84790182

>  <minimizedRMSD>  (1) 
1.66716993

$$$$
