
     RDKit          3D

 48 50  0  0  1  0  0  0  0  0999 V2000
   46.4070   35.0080   42.0290 C   0  0  1  0  0  0  0  0  0  0  0  0
   47.9170   35.2030   42.0070 C   0  0  0  0  0  0  0  0  0  0  0  0
   48.3160   34.9890   40.5790 C   0  0  0  0  0  0  0  0  0  0  0  0
   47.3030   34.0040   40.0570 C   0  0  0  0  0  0  0  0  0  0  0  0
   46.2350   33.8200   41.1600 C   0  0  2  0  0  0  0  0  0  0  0  0
   46.0520   33.5500   45.4140 C   0  0  0  0  0  0  0  0  0  0  0  0
   45.1010   34.3630   46.0090 C   0  0  0  0  0  0  0  0  0  0  0  0
   44.5850   35.4050   45.2520 C   0  0  0  0  0  0  0  0  0  0  0  0
   45.0640   35.5210   44.0110 N   0  0  0  0  0  0  0  0  0  0  0  0
   45.9770   34.7450   43.4300 C   0  0  0  0  0  0  0  0  0  0  0  0
   46.4680   33.7460   44.1640 N   0  0  0  0  0  0  0  0  0  0  0  0
   44.8850   33.6340   40.5380 C   0  0  2  0  0  0  0  0  0  0  0  0
   45.0490   33.0310   39.1730 C   0  0  0  0  0  0  0  0  0  0  0  0
   44.0970   34.9110   40.5140 C   0  0  0  0  0  0  0  0  0  0  0  0
   42.6030   34.6750   40.4790 C   0  0  0  0  0  0  0  0  0  0  0  0
   42.1800   35.2290   39.1270 C   0  0  0  0  0  0  0  0  0  0  0  0
   40.7830   34.7860   38.8610 C   0  0  0  0  0  0  0  0  0  0  0  0
   39.8830   35.3520   39.9130 C   0  0  0  0  0  0  0  0  0  0  0  0
   40.5730   36.0310   41.0470 C   0  0  0  0  0  0  0  0  0  0  0  0
   41.8300   35.3930   41.5300 C   0  0  0  0  0  0  0  0  0  0  0  0
   45.8135   35.8679   41.6850 H   0  0  0  0  0  0  0  0  0  0  0  0
   48.1801   36.2200   42.3335 H   0  0  0  0  0  0  0  0  0  0  0  0
   48.4326   34.5098   42.6879 H   0  0  0  0  0  0  0  0  0  0  0  0
   48.2696   35.9324   40.0152 H   0  0  0  0  0  0  0  0  0  0  0  0
   49.3490   34.6241   40.4799 H   0  0  0  0  0  0  0  0  0  0  0  0
   46.8355   34.3938   39.1408 H   0  0  0  0  0  0  0  0  0  0  0  0
   47.7813   33.0442   39.8121 H   0  0  0  0  0  0  0  0  0  0  0  0
   46.3423   32.9150   41.7760 H   0  0  0  0  0  0  0  0  0  0  0  0
   46.4769   32.7163   45.9922 H   0  0  0  0  0  0  0  0  0  0  0  0
   44.7676   34.1889   47.0427 H   0  0  0  0  0  0  0  0  0  0  0  0
   43.8263   36.0946   45.6505 H   0  0  0  0  0  0  0  0  0  0  0  0
   44.2970   32.9394   41.1558 H   0  0  0  0  0  0  0  0  0  0  0  0
   45.3365   31.9738   39.2713 H   0  0  0  0  0  0  0  0  0  0  0  0
   44.0987   33.1030   38.6238 H   0  0  0  0  0  0  0  0  0  0  0  0
   45.8320   33.5744   38.6238 H   0  0  0  0  0  0  0  0  0  0  0  0
   44.3404   35.4917   41.4160 H   0  0  0  0  0  0  0  0  0  0  0  0
   44.3693   35.4521   39.5958 H   0  0  0  0  0  0  0  0  0  0  0  0
   42.4003   33.6073   40.6494 H   0  0  0  0  0  0  0  0  0  0  0  0
   42.2257   36.3279   39.1437 H   0  0  0  0  0  0  0  0  0  0  0  0
   42.8526   34.8619   38.3378 H   0  0  0  0  0  0  0  0  0  0  0  0
   40.4645   35.1451   37.8712 H   0  0  0  0  0  0  0  0  0  0  0  0
   40.7319   33.6874   38.8805 H   0  0  0  0  0  0  0  0  0  0  0  0
   39.2182   36.0849   39.4325 H   0  0  0  0  0  0  0  0  0  0  0  0
   39.3519   34.4941   40.3512 H   0  0  0  0  0  0  0  0  0  0  0  0
   40.8179   37.0543   40.7263 H   0  0  0  0  0  0  0  0  0  0  0  0
   39.8718   35.9767   41.8928 H   0  0  0  0  0  0  0  0  0  0  0  0
   41.5679   34.6707   42.3171 H   0  0  0  0  0  0  0  0  0  0  0  0
   42.4752   36.2078   41.8904 H   0  0  0  0  0  0  0  0  0  0  0  0
  1 10  1  0
  2  1  1  0
  3  2  1  0
  4  3  1  0
  4  5  1  0
  5  1  1  0
  6  7  2  0
  8  7  1  0
  9  8  2  0
 10  9  1  0
 10 11  2  0
 11  6  1  0
 12  5  1  0
 13 12  1  0
 14 12  1  0
 15 14  1  0
 15 20  1  0
 16 15  1  0
 17 16  1  0
 17 18  1  0
 18 19  1  0
 19 20  1  0
  1 21  1  6
  2 22  1  0
  2 23  1  0
  3 24  1  0
  3 25  1  0
  4 26  1  0
  4 27  1  0
  5 28  1  1
  6 29  1  0
  7 30  1  0
  8 31  1  0
 12 32  1  1
 13 33  1  0
 13 34  1  0
 13 35  1  0
 14 36  1  0
 14 37  1  0
 15 38  1  0
 16 39  1  0
 16 40  1  0
 17 41  1  0
 17 42  1  0
 18 43  1  0
 18 44  1  0
 19 45  1  0
 19 46  1  0
 20 47  1  0
 20 48  1  0
M  ISO  8  21  13  22  13  23  13  24  13  25  13  26  13  27  13  28  13
M  ISO  8  29  14  30  14  31  14  32   8  33   8  34   8  35   8  36   8
M  ISO  8  37   8  38  13  39  13  40  13  41  13  42  13  43  13  44  13
M  ISO  4  45  13  46  13  47  13  48  13
M  END
>  <minimizedAffinity>  (1) 
-6.19009304

>  <minimizedRMSD>  (1) 
1.01960957

$$$$
