
     RDKit          3D

 42 44  0  0  1  0  0  0  0  0999 V2000
   46.2990   34.9890   42.1740 C   0  0  1  0  0  0  0  0  0  0  0  0
   47.8160   35.0460   42.0760 C   0  0  0  0  0  0  0  0  0  0  0  0
   48.1220   34.8510   40.6200 C   0  0  0  0  0  0  0  0  0  0  0  0
   46.9800   33.9990   40.1040 C   0  0  0  0  0  0  0  0  0  0  0  0
   45.9770   33.8810   41.2530 C   0  0  2  0  0  0  0  0  0  0  0  0
   46.0830   33.4680   45.5400 C   0  0  0  0  0  0  0  0  0  0  0  0
   45.1450   34.2620   46.1870 C   0  0  0  0  0  0  0  0  0  0  0  0
   44.5870   35.3120   45.4730 C   0  0  0  0  0  0  0  0  0  0  0  0
   45.0170   35.4550   44.2170 N   0  0  0  0  0  0  0  0  0  0  0  0
   45.9140   34.7080   43.5760 C   0  0  0  0  0  0  0  0  0  0  0  0
   46.4480   33.6930   44.2760 N   0  0  0  0  0  0  0  0  0  0  0  0
   44.5700   33.8640   40.7110 C   0  0  2  0  0  0  0  0  0  0  0  0
   44.5660   33.1450   39.4010 C   0  0  0  0  0  0  0  0  0  0  0  0
   43.9660   35.2200   40.6600 C   0  0  0  0  0  0  0  0  0  0  0  0
   42.4810   35.1650   40.3970 C   0  0  0  0  0  0  0  0  0  0  0  0
   41.9060   35.3510   39.1560 C   0  0  0  0  0  0  0  0  0  0  0  0
   40.5390   35.2820   38.9940 C   0  0  0  0  0  0  0  0  0  0  0  0
   39.7240   35.0210   40.0950 C   0  0  0  0  0  0  0  0  0  0  0  0
   40.3000   34.8340   41.3350 C   0  0  0  0  0  0  0  0  0  0  0  0
   41.6680   34.9030   41.4950 C   0  0  0  0  0  0  0  0  0  0  0  0
   45.7668   35.9145   41.9090 H   0  0  0  0  0  0  0  0  0  0  0  0
   48.1888   36.0215   42.4216 H   0  0  0  0  0  0  0  0  0  0  0  0
   48.2983   34.2825   42.7041 H   0  0  0  0  0  0  0  0  0  0  0  0
   48.1535   35.8178   40.0963 H   0  0  0  0  0  0  0  0  0  0  0  0
   49.1025   34.3796   40.4578 H   0  0  0  0  0  0  0  0  0  0  0  0
   46.5082   34.4808   39.2349 H   0  0  0  0  0  0  0  0  0  0  0  0
   47.3348   33.0093   39.7807 H   0  0  0  0  0  0  0  0  0  0  0  0
   46.0455   32.9380   41.8152 H   0  0  0  0  0  0  0  0  0  0  0  0
   46.5388   32.6286   46.0856 H   0  0  0  0  0  0  0  0  0  0  0  0
   44.8547   34.0649   47.2295 H   0  0  0  0  0  0  0  0  0  0  0  0
   43.8369   35.9850   45.9140 H   0  0  0  0  0  0  0  0  0  0  0  0
   43.9155   33.3103   41.4002 H   0  0  0  0  0  0  0  0  0  0  0  0
   44.5600   32.0594   39.5786 H   0  0  0  0  0  0  0  0  0  0  0  0
   43.6694   33.4281   38.8301 H   0  0  0  0  0  0  0  0  0  0  0  0
   45.4657   33.4182   38.8301 H   0  0  0  0  0  0  0  0  0  0  0  0
   44.1382   35.7225   41.6233 H   0  0  0  0  0  0  0  0  0  0  0  0
   44.4382   35.7727   39.8344 H   0  0  0  0  0  0  0  0  0  0  0  0
   42.5465   35.5568   38.2857 H   0  0  0  0  0  0  0  0  0  0  0  0
   40.0926   35.4323   37.9999 H   0  0  0  0  0  0  0  0  0  0  0  0
   38.6319   34.9647   39.9762 H   0  0  0  0  0  0  0  0  0  0  0  0
   39.6605   34.6275   42.2059 H   0  0  0  0  0  0  0  0  0  0  0  0
   42.1152   34.7512   42.4884 H   0  0  0  0  0  0  0  0  0  0  0  0
  1 10  1  0
  2  1  1  0
  3  2  1  0
  4  3  1  0
  4  5  1  0
  5  1  1  0
  6  7  2  0
  8  7  1  0
  9  8  2  0
 10  9  1  0
 10 11  2  0
 11  6  1  0
 12  5  1  0
 13 12  1  0
 14 12  1  0
 15 14  1  0
 15 20  1  0
 16 15  2  0
 17 16  1  0
 17 18  2  0
 18 19  1  0
 19 20  2  0
  1 21  1  6
  2 22  1  0
  2 23  1  0
  3 24  1  0
  3 25  1  0
  4 26  1  0
  4 27  1  0
  5 28  1  1
  6 29  1  0
  7 30  1  0
  8 31  1  0
 12 32  1  1
 13 33  1  0
 13 34  1  0
 13 35  1  0
 14 36  1  0
 14 37  1  0
 16 38  1  0
 17 39  1  0
 18 40  1  0
 19 41  1  0
 20 42  1  0
M  ISO  8  21  13  22  13  23  13  24  13  25  13  26  13  27  13  28  13
M  ISO  8  29  14  30  14  31  14  32   8  33   8  34   8  35   8  36   8
M  ISO  6  37   8  38  14  39  14  40  14  41  14  42  14
M  END
>  <minimizedAffinity>  (1) 
-6.0202837

>  <minimizedRMSD>  (1) 
1.26282299

$$$$
