
     RDKit          3D

 42 44  0  0  1  0  0  0  0  0999 V2000
   46.2200   35.0140   42.1940 C   0  0  1  0  0  0  0  0  0  0  0  0
   47.7400   35.0480   42.0740 C   0  0  0  0  0  0  0  0  0  0  0  0
   48.0540   34.7980   40.6310 C   0  0  0  0  0  0  0  0  0  0  0  0
   46.8710   34.0090   40.1090 C   0  0  0  0  0  0  0  0  0  0  0  0
   45.8740   33.9220   41.2590 C   0  0  2  0  0  0  0  0  0  0  0  0
   45.9990   33.4470   45.5420 C   0  0  0  0  0  0  0  0  0  0  0  0
   45.0970   34.2680   46.2010 C   0  0  0  0  0  0  0  0  0  0  0  0
   44.5660   35.3490   45.5140 C   0  0  0  0  0  0  0  0  0  0  0  0
   44.9890   35.4910   44.2540 N   0  0  0  0  0  0  0  0  0  0  0  0
   45.8520   34.7210   43.5940 C   0  0  0  0  0  0  0  0  0  0  0  0
   46.3510   33.6820   44.2830 N   0  0  0  0  0  0  0  0  0  0  0  0
   44.4640   33.9360   40.7310 C   0  0  2  0  0  0  0  0  0  0  0  0
   44.4360   33.2300   39.4100 C   0  0  0  0  0  0  0  0  0  0  0  0
   43.8880   35.3050   40.6950 C   0  0  0  0  0  0  0  0  0  0  0  0
   42.4140   35.1640   40.4170 C   0  0  0  0  0  0  0  0  0  0  0  0
   41.7810   35.4200   39.2280 C   0  0  0  0  0  0  0  0  0  0  0  0
   40.4190   35.2420   39.1190 C   0  0  0  0  0  0  0  0  0  0  0  0
   39.6340   34.8100   40.1660 C   0  0  0  0  0  0  0  0  0  0  0  0
   40.2300   34.5420   41.3770 C   0  0  0  0  0  0  0  0  0  0  0  0
   41.5950   34.7270   41.4640 C   0  0  0  0  0  0  0  0  0  0  0  0
   45.6947   35.9496   41.9517 H   0  0  0  0  0  0  0  0  0  0  0  0
   48.1244   36.0314   42.3825 H   0  0  0  0  0  0  0  0  0  0  0  0
   48.2090   34.2926   42.7217 H   0  0  0  0  0  0  0  0  0  0  0  0
   48.1568   35.7482   40.0865 H   0  0  0  0  0  0  0  0  0  0  0  0
   49.0035   34.2584   40.5000 H   0  0  0  0  0  0  0  0  0  0  0  0
   46.4177   34.5256   39.2501 H   0  0  0  0  0  0  0  0  0  0  0  0
   47.1765   33.0088   39.7681 H   0  0  0  0  0  0  0  0  0  0  0  0
   45.9310   32.9748   41.8153 H   0  0  0  0  0  0  0  0  0  0  0  0
   46.4311   32.5851   46.0715 H   0  0  0  0  0  0  0  0  0  0  0  0
   44.8096   34.0667   47.2435 H   0  0  0  0  0  0  0  0  0  0  0  0
   43.8462   36.0420   45.9742 H   0  0  0  0  0  0  0  0  0  0  0  0
   43.8054   33.3882   41.4210 H   0  0  0  0  0  0  0  0  0  0  0  0
   44.3929   32.1434   39.5758 H   0  0  0  0  0  0  0  0  0  0  0  0
   43.5498   33.5497   38.8421 H   0  0  0  0  0  0  0  0  0  0  0  0
   45.3447   33.4785   38.8421 H   0  0  0  0  0  0  0  0  0  0  0  0
   44.0424   35.8039   41.6631 H   0  0  0  0  0  0  0  0  0  0  0  0
   44.3746   35.9118   39.9172 H   0  0  0  0  0  0  0  0  0  0  0  0
   42.3609   35.7678   38.3604 H   0  0  0  0  0  0  0  0  0  0  0  0
   39.9369   35.4542   38.1533 H   0  0  0  0  0  0  0  0  0  0  0  0
   38.5493   34.6816   40.0359 H   0  0  0  0  0  0  0  0  0  0  0  0
   39.6429   34.1947   42.2400 H   0  0  0  0  0  0  0  0  0  0  0  0
   42.0758   34.5147   42.4303 H   0  0  0  0  0  0  0  0  0  0  0  0
  1 10  1  0
  2  1  1  0
  3  2  1  0
  4  3  1  0
  4  5  1  0
  5  1  1  0
  6  7  2  0
  8  7  1  0
  9  8  2  0
 10  9  1  0
 10 11  2  0
 11  6  1  0
 12  5  1  0
 13 12  1  0
 14 12  1  0
 15 14  1  0
 15 20  1  0
 16 15  2  0
 17 16  1  0
 17 18  2  0
 18 19  1  0
 19 20  2  0
  1 21  1  6
  2 22  1  0
  2 23  1  0
  3 24  1  0
  3 25  1  0
  4 26  1  0
  4 27  1  0
  5 28  1  1
  6 29  1  0
  7 30  1  0
  8 31  1  0
 12 32  1  1
 13 33  1  0
 13 34  1  0
 13 35  1  0
 14 36  1  0
 14 37  1  0
 16 38  1  0
 17 39  1  0
 18 40  1  0
 19 41  1  0
 20 42  1  0
M  ISO  8  21  13  22  13  23  13  24  13  25  13  26  13  27  13  28  13
M  ISO  8  29  14  30  14  31  14  32   8  33   8  34   8  35   8  36   8
M  ISO  6  37   8  38  14  39  14  40  14  41  14  42  14
M  END
>  <minimizedAffinity>  (1) 
-5.93560219

>  <minimizedRMSD>  (1) 
1.33853209

$$$$
