
     RDKit          3D

 41 43  0  0  1  0  0  0  0  0999 V2000
   46.2370   34.9720   42.0870 C   0  0  1  0  0  0  0  0  0  0  0  0
   47.7520   35.1020   42.0110 C   0  0  0  0  0  0  0  0  0  0  0  0
   48.1070   34.8280   40.5670 C   0  0  0  0  0  0  0  0  0  0  0  0
   46.9930   33.9530   40.0550 C   0  0  0  0  0  0  0  0  0  0  0  0
   45.9780   33.8090   41.2020 C   0  0  2  0  0  0  0  0  0  0  0  0
   45.8990   33.5350   45.4620 C   0  0  0  0  0  0  0  0  0  0  0  0
   45.0090   34.4230   46.0900 C   0  0  0  0  0  0  0  0  0  0  0  0
   44.5360   35.4990   45.3520 C   0  0  0  0  0  0  0  0  0  0  0  0
   44.9780   35.5940   44.0940 N   0  0  0  0  0  0  0  0  0  0  0  0
   45.8210   34.7570   43.4930 C   0  0  0  0  0  0  0  0  0  0  0  0
   46.2810   33.7190   44.1970 N   0  0  0  0  0  0  0  0  0  0  0  0
   44.5760   33.7250   40.6400 C   0  0  2  0  0  0  0  0  0  0  0  0
   44.6530   33.2630   39.2140 C   0  0  0  0  0  0  0  0  0  0  0  0
   43.8360   35.0180   40.7320 C   0  0  0  0  0  0  0  0  0  0  0  0
   42.3820   34.6480   40.7820 C   0  0  0  0  0  0  0  0  0  0  0  0
   41.4420   35.5060   40.2270 C   0  0  0  0  0  0  0  0  0  0  0  0
   40.0880   35.2610   40.2190 C   0  0  0  0  0  0  0  0  0  0  0  0
   39.6560   34.0850   40.8030 C   0  0  0  0  0  0  0  0  0  0  0  0
   40.6300   33.2770   41.3360 C   0  0  0  0  0  0  0  0  0  0  0  0
   41.9590   33.4890   41.3570 N   0  0  0  0  0  0  0  0  0  0  0  0
   45.6693   35.8588   41.7688 H   0  0  0  0  0  0  0  0  0  0  0  0
   48.0661   36.1162   42.2987 H   0  0  0  0  0  0  0  0  0  0  0  0
   48.2571   34.4048   42.6956 H   0  0  0  0  0  0  0  0  0  0  0  0
   48.1561   35.7666   39.9955 H   0  0  0  0  0  0  0  0  0  0  0  0
   49.0914   34.3478   40.4659 H   0  0  0  0  0  0  0  0  0  0  0  0
   46.5143   34.4212   39.1823 H   0  0  0  0  0  0  0  0  0  0  0  0
   47.3754   32.9707   39.7407 H   0  0  0  0  0  0  0  0  0  0  0  0
   46.0821   32.8841   41.7883 H   0  0  0  0  0  0  0  0  0  0  0  0
   46.2877   32.6727   46.0236 H   0  0  0  0  0  0  0  0  0  0  0  0
   44.6971   34.2700   47.1337 H   0  0  0  0  0  0  0  0  0  0  0  0
   43.8363   36.2328   45.7785 H   0  0  0  0  0  0  0  0  0  0  0  0
   44.0094   33.0037   41.2473 H   0  0  0  0  0  0  0  0  0  0  0  0
   44.8338   32.1782   39.1893 H   0  0  0  0  0  0  0  0  0  0  0  0
   43.7049   33.4884   38.7038 H   0  0  0  0  0  0  0  0  0  0  0  0
   45.4767   33.7837   38.7038 H   0  0  0  0  0  0  0  0  0  0  0  0
   44.1254   35.5621   41.6432 H   0  0  0  0  0  0  0  0  0  0  0  0
   44.0595   35.6765   39.8797 H   0  0  0  0  0  0  0  0  0  0  0  0
   41.8014   36.4378   39.7659 H   0  0  0  0  0  0  0  0  0  0  0  0
   39.3795   35.9708   39.7671 H   0  0  0  0  0  0  0  0  0  0  0  0
   38.5911   33.8116   40.8388 H   0  0  0  0  0  0  0  0  0  0  0  0
   40.2820   32.3435   41.8022 H   0  0  0  0  0  0  0  0  0  0  0  0
  1 10  1  0
  2  1  1  0
  3  2  1  0
  4  3  1  0
  4  5  1  0
  5  1  1  0
  6  7  2  0
  8  7  1  0
  9  8  2  0
 10  9  1  0
 10 11  2  0
 11  6  1  0
 12 14  1  0
 12  5  1  0
 13 12  1  0
 14 15  1  0
 15 20  1  0
 16 15  2  0
 17 16  1  0
 17 18  2  0
 18 19  1  0
 19 20  2  0
  1 21  1  6
  2 22  1  0
  2 23  1  0
  3 24  1  0
  3 25  1  0
  4 26  1  0
  4 27  1  0
  5 28  1  1
  6 29  1  0
  7 30  1  0
  8 31  1  0
 12 32  1  1
 13 33  1  0
 13 34  1  0
 13 35  1  0
 14 36  1  0
 14 37  1  0
 16 38  1  0
 17 39  1  0
 18 40  1  0
 19 41  1  0
M  ISO  8  21  13  22  13  23  13  24  13  25  13  26  13  27  13  28  13
M  ISO  8  29  14  30  14  31  14  32   8  33   8  34   8  35   8  36   8
M  ISO  5  37   8  38  14  39  14  40  14  41  14
M  END
>  <minimizedAffinity>  (1) 
-5.78521013

>  <minimizedRMSD>  (1) 
1.46048582

$$$$
