
     RDKit          3D

 39 41  0  0  1  0  0  0  0  0999 V2000
   46.3750   34.9740   42.1320 C   0  0  1  0  0  0  0  0  0  0  0  0
   47.8880   35.1320   42.0640 C   0  0  0  0  0  0  0  0  0  0  0  0
   48.2400   34.9380   40.6130 C   0  0  0  0  0  0  0  0  0  0  0  0
   47.1630   34.0230   40.0770 C   0  0  0  0  0  0  0  0  0  0  0  0
   46.1490   33.8280   41.2150 C   0  0  2  0  0  0  0  0  0  0  0  0
   46.1060   33.4630   45.4800 C   0  0  0  0  0  0  0  0  0  0  0  0
   45.1530   34.2690   46.1100 C   0  0  0  0  0  0  0  0  0  0  0  0
   44.6000   35.3370   45.3780 C   0  0  0  0  0  0  0  0  0  0  0  0
   45.0480   35.4820   44.1270 N   0  0  0  0  0  0  0  0  0  0  0  0
   45.9640   34.7030   43.5300 C   0  0  0  0  0  0  0  0  0  0  0  0
   46.4900   33.6890   44.2210 N   0  0  0  0  0  0  0  0  0  0  0  0
   44.7550   33.7170   40.6430 C   0  0  2  0  0  0  0  0  0  0  0  0
   44.8430   33.2080   39.2420 C   0  0  0  0  0  0  0  0  0  0  0  0
   43.9970   35.0040   40.7160 C   0  0  0  0  0  0  0  0  0  0  0  0
   42.5700   34.6260   40.9910 C   0  0  0  0  0  0  0  0  0  0  0  0
   41.4980   35.5130   41.1360 C   0  0  0  0  0  0  0  0  0  0  0  0
   40.3580   34.7900   41.3780 C   0  0  0  0  0  0  0  0  0  0  0  0
   40.7820   33.4710   41.3720 C   0  0  0  0  0  0  0  0  0  0  0  0
   42.0770   33.4270   41.1440 O   0  0  0  0  0  0  0  0  0  0  0  0
   45.7889   35.8579   41.8400 H   0  0  0  0  0  0  0  0  0  0  0  0
   48.1868   36.1350   42.4027 H   0  0  0  0  0  0  0  0  0  0  0  0
   48.4064   34.4108   42.7129 H   0  0  0  0  0  0  0  0  0  0  0  0
   48.2326   35.9001   40.0799 H   0  0  0  0  0  0  0  0  0  0  0  0
   49.2477   34.5171   40.4815 H   0  0  0  0  0  0  0  0  0  0  0  0
   46.6729   34.4826   39.2061 H   0  0  0  0  0  0  0  0  0  0  0  0
   47.5848   33.0607   39.7512 H   0  0  0  0  0  0  0  0  0  0  0  0
   46.2741   32.8942   41.7827 H   0  0  0  0  0  0  0  0  0  0  0  0
   46.5499   32.6230   46.0343 H   0  0  0  0  0  0  0  0  0  0  0  0
   44.8442   34.0743   47.1477 H   0  0  0  0  0  0  0  0  0  0  0  0
   43.8452   36.0110   45.8093 H   0  0  0  0  0  0  0  0  0  0  0  0
   44.1847   33.0043   41.2568 H   0  0  0  0  0  0  0  0  0  0  0  0
   45.0304   32.1242   39.2567 H   0  0  0  0  0  0  0  0  0  0  0  0
   43.8967   33.4094   38.7186 H   0  0  0  0  0  0  0  0  0  0  0  0
   45.6667   33.7154   38.7186 H   0  0  0  0  0  0  0  0  0  0  0  0
   44.3894   35.6336   41.5282 H   0  0  0  0  0  0  0  0  0  0  0  0
   44.0896   35.5807   39.7839 H   0  0  0  0  0  0  0  0  0  0  0  0
   41.5593   36.6091   41.0673 H   0  0  0  0  0  0  0  0  0  0  0  0
   39.3388   35.1707   41.5400 H   0  0  0  0  0  0  0  0  0  0  0  0
   40.1356   32.5956   41.5330 H   0  0  0  0  0  0  0  0  0  0  0  0
  1 10  1  0
  2  1  1  0
  3  2  1  0
  4  3  1  0
  4  5  1  0
  5  1  1  0
  6  7  2  0
  8  7  1  0
  9  8  2  0
 10  9  1  0
 10 11  2  0
 11  6  1  0
 12 14  1  0
 12  5  1  0
 13 12  1  0
 14 15  1  0
 15 16  2  0
 15 19  1  0
 16 17  1  0
 18 17  2  0
 19 18  1  0
  1 20  1  6
  2 21  1  0
  2 22  1  0
  3 23  1  0
  3 24  1  0
  4 25  1  0
  4 26  1  0
  5 27  1  1
  6 28  1  0
  7 29  1  0
  8 30  1  0
 12 31  1  1
 13 32  1  0
 13 33  1  0
 13 34  1  0
 14 35  1  0
 14 36  1  0
 16 37  1  0
 17 38  1  0
 18 39  1  0
M  ISO  8  20  13  21  13  22  13  23  13  24  13  25  13  26  13  27  13
M  ISO  8  28  14  29  14  30  14  31   8  32   8  33   8  34   8  35   8
M  ISO  4  36   8  37  14  38  14  39  14
M  END
>  <minimizedAffinity>  (1) 
-5.43258762

>  <minimizedRMSD>  (1) 
1.30876195

$$$$
