
     RDKit          3D

 39 41  0  0  1  0  0  0  0  0999 V2000
   46.3170   35.0090   42.0590 C   0  0  1  0  0  0  0  0  0  0  0  0
   47.8310   35.1490   42.0130 C   0  0  0  0  0  0  0  0  0  0  0  0
   48.2100   34.8920   40.5850 C   0  0  0  0  0  0  0  0  0  0  0  0
   47.1300   33.9720   40.0640 C   0  0  0  0  0  0  0  0  0  0  0  0
   46.0840   33.8310   41.1900 C   0  0  2  0  0  0  0  0  0  0  0  0
   45.9520   33.5410   45.4380 C   0  0  0  0  0  0  0  0  0  0  0  0
   45.0470   34.3940   46.0510 C   0  0  0  0  0  0  0  0  0  0  0  0
   44.5590   35.4660   45.3190 C   0  0  0  0  0  0  0  0  0  0  0  0
   45.0260   35.5650   44.0710 N   0  0  0  0  0  0  0  0  0  0  0  0
   45.8960   34.7580   43.4640 C   0  0  0  0  0  0  0  0  0  0  0  0
   46.3480   33.7380   44.1840 N   0  0  0  0  0  0  0  0  0  0  0  0
   44.7090   33.7330   40.5870 C   0  0  2  0  0  0  0  0  0  0  0  0
   44.8190   33.2250   39.1880 C   0  0  0  0  0  0  0  0  0  0  0  0
   43.9330   35.0010   40.6930 C   0  0  0  0  0  0  0  0  0  0  0  0
   42.5500   34.6110   41.0300 N   0  0  0  0  0  0  0  0  0  0  0  0
   42.0110   33.3800   41.1090 C   0  0  0  0  0  0  0  0  0  0  0  0
   40.6810   33.4720   41.4560 C   0  0  0  0  0  0  0  0  0  0  0  0
   40.4080   34.7920   41.5890 N   0  0  0  0  0  0  0  0  0  0  0  0
   41.5520   35.4630   41.3270 C   0  0  0  0  0  0  0  0  0  0  0  0
   45.7536   35.8933   41.7264 H   0  0  0  0  0  0  0  0  0  0  0  0
   48.1334   36.1625   42.3153 H   0  0  0  0  0  0  0  0  0  0  0  0
   48.3282   34.4495   42.7011 H   0  0  0  0  0  0  0  0  0  0  0  0
   48.2291   35.8315   40.0131 H   0  0  0  0  0  0  0  0  0  0  0  0
   49.2138   34.4517   40.4924 H   0  0  0  0  0  0  0  0  0  0  0  0
   46.6643   34.4048   39.1663 H   0  0  0  0  0  0  0  0  0  0  0  0
   47.5458   32.9923   39.7862 H   0  0  0  0  0  0  0  0  0  0  0  0
   46.1719   32.9170   41.7957 H   0  0  0  0  0  0  0  0  0  0  0  0
   46.3505   32.6838   46.0005 H   0  0  0  0  0  0  0  0  0  0  0  0
   44.7250   34.2251   47.0892 H   0  0  0  0  0  0  0  0  0  0  0  0
   43.8381   36.1844   45.7365 H   0  0  0  0  0  0  0  0  0  0  0  0
   44.1222   33.0096   41.1721 H   0  0  0  0  0  0  0  0  0  0  0  0
   45.0518   32.1501   39.2055 H   0  0  0  0  0  0  0  0  0  0  0  0
   43.8654   33.3852   38.6637 H   0  0  0  0  0  0  0  0  0  0  0  0
   45.6210   33.7653   38.6637 H   0  0  0  0  0  0  0  0  0  0  0  0
   44.3525   35.6397   41.4842 H   0  0  0  0  0  0  0  0  0  0  0  0
   43.9704   35.5733   39.7543 H   0  0  0  0  0  0  0  0  0  0  0  0
   42.5521   32.4403   40.9240 H   0  0  0  0  0  0  0  0  0  0  0  0
   39.9786   32.6373   41.5973 H   0  0  0  0  0  0  0  0  0  0  0  0
   41.6532   36.5580   41.3531 H   0  0  0  0  0  0  0  0  0  0  0  0
  1 10  1  0
  2  1  1  0
  3  2  1  0
  4  3  1  0
  4  5  1  0
  5  1  1  0
  6  7  2  0
  8  7  1  0
  9  8  2  0
 10  9  1  0
 10 11  2  0
 11  6  1  0
 12 14  1  0
 12  5  1  0
 13 12  1  0
 14 15  1  0
 15 16  1  0
 15 19  1  0
 16 17  2  0
 17 18  1  0
 19 18  2  0
  1 20  1  6
  2 21  1  0
  2 22  1  0
  3 23  1  0
  3 24  1  0
  4 25  1  0
  4 26  1  0
  5 27  1  1
  6 28  1  0
  7 29  1  0
  8 30  1  0
 12 31  1  1
 13 32  1  0
 13 33  1  0
 13 34  1  0
 14 35  1  0
 14 36  1  0
 16 37  1  0
 17 38  1  0
 19 39  1  0
M  ISO  8  20  13  21  13  22  13  23  13  24  13  25  13  26  13  27  13
M  ISO  8  28  14  29  14  30  14  31   8  32   8  33   8  34   8  35   8
M  ISO  4  36   8  37  14  38  14  39  14
M  END
>  <minimizedAffinity>  (1) 
-5.26448822

>  <minimizedRMSD>  (1) 
1.37326527

$$$$
