
     RDKit          3D

 34 35  0  0  1  0  0  0  0  0999 V2000
   46.7390   34.9320   42.0570 C   0  0  1  0  0  0  0  0  0  0  0  0
   48.1860   35.4000   42.0660 C   0  0  0  0  0  0  0  0  0  0  0  0
   48.6270   35.3500   40.6270 C   0  0  0  0  0  0  0  0  0  0  0  0
   47.7880   34.2390   40.0170 C   0  0  0  0  0  0  0  0  0  0  0  0
   46.7850   33.8010   41.0970 C   0  0  2  0  0  0  0  0  0  0  0  0
   46.5960   33.1630   45.2940 C   0  0  0  0  0  0  0  0  0  0  0  0
   45.5590   33.8110   45.9550 C   0  0  0  0  0  0  0  0  0  0  0  0
   44.9010   34.8640   45.2940 C   0  0  0  0  0  0  0  0  0  0  0  0
   45.3490   35.1410   44.0650 N   0  0  0  0  0  0  0  0  0  0  0  0
   46.3410   34.5210   43.4280 C   0  0  0  0  0  0  0  0  0  0  0  0
   46.9630   33.5200   44.0640 N   0  0  0  0  0  0  0  0  0  0  0  0
   45.4600   33.4400   40.4600 C   0  0  2  0  0  0  0  0  0  0  0  0
   45.6990   33.1180   39.0140 C   0  0  0  0  0  0  0  0  0  0  0  0
   44.4410   34.5230   40.6030 C   0  0  0  0  0  0  0  0  0  0  0  0
   43.2840   34.0830   39.8050 N   0  0  0  0  0  0  0  0  0  0  0  0
   45.9977   35.6903   41.7645 H   0  0  0  0  0  0  0  0  0  0  0  0
   48.2569   36.4263   42.4556 H   0  0  0  0  0  0  0  0  0  0  0  0
   48.8171   34.7711   42.7111 H   0  0  0  0  0  0  0  0  0  0  0  0
   48.4291   36.3085   40.1250 H   0  0  0  0  0  0  0  0  0  0  0  0
   49.7068   35.1670   40.5239 H   0  0  0  0  0  0  0  0  0  0  0  0
   47.2529   34.6107   39.1307 H   0  0  0  0  0  0  0  0  0  0  0  0
   48.4186   33.3965   39.6968 H   0  0  0  0  0  0  0  0  0  0  0  0
   47.0724   32.8862   41.6360 H   0  0  0  0  0  0  0  0  0  0  0  0
   47.1241   32.3391   45.7964 H   0  0  0  0  0  0  0  0  0  0  0  0
   45.2604   33.5080   46.9694 H   0  0  0  0  0  0  0  0  0  0  0  0
   44.0737   35.4219   45.7569 H   0  0  0  0  0  0  0  0  0  0  0  0
   45.0479   32.5643   40.9829 H   0  0  0  0  0  0  0  0  0  0  0  0
   46.3530   32.2368   38.9378 H   0  0  0  0  0  0  0  0  0  0  0  0
   44.7384   32.9053   38.5221 H   0  0  0  0  0  0  0  0  0  0  0  0
   46.1808   33.9759   38.5221 H   0  0  0  0  0  0  0  0  0  0  0  0
   44.1558   34.6455   41.6583 H   0  0  0  0  0  0  0  0  0  0  0  0
   44.8272   35.4943   40.2604 H   0  0  0  0  0  0  0  0  0  0  0  0
   42.5225   33.7934   40.4352 H   0  0  0  0  0  0  0  0  0  0  0  0
   42.9612   34.8600   39.2109 H   0  0  0  0  0  0  0  0  0  0  0  0
  1  2  1  0
  1 10  1  0
  3  2  1  0
  4  3  1  0
  4  5  1  0
  5  1  1  0
  6  7  2  0
  8  7  1  0
  9  8  2  0
 10 11  2  0
 10  9  1  0
 11  6  1  0
 12 14  1  0
 12  5  1  0
 13 12  1  0
 15 14  1  0
  1 16  1  6
  2 17  1  0
  2 18  1  0
  3 19  1  0
  3 20  1  0
  4 21  1  0
  4 22  1  0
  5 23  1  1
  6 24  1  0
  7 25  1  0
  8 26  1  0
 12 27  1  1
 13 28  1  0
 13 29  1  0
 13 30  1  0
 14 31  1  0
 14 32  1  0
 15 33  1  0
 15 34  1  0
M  ISO  8  16  13  17  13  18  13  19  13  20  13  21  13  22  13  23  13
M  ISO  8  24  14  25  14  26  14  27   8  28   8  29   8  30   8  31   8
M  ISO  3  32   8  33   5  34   5
M  END
>  <minimizedAffinity>  (1) 
-4.49403095

>  <minimizedRMSD>  (1) 
0.0532603562

$$$$
