
     RDKit          3D

 33 34  0  0  1  0  0  0  0  0999 V2000
   46.7440   34.9390   42.0480 C   0  0  1  0  0  0  0  0  0  0  0  0
   48.1860   35.4240   42.0620 C   0  0  0  0  0  0  0  0  0  0  0  0
   48.6410   35.3460   40.6300 C   0  0  0  0  0  0  0  0  0  0  0  0
   47.7980   34.2570   40.0170 C   0  0  0  0  0  0  0  0  0  0  0  0
   46.8070   33.8050   41.0920 C   0  0  2  0  0  0  0  0  0  0  0  0
   46.6110   33.1590   45.2870 C   0  0  0  0  0  0  0  0  0  0  0  0
   45.5650   33.8060   45.9480 C   0  0  0  0  0  0  0  0  0  0  0  0
   44.9110   34.8430   45.2900 C   0  0  0  0  0  0  0  0  0  0  0  0
   45.3550   35.1290   44.0610 N   0  0  0  0  0  0  0  0  0  0  0  0
   46.3620   34.5080   43.4200 C   0  0  0  0  0  0  0  0  0  0  0  0
   46.9880   33.5130   44.0540 N   0  0  0  0  0  0  0  0  0  0  0  0
   45.4880   33.4150   40.4600 C   0  0  2  0  0  0  0  0  0  0  0  0
   45.7300   33.0940   39.0110 C   0  0  0  0  0  0  0  0  0  0  0  0
   44.4550   34.4900   40.5920 C   0  0  0  0  0  0  0  0  0  0  0  0
   42.9380   33.7580   39.8500 S   0  0  0  0  0  0  0  0  0  0  0  0
   45.9950   35.6893   41.7546 H   0  0  0  0  0  0  0  0  0  0  0  0
   48.2413   36.4596   42.4287 H   0  0  0  0  0  0  0  0  0  0  0  0
   48.8177   34.8181   42.7282 H   0  0  0  0  0  0  0  0  0  0  0  0
   48.4703   36.3037   40.1164 H   0  0  0  0  0  0  0  0  0  0  0  0
   49.7173   35.1343   40.5472 H   0  0  0  0  0  0  0  0  0  0  0  0
   47.2561   34.6452   39.1420 H   0  0  0  0  0  0  0  0  0  0  0  0
   48.4234   33.4174   39.6794 H   0  0  0  0  0  0  0  0  0  0  0  0
   47.1091   32.8956   41.6321 H   0  0  0  0  0  0  0  0  0  0  0  0
   47.1383   32.3372   45.7935 H   0  0  0  0  0  0  0  0  0  0  0  0
   45.2658   33.5038   46.9625 H   0  0  0  0  0  0  0  0  0  0  0  0
   44.0791   35.3943   45.7525 H   0  0  0  0  0  0  0  0  0  0  0  0
   45.0931   32.5349   40.9886 H   0  0  0  0  0  0  0  0  0  0  0  0
   46.3906   32.2177   38.9349 H   0  0  0  0  0  0  0  0  0  0  0  0
   44.7710   32.8740   38.5191 H   0  0  0  0  0  0  0  0  0  0  0  0
   46.2054   33.9554   38.5191 H   0  0  0  0  0  0  0  0  0  0  0  0
   44.2885   34.7424   41.6496 H   0  0  0  0  0  0  0  0  0  0  0  0
   44.7559   35.4247   40.0963 H   0  0  0  0  0  0  0  0  0  0  0  0
   42.0926   33.3501   40.8479 H   0  0  0  0  0  0  0  0  0  0  0  0
  1  2  1  0
  1 10  1  0
  3  2  1  0
  4  3  1  0
  4  5  1  0
  5  1  1  0
  6  7  2  0
  8  7  1  0
  9  8  2  0
 10 11  2  0
 10  9  1  0
 11  6  1  0
 12 14  1  0
 12  5  1  0
 13 12  1  0
 15 14  1  0
  1 16  1  6
  2 17  1  0
  2 18  1  0
  3 19  1  0
  3 20  1  0
  4 21  1  0
  4 22  1  0
  5 23  1  1
  6 24  1  0
  7 25  1  0
  8 26  1  0
 12 27  1  1
 13 28  1  0
 13 29  1  0
 13 30  1  0
 14 31  1  0
 14 32  1  0
 15 33  1  0
M  ISO  8  16  13  17  13  18  13  19  13  20  13  21  13  22  13  23  13
M  ISO  8  24  14  25  14  26  14  27   8  28   8  29   8  30   8  31   8
M  ISO  2  32   8  33  11
M  END
>  <minimizedAffinity>  (1) 
-4.4876132

>  <minimizedRMSD>  (1) 
0.0358763672

$$$$
