
     RDKit          3D

 39 41  0  0  1  0  0  0  0  0999 V2000
   46.4380   34.9590   42.1080 C   0  0  1  0  0  0  0  0  0  0  0  0
   47.9480   35.1650   42.0270 C   0  0  0  0  0  0  0  0  0  0  0  0
   48.2960   34.9970   40.5760 C   0  0  0  0  0  0  0  0  0  0  0  0
   47.2380   34.0660   40.0390 C   0  0  0  0  0  0  0  0  0  0  0  0
   46.2270   33.8190   41.1810 C   0  0  2  0  0  0  0  0  0  0  0  0
   46.2910   33.3420   45.4340 C   0  0  0  0  0  0  0  0  0  0  0  0
   45.3230   34.0800   46.0960 C   0  0  0  0  0  0  0  0  0  0  0  0
   44.7210   35.1270   45.4130 C   0  0  0  0  0  0  0  0  0  0  0  0
   45.1520   35.3110   44.1620 N   0  0  0  0  0  0  0  0  0  0  0  0
   46.0800   34.6120   43.5100 C   0  0  0  0  0  0  0  0  0  0  0  0
   46.6440   33.6140   44.1820 N   0  0  0  0  0  0  0  0  0  0  0  0
   44.8450   33.6910   40.6180 C   0  0  2  0  0  0  0  0  0  0  0  0
   44.9380   33.2210   39.1930 C   0  0  0  0  0  0  0  0  0  0  0  0
   44.0350   34.9470   40.7600 C   0  0  0  0  0  0  0  0  0  0  0  0
   42.6460   34.5340   41.0200 N   0  0  0  0  0  0  0  0  0  0  0  0
   41.6860   35.4700   41.1040 N   0  0  0  0  0  0  0  0  0  0  0  0
   40.4990   34.8660   41.3450 C   0  0  0  0  0  0  0  0  0  0  0  0
   40.7420   33.5080   41.4100 C   0  0  0  0  0  0  0  0  0  0  0  0
   42.1110   33.3140   41.2010 C   0  0  0  0  0  0  0  0  0  0  0  0
   45.8258   35.8330   41.8410 H   0  0  0  0  0  0  0  0  0  0  0  0
   48.2180   36.1736   42.3733 H   0  0  0  0  0  0  0  0  0  0  0  0
   48.4929   34.4523   42.6636 H   0  0  0  0  0  0  0  0  0  0  0  0
   48.2637   35.9647   40.0539 H   0  0  0  0  0  0  0  0  0  0  0  0
   49.3125   34.6018   40.4328 H   0  0  0  0  0  0  0  0  0  0  0  0
   46.7305   34.5277   39.1792 H   0  0  0  0  0  0  0  0  0  0  0  0
   47.6849   33.1195   39.7007 H   0  0  0  0  0  0  0  0  0  0  0  0
   46.3683   32.8763   41.7299 H   0  0  0  0  0  0  0  0  0  0  0  0
   46.7805   32.5085   45.9590 H   0  0  0  0  0  0  0  0  0  0  0  0
   45.0402   33.8429   47.1322 H   0  0  0  0  0  0  0  0  0  0  0  0
   43.9451   35.7597   45.8686 H   0  0  0  0  0  0  0  0  0  0  0  0
   44.2968   32.9402   41.2061 H   0  0  0  0  0  0  0  0  0  0  0  0
   45.1515   32.1421   39.1760 H   0  0  0  0  0  0  0  0  0  0  0  0
   43.9842   33.4142   38.6802 H   0  0  0  0  0  0  0  0  0  0  0  0
   45.7463   33.7629   38.6802 H   0  0  0  0  0  0  0  0  0  0  0  0
   44.4140   35.5485   41.5994 H   0  0  0  0  0  0  0  0  0  0  0  0
   44.0989   35.5613   39.8498 H   0  0  0  0  0  0  0  0  0  0  0  0
   39.5250   35.3627   41.4662 H   0  0  0  0  0  0  0  0  0  0  0  0
   39.9946   32.7219   41.5929 H   0  0  0  0  0  0  0  0  0  0  0  0
   42.6450   32.3524   41.1874 H   0  0  0  0  0  0  0  0  0  0  0  0
  1 10  1  0
  2  1  1  0
  3  2  1  0
  4  3  1  0
  4  5  1  0
  5  1  1  0
  6  7  2  0
  8  7  1  0
  9  8  2  0
 10  9  1  0
 10 11  2  0
 11  6  1  0
 12 14  1  0
 12  5  1  0
 13 12  1  0
 14 15  1  0
 15 16  1  0
 15 19  1  0
 16 17  2  0
 17 18  1  0
 19 18  2  0
  1 20  1  6
  2 21  1  0
  2 22  1  0
  3 23  1  0
  3 24  1  0
  4 25  1  0
  4 26  1  0
  5 27  1  1
  6 28  1  0
  7 29  1  0
  8 30  1  0
 12 31  1  1
 13 32  1  0
 13 33  1  0
 13 34  1  0
 14 35  1  0
 14 36  1  0
 17 37  1  0
 18 38  1  0
 19 39  1  0
M  ISO  8  20  13  21  13  22  13  23  13  24  13  25  13  26  13  27  13
M  ISO  8  28  14  29  14  30  14  31   8  32   8  33   8  34   8  35   8
M  ISO  4  36   8  37  14  38  14  39  14
M  END
>  <minimizedAffinity>  (1) 
-5.27801561

>  <minimizedRMSD>  (1) 
1.18589616

$$$$
