
     RDKit          3D

 47 50  0  0  1  0  0  0  0  0999 V2000
   44.2060   33.5500   40.2890 C   0  0  2  0  0  0  0  0  0  0  0  0
   46.0020   34.8850   41.5100 C   0  0  1  0  0  0  0  0  0  0  0  0
   47.5280   34.7500   41.4470 C   0  0  0  0  0  0  0  0  0  0  0  0
   47.8100   34.3710   40.0180 C   0  0  0  0  0  0  0  0  0  0  0  0
   46.6120   33.5290   39.6290 C   0  0  0  0  0  0  0  0  0  0  0  0
   45.6240   33.6740   40.7860 C   0  0  2  0  0  0  0  0  0  0  0  0
   45.5390   33.8590   45.0480 C   0  0  0  0  0  0  0  0  0  0  0  0
   44.8210   34.9320   45.5810 C   0  0  0  0  0  0  0  0  0  0  0  0
   44.5010   35.9890   44.7290 C   0  0  0  0  0  0  0  0  0  0  0  0
   44.9250   35.8500   43.4780 N   0  0  0  0  0  0  0  0  0  0  0  0
   45.6100   34.8380   42.9480 C   0  0  0  0  0  0  0  0  0  0  0  0
   45.9110   33.8330   43.7690 N   0  0  0  0  0  0  0  0  0  0  0  0
   44.1980   32.9610   38.8940 C   0  0  0  0  0  0  0  0  0  0  0  0
   43.5310   34.8010   40.2710 C   0  0  0  0  0  0  0  0  0  0  0  0
   42.3480   34.8710   39.4770 N   0  0  0  0  0  0  0  0  0  0  0  0
   42.2850   35.7150   38.4240 N   0  0  0  0  0  0  0  0  0  0  0  0
   41.0950   35.5780   37.8430 C   0  0  0  0  0  0  0  0  0  0  0  0
   40.4460   34.6370   38.5660 C   0  0  0  0  0  0  0  0  0  0  0  0
   41.2670   34.1690   39.6490 C   0  0  0  0  0  0  0  0  0  0  0  0
   40.6260   33.1590   40.4680 C   0  0  0  0  0  0  0  0  0  0  0  0
   39.2850   32.8630   40.3530 C   0  0  0  0  0  0  0  0  0  0  0  0
   38.5790   31.9360   41.0640 C   0  0  0  0  0  0  0  0  0  0  0  0
   39.2670   31.2340   41.9790 N   0  0  0  0  0  0  0  0  0  0  0  0
   40.5760   31.4300   42.1860 C   0  0  0  0  0  0  0  0  0  0  0  0
   40.9000   32.3400   41.3730 N   0  0  0  0  0  0  0  0  0  0  0  0
   43.6738   32.8874   40.9874 H   0  0  0  0  0  0  0  0  0  0  0  0
   45.5463   35.7977   41.0986 H   0  0  0  0  0  0  0  0  0  0  0  0
   48.0142   35.7037   41.7003 H   0  0  0  0  0  0  0  0  0  0  0  0
   47.9138   34.0085   42.1621 H   0  0  0  0  0  0  0  0  0  0  0  0
   47.8845   35.2654   39.3820 H   0  0  0  0  0  0  0  0  0  0  0  0
   48.7643   33.8373   39.8980 H   0  0  0  0  0  0  0  0  0  0  0  0
   46.1674   33.9004   38.6939 H   0  0  0  0  0  0  0  0  0  0  0  0
   46.8883   32.4786   39.4550 H   0  0  0  0  0  0  0  0  0  0  0  0
   45.6681   32.8597   41.5242 H   0  0  0  0  0  0  0  0  0  0  0  0
   45.8040   33.0142   45.7007 H   0  0  0  0  0  0  0  0  0  0  0  0
   44.5178   34.9431   46.6383 H   0  0  0  0  0  0  0  0  0  0  0  0
   43.9393   36.8720   45.0679 H   0  0  0  0  0  0  0  0  0  0  0  0
   44.1831   31.8631   38.9596 H   0  0  0  0  0  0  0  0  0  0  0  0
   43.3045   33.3082   38.3545 H   0  0  0  0  0  0  0  0  0  0  0  0
   45.1006   33.2838   38.3545 H   0  0  0  0  0  0  0  0  0  0  0  0
   43.2541   35.0470   41.3068 H   0  0  0  0  0  0  0  0  0  0  0  0
   44.2361   35.5073   39.8085 H   0  0  0  0  0  0  0  0  0  0  0  0
   40.7188   36.1166   36.9608 H   0  0  0  0  0  0  0  0  0  0  0  0
   39.4279   34.2785   38.3539 H   0  0  0  0  0  0  0  0  0  0  0  0
   38.7203   33.4381   39.6044 H   0  0  0  0  0  0  0  0  0  0  0  0
   37.5042   31.7728   40.8964 H   0  0  0  0  0  0  0  0  0  0  0  0
   41.2260   30.9117   42.9063 H   0  0  0  0  0  0  0  0  0  0  0  0
  1  6  1  0
  2 11  1  0
  3  2  1  0
  4  3  1  0
  5  4  1  0
  5  6  1  0
  6  2  1  0
  7  8  2  0
  9  8  1  0
 10  9  2  0
 11 10  1  0
 11 12  2  0
 12  7  1  0
 13  1  1  0
 14  1  1  0
 15 19  1  0
 15 14  1  0
 16 15  1  0
 17 16  2  0
 17 18  1  0
 18 19  2  0
 19 20  1  0
 20 25  1  0
 21 20  2  0
 21 22  1  0
 22 23  2  0
 23 24  1  0
 25 24  2  0
  1 26  1  1
  2 27  1  6
  3 28  1  0
  3 29  1  0
  4 30  1  0
  4 31  1  0
  5 32  1  0
  5 33  1  0
  6 34  1  1
  7 35  1  0
  8 36  1  0
  9 37  1  0
 13 38  1  0
 13 39  1  0
 13 40  1  0
 14 41  1  0
 14 42  1  0
 17 43  1  0
 18 44  1  0
 21 45  1  0
 22 46  1  0
 24 47  1  0
M  ISO  8  26   8  27  13  28  13  29  13  30  13  31  13  32  13  33  13
M  ISO  8  34  13  35  14  36  14  37  14  38   8  39   8  40   8  41   8
M  ISO  6  42   8  43  14  44  14  45  14  46  14  47  14
M  END
>  <minimizedAffinity>  (1) 
-6.09144783

>  <minimizedRMSD>  (1) 
2.28293753

$$$$
