
     RDKit          3D

 52 55  0  0  1  0  0  0  0  0999 V2000
   46.3380   35.0330   41.9910 C   0  0  1  0  0  0  0  0  0  0  0  0
   47.8640   35.1260   42.0080 C   0  0  0  0  0  0  0  0  0  0  0  0
   48.2580   34.9400   40.5670 C   0  0  0  0  0  0  0  0  0  0  0  0
   47.2200   33.9790   40.0310 C   0  0  0  0  0  0  0  0  0  0  0  0
   46.1740   33.8500   41.1480 C   0  0  2  0  0  0  0  0  0  0  0  0
   45.8610   33.6300   45.3930 C   0  0  0  0  0  0  0  0  0  0  0  0
   44.9620   34.5280   45.9670 C   0  0  0  0  0  0  0  0  0  0  0  0
   44.5210   35.6040   45.1880 C   0  0  0  0  0  0  0  0  0  0  0  0
   45.0250   35.6420   43.9630 N   0  0  0  0  0  0  0  0  0  0  0  0
   45.8830   34.7970   43.3950 C   0  0  0  0  0  0  0  0  0  0  0  0
   46.2940   33.7810   44.1430 N   0  0  0  0  0  0  0  0  0  0  0  0
   44.8160   33.5550   40.5640 C   0  0  2  0  0  0  0  0  0  0  0  0
   44.9570   33.1430   39.1150 C   0  0  0  0  0  0  0  0  0  0  0  0
   43.9450   34.6820   40.6570 C   0  0  0  0  0  0  0  0  0  0  0  0
   42.6180   34.5150   40.2050 N   0  0  0  0  0  0  0  0  0  0  0  0
   42.1090   35.3190   39.2640 N   0  0  0  0  0  0  0  0  0  0  0  0
   40.8670   34.9310   38.9980 C   0  0  0  0  0  0  0  0  0  0  0  0
   40.6310   33.8620   39.8060 C   0  0  0  0  0  0  0  0  0  0  0  0
   41.7890   33.5910   40.6080 C   0  0  0  0  0  0  0  0  0  0  0  0
   41.6520   32.4460   41.4880 C   0  0  0  0  0  0  0  0  0  0  0  0
   42.0050   31.0860   40.8540 C   0  0  0  0  0  0  0  0  0  0  0  0
   41.7410   30.1800   42.0440 C   0  0  0  0  0  0  0  0  0  0  0  0
   40.6480   30.8890   42.8480 C   0  0  0  0  0  0  0  0  0  0  0  0
   40.2790   32.0140   41.8660 C   0  0  0  0  0  0  0  0  0  0  0  0
   45.7769   35.9076   41.6303 H   0  0  0  0  0  0  0  0  0  0  0  0
   48.1914   36.1085   42.3789 H   0  0  0  0  0  0  0  0  0  0  0  0
   48.3255   34.3803   42.6720 H   0  0  0  0  0  0  0  0  0  0  0  0
   48.2238   35.8964   40.0247 H   0  0  0  0  0  0  0  0  0  0  0  0
   49.2855   34.5645   40.4517 H   0  0  0  0  0  0  0  0  0  0  0  0
   46.7595   34.3799   39.1160 H   0  0  0  0  0  0  0  0  0  0  0  0
   47.6594   33.0061   39.7655 H   0  0  0  0  0  0  0  0  0  0  0  0
   46.3074   32.9855   41.8149 H   0  0  0  0  0  0  0  0  0  0  0  0
   46.2209   32.7768   45.9868 H   0  0  0  0  0  0  0  0  0  0  0  0
   44.6100   34.3949   47.0006 H   0  0  0  0  0  0  0  0  0  0  0  0
   43.8128   36.3577   45.5626 H   0  0  0  0  0  0  0  0  0  0  0  0
   44.3735   32.7332   41.1462 H   0  0  0  0  0  0  0  0  0  0  0  0
   45.3128   32.1035   39.0623 H   0  0  0  0  0  0  0  0  0  0  0  0
   43.9806   33.2222   38.6146 H   0  0  0  0  0  0  0  0  0  0  0  0
   45.6801   33.8038   38.6146 H   0  0  0  0  0  0  0  0  0  0  0  0
   43.8986   34.9770   41.7157 H   0  0  0  0  0  0  0  0  0  0  0  0
   44.3810   35.4318   39.9805 H   0  0  0  0  0  0  0  0  0  0  0  0
   40.1722   35.3811   38.2737 H   0  0  0  0  0  0  0  0  0  0  0  0
   39.6917   33.2905   39.8393 H   0  0  0  0  0  0  0  0  0  0  0  0
   42.2834   32.8499   42.2931 H   0  0  0  0  0  0  0  0  0  0  0  0
   41.3501   30.8474   40.0031 H   0  0  0  0  0  0  0  0  0  0  0  0
   43.0164   31.0163   40.4272 H   0  0  0  0  0  0  0  0  0  0  0  0
   41.3940   29.1917   41.7079 H   0  0  0  0  0  0  0  0  0  0  0  0
   42.6483   30.0090   42.6420 H   0  0  0  0  0  0  0  0  0  0  0  0
   39.7936   30.2257   43.0482 H   0  0  0  0  0  0  0  0  0  0  0  0
   40.9562   31.2298   43.8474 H   0  0  0  0  0  0  0  0  0  0  0  0
   39.7121   32.8199   42.3550 H   0  0  0  0  0  0  0  0  0  0  0  0
   39.6267   31.7201   41.0305 H   0  0  0  0  0  0  0  0  0  0  0  0
  1  2  1  0
  1 10  1  0
  3  2  1  0
  4  3  1  0
  4  5  1  0
  5  1  1  0
  6  7  2  0
  8  7  1  0
  9  8  2  0
 10  9  1  0
 10 11  2  0
 11  6  1  0
 12 14  1  0
 12  5  1  0
 13 12  1  0
 15 19  1  0
 15 14  1  0
 16 15  1  0
 17 16  2  0
 17 18  1  0
 18 19  2  0
 19 20  1  0
 20 24  1  0
 21 20  1  0
 21 22  1  0
 22 23  1  0
 24 23  1  0
  1 25  1  6
  2 26  1  0
  2 27  1  0
  3 28  1  0
  3 29  1  0
  4 30  1  0
  4 31  1  0
  5 32  1  1
  6 33  1  0
  7 34  1  0
  8 35  1  0
 12 36  1  1
 13 37  1  0
 13 38  1  0
 13 39  1  0
 14 40  1  0
 14 41  1  0
 17 42  1  0
 18 43  1  0
 20 44  1  0
 21 45  1  0
 21 46  1  0
 22 47  1  0
 22 48  1  0
 23 49  1  0
 23 50  1  0
 24 51  1  0
 24 52  1  0
M  ISO  8  25  13  26  13  27  13  28  13  29  13  30  13  31  13  32  13
M  ISO  8  33  14  34  14  35  14  36   8  37   8  38   8  39   8  40   8
M  ISO  8  41   8  42  14  43  14  44  13  45  13  46  13  47  13  48  13
M  ISO  4  49  13  50  13  51  13  52  13
M  END
>  <minimizedAffinity>  (1) 
-5.86517

>  <minimizedRMSD>  (1) 
1.18119609

$$$$
