
     RDKit          3D

 46 49  0  0  1  0  0  0  0  0999 V2000
   45.9400   34.9060   41.8000 C   0  0  1  0  0  0  0  0  0  0  0  0
   47.4540   34.7610   41.6910 C   0  0  0  0  0  0  0  0  0  0  0  0
   47.7050   34.3960   40.2650 C   0  0  0  0  0  0  0  0  0  0  0  0
   46.4720   33.6320   39.8420 C   0  0  0  0  0  0  0  0  0  0  0  0
   45.5110   33.7320   41.0290 C   0  0  2  0  0  0  0  0  0  0  0  0
   45.6040   33.7720   45.3170 C   0  0  0  0  0  0  0  0  0  0  0  0
   44.8430   34.7970   45.8880 C   0  0  0  0  0  0  0  0  0  0  0  0
   44.4450   35.8640   45.0740 C   0  0  0  0  0  0  0  0  0  0  0  0
   44.8470   35.7800   43.8130 N   0  0  0  0  0  0  0  0  0  0  0  0
   45.5750   34.8100   43.2450 C   0  0  0  0  0  0  0  0  0  0  0  0
   45.9460   33.8040   44.0310 N   0  0  0  0  0  0  0  0  0  0  0  0
   44.0820   33.6690   40.5640 C   0  0  2  0  0  0  0  0  0  0  0  0
   44.0060   32.9190   39.2430 C   0  0  0  0  0  0  0  0  0  0  0  0
   43.5180   34.9690   40.3730 C   0  0  0  0  0  0  0  0  0  0  0  0
   42.2770   35.0190   39.6770 N   0  0  0  0  0  0  0  0  0  0  0  0
   42.1880   35.5080   38.4420 N   0  0  0  0  0  0  0  0  0  0  0  0
   40.9160   35.4030   38.0310 C   0  0  0  0  0  0  0  0  0  0  0  0
   40.2240   34.8300   39.0630 C   0  0  0  0  0  0  0  0  0  0  0  0
   41.1320   34.5910   40.1350 C   0  0  0  0  0  0  0  0  0  0  0  0
   40.4770   34.0300   41.3380 C   0  0  0  0  0  0  0  0  0  0  0  0
   39.3810   33.0000   41.2400 C   0  0  0  0  0  0  0  0  0  0  0  0
   40.6870   32.4990   41.6000 C   0  0  0  0  0  0  0  0  0  0  0  0
   45.4937   35.8436   41.4371 H   0  0  0  0  0  0  0  0  0  0  0  0
   47.9523   35.7093   41.9409 H   0  0  0  0  0  0  0  0  0  0  0  0
   47.8481   34.0055   42.3867 H   0  0  0  0  0  0  0  0  0  0  0  0
   47.8318   35.2991   39.6499 H   0  0  0  0  0  0  0  0  0  0  0  0
   48.6239   33.8039   40.1424 H   0  0  0  0  0  0  0  0  0  0  0  0
   46.0257   34.0861   38.9450 H   0  0  0  0  0  0  0  0  0  0  0  0
   46.7031   32.5872   39.5870 H   0  0  0  0  0  0  0  0  0  0  0  0
   45.5481   32.8771   41.7203 H   0  0  0  0  0  0  0  0  0  0  0  0
   45.9253   32.9251   45.9411 H   0  0  0  0  0  0  0  0  0  0  0  0
   44.5638   34.7655   46.9515 H   0  0  0  0  0  0  0  0  0  0  0  0
   43.8458   36.7061   45.4507 H   0  0  0  0  0  0  0  0  0  0  0  0
   43.5100   33.1510   41.3479 H   0  0  0  0  0  0  0  0  0  0  0  0
   43.8969   31.8420   39.4386 H   0  0  0  0  0  0  0  0  0  0  0  0
   43.1395   33.2768   38.6675 H   0  0  0  0  0  0  0  0  0  0  0  0
   44.9267   33.0957   38.6675 H   0  0  0  0  0  0  0  0  0  0  0  0
   43.3646   35.4176   41.3656 H   0  0  0  0  0  0  0  0  0  0  0  0
   44.2343   35.5105   39.7376 H   0  0  0  0  0  0  0  0  0  0  0  0
   40.5096   35.7154   37.0577 H   0  0  0  0  0  0  0  0  0  0  0  0
   39.1496   34.5940   39.0649 H   0  0  0  0  0  0  0  0  0  0  0  0
   40.5895   34.9869   41.8687 H   0  0  0  0  0  0  0  0  0  0  0  0
   38.5772   32.9962   41.9910 H   0  0  0  0  0  0  0  0  0  0  0  0
   38.6653   32.7353   40.4477 H   0  0  0  0  0  0  0  0  0  0  0  0
   41.2600   31.8917   40.8839 H   0  0  0  0  0  0  0  0  0  0  0  0
   41.0891   31.8992   42.4298 H   0  0  0  0  0  0  0  0  0  0  0  0
  1 10  1  0
  2  1  1  0
  3  2  1  0
  4  3  1  0
  4  5  1  0
  5  1  1  0
  6  7  2  0
  8  7  1  0
  9  8  2  0
 10  9  1  0
 10 11  2  0
 11  6  1  0
 12  5  1  0
 13 12  1  0
 14 12  1  0
 15 19  1  0
 15 14  1  0
 16 15  1  0
 17 16  2  0
 17 18  1  0
 18 19  2  0
 19 20  1  0
 20 22  1  0
 21 20  1  0
 21 22  1  0
  1 23  1  6
  2 24  1  0
  2 25  1  0
  3 26  1  0
  3 27  1  0
  4 28  1  0
  4 29  1  0
  5 30  1  1
  6 31  1  0
  7 32  1  0
  8 33  1  0
 12 34  1  1
 13 35  1  0
 13 36  1  0
 13 37  1  0
 14 38  1  0
 14 39  1  0
 17 40  1  0
 18 41  1  0
 20 42  1  0
 21 43  1  0
 21 44  1  0
 22 45  1  0
 22 46  1  0
M  ISO  8  23  13  24  13  25  13  26  13  27  13  28  13  29  13  30  13
M  ISO  8  31  14  32  14  33  14  34   8  35   8  36   8  37   8  38   8
M  ISO  8  39   8  40  14  41  14  42  13  43  13  44  13  45  13  46  13
M  END
>  <minimizedAffinity>  (1) 
-5.68739748

>  <minimizedRMSD>  (1) 
1.9304378

$$$$
