
     RDKit          3D

 40 42  0  0  1  0  0  0  0  0999 V2000
   46.5190   34.9780   42.1210 C   0  0  1  0  0  0  0  0  0  0  0  0
   48.0340   35.1240   42.0790 C   0  0  0  0  0  0  0  0  0  0  0  0
   48.3720   35.0620   40.6140 C   0  0  0  0  0  0  0  0  0  0  0  0
   47.3320   34.1310   40.0440 C   0  0  0  0  0  0  0  0  0  0  0  0
   46.3340   33.8700   41.1800 C   0  0  2  0  0  0  0  0  0  0  0  0
   46.3220   33.3220   45.4350 C   0  0  0  0  0  0  0  0  0  0  0  0
   45.3330   34.0580   46.0900 C   0  0  0  0  0  0  0  0  0  0  0  0
   44.7360   35.1130   45.3910 C   0  0  0  0  0  0  0  0  0  0  0  0
   45.1790   35.3090   44.1580 N   0  0  0  0  0  0  0  0  0  0  0  0
   46.1220   34.6140   43.5190 C   0  0  0  0  0  0  0  0  0  0  0  0
   46.6910   33.6050   44.1890 N   0  0  0  0  0  0  0  0  0  0  0  0
   44.9550   33.6320   40.6290 C   0  0  2  0  0  0  0  0  0  0  0  0
   45.0630   33.1870   39.1820 C   0  0  0  0  0  0  0  0  0  0  0  0
   44.1250   34.8170   40.7080 C   0  0  0  0  0  0  0  0  0  0  0  0
   42.7410   34.5660   40.4210 N   0  0  0  0  0  0  0  0  0  0  0  0
   42.1000   35.1910   39.4350 N   0  0  0  0  0  0  0  0  0  0  0  0
   40.8260   34.7550   39.3930 C   0  0  0  0  0  0  0  0  0  0  0  0
   40.6910   33.8280   40.3940 C   0  0  0  0  0  0  0  0  0  0  0  0
   41.9380   33.7260   41.0410 C   0  0  0  0  0  0  0  0  0  0  0  0
   41.9850   32.8230   42.0960 O   0  0  0  0  0  0  0  0  0  0  0  0
   45.9249   35.8667   41.8618 H   0  0  0  0  0  0  0  0  0  0  0  0
   48.3450   36.0869   42.5104 H   0  0  0  0  0  0  0  0  0  0  0  0
   48.5479   34.3460   42.6626 H   0  0  0  0  0  0  0  0  0  0  0  0
   48.3010   36.0582   40.1530 H   0  0  0  0  0  0  0  0  0  0  0  0
   49.3997   34.7162   40.4288 H   0  0  0  0  0  0  0  0  0  0  0  0
   46.8243   34.6017   39.1892 H   0  0  0  0  0  0  0  0  0  0  0  0
   47.7828   33.1962   39.6795 H   0  0  0  0  0  0  0  0  0  0  0  0
   46.5039   32.9401   41.7425 H   0  0  0  0  0  0  0  0  0  0  0  0
   46.8079   32.4878   45.9622 H   0  0  0  0  0  0  0  0  0  0  0  0
   45.0332   33.8168   47.1205 H   0  0  0  0  0  0  0  0  0  0  0  0
   43.9493   35.7394   45.8367 H   0  0  0  0  0  0  0  0  0  0  0  0
   44.4794   32.8498   41.2389 H   0  0  0  0  0  0  0  0  0  0  0  0
   45.3223   32.1186   39.1453 H   0  0  0  0  0  0  0  0  0  0  0  0
   44.0997   33.3481   38.6760 H   0  0  0  0  0  0  0  0  0  0  0  0
   45.8453   33.7718   38.6760 H   0  0  0  0  0  0  0  0  0  0  0  0
   44.2007   35.2281   41.7255 H   0  0  0  0  0  0  0  0  0  0  0  0
   44.4914   35.5205   39.9459 H   0  0  0  0  0  0  0  0  0  0  0  0
   40.0444   35.0802   38.6906 H   0  0  0  0  0  0  0  0  0  0  0  0
   39.7783   33.2678   40.6453 H   0  0  0  0  0  0  0  0  0  0  0  0
   41.1768   32.3071   42.3423 H   0  0  0  0  0  0  0  0  0  0  0  0
  1 10  1  0
  2  1  1  0
  3  2  1  0
  4  3  1  0
  4  5  1  0
  5  1  1  0
  6  7  2  0
  8  7  1  0
  9  8  2  0
 10  9  1  0
 10 11  2  0
 11  6  1  0
 12 14  1  0
 12  5  1  0
 13 12  1  0
 15 14  1  0
 15 19  1  0
 16 15  1  0
 17 16  2  0
 17 18  1  0
 18 19  2  0
 19 20  1  0
  1 21  1  6
  2 22  1  0
  2 23  1  0
  3 24  1  0
  3 25  1  0
  4 26  1  0
  4 27  1  0
  5 28  1  1
  6 29  1  0
  7 30  1  0
  8 31  1  0
 12 32  1  1
 13 33  1  0
 13 34  1  0
 13 35  1  0
 14 36  1  0
 14 37  1  0
 17 38  1  0
 18 39  1  0
 20 40  1  0
M  ISO  8  21  13  22  13  23  13  24  13  25  13  26  13  27  13  28  13
M  ISO  8  29  14  30  14  31  14  32   8  33   8  34   8  35   8  36   8
M  ISO  4  37   8  38  14  39  14  40   3
M  END
>  <minimizedAffinity>  (1) 
-5.57800293

>  <minimizedRMSD>  (1) 
0.709775627

$$$$
