
     RDKit          3D

 31 34  0  0  0  0  0  0  0  0999 V2000
   47.2110   34.9190   41.9470 C   0  0  0  0  0  0  0  0  0  0  0  0
   48.4090   35.5630   41.8030 C   0  0  0  0  0  0  0  0  0  0  0  0
   48.7820   35.2220   40.4960 C   0  0  0  0  0  0  0  0  0  0  0  0
   47.8130   34.4130   39.9350 C   0  0  0  0  0  0  0  0  0  0  0  0
   46.9020   34.2770   40.8720 O   0  0  0  0  0  0  0  0  0  0  0  0
   47.6270   33.7500   38.6580 C   0  0  0  0  0  0  0  0  0  0  0  0
   48.6520   33.7990   37.7570 N   0  0  0  0  0  0  0  0  0  0  0  0
   48.5660   33.3260   36.5130 C   0  0  0  0  0  0  0  0  0  0  0  0
   47.4570   32.7480   36.0240 N   0  0  0  0  0  0  0  0  0  0  0  0
   46.3860   32.6540   36.8550 C   0  0  0  0  0  0  0  0  0  0  0  0
   45.2200   32.0500   36.4430 C   0  0  0  0  0  0  0  0  0  0  0  0
   44.1240   31.9070   37.2700 C   0  0  0  0  0  0  0  0  0  0  0  0
   44.2670   32.4160   38.5660 C   0  0  0  0  0  0  0  0  0  0  0  0
   45.4510   33.0120   38.9330 C   0  0  0  0  0  0  0  0  0  0  0  0
   46.5360   33.1590   38.1200 C   0  0  0  0  0  0  0  0  0  0  0  0
   44.5610   35.8750   44.3940 C   0  0  0  0  0  0  0  0  0  0  0  0
   45.3710   35.9040   43.2270 C   0  0  0  0  0  0  0  0  0  0  0  0
   46.3540   34.9180   43.1260 C   0  0  0  0  0  0  0  0  0  0  0  0
   46.4990   33.9900   44.1160 N   0  0  0  0  0  0  0  0  0  0  0  0
   45.6940   34.0070   45.2180 C   0  0  0  0  0  0  0  0  0  0  0  0
   44.7350   34.9430   45.3520 N   0  0  0  0  0  0  0  0  0  0  0  0
   48.9449   36.1907   42.5302 H   0  0  0  0  0  0  0  0  0  0  0  0
   49.7047   35.5484   39.9939 H   0  0  0  0  0  0  0  0  0  0  0  0
   49.4446   33.4134   35.8569 H   0  0  0  0  0  0  0  0  0  0  0  0
   45.1590   31.6660   35.4140 H   0  0  0  0  0  0  0  0  0  0  0  0
   43.1959   31.4231   36.9315 H   0  0  0  0  0  0  0  0  0  0  0  0
   43.4386   32.3399   39.2857 H   0  0  0  0  0  0  0  0  0  0  0  0
   45.5286   33.3993   39.9596 H   0  0  0  0  0  0  0  0  0  0  0  0
   43.7725   36.6318   44.5187 H   0  0  0  0  0  0  0  0  0  0  0  0
   45.2308   36.6638   42.4440 H   0  0  0  0  0  0  0  0  0  0  0  0
   45.8297   33.2493   46.0038 H   0  0  0  0  0  0  0  0  0  0  0  0
  1 18  1  0
  2  1  2  0
  3  2  1  0
  4  3  2  0
  4  5  1  0
  5  1  1  0
  6  4  1  0
  7  6  2  0
  8  7  1  0
  9  8  2  0
  9 10  1  0
 10 15  2  0
 11 10  1  0
 11 12  2  0
 12 13  1  0
 13 14  2  0
 15  6  1  0
 15 14  1  0
 16 21  2  0
 17 16  1  0
 18 17  2  0
 18 19  1  0
 19 20  2  0
 20 21  1  0
  2 22  1  0
  3 23  1  0
  8 24  1  0
 11 25  1  0
 12 26  1  0
 13 27  1  0
 14 28  1  0
 16 29  1  0
 17 30  1  0
 20 31  1  0
M  ISO  8  22  14  23  14  24  14  25  14  26  14  27  14  28  14  29  14
M  ISO  2  30  14  31  14
M  END
>  <minimizedAffinity>  (1) 
-5.94816256

>  <minimizedRMSD>  (1) 
0.882720947

$$$$
