
     RDKit          3D

 28 30  0  0  0  0  0  0  0  0999 V2000
   47.1460   34.8690   41.9640 C   0  0  0  0  0  0  0  0  0  0  0  0
   48.3750   35.4700   41.8090 C   0  0  0  0  0  0  0  0  0  0  0  0
   48.7220   35.1730   40.4940 C   0  0  0  0  0  0  0  0  0  0  0  0
   47.6920   34.4200   39.9430 C   0  0  0  0  0  0  0  0  0  0  0  0
   46.7460   34.2530   40.8690 O   0  0  0  0  0  0  0  0  0  0  0  0
   47.7180   33.9420   38.6050 N   0  0  0  0  0  0  0  0  0  0  0  0
   48.6500   34.1060   37.6500 C   0  0  0  0  0  0  0  0  0  0  0  0
   48.4750   33.5520   36.4070 C   0  0  0  0  0  0  0  0  0  0  0  0
   47.3520   32.8350   36.1440 C   0  0  0  0  0  0  0  0  0  0  0  0
   47.2060   32.2770   34.8460 N   0  0  0  0  0  0  0  0  0  0  0  0
   46.4140   32.6650   37.0920 N   0  0  0  0  0  0  0  0  0  0  0  0
   46.5940   33.2190   38.3260 C   0  0  0  0  0  0  0  0  0  0  0  0
   45.6400   32.9880   39.1340 O   0  0  0  0  0  0  0  0  0  0  0  0
   44.5680   35.8390   44.5000 C   0  0  0  0  0  0  0  0  0  0  0  0
   45.3530   35.8620   43.3010 C   0  0  0  0  0  0  0  0  0  0  0  0
   46.3240   34.8740   43.1770 C   0  0  0  0  0  0  0  0  0  0  0  0
   46.4750   33.9660   44.1590 N   0  0  0  0  0  0  0  0  0  0  0  0
   45.7090   33.9800   45.2810 C   0  0  0  0  0  0  0  0  0  0  0  0
   44.7640   34.9150   45.4370 N   0  0  0  0  0  0  0  0  0  0  0  0
   48.9474   36.0482   42.5493 H   0  0  0  0  0  0  0  0  0  0  0  0
   49.6463   35.4795   39.9824 H   0  0  0  0  0  0  0  0  0  0  0  0
   49.5582   34.6877   37.8664 H   0  0  0  0  0  0  0  0  0  0  0  0
   49.2398   33.6878   35.6281 H   0  0  0  0  0  0  0  0  0  0  0  0
   46.3665   31.7276   34.6130 H   0  0  0  0  0  0  0  0  0  0  0  0
   47.9397   32.4217   34.1377 H   0  0  0  0  0  0  0  0  0  0  0  0
   43.7881   36.6004   44.6484 H   0  0  0  0  0  0  0  0  0  0  0  0
   45.1958   36.6208   42.5203 H   0  0  0  0  0  0  0  0  0  0  0  0
   45.8657   33.2218   46.0624 H   0  0  0  0  0  0  0  0  0  0  0  0
  1 16  1  0
  2  1  2  0
  3  2  1  0
  4  3  2  0
  4  5  1  0
  5  1  1  0
  6  4  1  0
  7  6  1  0
  8  7  2  0
  9  8  1  0
  9 11  2  0
 10  9  1  0
 11 12  1  0
 12  6  1  0
 12 13  2  0
 14 19  2  0
 15 14  1  0
 16 15  2  0
 16 17  1  0
 17 18  2  0
 18 19  1  0
  2 20  1  0
  3 21  1  0
  7 22  1  0
  8 23  1  0
 10 24  1  0
 10 25  1  0
 14 26  1  0
 15 27  1  0
 18 28  1  0
M  ISO  7  20  14  21  14  22  14  23  14  26  14  27  14  28  14
M  END
>  <minimizedAffinity>  (1) 
-5.79916191

>  <minimizedRMSD>  (1) 
0.686728954

$$$$
