
     RDKit          3D

 32 34  0  0  0  0  0  0  0  0999 V2000
   47.0650   34.8800   41.9960 C   0  0  0  0  0  0  0  0  0  0  0  0
   48.2850   35.4940   41.8080 C   0  0  0  0  0  0  0  0  0  0  0  0
   48.6430   35.1340   40.5230 C   0  0  0  0  0  0  0  0  0  0  0  0
   47.6230   34.3180   39.9910 C   0  0  0  0  0  0  0  0  0  0  0  0
   46.7060   34.2100   40.9380 O   0  0  0  0  0  0  0  0  0  0  0  0
   44.5370   35.9870   44.5020 C   0  0  0  0  0  0  0  0  0  0  0  0
   45.3220   35.9640   43.3210 C   0  0  0  0  0  0  0  0  0  0  0  0
   46.2410   34.9360   43.1940 C   0  0  0  0  0  0  0  0  0  0  0  0
   46.3560   34.0030   44.1850 N   0  0  0  0  0  0  0  0  0  0  0  0
   45.5810   34.0620   45.3050 C   0  0  0  0  0  0  0  0  0  0  0  0
   44.6810   35.0480   45.4550 N   0  0  0  0  0  0  0  0  0  0  0  0
   47.5790   33.7190   38.6830 N   0  0  0  0  0  0  0  0  0  0  0  0
   48.3290   34.3530   37.6070 C   0  0  0  0  0  0  0  0  0  0  0  0
   48.6160   33.4340   36.4670 C   0  0  0  0  0  0  0  0  0  0  0  0
   47.3830   32.6200   36.1420 C   0  0  0  0  0  0  0  0  0  0  0  0
   47.1530   31.6990   37.3260 C   0  0  0  0  0  0  0  0  0  0  0  0
   46.7830   32.5150   38.5320 C   0  0  0  0  0  0  0  0  0  0  0  0
   48.8434   36.1239   42.5162 H   0  0  0  0  0  0  0  0  0  0  0  0
   49.5656   35.4327   40.0038 H   0  0  0  0  0  0  0  0  0  0  0  0
   43.7961   36.7880   44.6416 H   0  0  0  0  0  0  0  0  0  0  0  0
   45.2058   36.7296   42.5398 H   0  0  0  0  0  0  0  0  0  0  0  0
   45.6931   33.2989   46.0893 H   0  0  0  0  0  0  0  0  0  0  0  0
   47.7453   35.2057   37.2298 H   0  0  0  0  0  0  0  0  0  0  0  0
   49.2971   34.6661   38.0250 H   0  0  0  0  0  0  0  0  0  0  0  0
   48.9062   34.0249   35.5857 H   0  0  0  0  0  0  0  0  0  0  0  0
   49.4361   32.7557   36.7449 H   0  0  0  0  0  0  0  0  0  0  0  0
   46.5161   33.2823   36.0013 H   0  0  0  0  0  0  0  0  0  0  0  0
   47.5166   32.0480   35.2120 H   0  0  0  0  0  0  0  0  0  0  0  0
   46.3371   30.9990   37.0928 H   0  0  0  0  0  0  0  0  0  0  0  0
   48.0733   31.1338   37.5345 H   0  0  0  0  0  0  0  0  0  0  0  0
   45.7256   32.8054   38.4448 H   0  0  0  0  0  0  0  0  0  0  0  0
   46.9723   31.8891   39.4165 H   0  0  0  0  0  0  0  0  0  0  0  0
  1  8  1  0
  2  1  2  0
  3  2  1  0
  4  3  2  0
  4  5  1  0
  5  1  1  0
  6 11  2  0
  7  6  1  0
  8  7  2  0
  8  9  1  0
  9 10  2  0
 10 11  1  0
 12  4  1  0
 13 12  1  0
 14 13  1  0
 15 14  1  0
 15 16  1  0
 16 17  1  0
 17 12  1  0
  2 18  1  0
  3 19  1  0
  6 20  1  0
  7 21  1  0
 10 22  1  0
 13 23  1  0
 13 24  1  0
 14 25  1  0
 14 26  1  0
 15 27  1  0
 15 28  1  0
 16 29  1  0
 16 30  1  0
 17 31  1  0
 17 32  1  0
M  ISO  8  18  14  19  14  20  14  21  14  22  14  23  13  24  13  25  13
M  ISO  7  26  13  27  13  28  13  29  13  30  13  31  13  32  13
M  END
>  <minimizedAffinity>  (1) 
-5.50104952

>  <minimizedRMSD>  (1) 
0.646830201

$$$$
