
     RDKit          3D

 25 27  0  0  0  0  0  0  0  0999 V2000
   47.0530   34.8540   42.0010 C   0  0  0  0  0  0  0  0  0  0  0  0
   48.2700   35.5020   41.8180 C   0  0  0  0  0  0  0  0  0  0  0  0
   48.6340   35.1280   40.5210 C   0  0  0  0  0  0  0  0  0  0  0  0
   47.6380   34.3000   40.0180 C   0  0  0  0  0  0  0  0  0  0  0  0
   46.7070   34.1660   40.9540 O   0  0  0  0  0  0  0  0  0  0  0  0
   44.5330   35.9910   44.5110 C   0  0  0  0  0  0  0  0  0  0  0  0
   45.3210   35.9480   43.3290 C   0  0  0  0  0  0  0  0  0  0  0  0
   46.2370   34.9130   43.2030 C   0  0  0  0  0  0  0  0  0  0  0  0
   46.3420   33.9970   44.1970 N   0  0  0  0  0  0  0  0  0  0  0  0
   45.5670   34.0770   45.3110 C   0  0  0  0  0  0  0  0  0  0  0  0
   44.6690   35.0720   45.4600 N   0  0  0  0  0  0  0  0  0  0  0  0
   47.6600   33.7040   38.6890 C   0  0  0  0  0  0  0  0  0  0  0  0
   48.4530   34.2170   37.6830 C   0  0  0  0  0  0  0  0  0  0  0  0
   48.4280   33.5990   36.4310 C   0  0  0  0  0  0  0  0  0  0  0  0
   47.6340   32.5260   36.2440 N   0  0  0  0  0  0  0  0  0  0  0  0
   46.8680   32.0320   37.2180 C   0  0  0  0  0  0  0  0  0  0  0  0
   46.8830   32.6210   38.4360 N   0  0  0  0  0  0  0  0  0  0  0  0
   48.8131   36.1501   42.5215 H   0  0  0  0  0  0  0  0  0  0  0  0
   49.5481   35.4352   39.9918 H   0  0  0  0  0  0  0  0  0  0  0  0
   43.7982   36.7990   44.6420 H   0  0  0  0  0  0  0  0  0  0  0  0
   45.2088   36.7082   42.5419 H   0  0  0  0  0  0  0  0  0  0  0  0
   45.6738   33.3198   46.1017 H   0  0  0  0  0  0  0  0  0  0  0  0
   49.0915   35.0944   37.8635 H   0  0  0  0  0  0  0  0  0  0  0  0
   49.0484   33.9830   35.6078 H   0  0  0  0  0  0  0  0  0  0  0  0
   46.2307   31.1548   37.0328 H   0  0  0  0  0  0  0  0  0  0  0  0
  1  8  1  0
  2  1  2  0
  3  2  1  0
  4  3  2  0
  4  5  1  0
  5  1  1  0
  6 11  2  0
  7  6  1  0
  8  7  2  0
  8  9  1  0
  9 10  2  0
 10 11  1  0
 12  4  1  0
 13 12  2  0
 14 13  1  0
 15 14  2  0
 15 16  1  0
 16 17  2  0
 17 12  1  0
  2 18  1  0
  3 19  1  0
  6 20  1  0
  7 21  1  0
 10 22  1  0
 13 23  1  0
 14 24  1  0
 16 25  1  0
M  ISO  8  18  14  19  14  20  14  21  14  22  14  23  14  24  14  25  14
M  END
>  <minimizedAffinity>  (1) 
-5.48920488

>  <minimizedRMSD>  (1) 
0.204672873

$$$$
