
     RDKit          3D

 24 26  0  0  0  0  0  0  0  0999 V2000
   47.2180   34.9220   41.9690 C   0  0  0  0  0  0  0  0  0  0  0  0
   48.4080   35.5870   41.8330 C   0  0  0  0  0  0  0  0  0  0  0  0
   48.8210   35.2870   40.5510 C   0  0  0  0  0  0  0  0  0  0  0  0
   47.8590   34.4580   39.9850 C   0  0  0  0  0  0  0  0  0  0  0  0
   46.9020   34.2640   40.8870 O   0  0  0  0  0  0  0  0  0  0  0  0
   44.5540   35.8740   44.4120 C   0  0  0  0  0  0  0  0  0  0  0  0
   45.3770   35.9010   43.2550 C   0  0  0  0  0  0  0  0  0  0  0  0
   46.3640   34.9120   43.1490 C   0  0  0  0  0  0  0  0  0  0  0  0
   46.4730   34.0050   44.1360 N   0  0  0  0  0  0  0  0  0  0  0  0
   45.6640   34.0120   45.2320 C   0  0  0  0  0  0  0  0  0  0  0  0
   44.7090   34.9520   45.3560 N   0  0  0  0  0  0  0  0  0  0  0  0
   47.8150   33.8640   38.6660 C   0  0  0  0  0  0  0  0  0  0  0  0
   48.5180   34.1840   37.5620 C   0  0  0  0  0  0  0  0  0  0  0  0
   48.3100   33.4740   36.4030 C   0  0  0  0  0  0  0  0  0  0  0  0
   47.3540   32.4410   36.4660 C   0  0  0  0  0  0  0  0  0  0  0  0
   46.7670   32.4890   38.1510 S   0  0  0  0  0  0  0  0  0  0  0  0
   48.9182   36.2168   42.5766 H   0  0  0  0  0  0  0  0  0  0  0  0
   49.7430   35.6394   40.0655 H   0  0  0  0  0  0  0  0  0  0  0  0
   43.7687   36.6353   44.5296 H   0  0  0  0  0  0  0  0  0  0  0  0
   45.2453   36.6657   42.4753 H   0  0  0  0  0  0  0  0  0  0  0  0
   45.7913   33.2499   46.0150 H   0  0  0  0  0  0  0  0  0  0  0  0
   49.2504   35.0043   37.5876 H   0  0  0  0  0  0  0  0  0  0  0  0
   48.8598   33.7001   35.4775 H   0  0  0  0  0  0  0  0  0  0  0  0
   47.0408   31.7603   35.6607 H   0  0  0  0  0  0  0  0  0  0  0  0
  1  8  1  0
  2  1  2  0
  3  2  1  0
  4  3  2  0
  4  5  1  0
  5  1  1  0
  6 11  2  0
  7  6  1  0
  8  7  2  0
  8  9  1  0
  9 10  2  0
 10 11  1  0
 12  4  1  0
 13 12  2  0
 14 15  2  0
 14 13  1  0
 15 16  1  0
 16 12  1  0
  2 17  1  0
  3 18  1  0
  6 19  1  0
  7 20  1  0
 10 21  1  0
 13 22  1  0
 14 23  1  0
 15 24  1  0
M  ISO  8  17  14  18  14  19  14  20  14  21  14  22  14  23  14  24  14
M  END
>  <minimizedAffinity>  (1) 
-5.32572365

>  <minimizedRMSD>  (1) 
0.459387153

$$$$
