
     RDKit          3D

 24 26  0  0  0  0  0  0  0  0999 V2000
   47.2500   34.9660   41.9400 C   0  0  0  0  0  0  0  0  0  0  0  0
   48.4670   35.5840   41.8210 C   0  0  0  0  0  0  0  0  0  0  0  0
   48.8710   35.3120   40.5300 C   0  0  0  0  0  0  0  0  0  0  0  0
   47.8820   34.5420   39.9260 C   0  0  0  0  0  0  0  0  0  0  0  0
   46.9180   34.3570   40.8170 O   0  0  0  0  0  0  0  0  0  0  0  0
   44.5600   35.8490   44.3720 C   0  0  0  0  0  0  0  0  0  0  0  0
   45.3930   35.9000   43.2140 C   0  0  0  0  0  0  0  0  0  0  0  0
   46.3870   34.9410   43.1050 C   0  0  0  0  0  0  0  0  0  0  0  0
   46.5200   34.0080   44.0920 N   0  0  0  0  0  0  0  0  0  0  0  0
   45.7000   34.0000   45.1780 C   0  0  0  0  0  0  0  0  0  0  0  0
   44.7320   34.9150   45.3100 N   0  0  0  0  0  0  0  0  0  0  0  0
   47.7670   33.9790   38.6170 N   0  0  0  0  0  0  0  0  0  0  0  0
   46.8400   33.0190   38.4260 C   0  0  0  0  0  0  0  0  0  0  0  0
   46.9640   32.6730   37.0780 C   0  0  0  0  0  0  0  0  0  0  0  0
   47.9420   33.4310   36.5400 N   0  0  0  0  0  0  0  0  0  0  0  0
   48.4540   34.2480   37.4740 C   0  0  0  0  0  0  0  0  0  0  0  0
   49.0027   36.1671   42.5846 H   0  0  0  0  0  0  0  0  0  0  0  0
   49.8088   35.6449   40.0614 H   0  0  0  0  0  0  0  0  0  0  0  0
   43.7603   36.5944   44.4939 H   0  0  0  0  0  0  0  0  0  0  0  0
   45.2516   36.6689   42.4402 H   0  0  0  0  0  0  0  0  0  0  0  0
   45.8341   33.2335   45.9555 H   0  0  0  0  0  0  0  0  0  0  0  0
   46.1418   32.6013   39.1663 H   0  0  0  0  0  0  0  0  0  0  0  0
   46.3684   31.9151   36.5480 H   0  0  0  0  0  0  0  0  0  0  0  0
   49.2618   34.9829   37.3424 H   0  0  0  0  0  0  0  0  0  0  0  0
  1  8  1  0
  2  1  2  0
  3  2  1  0
  4  3  2  0
  4  5  1  0
  5  1  1  0
  6 11  2  0
  7  6  1  0
  8  7  2  0
  8  9  1  0
  9 10  2  0
 10 11  1  0
 12  4  1  0
 13 12  1  0
 14 13  2  0
 15 14  1  0
 15 16  2  0
 16 12  1  0
  2 17  1  0
  3 18  1  0
  6 19  1  0
  7 20  1  0
 10 21  1  0
 13 22  1  0
 14 23  1  0
 16 24  1  0
M  ISO  8  17  14  18  14  19  14  20  14  21  14  22  14  23  14  24  14
M  END
>  <minimizedAffinity>  (1) 
-5.23466778

>  <minimizedRMSD>  (1) 
0.740903199

$$$$
