
     RDKit          3D

 30 32  0  0  0  0  0  0  0  0999 V2000
   46.8850   34.6820   41.8830 C   0  0  0  0  0  0  0  0  0  0  0  0
   48.1100   35.2410   41.5960 C   0  0  0  0  0  0  0  0  0  0  0  0
   48.3550   34.8080   40.2890 C   0  0  0  0  0  0  0  0  0  0  0  0
   47.2810   34.0270   39.8740 C   0  0  0  0  0  0  0  0  0  0  0  0
   46.4100   33.9840   40.8920 O   0  0  0  0  0  0  0  0  0  0  0  0
   44.5700   36.0260   44.4990 C   0  0  0  0  0  0  0  0  0  0  0  0
   45.2780   35.9080   43.2660 C   0  0  0  0  0  0  0  0  0  0  0  0
   46.1490   34.8190   43.1390 C   0  0  0  0  0  0  0  0  0  0  0  0
   46.2860   33.9380   44.1590 N   0  0  0  0  0  0  0  0  0  0  0  0
   45.5740   34.1090   45.3200 C   0  0  0  0  0  0  0  0  0  0  0  0
   44.7310   35.1380   45.4820 N   0  0  0  0  0  0  0  0  0  0  0  0
   47.1130   33.3570   38.5530 C   0  0  0  0  0  0  0  0  0  0  0  0
   47.8830   32.0740   38.4880 C   0  0  0  0  0  0  0  0  0  0  0  0
   49.1880   32.3480   37.7850 C   0  0  0  0  0  0  0  0  0  0  0  0
   49.1150   33.7480   37.2280 C   0  0  0  0  0  0  0  0  0  0  0  0
   47.6840   34.1590   37.4120 C   0  0  0  0  0  0  0  0  0  0  0  0
   48.7414   35.8733   42.2376 H   0  0  0  0  0  0  0  0  0  0  0  0
   49.2466   35.0450   39.6900 H   0  0  0  0  0  0  0  0  0  0  0  0
   43.8762   36.8674   44.6425 H   0  0  0  0  0  0  0  0  0  0  0  0
   45.1459   36.6379   42.4537 H   0  0  0  0  0  0  0  0  0  0  0  0
   45.6985   33.3836   46.1375 H   0  0  0  0  0  0  0  0  0  0  0  0
   46.0253   33.2218   38.4604 H   0  0  0  0  0  0  0  0  0  0  0  0
   48.0778   31.7038   39.5053 H   0  0  0  0  0  0  0  0  0  0  0  0
   47.3083   31.3111   37.9424 H   0  0  0  0  0  0  0  0  0  0  0  0
   50.0225   32.2698   38.4974 H   0  0  0  0  0  0  0  0  0  0  0  0
   49.3561   31.6178   36.9797 H   0  0  0  0  0  0  0  0  0  0  0  0
   49.3865   33.7557   36.1620 H   0  0  0  0  0  0  0  0  0  0  0  0
   49.8121   34.4329   37.7330 H   0  0  0  0  0  0  0  0  0  0  0  0
   47.6310   35.2324   37.6467 H   0  0  0  0  0  0  0  0  0  0  0  0
   47.1117   33.9747   36.4909 H   0  0  0  0  0  0  0  0  0  0  0  0
  1  8  1  0
  2  1  2  0
  3  2  1  0
  4  3  2  0
  4  5  1  0
  5  1  1  0
  6 11  2  0
  7  6  1  0
  8  7  2  0
  8  9  1  0
  9 10  2  0
 10 11  1  0
 12  4  1  0
 13 12  1  0
 14 13  1  0
 15 16  1  0
 15 14  1  0
 16 12  1  0
  2 17  1  0
  3 18  1  0
  6 19  1  0
  7 20  1  0
 10 21  1  0
 12 22  1  0
 13 23  1  0
 13 24  1  0
 14 25  1  0
 14 26  1  0
 15 27  1  0
 15 28  1  0
 16 29  1  0
 16 30  1  0
M  ISO  8  17  14  18  14  19  14  20  14  21  14  22  13  23  13  24  13
M  ISO  6  25  13  26  13  27  13  28  13  29  13  30  13
M  END
>  <minimizedAffinity>  (1) 
-5.12736368

>  <minimizedRMSD>  (1) 
0.701001942

$$$$
