
     RDKit          3D

 24 26  0  0  0  0  0  0  0  0999 V2000
   47.1080   34.8570   41.8950 C   0  0  0  0  0  0  0  0  0  0  0  0
   48.3510   35.4500   41.7140 C   0  0  0  0  0  0  0  0  0  0  0  0
   48.6850   35.1130   40.4060 C   0  0  0  0  0  0  0  0  0  0  0  0
   47.6470   34.3480   39.8710 C   0  0  0  0  0  0  0  0  0  0  0  0
   46.7180   34.2250   40.8190 O   0  0  0  0  0  0  0  0  0  0  0  0
   44.5780   35.9040   44.4250 C   0  0  0  0  0  0  0  0  0  0  0  0
   45.3490   35.8990   43.2310 C   0  0  0  0  0  0  0  0  0  0  0  0
   46.2980   34.8980   43.0990 C   0  0  0  0  0  0  0  0  0  0  0  0
   46.4540   33.9780   44.0930 N   0  0  0  0  0  0  0  0  0  0  0  0
   45.6920   34.0180   45.2230 C   0  0  0  0  0  0  0  0  0  0  0  0
   44.7560   34.9810   45.3860 N   0  0  0  0  0  0  0  0  0  0  0  0
   47.5960   33.7860   38.5160 C   0  0  0  0  0  0  0  0  0  0  0  0
   48.8590   33.1240   37.9800 C   0  0  0  0  0  0  0  0  0  0  0  0
   48.2720   34.4090   37.3760 C   0  0  0  0  0  0  0  0  0  0  0  0
   48.9329   36.0446   42.4336 H   0  0  0  0  0  0  0  0  0  0  0  0
   49.6090   35.4003   39.8829 H   0  0  0  0  0  0  0  0  0  0  0  0
   43.8153   36.6839   44.5665 H   0  0  0  0  0  0  0  0  0  0  0  0
   45.1991   36.6558   42.4469 H   0  0  0  0  0  0  0  0  0  0  0  0
   45.8395   33.2616   46.0079 H   0  0  0  0  0  0  0  0  0  0  0  0
   46.5491   33.4908   38.6796 H   0  0  0  0  0  0  0  0  0  0  0  0
   49.7940   33.1563   38.5585 H   0  0  0  0  0  0  0  0  0  0  0  0
   49.1360   32.1265   37.6082 H   0  0  0  0  0  0  0  0  0  0  0  0
   48.7983   35.3659   37.5079 H   0  0  0  0  0  0  0  0  0  0  0  0
   47.9602   34.7153   36.3666 H   0  0  0  0  0  0  0  0  0  0  0  0
  1  8  1  0
  2  1  2  0
  3  2  1  0
  4  3  2  0
  4  5  1  0
  5  1  1  0
  6 11  2  0
  7  6  1  0
  8  7  2  0
  8  9  1  0
  9 10  2  0
 10 11  1  0
 12  4  1  0
 13 12  1  0
 14 13  1  0
 14 12  1  0
  2 15  1  0
  3 16  1  0
  6 17  1  0
  7 18  1  0
 10 19  1  0
 12 20  1  0
 13 21  1  0
 13 22  1  0
 14 23  1  0
 14 24  1  0
M  ISO  8  15  14  16  14  17  14  18  14  19  14  20  13  21  13  22  13
M  ISO  2  23  13  24  13
M  END
>  <minimizedAffinity>  (1) 
-5.04300022

>  <minimizedRMSD>  (1) 
0.307459474

$$$$
