
     RDKit          3D

 19 20  0  0  0  0  0  0  0  0999 V2000
   47.2100   34.9070   41.9450 C   0  0  0  0  0  0  0  0  0  0  0  0
   48.4080   35.5520   41.7930 C   0  0  0  0  0  0  0  0  0  0  0  0
   48.7910   35.2200   40.4880 C   0  0  0  0  0  0  0  0  0  0  0  0
   47.8070   34.4040   39.9410 C   0  0  0  0  0  0  0  0  0  0  0  0
   46.8640   34.2390   40.8610 O   0  0  0  0  0  0  0  0  0  0  0  0
   44.5660   35.8780   44.3940 C   0  0  0  0  0  0  0  0  0  0  0  0
   45.3760   35.9080   43.2230 C   0  0  0  0  0  0  0  0  0  0  0  0
   46.3590   34.9100   43.1300 C   0  0  0  0  0  0  0  0  0  0  0  0
   46.4860   34.0020   44.1170 N   0  0  0  0  0  0  0  0  0  0  0  0
   45.6820   34.0210   45.2150 C   0  0  0  0  0  0  0  0  0  0  0  0
   44.7280   34.9580   45.3470 N   0  0  0  0  0  0  0  0  0  0  0  0
   47.8140   33.8400   38.6130 C   0  0  0  0  0  0  0  0  0  0  0  0
   48.3410   34.5880   37.7190 O   0  0  0  0  0  0  0  0  0  0  0  0
   48.9416   36.1803   42.5214 H   0  0  0  0  0  0  0  0  0  0  0  0
   49.7114   35.5480   39.9827 H   0  0  0  0  0  0  0  0  0  0  0  0
   43.7808   36.6384   44.5170 H   0  0  0  0  0  0  0  0  0  0  0  0
   45.2397   36.6672   42.4388 H   0  0  0  0  0  0  0  0  0  0  0  0
   45.8143   33.2629   46.0010 H   0  0  0  0  0  0  0  0  0  0  0  0
   47.3994   32.8464   38.3874 H   0  0  0  0  0  0  0  0  0  0  0  0
  1  8  1  0
  2  1  2  0
  3  2  1  0
  4  3  2  0
  4  5  1  0
  5  1  1  0
  6 11  2  0
  7  6  1  0
  8  7  2  0
  8  9  1  0
  9 10  2  0
 10 11  1  0
 12  4  1  0
 13 12  2  0
  2 14  1  0
  3 15  1  0
  6 16  1  0
  7 17  1  0
 10 18  1  0
 12 19  1  0
M  ISO  6  14  14  15  14  16  14  17  14  18  14  19   6
M  END
>  <minimizedAffinity>  (1) 
-4.72016573

>  <minimizedRMSD>  (1) 
0.467662632

$$$$
