
     RDKit          3D

 19 20  0  0  0  0  0  0  0  0999 V2000
   46.9710   34.8220   42.0210 C   0  0  0  0  0  0  0  0  0  0  0  0
   48.2390   35.3080   41.8340 C   0  0  0  0  0  0  0  0  0  0  0  0
   48.5200   34.9790   40.5080 C   0  0  0  0  0  0  0  0  0  0  0  0
   47.4170   34.3190   39.9770 C   0  0  0  0  0  0  0  0  0  0  0  0
   46.4980   34.2460   40.9330 O   0  0  0  0  0  0  0  0  0  0  0  0
   44.5130   35.9740   44.5790 C   0  0  0  0  0  0  0  0  0  0  0  0
   45.2680   35.9330   43.3750 C   0  0  0  0  0  0  0  0  0  0  0  0
   46.1810   34.8950   43.2420 C   0  0  0  0  0  0  0  0  0  0  0  0
   46.3040   33.9950   44.2450 N   0  0  0  0  0  0  0  0  0  0  0  0
   45.5650   34.0690   45.3800 C   0  0  0  0  0  0  0  0  0  0  0  0
   44.6720   35.0590   45.5400 N   0  0  0  0  0  0  0  0  0  0  0  0
   47.2440   33.8000   38.6740 N   0  0  0  0  0  0  0  0  0  0  0  0
   48.8814   35.8322   42.5569 H   0  0  0  0  0  0  0  0  0  0  0  0
   49.4548   35.2033   39.9733 H   0  0  0  0  0  0  0  0  0  0  0  0
   43.7786   36.7801   44.7234 H   0  0  0  0  0  0  0  0  0  0  0  0
   45.1352   36.6879   42.5860 H   0  0  0  0  0  0  0  0  0  0  0  0
   45.6975   33.3163   46.1712 H   0  0  0  0  0  0  0  0  0  0  0  0
   46.3632   33.3307   38.4193 H   0  0  0  0  0  0  0  0  0  0  0  0
   47.9987   33.8911   37.9790 H   0  0  0  0  0  0  0  0  0  0  0  0
  1  8  1  0
  2  1  2  0
  3  2  1  0
  4  3  2  0
  4  5  1  0
  5  1  1  0
  6 11  2  0
  7  6  1  0
  8  7  2  0
  8  9  1  0
  9 10  2  0
 10 11  1  0
 12  4  1  0
  2 13  1  0
  3 14  1  0
  6 15  1  0
  7 16  1  0
 10 17  1  0
 12 18  1  0
 12 19  1  0
M  ISO  5  13  14  14  14  15  14  16  14  17  14
M  END
>  <minimizedAffinity>  (1) 
-4.71194077

>  <minimizedRMSD>  (1) 
0.111272261

$$$$
