
     RDKit          3D

 18 19  0  0  0  0  0  0  0  0999 V2000
   44.5550   35.9970   44.4960 C   0  0  0  0  0  0  0  0  0  0  0  0
   45.3170   35.9510   43.2910 C   0  0  0  0  0  0  0  0  0  0  0  0
   46.2170   34.8910   43.1740 C   0  0  0  0  0  0  0  0  0  0  0  0
   46.3150   33.9950   44.1720 N   0  0  0  0  0  0  0  0  0  0  0  0
   45.5670   34.0780   45.3040 C   0  0  0  0  0  0  0  0  0  0  0  0
   44.6920   35.0820   45.4560 N   0  0  0  0  0  0  0  0  0  0  0  0
   47.0190   34.8080   41.9490 C   0  0  0  0  0  0  0  0  0  0  0  0
   48.2320   35.4080   41.7310 C   0  0  0  0  0  0  0  0  0  0  0  0
   48.5570   35.0220   40.4410 C   0  0  0  0  0  0  0  0  0  0  0  0
   47.5270   34.2140   39.9560 C   0  0  0  0  0  0  0  0  0  0  0  0
   46.6030   34.1090   40.9150 O   0  0  0  0  0  0  0  0  0  0  0  0
   47.5180   33.4860   38.3280 S   0  0  0  0  0  0  0  0  0  0  0  0
   43.8314   36.8133   44.6377 H   0  0  0  0  0  0  0  0  0  0  0  0
   45.2019   36.7069   42.5002 H   0  0  0  0  0  0  0  0  0  0  0  0
   45.6797   33.3217   46.0948 H   0  0  0  0  0  0  0  0  0  0  0  0
   48.8098   36.0446   42.4172 H   0  0  0  0  0  0  0  0  0  0  0  0
   49.4687   35.3034   39.8936 H   0  0  0  0  0  0  0  0  0  0  0  0
   47.5011   32.1206   38.4384 H   0  0  0  0  0  0  0  0  0  0  0  0
  1  6  2  0
  2  1  1  0
  3  2  2  0
  3  4  1  0
  4  5  2  0
  5  6  1  0
  7  3  1  0
  8  7  2  0
  9  8  1  0
 10  9  2  0
 10 11  1  0
 11  7  1  0
 12 10  1  0
  1 13  1  0
  2 14  1  0
  5 15  1  0
  8 16  1  0
  9 17  1  0
 12 18  1  0
M  ISO  6  13  14  14  14  15  14  16  14  17  14  18  11
M  END
>  <minimizedAffinity>  (1) 
-4.59898663

>  <minimizedRMSD>  (1) 
0.0369639061

$$$$
