
     RDKit          3D

 30 32  0  0  0  0  0  0  0  0999 V2000
   46.9140   34.7230   41.8670 C   0  0  0  0  0  0  0  0  0  0  0  0
   48.1940   35.1980   41.6350 C   0  0  0  0  0  0  0  0  0  0  0  0
   48.4450   34.8010   40.3230 C   0  0  0  0  0  0  0  0  0  0  0  0
   47.3260   34.1250   39.8510 C   0  0  0  0  0  0  0  0  0  0  0  0
   46.4280   34.1060   40.8290 O   0  0  0  0  0  0  0  0  0  0  0  0
   47.1600   33.5510   38.5590 N   0  0  0  0  0  0  0  0  0  0  0  0
   46.3080   32.5350   38.4060 C   0  0  0  0  0  0  0  0  0  0  0  0
   46.1240   31.9580   37.1690 C   0  0  0  0  0  0  0  0  0  0  0  0
   45.1510   30.8280   37.0930 C   0  0  0  0  0  0  0  0  0  0  0  0
   46.8340   32.4460   36.0900 C   0  0  0  0  0  0  0  0  0  0  0  0
   46.6470   31.9010   34.9710 O   0  0  0  0  0  0  0  0  0  0  0  0
   47.6790   33.4720   36.3010 N   0  0  0  0  0  0  0  0  0  0  0  0
   47.8470   34.0280   37.5260 C   0  0  0  0  0  0  0  0  0  0  0  0
   48.6600   34.9900   37.6530 O   0  0  0  0  0  0  0  0  0  0  0  0
   44.5660   36.0540   44.4400 C   0  0  0  0  0  0  0  0  0  0  0  0
   45.2940   35.9470   43.2160 C   0  0  0  0  0  0  0  0  0  0  0  0
   46.1540   34.8660   43.1050 C   0  0  0  0  0  0  0  0  0  0  0  0
   46.2580   33.9930   44.1300 N   0  0  0  0  0  0  0  0  0  0  0  0
   45.5470   34.1310   45.2800 C   0  0  0  0  0  0  0  0  0  0  0  0
   44.7010   35.1660   45.4300 N   0  0  0  0  0  0  0  0  0  0  0  0
   48.8521   35.7533   42.3195 H   0  0  0  0  0  0  0  0  0  0  0  0
   49.3697   34.9901   39.7581 H   0  0  0  0  0  0  0  0  0  0  0  0
   45.7488   32.1558   39.2741 H   0  0  0  0  0  0  0  0  0  0  0  0
   44.8776   30.5105   38.1101 H   0  0  0  0  0  0  0  0  0  0  0  0
   44.2487   31.1565   36.5565 H   0  0  0  0  0  0  0  0  0  0  0  0
   45.6099   29.9845   36.5565 H   0  0  0  0  0  0  0  0  0  0  0  0
   48.2156   33.8471   35.5058 H   0  0  0  0  0  0  0  0  0  0  0  0
   43.8705   36.8958   44.5726 H   0  0  0  0  0  0  0  0  0  0  0  0
   45.1785   36.6822   42.4059 H   0  0  0  0  0  0  0  0  0  0  0  0
   45.6635   33.3952   46.0893 H   0  0  0  0  0  0  0  0  0  0  0  0
  1 17  1  0
  2  1  2  0
  3  2  1  0
  4  3  2  0
  4  5  1  0
  5  1  1  0
  6  4  1  0
  7  6  1  0
  8  7  2  0
  9  8  1  0
 10 12  1  0
 10  8  1  0
 11 10  2  0
 12 13  1  0
 13 14  2  0
 13  6  1  0
 15 20  2  0
 16 15  1  0
 17 16  2  0
 17 18  1  0
 18 19  2  0
 19 20  1  0
  2 21  1  0
  3 22  1  0
  7 23  1  0
  9 24  1  0
  9 25  1  0
  9 26  1  0
 12 27  1  0
 15 28  1  0
 16 29  1  0
 19 30  1  0
M  ISO  8  21  14  22  14  23  14  24   8  25   8  26   8  27   9  28  14
M  ISO  2  29  14  30  14
M  END
>  <minimizedAffinity>  (1) 
-6.09052229

>  <minimizedRMSD>  (1) 
0.477770567

$$$$
