
     RDKit          3D

 46 50  0  0  0  0  0  0  0  0999 V2000
   46.8750   34.7450   41.8910 C   0  0  0  0  0  0  0  0  0  0  0  0
   48.1950   35.1510   41.6910 C   0  0  0  0  0  0  0  0  0  0  0  0
   48.4550   34.7350   40.3890 C   0  0  0  0  0  0  0  0  0  0  0  0
   47.3230   34.1250   39.8940 C   0  0  0  0  0  0  0  0  0  0  0  0
   46.3910   34.1570   40.8480 O   0  0  0  0  0  0  0  0  0  0  0  0
   47.1590   33.5570   38.5980 N   0  0  0  0  0  0  0  0  0  0  0  0
   46.3040   32.5310   38.4480 C   0  0  0  0  0  0  0  0  0  0  0  0
   46.1160   31.9570   37.2080 C   0  0  0  0  0  0  0  0  0  0  0  0
   46.8200   32.4520   36.1270 C   0  0  0  0  0  0  0  0  0  0  0  0
   46.6300   31.9100   35.0100 O   0  0  0  0  0  0  0  0  0  0  0  0
   47.6580   33.4770   36.3490 N   0  0  0  0  0  0  0  0  0  0  0  0
   47.8320   34.0290   37.5640 C   0  0  0  0  0  0  0  0  0  0  0  0
   48.6370   34.9870   37.6920 O   0  0  0  0  0  0  0  0  0  0  0  0
   45.1500   30.8240   37.1240 C   0  0  0  0  0  0  0  0  0  0  0  0
   44.5330   36.1260   44.4280 C   0  0  0  0  0  0  0  0  0  0  0  0
   45.2580   36.0190   43.1960 C   0  0  0  0  0  0  0  0  0  0  0  0
   46.0910   34.9380   43.1130 C   0  0  0  0  0  0  0  0  0  0  0  0
   46.1450   34.1110   44.1580 N   0  0  0  0  0  0  0  0  0  0  0  0
   45.4680   34.2090   45.3110 C   0  0  0  0  0  0  0  0  0  0  0  0
   44.6520   35.2490   45.4200 N   0  0  0  0  0  0  0  0  0  0  0  0
   45.7900   33.1130   46.2180 C   0  0  0  0  0  0  0  0  0  0  0  0
   45.3320   33.0530   47.5030 C   0  0  0  0  0  0  0  0  0  0  0  0
   45.6210   32.0310   48.3780 C   0  0  0  0  0  0  0  0  0  0  0  0
   46.4120   30.9800   47.9960 C   0  0  0  0  0  0  0  0  0  0  0  0
   46.8990   30.9920   46.7090 C   0  0  0  0  0  0  0  0  0  0  0  0
   47.6920   29.9270   46.3420 C   0  0  0  0  0  0  0  0  0  0  0  0
   48.2180   29.8660   45.0740 C   0  0  0  0  0  0  0  0  0  0  0  0
   47.9070   30.9160   44.2100 C   0  0  0  0  0  0  0  0  0  0  0  0
   47.1150   31.9510   44.6220 C   0  0  0  0  0  0  0  0  0  0  0  0
   46.5790   32.0390   45.8790 C   0  0  0  0  0  0  0  0  0  0  0  0
   48.8652   35.6719   42.3907 H   0  0  0  0  0  0  0  0  0  0  0  0
   49.4027   34.8701   39.8472 H   0  0  0  0  0  0  0  0  0  0  0  0
   45.7515   32.1472   39.3183 H   0  0  0  0  0  0  0  0  0  0  0  0
   48.1913   33.8578   35.5544 H   0  0  0  0  0  0  0  0  0  0  0  0
   44.8746   30.5010   38.1388 H   0  0  0  0  0  0  0  0  0  0  0  0
   44.2480   31.1504   36.5856 H   0  0  0  0  0  0  0  0  0  0  0  0
   45.6149   29.9849   36.5856 H   0  0  0  0  0  0  0  0  0  0  0  0
   43.8452   36.9744   44.5588 H   0  0  0  0  0  0  0  0  0  0  0  0
   45.1524   36.7498   42.3807 H   0  0  0  0  0  0  0  0  0  0  0  0
   44.6920   33.8729   47.8611 H   0  0  0  0  0  0  0  0  0  0  0  0
   45.2111   32.0585   49.3984 H   0  0  0  0  0  0  0  0  0  0  0  0
   46.6483   30.1597   48.6898 H   0  0  0  0  0  0  0  0  0  0  0  0
   47.9042   29.1250   47.0644 H   0  0  0  0  0  0  0  0  0  0  0  0
   48.8549   29.0278   44.7550 H   0  0  0  0  0  0  0  0  0  0  0  0
   48.3041   30.9110   43.1842 H   0  0  0  0  0  0  0  0  0  0  0  0
   46.8965   32.7564   43.9054 H   0  0  0  0  0  0  0  0  0  0  0  0
  1 17  1  0
  2  1  2  0
  3  2  1  0
  4  3  2  0
  4  5  1  0
  5  1  1  0
  6  4  1  0
  7  6  1  0
  8  7  2  0
  9 11  1  0
  9  8  1  0
 10  9  2  0
 11 12  1  0
 12 13  2  0
 12  6  1  0
 14  8  1  0
 15 20  2  0
 16 15  1  0
 17 16  2  0
 17 18  1  0
 18 19  2  0
 19 20  1  0
 19 21  1  0
 21 22  2  0
 22 23  1  0
 24 23  2  0
 25 24  1  0
 26 25  2  0
 27 26  1  0
 28 29  1  0
 28 27  2  0
 29 30  2  0
 30 21  1  0
 30 25  1  0
  2 31  1  0
  3 32  1  0
  7 33  1  0
 11 34  1  0
 14 35  1  0
 14 36  1  0
 14 37  1  0
 15 38  1  0
 16 39  1  0
 22 40  1  0
 23 41  1  0
 24 42  1  0
 26 43  1  0
 27 44  1  0
 28 45  1  0
 29 46  1  0
M  ISO  8  31  14  32  14  33  14  34   9  35   8  36   8  37   8  38  14
M  ISO  8  39  14  40  14  41  14  42  14  43  14  44  14  45  14  46  14
M  END
>  <minimizedAffinity>  (1) 
-8.12985134

>  <minimizedRMSD>  (1) 
0.737258196

$$$$
