
     RDKit          3D

 37 40  0  0  0  0  0  0  0  0999 V2000
   46.9430   34.7080   41.8520 C   0  0  0  0  0  0  0  0  0  0  0  0
   48.2080   35.2150   41.5980 C   0  0  0  0  0  0  0  0  0  0  0  0
   48.4480   34.8330   40.2800 C   0  0  0  0  0  0  0  0  0  0  0  0
   47.3290   34.1270   39.8230 C   0  0  0  0  0  0  0  0  0  0  0  0
   46.4480   34.0810   40.8140 O   0  0  0  0  0  0  0  0  0  0  0  0
   47.1820   33.5690   38.5280 N   0  0  0  0  0  0  0  0  0  0  0  0
   46.3220   32.5440   38.3840 C   0  0  0  0  0  0  0  0  0  0  0  0
   46.1360   31.9590   37.1480 C   0  0  0  0  0  0  0  0  0  0  0  0
   46.8400   32.4340   36.0700 C   0  0  0  0  0  0  0  0  0  0  0  0
   46.6580   31.8870   34.9490 O   0  0  0  0  0  0  0  0  0  0  0  0
   47.6930   33.4680   36.2750 N   0  0  0  0  0  0  0  0  0  0  0  0
   47.8600   34.0280   37.4940 C   0  0  0  0  0  0  0  0  0  0  0  0
   48.6680   34.9840   37.6150 O   0  0  0  0  0  0  0  0  0  0  0  0
   45.1630   30.8300   37.0770 C   0  0  0  0  0  0  0  0  0  0  0  0
   44.5310   35.8680   44.4390 C   0  0  0  0  0  0  0  0  0  0  0  0
   45.2380   35.7980   43.1900 C   0  0  0  0  0  0  0  0  0  0  0  0
   46.2000   34.8220   43.0920 C   0  0  0  0  0  0  0  0  0  0  0  0
   46.4180   34.0050   44.1570 N   0  0  0  0  0  0  0  0  0  0  0  0
   45.7320   34.1020   45.3130 C   0  0  0  0  0  0  0  0  0  0  0  0
   44.7800   35.0430   45.4530 N   0  0  0  0  0  0  0  0  0  0  0  0
   45.9820   33.2120   46.4450 C   0  0  0  0  0  0  0  0  0  0  0  0
   46.9730   32.3220   46.8470 C   0  0  0  0  0  0  0  0  0  0  0  0
   46.5620   31.7990   48.0580 C   0  0  0  0  0  0  0  0  0  0  0  0
   45.3450   32.3870   48.3460 C   0  0  0  0  0  0  0  0  0  0  0  0
   45.0470   33.2090   47.3660 O   0  0  0  0  0  0  0  0  0  0  0  0
   48.8643   35.7823   42.2743 H   0  0  0  0  0  0  0  0  0  0  0  0
   49.3575   35.0484   39.7000 H   0  0  0  0  0  0  0  0  0  0  0  0
   45.7646   32.1706   39.2557 H   0  0  0  0  0  0  0  0  0  0  0  0
   48.2300   33.8380   35.4777 H   0  0  0  0  0  0  0  0  0  0  0  0
   44.8917   30.5152   38.0955 H   0  0  0  0  0  0  0  0  0  0  0  0
   44.2597   31.1576   36.5416 H   0  0  0  0  0  0  0  0  0  0  0  0
   45.6204   29.9849   36.5416 H   0  0  0  0  0  0  0  0  0  0  0  0
   43.7521   36.6349   44.5620 H   0  0  0  0  0  0  0  0  0  0  0  0
   45.0214   36.4864   42.3598 H   0  0  0  0  0  0  0  0  0  0  0  0
   47.9009   32.0820   46.3071 H   0  0  0  0  0  0  0  0  0  0  0  0
   47.0979   31.0602   48.6719 H   0  0  0  0  0  0  0  0  0  0  0  0
   44.7326   32.1993   49.2403 H   0  0  0  0  0  0  0  0  0  0  0  0
  1 17  1  0
  2  1  2  0
  3  2  1  0
  4  3  2  0
  4  5  1  0
  5  1  1  0
  6  4  1  0
  7  6  1  0
  8  7  2  0
  9 11  1  0
  9  8  1  0
 10  9  2  0
 11 12  1  0
 12 13  2  0
 12  6  1  0
 14  8  1  0
 15 20  2  0
 16 15  1  0
 17 16  2  0
 17 18  1  0
 18 19  2  0
 19 20  1  0
 19 21  1  0
 21 22  2  0
 21 25  1  0
 22 23  1  0
 23 24  2  0
 25 24  1  0
  2 26  1  0
  3 27  1  0
  7 28  1  0
 11 29  1  0
 14 30  1  0
 14 31  1  0
 14 32  1  0
 15 33  1  0
 16 34  1  0
 22 35  1  0
 23 36  1  0
 24 37  1  0
M  ISO  8  26  14  27  14  28  14  29   9  30   8  31   8  32   8  33  14
M  ISO  4  34  14  35  14  36  14  37  14
M  END
>  <minimizedAffinity>  (1) 
-7.30355215

>  <minimizedRMSD>  (1) 
0.217029229

$$$$
