
     RDKit          3D

 37 40  0  0  0  0  0  0  0  0999 V2000
   46.9080   34.7230   41.8980 C   0  0  0  0  0  0  0  0  0  0  0  0
   48.2130   35.1650   41.6710 C   0  0  0  0  0  0  0  0  0  0  0  0
   48.4610   34.7660   40.3560 C   0  0  0  0  0  0  0  0  0  0  0  0
   47.3180   34.1200   39.8760 C   0  0  0  0  0  0  0  0  0  0  0  0
   46.4140   34.1220   40.8450 O   0  0  0  0  0  0  0  0  0  0  0  0
   47.1610   33.5640   38.5790 N   0  0  0  0  0  0  0  0  0  0  0  0
   46.3010   32.5400   38.4340 C   0  0  0  0  0  0  0  0  0  0  0  0
   46.1050   31.9510   37.1960 C   0  0  0  0  0  0  0  0  0  0  0  0
   46.8090   32.4360   36.1260 C   0  0  0  0  0  0  0  0  0  0  0  0
   46.6330   31.9000   34.9950 O   0  0  0  0  0  0  0  0  0  0  0  0
   47.6650   33.4700   36.3240 N   0  0  0  0  0  0  0  0  0  0  0  0
   47.8400   34.0320   37.5490 C   0  0  0  0  0  0  0  0  0  0  0  0
   48.6410   34.9870   37.6860 O   0  0  0  0  0  0  0  0  0  0  0  0
   45.1360   30.8340   37.1180 C   0  0  0  0  0  0  0  0  0  0  0  0
   44.4880   36.0260   44.4010 C   0  0  0  0  0  0  0  0  0  0  0  0
   45.2230   35.8970   43.1820 C   0  0  0  0  0  0  0  0  0  0  0  0
   46.1490   34.8810   43.1220 C   0  0  0  0  0  0  0  0  0  0  0  0
   46.3040   34.0850   44.1950 N   0  0  0  0  0  0  0  0  0  0  0  0
   45.6000   34.2260   45.3360 C   0  0  0  0  0  0  0  0  0  0  0  0
   44.6820   35.2090   45.4350 N   0  0  0  0  0  0  0  0  0  0  0  0
   45.8410   33.3080   46.4520 C   0  0  0  0  0  0  0  0  0  0  0  0
   46.8130   32.3790   46.7510 C   0  0  0  0  0  0  0  0  0  0  0  0
   46.4760   31.8350   47.9610 C   0  0  0  0  0  0  0  0  0  0  0  0
   45.3450   32.4010   48.3910 N   0  0  0  0  0  0  0  0  0  0  0  0
   44.9790   33.2760   47.4820 N   0  0  0  0  0  0  0  0  0  0  0  0
   48.8834   35.6984   42.3610 H   0  0  0  0  0  0  0  0  0  0  0  0
   49.3931   34.9312   39.7957 H   0  0  0  0  0  0  0  0  0  0  0  0
   45.7474   32.1664   39.3081 H   0  0  0  0  0  0  0  0  0  0  0  0
   48.1972   33.8394   35.5233 H   0  0  0  0  0  0  0  0  0  0  0  0
   44.8603   30.5162   38.1343 H   0  0  0  0  0  0  0  0  0  0  0  0
   44.2355   31.1666   36.5809 H   0  0  0  0  0  0  0  0  0  0  0  0
   45.5924   29.9895   36.5809 H   0  0  0  0  0  0  0  0  0  0  0  0
   43.7379   36.8258   44.4881 H   0  0  0  0  0  0  0  0  0  0  0  0
   45.0565   36.5767   42.3333 H   0  0  0  0  0  0  0  0  0  0  0  0
   47.6893   32.1240   46.1370 H   0  0  0  0  0  0  0  0  0  0  0  0
   47.0443   31.0578   48.4930 H   0  0  0  0  0  0  0  0  0  0  0  0
   44.8521   32.1907   49.2706 H   0  0  0  0  0  0  0  0  0  0  0  0
  1 17  1  0
  2  1  2  0
  3  2  1  0
  4  3  2  0
  4  5  1  0
  5  1  1  0
  6  4  1  0
  7  6  1  0
  8  7  2  0
  9 11  1  0
  9  8  1  0
 10  9  2  0
 11 12  1  0
 12 13  2  0
 12  6  1  0
 14  8  1  0
 15 20  2  0
 16 15  1  0
 17 16  2  0
 17 18  1  0
 18 19  2  0
 19 20  1  0
 19 21  1  0
 21 22  1  0
 21 25  2  0
 22 23  2  0
 23 24  1  0
 25 24  1  0
  2 26  1  0
  3 27  1  0
  7 28  1  0
 11 29  1  0
 14 30  1  0
 14 31  1  0
 14 32  1  0
 15 33  1  0
 16 34  1  0
 22 35  1  0
 23 36  1  0
 24 37  1  0
M  ISO  8  26  14  27  14  28  14  29   9  30   8  31   8  32   8  33  14
M  ISO  4  34  14  35  14  36  14  37   9
M  END
>  <minimizedAffinity>  (1) 
-7.27441549

>  <minimizedRMSD>  (1) 
0.159444049

$$$$
