
     RDKit          3D

 37 40  0  0  0  0  0  0  0  0999 V2000
   46.9670   34.7690   41.9740 C   0  0  0  0  0  0  0  0  0  0  0  0
   48.2370   35.2850   41.7560 C   0  0  0  0  0  0  0  0  0  0  0  0
   48.5180   34.9020   40.4480 C   0  0  0  0  0  0  0  0  0  0  0  0
   47.4400   34.1970   39.9560 C   0  0  0  0  0  0  0  0  0  0  0  0
   46.5140   34.1380   40.9200 O   0  0  0  0  0  0  0  0  0  0  0  0
   47.3130   33.6270   38.6630 N   0  0  0  0  0  0  0  0  0  0  0  0
   46.4880   32.5770   38.4960 C   0  0  0  0  0  0  0  0  0  0  0  0
   46.3360   31.9920   37.2550 C   0  0  0  0  0  0  0  0  0  0  0  0
   47.0440   32.5040   36.1860 C   0  0  0  0  0  0  0  0  0  0  0  0
   46.8940   31.9590   35.0620 O   0  0  0  0  0  0  0  0  0  0  0  0
   47.8560   33.5600   36.4090 N   0  0  0  0  0  0  0  0  0  0  0  0
   47.9910   34.1180   37.6390 C   0  0  0  0  0  0  0  0  0  0  0  0
   48.7640   35.0980   37.7760 O   0  0  0  0  0  0  0  0  0  0  0  0
   45.4040   30.8360   37.1620 C   0  0  0  0  0  0  0  0  0  0  0  0
   44.5400   35.9890   44.5210 C   0  0  0  0  0  0  0  0  0  0  0  0
   45.2920   35.9160   43.3050 C   0  0  0  0  0  0  0  0  0  0  0  0
   46.1870   34.8790   43.1900 C   0  0  0  0  0  0  0  0  0  0  0  0
   46.3000   34.0040   44.2190 N   0  0  0  0  0  0  0  0  0  0  0  0
   45.5750   34.1040   45.3520 C   0  0  0  0  0  0  0  0  0  0  0  0
   44.6940   35.0950   45.5070 N   0  0  0  0  0  0  0  0  0  0  0  0
   45.8630   33.0300   46.3530 C   0  0  0  0  0  0  0  0  0  0  0  0
   45.2220   33.0040   47.6060 C   0  0  0  0  0  0  0  0  0  0  0  0
   45.5050   32.0190   48.4900 C   0  0  0  0  0  0  0  0  0  0  0  0
   46.4900   30.9920   48.1070 C   0  0  0  0  0  0  0  0  0  0  0  0
   46.9720   31.5660   46.3650 S   0  0  0  0  0  0  0  0  0  0  0  0
   48.8691   35.8585   42.4500 H   0  0  0  0  0  0  0  0  0  0  0  0
   49.4447   35.1244   39.8987 H   0  0  0  0  0  0  0  0  0  0  0  0
   45.9293   32.1810   39.3569 H   0  0  0  0  0  0  0  0  0  0  0  0
   48.3895   33.9542   35.6211 H   0  0  0  0  0  0  0  0  0  0  0  0
   45.1336   30.5006   38.1741 H   0  0  0  0  0  0  0  0  0  0  0  0
   44.4955   31.1401   36.6215 H   0  0  0  0  0  0  0  0  0  0  0  0
   45.8939   30.0126   36.6215 H   0  0  0  0  0  0  0  0  0  0  0  0
   43.8131   36.8045   44.6498 H   0  0  0  0  0  0  0  0  0  0  0  0
   45.1599   36.6548   42.5008 H   0  0  0  0  0  0  0  0  0  0  0  0
   44.4914   33.7839   47.8666 H   0  0  0  0  0  0  0  0  0  0  0  0
   45.0109   31.9858   49.4722 H   0  0  0  0  0  0  0  0  0  0  0  0
   46.8497   30.1240   48.6790 H   0  0  0  0  0  0  0  0  0  0  0  0
  1 17  1  0
  2  1  2  0
  3  2  1  0
  4  3  2  0
  4  5  1  0
  5  1  1  0
  6  4  1  0
  7  6  1  0
  8  7  2  0
  9 11  1  0
  9  8  1  0
 10  9  2  0
 11 12  1  0
 12 13  2  0
 12  6  1  0
 14  8  1  0
 15 20  2  0
 16 15  1  0
 17 16  2  0
 17 18  1  0
 18 19  2  0
 19 20  1  0
 19 21  1  0
 21 25  1  0
 21 22  2  0
 22 23  1  0
 24 23  2  0
 25 24  1  0
  2 26  1  0
  3 27  1  0
  7 28  1  0
 11 29  1  0
 14 30  1  0
 14 31  1  0
 14 32  1  0
 15 33  1  0
 16 34  1  0
 22 35  1  0
 23 36  1  0
 24 37  1  0
M  ISO  8  26  14  27  14  28  14  29   9  30   8  31   8  32   8  33  14
M  ISO  4  34  14  35  14  36  14  37  14
M  END
>  <minimizedAffinity>  (1) 
-7.23095655

>  <minimizedRMSD>  (1) 
0.361752599

$$$$
