
     RDKit          3D

 33 35  0  0  0  0  0  0  0  0999 V2000
   46.9240   34.7380   41.8620 C   0  0  0  0  0  0  0  0  0  0  0  0
   48.2060   35.2060   41.6250 C   0  0  0  0  0  0  0  0  0  0  0  0
   48.4580   34.8080   40.3120 C   0  0  0  0  0  0  0  0  0  0  0  0
   47.3310   34.1320   39.8390 C   0  0  0  0  0  0  0  0  0  0  0  0
   46.4370   34.1230   40.8230 O   0  0  0  0  0  0  0  0  0  0  0  0
   47.1740   33.5670   38.5540 N   0  0  0  0  0  0  0  0  0  0  0  0
   46.3140   32.5420   38.4090 C   0  0  0  0  0  0  0  0  0  0  0  0
   46.1290   31.9570   37.1700 C   0  0  0  0  0  0  0  0  0  0  0  0
   46.8360   32.4380   36.0910 C   0  0  0  0  0  0  0  0  0  0  0  0
   46.6520   31.8900   34.9710 O   0  0  0  0  0  0  0  0  0  0  0  0
   47.6890   33.4710   36.2890 N   0  0  0  0  0  0  0  0  0  0  0  0
   47.8530   34.0290   37.5160 C   0  0  0  0  0  0  0  0  0  0  0  0
   48.6610   34.9850   37.6380 O   0  0  0  0  0  0  0  0  0  0  0  0
   45.1600   30.8300   37.0990 C   0  0  0  0  0  0  0  0  0  0  0  0
   44.5550   36.0180   44.4300 C   0  0  0  0  0  0  0  0  0  0  0  0
   45.2760   35.9260   43.1990 C   0  0  0  0  0  0  0  0  0  0  0  0
   46.1640   34.8810   43.0890 C   0  0  0  0  0  0  0  0  0  0  0  0
   46.2870   34.0380   44.1270 N   0  0  0  0  0  0  0  0  0  0  0  0
   45.5940   34.1420   45.2850 C   0  0  0  0  0  0  0  0  0  0  0  0
   44.7220   35.1410   45.4350 N   0  0  0  0  0  0  0  0  0  0  0  0
   45.8430   33.1280   46.3440 C   0  0  0  0  0  0  0  0  0  0  0  0
   48.8670   35.7591   42.3085 H   0  0  0  0  0  0  0  0  0  0  0  0
   49.3834   34.9942   39.7473 H   0  0  0  0  0  0  0  0  0  0  0  0
   45.7559   32.1680   39.2800 H   0  0  0  0  0  0  0  0  0  0  0  0
   48.2251   33.8415   35.4914 H   0  0  0  0  0  0  0  0  0  0  0  0
   44.8890   30.5148   38.1174 H   0  0  0  0  0  0  0  0  0  0  0  0
   44.2563   31.1566   36.5635 H   0  0  0  0  0  0  0  0  0  0  0  0
   45.6184   29.9855   36.5635 H   0  0  0  0  0  0  0  0  0  0  0  0
   43.8348   36.8392   44.5600 H   0  0  0  0  0  0  0  0  0  0  0  0
   45.1289   36.6508   42.3847 H   0  0  0  0  0  0  0  0  0  0  0  0
   45.7283   33.5952   47.3332 H   0  0  0  0  0  0  0  0  0  0  0  0
   45.1202   32.3052   46.2410 H   0  0  0  0  0  0  0  0  0  0  0  0
   46.8647   32.7336   46.2410 H   0  0  0  0  0  0  0  0  0  0  0  0
  1 17  1  0
  2  1  2  0
  3  2  1  0
  4  3  2  0
  4  5  1  0
  5  1  1  0
  6  4  1  0
  7  6  1  0
  8  7  2  0
  9 11  1  0
  9  8  1  0
 10  9  2  0
 11 12  1  0
 12 13  2  0
 12  6  1  0
 14  8  1  0
 15 20  2  0
 16 15  1  0
 17 16  2  0
 17 18  1  0
 18 19  2  0
 19 20  1  0
 19 21  1  0
  2 22  1  0
  3 23  1  0
  7 24  1  0
 11 25  1  0
 14 26  1  0
 14 27  1  0
 14 28  1  0
 15 29  1  0
 16 30  1  0
 21 31  1  0
 21 32  1  0
 21 33  1  0
M  ISO  8  22  14  23  14  24  14  25   9  26   8  27   8  28   8  29  14
M  ISO  4  30  14  31   8  32   8  33   8
M  END
>  <minimizedAffinity>  (1) 
-6.44849634

>  <minimizedRMSD>  (1) 
0.0323939249

$$$$
