
     RDKit          3D

 32 34  0  0  0  0  0  0  0  0999 V2000
   46.9160   34.7270   41.8870 C   0  0  0  0  0  0  0  0  0  0  0  0
   48.1960   35.2080   41.6500 C   0  0  0  0  0  0  0  0  0  0  0  0
   48.4510   34.8180   40.3330 C   0  0  0  0  0  0  0  0  0  0  0  0
   47.3240   34.1350   39.8640 C   0  0  0  0  0  0  0  0  0  0  0  0
   46.4340   34.1110   40.8380 O   0  0  0  0  0  0  0  0  0  0  0  0
   47.1710   33.5700   38.5670 N   0  0  0  0  0  0  0  0  0  0  0  0
   46.3100   32.5460   38.4230 C   0  0  0  0  0  0  0  0  0  0  0  0
   46.1300   31.9660   37.1820 C   0  0  0  0  0  0  0  0  0  0  0  0
   46.8470   32.4500   36.0990 C   0  0  0  0  0  0  0  0  0  0  0  0
   46.6500   31.8900   34.9990 O   0  0  0  0  0  0  0  0  0  0  0  0
   47.6840   33.4690   36.3160 N   0  0  0  0  0  0  0  0  0  0  0  0
   47.8520   34.0340   37.5380 C   0  0  0  0  0  0  0  0  0  0  0  0
   48.6540   34.9900   37.6750 O   0  0  0  0  0  0  0  0  0  0  0  0
   45.1380   30.8370   37.1300 C   0  0  0  0  0  0  0  0  0  0  0  0
   44.5570   36.0030   44.4610 C   0  0  0  0  0  0  0  0  0  0  0  0
   45.2770   35.9090   43.2310 C   0  0  0  0  0  0  0  0  0  0  0  0
   46.1630   34.8620   43.1170 C   0  0  0  0  0  0  0  0  0  0  0  0
   46.2860   34.0190   44.1520 N   0  0  0  0  0  0  0  0  0  0  0  0
   45.5980   34.1210   45.3070 C   0  0  0  0  0  0  0  0  0  0  0  0
   44.7280   35.1220   45.4570 N   0  0  0  0  0  0  0  0  0  0  0  0
   45.8110   33.1450   46.3690 C   0  0  0  0  0  0  0  0  0  0  0  0
   45.0770   33.1980   47.3980 O   0  0  0  0  0  0  0  0  0  0  0  0
   48.8529   35.7636   42.3354 H   0  0  0  0  0  0  0  0  0  0  0  0
   49.3733   35.0132   39.7661 H   0  0  0  0  0  0  0  0  0  0  0  0
   45.7500   32.1711   39.2924 H   0  0  0  0  0  0  0  0  0  0  0  0
   48.2244   33.8411   35.5220 H   0  0  0  0  0  0  0  0  0  0  0  0
   44.8725   30.5348   38.1538 H   0  0  0  0  0  0  0  0  0  0  0  0
   44.2333   31.1680   36.5991 H   0  0  0  0  0  0  0  0  0  0  0  0
   45.5827   29.9824   36.5991 H   0  0  0  0  0  0  0  0  0  0  0  0
   43.8387   36.8252   44.5955 H   0  0  0  0  0  0  0  0  0  0  0  0
   45.1311   36.6351   42.4177 H   0  0  0  0  0  0  0  0  0  0  0  0
   46.5942   32.3780   46.2773 H   0  0  0  0  0  0  0  0  0  0  0  0
  1 17  1  0
  2  1  2  0
  3  2  1  0
  4  3  2  0
  4  5  1  0
  5  1  1  0
  6  4  1  0
  7  6  1  0
  8  7  2  0
  9 11  1  0
  9  8  1  0
 10  9  2  0
 11 12  1  0
 12 13  2  0
 12  6  1  0
 14  8  1  0
 15 20  2  0
 16 15  1  0
 17 16  2  0
 17 18  1  0
 18 19  2  0
 19 20  1  0
 19 21  1  0
 21 22  2  0
  2 23  1  0
  3 24  1  0
  7 25  1  0
 11 26  1  0
 14 27  1  0
 14 28  1  0
 14 29  1  0
 15 30  1  0
 16 31  1  0
 21 32  1  0
M  ISO  8  23  14  24  14  25  14  26   9  27   8  28   8  29   8  30  14
M  ISO  2  31  14  32   6
M  END
>  <minimizedAffinity>  (1) 
-6.41320467

>  <minimizedRMSD>  (1) 
0.0620629787

$$$$
