
     RDKit          3D

 36 38  0  0  0  0  0  0  0  0999 V2000
   46.9610   34.6860   41.8970 C   0  0  0  0  0  0  0  0  0  0  0  0
   48.1960   35.2360   41.6280 C   0  0  0  0  0  0  0  0  0  0  0  0
   48.4320   34.8750   40.2990 C   0  0  0  0  0  0  0  0  0  0  0  0
   47.3320   34.1340   39.8550 C   0  0  0  0  0  0  0  0  0  0  0  0
   46.4740   34.0500   40.8580 O   0  0  0  0  0  0  0  0  0  0  0  0
   47.1780   33.5800   38.5590 N   0  0  0  0  0  0  0  0  0  0  0  0
   46.3140   32.5590   38.4080 C   0  0  0  0  0  0  0  0  0  0  0  0
   46.1200   31.9700   37.1850 C   0  0  0  0  0  0  0  0  0  0  0  0
   46.8380   32.4510   36.1030 C   0  0  0  0  0  0  0  0  0  0  0  0
   46.6630   31.9070   34.9770 O   0  0  0  0  0  0  0  0  0  0  0  0
   47.6900   33.4740   36.3100 N   0  0  0  0  0  0  0  0  0  0  0  0
   47.8640   34.0430   37.5320 C   0  0  0  0  0  0  0  0  0  0  0  0
   48.6690   34.9960   37.6710 O   0  0  0  0  0  0  0  0  0  0  0  0
   45.1410   30.8550   37.1050 C   0  0  0  0  0  0  0  0  0  0  0  0
   44.5910   35.7770   44.5440 C   0  0  0  0  0  0  0  0  0  0  0  0
   45.2800   35.7410   43.2920 C   0  0  0  0  0  0  0  0  0  0  0  0
   46.2370   34.7640   43.1500 C   0  0  0  0  0  0  0  0  0  0  0  0
   46.4580   33.9170   44.1860 N   0  0  0  0  0  0  0  0  0  0  0  0
   45.7890   33.9790   45.3550 C   0  0  0  0  0  0  0  0  0  0  0  0
   44.8430   34.9240   45.5340 N   0  0  0  0  0  0  0  0  0  0  0  0
   46.1550   32.9680   46.3970 C   0  0  0  0  0  0  0  0  0  0  0  0
   45.1860   33.0050   47.5560 C   0  0  0  0  0  0  0  0  0  0  0  0
   48.8421   35.8202   42.2998 H   0  0  0  0  0  0  0  0  0  0  0  0
   49.3240   35.1284   39.7073 H   0  0  0  0  0  0  0  0  0  0  0  0
   45.7541   32.1909   39.2804 H   0  0  0  0  0  0  0  0  0  0  0  0
   48.2298   33.8386   35.5121 H   0  0  0  0  0  0  0  0  0  0  0  0
   44.8626   30.5379   38.1208 H   0  0  0  0  0  0  0  0  0  0  0  0
   44.2429   31.1934   36.5675 H   0  0  0  0  0  0  0  0  0  0  0  0
   45.5928   30.0083   36.5675 H   0  0  0  0  0  0  0  0  0  0  0  0
   43.8176   36.5443   44.6960 H   0  0  0  0  0  0  0  0  0  0  0  0
   45.0568   36.4558   42.4863 H   0  0  0  0  0  0  0  0  0  0  0  0
   46.1373   31.9649   45.9460 H   0  0  0  0  0  0  0  0  0  0  0  0
   47.1605   33.2046   46.7750 H   0  0  0  0  0  0  0  0  0  0  0  0
   45.7457   32.9836   48.5027 H   0  0  0  0  0  0  0  0  0  0  0  0
   44.5877   33.9266   47.5045 H   0  0  0  0  0  0  0  0  0  0  0  0
   44.5192   32.1317   47.5045 H   0  0  0  0  0  0  0  0  0  0  0  0
  1 17  1  0
  2  1  2  0
  3  2  1  0
  4  3  2  0
  4  5  1  0
  5  1  1  0
  6  4  1  0
  7  6  1  0
  8  7  2  0
  9 11  1  0
  9  8  1  0
 10  9  2  0
 11 12  1  0
 12 13  2  0
 12  6  1  0
 14  8  1  0
 15 20  2  0
 16 15  1  0
 17 16  2  0
 17 18  1  0
 18 19  2  0
 19 20  1  0
 19 21  1  0
 21 22  1  0
  2 23  1  0
  3 24  1  0
  7 25  1  0
 11 26  1  0
 14 27  1  0
 14 28  1  0
 14 29  1  0
 15 30  1  0
 16 31  1  0
 21 32  1  0
 21 33  1  0
 22 34  1  0
 22 35  1  0
 22 36  1  0
M  ISO  8  23  14  24  14  25  14  26   9  27   8  28   8  29   8  30  14
M  ISO  6  31  14  32   8  33   8  34   8  35   8  36   8
M  END
>  <minimizedAffinity>  (1) 
-6.38942099

>  <minimizedRMSD>  (1) 
0.28168422

$$$$
