
     RDKit          3D

 37 40  0  0  0  0  0  0  0  0999 V2000
   46.8980   34.7340   41.9060 C   0  0  0  0  0  0  0  0  0  0  0  0
   48.1930   35.1980   41.6810 C   0  0  0  0  0  0  0  0  0  0  0  0
   48.4490   34.7990   40.3730 C   0  0  0  0  0  0  0  0  0  0  0  0
   47.3150   34.1300   39.8960 C   0  0  0  0  0  0  0  0  0  0  0  0
   46.4160   34.1210   40.8580 O   0  0  0  0  0  0  0  0  0  0  0  0
   44.5000   36.0330   44.4400 C   0  0  0  0  0  0  0  0  0  0  0  0
   45.2350   35.9200   43.2150 C   0  0  0  0  0  0  0  0  0  0  0  0
   46.1330   34.8840   43.1310 C   0  0  0  0  0  0  0  0  0  0  0  0
   46.2750   34.0400   44.1890 N   0  0  0  0  0  0  0  0  0  0  0  0
   45.5700   34.1710   45.3300 C   0  0  0  0  0  0  0  0  0  0  0  0
   44.6760   35.1740   45.4570 N   0  0  0  0  0  0  0  0  0  0  0  0
   45.8370   33.2050   46.3430 N   0  0  0  0  0  0  0  0  0  0  0  0
   45.1960   33.1510   47.5130 N   0  0  0  0  0  0  0  0  0  0  0  0
   45.6580   32.1400   48.2620 C   0  0  0  0  0  0  0  0  0  0  0  0
   46.6600   31.5020   47.5280 C   0  0  0  0  0  0  0  0  0  0  0  0
   46.7510   32.1930   46.3260 C   0  0  0  0  0  0  0  0  0  0  0  0
   47.1760   33.5680   38.6010 N   0  0  0  0  0  0  0  0  0  0  0  0
   46.3280   32.5350   38.4540 C   0  0  0  0  0  0  0  0  0  0  0  0
   46.1480   31.9390   37.2300 C   0  0  0  0  0  0  0  0  0  0  0  0
   46.8600   32.4280   36.1440 C   0  0  0  0  0  0  0  0  0  0  0  0
   46.6910   31.8770   35.0210 O   0  0  0  0  0  0  0  0  0  0  0  0
   47.7030   33.4730   36.3440 N   0  0  0  0  0  0  0  0  0  0  0  0
   47.8540   34.0340   37.5690 C   0  0  0  0  0  0  0  0  0  0  0  0
   48.6480   34.9980   37.6880 O   0  0  0  0  0  0  0  0  0  0  0  0
   45.2010   30.8060   37.1350 C   0  0  0  0  0  0  0  0  0  0  0  0
   48.8522   35.7463   42.3700 H   0  0  0  0  0  0  0  0  0  0  0  0
   49.3784   34.9776   39.8123 H   0  0  0  0  0  0  0  0  0  0  0  0
   43.7696   36.8480   44.5505 H   0  0  0  0  0  0  0  0  0  0  0  0
   45.0877   36.6265   42.3848 H   0  0  0  0  0  0  0  0  0  0  0  0
   45.3118   31.8639   49.2689 H   0  0  0  0  0  0  0  0  0  0  0  0
   47.2555   30.6306   47.8380 H   0  0  0  0  0  0  0  0  0  0  0  0
   47.4421   31.9631   45.5017 H   0  0  0  0  0  0  0  0  0  0  0  0
   45.7708   32.1622   39.3261 H   0  0  0  0  0  0  0  0  0  0  0  0
   48.2392   33.8476   35.5484 H   0  0  0  0  0  0  0  0  0  0  0  0
   44.9236   30.4742   38.1464 H   0  0  0  0  0  0  0  0  0  0  0  0
   44.2986   31.1268   36.5940 H   0  0  0  0  0  0  0  0  0  0  0  0
   45.6768   29.9748   36.5940 H   0  0  0  0  0  0  0  0  0  0  0  0
  1  8  1  0
  2  1  2  0
  3  2  1  0
  4  3  2  0
  4  5  1  0
  5  1  1  0
  6 11  2  0
  7  6  1  0
  8  7  2  0
  8  9  1  0
  9 10  2  0
 10 11  1  0
 10 12  1  0
 12 13  1  0
 13 14  2  0
 15 14  1  0
 16 12  1  0
 16 15  2  0
 17  4  1  0
 18 17  1  0
 19 18  2  0
 20 22  1  0
 20 19  1  0
 21 20  2  0
 22 23  1  0
 23 24  2  0
 23 17  1  0
 25 19  1  0
  2 26  1  0
  3 27  1  0
  6 28  1  0
  7 29  1  0
 14 30  1  0
 15 31  1  0
 16 32  1  0
 18 33  1  0
 22 34  1  0
 25 35  1  0
 25 36  1  0
 25 37  1  0
M  ISO  8  26  14  27  14  28  14  29  14  30  14  31  14  32  14  33  14
M  ISO  4  34   9  35   8  36   8  37   8
M  END
>  <minimizedAffinity>  (1) 
-7.52342844

>  <minimizedRMSD>  (1) 
0.103885271

$$$$
