
     RDKit          3D

 47 51  0  0  0  0  0  0  0  0999 V2000
   46.8960   34.7480   41.9360 C   0  0  0  0  0  0  0  0  0  0  0  0
   48.1820   35.2610   41.7030 C   0  0  0  0  0  0  0  0  0  0  0  0
   48.4570   34.8370   40.4100 C   0  0  0  0  0  0  0  0  0  0  0  0
   47.3440   34.1070   39.9490 C   0  0  0  0  0  0  0  0  0  0  0  0
   46.4510   34.0930   40.9070 O   0  0  0  0  0  0  0  0  0  0  0  0
   44.4990   36.0610   44.4540 C   0  0  0  0  0  0  0  0  0  0  0  0
   45.2420   35.9360   43.2340 C   0  0  0  0  0  0  0  0  0  0  0  0
   46.1290   34.9030   43.1490 C   0  0  0  0  0  0  0  0  0  0  0  0
   46.2650   34.0500   44.2110 N   0  0  0  0  0  0  0  0  0  0  0  0
   45.5520   34.1900   45.3500 C   0  0  0  0  0  0  0  0  0  0  0  0
   44.6600   35.2030   45.4780 N   0  0  0  0  0  0  0  0  0  0  0  0
   45.8150   33.2140   46.3590 N   0  0  0  0  0  0  0  0  0  0  0  0
   45.1610   33.1730   47.5270 N   0  0  0  0  0  0  0  0  0  0  0  0
   45.6070   32.1600   48.2860 C   0  0  0  0  0  0  0  0  0  0  0  0
   46.6070   31.5160   47.5540 C   0  0  0  0  0  0  0  0  0  0  0  0
   46.7130   32.2010   46.3530 C   0  0  0  0  0  0  0  0  0  0  0  0
   47.2510   33.5130   38.6680 N   0  0  0  0  0  0  0  0  0  0  0  0
   46.4940   32.4040   38.5640 C   0  0  0  0  0  0  0  0  0  0  0  0
   46.3530   31.7610   37.3580 C   0  0  0  0  0  0  0  0  0  0  0  0
   47.0000   32.2710   36.2520 C   0  0  0  0  0  0  0  0  0  0  0  0
   46.8730   31.6840   35.1470 O   0  0  0  0  0  0  0  0  0  0  0  0
   47.7560   33.3980   36.4110 N   0  0  0  0  0  0  0  0  0  0  0  0
   47.8690   34.0010   37.6210 C   0  0  0  0  0  0  0  0  0  0  0  0
   48.5770   35.0290   37.6970 O   0  0  0  0  0  0  0  0  0  0  0  0
   45.5210   30.5320   37.3160 C   0  0  0  0  0  0  0  0  0  0  0  0
   44.1260   30.7210   37.7050 C   0  0  0  0  0  0  0  0  0  0  0  0
   43.1430   31.4680   37.1010 C   0  0  0  0  0  0  0  0  0  0  0  0
   41.8770   31.5080   37.6430 C   0  0  0  0  0  0  0  0  0  0  0  0
   41.4880   30.8400   38.7820 C   0  0  0  0  0  0  0  0  0  0  0  0
   42.4750   30.0770   39.4040 C   0  0  0  0  0  0  0  0  0  0  0  0
   43.7420   30.0360   38.8650 C   0  0  0  0  0  0  0  0  0  0  0  0
   48.8160   35.8535   42.3790 H   0  0  0  0  0  0  0  0  0  0  0  0
   49.3801   35.0358   39.8457 H   0  0  0  0  0  0  0  0  0  0  0  0
   43.7754   36.8832   44.5559 H   0  0  0  0  0  0  0  0  0  0  0  0
   45.1028   36.6426   42.4025 H   0  0  0  0  0  0  0  0  0  0  0  0
   45.2529   31.8890   49.2916 H   0  0  0  0  0  0  0  0  0  0  0  0
   47.1936   30.6399   47.8677 H   0  0  0  0  0  0  0  0  0  0  0  0
   47.4083   31.9620   45.5348 H   0  0  0  0  0  0  0  0  0  0  0  0
   45.9830   32.0087   39.4543 H   0  0  0  0  0  0  0  0  0  0  0  0
   48.2483   33.7964   35.5987 H   0  0  0  0  0  0  0  0  0  0  0  0
   45.5393   30.1418   36.2877 H   0  0  0  0  0  0  0  0  0  0  0  0
   45.9557   29.8395   38.0519 H   0  0  0  0  0  0  0  0  0  0  0  0
   43.3671   32.0340   36.1848 H   0  0  0  0  0  0  0  0  0  0  0  0
   41.1213   32.1188   37.1275 H   0  0  0  0  0  0  0  0  0  0  0  0
   40.4631   30.9042   39.1764 H   0  0  0  0  0  0  0  0  0  0  0  0
   42.2437   29.5116   40.3188 H   0  0  0  0  0  0  0  0  0  0  0  0
   44.5005   29.4266   39.3781 H   0  0  0  0  0  0  0  0  0  0  0  0
  1  8  1  0
  2  1  2  0
  3  2  1  0
  4  3  2  0
  4  5  1  0
  5  1  1  0
  6 11  2  0
  7  6  1  0
  8  7  2  0
  8  9  1  0
  9 10  2  0
 10 11  1  0
 10 12  1  0
 12 13  1  0
 13 14  2  0
 15 14  1  0
 16 12  1  0
 16 15  2  0
 17  4  1  0
 18 17  1  0
 19 18  2  0
 20 22  1  0
 20 19  1  0
 21 20  2  0
 22 23  1  0
 23 24  2  0
 23 17  1  0
 25 19  1  0
 25 26  1  0
 26 31  2  0
 27 28  2  0
 27 26  1  0
 28 29  1  0
 29 30  2  0
 31 30  1  0
  2 32  1  0
  3 33  1  0
  6 34  1  0
  7 35  1  0
 14 36  1  0
 15 37  1  0
 16 38  1  0
 18 39  1  0
 22 40  1  0
 25 41  1  0
 25 42  1  0
 27 43  1  0
 28 44  1  0
 29 45  1  0
 30 46  1  0
 31 47  1  0
M  ISO  8  32  14  33  14  34  14  35  14  36  14  37  14  38  14  39  14
M  ISO  8  40   9  41   8  42   8  43  14  44  14  45  14  46  14  47  14
M  END
>  <minimizedAffinity>  (1) 
-7.33772564

>  <minimizedRMSD>  (1) 
1.074543

$$$$
