
     RDKit          3D

 38 41  0  0  0  0  0  0  0  0999 V2000
   46.8840   34.7360   41.9070 C   0  0  0  0  0  0  0  0  0  0  0  0
   48.1860   35.1750   41.6860 C   0  0  0  0  0  0  0  0  0  0  0  0
   48.4440   34.7860   40.3750 C   0  0  0  0  0  0  0  0  0  0  0  0
   47.3010   34.1480   39.8940 C   0  0  0  0  0  0  0  0  0  0  0  0
   46.4050   34.1490   40.8530 O   0  0  0  0  0  0  0  0  0  0  0  0
   44.5000   36.0290   44.4430 C   0  0  0  0  0  0  0  0  0  0  0  0
   45.2290   35.9170   43.2190 C   0  0  0  0  0  0  0  0  0  0  0  0
   46.1210   34.8900   43.1340 C   0  0  0  0  0  0  0  0  0  0  0  0
   46.2730   34.0420   44.1890 N   0  0  0  0  0  0  0  0  0  0  0  0
   45.5740   34.1700   45.3310 C   0  0  0  0  0  0  0  0  0  0  0  0
   44.6780   35.1750   45.4600 N   0  0  0  0  0  0  0  0  0  0  0  0
   45.8430   33.1990   46.3460 N   0  0  0  0  0  0  0  0  0  0  0  0
   45.1870   33.1390   47.5180 N   0  0  0  0  0  0  0  0  0  0  0  0
   45.6560   32.1340   48.2520 C   0  0  0  0  0  0  0  0  0  0  0  0
   46.6650   31.5030   47.5350 C   0  0  0  0  0  0  0  0  0  0  0  0
   46.7600   32.2040   46.3290 C   0  0  0  0  0  0  0  0  0  0  0  0
   47.1540   33.6020   38.5950 N   0  0  0  0  0  0  0  0  0  0  0  0
   46.2710   32.5990   38.4250 C   0  0  0  0  0  0  0  0  0  0  0  0
   46.0730   32.0230   37.1980 C   0  0  0  0  0  0  0  0  0  0  0  0
   46.8010   32.4910   36.1230 C   0  0  0  0  0  0  0  0  0  0  0  0
   46.6280   31.9700   34.9910 O   0  0  0  0  0  0  0  0  0  0  0  0
   47.6830   33.5060   36.3370 N   0  0  0  0  0  0  0  0  0  0  0  0
   47.8430   34.0420   37.5670 C   0  0  0  0  0  0  0  0  0  0  0  0
   48.6750   34.9810   37.6970 O   0  0  0  0  0  0  0  0  0  0  0  0
   45.0850   30.9190   37.0880 C   0  0  0  0  0  0  0  0  0  0  0  0
   45.7910   29.7840   36.6930 O   0  0  0  0  0  0  0  0  0  0  0  0
   48.8531   35.7041   42.3825 H   0  0  0  0  0  0  0  0  0  0  0  0
   49.3789   34.9515   39.8195 H   0  0  0  0  0  0  0  0  0  0  0  0
   43.7686   36.8431   44.5539 H   0  0  0  0  0  0  0  0  0  0  0  0
   45.0781   36.6227   42.3888 H   0  0  0  0  0  0  0  0  0  0  0  0
   45.3050   31.8508   49.2553 H   0  0  0  0  0  0  0  0  0  0  0  0
   47.2630   30.6350   47.8497 H   0  0  0  0  0  0  0  0  0  0  0  0
   47.4591   31.9847   45.5085 H   0  0  0  0  0  0  0  0  0  0  0  0
   45.6968   32.2348   39.2897 H   0  0  0  0  0  0  0  0  0  0  0  0
   48.2369   33.8709   35.5490 H   0  0  0  0  0  0  0  0  0  0  0  0
   44.6020   30.7449   38.0608 H   0  0  0  0  0  0  0  0  0  0  0  0
   44.2968   31.1659   36.3616 H   0  0  0  0  0  0  0  0  0  0  0  0
   46.0979   29.2907   37.4946 H   0  0  0  0  0  0  0  0  0  0  0  0
  1  8  1  0
  2  1  2  0
  3  2  1  0
  4  3  2  0
  4  5  1  0
  5  1  1  0
  6 11  2  0
  7  6  1  0
  8  7  2  0
  8  9  1  0
  9 10  2  0
 10 11  1  0
 10 12  1  0
 12 13  1  0
 13 14  2  0
 15 14  1  0
 16 12  1  0
 16 15  2  0
 17  4  1  0
 18 17  1  0
 19 18  2  0
 20 22  1  0
 20 19  1  0
 21 20  2  0
 22 23  1  0
 23 24  2  0
 23 17  1  0
 25 19  1  0
 26 25  1  0
  2 27  1  0
  3 28  1  0
  6 29  1  0
  7 30  1  0
 14 31  1  0
 15 32  1  0
 16 33  1  0
 18 34  1  0
 22 35  1  0
 25 36  1  0
 25 37  1  0
 26 38  1  0
M  ISO  8  27  14  28  14  29  14  30  14  31  14  32  14  33  14  34  14
M  ISO  4  35   9  36   8  37   8  38   3
M  END
>  <minimizedAffinity>  (1) 
-7.25045729

>  <minimizedRMSD>  (1) 
0.103251539

$$$$
