
     RDKit          3D

 50 54  0  0  0  0  0  0  0  0999 V2000
   46.8670   34.7200   41.9160 C   0  0  0  0  0  0  0  0  0  0  0  0
   48.1940   35.1250   41.7080 C   0  0  0  0  0  0  0  0  0  0  0  0
   48.4400   34.7520   40.3900 C   0  0  0  0  0  0  0  0  0  0  0  0
   47.2860   34.1610   39.8910 C   0  0  0  0  0  0  0  0  0  0  0  0
   46.3780   34.1680   40.8480 O   0  0  0  0  0  0  0  0  0  0  0  0
   44.4980   36.0410   44.4510 C   0  0  0  0  0  0  0  0  0  0  0  0
   45.2200   35.9260   43.2270 C   0  0  0  0  0  0  0  0  0  0  0  0
   46.1120   34.8770   43.1410 C   0  0  0  0  0  0  0  0  0  0  0  0
   46.2470   34.0380   44.1980 N   0  0  0  0  0  0  0  0  0  0  0  0
   45.5470   34.1760   45.3440 C   0  0  0  0  0  0  0  0  0  0  0  0
   44.6690   35.1830   45.4700 N   0  0  0  0  0  0  0  0  0  0  0  0
   45.8140   33.2050   46.3550 N   0  0  0  0  0  0  0  0  0  0  0  0
   45.1830   33.1480   47.5280 N   0  0  0  0  0  0  0  0  0  0  0  0
   45.6440   32.1320   48.2720 C   0  0  0  0  0  0  0  0  0  0  0  0
   46.6430   31.4850   47.5270 C   0  0  0  0  0  0  0  0  0  0  0  0
   46.7160   32.1910   46.3320 C   0  0  0  0  0  0  0  0  0  0  0  0
   47.1250   33.6430   38.5820 N   0  0  0  0  0  0  0  0  0  0  0  0
   46.1820   32.6900   38.3950 C   0  0  0  0  0  0  0  0  0  0  0  0
   45.9610   32.1370   37.1570 C   0  0  0  0  0  0  0  0  0  0  0  0
   46.7310   32.5790   36.1020 C   0  0  0  0  0  0  0  0  0  0  0  0
   46.5440   32.0840   34.9580 O   0  0  0  0  0  0  0  0  0  0  0  0
   47.6700   33.5400   36.3320 N   0  0  0  0  0  0  0  0  0  0  0  0
   47.8570   34.0620   37.5720 C   0  0  0  0  0  0  0  0  0  0  0  0
   48.7280   34.9370   37.7270 O   0  0  0  0  0  0  0  0  0  0  0  0
   44.9260   31.1070   37.0090 C   0  0  0  0  0  0  0  0  0  0  0  0
   45.4180   29.7610   37.2150 N   0  0  0  0  0  0  0  0  0  0  0  0
   45.2850   29.0310   35.9940 C   0  0  0  0  0  0  0  0  0  0  0  0
   46.1380   27.7930   35.9330 C   0  0  0  0  0  0  0  0  0  0  0  0
   47.3550   27.8980   36.5580 O   0  0  0  0  0  0  0  0  0  0  0  0
   47.2570   28.4060   37.8540 C   0  0  0  0  0  0  0  0  0  0  0  0
   46.7810   29.8490   37.6700 C   0  0  0  0  0  0  0  0  0  0  0  0
   48.8758   35.6185   42.4162 H   0  0  0  0  0  0  0  0  0  0  0  0
   49.3815   34.8991   39.8406 H   0  0  0  0  0  0  0  0  0  0  0  0
   43.7748   36.8620   44.5649 H   0  0  0  0  0  0  0  0  0  0  0  0
   45.0741   36.6339   42.3978 H   0  0  0  0  0  0  0  0  0  0  0  0
   45.3023   31.8562   49.2805 H   0  0  0  0  0  0  0  0  0  0  0  0
   47.2386   30.6094   47.8246 H   0  0  0  0  0  0  0  0  0  0  0  0
   47.3974   31.9638   45.4989 H   0  0  0  0  0  0  0  0  0  0  0  0
   45.5806   32.3516   39.2516 H   0  0  0  0  0  0  0  0  0  0  0  0
   48.2493   33.8771   35.5499 H   0  0  0  0  0  0  0  0  0  0  0  0
   44.1313   31.3036   37.7438 H   0  0  0  0  0  0  0  0  0  0  0  0
   44.5593   31.1628   35.9734 H   0  0  0  0  0  0  0  0  0  0  0  0
   44.2322   28.7332   35.8805 H   0  0  0  0  0  0  0  0  0  0  0  0
   45.6234   29.6945   35.1845 H   0  0  0  0  0  0  0  0  0  0  0  0
   45.5810   26.9707   36.4058 H   0  0  0  0  0  0  0  0  0  0  0  0
   46.3523   27.6185   34.8683 H   0  0  0  0  0  0  0  0  0  0  0  0
   46.5286   27.8292   38.4428 H   0  0  0  0  0  0  0  0  0  0  0  0
   48.2118   28.3485   38.3972 H   0  0  0  0  0  0  0  0  0  0  0  0
   47.4015   30.3639   36.9217 H   0  0  0  0  0  0  0  0  0  0  0  0
   46.8576   30.4215   38.6061 H   0  0  0  0  0  0  0  0  0  0  0  0
  1  8  1  0
  2  1  2  0
  3  2  1  0
  4  3  2  0
  4  5  1  0
  5  1  1  0
  6 11  2  0
  7  6  1  0
  8  7  2  0
  8  9  1  0
  9 10  2  0
 10 11  1  0
 10 12  1  0
 12 13  1  0
 13 14  2  0
 15 14  1  0
 16 12  1  0
 16 15  2  0
 17  4  1  0
 18 17  1  0
 19 18  2  0
 20 22  1  0
 20 19  1  0
 21 20  2  0
 22 23  1  0
 23 24  2  0
 23 17  1  0
 25 19  1  0
 25 26  1  0
 26 31  1  0
 27 26  1  0
 28 27  1  0
 28 29  1  0
 29 30  1  0
 31 30  1  0
  2 32  1  0
  3 33  1  0
  6 34  1  0
  7 35  1  0
 14 36  1  0
 15 37  1  0
 16 38  1  0
 18 39  1  0
 22 40  1  0
 25 41  1  0
 25 42  1  0
 27 43  1  0
 27 44  1  0
 28 45  1  0
 28 46  1  0
 30 47  1  0
 30 48  1  0
 31 49  1  0
 31 50  1  0
M  ISO  8  32  14  33  14  34  14  35  14  36  14  37  14  38  14  39  14
M  ISO  8  40   9  41   8  42   8  43  13  44  13  45  13  46  13  47  13
M  ISO  3  48  13  49  13  50  13
M  END
>  <minimizedAffinity>  (1) 
-7.04495001

>  <minimizedRMSD>  (1) 
0.357468098

$$$$
