
     RDKit          3D

 29 29  0  0  0  0  0  0  0  0999 V2000
   46.7780   34.1300   41.8300 C   0  0  0  0  0  0  0  0  0  0  0  0
   44.6550   36.0240   44.3590 C   0  0  0  0  0  0  0  0  0  0  0  0
   45.3000   35.7440   43.1290 C   0  0  0  0  0  0  0  0  0  0  0  0
   46.0480   34.5620   43.0420 C   0  0  0  0  0  0  0  0  0  0  0  0
   46.1060   33.7620   44.1370 N   0  0  0  0  0  0  0  0  0  0  0  0
   45.4860   34.0380   45.3020 C   0  0  0  0  0  0  0  0  0  0  0  0
   44.7610   35.1770   45.4020 N   0  0  0  0  0  0  0  0  0  0  0  0
   45.7600   34.0600   40.6980 C   0  0  0  0  0  0  0  0  0  0  0  0
   47.3050   32.7330   42.0330 C   0  0  0  0  0  0  0  0  0  0  0  0
   47.9300   35.0120   41.4490 C   0  0  0  0  0  0  0  0  0  0  0  0
   49.1690   34.2720   41.2920 N   0  0  0  0  0  0  0  0  0  0  0  0
   50.1490   34.2960   42.3260 C   0  0  0  0  0  0  0  0  0  0  0  0
   50.2490   35.3560   43.0790 N   0  0  0  0  0  0  0  0  0  0  0  0
   51.0330   33.2140   42.5840 N   0  0  0  0  0  0  0  0  0  0  0  0
   49.6380   36.1890   42.9540 H   0  0  0  0  0  0  0  0  0  0  0  0
   44.0606   36.9436   44.4640 H   0  0  0  0  0  0  0  0  0  0  0  0
   45.2167   36.4298   42.2730 H   0  0  0  0  0  0  0  0  0  0  0  0
   45.5678   33.3498   46.1562 H   0  0  0  0  0  0  0  0  0  0  0  0
   44.7466   33.9903   41.1200 H   0  0  0  0  0  0  0  0  0  0  0  0
   45.8377   34.9656   40.0785 H   0  0  0  0  0  0  0  0  0  0  0  0
   45.9609   33.1736   40.0785 H   0  0  0  0  0  0  0  0  0  0  0  0
   47.3839   32.5238   43.1100 H   0  0  0  0  0  0  0  0  0  0  0  0
   46.6176   32.0107   41.5686 H   0  0  0  0  0  0  0  0  0  0  0  0
   48.2982   32.6447   41.5686 H   0  0  0  0  0  0  0  0  0  0  0  0
   47.6934   35.5097   40.4970 H   0  0  0  0  0  0  0  0  0  0  0  0
   48.0762   35.7399   42.2607 H   0  0  0  0  0  0  0  0  0  0  0  0
   49.3397   33.7296   40.4332 H   0  0  0  0  0  0  0  0  0  0  0  0
   51.7237   33.2835   43.3449 H   0  0  0  0  0  0  0  0  0  0  0  0
   50.9831   32.3601   42.0101 H   0  0  0  0  0  0  0  0  0  0  0  0
  1  9  1  0
  1  4  1  0
  2  7  2  0
  3  2  1  0
  4  3  2  0
  4  5  1  0
  5  6  2  0
  6  7  1  0
  8  1  1  0
 10  1  1  0
 11 10  1  0
 11 12  1  0
 12 14  1  0
 12 13  2  0
 15 13  1  0
  2 16  1  0
  3 17  1  0
  6 18  1  0
  8 19  1  0
  8 20  1  0
  8 21  1  0
  9 22  1  0
  9 23  1  0
  9 24  1  0
 10 25  1  0
 10 26  1  0
 11 27  1  0
 14 28  1  0
 14 29  1  0
M  ISO  8  16  14  17  14  18  14  19   8  20   8  21   8  22   8  23   8
M  ISO  3  24   8  25   8  26   8
M  END
>  <minimizedAffinity>  (1) 
-5.3446641

>  <minimizedRMSD>  (1) 
1.08644056

$$$$
