
     RDKit          3D

 32 33  0  0  0  0  0  0  0  0999 V2000
   44.5600   34.4110   41.9400 C   0  0  0  0  0  0  0  0  0  0  0  0
   48.1370   34.6700   40.6990 C   0  0  0  0  0  0  0  0  0  0  0  0
   47.0210   34.8700   41.5440 C   0  0  0  0  0  0  0  0  0  0  0  0
   45.7970   34.2840   41.1590 C   0  0  0  0  0  0  0  0  0  0  0  0
   45.7590   33.5630   40.0020 N   0  0  0  0  0  0  0  0  0  0  0  0
   46.8560   33.3970   39.2210 C   0  0  0  0  0  0  0  0  0  0  0  0
   48.0390   33.9520   39.5750 N   0  0  0  0  0  0  0  0  0  0  0  0
   44.9180   34.3220   43.4040 C   0  0  0  0  0  0  0  0  0  0  0  0
   43.6670   33.2240   41.6510 C   0  0  0  0  0  0  0  0  0  0  0  0
   43.7720   35.6570   41.6980 C   0  0  0  0  0  0  0  0  0  0  0  0
   42.5660   35.4480   40.8960 C   0  0  0  0  0  0  0  0  0  0  0  0
   41.2980   35.4780   41.4670 C   0  0  0  0  0  0  0  0  0  0  0  0
   40.1270   35.2870   40.7540 C   0  0  0  0  0  0  0  0  0  0  0  0
   40.2200   35.0520   39.3940 C   0  0  0  0  0  0  0  0  0  0  0  0
   41.4590   35.0120   38.7760 C   0  0  0  0  0  0  0  0  0  0  0  0
   42.6180   35.2090   39.5240 C   0  0  0  0  0  0  0  0  0  0  0  0
   49.1057   35.1141   40.9718 H   0  0  0  0  0  0  0  0  0  0  0  0
   47.1043   35.4611   42.4680 H   0  0  0  0  0  0  0  0  0  0  0  0
   46.7837   32.8080   38.2948 H   0  0  0  0  0  0  0  0  0  0  0  0
   44.0290   34.5430   44.0130 H   0  0  0  0  0  0  0  0  0  0  0  0
   45.2762   33.3075   43.6329 H   0  0  0  0  0  0  0  0  0  0  0  0
   45.7096   35.0507   43.6329 H   0  0  0  0  0  0  0  0  0  0  0  0
   43.3316   32.7781   42.5990 H   0  0  0  0  0  0  0  0  0  0  0  0
   42.7924   33.5555   41.0720 H   0  0  0  0  0  0  0  0  0  0  0  0
   44.2279   32.4756   41.0720 H   0  0  0  0  0  0  0  0  0  0  0  0
   43.4731   36.0726   42.6716 H   0  0  0  0  0  0  0  0  0  0  0  0
   44.4201   36.3399   41.1291 H   0  0  0  0  0  0  0  0  0  0  0  0
   41.2213   35.6644   42.5484 H   0  0  0  0  0  0  0  0  0  0  0  0
   39.1486   35.3212   41.2555 H   0  0  0  0  0  0  0  0  0  0  0  0
   39.3066   34.8963   38.8011 H   0  0  0  0  0  0  0  0  0  0  0  0
   41.5280   34.8246   37.6943 H   0  0  0  0  0  0  0  0  0  0  0  0
   43.5954   35.1751   39.0205 H   0  0  0  0  0  0  0  0  0  0  0  0
  1  8  1  0
  2  3  2  0
  4  3  1  0
  4  1  1  0
  5  4  2  0
  6  7  2  0
  6  5  1  0
  7  2  1  0
  9  1  1  0
 10  1  1  0
 11 12  2  0
 11 10  1  0
 13 12  1  0
 14 13  2  0
 15 14  1  0
 15 16  2  0
 16 11  1  0
  2 17  1  0
  3 18  1  0
  6 19  1  0
  8 20  1  0
  8 21  1  0
  8 22  1  0
  9 23  1  0
  9 24  1  0
  9 25  1  0
 10 26  1  0
 10 27  1  0
 12 28  1  0
 13 29  1  0
 14 30  1  0
 15 31  1  0
 16 32  1  0
M  ISO  8  17  14  18  14  19  14  20   8  21   8  22   8  23   8  24   8
M  ISO  8  25   8  26   8  27   8  28  14  29  14  30  14  31  14  32  14
M  END
>  <minimizedAffinity>  (1) 
-4.72754478

>  <minimizedRMSD>  (1) 
6.96039104

$$$$
