
     RDKit          3D

 29 30  0  0  0  0  0  0  0  0999 V2000
   47.8290   34.2040   41.2640 C   0  0  0  0  0  0  0  0  0  0  0  0
   48.6480   33.8250   37.5770 C   0  0  0  0  0  0  0  0  0  0  0  0
   48.1230   34.3960   38.7590 C   0  0  0  0  0  0  0  0  0  0  0  0
   48.3270   33.7100   39.9730 C   0  0  0  0  0  0  0  0  0  0  0  0
   49.0170   32.5320   39.9510 N   0  0  0  0  0  0  0  0  0  0  0  0
   49.5090   32.0110   38.7950 C   0  0  0  0  0  0  0  0  0  0  0  0
   49.3180   32.6640   37.6150 N   0  0  0  0  0  0  0  0  0  0  0  0
   48.5150   35.5190   41.5650 C   0  0  0  0  0  0  0  0  0  0  0  0
   48.2760   33.2500   42.3560 C   0  0  0  0  0  0  0  0  0  0  0  0
   46.3480   34.3480   41.3640 C   0  0  0  0  0  0  0  0  0  0  0  0
   45.8340   34.6090   42.6970 C   0  0  0  0  0  0  0  0  0  0  0  0
   45.7590   33.9410   43.8670 C   0  0  0  0  0  0  0  0  0  0  0  0
   45.2020   34.4590   44.9810 C   0  0  0  0  0  0  0  0  0  0  0  0
   44.7050   35.7480   44.8410 C   0  0  0  0  0  0  0  0  0  0  0  0
   45.0560   36.1790   43.0870 S   0  0  0  0  0  0  0  0  0  0  0  0
   48.5052   34.3390   36.6150 H   0  0  0  0  0  0  0  0  0  0  0  0
   47.5717   35.3475   38.7319 H   0  0  0  0  0  0  0  0  0  0  0  0
   50.0622   31.0604   38.8130 H   0  0  0  0  0  0  0  0  0  0  0  0
   48.5858   35.6547   42.6543 H   0  0  0  0  0  0  0  0  0  0  0  0
   49.5252   35.5136   41.1297 H   0  0  0  0  0  0  0  0  0  0  0  0
   47.9326   36.3444   41.1297 H   0  0  0  0  0  0  0  0  0  0  0  0
   48.0673   33.6953   43.3399 H   0  0  0  0  0  0  0  0  0  0  0  0
   47.7291   32.3005   42.2598 H   0  0  0  0  0  0  0  0  0  0  0  0
   49.3556   33.0626   42.2598 H   0  0  0  0  0  0  0  0  0  0  0  0
   46.0439   35.1818   40.7142 H   0  0  0  0  0  0  0  0  0  0  0  0
   45.9290   33.3763   41.0636 H   0  0  0  0  0  0  0  0  0  0  0  0
   46.1728   32.9229   43.9148 H   0  0  0  0  0  0  0  0  0  0  0  0
   45.1458   33.9026   45.9283 H   0  0  0  0  0  0  0  0  0  0  0  0
   44.2137   36.3694   45.6042 H   0  0  0  0  0  0  0  0  0  0  0  0
  1 10  1  0
  1  8  1  0
  1  9  1  0
  2  7  2  0
  2  3  1  0
  3  4  2  0
  4  1  1  0
  5  4  1  0
  6  5  2  0
  7  6  1  0
 10 11  1  0
 11 15  1  0
 11 12  2  0
 12 13  1  0
 14 13  2  0
 15 14  1  0
  2 16  1  0
  3 17  1  0
  6 18  1  0
  8 19  1  0
  8 20  1  0
  8 21  1  0
  9 22  1  0
  9 23  1  0
  9 24  1  0
 10 25  1  0
 10 26  1  0
 12 27  1  0
 13 28  1  0
 14 29  1  0
M  ISO  8  16  14  17  14  18  14  19   8  20   8  21   8  22   8  23   8
M  ISO  6  24   8  25   8  26   8  27  14  28  14  29  14
M  END
>  <minimizedAffinity>  (1) 
-4.34871912

>  <minimizedRMSD>  (1) 
5.38670492

$$$$
