
     RDKit          3D

 28 29  0  0  0  0  0  0  0  0999 V2000
   47.7050   34.1600   41.2970 C   0  0  0  0  0  0  0  0  0  0  0  0
   48.6200   33.8260   37.6270 C   0  0  0  0  0  0  0  0  0  0  0  0
   48.0560   34.3910   38.8050 C   0  0  0  0  0  0  0  0  0  0  0  0
   48.2340   33.6910   40.0130 C   0  0  0  0  0  0  0  0  0  0  0  0
   48.9310   32.5220   39.9810 N   0  0  0  0  0  0  0  0  0  0  0  0
   49.4580   32.0060   38.8490 C   0  0  0  0  0  0  0  0  0  0  0  0
   49.3000   32.6610   37.6780 N   0  0  0  0  0  0  0  0  0  0  0  0
   48.4130   35.4510   41.6570 C   0  0  0  0  0  0  0  0  0  0  0  0
   48.0860   33.1700   42.3810 C   0  0  0  0  0  0  0  0  0  0  0  0
   46.2330   34.3530   41.3560 C   0  0  0  0  0  0  0  0  0  0  0  0
   45.7200   34.7300   42.6290 N   0  0  0  0  0  0  0  0  0  0  0  0
   45.5580   34.1040   43.8090 C   0  0  0  0  0  0  0  0  0  0  0  0
   45.0160   34.9340   44.7030 N   0  0  0  0  0  0  0  0  0  0  0  0
   44.8230   36.1190   44.0960 C   0  0  0  0  0  0  0  0  0  0  0  0
   45.2580   35.9500   42.8570 N   0  0  0  0  0  0  0  0  0  0  0  0
   48.5005   34.3443   36.6642 H   0  0  0  0  0  0  0  0  0  0  0  0
   47.5011   35.3402   38.7727 H   0  0  0  0  0  0  0  0  0  0  0  0
   50.0132   31.0569   38.8807 H   0  0  0  0  0  0  0  0  0  0  0  0
   48.4658   35.5473   42.7515 H   0  0  0  0  0  0  0  0  0  0  0  0
   49.4310   35.4394   41.2404 H   0  0  0  0  0  0  0  0  0  0  0  0
   47.8560   36.3032   41.2404 H   0  0  0  0  0  0  0  0  0  0  0  0
   47.9119   33.6224   43.3684 H   0  0  0  0  0  0  0  0  0  0  0  0
   47.4730   32.2622   42.2804 H   0  0  0  0  0  0  0  0  0  0  0  0
   49.1494   32.9074   42.2804 H   0  0  0  0  0  0  0  0  0  0  0  0
   45.9640   35.1388   40.6348 H   0  0  0  0  0  0  0  0  0  0  0  0
   45.7881   33.3735   41.1265 H   0  0  0  0  0  0  0  0  0  0  0  0
   45.8329   33.0578   44.0085 H   0  0  0  0  0  0  0  0  0  0  0  0
   44.3954   37.0325   44.5350 H   0  0  0  0  0  0  0  0  0  0  0  0
  1 10  1  0
  1  8  1  0
  1  9  1  0
  2  7  2  0
  2  3  1  0
  3  4  2  0
  4  1  1  0
  5  4  1  0
  6  5  2  0
  7  6  1  0
 10 11  1  0
 11 15  1  0
 11 12  1  0
 12 13  2  0
 14 13  1  0
 15 14  2  0
  2 16  1  0
  3 17  1  0
  6 18  1  0
  8 19  1  0
  8 20  1  0
  8 21  1  0
  9 22  1  0
  9 23  1  0
  9 24  1  0
 10 25  1  0
 10 26  1  0
 12 27  1  0
 14 28  1  0
M  ISO  8  16  14  17  14  18  14  19   8  20   8  21   8  22   8  23   8
M  ISO  5  24   8  25   8  26   8  27  14  28  14
M  END
>  <minimizedAffinity>  (1) 
-4.11086655

>  <minimizedRMSD>  (1) 
5.29204035

$$$$
