
     RDKit          3D

 24 24  0  0  0  0  0  0  0  0999 V2000
   47.4280   34.1370   42.3440 C   0  0  0  0  0  0  0  0  0  0  0  0
   44.6950   36.0130   44.1820 C   0  0  0  0  0  0  0  0  0  0  0  0
   45.6090   35.7010   43.1460 C   0  0  0  0  0  0  0  0  0  0  0  0
   46.4400   34.5690   43.3400 C   0  0  0  0  0  0  0  0  0  0  0  0
   46.3100   33.8660   44.4910 N   0  0  0  0  0  0  0  0  0  0  0  0
   45.4250   34.1940   45.4590 C   0  0  0  0  0  0  0  0  0  0  0  0
   44.6190   35.2750   45.2940 N   0  0  0  0  0  0  0  0  0  0  0  0
   46.8150   34.3670   40.9610 C   0  0  0  0  0  0  0  0  0  0  0  0
   47.6160   32.6410   42.4580 C   0  0  0  0  0  0  0  0  0  0  0  0
   48.7730   34.7410   42.4530 C   0  0  0  0  0  0  0  0  0  0  0  0
   49.0050   35.8730   41.5930 N   0  0  0  0  0  0  0  0  0  0  0  0
   44.0319   36.8833   44.0689 H   0  0  0  0  0  0  0  0  0  0  0  0
   45.6712   36.3097   42.2319 H   0  0  0  0  0  0  0  0  0  0  0  0
   45.3580   33.5889   46.3751 H   0  0  0  0  0  0  0  0  0  0  0  0
   45.7905   34.7514   41.0734 H   0  0  0  0  0  0  0  0  0  0  0  0
   47.4224   35.0984   40.4077 H   0  0  0  0  0  0  0  0  0  0  0  0
   46.7914   33.4166   40.4077 H   0  0  0  0  0  0  0  0  0  0  0  0
   47.6518   32.3558   43.5198 H   0  0  0  0  0  0  0  0  0  0  0  0
   46.7753   32.1275   41.9686 H   0  0  0  0  0  0  0  0  0  0  0  0
   48.5576   32.3514   41.9686 H   0  0  0  0  0  0  0  0  0  0  0  0
   48.9166   35.0681   43.4934 H   0  0  0  0  0  0  0  0  0  0  0  0
   49.4847   33.9643   42.1364 H   0  0  0  0  0  0  0  0  0  0  0  0
   49.1767   36.7108   42.1670 H   0  0  0  0  0  0  0  0  0  0  0  0
   49.8260   35.6900   40.9985 H   0  0  0  0  0  0  0  0  0  0  0  0
  1 10  1  0
  1  9  1  0
  1  4  1  0
  2  7  2  0
  3  4  2  0
  3  2  1  0
  4  5  1  0
  5  6  2  0
  7  6  1  0
  8  1  1  0
 11 10  1  0
  2 12  1  0
  3 13  1  0
  6 14  1  0
  8 15  1  0
  8 16  1  0
  8 17  1  0
  9 18  1  0
  9 19  1  0
  9 20  1  0
 10 21  1  0
 10 22  1  0
 11 23  1  0
 11 24  1  0
M  ISO  8  12  14  13  14  14  14  15   8  16   8  17   8  18   8  19   8
M  ISO  5  20   8  21   8  22   8  23   5  24   5
M  END
>  <minimizedAffinity>  (1) 
-3.81465626

>  <minimizedRMSD>  (1) 
0.639135122

$$$$
