
     RDKit          3D

 43 46  0  0  1  0  0  0  0  0999 V2000
   47.8190   34.9710   41.2850 C   0  0  2  0  0  0  0  0  0  0  0  0
   48.9980   35.7450   41.5690 C   0  0  0  0  0  0  0  0  0  0  0  0
   49.9550   34.8530   42.3760 C   0  0  0  0  0  0  0  0  0  0  0  0
   49.3280   33.4820   42.4740 C   0  0  0  0  0  0  0  0  0  0  0  0
   47.8880   33.7880   42.2890 C   0  0  1  0  0  0  0  0  0  0  0  0
   47.6690   34.3240   39.9550 C   0  0  0  0  0  0  0  0  0  0  0  0
   48.4980   34.7430   38.9150 C   0  0  0  0  0  0  0  0  0  0  0  0
   48.3780   34.1490   37.6700 C   0  0  0  0  0  0  0  0  0  0  0  0
   47.4300   33.1720   37.5480 N   0  0  0  0  0  0  0  0  0  0  0  0
   46.6450   32.7870   38.5650 C   0  0  0  0  0  0  0  0  0  0  0  0
   46.7580   33.3610   39.7780 N   0  0  0  0  0  0  0  0  0  0  0  0
   47.2790   34.2070   43.5920 C   0  0  0  0  0  0  0  0  0  0  0  0
   45.7810   34.1780   43.4890 C   0  0  0  0  0  0  0  0  0  0  0  0
   45.3300   34.2580   44.9390 C   0  0  0  0  0  0  0  0  0  0  0  0
   44.6190   35.1890   45.6650 C   0  0  0  0  0  0  0  0  0  0  0  0
   44.5160   34.7270   46.9300 N   0  0  0  0  0  0  0  0  0  0  0  0
   45.1290   33.5330   47.0610 C   0  0  0  0  0  0  0  0  0  0  0  0
   45.2950   32.6730   48.1340 C   0  0  0  0  0  0  0  0  0  0  0  0
   45.9790   31.4770   48.0120 C   0  0  0  0  0  0  0  0  0  0  0  0
   46.5020   31.1580   46.7750 C   0  0  0  0  0  0  0  0  0  0  0  0
   46.3300   32.0230   45.7090 C   0  0  0  0  0  0  0  0  0  0  0  0
   45.6450   33.2260   45.8170 C   0  0  0  0  0  0  0  0  0  0  0  0
   46.9875   35.6890   41.3404 H   0  0  0  0  0  0  0  0  0  0  0  0
   49.4778   36.0564   40.6294 H   0  0  0  0  0  0  0  0  0  0  0  0
   48.7389   36.6493   42.1391 H   0  0  0  0  0  0  0  0  0  0  0  0
   50.9263   34.7856   41.8641 H   0  0  0  0  0  0  0  0  0  0  0  0
   50.1225   35.2738   43.3784 H   0  0  0  0  0  0  0  0  0  0  0  0
   49.6998   32.8148   41.6824 H   0  0  0  0  0  0  0  0  0  0  0  0
   49.5529   32.9574   43.4143 H   0  0  0  0  0  0  0  0  0  0  0  0
   47.3402   32.9075   41.9221 H   0  0  0  0  0  0  0  0  0  0  0  0
   49.2400   35.5377   39.0820 H   0  0  0  0  0  0  0  0  0  0  0  0
   49.0128   34.4480   36.8229 H   0  0  0  0  0  0  0  0  0  0  0  0
   45.9002   31.9932   38.4065 H   0  0  0  0  0  0  0  0  0  0  0  0
   47.6035   33.5170   44.3849 H   0  0  0  0  0  0  0  0  0  0  0  0
   47.6057   35.2295   43.8322 H   0  0  0  0  0  0  0  0  0  0  0  0
   45.4088   35.0376   42.9124 H   0  0  0  0  0  0  0  0  0  0  0  0
   45.4021   33.2860   42.9686 H   0  0  0  0  0  0  0  0  0  0  0  0
   44.2098   36.1361   45.2836 H   0  0  0  0  0  0  0  0  0  0  0  0
   44.0330   35.2213   47.6937 H   0  0  0  0  0  0  0  0  0  0  0  0
   44.8709   32.9489   49.1107 H   0  0  0  0  0  0  0  0  0  0  0  0
   46.1021   30.8025   48.8721 H   0  0  0  0  0  0  0  0  0  0  0  0
   47.0549   30.2171   46.6370 H   0  0  0  0  0  0  0  0  0  0  0  0
   46.7546   31.7455   44.7329 H   0  0  0  0  0  0  0  0  0  0  0  0
  1  2  1  0
  1  5  1  0
  2  3  1  0
  3  4  1  0
  5  4  1  0
  5 12  1  0
  6  1  1  0
  7  6  2  0
  8  7  1  0
  9  8  2  0
  9 10  1  0
 10 11  2  0
 11  6  1  0
 13 12  1  0
 13 14  1  0
 14 15  2  0
 14 22  1  0
 15 16  1  0
 16 17  1  0
 17 18  2  0
 19 18  1  0
 20 19  2  0
 21 22  2  0
 21 20  1  0
 22 17  1  0
  1 23  1  1
  2 24  1  0
  2 25  1  0
  3 26  1  0
  3 27  1  0
  4 28  1  0
  4 29  1  0
  5 30  1  6
  7 31  1  0
  8 32  1  0
 10 33  1  0
 12 34  1  0
 12 35  1  0
 13 36  1  0
 13 37  1  0
 15 38  1  0
 16 39  1  0
 18 40  1  0
 19 41  1  0
 20 42  1  0
 21 43  1  0
M  ISO  8  23  13  24  13  25  13  26  13  27  13  28  13  29  13  30  13
M  ISO  8  31  14  32  14  33  14  34   8  35   8  36   8  37   8  38  14
M  ISO  5  39   9  40  14  41  14  42  14  43  14
M  END
>  <minimizedAffinity>  (1) 
-6.58748722

>  <minimizedRMSD>  (1) 
0.519699454

$$$$
