
     RDKit          3D

 39 41  0  0  0  0  0  0  0  0999 V2000
   47.9080   34.4750   41.8190 C   0  0  0  0  0  0  0  0  0  0  0  0
   48.9430   33.5410   41.4630 C   0  0  0  0  0  0  0  0  0  0  0  0
   49.9590   33.2400   42.3730 C   0  0  0  0  0  0  0  0  0  0  0  0
   50.7840   32.3600   41.7950 N   0  0  0  0  0  0  0  0  0  0  0  0
   50.3640   32.0780   40.5740 C   0  0  0  0  0  0  0  0  0  0  0  0
   49.2520   32.8050   40.4020 N   0  0  0  0  0  0  0  0  0  0  0  0
   48.4700   32.8060   39.2120 C   0  0  0  0  0  0  0  0  0  0  0  0
   48.4580   33.9370   38.3840 C   0  0  0  0  0  0  0  0  0  0  0  0
   47.7470   34.0700   37.2090 C   0  0  0  0  0  0  0  0  0  0  0  0
   46.9880   33.0150   36.8120 C   0  0  0  0  0  0  0  0  0  0  0  0
   46.9600   31.8850   37.5780 C   0  0  0  0  0  0  0  0  0  0  0  0
   47.6810   31.7740   38.7500 C   0  0  0  0  0  0  0  0  0  0  0  0
   46.5640   33.9600   42.1110 C   0  0  0  0  0  0  0  0  0  0  0  0
   44.5740   36.1850   44.4730 C   0  0  0  0  0  0  0  0  0  0  0  0
   45.1980   35.7500   43.2880 C   0  0  0  0  0  0  0  0  0  0  0  0
   45.8810   34.5120   43.2860 C   0  0  0  0  0  0  0  0  0  0  0  0
   45.8960   33.7990   44.4470 N   0  0  0  0  0  0  0  0  0  0  0  0
   45.2940   34.2290   45.5700 C   0  0  0  0  0  0  0  0  0  0  0  0
   44.6380   35.4080   45.5860 N   0  0  0  0  0  0  0  0  0  0  0  0
   45.6470   34.2160   40.9080 C   0  0  0  0  0  0  0  0  0  0  0  0
   46.6610   32.4590   42.2380 C   0  0  0  0  0  0  0  0  0  0  0  0
   47.8090   35.1829   40.9829 H   0  0  0  0  0  0  0  0  0  0  0  0
   48.2465   34.8969   42.7768 H   0  0  0  0  0  0  0  0  0  0  0  0
   50.0625   33.6539   43.3869 H   0  0  0  0  0  0  0  0  0  0  0  0
   50.8293   31.3913   39.8515 H   0  0  0  0  0  0  0  0  0  0  0  0
   49.0700   34.7950   38.6991 H   0  0  0  0  0  0  0  0  0  0  0  0
   47.7928   34.9953   36.6159 H   0  0  0  0  0  0  0  0  0  0  0  0
   46.4020   33.0708   35.8828 H   0  0  0  0  0  0  0  0  0  0  0  0
   46.3428   31.0354   37.2505 H   0  0  0  0  0  0  0  0  0  0  0  0
   47.6247   30.8403   39.3289 H   0  0  0  0  0  0  0  0  0  0  0  0
   44.0391   37.1459   44.4975 H   0  0  0  0  0  0  0  0  0  0  0  0
   45.1547   36.3646   42.3768 H   0  0  0  0  0  0  0  0  0  0  0  0
   45.3367   33.6153   46.4819 H   0  0  0  0  0  0  0  0  0  0  0  0
   44.6446   34.4959   41.2641 H   0  0  0  0  0  0  0  0  0  0  0  0
   46.0610   35.0329   40.2987 H   0  0  0  0  0  0  0  0  0  0  0  0
   45.5780   33.3028   40.2987 H   0  0  0  0  0  0  0  0  0  0  0  0
   46.6789   32.1815   43.3023 H   0  0  0  0  0  0  0  0  0  0  0  0
   45.7911   31.9929   41.7521 H   0  0  0  0  0  0  0  0  0  0  0  0
   47.5837   32.1088   41.7521 H   0  0  0  0  0  0  0  0  0  0  0  0
  1 13  1  0
  2  1  1  0
  2  3  2  0
  4  3  1  0
  5  4  2  0
  6  5  1  0
  6  2  1  0
  7  6  1  0
  8  7  2  0
  9  8  1  0
 10  9  2  0
 10 11  1  0
 11 12  2  0
 12  7  1  0
 13 21  1  0
 13 16  1  0
 14 19  2  0
 15 14  1  0
 16 15  2  0
 16 17  1  0
 17 18  2  0
 18 19  1  0
 20 13  1  0
  1 22  1  0
  1 23  1  0
  3 24  1  0
  5 25  1  0
  8 26  1  0
  9 27  1  0
 10 28  1  0
 11 29  1  0
 12 30  1  0
 14 31  1  0
 15 32  1  0
 18 33  1  0
 20 34  1  0
 20 35  1  0
 20 36  1  0
 21 37  1  0
 21 38  1  0
 21 39  1  0
M  ISO  8  22   8  23   8  24  14  25  14  26  14  27  14  28  14  29  14
M  ISO  8  30  14  31  14  32  14  33  14  34   8  35   8  36   8  37   8
M  ISO  2  38   8  39   8
M  END
>  <minimizedAffinity>  (1) 
-4.99603319

>  <minimizedRMSD>  (1) 
0.97858119

$$$$
