
     RDKit          3D

 36 38  0  0  0  0  0  0  0  0999 V2000
   46.5170   33.9670   42.1220 C   0  0  0  0  0  0  0  0  0  0  0  0
   44.5300   36.0780   44.5720 C   0  0  0  0  0  0  0  0  0  0  0  0
   45.1270   35.6820   43.3690 C   0  0  0  0  0  0  0  0  0  0  0  0
   45.8600   34.4570   43.3420 C   0  0  0  0  0  0  0  0  0  0  0  0
   45.9410   33.7390   44.4850 N   0  0  0  0  0  0  0  0  0  0  0  0
   45.3470   34.1580   45.6270 C   0  0  0  0  0  0  0  0  0  0  0  0
   44.6520   35.3120   45.6720 N   0  0  0  0  0  0  0  0  0  0  0  0
   45.6020   34.2820   40.9480 C   0  0  0  0  0  0  0  0  0  0  0  0
   46.5810   32.4440   42.2150 C   0  0  0  0  0  0  0  0  0  0  0  0
   47.8710   34.4380   41.8390 C   0  0  0  0  0  0  0  0  0  0  0  0
   48.8840   33.4960   41.4430 C   0  0  0  0  0  0  0  0  0  0  0  0
   49.8610   33.0870   42.3500 C   0  0  0  0  0  0  0  0  0  0  0  0
   50.6710   32.2290   41.7300 N   0  0  0  0  0  0  0  0  0  0  0  0
   50.2740   32.0600   40.4740 C   0  0  0  0  0  0  0  0  0  0  0  0
   49.1850   32.8390   40.3180 N   0  0  0  0  0  0  0  0  0  0  0  0
   48.4290   32.9750   39.1420 C   0  0  0  0  0  0  0  0  0  0  0  0
   48.2950   33.9590   38.2840 C   0  0  0  0  0  0  0  0  0  0  0  0
   47.4820   33.8540   37.1890 C   0  0  0  0  0  0  0  0  0  0  0  0
   46.8030   32.6240   37.0460 C   0  0  0  0  0  0  0  0  0  0  0  0
   47.3330   31.5610   38.5240 S   0  0  0  0  0  0  0  0  0  0  0  0
   43.9598   37.0175   44.6182 H   0  0  0  0  0  0  0  0  0  0  0  0
   45.0334   36.3010   42.4646 H   0  0  0  0  0  0  0  0  0  0  0  0
   45.4332   33.5447   46.5361 H   0  0  0  0  0  0  0  0  0  0  0  0
   44.6248   34.6184   41.3247 H   0  0  0  0  0  0  0  0  0  0  0  0
   46.0522   35.0769   40.3352 H   0  0  0  0  0  0  0  0  0  0  0  0
   45.4675   33.3784   40.3352 H   0  0  0  0  0  0  0  0  0  0  0  0
   46.5937   32.1414   43.2725 H   0  0  0  0  0  0  0  0  0  0  0  0
   45.7003   32.0091   41.7197 H   0  0  0  0  0  0  0  0  0  0  0  0
   47.4950   32.0845   41.7197 H   0  0  0  0  0  0  0  0  0  0  0  0
   47.7889   35.1778   41.0291 H   0  0  0  0  0  0  0  0  0  0  0  0
   48.2256   34.8013   42.8148 H   0  0  0  0  0  0  0  0  0  0  0  0
   49.9482   33.4156   43.3962 H   0  0  0  0  0  0  0  0  0  0  0  0
   50.7397   31.4148   39.7145 H   0  0  0  0  0  0  0  0  0  0  0  0
   48.8514   34.8933   38.4499 H   0  0  0  0  0  0  0  0  0  0  0  0
   47.3646   34.6749   36.4662 H   0  0  0  0  0  0  0  0  0  0  0  0
   46.1085   32.3405   36.2415 H   0  0  0  0  0  0  0  0  0  0  0  0
  1  9  1  0
  1  4  1  0
  2  7  2  0
  3  2  1  0
  4  3  2  0
  4  5  1  0
  5  6  2  0
  6  7  1  0
  8  1  1  0
 10  1  1  0
 11 10  1  0
 11 12  2  0
 13 12  1  0
 14 13  2  0
 15 14  1  0
 15 11  1  0
 16 15  1  0
 17 16  2  0
 18 17  1  0
 19 18  2  0
 19 20  1  0
 20 16  1  0
  2 21  1  0
  3 22  1  0
  6 23  1  0
  8 24  1  0
  8 25  1  0
  8 26  1  0
  9 27  1  0
  9 28  1  0
  9 29  1  0
 10 30  1  0
 10 31  1  0
 12 32  1  0
 14 33  1  0
 17 34  1  0
 18 35  1  0
 19 36  1  0
M  ISO  8  21  14  22  14  23  14  24   8  25   8  26   8  27   8  28   8
M  ISO  8  29   8  30   8  31   8  32  14  33  14  34  14  35  14  36  14
M  END
>  <minimizedAffinity>  (1) 
-4.84100866

>  <minimizedRMSD>  (1) 
1.03893101

$$$$
