
     RDKit          3D

 38 39  0  0  0  0  0  0  0  0999 V2000
   46.3560   34.0820   41.9750 C   0  0  0  0  0  0  0  0  0  0  0  0
   44.5180   36.1460   44.5840 C   0  0  0  0  0  0  0  0  0  0  0  0
   45.0640   35.7720   43.3450 C   0  0  0  0  0  0  0  0  0  0  0  0
   45.7600   34.5510   43.2370 C   0  0  0  0  0  0  0  0  0  0  0  0
   45.8680   33.7870   44.3510 N   0  0  0  0  0  0  0  0  0  0  0  0
   45.3340   34.1680   45.5280 C   0  0  0  0  0  0  0  0  0  0  0  0
   44.6640   35.3370   45.6480 N   0  0  0  0  0  0  0  0  0  0  0  0
   45.2870   34.2760   40.9070 C   0  0  0  0  0  0  0  0  0  0  0  0
   46.6280   32.5970   42.0980 C   0  0  0  0  0  0  0  0  0  0  0  0
   47.6050   34.6960   41.5320 C   0  0  0  0  0  0  0  0  0  0  0  0
   48.8370   33.9700   41.6020 C   0  0  0  0  0  0  0  0  0  0  0  0
   49.7680   34.2490   42.6220 C   0  0  0  0  0  0  0  0  0  0  0  0
   50.8120   33.4320   42.4560 N   0  0  0  0  0  0  0  0  0  0  0  0
   50.6040   32.6660   41.4130 C   0  0  0  0  0  0  0  0  0  0  0  0
   49.3910   32.9880   40.8760 N   0  0  0  0  0  0  0  0  0  0  0  0
   48.9040   32.3480   39.7370 C   0  0  0  0  0  0  0  0  0  0  0  0
   48.5550   33.3750   38.6780 C   0  0  0  0  0  0  0  0  0  0  0  0
   49.5520   31.1860   39.1430 C   0  0  0  0  0  0  0  0  0  0  0  0
   43.9734   37.0965   44.6834 H   0  0  0  0  0  0  0  0  0  0  0  0
   44.9496   36.4255   42.4676 H   0  0  0  0  0  0  0  0  0  0  0  0
   45.4449   33.5165   46.4074 H   0  0  0  0  0  0  0  0  0  0  0  0
   44.3144   34.4525   41.3896 H   0  0  0  0  0  0  0  0  0  0  0  0
   45.5478   35.1415   40.2802 H   0  0  0  0  0  0  0  0  0  0  0  0
   45.2270   33.3741   40.2802 H   0  0  0  0  0  0  0  0  0  0  0  0
   46.6787   32.3204   43.1614 H   0  0  0  0  0  0  0  0  0  0  0  0
   45.8180   32.0343   41.6109 H   0  0  0  0  0  0  0  0  0  0  0  0
   47.5849   32.3579   41.6109 H   0  0  0  0  0  0  0  0  0  0  0  0
   47.7405   35.6054   42.1358 H   0  0  0  0  0  0  0  0  0  0  0  0
   47.4506   34.8170   40.4496 H   0  0  0  0  0  0  0  0  0  0  0  0
   49.6554   35.0045   43.4136 H   0  0  0  0  0  0  0  0  0  0  0  0
   51.2906   31.8944   41.0345 H   0  0  0  0  0  0  0  0  0  0  0  0
   48.0411   31.8292   40.1799 H   0  0  0  0  0  0  0  0  0  0  0  0
   48.2375   34.3094   39.1639 H   0  0  0  0  0  0  0  0  0  0  0  0
   49.4375   33.5694   38.0508 H   0  0  0  0  0  0  0  0  0  0  0  0
   47.7368   32.9914   38.0508 H   0  0  0  0  0  0  0  0  0  0  0  0
   49.9210   30.5243   39.9405 H   0  0  0  0  0  0  0  0  0  0  0  0
   48.8277   30.6408   38.5200 H   0  0  0  0  0  0  0  0  0  0  0  0
   50.3965   31.5156   38.5200 H   0  0  0  0  0  0  0  0  0  0  0  0
  1  9  1  0
  1  4  1  0
  2  7  2  0
  3  2  1  0
  4  3  2  0
  4  5  1  0
  5  6  2  0
  6  7  1  0
  8  1  1  0
 10 11  1  0
 10  1  1  0
 11 12  2  0
 13 12  1  0
 14 13  2  0
 15 14  1  0
 15 11  1  0
 16 15  1  0
 17 16  1  0
 18 16  1  0
  2 19  1  0
  3 20  1  0
  6 21  1  0
  8 22  1  0
  8 23  1  0
  8 24  1  0
  9 25  1  0
  9 26  1  0
  9 27  1  0
 10 28  1  0
 10 29  1  0
 12 30  1  0
 14 31  1  0
 16 32  1  0
 17 33  1  0
 17 34  1  0
 17 35  1  0
 18 36  1  0
 18 37  1  0
 18 38  1  0
M  ISO  8  19  14  20  14  21  14  22   8  23   8  24   8  25   8  26   8
M  ISO  8  27   8  28   8  29   8  30  14  31  14  32   8  33   8  34   8
M  ISO  4  35   8  36   8  37   8  38   8
M  END
>  <minimizedAffinity>  (1) 
-4.63347006

>  <minimizedRMSD>  (1) 
0.206052065

$$$$
