
     RDKit          3D

 35 36  0  0  0  0  0  0  0  0999 V2000
   46.3880   34.0390   41.9620 C   0  0  0  0  0  0  0  0  0  0  0  0
   44.5720   36.2470   44.4700 C   0  0  0  0  0  0  0  0  0  0  0  0
   45.1320   35.8350   43.2470 C   0  0  0  0  0  0  0  0  0  0  0  0
   45.7690   34.5700   43.1940 C   0  0  0  0  0  0  0  0  0  0  0  0
   45.8080   33.8180   44.3290 N   0  0  0  0  0  0  0  0  0  0  0  0
   45.2570   34.2540   45.4840 C   0  0  0  0  0  0  0  0  0  0  0  0
   44.6510   35.4450   45.5530 N   0  0  0  0  0  0  0  0  0  0  0  0
   45.3470   34.1160   40.8600 C   0  0  0  0  0  0  0  0  0  0  0  0
   46.6780   32.5600   42.1870 C   0  0  0  0  0  0  0  0  0  0  0  0
   47.6340   34.6670   41.5210 C   0  0  0  0  0  0  0  0  0  0  0  0
   48.8690   33.9450   41.6090 C   0  0  0  0  0  0  0  0  0  0  0  0
   49.8140   34.2510   42.5980 C   0  0  0  0  0  0  0  0  0  0  0  0
   50.8530   33.4250   42.4430 N   0  0  0  0  0  0  0  0  0  0  0  0
   50.6360   32.6190   41.4290 C   0  0  0  0  0  0  0  0  0  0  0  0
   49.4170   32.9370   40.9140 N   0  0  0  0  0  0  0  0  0  0  0  0
   48.8610   32.2820   39.7800 C   0  0  0  0  0  0  0  0  0  0  0  0
   48.6540   33.1860   38.5830 C   0  0  0  0  0  0  0  0  0  0  0  0
   44.0697   37.2228   44.5438 H   0  0  0  0  0  0  0  0  0  0  0  0
   45.0770   36.4774   42.3558 H   0  0  0  0  0  0  0  0  0  0  0  0
   45.3077   33.6196   46.3812 H   0  0  0  0  0  0  0  0  0  0  0  0
   44.3447   34.1901   41.3070 H   0  0  0  0  0  0  0  0  0  0  0  0
   45.5372   35.0025   40.2372 H   0  0  0  0  0  0  0  0  0  0  0  0
   45.4047   33.2111   40.2372 H   0  0  0  0  0  0  0  0  0  0  0  0
   46.7183   32.3544   43.2669 H   0  0  0  0  0  0  0  0  0  0  0  0
   45.8811   31.9562   41.7283 H   0  0  0  0  0  0  0  0  0  0  0  0
   47.6439   32.3018   41.7283 H   0  0  0  0  0  0  0  0  0  0  0  0
   47.7576   35.5822   42.1186 H   0  0  0  0  0  0  0  0  0  0  0  0
   47.4875   34.7877   40.4375 H   0  0  0  0  0  0  0  0  0  0  0  0
   49.7174   35.0327   43.3658 H   0  0  0  0  0  0  0  0  0  0  0  0
   51.3135   31.8331   41.0639 H   0  0  0  0  0  0  0  0  0  0  0  0
   49.5390   31.4677   39.4846 H   0  0  0  0  0  0  0  0  0  0  0  0
   47.8664   31.9197   40.0793 H   0  0  0  0  0  0  0  0  0  0  0  0
   48.4209   34.2040   38.9283 H   0  0  0  0  0  0  0  0  0  0  0  0
   49.5709   33.2058   37.9756 H   0  0  0  0  0  0  0  0  0  0  0  0
   47.8199   32.8049   37.9756 H   0  0  0  0  0  0  0  0  0  0  0  0
  1  9  1  0
  1  4  1  0
  2  7  2  0
  3  2  1  0
  4  3  2  0
  4  5  1  0
  5  6  2  0
  6  7  1  0
  8  1  1  0
 10 11  1  0
 10  1  1  0
 11 12  2  0
 13 12  1  0
 14 13  2  0
 15 14  1  0
 15 11  1  0
 16 15  1  0
 17 16  1  0
  2 18  1  0
  3 19  1  0
  6 20  1  0
  8 21  1  0
  8 22  1  0
  8 23  1  0
  9 24  1  0
  9 25  1  0
  9 26  1  0
 10 27  1  0
 10 28  1  0
 12 29  1  0
 14 30  1  0
 16 31  1  0
 16 32  1  0
 17 33  1  0
 17 34  1  0
 17 35  1  0
M  ISO  8  18  14  19  14  20  14  21   8  22   8  23   8  24   8  25   8
M  ISO  8  26   8  27   8  28   8  29  14  30  14  31   8  32   8  33   8
M  ISO  2  34   8  35   8
M  END
>  <minimizedAffinity>  (1) 
-4.50630999

>  <minimizedRMSD>  (1) 
0.249788731

$$$$
