
     RDKit          3D

 32 33  0  0  0  0  0  0  0  0999 V2000
   46.4020   34.0020   41.8420 C   0  0  0  0  0  0  0  0  0  0  0  0
   44.6150   36.1760   44.3970 C   0  0  0  0  0  0  0  0  0  0  0  0
   45.1600   35.7610   43.1770 C   0  0  0  0  0  0  0  0  0  0  0  0
   45.8050   34.5000   43.0950 C   0  0  0  0  0  0  0  0  0  0  0  0
   45.8570   33.7630   44.2140 N   0  0  0  0  0  0  0  0  0  0  0  0
   45.3330   34.1630   45.3840 C   0  0  0  0  0  0  0  0  0  0  0  0
   44.7160   35.3580   45.4800 N   0  0  0  0  0  0  0  0  0  0  0  0
   45.3550   34.1360   40.7470 C   0  0  0  0  0  0  0  0  0  0  0  0
   46.6450   32.5040   41.9980 C   0  0  0  0  0  0  0  0  0  0  0  0
   47.6620   34.6030   41.4080 C   0  0  0  0  0  0  0  0  0  0  0  0
   48.8840   33.8560   41.5440 C   0  0  0  0  0  0  0  0  0  0  0  0
   49.7080   34.0440   42.6530 C   0  0  0  0  0  0  0  0  0  0  0  0
   50.7650   33.2430   42.5290 N   0  0  0  0  0  0  0  0  0  0  0  0
   50.6790   32.5410   41.4010 C   0  0  0  0  0  0  0  0  0  0  0  0
   49.5280   32.9350   40.8270 N   0  0  0  0  0  0  0  0  0  0  0  0
   48.9850   32.4490   39.5600 C   0  0  0  0  0  0  0  0  0  0  0  0
   44.1116   37.1505   44.4797 H   0  0  0  0  0  0  0  0  0  0  0  0
   45.0890   36.4067   42.2893 H   0  0  0  0  0  0  0  0  0  0  0  0
   45.4075   33.5127   46.2681 H   0  0  0  0  0  0  0  0  0  0  0  0
   44.3620   34.2631   41.2028 H   0  0  0  0  0  0  0  0  0  0  0  0
   45.5869   35.0118   40.1231 H   0  0  0  0  0  0  0  0  0  0  0  0
   45.3589   33.2300   40.1231 H   0  0  0  0  0  0  0  0  0  0  0  0
   46.6864   32.2486   43.0671 H   0  0  0  0  0  0  0  0  0  0  0  0
   45.8253   31.9478   41.5197 H   0  0  0  0  0  0  0  0  0  0  0  0
   47.5985   32.2354   41.5197 H   0  0  0  0  0  0  0  0  0  0  0  0
   47.7887   35.5322   41.9829 H   0  0  0  0  0  0  0  0  0  0  0  0
   47.5397   34.7049   40.3196 H   0  0  0  0  0  0  0  0  0  0  0  0
   49.5178   34.7353   43.4872 H   0  0  0  0  0  0  0  0  0  0  0  0
   51.3954   31.7982   41.0202 H   0  0  0  0  0  0  0  0  0  0  0  0
   48.1789   31.7275   39.7592 H   0  0  0  0  0  0  0  0  0  0  0  0
   48.5847   33.2961   38.9836 H   0  0  0  0  0  0  0  0  0  0  0  0
   49.7827   31.9576   38.9836 H   0  0  0  0  0  0  0  0  0  0  0  0
  1  9  1  0
  1  4  1  0
  2  7  2  0
  3  2  1  0
  4  3  2  0
  4  5  1  0
  5  6  2  0
  6  7  1  0
  8  1  1  0
 10 11  1  0
 10  1  1  0
 11 12  2  0
 13 12  1  0
 14 13  2  0
 15 14  1  0
 15 11  1  0
 16 15  1  0
  2 17  1  0
  3 18  1  0
  6 19  1  0
  8 20  1  0
  8 21  1  0
  8 22  1  0
  9 23  1  0
  9 24  1  0
  9 25  1  0
 10 26  1  0
 10 27  1  0
 12 28  1  0
 14 29  1  0
 16 30  1  0
 16 31  1  0
 16 32  1  0
M  ISO  8  17  14  18  14  19  14  20   8  21   8  22   8  23   8  24   8
M  ISO  8  25   8  26   8  27   8  28  14  29  14  30   8  31   8  32   8
M  END
>  <minimizedAffinity>  (1) 
-4.4700861

>  <minimizedRMSD>  (1) 
0.168064043

$$$$
