
     RDKit          3D

 31 33  0  0  0  0  0  0  0  0999 V2000
   46.1300   35.2980   42.6910 C   0  0  0  0  0  0  0  0  0  0  0  0
   47.0860   34.7210   41.8370 C   0  0  0  0  0  0  0  0  0  0  0  0
   47.8490   33.6210   42.2890 C   0  0  0  0  0  0  0  0  0  0  0  0
   47.6240   33.1700   43.5380 N   0  0  0  0  0  0  0  0  0  0  0  0
   46.6900   33.7470   44.3460 C   0  0  0  0  0  0  0  0  0  0  0  0
   45.9490   34.7990   43.9350 N   0  0  0  0  0  0  0  0  0  0  0  0
   46.4260   33.2960   45.6670 N   0  0  0  0  0  0  0  0  0  0  0  0
   47.2460   32.3940   46.2510 C   0  0  0  0  0  0  0  0  0  0  0  0
   46.9230   32.0080   47.5320 C   0  0  0  0  0  0  0  0  0  0  0  0
   45.8320   32.4960   48.2030 C   0  0  0  0  0  0  0  0  0  0  0  0
   45.5150   32.0820   49.5290 N   0  0  0  0  0  0  0  0  0  0  0  0
   45.0490   33.3940   47.5710 N   0  0  0  0  0  0  0  0  0  0  0  0
   45.3260   33.8030   46.3150 C   0  0  0  0  0  0  0  0  0  0  0  0
   44.6140   34.6390   45.7020 O   0  0  0  0  0  0  0  0  0  0  0  0
   47.7940   31.0560   48.1380 N   0  0  0  0  0  0  0  0  0  0  0  0
   48.7820   31.5290   48.9510 C   0  0  0  0  0  0  0  0  0  0  0  0
   49.6860   30.7330   49.5970 C   0  0  0  0  0  0  0  0  0  0  0  0
   49.5950   29.3660   49.4150 C   0  0  0  0  0  0  0  0  0  0  0  0
   50.4140   28.5900   49.9940 O   0  0  0  0  0  0  0  0  0  0  0  0
   48.6190   28.9150   48.6120 N   0  0  0  0  0  0  0  0  0  0  0  0
   47.7470   29.7180   47.9920 C   0  0  0  0  0  0  0  0  0  0  0  0
   46.8340   29.2980   47.2410 O   0  0  0  0  0  0  0  0  0  0  0  0
   45.5301   36.1539   42.3481 H   0  0  0  0  0  0  0  0  0  0  0  0
   47.2389   35.1228   40.8245 H   0  0  0  0  0  0  0  0  0  0  0  0
   48.6024   33.1483   41.6417 H   0  0  0  0  0  0  0  0  0  0  0  0
   48.1259   31.9894   45.7294 H   0  0  0  0  0  0  0  0  0  0  0  0
   44.6874   32.4683   50.0052 H   0  0  0  0  0  0  0  0  0  0  0  0
   46.1134   31.3964   50.0114 H   0  0  0  0  0  0  0  0  0  0  0  0
   48.8556   32.6170   49.0954 H   0  0  0  0  0  0  0  0  0  0  0  0
   50.4632   31.1676   50.2428 H   0  0  0  0  0  0  0  0  0  0  0  0
   48.5371   27.8988   48.4656 H   0  0  0  0  0  0  0  0  0  0  0  0
  1  6  2  0
  2  3  2  0
  2  1  1  0
  3  4  1  0
  4  5  2  0
  5  7  1  0
  6  5  1  0
  7  8  1  0
  7 13  1  0
  8  9  2  0
  9 15  1  0
  9 10  1  0
 10 11  1  0
 12 10  2  0
 13 12  1  0
 14 13  2  0
 15 16  1  0
 16 17  2  0
 18 17  1  0
 18 19  2  0
 20 18  1  0
 21 15  1  0
 21 20  1  0
 22 21  2  0
  1 23  1  0
  2 24  1  0
  3 25  1  0
  8 26  1  0
 11 27  1  0
 11 28  1  0
 16 29  1  0
 17 30  1  0
 20 31  1  0
M  ISO  7  23  14  24  14  25  14  26  14  29  14  30  14  31   9
M  END
>  <minimizedAffinity>  (1) 
-6.27217722

>  <minimizedRMSD>  (1) 
1.94549155

$$$$
