
     RDKit          3D

 43 46  0  0  1  0  0  0  0  0999 V2000
   48.3920   33.6560   41.1430 C   0  0  2  0  0  0  0  0  0  0  0  0
   48.7860   34.8750   41.7950 C   0  0  0  0  0  0  0  0  0  0  0  0
   50.1570   34.6260   42.4490 C   0  0  0  0  0  0  0  0  0  0  0  0
   50.5820   33.2180   42.0780 C   0  0  0  0  0  0  0  0  0  0  0  0
   49.2830   32.5690   41.7850 C   0  0  1  0  0  0  0  0  0  0  0  0
   48.5910   33.5090   39.6800 C   0  0  0  0  0  0  0  0  0  0  0  0
   48.2820   34.5880   38.8540 C   0  0  0  0  0  0  0  0  0  0  0  0
   48.4650   34.4720   37.4860 C   0  0  0  0  0  0  0  0  0  0  0  0
   48.9520   33.2680   37.0280 N   0  0  0  0  0  0  0  0  0  0  0  0
   49.2370   32.2540   37.8580 C   0  0  0  0  0  0  0  0  0  0  0  0
   49.0620   32.3600   39.1840 N   0  0  0  0  0  0  0  0  0  0  0  0
   48.6570   32.0900   43.0580 C   0  0  0  0  0  0  0  0  0  0  0  0
   47.1680   32.0010   42.8800 C   0  0  0  0  0  0  0  0  0  0  0  0
   46.6300   32.4700   44.2210 C   0  0  0  0  0  0  0  0  0  0  0  0
   46.7990   31.7690   45.3820 N   0  0  0  0  0  0  0  0  0  0  0  0
   46.2880   32.1950   46.5440 C   0  0  0  0  0  0  0  0  0  0  0  0
   45.5820   33.3350   46.6460 N   0  0  0  0  0  0  0  0  0  0  0  0
   45.3780   34.0740   45.5450 C   0  0  0  0  0  0  0  0  0  0  0  0
   44.6600   35.2710   45.5860 C   0  0  0  0  0  0  0  0  0  0  0  0
   44.4570   36.0390   44.4610 C   0  0  0  0  0  0  0  0  0  0  0  0
   44.9680   35.6400   43.2240 C   0  0  0  0  0  0  0  0  0  0  0  0
   45.6800   34.4370   43.2260 C   0  0  0  0  0  0  0  0  0  0  0  0
   45.8950   33.6530   44.3350 C   0  0  0  0  0  0  0  0  0  0  0  0
   47.3008   33.6056   41.2726 H   0  0  0  0  0  0  0  0  0  0  0  0
   48.8634   35.6876   41.0576 H   0  0  0  0  0  0  0  0  0  0  0  0
   48.0429   35.1683   42.5512 H   0  0  0  0  0  0  0  0  0  0  0  0
   50.8917   35.3529   42.0725 H   0  0  0  0  0  0  0  0  0  0  0  0
   50.0950   34.7401   43.5413 H   0  0  0  0  0  0  0  0  0  0  0  0
   51.2366   33.2184   41.1940 H   0  0  0  0  0  0  0  0  0  0  0  0
   51.1637   32.7103   42.8615 H   0  0  0  0  0  0  0  0  0  0  0  0
   49.4072   31.7029   41.1183 H   0  0  0  0  0  0  0  0  0  0  0  0
   47.8961   35.5237   39.2847 H   0  0  0  0  0  0  0  0  0  0  0  0
   48.2330   35.2999   36.7999 H   0  0  0  0  0  0  0  0  0  0  0  0
   49.6237   31.3122   37.4415 H   0  0  0  0  0  0  0  0  0  0  0  0
   49.0561   31.0970   43.3121 H   0  0  0  0  0  0  0  0  0  0  0  0
   48.8882   32.7961   43.8692 H   0  0  0  0  0  0  0  0  0  0  0  0
   46.8279   32.6588   42.0666 H   0  0  0  0  0  0  0  0  0  0  0  0
   46.8256   30.9920   42.6066 H   0  0  0  0  0  0  0  0  0  0  0  0
   46.4517   31.5904   47.4482 H   0  0  0  0  0  0  0  0  0  0  0  0
   44.2440   35.6108   46.5459 H   0  0  0  0  0  0  0  0  0  0  0  0
   43.8865   36.9764   44.5375 H   0  0  0  0  0  0  0  0  0  0  0  0
   44.8201   36.2328   42.3093 H   0  0  0  0  0  0  0  0  0  0  0  0
   46.0994   34.0919   42.2694 H   0  0  0  0  0  0  0  0  0  0  0  0
  1  5  1  0
  1  2  1  0
  2  3  1  0
  4  3  1  0
  5  4  1  0
  5 12  1  0
  6  1  1  0
  7  6  2  0
  8  7  1  0
  9  8  2  0
  9 10  1  0
 10 11  2  0
 11  6  1  0
 13 12  1  0
 13 14  1  0
 14 23  1  0
 14 15  2  0
 15 16  1  0
 16 17  2  0
 18 19  2  0
 18 17  1  0
 20 19  1  0
 21 22  1  0
 21 20  2  0
 22 23  2  0
 23 18  1  0
  1 24  1  6
  2 25  1  0
  2 26  1  0
  3 27  1  0
  3 28  1  0
  4 29  1  0
  4 30  1  0
  5 31  1  6
  7 32  1  0
  8 33  1  0
 10 34  1  0
 12 35  1  0
 12 36  1  0
 13 37  1  0
 13 38  1  0
 16 39  1  0
 19 40  1  0
 20 41  1  0
 21 42  1  0
 22 43  1  0
M  ISO  8  24  13  25  13  26  13  27  13  28  13  29  13  30  13  31  13
M  ISO  8  32  14  33  14  34  14  35   8  36   8  37   8  38   8  39  14
M  ISO  4  40  14  41  14  42  14  43  14
M  END
>  <minimizedAffinity>  (1) 
-6.1327672

>  <minimizedRMSD>  (1) 
2.26426077

$$$$
