
     RDKit          3D

 28 30  0  0  0  0  0  0  0  0999 V2000
   44.6100   35.9300   44.3930 C   0  0  0  0  0  0  0  0  0  0  0  0
   45.2450   35.8310   43.1470 C   0  0  0  0  0  0  0  0  0  0  0  0
   46.1790   34.8010   42.9360 C   0  0  0  0  0  0  0  0  0  0  0  0
   46.4130   33.9510   43.9650 N   0  0  0  0  0  0  0  0  0  0  0  0
   45.7810   34.0720   45.1640 C   0  0  0  0  0  0  0  0  0  0  0  0
   44.8810   35.0540   45.3870 N   0  0  0  0  0  0  0  0  0  0  0  0
   46.0210   33.1870   46.2460 N   0  0  0  0  0  0  0  0  0  0  0  0
   46.9880   32.2590   46.1940 C   0  0  0  0  0  0  0  0  0  0  0  0
   47.1570   31.4320   47.2960 C   0  0  0  0  0  0  0  0  0  0  0  0
   46.3640   31.5490   48.4150 C   0  0  0  0  0  0  0  0  0  0  0  0
   46.5350   30.7050   49.5430 N   0  0  0  0  0  0  0  0  0  0  0  0
   45.4130   32.4920   48.4140 N   0  0  0  0  0  0  0  0  0  0  0  0
   45.2260   33.3120   47.3530 C   0  0  0  0  0  0  0  0  0  0  0  0
   44.3280   34.2020   47.3530 O   0  0  0  0  0  0  0  0  0  0  0  0
   48.1680   30.4320   47.2930 N   0  0  0  0  0  0  0  0  0  0  0  0
   49.1090   30.2990   48.2050 N   0  0  0  0  0  0  0  0  0  0  0  0
   49.9260   29.2820   47.9650 C   0  0  0  0  0  0  0  0  0  0  0  0
   49.4840   28.6880   46.7830 C   0  0  0  0  0  0  0  0  0  0  0  0
   48.3910   29.4420   46.4110 C   0  0  0  0  0  0  0  0  0  0  0  0
   43.8790   36.7338   44.5650 H   0  0  0  0  0  0  0  0  0  0  0  0
   45.0159   36.5489   42.3457 H   0  0  0  0  0  0  0  0  0  0  0  0
   46.6993   34.6897   41.9732 H   0  0  0  0  0  0  0  0  0  0  0  0
   47.6277   32.1564   45.3051 H   0  0  0  0  0  0  0  0  0  0  0  0
   45.9262   30.8161   50.3664 H   0  0  0  0  0  0  0  0  0  0  0  0
   47.2679   29.9813   49.5383 H   0  0  0  0  0  0  0  0  0  0  0  0
   50.7839   28.9685   48.5780 H   0  0  0  0  0  0  0  0  0  0  0  0
   49.9104   27.8162   46.2652 H   0  0  0  0  0  0  0  0  0  0  0  0
   47.7830   29.2581   45.5129 H   0  0  0  0  0  0  0  0  0  0  0  0
  1  6  2  0
  2  1  1  0
  3  2  2  0
  3  4  1  0
  4  5  2  0
  5  6  1  0
  5  7  1  0
  7 13  1  0
  8  7  1  0
  8  9  2  0
  9 10  1  0
 10 11  1  0
 12 10  2  0
 13 14  2  0
 13 12  1  0
 15  9  1  0
 15 16  1  0
 17 16  2  0
 18 17  1  0
 19 18  2  0
 19 15  1  0
  1 20  1  0
  2 21  1  0
  3 22  1  0
  8 23  1  0
 11 24  1  0
 11 25  1  0
 17 26  1  0
 18 27  1  0
 19 28  1  0
M  ISO  7  20  14  21  14  22  14  23  14  26  14  27  14  28  14
M  END
>  <minimizedAffinity>  (1) 
-5.68185234

>  <minimizedRMSD>  (1) 
0.323550135

$$$$
