
     RDKit          3D

 34 36  0  0  0  0  0  0  0  0999 V2000
   44.7390   35.8920   44.2930 C   0  0  0  0  0  0  0  0  0  0  0  0
   45.3790   35.7310   43.0570 C   0  0  0  0  0  0  0  0  0  0  0  0
   46.2630   34.6450   42.8950 C   0  0  0  0  0  0  0  0  0  0  0  0
   46.4370   33.8220   43.9560 N   0  0  0  0  0  0  0  0  0  0  0  0
   45.8080   34.0020   45.1300 C   0  0  0  0  0  0  0  0  0  0  0  0
   44.9680   35.0250   45.2980 N   0  0  0  0  0  0  0  0  0  0  0  0
   45.9710   33.1520   46.2610 N   0  0  0  0  0  0  0  0  0  0  0  0
   46.8990   32.1860   46.2510 C   0  0  0  0  0  0  0  0  0  0  0  0
   47.0140   31.3910   47.3740 C   0  0  0  0  0  0  0  0  0  0  0  0
   46.2160   31.5670   48.4780 C   0  0  0  0  0  0  0  0  0  0  0  0
   46.3430   30.7450   49.6260 N   0  0  0  0  0  0  0  0  0  0  0  0
   45.3070   32.5490   48.4330 N   0  0  0  0  0  0  0  0  0  0  0  0
   45.1680   33.3450   47.3470 C   0  0  0  0  0  0  0  0  0  0  0  0
   44.3170   34.2760   47.2850 O   0  0  0  0  0  0  0  0  0  0  0  0
   47.9890   30.3570   47.3900 N   0  0  0  0  0  0  0  0  0  0  0  0
   49.2430   30.3580   48.1630 C   0  0  0  0  0  0  0  0  0  0  0  0
   50.1100   29.2590   47.5960 C   0  0  0  0  0  0  0  0  0  0  0  0
   50.1440   29.2440   46.2240 O   0  0  0  0  0  0  0  0  0  0  0  0
   48.9370   29.1400   45.5850 C   0  0  0  0  0  0  0  0  0  0  0  0
   47.8110   29.1520   46.5970 C   0  0  0  0  0  0  0  0  0  0  0  0
   44.0449   36.7320   44.4436 H   0  0  0  0  0  0  0  0  0  0  0  0
   45.1959   36.4356   42.2324 H   0  0  0  0  0  0  0  0  0  0  0  0
   46.7902   34.4731   41.9450 H   0  0  0  0  0  0  0  0  0  0  0  0
   47.5482   32.0312   45.3766 H   0  0  0  0  0  0  0  0  0  0  0  0
   45.7312   30.8993   50.4401 H   0  0  0  0  0  0  0  0  0  0  0  0
   47.0471   29.9935   49.6460 H   0  0  0  0  0  0  0  0  0  0  0  0
   49.7491   31.3293   48.0612 H   0  0  0  0  0  0  0  0  0  0  0  0
   49.0460   30.1914   49.2323 H   0  0  0  0  0  0  0  0  0  0  0  0
   51.1357   29.3969   47.9686 H   0  0  0  0  0  0  0  0  0  0  0  0
   49.6747   28.3023   47.9203 H   0  0  0  0  0  0  0  0  0  0  0  0
   48.8158   29.9885   44.8955 H   0  0  0  0  0  0  0  0  0  0  0  0
   48.9068   28.1947   45.0233 H   0  0  0  0  0  0  0  0  0  0  0  0
   46.8381   29.1736   46.0842 H   0  0  0  0  0  0  0  0  0  0  0  0
   47.8306   28.2512   47.2280 H   0  0  0  0  0  0  0  0  0  0  0  0
  1  6  2  0
  2  1  1  0
  3  2  2  0
  3  4  1  0
  4  5  2  0
  5  6  1  0
  5  7  1  0
  7 13  1  0
  8  7  1  0
  8  9  2  0
  9 15  1  0
  9 10  1  0
 10 11  1  0
 12 10  2  0
 13 12  1  0
 14 13  2  0
 15 16  1  0
 17 16  1  0
 18 17  1  0
 19 18  1  0
 19 20  1  0
 20 15  1  0
  1 21  1  0
  2 22  1  0
  3 23  1  0
  8 24  1  0
 11 25  1  0
 11 26  1  0
 16 27  1  0
 16 28  1  0
 17 29  1  0
 17 30  1  0
 19 31  1  0
 19 32  1  0
 20 33  1  0
 20 34  1  0
M  ISO  8  21  14  22  14  23  14  24  14  27  13  28  13  29  13  30  13
M  ISO  4  31  13  32  13  33  13  34  13
M  END
>  <minimizedAffinity>  (1) 
-5.54823303

>  <minimizedRMSD>  (1) 
0.696801007

$$$$
