
     RDKit          3D

 33 35  0  0  0  0  0  0  0  0999 V2000
   44.6690   35.9580   44.4050 C   0  0  0  0  0  0  0  0  0  0  0  0
   45.2350   35.7780   43.1160 C   0  0  0  0  0  0  0  0  0  0  0  0
   46.0770   34.6820   42.8860 C   0  0  0  0  0  0  0  0  0  0  0  0
   46.3070   33.8410   43.9180 N   0  0  0  0  0  0  0  0  0  0  0  0
   45.7550   34.0310   45.1500 C   0  0  0  0  0  0  0  0  0  0  0  0
   44.9390   35.0800   45.3990 N   0  0  0  0  0  0  0  0  0  0  0  0
   45.9860   33.1600   46.2420 N   0  0  0  0  0  0  0  0  0  0  0  0
   46.9400   32.2260   46.1970 C   0  0  0  0  0  0  0  0  0  0  0  0
   47.1320   31.3990   47.2840 C   0  0  0  0  0  0  0  0  0  0  0  0
   46.3550   31.5240   48.4080 C   0  0  0  0  0  0  0  0  0  0  0  0
   46.4920   30.7080   49.5660 N   0  0  0  0  0  0  0  0  0  0  0  0
   45.4010   32.4770   48.4230 N   0  0  0  0  0  0  0  0  0  0  0  0
   45.2120   33.2960   47.3440 C   0  0  0  0  0  0  0  0  0  0  0  0
   44.3130   34.2020   47.3430 O   0  0  0  0  0  0  0  0  0  0  0  0
   48.1530   30.3950   47.2520 N   0  0  0  0  0  0  0  0  0  0  0  0
   48.2360   29.3660   46.2000 C   0  0  0  0  0  0  0  0  0  0  0  0
   49.2770   28.3930   46.6880 C   0  0  0  0  0  0  0  0  0  0  0  0
   50.2080   29.2890   47.4490 C   0  0  0  0  0  0  0  0  0  0  0  0
   49.2420   30.1950   48.1820 C   0  0  0  0  0  0  0  0  0  0  0  0
   44.0074   36.8156   44.5972 H   0  0  0  0  0  0  0  0  0  0  0  0
   45.0153   36.4904   42.3072 H   0  0  0  0  0  0  0  0  0  0  0  0
   46.5345   34.5123   41.9002 H   0  0  0  0  0  0  0  0  0  0  0  0
   47.5675   32.1173   45.3001 H   0  0  0  0  0  0  0  0  0  0  0  0
   45.8740   30.8563   50.3766 H   0  0  0  0  0  0  0  0  0  0  0  0
   47.2091   29.9692   49.5935 H   0  0  0  0  0  0  0  0  0  0  0  0
   48.5439   29.8144   45.2439 H   0  0  0  0  0  0  0  0  0  0  0  0
   47.2662   28.8785   46.0213 H   0  0  0  0  0  0  0  0  0  0  0  0
   48.8337   27.6283   47.3428 H   0  0  0  0  0  0  0  0  0  0  0  0
   49.7665   27.8259   45.8826 H   0  0  0  0  0  0  0  0  0  0  0  0
   50.8298   28.7152   48.1519 H   0  0  0  0  0  0  0  0  0  0  0  0
   50.9254   29.8274   46.8122 H   0  0  0  0  0  0  0  0  0  0  0  0
   49.7211   31.1534   48.4309 H   0  0  0  0  0  0  0  0  0  0  0  0
   48.9032   29.7607   49.1342 H   0  0  0  0  0  0  0  0  0  0  0  0
  1  6  2  0
  2  1  1  0
  3  2  2  0
  3  4  1  0
  4  5  2  0
  5  6  1  0
  5  7  1  0
  7 13  1  0
  8  7  1  0
  8  9  2  0
  9 10  1  0
 10 12  2  0
 10 11  1  0
 13 12  1  0
 14 13  2  0
 15  9  1  0
 15 19  1  0
 16 17  1  0
 16 15  1  0
 17 18  1  0
 18 19  1  0
  1 20  1  0
  2 21  1  0
  3 22  1  0
  8 23  1  0
 11 24  1  0
 11 25  1  0
 16 26  1  0
 16 27  1  0
 17 28  1  0
 17 29  1  0
 18 30  1  0
 18 31  1  0
 19 32  1  0
 19 33  1  0
M  ISO  8  20  14  21  14  22  14  23  14  26  13  27  13  28  13  29  13
M  ISO  4  30  13  31  13  32  13  33  13
M  END
>  <minimizedAffinity>  (1) 
-5.54229403

>  <minimizedRMSD>  (1) 
0.261295915

$$$$
