
     RDKit          3D

 28 30  0  0  0  0  0  0  0  0999 V2000
   44.6670   35.9270   44.3980 C   0  0  0  0  0  0  0  0  0  0  0  0
   45.2760   35.7850   43.1450 C   0  0  0  0  0  0  0  0  0  0  0  0
   46.1640   34.7160   42.9320 C   0  0  0  0  0  0  0  0  0  0  0  0
   46.3850   33.8730   43.9610 N   0  0  0  0  0  0  0  0  0  0  0  0
   45.7820   34.0350   45.1620 C   0  0  0  0  0  0  0  0  0  0  0  0
   44.9340   35.0480   45.3780 N   0  0  0  0  0  0  0  0  0  0  0  0
   45.9990   33.1580   46.2620 N   0  0  0  0  0  0  0  0  0  0  0  0
   46.9700   32.2140   46.2080 C   0  0  0  0  0  0  0  0  0  0  0  0
   47.1080   31.4050   47.3270 C   0  0  0  0  0  0  0  0  0  0  0  0
   46.3160   31.5390   48.4390 C   0  0  0  0  0  0  0  0  0  0  0  0
   46.4820   30.6950   49.5710 N   0  0  0  0  0  0  0  0  0  0  0  0
   45.3730   32.4930   48.4320 N   0  0  0  0  0  0  0  0  0  0  0  0
   45.1990   33.3060   47.3650 C   0  0  0  0  0  0  0  0  0  0  0  0
   44.3210   34.2040   47.3420 O   0  0  0  0  0  0  0  0  0  0  0  0
   48.1320   30.4190   47.2490 N   0  0  0  0  0  0  0  0  0  0  0  0
   48.1820   29.4950   46.2760 C   0  0  0  0  0  0  0  0  0  0  0  0
   49.2980   28.7090   46.5100 C   0  0  0  0  0  0  0  0  0  0  0  0
   49.9080   29.1820   47.6340 N   0  0  0  0  0  0  0  0  0  0  0  0
   49.1790   30.2310   48.0730 C   0  0  0  0  0  0  0  0  0  0  0  0
   43.9700   36.7584   44.5797 H   0  0  0  0  0  0  0  0  0  0  0  0
   45.0623   36.5008   42.3376 H   0  0  0  0  0  0  0  0  0  0  0  0
   46.6606   34.5725   41.9610 H   0  0  0  0  0  0  0  0  0  0  0  0
   47.6143   32.0954   45.3243 H   0  0  0  0  0  0  0  0  0  0  0  0
   45.8758   30.8137   50.3952 H   0  0  0  0  0  0  0  0  0  0  0  0
   47.2085   29.9649   49.5669 H   0  0  0  0  0  0  0  0  0  0  0  0
   47.4684   29.3830   45.4464 H   0  0  0  0  0  0  0  0  0  0  0  0
   49.6319   27.8571   45.8995 H   0  0  0  0  0  0  0  0  0  0  0  0
   49.4055   30.8359   48.9634 H   0  0  0  0  0  0  0  0  0  0  0  0
  1  6  2  0
  2  1  1  0
  3  2  2  0
  3  4  1  0
  4  5  2  0
  5  6  1  0
  5  7  1  0
  7 13  1  0
  8  7  1  0
  8  9  2  0
  9 10  1  0
 10 11  1  0
 12 10  2  0
 13 12  1  0
 14 13  2  0
 15  9  1  0
 15 19  1  0
 16 17  2  0
 16 15  1  0
 17 18  1  0
 18 19  2  0
  1 20  1  0
  2 21  1  0
  3 22  1  0
  8 23  1  0
 11 24  1  0
 11 25  1  0
 16 26  1  0
 17 27  1  0
 19 28  1  0
M  ISO  7  20  14  21  14  22  14  23  14  26  14  27  14  28  14
M  END
>  <minimizedAffinity>  (1) 
-5.50031376

>  <minimizedRMSD>  (1) 
0.413212091

$$$$
