
     RDKit          3D

 28 30  0  0  0  0  0  0  0  0999 V2000
   44.6350   35.9460   44.3970 C   0  0  0  0  0  0  0  0  0  0  0  0
   45.1740   35.7820   43.1060 C   0  0  0  0  0  0  0  0  0  0  0  0
   46.0010   34.6880   42.8570 C   0  0  0  0  0  0  0  0  0  0  0  0
   46.2410   33.8360   43.8820 N   0  0  0  0  0  0  0  0  0  0  0  0
   45.7170   34.0070   45.1130 C   0  0  0  0  0  0  0  0  0  0  0  0
   44.9250   35.0510   45.3640 N   0  0  0  0  0  0  0  0  0  0  0  0
   45.9600   33.1210   46.2000 N   0  0  0  0  0  0  0  0  0  0  0  0
   46.8820   32.1490   46.0890 C   0  0  0  0  0  0  0  0  0  0  0  0
   47.0650   31.3230   47.1880 C   0  0  0  0  0  0  0  0  0  0  0  0
   46.3410   31.4830   48.3420 C   0  0  0  0  0  0  0  0  0  0  0  0
   46.5370   30.6290   49.4630 N   0  0  0  0  0  0  0  0  0  0  0  0
   45.4360   32.4690   48.3920 N   0  0  0  0  0  0  0  0  0  0  0  0
   45.2290   33.2970   47.3370 C   0  0  0  0  0  0  0  0  0  0  0  0
   44.3840   34.2310   47.3600 O   0  0  0  0  0  0  0  0  0  0  0  0
   48.0730   30.2520   47.0820 C   0  0  0  0  0  0  0  0  0  0  0  0
   47.4880   28.9140   46.5380 C   0  0  0  0  0  0  0  0  0  0  0  0
   48.5490   29.7080   45.8090 C   0  0  0  0  0  0  0  0  0  0  0  0
   43.9793   36.8016   44.6162 H   0  0  0  0  0  0  0  0  0  0  0  0
   44.9463   36.5045   42.3084 H   0  0  0  0  0  0  0  0  0  0  0  0
   46.4430   34.5225   41.8634 H   0  0  0  0  0  0  0  0  0  0  0  0
   47.4660   32.0146   45.1665 H   0  0  0  0  0  0  0  0  0  0  0  0
   45.9819   30.7678   50.3194 H   0  0  0  0  0  0  0  0  0  0  0  0
   47.2340   29.8720   49.4181 H   0  0  0  0  0  0  0  0  0  0  0  0
   48.6290   30.6338   47.9509 H   0  0  0  0  0  0  0  0  0  0  0  0
   47.7391   27.9578   47.0204 H   0  0  0  0  0  0  0  0  0  0  0  0
   46.4881   28.5199   46.3038 H   0  0  0  0  0  0  0  0  0  0  0  0
   49.5716   29.3087   45.7397 H   0  0  0  0  0  0  0  0  0  0  0  0
   48.6257   30.1162   44.7904 H   0  0  0  0  0  0  0  0  0  0  0  0
  1  6  2  0
  2  1  1  0
  3  2  2  0
  3  4  1  0
  4  5  2  0
  5  6  1  0
  5  7  1  0
  7 13  1  0
  8  7  1  0
  8  9  2  0
  9 10  1  0
 10 12  2  0
 10 11  1  0
 13 14  2  0
 13 12  1  0
 15  9  1  0
 16 15  1  0
 17 16  1  0
 17 15  1  0
  1 18  1  0
  2 19  1  0
  3 20  1  0
  8 21  1  0
 11 22  1  0
 11 23  1  0
 15 24  1  0
 16 25  1  0
 16 26  1  0
 17 27  1  0
 17 28  1  0
M  ISO  8  18  14  19  14  20  14  21  14  24  13  25  13  26  13  27  13
M  ISO  1  28  13
M  END
>  <minimizedAffinity>  (1) 
-5.36180449

>  <minimizedRMSD>  (1) 
0.665107191

$$$$
