
     RDKit          3D

 36 38  0  0  1  0  0  0  0  0999 V2000
   47.7430   34.8860   41.4010 C   0  0  2  0  0  0  0  0  0  0  0  0
   48.9170   35.6610   41.7090 C   0  0  0  0  0  0  0  0  0  0  0  0
   49.9010   34.7420   42.4580 C   0  0  0  0  0  0  0  0  0  0  0  0
   49.2660   33.3660   42.5310 C   0  0  0  0  0  0  0  0  0  0  0  0
   47.8320   33.6640   42.3680 C   0  0  1  0  0  0  0  0  0  0  0  0
   47.5770   34.3050   40.0680 C   0  0  0  0  0  0  0  0  0  0  0  0
   48.4370   34.7150   39.0350 C   0  0  0  0  0  0  0  0  0  0  0  0
   48.3060   34.1740   37.7660 C   0  0  0  0  0  0  0  0  0  0  0  0
   47.3180   33.2470   37.6010 N   0  0  0  0  0  0  0  0  0  0  0  0
   46.5040   32.8680   38.6040 C   0  0  0  0  0  0  0  0  0  0  0  0
   46.6410   33.4020   39.8340 N   0  0  0  0  0  0  0  0  0  0  0  0
   47.2290   34.0690   43.6770 C   0  0  0  0  0  0  0  0  0  0  0  0
   47.0880   32.9080   44.5900 C   0  0  0  0  0  0  0  0  0  0  0  0
   46.2250   33.1190   45.7720 C   0  0  0  0  0  0  0  0  0  0  0  0
   46.3170   32.2390   46.8220 C   0  0  0  0  0  0  0  0  0  0  0  0
   45.4140   32.6650   47.7790 C   0  0  0  0  0  0  0  0  0  0  0  0
   44.8000   33.7660   47.3140 N   0  0  0  0  0  0  0  0  0  0  0  0
   45.3110   34.0030   46.1180 N   0  0  0  0  0  0  0  0  0  0  0  0
   46.9056   35.5941   41.4864 H   0  0  0  0  0  0  0  0  0  0  0  0
   49.3789   36.0268   40.7801 H   0  0  0  0  0  0  0  0  0  0  0  0
   48.6533   36.5304   42.3292 H   0  0  0  0  0  0  0  0  0  0  0  0
   50.8550   34.6880   41.9130 H   0  0  0  0  0  0  0  0  0  0  0  0
   50.1062   35.1304   43.4665 H   0  0  0  0  0  0  0  0  0  0  0  0
   49.6311   32.7169   41.7215 H   0  0  0  0  0  0  0  0  0  0  0  0
   49.4975   32.8264   43.4612 H   0  0  0  0  0  0  0  0  0  0  0  0
   47.2989   32.7799   41.9884 H   0  0  0  0  0  0  0  0  0  0  0  0
   49.2153   35.4665   39.2340 H   0  0  0  0  0  0  0  0  0  0  0  0
   48.9627   34.4753   36.9366 H   0  0  0  0  0  0  0  0  0  0  0  0
   45.7216   32.1173   38.4185 H   0  0  0  0  0  0  0  0  0  0  0  0
   47.8761   34.8212   44.1518 H   0  0  0  0  0  0  0  0  0  0  0  0
   46.2277   34.4816   43.4842 H   0  0  0  0  0  0  0  0  0  0  0  0
   46.6683   32.0723   44.0107 H   0  0  0  0  0  0  0  0  0  0  0  0
   48.0959   32.7163   44.9868 H   0  0  0  0  0  0  0  0  0  0  0  0
   46.9806   31.3643   46.8890 H   0  0  0  0  0  0  0  0  0  0  0  0
   45.2303   32.1857   48.7519 H   0  0  0  0  0  0  0  0  0  0  0  0
   44.0743   34.3167   47.7946 H   0  0  0  0  0  0  0  0  0  0  0  0
  1  2  1  0
  1  5  1  0
  2  3  1  0
  3  4  1  0
  5  4  1  0
  5 12  1  0
  6  1  1  0
  7  6  2  0
  8  7  1  0
  9  8  2  0
  9 10  1  0
 10 11  2  0
 11  6  1  0
 12 13  1  0
 13 14  1  0
 14 18  2  0
 14 15  1  0
 15 16  2  0
 17 16  1  0
 18 17  1  0
  1 19  1  1
  2 20  1  0
  2 21  1  0
  3 22  1  0
  3 23  1  0
  4 24  1  0
  4 25  1  0
  5 26  1  6
  7 27  1  0
  8 28  1  0
 10 29  1  0
 12 30  1  0
 12 31  1  0
 13 32  1  0
 13 33  1  0
 15 34  1  0
 16 35  1  0
 17 36  1  0
M  ISO  8  19  13  20  13  21  13  22  13  23  13  24  13  25  13  26  13
M  ISO  8  27  14  28  14  29  14  30   8  31   8  32   8  33   8  34  14
M  ISO  2  35  14  36   9
M  END
>  <minimizedAffinity>  (1) 
-5.76065445

>  <minimizedRMSD>  (1) 
2.75219035

$$$$
