
     RDKit          3D

 23 24  0  0  0  0  0  0  0  0999 V2000
   44.5860   35.8940   44.3980 C   0  0  0  0  0  0  0  0  0  0  0  0
   45.2100   35.8010   43.1440 C   0  0  0  0  0  0  0  0  0  0  0  0
   46.1390   34.7700   42.9410 C   0  0  0  0  0  0  0  0  0  0  0  0
   46.3870   33.9200   43.9650 N   0  0  0  0  0  0  0  0  0  0  0  0
   45.7680   34.0400   45.1590 C   0  0  0  0  0  0  0  0  0  0  0  0
   44.8740   35.0160   45.3780 N   0  0  0  0  0  0  0  0  0  0  0  0
   46.0130   33.1580   46.2490 N   0  0  0  0  0  0  0  0  0  0  0  0
   46.9790   32.2150   46.1670 C   0  0  0  0  0  0  0  0  0  0  0  0
   47.1410   31.3990   47.2870 C   0  0  0  0  0  0  0  0  0  0  0  0
   46.3750   31.5280   48.4210 C   0  0  0  0  0  0  0  0  0  0  0  0
   46.5840   30.6730   49.5280 N   0  0  0  0  0  0  0  0  0  0  0  0
   45.4310   32.4900   48.4310 N   0  0  0  0  0  0  0  0  0  0  0  0
   45.2400   33.3030   47.3640 C   0  0  0  0  0  0  0  0  0  0  0  0
   44.3610   34.2030   47.3660 O   0  0  0  0  0  0  0  0  0  0  0  0
   48.1670   30.4230   47.1590 N   0  0  0  0  0  0  0  0  0  0  0  0
   43.8532   36.6933   44.5825 H   0  0  0  0  0  0  0  0  0  0  0  0
   44.9767   36.5172   42.3424 H   0  0  0  0  0  0  0  0  0  0  0  0
   46.6526   34.6551   41.9751 H   0  0  0  0  0  0  0  0  0  0  0  0
   47.6019   32.0980   45.2679 H   0  0  0  0  0  0  0  0  0  0  0  0
   46.0061   30.7757   50.3744 H   0  0  0  0  0  0  0  0  0  0  0  0
   47.3142   29.9476   49.4879 H   0  0  0  0  0  0  0  0  0  0  0  0
   48.3605   29.7743   47.9353 H   0  0  0  0  0  0  0  0  0  0  0  0
   48.7168   30.3647   46.2900 H   0  0  0  0  0  0  0  0  0  0  0  0
  1  6  2  0
  2  1  1  0
  3  2  2  0
  3  4  1  0
  4  5  2  0
  5  6  1  0
  5  7  1  0
  7 13  1  0
  8  7  1  0
  8  9  2  0
  9 10  1  0
 10 12  2  0
 10 11  1  0
 13 14  2  0
 13 12  1  0
 15  9  1  0
  1 16  1  0
  2 17  1  0
  3 18  1  0
  8 19  1  0
 11 20  1  0
 11 21  1  0
 15 22  1  0
 15 23  1  0
M  ISO  4  16  14  17  14  18  14  19  14
M  END
>  <minimizedAffinity>  (1) 
-5.35289097

>  <minimizedRMSD>  (1) 
0.13619107

$$$$
