
     RDKit          3D

 27 28  0  0  0  0  0  0  0  0999 V2000
   44.5840   35.9290   44.4030 C   0  0  0  0  0  0  0  0  0  0  0  0
   45.1740   35.8170   43.1370 C   0  0  0  0  0  0  0  0  0  0  0  0
   46.0710   34.7730   42.9190 C   0  0  0  0  0  0  0  0  0  0  0  0
   46.3350   33.9140   43.9340 N   0  0  0  0  0  0  0  0  0  0  0  0
   45.7570   34.0400   45.1400 C   0  0  0  0  0  0  0  0  0  0  0  0
   44.8840   35.0440   45.3730 N   0  0  0  0  0  0  0  0  0  0  0  0
   45.9950   33.1690   46.2370 N   0  0  0  0  0  0  0  0  0  0  0  0
   46.9570   32.2360   46.1510 C   0  0  0  0  0  0  0  0  0  0  0  0
   47.1590   31.4070   47.2400 C   0  0  0  0  0  0  0  0  0  0  0  0
   46.3940   31.5330   48.3880 C   0  0  0  0  0  0  0  0  0  0  0  0
   46.5720   30.6960   49.5370 N   0  0  0  0  0  0  0  0  0  0  0  0
   45.4480   32.4880   48.4090 N   0  0  0  0  0  0  0  0  0  0  0  0
   45.2340   33.3110   47.3500 C   0  0  0  0  0  0  0  0  0  0  0  0
   44.3490   34.2110   47.3590 O   0  0  0  0  0  0  0  0  0  0  0  0
   48.1830   30.3310   47.2940 C   0  0  0  0  0  0  0  0  0  0  0  0
   48.3640   29.6710   45.9240 C   0  0  0  0  0  0  0  0  0  0  0  0
   43.8727   36.7433   44.6055 H   0  0  0  0  0  0  0  0  0  0  0  0
   44.9357   36.5335   42.3371 H   0  0  0  0  0  0  0  0  0  0  0  0
   46.5566   34.6481   41.9399 H   0  0  0  0  0  0  0  0  0  0  0  0
   47.5667   32.1339   45.2411 H   0  0  0  0  0  0  0  0  0  0  0  0
   45.9778   30.8286   50.3678 H   0  0  0  0  0  0  0  0  0  0  0  0
   47.2942   29.9616   49.5323 H   0  0  0  0  0  0  0  0  0  0  0  0
   49.1424   30.7641   47.6134 H   0  0  0  0  0  0  0  0  0  0  0  0
   47.8468   29.5651   48.0084 H   0  0  0  0  0  0  0  0  0  0  0  0
   48.6527   28.6182   46.0594 H   0  0  0  0  0  0  0  0  0  0  0  0
   47.4185   29.7228   45.3643 H   0  0  0  0  0  0  0  0  0  0  0  0
   49.1508   30.1979   45.3643 H   0  0  0  0  0  0  0  0  0  0  0  0
  1  6  2  0
  2  1  1  0
  3  2  2  0
  3  4  1  0
  4  5  2  0
  5  6  1  0
  5  7  1  0
  7 13  1  0
  8  7  1  0
  8  9  2  0
  9 15  1  0
  9 10  1  0
 10 12  2  0
 10 11  1  0
 13 14  2  0
 13 12  1  0
 16 15  1  0
  1 17  1  0
  2 18  1  0
  3 19  1  0
  8 20  1  0
 11 21  1  0
 11 22  1  0
 15 23  1  0
 15 24  1  0
 16 25  1  0
 16 26  1  0
 16 27  1  0
M  ISO  8  17  14  18  14  19  14  20  14  23   8  24   8  25   8  26   8
M  ISO  1  27   8
M  END
>  <minimizedAffinity>  (1) 
-5.32171059

>  <minimizedRMSD>  (1) 
0.511823475

$$$$
