
     RDKit          3D

 23 24  0  0  0  0  0  0  0  0999 V2000
   44.6300   35.9230   44.3880 C   0  0  0  0  0  0  0  0  0  0  0  0
   45.2620   35.7900   43.1240 C   0  0  0  0  0  0  0  0  0  0  0  0
   46.1620   34.7390   42.9210 C   0  0  0  0  0  0  0  0  0  0  0  0
   46.3940   33.8870   43.9480 N   0  0  0  0  0  0  0  0  0  0  0  0
   45.7780   34.0310   45.1530 C   0  0  0  0  0  0  0  0  0  0  0  0
   44.9130   35.0320   45.3640 N   0  0  0  0  0  0  0  0  0  0  0  0
   46.0130   33.1450   46.2360 N   0  0  0  0  0  0  0  0  0  0  0  0
   46.9580   32.1970   46.1790 C   0  0  0  0  0  0  0  0  0  0  0  0
   47.1080   31.3860   47.2840 C   0  0  0  0  0  0  0  0  0  0  0  0
   46.3450   31.5080   48.4170 C   0  0  0  0  0  0  0  0  0  0  0  0
   46.5000   30.6740   49.5510 N   0  0  0  0  0  0  0  0  0  0  0  0
   45.4100   32.4780   48.4200 N   0  0  0  0  0  0  0  0  0  0  0  0
   45.2280   33.3010   47.3490 C   0  0  0  0  0  0  0  0  0  0  0  0
   44.3550   34.2120   47.3470 O   0  0  0  0  0  0  0  0  0  0  0  0
   48.1340   30.3500   47.2320 C   0  0  0  0  0  0  0  0  0  0  0  0
   49.0580   30.2700   48.0840 O   0  0  0  0  0  0  0  0  0  0  0  0
   43.9183   36.7416   44.5710 H   0  0  0  0  0  0  0  0  0  0  0  0
   45.0468   36.5038   42.3152 H   0  0  0  0  0  0  0  0  0  0  0  0
   46.6680   34.6078   41.9531 H   0  0  0  0  0  0  0  0  0  0  0  0
   47.5888   32.0707   45.2867 H   0  0  0  0  0  0  0  0  0  0  0  0
   45.8989   30.8100   50.3763 H   0  0  0  0  0  0  0  0  0  0  0  0
   47.2138   29.9314   49.5505 H   0  0  0  0  0  0  0  0  0  0  0  0
   48.0992   29.6110   46.4180 H   0  0  0  0  0  0  0  0  0  0  0  0
  1  6  2  0
  2  1  1  0
  3  2  2  0
  3  4  1  0
  4  5  2  0
  5  6  1  0
  5  7  1  0
  7 13  1  0
  8  7  1  0
  8  9  2  0
  9 10  1  0
 10 12  2  0
 10 11  1  0
 13 12  1  0
 14 13  2  0
 15  9  1  0
 15 16  2  0
  1 17  1  0
  2 18  1  0
  3 19  1  0
  8 20  1  0
 11 21  1  0
 11 22  1  0
 15 23  1  0
M  ISO  5  17  14  18  14  19  14  20  14  23   6
M  END
>  <minimizedAffinity>  (1) 
-5.25430202

>  <minimizedRMSD>  (1) 
0.172665685

$$$$
