
     RDKit          3D

 44 47  0  0  1  0  0  0  0  0999 V2000
   44.5430   35.8370   44.3480 C   0  0  0  0  0  0  0  0  0  0  0  0
   44.8710   35.5510   43.0160 C   0  0  0  0  0  0  0  0  0  0  0  0
   45.5310   34.3600   42.7220 C   0  0  0  0  0  0  0  0  0  0  0  0
   45.8300   33.5260   43.7410 N   0  0  0  0  0  0  0  0  0  0  0  0
   45.5030   33.8210   45.0270 C   0  0  0  0  0  0  0  0  0  0  0  0
   44.8670   34.9680   45.3210 N   0  0  0  0  0  0  0  0  0  0  0  0
   45.7930   32.9570   46.1190 N   0  0  0  0  0  0  0  0  0  0  0  0
   46.5710   31.8850   45.9420 C   0  0  0  0  0  0  0  0  0  0  0  0
   46.7990   31.0750   47.0430 C   0  0  0  0  0  0  0  0  0  0  0  0
   46.2590   31.3510   48.2610 C   0  0  0  0  0  0  0  0  0  0  0  0
   46.4820   30.5530   49.4100 N   0  0  0  0  0  0  0  0  0  0  0  0
   45.4720   32.4560   48.3940 N   0  0  0  0  0  0  0  0  0  0  0  0
   45.2380   33.2610   47.3230 C   0  0  0  0  0  0  0  0  0  0  0  0
   44.5140   34.2950   47.4060 O   0  0  0  0  0  0  0  0  0  0  0  0
   47.6260   29.8410   46.9820 C   0  0  1  0  0  0  0  0  0  0  0  0
   48.9570   29.9980   47.6210 C   0  0  0  0  0  0  0  0  0  0  0  0
   46.8250   28.7250   47.6290 C   0  0  0  0  0  0  0  0  0  0  0  0
   45.8530   28.1940   46.6060 C   0  0  0  0  0  0  0  0  0  0  0  0
   45.6900   28.3710   45.2580 C   0  0  0  0  0  0  0  0  0  0  0  0
   44.6470   27.6390   44.8340 N   0  0  0  0  0  0  0  0  0  0  0  0
   44.0980   26.9660   45.8760 C   0  0  0  0  0  0  0  0  0  0  0  0
   43.0210   26.1090   45.8930 C   0  0  0  0  0  0  0  0  0  0  0  0
   42.6600   25.5440   47.1200 C   0  0  0  0  0  0  0  0  0  0  0  0
   43.3880   25.8700   48.2340 C   0  0  0  0  0  0  0  0  0  0  0  0
   44.4620   26.7340   48.1820 C   0  0  0  0  0  0  0  0  0  0  0  0
   44.8570   27.3180   46.9780 C   0  0  0  0  0  0  0  0  0  0  0  0
   44.0205   36.7724   44.5973 H   0  0  0  0  0  0  0  0  0  0  0  0
   44.6109   36.2572   42.2137 H   0  0  0  0  0  0  0  0  0  0  0  0
   45.8016   34.1055   41.6866 H   0  0  0  0  0  0  0  0  0  0  0  0
   47.0129   31.6547   44.9613 H   0  0  0  0  0  0  0  0  0  0  0  0
   46.0471   30.8098   50.3077 H   0  0  0  0  0  0  0  0  0  0  0  0
   47.0791   29.7160   49.3478 H   0  0  0  0  0  0  0  0  0  0  0  0
   47.8455   29.6057   45.9301 H   0  0  0  0  0  0  0  0  0  0  0  0
   48.8424   29.9845   48.7149 H   0  0  0  0  0  0  0  0  0  0  0  0
   49.6125   29.1710   47.3107 H   0  0  0  0  0  0  0  0  0  0  0  0
   49.4021   30.9549   47.3107 H   0  0  0  0  0  0  0  0  0  0  0  0
   47.5011   27.9205   47.9540 H   0  0  0  0  0  0  0  0  0  0  0  0
   46.2841   29.1040   48.5087 H   0  0  0  0  0  0  0  0  0  0  0  0
   46.3162   29.0131   44.6212 H   0  0  0  0  0  0  0  0  0  0  0  0
   44.3130   27.5950   43.8607 H   0  0  0  0  0  0  0  0  0  0  0  0
   42.4638   25.8767   44.9734 H   0  0  0  0  0  0  0  0  0  0  0  0
   41.8083   24.8514   47.1896 H   0  0  0  0  0  0  0  0  0  0  0  0
   43.1068   25.4283   49.2014 H   0  0  0  0  0  0  0  0  0  0  0  0
   45.0155   26.9661   49.1038 H   0  0  0  0  0  0  0  0  0  0  0  0
  1  6  2  0
  2  1  1  0
  3  2  2  0
  3  4  1  0
  4  5  2  0
  5  6  1  0
  5  7  1  0
  7 13  1  0
  8  7  1  0
  8  9  2  0
  9 10  1  0
 10 12  2  0
 10 11  1  0
 13 14  2  0
 13 12  1  0
 15  9  1  0
 15 16  1  0
 15 17  1  0
 18 26  1  0
 18 17  1  0
 19 18  2  0
 20 19  1  0
 20 21  1  0
 21 22  2  0
 21 26  1  0
 22 23  1  0
 23 24  2  0
 25 24  1  0
 26 25  2  0
  1 27  1  0
  2 28  1  0
  3 29  1  0
  8 30  1  0
 11 31  1  0
 11 32  1  0
 15 33  1  6
 16 34  1  0
 16 35  1  0
 16 36  1  0
 17 37  1  0
 17 38  1  0
 19 39  1  0
 20 40  1  0
 22 41  1  0
 23 42  1  0
 24 43  1  0
 25 44  1  0
M  ISO  8  27  14  28  14  29  14  30  14  33   8  34   8  35   8  36   8
M  ISO  8  37   8  38   8  39  14  40   9  41  14  42  14  43  14  44  14
M  END
>  <minimizedAffinity>  (1) 
-6.21310806

>  <minimizedRMSD>  (1) 
1.90813839

$$$$
