
     RDKit          3D

 41 43  0  0  1  0  0  0  0  0999 V2000
   44.6710   35.9780   44.3140 C   0  0  0  0  0  0  0  0  0  0  0  0
   45.2730   35.7910   43.0570 C   0  0  0  0  0  0  0  0  0  0  0  0
   46.1110   34.7010   42.8640 C   0  0  0  0  0  0  0  0  0  0  0  0
   46.3020   33.8710   43.9110 N   0  0  0  0  0  0  0  0  0  0  0  0
   45.7190   34.0600   45.1130 C   0  0  0  0  0  0  0  0  0  0  0  0
   44.9040   35.1140   45.3130 N   0  0  0  0  0  0  0  0  0  0  0  0
   45.9200   33.2030   46.2320 N   0  0  0  0  0  0  0  0  0  0  0  0
   46.8340   32.2320   46.1810 C   0  0  0  0  0  0  0  0  0  0  0  0
   46.9930   31.4460   47.3020 C   0  0  0  0  0  0  0  0  0  0  0  0
   46.2560   31.6380   48.4280 C   0  0  0  0  0  0  0  0  0  0  0  0
   46.4060   30.8570   49.5990 N   0  0  0  0  0  0  0  0  0  0  0  0
   45.3290   32.6410   48.4440 N   0  0  0  0  0  0  0  0  0  0  0  0
   45.1610   33.4260   47.3390 C   0  0  0  0  0  0  0  0  0  0  0  0
   44.3210   34.3620   47.3070 O   0  0  0  0  0  0  0  0  0  0  0  0
   47.9620   30.3260   47.3760 C   0  0  1  0  0  0  0  0  0  0  0  0
   48.9560   30.4750   48.4770 C   0  0  0  0  0  0  0  0  0  0  0  0
   47.1970   29.0370   47.4940 C   0  0  0  0  0  0  0  0  0  0  0  0
   46.2590   28.7880   46.4470 N   0  0  0  0  0  0  0  0  0  0  0  0
   44.9630   28.7110   46.8820 C   0  0  0  0  0  0  0  0  0  0  0  0
   43.8810   28.4650   46.0630 C   0  0  0  0  0  0  0  0  0  0  0  0
   44.0990   28.2840   44.7240 C   0  0  0  0  0  0  0  0  0  0  0  0
   43.0250   28.0270   43.8300 N   0  0  0  0  0  0  0  0  0  0  0  0
   45.3520   28.3580   44.2930 N   0  0  0  0  0  0  0  0  0  0  0  0
   46.3700   28.5990   45.1260 C   0  0  0  0  0  0  0  0  0  0  0  0
   47.5490   28.6660   44.6990 O   0  0  0  0  0  0  0  0  0  0  0  0
   44.0051   36.8379   44.4789 H   0  0  0  0  0  0  0  0  0  0  0  0
   45.0824   36.4992   42.2372 H   0  0  0  0  0  0  0  0  0  0  0  0
   46.6003   34.5209   41.8954 H   0  0  0  0  0  0  0  0  0  0  0  0
   47.4385   32.0650   45.2773 H   0  0  0  0  0  0  0  0  0  0  0  0
   45.8194   31.0477   50.4239 H   0  0  0  0  0  0  0  0  0  0  0  0
   47.1018   30.0980   49.6262 H   0  0  0  0  0  0  0  0  0  0  0  0
   48.5588   30.3285   46.4520 H   0  0  0  0  0  0  0  0  0  0  0  0
   48.4430   30.3981   49.4470 H   0  0  0  0  0  0  0  0  0  0  0  0
   49.7124   29.6802   48.3982 H   0  0  0  0  0  0  0  0  0  0  0  0
   49.4461   31.4566   48.3982 H   0  0  0  0  0  0  0  0  0  0  0  0
   47.9227   28.2104   47.5042 H   0  0  0  0  0  0  0  0  0  0  0  0
   46.6073   29.1160   48.4192 H   0  0  0  0  0  0  0  0  0  0  0  0
   44.7722   28.8549   47.9557 H   0  0  0  0  0  0  0  0  0  0  0  0
   42.8633   28.4153   46.4776 H   0  0  0  0  0  0  0  0  0  0  0  0
   43.2114   27.8938   42.8258 H   0  0  0  0  0  0  0  0  0  0  0  0
   42.0600   27.9739   44.1861 H   0  0  0  0  0  0  0  0  0  0  0  0
  1  6  2  0
  2  1  1  0
  3  2  2  0
  3  4  1  0
  4  5  2  0
  5  6  1  0
  5  7  1  0
  7 13  1  0
  8  7  1  0
  8  9  2  0
  9 15  1  0
  9 10  1  0
 10 12  2  0
 10 11  1  0
 13 12  1  0
 14 13  2  0
 15 17  1  0
 15 16  1  0
 18 19  1  0
 18 17  1  0
 20 19  2  0
 21 20  1  0
 22 21  1  0
 23 21  2  0
 23 24  1  0
 24 18  1  0
 25 24  2  0
  1 26  1  0
  2 27  1  0
  3 28  1  0
  8 29  1  0
 11 30  1  0
 11 31  1  0
 15 32  1  6
 16 33  1  0
 16 34  1  0
 16 35  1  0
 17 36  1  0
 17 37  1  0
 19 38  1  0
 20 39  1  0
 22 40  1  0
 22 41  1  0
M  ISO  8  26  14  27  14  28  14  29  14  32   8  33   8  34   8  35   8
M  ISO  4  36   8  37   8  38  14  39  14
M  END
>  <minimizedAffinity>  (1) 
-5.84753895

>  <minimizedRMSD>  (1) 
0.804565728

$$$$
