
     RDKit          3D

 43 45  0  0  1  0  0  0  0  0999 V2000
   44.6340   35.9570   44.3880 C   0  0  0  0  0  0  0  0  0  0  0  0
   45.1810   35.7820   43.1090 C   0  0  0  0  0  0  0  0  0  0  0  0
   46.0140   34.6790   42.8710 C   0  0  0  0  0  0  0  0  0  0  0  0
   46.2410   33.8400   43.9040 N   0  0  0  0  0  0  0  0  0  0  0  0
   45.7000   34.0300   45.1310 C   0  0  0  0  0  0  0  0  0  0  0  0
   44.8980   35.0880   45.3690 N   0  0  0  0  0  0  0  0  0  0  0  0
   45.9400   33.1610   46.2320 N   0  0  0  0  0  0  0  0  0  0  0  0
   46.8480   32.1920   46.1540 C   0  0  0  0  0  0  0  0  0  0  0  0
   47.0370   31.3890   47.2580 C   0  0  0  0  0  0  0  0  0  0  0  0
   46.3250   31.5650   48.4010 C   0  0  0  0  0  0  0  0  0  0  0  0
   46.5060   30.7680   49.5560 N   0  0  0  0  0  0  0  0  0  0  0  0
   45.4010   32.5650   48.4500 N   0  0  0  0  0  0  0  0  0  0  0  0
   45.2090   33.3650   47.3600 C   0  0  0  0  0  0  0  0  0  0  0  0
   44.3600   34.3040   47.3690 O   0  0  0  0  0  0  0  0  0  0  0  0
   48.0130   30.2740   47.2660 C   0  0  1  0  0  0  0  0  0  0  0  0
   49.0470   30.4170   48.3250 C   0  0  0  0  0  0  0  0  0  0  0  0
   47.2510   28.9860   47.4640 C   0  0  0  0  0  0  0  0  0  0  0  0
   44.0830   28.3800   44.6580 C   0  0  0  0  0  0  0  0  0  0  0  0
   45.3710   28.4530   44.1950 C   0  0  0  0  0  0  0  0  0  0  0  0
   46.3560   28.6480   45.1350 C   0  0  0  0  0  0  0  0  0  0  0  0
   46.1640   28.7780   46.4980 C   0  0  0  0  0  0  0  0  0  0  0  0
   44.8170   28.6880   46.8650 C   0  0  0  0  0  0  0  0  0  0  0  0
   43.7770   28.4940   45.9820 C   0  0  0  0  0  0  0  0  0  0  0  0
   42.7520   28.1310   43.5270 S   0  0  0  0  0  0  0  0  0  0  0  0
   42.1210   29.4920   43.3200 O   0  0  0  0  0  0  0  0  0  0  0  0
   41.7130   27.2390   44.0960 O   0  0  0  0  0  0  0  0  0  0  0  0
   43.9802   36.8191   44.5865 H   0  0  0  0  0  0  0  0  0  0  0  0
   44.9602   36.4989   42.3044 H   0  0  0  0  0  0  0  0  0  0  0  0
   46.4642   34.5046   41.8826 H   0  0  0  0  0  0  0  0  0  0  0  0
   47.4314   32.0361   45.2346 H   0  0  0  0  0  0  0  0  0  0  0  0
   45.9387   30.9443   50.3974 H   0  0  0  0  0  0  0  0  0  0  0  0
   47.2051   30.0115   49.5554 H   0  0  0  0  0  0  0  0  0  0  0  0
   48.5494   30.2793   46.3057 H   0  0  0  0  0  0  0  0  0  0  0  0
   48.5703   30.3511   49.3142 H   0  0  0  0  0  0  0  0  0  0  0  0
   49.7908   29.6132   48.2221 H   0  0  0  0  0  0  0  0  0  0  0  0
   49.5447   31.3925   48.2221 H   0  0  0  0  0  0  0  0  0  0  0  0
   47.9585   28.1486   47.3736 H   0  0  0  0  0  0  0  0  0  0  0  0
   46.7850   29.0427   48.4588 H   0  0  0  0  0  0  0  0  0  0  0  0
   45.6054   28.3602   43.1243 H   0  0  0  0  0  0  0  0  0  0  0  0
   47.3916   28.7058   44.7687 H   0  0  0  0  0  0  0  0  0  0  0  0
   44.5708   28.7784   47.9333 H   0  0  0  0  0  0  0  0  0  0  0  0
   42.7362   28.4332   46.3329 H   0  0  0  0  0  0  0  0  0  0  0  0
   43.2234   27.5617   42.3735 H   0  0  0  0  0  0  0  0  0  0  0  0
  1  6  2  0
  2  1  1  0
  3  2  2  0
  3  4  1  0
  4  5  2  0
  5  6  1  0
  5  7  1  0
  7 13  1  0
  8  7  1  0
  8  9  2  0
  9 15  1  0
  9 10  1  0
 10 12  2  0
 10 11  1  0
 13 14  2  0
 13 12  1  0
 15 17  1  0
 15 16  1  0
 18 23  2  0
 19 18  1  0
 19 20  2  0
 20 21  1  0
 21 22  2  0
 21 17  1  0
 23 22  1  0
 24 26  2  0
 24 18  1  0
 25 24  2  0
  1 27  1  0
  2 28  1  0
  3 29  1  0
  8 30  1  0
 11 31  1  0
 11 32  1  0
 15 33  1  6
 16 34  1  0
 16 35  1  0
 16 36  1  0
 17 37  1  0
 17 38  1  0
 19 39  1  0
 20 40  1  0
 22 41  1  0
 23 42  1  0
 24 43  1  0
M  ISO  8  27  14  28  14  29  14  30  14  33   8  34   8  35   8  36   8
M  ISO  7  37   8  38   8  39  14  40  14  41  14  42  14  43  11
M  END
>  <minimizedAffinity>  (1) 
-5.8166666

>  <minimizedRMSD>  (1) 
0.992406368

$$$$
