
     RDKit          3D

 43 45  0  0  1  0  0  0  0  0999 V2000
   44.6160   35.9650   44.3930 C   0  0  0  0  0  0  0  0  0  0  0  0
   45.1910   35.8130   43.1230 C   0  0  0  0  0  0  0  0  0  0  0  0
   46.0570   34.7380   42.8920 C   0  0  0  0  0  0  0  0  0  0  0  0
   46.2960   33.8910   43.9200 N   0  0  0  0  0  0  0  0  0  0  0  0
   45.7330   34.0520   45.1400 C   0  0  0  0  0  0  0  0  0  0  0  0
   44.8980   35.0820   45.3730 N   0  0  0  0  0  0  0  0  0  0  0  0
   45.9720   33.1730   46.2330 N   0  0  0  0  0  0  0  0  0  0  0  0
   46.9180   32.2250   46.1460 C   0  0  0  0  0  0  0  0  0  0  0  0
   47.0900   31.4090   47.2440 C   0  0  0  0  0  0  0  0  0  0  0  0
   46.3390   31.5480   48.3810 C   0  0  0  0  0  0  0  0  0  0  0  0
   46.5050   30.7340   49.5260 N   0  0  0  0  0  0  0  0  0  0  0  0
   45.3890   32.5260   48.4250 N   0  0  0  0  0  0  0  0  0  0  0  0
   45.2050   33.3420   47.3460 C   0  0  0  0  0  0  0  0  0  0  0  0
   44.3390   34.2590   47.3430 O   0  0  0  0  0  0  0  0  0  0  0  0
   48.0710   30.3040   47.2850 C   0  0  1  0  0  0  0  0  0  0  0  0
   48.9710   30.3560   48.4630 C   0  0  0  0  0  0  0  0  0  0  0  0
   47.3210   28.9960   47.2270 C   0  0  0  0  0  0  0  0  0  0  0  0
   46.5620   28.7480   46.0580 N   0  0  0  0  0  0  0  0  0  0  0  0
   45.2180   28.6650   46.2190 C   0  0  0  0  0  0  0  0  0  0  0  0
   44.2860   28.4180   45.2330 C   0  0  0  0  0  0  0  0  0  0  0  0
   42.8390   28.3420   45.4920 C   0  0  0  0  0  0  0  0  0  0  0  0
   44.7380   28.2360   43.9560 C   0  0  0  0  0  0  0  0  0  0  0  0
   44.0110   28.0050   42.9640 O   0  0  0  0  0  0  0  0  0  0  0  0
   46.0610   28.3130   43.7680 N   0  0  0  0  0  0  0  0  0  0  0  0
   46.9010   28.5560   44.7730 C   0  0  0  0  0  0  0  0  0  0  0  0
   48.1290   28.6170   44.5190 O   0  0  0  0  0  0  0  0  0  0  0  0
   43.9342   36.8053   44.5903 H   0  0  0  0  0  0  0  0  0  0  0  0
   44.9645   36.5290   42.3192 H   0  0  0  0  0  0  0  0  0  0  0  0
   46.5270   34.5869   41.9090 H   0  0  0  0  0  0  0  0  0  0  0  0
   47.5289   32.1044   45.2392 H   0  0  0  0  0  0  0  0  0  0  0  0
   45.9114   30.8833   50.3544 H   0  0  0  0  0  0  0  0  0  0  0  0
   47.2194   29.9921   49.5312 H   0  0  0  0  0  0  0  0  0  0  0  0
   48.7343   30.4049   46.4133 H   0  0  0  0  0  0  0  0  0  0  0  0
   48.3712   30.3213   49.3845 H   0  0  0  0  0  0  0  0  0  0  0  0
   49.6564   29.4960   48.4390 H   0  0  0  0  0  0  0  0  0  0  0  0
   49.5528   31.2893   48.4390 H   0  0  0  0  0  0  0  0  0  0  0  0
   48.0578   28.1850   47.3239 H   0  0  0  0  0  0  0  0  0  0  0  0
   46.5850   29.0491   48.0428 H   0  0  0  0  0  0  0  0  0  0  0  0
   44.8323   28.8093   47.2390 H   0  0  0  0  0  0  0  0  0  0  0  0
   42.6608   28.3326   46.5774 H   0  0  0  0  0  0  0  0  0  0  0  0
   42.3403   29.2152   45.0461 H   0  0  0  0  0  0  0  0  0  0  0  0
   42.4345   27.4214   45.0461 H   0  0  0  0  0  0  0  0  0  0  0  0
   46.4403   28.1806   42.8196 H   0  0  0  0  0  0  0  0  0  0  0  0
  1  6  2  0
  2  1  1  0
  3  2  2  0
  3  4  1  0
  4  5  2  0
  5  6  1  0
  5  7  1  0
  7 13  1  0
  8  7  1  0
  8  9  2  0
  9 15  1  0
  9 10  1  0
 10 12  2  0
 10 11  1  0
 13 12  1  0
 14 13  2  0
 15 16  1  0
 17 15  1  0
 18 19  1  0
 18 17  1  0
 20 21  1  0
 20 19  2  0
 22 20  1  0
 23 22  2  0
 24 22  1  0
 24 25  1  0
 25 18  1  0
 26 25  2  0
  1 27  1  0
  2 28  1  0
  3 29  1  0
  8 30  1  0
 11 31  1  0
 11 32  1  0
 15 33  1  6
 16 34  1  0
 16 35  1  0
 16 36  1  0
 17 37  1  0
 17 38  1  0
 19 39  1  0
 21 40  1  0
 21 41  1  0
 21 42  1  0
 24 43  1  0
M  ISO  8  27  14  28  14  29  14  30  14  33   8  34   8  35   8  36   8
M  ISO  7  37   8  38   8  39  14  40   8  41   8  42   8  43   9
M  END
>  <minimizedAffinity>  (1) 
-5.80828667

>  <minimizedRMSD>  (1) 
0.793841243

$$$$
