
     RDKit          3D

 40 42  0  0  1  0  0  0  0  0999 V2000
   44.6430   35.9740   44.3080 C   0  0  0  0  0  0  0  0  0  0  0  0
   45.2440   35.7900   43.0520 C   0  0  0  0  0  0  0  0  0  0  0  0
   46.0990   34.6930   42.8530 C   0  0  0  0  0  0  0  0  0  0  0  0
   46.3010   33.8590   43.9000 N   0  0  0  0  0  0  0  0  0  0  0  0
   45.7160   34.0510   45.1020 C   0  0  0  0  0  0  0  0  0  0  0  0
   44.8980   35.0970   45.2980 N   0  0  0  0  0  0  0  0  0  0  0  0
   45.9130   33.1860   46.2120 N   0  0  0  0  0  0  0  0  0  0  0  0
   46.7890   32.1870   46.1550 C   0  0  0  0  0  0  0  0  0  0  0  0
   46.9260   31.3790   47.2800 C   0  0  0  0  0  0  0  0  0  0  0  0
   46.1920   31.5980   48.4010 C   0  0  0  0  0  0  0  0  0  0  0  0
   46.3130   30.7920   49.5580 N   0  0  0  0  0  0  0  0  0  0  0  0
   45.3120   32.6240   48.4210 N   0  0  0  0  0  0  0  0  0  0  0  0
   45.1690   33.4240   47.3250 C   0  0  0  0  0  0  0  0  0  0  0  0
   44.3580   34.3880   47.3170 O   0  0  0  0  0  0  0  0  0  0  0  0
   47.8670   30.2370   47.3230 C   0  0  1  0  0  0  0  0  0  0  0  0
   48.9110   30.3880   48.3740 C   0  0  0  0  0  0  0  0  0  0  0  0
   47.0540   28.9850   47.5500 C   0  0  0  0  0  0  0  0  0  0  0  0
   46.0760   28.7510   46.4710 C   0  0  0  0  0  0  0  0  0  0  0  0
   46.4070   28.5840   45.1400 C   0  0  0  0  0  0  0  0  0  0  0  0
   45.4830   28.3650   44.1370 C   0  0  0  0  0  0  0  0  0  0  0  0
   44.1550   28.3100   44.4690 C   0  0  0  0  0  0  0  0  0  0  0  0
   43.7740   28.4710   45.7860 C   0  0  0  0  0  0  0  0  0  0  0  0
   44.7140   28.6890   46.7700 C   0  0  0  0  0  0  0  0  0  0  0  0
   43.9701   36.8267   44.4816 H   0  0  0  0  0  0  0  0  0  0  0  0
   45.0474   36.4973   42.2328 H   0  0  0  0  0  0  0  0  0  0  0  0
   46.5862   34.5183   41.8824 H   0  0  0  0  0  0  0  0  0  0  0  0
   47.3855   32.0053   45.2488 H   0  0  0  0  0  0  0  0  0  0  0  0
   45.7369   30.9926   50.3879 H   0  0  0  0  0  0  0  0  0  0  0  0
   46.9772   30.0048   49.5701 H   0  0  0  0  0  0  0  0  0  0  0  0
   48.4125   30.1866   46.3691 H   0  0  0  0  0  0  0  0  0  0  0  0
   48.4436   30.3204   49.3675 H   0  0  0  0  0  0  0  0  0  0  0  0
   49.6589   29.5887   48.2655 H   0  0  0  0  0  0  0  0  0  0  0  0
   49.4017   31.3665   48.2655 H   0  0  0  0  0  0  0  0  0  0  0  0
   47.7368   28.1241   47.6018 H   0  0  0  0  0  0  0  0  0  0  0  0
   46.4958   29.1112   48.4894 H   0  0  0  0  0  0  0  0  0  0  0  0
   47.4705   28.6281   44.8624 H   0  0  0  0  0  0  0  0  0  0  0  0
   45.8067   28.2374   43.0935 H   0  0  0  0  0  0  0  0  0  0  0  0
   43.3968   28.1386   43.6907 H   0  0  0  0  0  0  0  0  0  0  0  0
   42.7079   28.4248   46.0531 H   0  0  0  0  0  0  0  0  0  0  0  0
   44.3844   28.8167   47.8117 H   0  0  0  0  0  0  0  0  0  0  0  0
  1  6  2  0
  2  1  1  0
  3  2  2  0
  3  4  1  0
  4  5  2  0
  5  6  1  0
  5  7  1  0
  7 13  1  0
  8  7  1  0
  8  9  2  0
  9 15  1  0
  9 10  1  0
 10 12  2  0
 10 11  1  0
 13 12  1  0
 14 13  2  0
 15 17  1  0
 15 16  1  0
 18 23  1  0
 18 17  1  0
 19 18  2  0
 20 21  2  0
 20 19  1  0
 21 22  1  0
 22 23  2  0
  1 24  1  0
  2 25  1  0
  3 26  1  0
  8 27  1  0
 11 28  1  0
 11 29  1  0
 15 30  1  6
 16 31  1  0
 16 32  1  0
 16 33  1  0
 17 34  1  0
 17 35  1  0
 19 36  1  0
 20 37  1  0
 21 38  1  0
 22 39  1  0
 23 40  1  0
M  ISO  8  24  14  25  14  26  14  27  14  30   8  31   8  32   8  33   8
M  ISO  7  34   8  35   8  36  14  37  14  38  14  39  14  40  14
M  END
>  <minimizedAffinity>  (1) 
-5.73877287

>  <minimizedRMSD>  (1) 
0.553972781

$$$$
