
     RDKit          3D

 40 42  0  0  1  0  0  0  0  0999 V2000
   47.6810   34.8150   41.5830 C   0  0  2  0  0  0  0  0  0  0  0  0
   48.8380   35.6210   41.8820 C   0  0  0  0  0  0  0  0  0  0  0  0
   49.8820   34.7040   42.5420 C   0  0  0  0  0  0  0  0  0  0  0  0
   49.3290   33.2970   42.5260 C   0  0  0  0  0  0  0  0  0  0  0  0
   47.8610   33.5530   42.4530 C   0  0  1  0  0  0  0  0  0  0  0  0
   47.4830   34.2980   40.2040 C   0  0  0  0  0  0  0  0  0  0  0  0
   48.3770   34.7060   39.2100 C   0  0  0  0  0  0  0  0  0  0  0  0
   48.2180   34.2380   37.9160 C   0  0  0  0  0  0  0  0  0  0  0  0
   47.1710   33.3910   37.6990 N   0  0  0  0  0  0  0  0  0  0  0  0
   46.3240   33.0130   38.6720 C   0  0  0  0  0  0  0  0  0  0  0  0
   46.4760   33.4660   39.9310 N   0  0  0  0  0  0  0  0  0  0  0  0
   47.3160   33.7880   43.8240 C   0  0  0  0  0  0  0  0  0  0  0  0
   46.3070   32.7330   44.1430 C   0  0  0  0  0  0  0  0  0  0  0  0
   46.4650   32.3150   45.5650 N   0  0  0  0  0  0  0  0  0  0  0  0
   45.8490   32.9960   46.5500 C   0  0  0  0  0  0  0  0  0  0  0  0
   46.0200   32.5810   47.8540 C   0  0  0  0  0  0  0  0  0  0  0  0
   46.8300   31.4770   48.0050 C   0  0  0  0  0  0  0  0  0  0  0  0
   47.0640   30.9830   49.3140 N   0  0  0  0  0  0  0  0  0  0  0  0
   47.4290   30.8200   46.9940 N   0  0  0  0  0  0  0  0  0  0  0  0
   47.2550   31.2380   45.7260 C   0  0  0  0  0  0  0  0  0  0  0  0
   47.8050   30.6370   44.7850 O   0  0  0  0  0  0  0  0  0  0  0  0
   46.8207   35.4787   41.7547 H   0  0  0  0  0  0  0  0  0  0  0  0
   49.2469   36.0496   40.9551 H   0  0  0  0  0  0  0  0  0  0  0  0
   48.5699   36.4496   42.5540 H   0  0  0  0  0  0  0  0  0  0  0  0
   50.8255   34.7427   41.9778 H   0  0  0  0  0  0  0  0  0  0  0  0
   50.0842   35.0282   43.5735 H   0  0  0  0  0  0  0  0  0  0  0  0
   49.6829   32.7365   41.6482 H   0  0  0  0  0  0  0  0  0  0  0  0
   49.6346   32.6860   43.3882 H   0  0  0  0  0  0  0  0  0  0  0  0
   47.3242   32.6948   42.0226 H   0  0  0  0  0  0  0  0  0  0  0  0
   49.2005   35.3934   39.4535 H   0  0  0  0  0  0  0  0  0  0  0  0
   48.9005   34.5339   37.1057 H   0  0  0  0  0  0  0  0  0  0  0  0
   45.4976   32.3260   38.4372 H   0  0  0  0  0  0  0  0  0  0  0  0
   48.1352   33.7464   44.5570 H   0  0  0  0  0  0  0  0  0  0  0  0
   46.8388   34.7782   43.8656 H   0  0  0  0  0  0  0  0  0  0  0  0
   45.2945   33.1339   43.9881 H   0  0  0  0  0  0  0  0  0  0  0  0
   46.4599   31.8653   43.4844 H   0  0  0  0  0  0  0  0  0  0  0  0
   45.2202   33.8683   46.3185 H   0  0  0  0  0  0  0  0  0  0  0  0
   45.5470   33.0912   48.7061 H   0  0  0  0  0  0  0  0  0  0  0  0
   47.6659   30.1589   49.4535 H   0  0  0  0  0  0  0  0  0  0  0  0
   46.6320   31.4484   50.1250 H   0  0  0  0  0  0  0  0  0  0  0  0
  1  2  1  0
  1  5  1  0
  2  3  1  0
  4  3  1  0
  5  4  1  0
  5 12  1  0
  6  1  1  0
  7  6  2  0
  8  7  1  0
  9  8  2  0
  9 10  1  0
 10 11  2  0
 11  6  1  0
 12 13  1  0
 13 14  1  0
 14 20  1  0
 14 15  1  0
 15 16  2  0
 16 17  1  0
 17 18  1  0
 19 17  2  0
 20 19  1  0
 21 20  2  0
  1 22  1  1
  2 23  1  0
  2 24  1  0
  3 25  1  0
  3 26  1  0
  4 27  1  0
  4 28  1  0
  5 29  1  6
  7 30  1  0
  8 31  1  0
 10 32  1  0
 12 33  1  0
 12 34  1  0
 13 35  1  0
 13 36  1  0
 15 37  1  0
 16 38  1  0
 18 39  1  0
 18 40  1  0
M  ISO  8  22  13  23  13  24  13  25  13  26  13  27  13  28  13  29  13
M  ISO  8  30  14  31  14  32  14  33   8  34   8  35   8  36   8  37  14
M  ISO  1  38  14
M  END
>  <minimizedAffinity>  (1) 
-5.66175652

>  <minimizedRMSD>  (1) 
2.60591555

$$$$
