
     RDKit          3D

 44 46  0  0  1  0  0  0  0  0999 V2000
   44.6630   35.9410   44.3190 C   0  0  0  0  0  0  0  0  0  0  0  0
   45.2790   35.7870   43.0780 C   0  0  0  0  0  0  0  0  0  0  0  0
   46.1470   34.7230   42.9060 C   0  0  0  0  0  0  0  0  0  0  0  0
   46.3670   33.8770   43.9330 N   0  0  0  0  0  0  0  0  0  0  0  0
   45.7530   34.0530   45.1290 C   0  0  0  0  0  0  0  0  0  0  0  0
   44.8890   35.0870   45.3450 N   0  0  0  0  0  0  0  0  0  0  0  0
   45.9700   33.1890   46.2350 N   0  0  0  0  0  0  0  0  0  0  0  0
   46.8950   32.2360   46.1900 C   0  0  0  0  0  0  0  0  0  0  0  0
   47.0420   31.4440   47.3300 C   0  0  0  0  0  0  0  0  0  0  0  0
   46.2910   31.6180   48.4440 C   0  0  0  0  0  0  0  0  0  0  0  0
   46.4540   30.8320   49.6020 N   0  0  0  0  0  0  0  0  0  0  0  0
   45.3510   32.6070   48.4520 N   0  0  0  0  0  0  0  0  0  0  0  0
   45.1860   33.3950   47.3510 C   0  0  0  0  0  0  0  0  0  0  0  0
   44.3240   34.3200   47.3250 O   0  0  0  0  0  0  0  0  0  0  0  0
   48.0440   30.3450   47.3740 C   0  0  1  0  0  0  0  0  0  0  0  0
   49.0230   30.5080   48.4950 C   0  0  0  0  0  0  0  0  0  0  0  0
   47.3220   29.0500   47.5200 C   0  0  0  0  0  0  0  0  0  0  0  0
   46.3270   28.7750   46.5150 N   0  0  0  0  0  0  0  0  0  0  0  0
   46.7440   27.8220   45.5350 C   0  0  0  0  0  0  0  0  0  0  0  0
   45.4930   27.2870   44.8530 C   0  0  0  0  0  0  0  0  0  0  0  0
   44.9200   26.3310   45.7830 N   0  0  0  0  0  0  0  0  0  0  0  0
   44.9130   26.8400   47.1360 C   0  0  0  0  0  0  0  0  0  0  0  0
   45.1520   28.3170   47.1980 C   0  0  0  0  0  0  0  0  0  0  0  0
   43.9714   36.7830   44.4694 H   0  0  0  0  0  0  0  0  0  0  0  0
   45.0805   36.4923   42.2575 H   0  0  0  0  0  0  0  0  0  0  0  0
   46.6525   34.5688   41.9413 H   0  0  0  0  0  0  0  0  0  0  0  0
   47.5161   32.0786   45.2959 H   0  0  0  0  0  0  0  0  0  0  0  0
   45.8598   31.0001   50.4264 H   0  0  0  0  0  0  0  0  0  0  0  0
   47.1673   30.0893   49.6241 H   0  0  0  0  0  0  0  0  0  0  0  0
   48.6215   30.3699   46.4381 H   0  0  0  0  0  0  0  0  0  0  0  0
   48.4968   30.4204   49.4570 H   0  0  0  0  0  0  0  0  0  0  0  0
   49.7932   29.7257   48.4258 H   0  0  0  0  0  0  0  0  0  0  0  0
   49.4982   31.4976   48.4258 H   0  0  0  0  0  0  0  0  0  0  0  0
   48.0673   28.2416   47.4884 H   0  0  0  0  0  0  0  0  0  0  0  0
   46.7768   29.1154   48.4731 H   0  0  0  0  0  0  0  0  0  0  0  0
   47.3970   28.3067   44.7943 H   0  0  0  0  0  0  0  0  0  0  0  0
   47.3072   27.0034   46.0069 H   0  0  0  0  0  0  0  0  0  0  0  0
   44.7834   28.1043   44.6566 H   0  0  0  0  0  0  0  0  0  0  0  0
   45.7251   26.8226   43.8832 H   0  0  0  0  0  0  0  0  0  0  0  0
   43.9514   26.1273   45.4979 H   0  0  0  0  0  0  0  0  0  0  0  0
   43.9345   26.6223   47.5890 H   0  0  0  0  0  0  0  0  0  0  0  0
   45.7317   26.3473   47.6810 H   0  0  0  0  0  0  0  0  0  0  0  0
   45.2404   28.6032   48.2564 H   0  0  0  0  0  0  0  0  0  0  0  0
   44.2990   28.7859   46.6856 H   0  0  0  0  0  0  0  0  0  0  0  0
  1  6  2  0
  2  1  1  0
  3  2  2  0
  3  4  1  0
  4  5  2  0
  5  6  1  0
  5  7  1  0
  7 13  1  0
  8  7  1  0
  8  9  2  0
  9 15  1  0
  9 10  1  0
 10 12  2  0
 10 11  1  0
 13 12  1  0
 14 13  2  0
 15 17  1  0
 15 16  1  0
 18 23  1  0
 18 17  1  0
 19 18  1  0
 20 19  1  0
 20 21  1  0
 21 22  1  0
 22 23  1  0
  1 24  1  0
  2 25  1  0
  3 26  1  0
  8 27  1  0
 11 28  1  0
 11 29  1  0
 15 30  1  6
 16 31  1  0
 16 32  1  0
 16 33  1  0
 17 34  1  0
 17 35  1  0
 19 36  1  0
 19 37  1  0
 20 38  1  0
 20 39  1  0
 21 40  1  0
 22 41  1  0
 22 42  1  0
 23 43  1  0
 23 44  1  0
M  ISO  8  24  14  25  14  26  14  27  14  30   8  31   8  32   8  33   8
M  ISO  8  34   8  35   8  36  13  37  13  38  13  39  13  40   5  41  13
M  ISO  3  42  13  43  13  44  13
M  END
>  <minimizedAffinity>  (1) 
-5.60794973

>  <minimizedRMSD>  (1) 
1.17264271

$$$$
