
     RDKit          3D

 43 45  0  0  1  0  0  0  0  0999 V2000
   44.6330   35.9140   44.3830 C   0  0  0  0  0  0  0  0  0  0  0  0
   45.2360   35.7620   43.1190 C   0  0  0  0  0  0  0  0  0  0  0  0
   46.1170   34.6960   42.9130 C   0  0  0  0  0  0  0  0  0  0  0  0
   46.3470   33.8540   43.9490 N   0  0  0  0  0  0  0  0  0  0  0  0
   45.7550   34.0180   45.1570 C   0  0  0  0  0  0  0  0  0  0  0  0
   44.9000   35.0440   45.3750 N   0  0  0  0  0  0  0  0  0  0  0  0
   45.9850   33.1520   46.2610 N   0  0  0  0  0  0  0  0  0  0  0  0
   46.9250   32.2120   46.1910 C   0  0  0  0  0  0  0  0  0  0  0  0
   47.1020   31.4080   47.3070 C   0  0  0  0  0  0  0  0  0  0  0  0
   46.3560   31.5580   48.4340 C   0  0  0  0  0  0  0  0  0  0  0  0
   46.5310   30.7650   49.5910 N   0  0  0  0  0  0  0  0  0  0  0  0
   45.4040   32.5330   48.4610 N   0  0  0  0  0  0  0  0  0  0  0  0
   45.2180   33.3330   47.3700 C   0  0  0  0  0  0  0  0  0  0  0  0
   44.3500   34.2440   47.3520 O   0  0  0  0  0  0  0  0  0  0  0  0
   48.1030   30.3150   47.3430 C   0  0  1  0  0  0  0  0  0  0  0  0
   49.1010   30.4790   48.4390 C   0  0  0  0  0  0  0  0  0  0  0  0
   47.3810   29.0090   47.4910 C   0  0  0  0  0  0  0  0  0  0  0  0
   46.4030   28.7680   46.4680 N   0  0  0  0  0  0  0  0  0  0  0  0
   45.2430   28.2100   47.1750 C   0  0  0  0  0  0  0  0  0  0  0  0
   44.1020   27.9090   46.2310 C   0  0  0  0  0  0  0  0  0  0  0  0
   44.5370   27.2440   45.0870 O   0  0  0  0  0  0  0  0  0  0  0  0
   45.8260   26.7570   45.2200 C   0  0  0  0  0  0  0  0  0  0  0  0
   46.8500   27.8600   45.4510 C   0  0  0  0  0  0  0  0  0  0  0  0
   43.9394   36.7491   44.5606 H   0  0  0  0  0  0  0  0  0  0  0  0
   45.0172   36.4708   42.3068 H   0  0  0  0  0  0  0  0  0  0  0  0
   46.6080   34.5458   41.9402 H   0  0  0  0  0  0  0  0  0  0  0  0
   47.5357   32.0786   45.2859 H   0  0  0  0  0  0  0  0  0  0  0  0
   45.9370   30.9221   50.4177 H   0  0  0  0  0  0  0  0  0  0  0  0
   47.2525   30.0301   49.6074 H   0  0  0  0  0  0  0  0  0  0  0  0
   48.6704   30.3426   46.4010 H   0  0  0  0  0  0  0  0  0  0  0  0
   48.5943   30.3957   49.4118 H   0  0  0  0  0  0  0  0  0  0  0  0
   49.8680   29.6949   48.3568 H   0  0  0  0  0  0  0  0  0  0  0  0
   49.5768   31.4674   48.3568 H   0  0  0  0  0  0  0  0  0  0  0  0
   48.1227   28.1973   47.4597 H   0  0  0  0  0  0  0  0  0  0  0  0
   46.8402   29.0488   48.4480 H   0  0  0  0  0  0  0  0  0  0  0  0
   45.5456   27.2787   47.6762 H   0  0  0  0  0  0  0  0  0  0  0  0
   44.8955   28.9565   47.9043 H   0  0  0  0  0  0  0  0  0  0  0  0
   43.3667   27.2778   46.7515 H   0  0  0  0  0  0  0  0  0  0  0  0
   43.6546   28.8648   45.9208 H   0  0  0  0  0  0  0  0  0  0  0  0
   45.8545   26.0657   46.0751 H   0  0  0  0  0  0  0  0  0  0  0  0
   46.0889   26.2514   44.2791 H   0  0  0  0  0  0  0  0  0  0  0  0
   47.8022   27.4076   45.7652 H   0  0  0  0  0  0  0  0  0  0  0  0
   46.9818   28.4196   44.5132 H   0  0  0  0  0  0  0  0  0  0  0  0
  1  6  2  0
  2  1  1  0
  3  2  2  0
  3  4  1  0
  4  5  2  0
  5  6  1  0
  5  7  1  0
  7 13  1  0
  8  7  1  0
  8  9  2  0
  9 15  1  0
  9 10  1  0
 10 12  2  0
 10 11  1  0
 13 12  1  0
 14 13  2  0
 15 17  1  0
 15 16  1  0
 18 19  1  0
 18 17  1  0
 20 19  1  0
 21 22  1  0
 21 20  1  0
 22 23  1  0
 23 18  1  0
  1 24  1  0
  2 25  1  0
  3 26  1  0
  8 27  1  0
 11 28  1  0
 11 29  1  0
 15 30  1  6
 16 31  1  0
 16 32  1  0
 16 33  1  0
 17 34  1  0
 17 35  1  0
 19 36  1  0
 19 37  1  0
 20 38  1  0
 20 39  1  0
 22 40  1  0
 22 41  1  0
 23 42  1  0
 23 43  1  0
M  ISO  8  24  14  25  14  26  14  27  14  30   8  31   8  32   8  33   8
M  ISO  8  34   8  35   8  36  13  37  13  38  13  39  13  40  13  41  13
M  ISO  2  42  13  43  13
M  END
>  <minimizedAffinity>  (1) 
-5.59329987

>  <minimizedRMSD>  (1) 
0.364383489

$$$$
