
     RDKit          3D

 42 44  0  0  1  0  0  0  0  0999 V2000
   44.6700   35.9790   44.3050 C   0  0  0  0  0  0  0  0  0  0  0  0
   45.2480   35.7710   43.0380 C   0  0  0  0  0  0  0  0  0  0  0  0
   46.0740   34.6630   42.8430 C   0  0  0  0  0  0  0  0  0  0  0  0
   46.2760   33.8410   43.8910 N   0  0  0  0  0  0  0  0  0  0  0  0
   45.7120   34.0550   45.1070 C   0  0  0  0  0  0  0  0  0  0  0  0
   44.9120   35.1200   45.3130 N   0  0  0  0  0  0  0  0  0  0  0  0
   45.9180   33.1930   46.2200 N   0  0  0  0  0  0  0  0  0  0  0  0
   46.8220   32.2020   46.1570 C   0  0  0  0  0  0  0  0  0  0  0  0
   46.9510   31.4050   47.2780 C   0  0  0  0  0  0  0  0  0  0  0  0
   46.2110   31.5960   48.4010 C   0  0  0  0  0  0  0  0  0  0  0  0
   46.3400   30.7920   49.5600 N   0  0  0  0  0  0  0  0  0  0  0  0
   45.3050   32.6140   48.4240 N   0  0  0  0  0  0  0  0  0  0  0  0
   45.1600   33.4130   47.3280 C   0  0  0  0  0  0  0  0  0  0  0  0
   44.3310   34.3690   47.3070 O   0  0  0  0  0  0  0  0  0  0  0  0
   47.9080   30.2750   47.3260 C   0  0  1  0  0  0  0  0  0  0  0  0
   48.9390   30.4210   48.3900 C   0  0  0  0  0  0  0  0  0  0  0  0
   47.1150   29.0000   47.5360 C   0  0  0  0  0  0  0  0  0  0  0  0
   46.1660   28.8090   46.4530 N   0  0  0  0  0  0  0  0  0  0  0  0
   44.9040   28.4030   47.0420 C   0  0  0  0  0  0  0  0  0  0  0  0
   44.1660   27.6980   45.9260 C   0  0  0  0  0  0  0  0  0  0  0  0
   45.2600   27.3330   44.9290 C   0  0  0  0  0  0  0  0  0  0  0  0
   46.5380   27.6540   45.6810 C   0  0  0  0  0  0  0  0  0  0  0  0
   44.0170   36.8483   44.4722 H   0  0  0  0  0  0  0  0  0  0  0  0
   45.0513   36.4720   42.2134 H   0  0  0  0  0  0  0  0  0  0  0  0
   46.5437   34.4678   41.8676 H   0  0  0  0  0  0  0  0  0  0  0  0
   47.4304   32.0330   45.2563 H   0  0  0  0  0  0  0  0  0  0  0  0
   45.7533   30.9804   50.3854 H   0  0  0  0  0  0  0  0  0  0  0  0
   47.0205   30.0190   49.5774 H   0  0  0  0  0  0  0  0  0  0  0  0
   48.4601   30.2521   46.3749 H   0  0  0  0  0  0  0  0  0  0  0  0
   48.4590   30.3530   49.3774 H   0  0  0  0  0  0  0  0  0  0  0  0
   49.6858   29.6196   48.2894 H   0  0  0  0  0  0  0  0  0  0  0  0
   49.4339   31.3982   48.2894 H   0  0  0  0  0  0  0  0  0  0  0  0
   47.8059   28.1446   47.5674 H   0  0  0  0  0  0  0  0  0  0  0  0
   46.5631   29.0755   48.4845 H   0  0  0  0  0  0  0  0  0  0  0  0
   45.0729   27.7195   47.8872 H   0  0  0  0  0  0  0  0  0  0  0  0
   44.3372   29.2578   47.4395 H   0  0  0  0  0  0  0  0  0  0  0  0
   43.6620   26.7949   46.3007 H   0  0  0  0  0  0  0  0  0  0  0  0
   43.3792   28.3235   45.4791 H   0  0  0  0  0  0  0  0  0  0  0  0
   45.1780   27.9388   44.0145 H   0  0  0  0  0  0  0  0  0  0  0  0
   45.2075   26.2858   44.5963 H   0  0  0  0  0  0  0  0  0  0  0  0
   46.8353   26.8195   46.3330 H   0  0  0  0  0  0  0  0  0  0  0  0
   47.4015   27.8277   45.0221 H   0  0  0  0  0  0  0  0  0  0  0  0
  1  6  2  0
  2  1  1  0
  3  2  2  0
  3  4  1  0
  4  5  2  0
  5  6  1  0
  5  7  1  0
  7 13  1  0
  8  7  1  0
  8  9  2  0
  9 15  1  0
  9 10  1  0
 10 12  2  0
 10 11  1  0
 13 12  1  0
 14 13  2  0
 15 17  1  0
 15 16  1  0
 18 19  1  0
 18 17  1  0
 20 19  1  0
 21 22  1  0
 21 20  1  0
 22 18  1  0
  1 23  1  0
  2 24  1  0
  3 25  1  0
  8 26  1  0
 11 27  1  0
 11 28  1  0
 15 29  1  6
 16 30  1  0
 16 31  1  0
 16 32  1  0
 17 33  1  0
 17 34  1  0
 19 35  1  0
 19 36  1  0
 20 37  1  0
 20 38  1  0
 21 39  1  0
 21 40  1  0
 22 41  1  0
 22 42  1  0
M  ISO  8  23  14  24  14  25  14  26  14  29   8  30   8  31   8  32   8
M  ISO  8  33   8  34   8  35  13  36  13  37  13  38  13  39  13  40  13
M  ISO  2  41  13  42  13
M  END
>  <minimizedAffinity>  (1) 
-5.49799967

>  <minimizedRMSD>  (1) 
0.490417987

$$$$
