
     RDKit          3D

 37 39  0  0  1  0  0  0  0  0999 V2000
   44.6630   35.9860   44.3230 C   0  0  0  0  0  0  0  0  0  0  0  0
   45.2470   35.7840   43.0550 C   0  0  0  0  0  0  0  0  0  0  0  0
   46.0760   34.6800   42.8530 C   0  0  0  0  0  0  0  0  0  0  0  0
   46.2800   33.8530   43.8980 N   0  0  0  0  0  0  0  0  0  0  0  0
   45.7150   34.0570   45.1140 C   0  0  0  0  0  0  0  0  0  0  0  0
   44.9140   35.1150   45.3180 N   0  0  0  0  0  0  0  0  0  0  0  0
   45.9260   33.1940   46.2240 N   0  0  0  0  0  0  0  0  0  0  0  0
   46.8450   32.2140   46.1560 C   0  0  0  0  0  0  0  0  0  0  0  0
   46.9840   31.4140   47.2850 C   0  0  0  0  0  0  0  0  0  0  0  0
   46.2400   31.6010   48.4070 C   0  0  0  0  0  0  0  0  0  0  0  0
   46.3850   30.8090   49.5680 N   0  0  0  0  0  0  0  0  0  0  0  0
   45.3220   32.6090   48.4250 N   0  0  0  0  0  0  0  0  0  0  0  0
   45.1640   33.4080   47.3310 C   0  0  0  0  0  0  0  0  0  0  0  0
   44.3230   34.3510   47.3120 O   0  0  0  0  0  0  0  0  0  0  0  0
   47.9390   30.2830   47.3300 C   0  0  1  0  0  0  0  0  0  0  0  0
   49.0070   30.4650   48.3470 C   0  0  0  0  0  0  0  0  0  0  0  0
   47.1450   29.0120   47.5840 C   0  0  0  0  0  0  0  0  0  0  0  0
   46.2170   28.7190   46.4740 C   0  0  0  0  0  0  0  0  0  0  0  0
   44.8790   28.5030   46.8150 C   0  0  0  0  0  0  0  0  0  0  0  0
   44.1920   28.2490   45.6450 C   0  0  0  0  0  0  0  0  0  0  0  0
   45.0840   28.3100   44.6490 N   0  0  0  0  0  0  0  0  0  0  0  0
   46.2850   28.5900   45.1430 N   0  0  0  0  0  0  0  0  0  0  0  0
   44.0060   36.8507   44.4977 H   0  0  0  0  0  0  0  0  0  0  0  0
   45.0509   36.4894   42.2341 H   0  0  0  0  0  0  0  0  0  0  0  0
   46.5460   34.4913   41.8766 H   0  0  0  0  0  0  0  0  0  0  0  0
   47.4546   32.0538   45.2545 H   0  0  0  0  0  0  0  0  0  0  0  0
   45.7960   30.9917   50.3930 H   0  0  0  0  0  0  0  0  0  0  0  0
   47.0797   30.0489   49.5894 H   0  0  0  0  0  0  0  0  0  0  0  0
   48.4655   30.2243   46.3660 H   0  0  0  0  0  0  0  0  0  0  0  0
   48.5708   30.3907   49.3541 H   0  0  0  0  0  0  0  0  0  0  0  0
   49.7713   29.6841   48.2199 H   0  0  0  0  0  0  0  0  0  0  0  0
   49.4695   31.4549   48.2199 H   0  0  0  0  0  0  0  0  0  0  0  0
   47.8446   28.1706   47.6957 H   0  0  0  0  0  0  0  0  0  0  0  0
   46.5518   29.1545   48.4993 H   0  0  0  0  0  0  0  0  0  0  0  0
   44.4522   28.5303   47.8285 H   0  0  0  0  0  0  0  0  0  0  0  0
   43.1169   28.0370   45.5495 H   0  0  0  0  0  0  0  0  0  0  0  0
   44.8717   28.1624   43.6520 H   0  0  0  0  0  0  0  0  0  0  0  0
  1  6  2  0
  2  1  1  0
  3  2  2  0
  3  4  1  0
  4  5  2  0
  5  6  1  0
  5  7  1  0
  7 13  1  0
  8  7  1  0
  8  9  2  0
  9 15  1  0
  9 10  1  0
 10 12  2  0
 10 11  1  0
 13 12  1  0
 14 13  2  0
 15 17  1  0
 15 16  1  0
 18 19  1  0
 18 17  1  0
 20 19  2  0
 21 22  1  0
 21 20  1  0
 22 18  2  0
  1 23  1  0
  2 24  1  0
  3 25  1  0
  8 26  1  0
 11 27  1  0
 11 28  1  0
 15 29  1  6
 16 30  1  0
 16 31  1  0
 16 32  1  0
 17 33  1  0
 17 34  1  0
 19 35  1  0
 20 36  1  0
 21 37  1  0
M  ISO  8  23  14  24  14  25  14  26  14  29   8  30   8  31   8  32   8
M  ISO  5  33   8  34   8  35  14  36  14  37   9
M  END
>  <minimizedAffinity>  (1) 
-5.49656439

>  <minimizedRMSD>  (1) 
0.459544808

$$$$
