
     RDKit          3D

 36 38  0  0  1  0  0  0  0  0999 V2000
   44.6460   35.9740   44.3490 C   0  0  0  0  0  0  0  0  0  0  0  0
   45.2510   35.8010   43.0860 C   0  0  0  0  0  0  0  0  0  0  0  0
   46.1190   34.7170   42.8800 C   0  0  0  0  0  0  0  0  0  0  0  0
   46.3280   33.8880   43.9260 N   0  0  0  0  0  0  0  0  0  0  0  0
   45.7420   34.0650   45.1330 C   0  0  0  0  0  0  0  0  0  0  0  0
   44.9050   35.1020   45.3420 N   0  0  0  0  0  0  0  0  0  0  0  0
   45.9550   33.1990   46.2420 N   0  0  0  0  0  0  0  0  0  0  0  0
   46.8920   32.2330   46.1700 C   0  0  0  0  0  0  0  0  0  0  0  0
   47.0350   31.4330   47.2930 C   0  0  0  0  0  0  0  0  0  0  0  0
   46.2850   31.5950   48.4120 C   0  0  0  0  0  0  0  0  0  0  0  0
   46.4310   30.7900   49.5670 N   0  0  0  0  0  0  0  0  0  0  0  0
   45.3490   32.5860   48.4370 N   0  0  0  0  0  0  0  0  0  0  0  0
   45.1830   33.3920   47.3470 C   0  0  0  0  0  0  0  0  0  0  0  0
   44.3330   34.3190   47.3230 O   0  0  0  0  0  0  0  0  0  0  0  0
   48.0260   30.3310   47.3330 C   0  0  1  0  0  0  0  0  0  0  0  0
   49.0390   30.4960   48.4170 C   0  0  0  0  0  0  0  0  0  0  0  0
   47.2760   29.0370   47.5300 C   0  0  0  0  0  0  0  0  0  0  0  0
   46.3680   28.7720   46.3640 C   0  0  0  0  0  0  0  0  0  0  0  0
   44.9290   28.6750   46.4850 C   0  0  0  0  0  0  0  0  0  0  0  0
   44.4350   28.3580   44.7910 S   0  0  0  0  0  0  0  0  0  0  0  0
   46.2560   28.4050   44.1760 C   0  0  0  0  0  0  0  0  0  0  0  0
   46.8470   28.6130   45.1510 N   0  0  0  0  0  0  0  0  0  0  0  0
   43.9641   36.8196   44.5221 H   0  0  0  0  0  0  0  0  0  0  0  0
   45.0444   36.5092   42.2701 H   0  0  0  0  0  0  0  0  0  0  0  0
   46.6078   34.5499   41.9088 H   0  0  0  0  0  0  0  0  0  0  0  0
   47.5086   32.0876   45.2707 H   0  0  0  0  0  0  0  0  0  0  0  0
   45.8343   30.9569   50.3898 H   0  0  0  0  0  0  0  0  0  0  0  0
   47.1339   30.0373   49.5847 H   0  0  0  0  0  0  0  0  0  0  0  0
   48.5828   30.3355   46.3843 H   0  0  0  0  0  0  0  0  0  0  0  0
   48.5445   30.4155   49.3963 H   0  0  0  0  0  0  0  0  0  0  0  0
   49.8039   29.7106   48.3267 H   0  0  0  0  0  0  0  0  0  0  0  0
   49.5151   31.4835   48.3267 H   0  0  0  0  0  0  0  0  0  0  0  0
   47.9969   28.2113   47.6222 H   0  0  0  0  0  0  0  0  0  0  0  0
   46.6682   29.1140   48.4436 H   0  0  0  0  0  0  0  0  0  0  0  0
   44.3013   28.7709   47.3832 H   0  0  0  0  0  0  0  0  0  0  0  0
   46.6406   28.2686   43.1545 H   0  0  0  0  0  0  0  0  0  0  0  0
  1  6  2  0
  2  1  1  0
  3  2  2  0
  3  4  1  0
  4  5  2  0
  5  6  1  0
  5  7  1  0
  7 13  1  0
  8  7  1  0
  8  9  2  0
  9 15  1  0
  9 10  1  0
 10 12  2  0
 10 11  1  0
 13 12  1  0
 14 13  2  0
 15 17  1  0
 15 16  1  0
 18 19  2  0
 18 17  1  0
 20 19  1  0
 21 20  1  0
 21 22  2  0
 22 18  1  0
  1 23  1  0
  2 24  1  0
  3 25  1  0
  8 26  1  0
 11 27  1  0
 11 28  1  0
 15 29  1  6
 16 30  1  0
 16 31  1  0
 16 32  1  0
 17 33  1  0
 17 34  1  0
 19 35  1  0
 21 36  1  0
M  ISO  8  23  14  24  14  25  14  26  14  29   8  30   8  31   8  32   8
M  ISO  4  33   8  34   8  35  14  36  14
M  END
>  <minimizedAffinity>  (1) 
-5.43311977

>  <minimizedRMSD>  (1) 
0.354797423

$$$$
