
     RDKit          3D

 37 39  0  0  1  0  0  0  0  0999 V2000
   44.6070   35.9090   44.3560 C   0  0  0  0  0  0  0  0  0  0  0  0
   45.2570   35.7850   43.1190 C   0  0  0  0  0  0  0  0  0  0  0  0
   46.1810   34.7630   42.9370 C   0  0  0  0  0  0  0  0  0  0  0  0
   46.4100   33.9270   43.9740 N   0  0  0  0  0  0  0  0  0  0  0  0
   45.7730   34.0570   45.1630 C   0  0  0  0  0  0  0  0  0  0  0  0
   44.8790   35.0410   45.3490 N   0  0  0  0  0  0  0  0  0  0  0  0
   45.9910   33.1770   46.2580 N   0  0  0  0  0  0  0  0  0  0  0  0
   46.9300   32.2180   46.1850 C   0  0  0  0  0  0  0  0  0  0  0  0
   47.0630   31.3990   47.2950 C   0  0  0  0  0  0  0  0  0  0  0  0
   46.2980   31.5400   48.4090 C   0  0  0  0  0  0  0  0  0  0  0  0
   46.4350   30.7170   49.5520 N   0  0  0  0  0  0  0  0  0  0  0  0
   45.3600   32.5280   48.4360 N   0  0  0  0  0  0  0  0  0  0  0  0
   45.2080   33.3470   47.3560 C   0  0  0  0  0  0  0  0  0  0  0  0
   44.3440   34.2750   47.3490 O   0  0  0  0  0  0  0  0  0  0  0  0
   48.0480   30.2910   47.3330 C   0  0  1  0  0  0  0  0  0  0  0  0
   49.0590   30.4430   48.4120 C   0  0  0  0  0  0  0  0  0  0  0  0
   47.2830   28.9950   47.4950 C   0  0  0  0  0  0  0  0  0  0  0  0
   46.5150   28.6870   46.3050 N   0  0  0  0  0  0  0  0  0  0  0  0
   45.1780   28.5650   46.2480 C   0  0  0  0  0  0  0  0  0  0  0  0
   44.8670   28.2680   44.9370 C   0  0  0  0  0  0  0  0  0  0  0  0
   46.0240   28.2270   44.2800 N   0  0  0  0  0  0  0  0  0  0  0  0
   47.0750   28.4790   45.0800 C   0  0  0  0  0  0  0  0  0  0  0  0
   43.8754   36.7150   44.5148 H   0  0  0  0  0  0  0  0  0  0  0  0
   45.0378   36.4887   42.3024 H   0  0  0  0  0  0  0  0  0  0  0  0
   46.7089   34.6385   41.9800 H   0  0  0  0  0  0  0  0  0  0  0  0
   47.5593   32.0901   45.2919 H   0  0  0  0  0  0  0  0  0  0  0  0
   45.8283   30.8674   50.3706 H   0  0  0  0  0  0  0  0  0  0  0  0
   47.1415   29.9676   49.5653 H   0  0  0  0  0  0  0  0  0  0  0  0
   48.6183   30.2990   46.3924 H   0  0  0  0  0  0  0  0  0  0  0  0
   48.5639   30.3686   49.3915 H   0  0  0  0  0  0  0  0  0  0  0  0
   49.8142   29.6483   48.3215 H   0  0  0  0  0  0  0  0  0  0  0  0
   49.5471   31.4246   48.3215 H   0  0  0  0  0  0  0  0  0  0  0  0
   47.9959   28.1787   47.6831 H   0  0  0  0  0  0  0  0  0  0  0  0
   46.5871   29.1048   48.3398 H   0  0  0  0  0  0  0  0  0  0  0  0
   44.4705   28.6794   47.0825 H   0  0  0  0  0  0  0  0  0  0  0  0
   43.8639   28.0989   44.5185 H   0  0  0  0  0  0  0  0  0  0  0  0
   48.1405   28.5101   44.8085 H   0  0  0  0  0  0  0  0  0  0  0  0
  1  6  2  0
  2  1  1  0
  3  2  2  0
  3  4  1  0
  4  5  2  0
  5  6  1  0
  5  7  1  0
  7 13  1  0
  8  7  1  0
  8  9  2  0
  9 15  1  0
  9 10  1  0
 10 12  2  0
 10 11  1  0
 13 12  1  0
 14 13  2  0
 15 17  1  0
 15 16  1  0
 18 17  1  0
 19 18  1  0
 20 19  2  0
 21 20  1  0
 21 22  2  0
 22 18  1  0
  1 23  1  0
  2 24  1  0
  3 25  1  0
  8 26  1  0
 11 27  1  0
 11 28  1  0
 15 29  1  6
 16 30  1  0
 16 31  1  0
 16 32  1  0
 17 33  1  0
 17 34  1  0
 19 35  1  0
 20 36  1  0
 22 37  1  0
M  ISO  8  23  14  24  14  25  14  26  14  29   8  30   8  31   8  32   8
M  ISO  5  33   8  34   8  35  14  36  14  37  14
M  END
>  <minimizedAffinity>  (1) 
-5.38457108

>  <minimizedRMSD>  (1) 
0.273927987

$$$$
