
     RDKit          3D

 31 32  0  0  1  0  0  0  0  0999 V2000
   44.6030   35.9100   44.4020 C   0  0  0  0  0  0  0  0  0  0  0  0
   45.2080   35.7830   43.1440 C   0  0  0  0  0  0  0  0  0  0  0  0
   46.1200   34.7390   42.9290 C   0  0  0  0  0  0  0  0  0  0  0  0
   46.3740   33.8970   43.9590 N   0  0  0  0  0  0  0  0  0  0  0  0
   45.7760   34.0380   45.1690 C   0  0  0  0  0  0  0  0  0  0  0  0
   44.8990   35.0380   45.3850 N   0  0  0  0  0  0  0  0  0  0  0  0
   46.0240   33.1600   46.2600 N   0  0  0  0  0  0  0  0  0  0  0  0
   46.9930   32.2350   46.1870 C   0  0  0  0  0  0  0  0  0  0  0  0
   47.1600   31.4150   47.2830 C   0  0  0  0  0  0  0  0  0  0  0  0
   46.3820   31.5260   48.4030 C   0  0  0  0  0  0  0  0  0  0  0  0
   46.5410   30.7050   49.5450 N   0  0  0  0  0  0  0  0  0  0  0  0
   45.4100   32.4800   48.4350 N   0  0  0  0  0  0  0  0  0  0  0  0
   45.2310   33.3020   47.3570 C   0  0  0  0  0  0  0  0  0  0  0  0
   44.3420   34.1950   47.3550 O   0  0  0  0  0  0  0  0  0  0  0  0
   48.1830   30.3460   47.3390 C   0  0  1  0  0  0  0  0  0  0  0  0
   49.0450   30.4220   48.5430 C   0  0  0  0  0  0  0  0  0  0  0  0
   47.4640   29.0090   47.2450 C   0  0  0  0  0  0  0  0  0  0  0  0
   48.5380   27.6100   47.6240 S   0  0  0  0  0  0  0  0  0  0  0  0
   43.8854   36.7230   44.5867 H   0  0  0  0  0  0  0  0  0  0  0  0
   44.9710   36.4918   42.3369 H   0  0  0  0  0  0  0  0  0  0  0  0
   46.6133   34.6083   41.9545 H   0  0  0  0  0  0  0  0  0  0  0  0
   47.6259   32.1352   45.2929 H   0  0  0  0  0  0  0  0  0  0  0  0
   45.9259   30.8332   50.3611 H   0  0  0  0  0  0  0  0  0  0  0  0
   47.2718   29.9794   49.5599 H   0  0  0  0  0  0  0  0  0  0  0  0
   48.8746   30.4717   46.4929 H   0  0  0  0  0  0  0  0  0  0  0  0
   48.4193   30.3668   49.4460 H   0  0  0  0  0  0  0  0  0  0  0  0
   49.7565   29.5831   48.5381 H   0  0  0  0  0  0  0  0  0  0  0  0
   49.5987   31.3725   48.5381 H   0  0  0  0  0  0  0  0  0  0  0  0
   46.6246   29.0105   47.9560 H   0  0  0  0  0  0  0  0  0  0  0  0
   47.1192   28.8904   46.2072 H   0  0  0  0  0  0  0  0  0  0  0  0
   48.6446   27.4711   48.9828 H   0  0  0  0  0  0  0  0  0  0  0  0
  1  6  2  0
  2  1  1  0
  3  2  2  0
  3  4  1  0
  4  5  2  0
  5  6  1  0
  5  7  1  0
  7 13  1  0
  8  7  1  0
  8  9  2  0
  9 15  1  0
  9 10  1  0
 10 12  2  0
 10 11  1  0
 13 12  1  0
 14 13  2  0
 15 16  1  0
 17 15  1  0
 17 18  1  0
  1 19  1  0
  2 20  1  0
  3 21  1  0
  8 22  1  0
 11 23  1  0
 11 24  1  0
 15 25  1  6
 16 26  1  0
 16 27  1  0
 16 28  1  0
 17 29  1  0
 17 30  1  0
 18 31  1  0
M  ISO  8  19  14  20  14  21  14  22  14  25   8  26   8  27   8  28   8
M  ISO  3  29   8  30   8  31  11
M  END
>  <minimizedAffinity>  (1) 
-5.38339949

>  <minimizedRMSD>  (1) 
0.0684518069

$$$$
