
     RDKit          3D

 32 33  0  0  1  0  0  0  0  0999 V2000
   44.6460   35.9250   44.4120 C   0  0  0  0  0  0  0  0  0  0  0  0
   45.2770   35.8050   43.1610 C   0  0  0  0  0  0  0  0  0  0  0  0
   46.1690   34.7610   42.9480 C   0  0  0  0  0  0  0  0  0  0  0  0
   46.3860   33.9070   43.9660 N   0  0  0  0  0  0  0  0  0  0  0  0
   45.7730   34.0340   45.1640 C   0  0  0  0  0  0  0  0  0  0  0  0
   44.9070   35.0390   45.3840 N   0  0  0  0  0  0  0  0  0  0  0  0
   46.0030   33.1530   46.2600 N   0  0  0  0  0  0  0  0  0  0  0  0
   46.9720   32.2310   46.1840 C   0  0  0  0  0  0  0  0  0  0  0  0
   47.1460   31.4210   47.3040 C   0  0  0  0  0  0  0  0  0  0  0  0
   46.3850   31.5480   48.4220 C   0  0  0  0  0  0  0  0  0  0  0  0
   46.5610   30.7440   49.5730 N   0  0  0  0  0  0  0  0  0  0  0  0
   45.4130   32.5010   48.4480 N   0  0  0  0  0  0  0  0  0  0  0  0
   45.2240   33.3040   47.3630 C   0  0  0  0  0  0  0  0  0  0  0  0
   44.3260   34.2040   47.3510 O   0  0  0  0  0  0  0  0  0  0  0  0
   48.1760   30.3540   47.3420 C   0  0  1  0  0  0  0  0  0  0  0  0
   49.0980   30.4790   48.5060 C   0  0  0  0  0  0  0  0  0  0  0  0
   47.4660   29.0240   47.3770 C   0  0  0  0  0  0  0  0  0  0  0  0
   46.9720   28.6350   46.0740 N   0  0  0  0  0  0  0  0  0  0  0  0
   43.9375   36.7467   44.5934 H   0  0  0  0  0  0  0  0  0  0  0  0
   45.0669   36.5293   42.3602 H   0  0  0  0  0  0  0  0  0  0  0  0
   46.6798   34.6367   41.9818 H   0  0  0  0  0  0  0  0  0  0  0  0
   47.5967   32.1195   45.2855 H   0  0  0  0  0  0  0  0  0  0  0  0
   45.9558   30.8819   50.3950 H   0  0  0  0  0  0  0  0  0  0  0  0
   47.2943   30.0209   49.5889 H   0  0  0  0  0  0  0  0  0  0  0  0
   48.8056   30.4448   46.4446 H   0  0  0  0  0  0  0  0  0  0  0  0
   48.5221   30.4009   49.4399 H   0  0  0  0  0  0  0  0  0  0  0  0
   49.8469   29.6742   48.4686 H   0  0  0  0  0  0  0  0  0  0  0  0
   49.6056   31.4542   48.4686 H   0  0  0  0  0  0  0  0  0  0  0  0
   48.1687   28.2564   47.7333 H   0  0  0  0  0  0  0  0  0  0  0  0
   46.6023   29.1193   48.0515 H   0  0  0  0  0  0  0  0  0  0  0  0
   46.1676   28.0016   46.1868 H   0  0  0  0  0  0  0  0  0  0  0  0
   46.6780   29.4740   45.5538 H   0  0  0  0  0  0  0  0  0  0  0  0
  1  6  2  0
  2  1  1  0
  3  2  2  0
  3  4  1  0
  4  5  2  0
  5  6  1  0
  5  7  1  0
  7 13  1  0
  8  7  1  0
  8  9  2  0
  9 15  1  0
  9 10  1  0
 10 12  2  0
 10 11  1  0
 13 12  1  0
 14 13  2  0
 15 17  1  0
 15 16  1  0
 18 17  1  0
  1 19  1  0
  2 20  1  0
  3 21  1  0
  8 22  1  0
 11 23  1  0
 11 24  1  0
 15 25  1  6
 16 26  1  0
 16 27  1  0
 16 28  1  0
 17 29  1  0
 17 30  1  0
 18 31  1  0
 18 32  1  0
M  ISO  8  19  14  20  14  21  14  22  14  25   8  26   8  27   8  28   8
M  ISO  4  29   8  30   8  31   5  32   5
M  END
>  <minimizedAffinity>  (1) 
-5.3452754

>  <minimizedRMSD>  (1) 
0.0908698589

$$$$
