
     RDKit          3D

 45 47  0  0  1  0  0  0  0  0999 V2000
   47.7990   34.8780   41.4450 C   0  0  2  0  0  0  0  0  0  0  0  0
   49.0100   35.6060   41.7470 C   0  0  0  0  0  0  0  0  0  0  0  0
   49.9740   34.6300   42.4400 C   0  0  0  0  0  0  0  0  0  0  0  0
   49.3280   33.2680   42.4480 C   0  0  0  0  0  0  0  0  0  0  0  0
   47.8810   33.6190   42.3370 C   0  0  1  0  0  0  0  0  0  0  0  0
   47.5940   34.3450   40.0720 C   0  0  0  0  0  0  0  0  0  0  0  0
   48.4620   34.7540   39.0610 C   0  0  0  0  0  0  0  0  0  0  0  0
   48.3030   34.2720   37.7730 C   0  0  0  0  0  0  0  0  0  0  0  0
   47.2710   33.4000   37.5800 N   0  0  0  0  0  0  0  0  0  0  0  0
   46.4460   33.0180   38.5690 C   0  0  0  0  0  0  0  0  0  0  0  0
   46.6050   33.4910   39.8190 N   0  0  0  0  0  0  0  0  0  0  0  0
   47.3350   33.9270   43.6970 C   0  0  0  0  0  0  0  0  0  0  0  0
   46.2600   32.9430   44.0180 C   0  0  0  0  0  0  0  0  0  0  0  0
   46.7070   32.1570   45.2770 C   0  0  0  0  0  0  0  0  0  0  0  0
   46.5090   33.0660   46.4670 C   0  0  0  0  0  0  0  0  0  0  0  0
   47.2340   32.3960   47.6200 C   0  0  0  0  0  0  0  0  0  0  0  0
   46.6950   31.0270   47.8630 C   0  0  0  0  0  0  0  0  0  0  0  0
   45.6820   30.5430   46.8800 C   0  0  0  0  0  0  0  0  0  0  0  0
   46.0260   30.8510   45.4350 C   0  0  0  0  0  0  0  0  0  0  0  0
   46.9842   35.6020   41.5932 H   0  0  0  0  0  0  0  0  0  0  0  0
   49.4621   35.9849   40.8185 H   0  0  0  0  0  0  0  0  0  0  0  0
   48.7936   36.4655   42.3985 H   0  0  0  0  0  0  0  0  0  0  0  0
   50.9250   34.5893   41.8887 H   0  0  0  0  0  0  0  0  0  0  0  0
   50.1816   34.9617   43.4681 H   0  0  0  0  0  0  0  0  0  0  0  0
   49.6603   32.6615   41.5926 H   0  0  0  0  0  0  0  0  0  0  0  0
   49.5741   32.6621   43.3325 H   0  0  0  0  0  0  0  0  0  0  0  0
   47.2987   32.7897   41.9091 H   0  0  0  0  0  0  0  0  0  0  0  0
   49.2743   35.4606   39.2868 H   0  0  0  0  0  0  0  0  0  0  0  0
   48.9701   34.5744   36.9523 H   0  0  0  0  0  0  0  0  0  0  0  0
   45.6313   32.3106   38.3548 H   0  0  0  0  0  0  0  0  0  0  0  0
   48.1392   33.8526   44.4438 H   0  0  0  0  0  0  0  0  0  0  0  0
   46.9244   34.9474   43.7125 H   0  0  0  0  0  0  0  0  0  0  0  0
   45.3163   33.4707   44.2204 H   0  0  0  0  0  0  0  0  0  0  0  0
   46.0967   32.2587   43.1724 H   0  0  0  0  0  0  0  0  0  0  0  0
   47.7677   31.8829   45.1778 H   0  0  0  0  0  0  0  0  0  0  0  0
   46.9398   34.0583   46.2677 H   0  0  0  0  0  0  0  0  0  0  0  0
   45.4425   33.2164   46.6903 H   0  0  0  0  0  0  0  0  0  0  0  0
   48.3049   32.3241   47.3791 H   0  0  0  0  0  0  0  0  0  0  0  0
   47.0844   32.9992   48.5276 H   0  0  0  0  0  0  0  0  0  0  0  0
   47.5410   30.3241   47.8494 H   0  0  0  0  0  0  0  0  0  0  0  0
   46.1718   31.0795   48.8292 H   0  0  0  0  0  0  0  0  0  0  0  0
   45.5890   29.4523   46.9882 H   0  0  0  0  0  0  0  0  0  0  0  0
   44.7443   31.0731   47.1032 H   0  0  0  0  0  0  0  0  0  0  0  0
   45.0965   30.8650   44.8470 H   0  0  0  0  0  0  0  0  0  0  0  0
   46.7169   30.0705   45.0836 H   0  0  0  0  0  0  0  0  0  0  0  0
  1  2  1  0
  1  5  1  0
  2  3  1  0
  3  4  1  0
  5  4  1  0
  5 12  1  0
  6  1  1  0
  7  6  2  0
  8  7  1  0
  9  8  2  0
  9 10  1  0
 10 11  2  0
 11  6  1  0
 12 13  1  0
 13 14  1  0
 14 19  1  0
 14 15  1  0
 15 16  1  0
 16 17  1  0
 18 17  1  0
 19 18  1  0
  1 20  1  1
  2 21  1  0
  2 22  1  0
  3 23  1  0
  3 24  1  0
  4 25  1  0
  4 26  1  0
  5 27  1  6
  7 28  1  0
  8 29  1  0
 10 30  1  0
 12 31  1  0
 12 32  1  0
 13 33  1  0
 13 34  1  0
 14 35  1  0
 15 36  1  0
 15 37  1  0
 16 38  1  0
 16 39  1  0
 17 40  1  0
 17 41  1  0
 18 42  1  0
 18 43  1  0
 19 44  1  0
 19 45  1  0
M  ISO  8  20  13  21  13  22  13  23  13  24  13  25  13  26  13  27  13
M  ISO  8  28  14  29  14  30  14  31   8  32   8  33   8  34   8  35  13
M  ISO  8  36  13  37  13  38  13  39  13  40  13  41  13  42  13  43  13
M  ISO  2  44  13  45  13
M  END
>  <minimizedAffinity>  (1) 
-5.29635668

>  <minimizedRMSD>  (1) 
2.46094012

$$$$
