
     RDKit          3D

 30 32  0  0  0  0  0  0  0  0999 V2000
   46.5180   34.6360   42.1270 C   0  0  0  0  0  0  0  0  0  0  0  0
   47.7430   35.2210   41.9380 C   0  0  0  0  0  0  0  0  0  0  0  0
   48.4640   35.0760   40.7460 C   0  0  0  0  0  0  0  0  0  0  0  0
   47.9060   34.3030   39.7160 C   0  0  0  0  0  0  0  0  0  0  0  0
   46.6600   33.7060   39.9040 C   0  0  0  0  0  0  0  0  0  0  0  0
   46.0010   33.8880   41.1020 C   0  0  0  0  0  0  0  0  0  0  0  0
   44.4490   36.0260   44.9490 C   0  0  0  0  0  0  0  0  0  0  0  0
   45.0360   35.9250   43.6870 C   0  0  0  0  0  0  0  0  0  0  0  0
   45.8530   34.8470   43.3990 C   0  0  0  0  0  0  0  0  0  0  0  0
   46.0600   33.9090   44.3700 N   0  0  0  0  0  0  0  0  0  0  0  0
   45.4730   34.0320   45.5960 C   0  0  0  0  0  0  0  0  0  0  0  0
   44.6840   35.0680   45.8810 N   0  0  0  0  0  0  0  0  0  0  0  0
   44.7310   33.2680   41.2700 N   0  0  0  0  0  0  0  0  0  0  0  0
   44.4810   32.0220   41.7550 C   0  0  0  0  0  0  0  0  0  0  0  0
   43.1860   31.5830   41.8500 C   0  0  0  0  0  0  0  0  0  0  0  0
   42.1230   32.3670   41.4670 C   0  0  0  0  0  0  0  0  0  0  0  0
   40.9470   31.9200   41.5720 O   0  0  0  0  0  0  0  0  0  0  0  0
   42.4170   33.6100   40.9860 N   0  0  0  0  0  0  0  0  0  0  0  0
   43.6760   34.0400   40.8930 C   0  0  0  0  0  0  0  0  0  0  0  0
   43.7930   35.2140   40.4290 O   0  0  0  0  0  0  0  0  0  0  0  0
   48.1745   35.8248   42.7499 H   0  0  0  0  0  0  0  0  0  0  0  0
   49.4452   35.5570   40.6200 H   0  0  0  0  0  0  0  0  0  0  0  0
   48.4474   34.1692   38.7678 H   0  0  0  0  0  0  0  0  0  0  0  0
   46.2082   33.0974   39.1068 H   0  0  0  0  0  0  0  0  0  0  0  0
   43.7977   36.8797   45.1876 H   0  0  0  0  0  0  0  0  0  0  0  0
   44.8501   36.6976   42.9264 H   0  0  0  0  0  0  0  0  0  0  0  0
   45.6540   33.2634   46.3618 H   0  0  0  0  0  0  0  0  0  0  0  0
   45.3113   31.3720   42.0684 H   0  0  0  0  0  0  0  0  0  0  0  0
   42.9914   30.5746   42.2439 H   0  0  0  0  0  0  0  0  0  0  0  0
   41.6498   34.2294   40.6883 H   0  0  0  0  0  0  0  0  0  0  0  0
  1  9  1  0
  2  1  2  0
  3  2  1  0
  4  5  1  0
  4  3  2  0
  5  6  2  0
  6 13  1  0
  6  1  1  0
  7 12  2  0
  8  7  1  0
  9  8  2  0
  9 10  1  0
 10 11  2  0
 11 12  1  0
 13 14  1  0
 14 15  2  0
 16 17  2  0
 16 15  1  0
 18 16  1  0
 19 18  1  0
 19 13  1  0
 20 19  2  0
  2 21  1  0
  3 22  1  0
  4 23  1  0
  5 24  1  0
  7 25  1  0
  8 26  1  0
 11 27  1  0
 14 28  1  0
 15 29  1  0
 18 30  1  0
M  ISO  8  21  14  22  14  23  14  24  14  25  14  26  14  27  14  28  14
M  ISO  2  29  14  30   9
M  END
>  <minimizedAffinity>  (1) 
-5.92965841

>  <minimizedRMSD>  (1) 
0.857935667

$$$$
