
     RDKit          3D

 39 41  0  0  1  0  0  0  0  0999 V2000
   47.8160   34.9100   41.4170 C   0  0  2  0  0  0  0  0  0  0  0  0
   49.0240   35.6400   41.6950 C   0  0  0  0  0  0  0  0  0  0  0  0
   49.9910   34.6850   42.4090 C   0  0  0  0  0  0  0  0  0  0  0  0
   49.3190   33.3220   42.4660 C   0  0  0  0  0  0  0  0  0  0  0  0
   47.8890   33.6780   42.3570 C   0  0  1  0  0  0  0  0  0  0  0  0
   47.5970   34.3470   40.0610 C   0  0  0  0  0  0  0  0  0  0  0  0
   48.4580   34.7250   39.0320 C   0  0  0  0  0  0  0  0  0  0  0  0
   48.2710   34.2080   37.7620 C   0  0  0  0  0  0  0  0  0  0  0  0
   47.2260   33.3430   37.6080 N   0  0  0  0  0  0  0  0  0  0  0  0
   46.4110   32.9940   38.6150 C   0  0  0  0  0  0  0  0  0  0  0  0
   46.5870   33.4920   39.8510 N   0  0  0  0  0  0  0  0  0  0  0  0
   47.3490   34.0580   43.7010 C   0  0  0  0  0  0  0  0  0  0  0  0
   45.9050   33.6680   43.8000 C   0  0  0  0  0  0  0  0  0  0  0  0
   45.8820   32.7870   45.0470 C   0  0  0  0  0  0  0  0  0  0  0  0
   45.5800   33.4790   46.2210 C   0  0  0  0  0  0  0  0  0  0  0  0
   45.5220   32.8180   47.4230 C   0  0  0  0  0  0  0  0  0  0  0  0
   45.7730   31.4410   47.4420 C   0  0  0  0  0  0  0  0  0  0  0  0
   46.0670   30.8070   46.2580 C   0  0  0  0  0  0  0  0  0  0  0  0
   46.1310   31.4300   45.0520 C   0  0  0  0  0  0  0  0  0  0  0  0
   47.0041   35.6414   41.5425 H   0  0  0  0  0  0  0  0  0  0  0  0
   49.4726   35.9943   40.7552 H   0  0  0  0  0  0  0  0  0  0  0  0
   48.8095   36.5149   42.3262 H   0  0  0  0  0  0  0  0  0  0  0  0
   50.9350   34.6163   41.8485 H   0  0  0  0  0  0  0  0  0  0  0  0
   50.2217   35.0486   43.4212 H   0  0  0  0  0  0  0  0  0  0  0  0
   49.6369   32.6846   41.6278 H   0  0  0  0  0  0  0  0  0  0  0  0
   49.5641   32.7448   43.3698 H   0  0  0  0  0  0  0  0  0  0  0  0
   47.3012   32.8310   41.9735 H   0  0  0  0  0  0  0  0  0  0  0  0
   49.2801   35.4291   39.2280 H   0  0  0  0  0  0  0  0  0  0  0  0
   48.9283   34.4791   36.9227 H   0  0  0  0  0  0  0  0  0  0  0  0
   45.5869   32.2902   38.4264 H   0  0  0  0  0  0  0  0  0  0  0  0
   47.9214   33.5391   44.4840 H   0  0  0  0  0  0  0  0  0  0  0  0
   47.4399   35.1462   43.8331 H   0  0  0  0  0  0  0  0  0  0  0  0
   45.2628   34.5521   43.9266 H   0  0  0  0  0  0  0  0  0  0  0  0
   45.5261   33.1618   42.8999 H   0  0  0  0  0  0  0  0  0  0  0  0
   45.3872   34.5613   46.1829 H   0  0  0  0  0  0  0  0  0  0  0  0
   45.2835   33.3587   48.3508 H   0  0  0  0  0  0  0  0  0  0  0  0
   45.7357   30.8772   48.3858 H   0  0  0  0  0  0  0  0  0  0  0  0
   46.2632   29.7251   46.2889 H   0  0  0  0  0  0  0  0  0  0  0  0
   46.3687   30.8814   44.1287 H   0  0  0  0  0  0  0  0  0  0  0  0
  1  2  1  0
  1  5  1  0
  2  3  1  0
  3  4  1  0
  5  4  1  0
  5 12  1  0
  6  1  1  0
  7  6  2  0
  8  7  1  0
  9  8  2  0
  9 10  1  0
 10 11  2  0
 11  6  1  0
 12 13  1  0
 13 14  1  0
 14 19  1  0
 14 15  2  0
 15 16  1  0
 16 17  2  0
 18 17  1  0
 19 18  2  0
  1 20  1  1
  2 21  1  0
  2 22  1  0
  3 23  1  0
  3 24  1  0
  4 25  1  0
  4 26  1  0
  5 27  1  6
  7 28  1  0
  8 29  1  0
 10 30  1  0
 12 31  1  0
 12 32  1  0
 13 33  1  0
 13 34  1  0
 15 35  1  0
 16 36  1  0
 17 37  1  0
 18 38  1  0
 19 39  1  0
M  ISO  8  20  13  21  13  22  13  23  13  24  13  25  13  26  13  27  13
M  ISO  8  28  14  29  14  30  14  31   8  32   8  33   8  34   8  35  14
M  ISO  4  36  14  37  14  38  14  39  14
M  END
>  <minimizedAffinity>  (1) 
-5.23130512

>  <minimizedRMSD>  (1) 
1.89613056

$$$$
