
     RDKit          3D

 37 40  0  0  0  0  0  0  0  0999 V2000
   46.5790   34.6570   42.1720 C   0  0  0  0  0  0  0  0  0  0  0  0
   47.7900   35.2740   41.9880 C   0  0  0  0  0  0  0  0  0  0  0  0
   48.5190   35.1620   40.8060 C   0  0  0  0  0  0  0  0  0  0  0  0
   47.9890   34.3820   39.7590 C   0  0  0  0  0  0  0  0  0  0  0  0
   46.7580   33.7530   39.9380 C   0  0  0  0  0  0  0  0  0  0  0  0
   46.0860   33.9020   41.1290 C   0  0  0  0  0  0  0  0  0  0  0  0
   44.8260   33.2440   41.2860 N   0  0  0  0  0  0  0  0  0  0  0  0
   44.6120   31.9820   41.7210 C   0  0  0  0  0  0  0  0  0  0  0  0
   43.3300   31.5010   41.8140 C   0  0  0  0  0  0  0  0  0  0  0  0
   42.2410   32.2830   41.4700 C   0  0  0  0  0  0  0  0  0  0  0  0
   41.0840   31.8010   41.5710 O   0  0  0  0  0  0  0  0  0  0  0  0
   42.5030   33.5480   41.0360 N   0  0  0  0  0  0  0  0  0  0  0  0
   43.7520   34.0040   40.9500 C   0  0  0  0  0  0  0  0  0  0  0  0
   43.8530   35.2070   40.5300 O   0  0  0  0  0  0  0  0  0  0  0  0
   39.4340   35.1250   40.0240 N   0  0  0  0  0  0  0  0  0  0  0  0
   40.1740   34.0180   40.1210 N   0  0  0  0  0  0  0  0  0  0  0  0
   41.3550   34.3160   40.6940 C   0  0  0  0  0  0  0  0  0  0  0  0
   41.3410   35.6690   40.9640 C   0  0  0  0  0  0  0  0  0  0  0  0
   40.1190   36.1850   40.5380 C   0  0  0  0  0  0  0  0  0  0  0  0
   44.4610   35.9730   44.9920 C   0  0  0  0  0  0  0  0  0  0  0  0
   45.0620   35.8950   43.7400 C   0  0  0  0  0  0  0  0  0  0  0  0
   45.9010   34.8380   43.4420 C   0  0  0  0  0  0  0  0  0  0  0  0
   46.1160   33.8960   44.3950 N   0  0  0  0  0  0  0  0  0  0  0  0
   45.5160   33.9890   45.6230 C   0  0  0  0  0  0  0  0  0  0  0  0
   44.7080   35.0010   45.9190 N   0  0  0  0  0  0  0  0  0  0  0  0
   48.2024   35.8819   42.8068 H   0  0  0  0  0  0  0  0  0  0  0  0
   49.4873   35.6714   40.6926 H   0  0  0  0  0  0  0  0  0  0  0  0
   48.5393   34.2709   38.8131 H   0  0  0  0  0  0  0  0  0  0  0  0
   46.3266   33.1413   39.1319 H   0  0  0  0  0  0  0  0  0  0  0  0
   45.4627   31.3427   41.9995 H   0  0  0  0  0  0  0  0  0  0  0  0
   43.1646   30.4731   42.1691 H   0  0  0  0  0  0  0  0  0  0  0  0
   38.4872   35.1710   39.6210 H   0  0  0  0  0  0  0  0  0  0  0  0
   42.1541   36.2414   41.4343 H   0  0  0  0  0  0  0  0  0  0  0  0
   39.7786   37.2290   40.6029 H   0  0  0  0  0  0  0  0  0  0  0  0
   43.7915   36.8117   45.2337 H   0  0  0  0  0  0  0  0  0  0  0  0
   44.8696   36.6741   42.9876 H   0  0  0  0  0  0  0  0  0  0  0  0
   45.7067   33.2117   46.3776 H   0  0  0  0  0  0  0  0  0  0  0  0
  1 22  1  0
  2  1  2  0
  3  2  1  0
  4  5  1  0
  4  3  2  0
  5  6  2  0
  6  7  1  0
  6  1  1  0
  7  8  1  0
  8  9  2  0
 10 11  2  0
 10  9  1  0
 12 10  1  0
 13 12  1  0
 13  7  1  0
 14 13  2  0
 15 16  1  0
 15 19  1  0
 16 17  2  0
 17 18  1  0
 17 12  1  0
 19 18  2  0
 20 25  2  0
 21 20  1  0
 22 21  2  0
 22 23  1  0
 23 24  2  0
 24 25  1  0
  2 26  1  0
  3 27  1  0
  4 28  1  0
  5 29  1  0
  8 30  1  0
  9 31  1  0
 15 32  1  0
 18 33  1  0
 19 34  1  0
 20 35  1  0
 21 36  1  0
 24 37  1  0
M  ISO  8  26  14  27  14  28  14  29  14  30  14  31  14  32   9  33  14
M  ISO  4  34  14  35  14  36  14  37  14
M  END
>  <minimizedAffinity>  (1) 
-7.56213474

>  <minimizedRMSD>  (1) 
0.12289948

$$$$
