
     RDKit          3D

 40 43  0  0  0  0  0  0  0  0999 V2000
   46.6060   34.6390   42.1330 C   0  0  0  0  0  0  0  0  0  0  0  0
   47.7770   35.3270   41.9430 C   0  0  0  0  0  0  0  0  0  0  0  0
   48.5190   35.1950   40.7540 C   0  0  0  0  0  0  0  0  0  0  0  0
   48.0400   34.3390   39.7490 C   0  0  0  0  0  0  0  0  0  0  0  0
   46.8460   33.6460   39.9540 C   0  0  0  0  0  0  0  0  0  0  0  0
   46.1640   33.8160   41.1430 C   0  0  0  0  0  0  0  0  0  0  0  0
   44.9430   33.0920   41.3240 N   0  0  0  0  0  0  0  0  0  0  0  0
   44.7770   31.8980   41.9430 C   0  0  0  0  0  0  0  0  0  0  0  0
   43.5300   31.3430   42.0290 C   0  0  0  0  0  0  0  0  0  0  0  0
   42.4190   31.9740   41.4950 C   0  0  0  0  0  0  0  0  0  0  0  0
   41.2900   31.4230   41.5990 O   0  0  0  0  0  0  0  0  0  0  0  0
   42.6340   33.1650   40.8860 N   0  0  0  0  0  0  0  0  0  0  0  0
   43.8470   33.7160   40.7970 C   0  0  0  0  0  0  0  0  0  0  0  0
   43.8910   34.8310   40.2000 O   0  0  0  0  0  0  0  0  0  0  0  0
   41.4740   33.7900   40.3470 C   0  0  0  0  0  0  0  0  0  0  0  0
   41.2730   33.3900   39.0200 C   0  0  0  0  0  0  0  0  0  0  0  0
   40.1940   33.8770   38.2960 C   0  0  0  0  0  0  0  0  0  0  0  0
   39.3400   34.7610   38.9240 C   0  0  0  0  0  0  0  0  0  0  0  0
   39.5280   35.1580   40.2200 C   0  0  0  0  0  0  0  0  0  0  0  0
   40.6000   34.6750   40.9440 C   0  0  0  0  0  0  0  0  0  0  0  0
   44.4180   35.9840   44.8970 C   0  0  0  0  0  0  0  0  0  0  0  0
   45.0330   35.8810   43.6560 C   0  0  0  0  0  0  0  0  0  0  0  0
   45.9130   34.8410   43.3900 C   0  0  0  0  0  0  0  0  0  0  0  0
   46.1440   33.9350   44.3890 N   0  0  0  0  0  0  0  0  0  0  0  0
   45.5310   34.0500   45.6050 C   0  0  0  0  0  0  0  0  0  0  0  0
   44.6860   35.0530   45.8560 N   0  0  0  0  0  0  0  0  0  0  0  0
   48.1439   35.9955   42.7357 H   0  0  0  0  0  0  0  0  0  0  0  0
   49.4571   35.7523   40.6146 H   0  0  0  0  0  0  0  0  0  0  0  0
   48.5999   34.2160   38.8102 H   0  0  0  0  0  0  0  0  0  0  0  0
   46.4529   32.9726   39.1781 H   0  0  0  0  0  0  0  0  0  0  0  0
   45.6435   31.3762   42.3754 H   0  0  0  0  0  0  0  0  0  0  0  0
   43.4068   30.3735   42.5338 H   0  0  0  0  0  0  0  0  0  0  0  0
   41.9745   32.6857   38.5489 H   0  0  0  0  0  0  0  0  0  0  0  0
   40.0245   33.5681   37.2539 H   0  0  0  0  0  0  0  0  0  0  0  0
   38.4806   35.1592   38.3647 H   0  0  0  0  0  0  0  0  0  0  0  0
   38.8239   35.8631   40.6858 H   0  0  0  0  0  0  0  0  0  0  0  0
   40.7555   34.9924   41.9857 H   0  0  0  0  0  0  0  0  0  0  0  0
   43.7210   36.8094   45.1042 H   0  0  0  0  0  0  0  0  0  0  0  0
   44.8211   36.6292   42.8780 H   0  0  0  0  0  0  0  0  0  0  0  0
   45.7367   33.3056   46.3883 H   0  0  0  0  0  0  0  0  0  0  0  0
  1 23  1  0
  2  1  2  0
  3  2  1  0
  4  5  1  0
  4  3  2  0
  5  6  2  0
  6  7  1  0
  6  1  1  0
  7  8  1  0
  8  9  2  0
 10 11  2  0
 10  9  1  0
 12 10  1  0
 13 12  1  0
 13  7  1  0
 14 13  2  0
 15 12  1  0
 15 20  1  0
 16 15  2  0
 17 18  2  0
 17 16  1  0
 18 19  1  0
 19 20  2  0
 21 26  2  0
 22 21  1  0
 23 22  2  0
 23 24  1  0
 24 25  2  0
 25 26  1  0
  2 27  1  0
  3 28  1  0
  4 29  1  0
  5 30  1  0
  8 31  1  0
  9 32  1  0
 16 33  1  0
 17 34  1  0
 18 35  1  0
 19 36  1  0
 20 37  1  0
 21 38  1  0
 22 39  1  0
 25 40  1  0
M  ISO  8  27  14  28  14  29  14  30  14  31  14  32  14  33  14  34  14
M  ISO  6  35  14  36  14  37  14  38  14  39  14  40  14
M  END
>  <minimizedAffinity>  (1) 
-7.40768957

>  <minimizedRMSD>  (1) 
0.651644886

$$$$
