
     RDKit          3D

 40 43  0  0  0  0  0  0  0  0999 V2000
   46.6060   34.6450   42.1400 C   0  0  0  0  0  0  0  0  0  0  0  0
   47.7720   35.3260   41.9300 C   0  0  0  0  0  0  0  0  0  0  0  0
   48.5190   35.2010   40.7490 C   0  0  0  0  0  0  0  0  0  0  0  0
   48.0430   34.3390   39.7530 C   0  0  0  0  0  0  0  0  0  0  0  0
   46.8560   33.6430   39.9580 C   0  0  0  0  0  0  0  0  0  0  0  0
   46.1710   33.8110   41.1410 C   0  0  0  0  0  0  0  0  0  0  0  0
   44.9570   33.0850   41.3250 N   0  0  0  0  0  0  0  0  0  0  0  0
   44.7950   31.8910   41.9580 C   0  0  0  0  0  0  0  0  0  0  0  0
   43.5450   31.3350   42.0410 C   0  0  0  0  0  0  0  0  0  0  0  0
   42.4350   31.9550   41.4970 C   0  0  0  0  0  0  0  0  0  0  0  0
   41.3180   31.3970   41.6050 O   0  0  0  0  0  0  0  0  0  0  0  0
   42.6390   33.1430   40.8740 N   0  0  0  0  0  0  0  0  0  0  0  0
   43.8540   33.6910   40.7900 C   0  0  0  0  0  0  0  0  0  0  0  0
   43.8940   34.8010   40.1810 O   0  0  0  0  0  0  0  0  0  0  0  0
   41.4820   33.7660   40.3200 C   0  0  0  0  0  0  0  0  0  0  0  0
   41.2670   33.3840   39.0060 C   0  0  0  0  0  0  0  0  0  0  0  0
   40.1760   33.8930   38.2960 C   0  0  0  0  0  0  0  0  0  0  0  0
   39.3170   34.7740   38.9030 C   0  0  0  0  0  0  0  0  0  0  0  0
   39.5400   35.1460   40.2070 C   0  0  0  0  0  0  0  0  0  0  0  0
   40.6080   34.6600   40.9330 C   0  0  0  0  0  0  0  0  0  0  0  0
   44.4170   35.9830   44.8990 C   0  0  0  0  0  0  0  0  0  0  0  0
   45.0390   35.8780   43.6530 C   0  0  0  0  0  0  0  0  0  0  0  0
   45.9140   34.8450   43.3890 C   0  0  0  0  0  0  0  0  0  0  0  0
   46.1420   33.9430   44.3900 N   0  0  0  0  0  0  0  0  0  0  0  0
   45.5330   34.0510   45.6040 C   0  0  0  0  0  0  0  0  0  0  0  0
   44.6840   35.0530   45.8570 N   0  0  0  0  0  0  0  0  0  0  0  0
   48.1396   35.9991   42.7185 H   0  0  0  0  0  0  0  0  0  0  0  0
   49.4532   35.7647   40.6091 H   0  0  0  0  0  0  0  0  0  0  0  0
   48.6038   34.2132   38.8151 H   0  0  0  0  0  0  0  0  0  0  0  0
   46.4684   32.9653   39.1831 H   0  0  0  0  0  0  0  0  0  0  0  0
   45.6609   31.3761   42.3997 H   0  0  0  0  0  0  0  0  0  0  0  0
   43.4214   30.3698   42.5540 H   0  0  0  0  0  0  0  0  0  0  0  0
   41.9567   32.6782   38.5201 H   0  0  0  0  0  0  0  0  0  0  0  0
   40.0064   33.5879   37.2528 H   0  0  0  0  0  0  0  0  0  0  0  0
   38.4567   35.1793   38.3503 H   0  0  0  0  0  0  0  0  0  0  0  0
   38.8463   35.8524   40.6864 H   0  0  0  0  0  0  0  0  0  0  0  0
   40.7659   34.9727   41.9757 H   0  0  0  0  0  0  0  0  0  0  0  0
   43.7190   36.8080   45.1042 H   0  0  0  0  0  0  0  0  0  0  0  0
   44.8291   36.6264   42.8746 H   0  0  0  0  0  0  0  0  0  0  0  0
   45.7420   33.3053   46.3852 H   0  0  0  0  0  0  0  0  0  0  0  0
  1 23  1  0
  2  1  2  0
  3  2  1  0
  4  5  1  0
  4  3  2  0
  5  6  2  0
  6  7  1  0
  6  1  1  0
  7  8  1  0
  8  9  2  0
 10 11  2  0
 10  9  1  0
 12 10  1  0
 13 12  1  0
 13  7  1  0
 14 13  2  0
 15 12  1  0
 15 20  1  0
 16 15  2  0
 17 18  2  0
 17 16  1  0
 18 19  1  0
 19 20  2  0
 21 26  2  0
 22 21  1  0
 23 22  2  0
 23 24  1  0
 24 25  2  0
 25 26  1  0
  2 27  1  0
  3 28  1  0
  4 29  1  0
  5 30  1  0
  8 31  1  0
  9 32  1  0
 16 33  1  0
 17 34  1  0
 18 35  1  0
 19 36  1  0
 20 37  1  0
 21 38  1  0
 22 39  1  0
 25 40  1  0
M  ISO  8  27  14  28  14  29  14  30  14  31  14  32  14  33  14  34  14
M  ISO  6  35  14  36  14  37  14  38  14  39  14  40  14
M  END
>  <minimizedAffinity>  (1) 
-7.39222479

>  <minimizedRMSD>  (1) 
0.558467686

$$$$
