
     RDKit          3D

 37 40  0  0  0  0  0  0  0  0999 V2000
   46.5710   34.6730   42.1640 C   0  0  0  0  0  0  0  0  0  0  0  0
   47.7780   35.2900   41.9910 C   0  0  0  0  0  0  0  0  0  0  0  0
   48.5240   35.1540   40.8060 C   0  0  0  0  0  0  0  0  0  0  0  0
   48.0070   34.3610   39.7730 C   0  0  0  0  0  0  0  0  0  0  0  0
   46.7760   33.7340   39.9530 C   0  0  0  0  0  0  0  0  0  0  0  0
   46.0930   33.9040   41.1370 C   0  0  0  0  0  0  0  0  0  0  0  0
   44.8350   33.2490   41.2930 N   0  0  0  0  0  0  0  0  0  0  0  0
   44.6150   32.0050   41.7920 C   0  0  0  0  0  0  0  0  0  0  0  0
   43.3450   31.5230   41.8750 C   0  0  0  0  0  0  0  0  0  0  0  0
   42.2670   32.2640   41.4650 C   0  0  0  0  0  0  0  0  0  0  0  0
   41.0920   31.7850   41.5550 O   0  0  0  0  0  0  0  0  0  0  0  0
   42.5150   33.5150   40.9650 N   0  0  0  0  0  0  0  0  0  0  0  0
   43.7670   33.9740   40.8910 C   0  0  0  0  0  0  0  0  0  0  0  0
   43.8680   35.1510   40.4080 O   0  0  0  0  0  0  0  0  0  0  0  0
   41.3810   34.2700   40.5430 C   0  0  0  0  0  0  0  0  0  0  0  0
   40.4110   34.1410   39.5600 C   0  0  0  0  0  0  0  0  0  0  0  0
   39.5670   35.1860   39.6320 N   0  0  0  0  0  0  0  0  0  0  0  0
   40.0120   35.9530   40.6490 C   0  0  0  0  0  0  0  0  0  0  0  0
   41.1060   35.4100   41.2050 N   0  0  0  0  0  0  0  0  0  0  0  0
   44.4460   36.0220   44.9590 C   0  0  0  0  0  0  0  0  0  0  0  0
   45.0490   35.9310   43.7120 C   0  0  0  0  0  0  0  0  0  0  0  0
   45.8840   34.8790   43.4270 C   0  0  0  0  0  0  0  0  0  0  0  0
   46.0990   33.9340   44.3990 N   0  0  0  0  0  0  0  0  0  0  0  0
   45.4950   34.0440   45.6210 C   0  0  0  0  0  0  0  0  0  0  0  0
   44.6840   35.0690   45.8940 N   0  0  0  0  0  0  0  0  0  0  0  0
   48.1791   35.9128   42.8042 H   0  0  0  0  0  0  0  0  0  0  0  0
   49.4940   35.6602   40.6927 H   0  0  0  0  0  0  0  0  0  0  0  0
   48.5650   34.2353   38.8334 H   0  0  0  0  0  0  0  0  0  0  0  0
   46.3522   33.1071   39.1546 H   0  0  0  0  0  0  0  0  0  0  0  0
   45.4616   31.3884   42.1283 H   0  0  0  0  0  0  0  0  0  0  0  0
   43.1794   30.5142   42.2810 H   0  0  0  0  0  0  0  0  0  0  0  0
   40.3427   33.3153   38.8364 H   0  0  0  0  0  0  0  0  0  0  0  0
   39.5433   36.8926   40.9767 H   0  0  0  0  0  0  0  0  0  0  0  0
   41.6399   35.7962   41.9966 H   0  0  0  0  0  0  0  0  0  0  0  0
   43.7771   36.8647   45.1881 H   0  0  0  0  0  0  0  0  0  0  0  0
   44.8577   36.7024   42.9515 H   0  0  0  0  0  0  0  0  0  0  0  0
   45.6796   33.2783   46.3888 H   0  0  0  0  0  0  0  0  0  0  0  0
  1 22  1  0
  2  1  2  0
  3  2  1  0
  4  5  1  0
  4  3  2  0
  5  6  2  0
  6  7  1  0
  6  1  1  0
  7  8  1  0
  8  9  2  0
 10 11  2  0
 10  9  1  0
 12 10  1  0
 13 12  1  0
 13  7  1  0
 14 13  2  0
 15 12  1  0
 15 19  1  0
 16 17  1  0
 16 15  2  0
 17 18  2  0
 18 19  1  0
 20 25  2  0
 21 20  1  0
 22 21  2  0
 22 23  1  0
 23 24  2  0
 24 25  1  0
  2 26  1  0
  3 27  1  0
  4 28  1  0
  5 29  1  0
  8 30  1  0
  9 31  1  0
 16 32  1  0
 18 33  1  0
 19 34  1  0
 20 35  1  0
 21 36  1  0
 24 37  1  0
M  ISO  8  26  14  27  14  28  14  29  14  30  14  31  14  32  14  33  14
M  ISO  4  34   9  35  14  36  14  37  14
M  END
>  <minimizedAffinity>  (1) 
-7.00964403

>  <minimizedRMSD>  (1) 
0.146172643

$$$$
