
     RDKit          3D

 38 41  0  0  0  0  0  0  0  0999 V2000
   46.6320   34.6450   42.1410 C   0  0  0  0  0  0  0  0  0  0  0  0
   47.8070   35.3410   41.9550 C   0  0  0  0  0  0  0  0  0  0  0  0
   48.5590   35.2260   40.7840 C   0  0  0  0  0  0  0  0  0  0  0  0
   48.0890   34.3680   39.7670 C   0  0  0  0  0  0  0  0  0  0  0  0
   46.9070   33.6700   39.9590 C   0  0  0  0  0  0  0  0  0  0  0  0
   46.2030   33.8220   41.1400 C   0  0  0  0  0  0  0  0  0  0  0  0
   44.9930   33.0940   41.3110 N   0  0  0  0  0  0  0  0  0  0  0  0
   44.8480   31.8740   41.9070 C   0  0  0  0  0  0  0  0  0  0  0  0
   43.6020   31.3110   41.9880 C   0  0  0  0  0  0  0  0  0  0  0  0
   42.4880   31.9400   41.4850 C   0  0  0  0  0  0  0  0  0  0  0  0
   41.3560   31.3880   41.5780 O   0  0  0  0  0  0  0  0  0  0  0  0
   42.6800   33.1600   40.8960 N   0  0  0  0  0  0  0  0  0  0  0  0
   43.8910   33.7150   40.8130 C   0  0  0  0  0  0  0  0  0  0  0  0
   43.9220   34.8410   40.2460 O   0  0  0  0  0  0  0  0  0  0  0  0
   41.4860   33.7560   40.3960 C   0  0  0  0  0  0  0  0  0  0  0  0
   41.1070   33.4300   39.0950 C   0  0  0  0  0  0  0  0  0  0  0  0
   39.9570   33.9820   38.5700 C   0  0  0  0  0  0  0  0  0  0  0  0
   39.1850   34.8300   39.2640 N   0  0  0  0  0  0  0  0  0  0  0  0
   39.5800   35.1310   40.5320 C   0  0  0  0  0  0  0  0  0  0  0  0
   40.6920   34.6180   41.0910 N   0  0  0  0  0  0  0  0  0  0  0  0
   44.4300   35.9650   44.9060 C   0  0  0  0  0  0  0  0  0  0  0  0
   45.0520   35.8760   43.6570 C   0  0  0  0  0  0  0  0  0  0  0  0
   45.9270   34.8390   43.4040 C   0  0  0  0  0  0  0  0  0  0  0  0
   46.1600   33.9260   44.3900 N   0  0  0  0  0  0  0  0  0  0  0  0
   45.5410   34.0330   45.6020 C   0  0  0  0  0  0  0  0  0  0  0  0
   44.6970   35.0250   45.8560 N   0  0  0  0  0  0  0  0  0  0  0  0
   48.1635   36.0078   42.7539 H   0  0  0  0  0  0  0  0  0  0  0  0
   49.4947   35.7903   40.6574 H   0  0  0  0  0  0  0  0  0  0  0  0
   48.6553   34.2542   38.8308 H   0  0  0  0  0  0  0  0  0  0  0  0
   46.5299   32.9972   39.1746 H   0  0  0  0  0  0  0  0  0  0  0  0
   45.7229   31.3488   42.3178 H   0  0  0  0  0  0  0  0  0  0  0  0
   43.4896   30.3281   42.4690 H   0  0  0  0  0  0  0  0  0  0  0  0
   41.7179   32.7405   38.4938 H   0  0  0  0  0  0  0  0  0  0  0  0
   39.6626   33.7165   37.5439 H   0  0  0  0  0  0  0  0  0  0  0  0
   38.9640   35.8230   41.1249 H   0  0  0  0  0  0  0  0  0  0  0  0
   43.7310   36.7869   45.1201 H   0  0  0  0  0  0  0  0  0  0  0  0
   44.8453   36.6277   42.8809 H   0  0  0  0  0  0  0  0  0  0  0  0
   45.7453   33.2841   46.3814 H   0  0  0  0  0  0  0  0  0  0  0  0
  1 23  1  0
  2  1  2  0
  3  2  1  0
  4  5  1  0
  4  3  2  0
  5  6  2  0
  6  7  1  0
  6  1  1  0
  7  8  1  0
  8  9  2  0
 10 11  2  0
 10  9  1  0
 12 10  1  0
 13 12  1  0
 13  7  1  0
 14 13  2  0
 15 12  1  0
 15 20  1  0
 16 15  2  0
 17 16  1  0
 17 18  2  0
 18 19  1  0
 19 20  2  0
 21 26  2  0
 22 21  1  0
 23 22  2  0
 23 24  1  0
 24 25  2  0
 25 26  1  0
  2 27  1  0
  3 28  1  0
  4 29  1  0
  5 30  1  0
  8 31  1  0
  9 32  1  0
 16 33  1  0
 17 34  1  0
 19 35  1  0
 21 36  1  0
 22 37  1  0
 25 38  1  0
M  ISO  8  27  14  28  14  29  14  30  14  31  14  32  14  33  14  34  14
M  ISO  4  35  14  36  14  37  14  38  14
M  END
>  <minimizedAffinity>  (1) 
-6.90689802

>  <minimizedRMSD>  (1) 
0.673635125

$$$$
