
     RDKit          3D

 42 44  0  0  0  0  0  0  0  0999 V2000
   46.4560   34.6120   42.1680 C   0  0  0  0  0  0  0  0  0  0  0  0
   47.6800   35.1940   41.9550 C   0  0  0  0  0  0  0  0  0  0  0  0
   48.3780   35.0500   40.7560 C   0  0  0  0  0  0  0  0  0  0  0  0
   47.7960   34.2830   39.7380 C   0  0  0  0  0  0  0  0  0  0  0  0
   46.5510   33.6830   39.9330 C   0  0  0  0  0  0  0  0  0  0  0  0
   45.9120   33.8650   41.1470 C   0  0  0  0  0  0  0  0  0  0  0  0
   44.6420   33.2490   41.3370 N   0  0  0  0  0  0  0  0  0  0  0  0
   44.3980   32.0030   41.7960 C   0  0  0  0  0  0  0  0  0  0  0  0
   43.1080   31.5730   41.9140 C   0  0  0  0  0  0  0  0  0  0  0  0
   42.0360   32.3680   41.5820 C   0  0  0  0  0  0  0  0  0  0  0  0
   40.8600   31.9220   41.7100 O   0  0  0  0  0  0  0  0  0  0  0  0
   42.3320   33.6280   41.1200 N   0  0  0  0  0  0  0  0  0  0  0  0
   43.5850   34.0470   41.0040 C   0  0  0  0  0  0  0  0  0  0  0  0
   43.7090   35.2300   40.5650 O   0  0  0  0  0  0  0  0  0  0  0  0
   41.1550   34.4150   40.7890 C   0  0  0  0  0  0  0  0  0  0  0  0
   41.2500   35.8560   41.1210 C   0  0  0  0  0  0  0  0  0  0  0  0
   40.9800   34.2990   39.2880 C   0  0  0  0  0  0  0  0  0  0  0  0
   39.9110   33.8820   41.4980 C   0  0  0  0  0  0  0  0  0  0  0  0
   44.4430   35.9850   45.0350 C   0  0  0  0  0  0  0  0  0  0  0  0
   45.0100   35.8910   43.7640 C   0  0  0  0  0  0  0  0  0  0  0  0
   45.8110   34.8210   43.4510 C   0  0  0  0  0  0  0  0  0  0  0  0
   46.0290   33.8700   44.4150 N   0  0  0  0  0  0  0  0  0  0  0  0
   45.4620   33.9900   45.6490 C   0  0  0  0  0  0  0  0  0  0  0  0
   44.6810   35.0290   45.9550 N   0  0  0  0  0  0  0  0  0  0  0  0
   48.1274   35.7964   42.7594 H   0  0  0  0  0  0  0  0  0  0  0  0
   49.3594   35.5260   40.6134 H   0  0  0  0  0  0  0  0  0  0  0  0
   48.3226   34.1532   38.7810 H   0  0  0  0  0  0  0  0  0  0  0  0
   46.0878   33.0787   39.1391 H   0  0  0  0  0  0  0  0  0  0  0  0
   45.2313   31.3403   42.0724 H   0  0  0  0  0  0  0  0  0  0  0  0
   42.9193   30.5557   42.2875 H   0  0  0  0  0  0  0  0  0  0  0  0
   41.2582   35.9807   42.2139 H   0  0  0  0  0  0  0  0  0  0  0  0
   42.1773   36.2694   40.6978 H   0  0  0  0  0  0  0  0  0  0  0  0
   40.3850   36.3876   40.6978 H   0  0  0  0  0  0  0  0  0  0  0  0
   40.0816   33.7035   39.0685 H   0  0  0  0  0  0  0  0  0  0  0  0
   40.8695   35.3033   38.8530 H   0  0  0  0  0  0  0  0  0  0  0  0
   41.8619   33.8061   38.8530 H   0  0  0  0  0  0  0  0  0  0  0  0
   40.0548   33.9436   42.5868 H   0  0  0  0  0  0  0  0  0  0  0  0
   39.0375   34.4849   41.2088 H   0  0  0  0  0  0  0  0  0  0  0  0
   39.7450   32.8338   41.2088 H   0  0  0  0  0  0  0  0  0  0  0  0
   43.8002   36.8413   45.2871 H   0  0  0  0  0  0  0  0  0  0  0  0
   44.8158   36.6723   43.0144 H   0  0  0  0  0  0  0  0  0  0  0  0
   45.6515   33.2160   46.4072 H   0  0  0  0  0  0  0  0  0  0  0  0
  1 21  1  0
  2  1  2  0
  3  2  1  0
  4  5  1  0
  4  3  2  0
  5  6  2  0
  6  7  1  0
  6  1  1  0
  7  8  1  0
  8  9  2  0
 10 11  2  0
 10  9  1  0
 12 10  1  0
 13 12  1  0
 13  7  1  0
 14 13  2  0
 15 12  1  0
 15 16  1  0
 15 18  1  0
 17 15  1  0
 19 24  2  0
 20 19  1  0
 21 20  2  0
 21 22  1  0
 22 23  2  0
 23 24  1  0
  2 25  1  0
  3 26  1  0
  4 27  1  0
  5 28  1  0
  8 29  1  0
  9 30  1  0
 16 31  1  0
 16 32  1  0
 16 33  1  0
 17 34  1  0
 17 35  1  0
 17 36  1  0
 18 37  1  0
 18 38  1  0
 18 39  1  0
 19 40  1  0
 20 41  1  0
 23 42  1  0
M  ISO  8  25  14  26  14  27  14  28  14  29  14  30  14  31   8  32   8
M  ISO  8  33   8  34   8  35   8  36   8  37   8  38   8  39   8  40  14
M  ISO  2  41  14  42  14
M  END
>  <minimizedAffinity>  (1) 
-6.85563374

>  <minimizedRMSD>  (1) 
0.244580358

$$$$
