
     RDKit          3D

 38 40  0  0  1  0  0  0  0  0999 V2000
   47.8160   34.9140   41.3390 C   0  0  2  0  0  0  0  0  0  0  0  0
   48.9780   35.7240   41.6130 C   0  0  0  0  0  0  0  0  0  0  0  0
   49.9880   34.8500   42.3730 C   0  0  0  0  0  0  0  0  0  0  0  0
   49.4190   33.4470   42.4340 C   0  0  0  0  0  0  0  0  0  0  0  0
   47.9610   33.7120   42.3020 C   0  0  1  0  0  0  0  0  0  0  0  0
   47.6510   34.3040   39.9950 C   0  0  0  0  0  0  0  0  0  0  0  0
   48.4790   34.7440   38.9610 C   0  0  0  0  0  0  0  0  0  0  0  0
   48.3550   34.1910   37.7000 C   0  0  0  0  0  0  0  0  0  0  0  0
   47.4030   33.2260   37.5520 N   0  0  0  0  0  0  0  0  0  0  0  0
   46.6160   32.8160   38.5610 C   0  0  0  0  0  0  0  0  0  0  0  0
   46.7370   33.3560   39.7900 N   0  0  0  0  0  0  0  0  0  0  0  0
   47.3770   34.0460   43.6350 C   0  0  0  0  0  0  0  0  0  0  0  0
   45.9760   33.5270   43.7010 C   0  0  0  0  0  0  0  0  0  0  0  0
   45.9020   32.6860   44.9740 C   0  0  0  0  0  0  0  0  0  0  0  0
   45.7710   33.3240   46.1910 C   0  0  0  0  0  0  0  0  0  0  0  0
   45.6950   32.6620   47.3770 C   0  0  0  0  0  0  0  0  0  0  0  0
   45.7580   31.2760   47.3150 C   0  0  0  0  0  0  0  0  0  0  0  0
   45.8880   30.6320   46.1060 C   0  0  0  0  0  0  0  0  0  0  0  0
   45.9590   31.3210   44.9580 N   0  0  0  0  0  0  0  0  0  0  0  0
   46.9584   35.5955   41.4397 H   0  0  0  0  0  0  0  0  0  0  0  0
   49.4214   36.0745   40.6693 H   0  0  0  0  0  0  0  0  0  0  0  0
   48.7017   36.6037   42.2128 H   0  0  0  0  0  0  0  0  0  0  0  0
   50.9518   34.8419   41.8428 H   0  0  0  0  0  0  0  0  0  0  0  0
   50.1574   35.2443   43.3858 H   0  0  0  0  0  0  0  0  0  0  0  0
   49.7911   32.8261   41.6057 H   0  0  0  0  0  0  0  0  0  0  0  0
   49.6932   32.8910   43.3427 H   0  0  0  0  0  0  0  0  0  0  0  0
   47.4296   32.8293   41.9168 H   0  0  0  0  0  0  0  0  0  0  0  0
   49.2275   35.5279   39.1488 H   0  0  0  0  0  0  0  0  0  0  0  0
   48.9901   34.5122   36.8612 H   0  0  0  0  0  0  0  0  0  0  0  0
   45.8655   32.0319   38.3822 H   0  0  0  0  0  0  0  0  0  0  0  0
   47.9799   33.5799   44.4282 H   0  0  0  0  0  0  0  0  0  0  0  0
   47.3743   35.1371   43.7749 H   0  0  0  0  0  0  0  0  0  0  0  0
   45.2607   34.3612   43.7511 H   0  0  0  0  0  0  0  0  0  0  0  0
   45.7218   32.9346   42.8097 H   0  0  0  0  0  0  0  0  0  0  0  0
   45.7258   34.4230   46.2024 H   0  0  0  0  0  0  0  0  0  0  0  0
   45.5894   33.1955   48.3332 H   0  0  0  0  0  0  0  0  0  0  0  0
   45.7034   30.6868   48.2423 H   0  0  0  0  0  0  0  0  0  0  0  0
   45.9345   29.5333   46.0809 H   0  0  0  0  0  0  0  0  0  0  0  0
  1  2  1  0
  1  5  1  0
  2  3  1  0
  3  4  1  0
  5  4  1  0
  5 12  1  0
  6  1  1  0
  7  6  2  0
  8  7  1  0
  9  8  2  0
  9 10  1  0
 10 11  2  0
 11  6  1  0
 12 13  1  0
 13 14  1  0
 14 15  2  0
 15 16  1  0
 17 16  2  0
 18 17  1  0
 19 14  1  0
 19 18  2  0
  1 20  1  1
  2 21  1  0
  2 22  1  0
  3 23  1  0
  3 24  1  0
  4 25  1  0
  4 26  1  0
  5 27  1  6
  7 28  1  0
  8 29  1  0
 10 30  1  0
 12 31  1  0
 12 32  1  0
 13 33  1  0
 13 34  1  0
 15 35  1  0
 16 36  1  0
 17 37  1  0
 18 38  1  0
M  ISO  8  20  13  21  13  22  13  23  13  24  13  25  13  26  13  27  13
M  ISO  8  28  14  29  14  30  14  31   8  32   8  33   8  34   8  35  14
M  ISO  3  36  14  37  14  38  14
M  END
>  <minimizedAffinity>  (1) 
-5.19012022

>  <minimizedRMSD>  (1) 
1.98334539

$$$$
