
     RDKit          3D

 33 35  0  0  0  0  0  0  0  0999 V2000
   46.5090   34.6270   42.1150 C   0  0  0  0  0  0  0  0  0  0  0  0
   47.7380   35.2140   41.9270 C   0  0  0  0  0  0  0  0  0  0  0  0
   48.4570   35.0650   40.7320 C   0  0  0  0  0  0  0  0  0  0  0  0
   47.8990   34.2910   39.7050 C   0  0  0  0  0  0  0  0  0  0  0  0
   46.6490   33.6920   39.8940 C   0  0  0  0  0  0  0  0  0  0  0  0
   45.9860   33.8760   41.0950 C   0  0  0  0  0  0  0  0  0  0  0  0
   44.7210   33.2600   41.2660 N   0  0  0  0  0  0  0  0  0  0  0  0
   44.4650   32.0260   41.7570 C   0  0  0  0  0  0  0  0  0  0  0  0
   43.1810   31.5790   41.8570 C   0  0  0  0  0  0  0  0  0  0  0  0
   42.1140   32.3700   41.4630 C   0  0  0  0  0  0  0  0  0  0  0  0
   40.9370   31.9090   41.5760 O   0  0  0  0  0  0  0  0  0  0  0  0
   42.4120   33.6020   40.9770 N   0  0  0  0  0  0  0  0  0  0  0  0
   43.6670   34.0240   40.8840 C   0  0  0  0  0  0  0  0  0  0  0  0
   43.7920   35.2020   40.4080 O   0  0  0  0  0  0  0  0  0  0  0  0
   41.2670   34.4300   40.5620 C   0  0  0  0  0  0  0  0  0  0  0  0
   44.4480   36.0180   44.9440 C   0  0  0  0  0  0  0  0  0  0  0  0
   45.0330   35.9110   43.6800 C   0  0  0  0  0  0  0  0  0  0  0  0
   45.8460   34.8440   43.3930 C   0  0  0  0  0  0  0  0  0  0  0  0
   46.0700   33.8960   44.3600 N   0  0  0  0  0  0  0  0  0  0  0  0
   45.4800   34.0260   45.5960 C   0  0  0  0  0  0  0  0  0  0  0  0
   44.6870   35.0680   45.8770 N   0  0  0  0  0  0  0  0  0  0  0  0
   48.1703   35.8185   42.7380 H   0  0  0  0  0  0  0  0  0  0  0  0
   49.4382   35.5454   40.6034 H   0  0  0  0  0  0  0  0  0  0  0  0
   48.4403   34.1556   38.7570 H   0  0  0  0  0  0  0  0  0  0  0  0
   46.1982   33.0819   39.0974 H   0  0  0  0  0  0  0  0  0  0  0  0
   45.2962   31.3805   42.0769 H   0  0  0  0  0  0  0  0  0  0  0  0
   42.9888   30.5727   42.2575 H   0  0  0  0  0  0  0  0  0  0  0  0
   40.7451   34.8074   41.4537 H   0  0  0  0  0  0  0  0  0  0  0  0
   41.6266   35.2783   39.9611 H   0  0  0  0  0  0  0  0  0  0  0  0
   40.5740   33.8227   39.9611 H   0  0  0  0  0  0  0  0  0  0  0  0
   43.7954   36.8715   45.1798 H   0  0  0  0  0  0  0  0  0  0  0  0
   44.8423   36.6801   42.9170 H   0  0  0  0  0  0  0  0  0  0  0  0
   45.6625   33.2618   46.3658 H   0  0  0  0  0  0  0  0  0  0  0  0
  1 18  1  0
  2  1  2  0
  3  2  1  0
  4  5  1  0
  4  3  2  0
  5  6  2  0
  6  7  1  0
  6  1  1  0
  7  8  1  0
  8  9  2  0
 10 11  2  0
 10  9  1  0
 12 10  1  0
 13 12  1  0
 13  7  1  0
 14 13  2  0
 15 12  1  0
 16 21  2  0
 17 16  1  0
 18 17  2  0
 18 19  1  0
 19 20  2  0
 20 21  1  0
  2 22  1  0
  3 23  1  0
  4 24  1  0
  5 25  1  0
  8 26  1  0
  9 27  1  0
 15 28  1  0
 15 29  1  0
 15 30  1  0
 16 31  1  0
 17 32  1  0
 20 33  1  0
M  ISO  8  22  14  23  14  24  14  25  14  26  14  27  14  28   8  29   8
M  ISO  4  30   8  31  14  32  14  33  14
M  END
>  <minimizedAffinity>  (1) 
-6.14866972

>  <minimizedRMSD>  (1) 
0.0149967987

$$$$
