
     RDKit          3D

 52 56  0  0  0  0  0  0  0  0999 V2000
   46.6500   34.5340   42.3350 C   0  0  0  0  0  0  0  0  0  0  0  0
   47.8650   35.1630   42.1940 C   0  0  0  0  0  0  0  0  0  0  0  0
   48.5620   35.1730   40.9730 C   0  0  0  0  0  0  0  0  0  0  0  0
   47.9940   34.5220   39.8720 C   0  0  0  0  0  0  0  0  0  0  0  0
   46.7670   33.8880   40.0160 C   0  0  0  0  0  0  0  0  0  0  0  0
   46.1280   33.9090   41.2390 C   0  0  0  0  0  0  0  0  0  0  0  0
   44.8680   33.2490   41.3580 N   0  0  0  0  0  0  0  0  0  0  0  0
   44.6330   31.9780   41.7580 C   0  0  0  0  0  0  0  0  0  0  0  0
   43.3520   31.4950   41.8160 C   0  0  0  0  0  0  0  0  0  0  0  0
   42.2830   32.2810   41.4740 C   0  0  0  0  0  0  0  0  0  0  0  0
   41.1120   31.7990   41.5400 O   0  0  0  0  0  0  0  0  0  0  0  0
   42.5390   33.5480   41.0760 N   0  0  0  0  0  0  0  0  0  0  0  0
   43.7920   34.0150   41.0210 C   0  0  0  0  0  0  0  0  0  0  0  0
   43.9070   35.2260   40.6310 O   0  0  0  0  0  0  0  0  0  0  0  0
   41.4030   34.3400   40.7260 C   0  0  0  0  0  0  0  0  0  0  0  0
   41.3660   35.6590   41.1200 C   0  0  0  0  0  0  0  0  0  0  0  0
   40.1590   36.2000   40.6540 C   0  0  0  0  0  0  0  0  0  0  0  0
   39.5230   35.1770   39.9960 N   0  0  0  0  0  0  0  0  0  0  0  0
   40.2640   34.0930   40.0460 N   0  0  0  0  0  0  0  0  0  0  0  0
   44.5510   35.4890   45.3170 C   0  0  0  0  0  0  0  0  0  0  0  0
   45.1080   35.5290   44.0400 C   0  0  0  0  0  0  0  0  0  0  0  0
   46.0160   34.5810   43.6330 C   0  0  0  0  0  0  0  0  0  0  0  0
   46.3570   33.5910   44.5220 N   0  0  0  0  0  0  0  0  0  0  0  0
   45.7980   33.5660   45.7770 C   0  0  0  0  0  0  0  0  0  0  0  0
   44.9160   34.4940   46.1590 N   0  0  0  0  0  0  0  0  0  0  0  0
   46.1730   32.5290   46.6710 N   0  0  0  0  0  0  0  0  0  0  0  0
   45.8790   32.6240   48.0820 C   0  0  0  0  0  0  0  0  0  0  0  0
   44.8170   31.5960   48.3900 C   0  0  0  0  0  0  0  0  0  0  0  0
   45.1840   30.3120   47.7150 C   0  0  0  0  0  0  0  0  0  0  0  0
   46.6310   30.2730   47.2530 C   0  0  0  0  0  0  0  0  0  0  0  0
   46.8610   31.3450   46.1900 C   0  0  0  0  0  0  0  0  0  0  0  0
   48.3049   35.6739   43.0632 H   0  0  0  0  0  0  0  0  0  0  0  0
   49.5333   35.6818   40.8849 H   0  0  0  0  0  0  0  0  0  0  0  0
   48.5141   34.5127   38.9028 H   0  0  0  0  0  0  0  0  0  0  0  0
   46.3071   33.3721   39.1603 H   0  0  0  0  0  0  0  0  0  0  0  0
   45.4754   31.3285   42.0383 H   0  0  0  0  0  0  0  0  0  0  0  0
   43.1789   30.4589   42.1426 H   0  0  0  0  0  0  0  0  0  0  0  0
   42.1398   36.1899   41.6939 H   0  0  0  0  0  0  0  0  0  0  0  0
   39.7972   37.2301   40.7880 H   0  0  0  0  0  0  0  0  0  0  0  0
   38.6053   35.2481   39.5338 H   0  0  0  0  0  0  0  0  0  0  0  0
   43.8268   36.2533   45.6353 H   0  0  0  0  0  0  0  0  0  0  0  0
   44.8163   36.3319   43.3470 H   0  0  0  0  0  0  0  0  0  0  0  0
   46.7852   32.4167   48.6700 H   0  0  0  0  0  0  0  0  0  0  0  0
   45.5289   33.6345   48.3395 H   0  0  0  0  0  0  0  0  0  0  0  0
   44.7576   31.4391   49.4771 H   0  0  0  0  0  0  0  0  0  0  0  0
   43.8396   31.9454   48.0260 H   0  0  0  0  0  0  0  0  0  0  0  0
   45.0200   29.4856   48.4222 H   0  0  0  0  0  0  0  0  0  0  0  0
   44.5516   30.2201   46.8197 H   0  0  0  0  0  0  0  0  0  0  0  0
   47.2938   30.4604   48.1106 H   0  0  0  0  0  0  0  0  0  0  0  0
   46.8504   29.2834   46.8258 H   0  0  0  0  0  0  0  0  0  0  0  0
   46.4426   31.0239   45.2247 H   0  0  0  0  0  0  0  0  0  0  0  0
   47.9326   31.5349   46.0301 H   0  0  0  0  0  0  0  0  0  0  0  0
  1 22  1  0
  2  1  2  0
  3  2  1  0
  4  5  1  0
  4  3  2  0
  5  6  2  0
  6  7  1  0
  6  1  1  0
  7  8  1  0
  8  9  2  0
 10 11  2  0
 10  9  1  0
 12 10  1  0
 13 12  1  0
 13  7  1  0
 14 13  2  0
 15 12  1  0
 15 16  1  0
 17 16  2  0
 18 19  1  0
 18 17  1  0
 19 15  2  0
 20 25  2  0
 21 20  1  0
 22 21  2  0
 22 23  1  0
 23 24  2  0
 24 25  1  0
 24 26  1  0
 26 27  1  0
 27 28  1  0
 29 28  1  0
 30 29  1  0
 31 26  1  0
 31 30  1  0
  2 32  1  0
  3 33  1  0
  4 34  1  0
  5 35  1  0
  8 36  1  0
  9 37  1  0
 16 38  1  0
 17 39  1  0
 18 40  1  0
 20 41  1  0
 21 42  1  0
 27 43  1  0
 27 44  1  0
 28 45  1  0
 28 46  1  0
 29 47  1  0
 29 48  1  0
 30 49  1  0
 30 50  1  0
 31 51  1  0
 31 52  1  0
M  ISO  8  32  14  33  14  34  14  35  14  36  14  37  14  38  14  39  14
M  ISO  8  40   9  41  14  42  14  43  13  44  13  45  13  46  13  47  13
M  ISO  5  48  13  49  13  50  13  51  13  52  13
M  END
>  <minimizedAffinity>  (1) 
-9.13223648

>  <minimizedRMSD>  (1) 
0.427895397

$$$$
