
     RDKit          3D

 47 51  0  0  0  0  0  0  0  0999 V2000
   46.5910   34.6450   42.2090 C   0  0  0  0  0  0  0  0  0  0  0  0
   47.7980   35.2620   42.0380 C   0  0  0  0  0  0  0  0  0  0  0  0
   48.5270   35.1510   40.8350 C   0  0  0  0  0  0  0  0  0  0  0  0
   47.9830   34.3800   39.7860 C   0  0  0  0  0  0  0  0  0  0  0  0
   46.7620   33.7620   39.9700 C   0  0  0  0  0  0  0  0  0  0  0  0
   46.0910   33.8990   41.1570 C   0  0  0  0  0  0  0  0  0  0  0  0
   44.8270   33.2450   41.3150 N   0  0  0  0  0  0  0  0  0  0  0  0
   44.6010   31.9900   41.7690 C   0  0  0  0  0  0  0  0  0  0  0  0
   43.3210   31.5080   41.8600 C   0  0  0  0  0  0  0  0  0  0  0  0
   42.2470   32.2790   41.4940 C   0  0  0  0  0  0  0  0  0  0  0  0
   41.0760   31.7990   41.5920 O   0  0  0  0  0  0  0  0  0  0  0  0
   42.5040   33.5310   41.0420 N   0  0  0  0  0  0  0  0  0  0  0  0
   43.7550   33.9980   40.9550 C   0  0  0  0  0  0  0  0  0  0  0  0
   43.8630   35.1860   40.5160 O   0  0  0  0  0  0  0  0  0  0  0  0
   41.3680   34.3030   40.6720 C   0  0  0  0  0  0  0  0  0  0  0  0
   41.3210   35.6470   41.0130 C   0  0  0  0  0  0  0  0  0  0  0  0
   40.1130   36.1500   40.5330 C   0  0  0  0  0  0  0  0  0  0  0  0
   39.4760   35.1140   39.9250 N   0  0  0  0  0  0  0  0  0  0  0  0
   40.2180   34.0430   40.0130 N   0  0  0  0  0  0  0  0  0  0  0  0
   44.4400   35.8970   45.0440 C   0  0  0  0  0  0  0  0  0  0  0  0
   45.0330   35.8330   43.7780 C   0  0  0  0  0  0  0  0  0  0  0  0
   45.9120   34.8170   43.4840 C   0  0  0  0  0  0  0  0  0  0  0  0
   46.1900   33.8770   44.4540 N   0  0  0  0  0  0  0  0  0  0  0  0
   45.5870   33.9760   45.6840 C   0  0  0  0  0  0  0  0  0  0  0  0
   44.7350   34.9580   45.9710 N   0  0  0  0  0  0  0  0  0  0  0  0
   45.9260   32.9470   46.6650 C   0  0  0  0  0  0  0  0  0  0  0  0
   45.1540   32.8000   47.8000 C   0  0  0  0  0  0  0  0  0  0  0  0
   45.4380   31.8400   48.7560 C   0  0  0  0  0  0  0  0  0  0  0  0
   46.5180   31.0230   48.5490 C   0  0  0  0  0  0  0  0  0  0  0  0
   47.2910   31.1690   47.4130 C   0  0  0  0  0  0  0  0  0  0  0  0
   47.0170   32.1300   46.4450 C   0  0  0  0  0  0  0  0  0  0  0  0
   48.2130   35.8621   42.8612 H   0  0  0  0  0  0  0  0  0  0  0  0
   49.4980   35.6544   40.7176 H   0  0  0  0  0  0  0  0  0  0  0  0
   48.5243   34.2727   38.8344 H   0  0  0  0  0  0  0  0  0  0  0  0
   46.3263   33.1575   39.1608 H   0  0  0  0  0  0  0  0  0  0  0  0
   45.4481   31.3542   42.0662 H   0  0  0  0  0  0  0  0  0  0  0  0
   43.1524   30.4868   42.2324 H   0  0  0  0  0  0  0  0  0  0  0  0
   42.0921   36.2098   41.5594 H   0  0  0  0  0  0  0  0  0  0  0  0
   39.7467   37.1829   40.6275 H   0  0  0  0  0  0  0  0  0  0  0  0
   38.5546   35.1657   39.4676 H   0  0  0  0  0  0  0  0  0  0  0  0
   43.7367   36.7080   45.2840 H   0  0  0  0  0  0  0  0  0  0  0  0
   44.7965   36.5938   43.0196 H   0  0  0  0  0  0  0  0  0  0  0  0
   44.2896   33.4638   47.9488 H   0  0  0  0  0  0  0  0  0  0  0  0
   44.8143   31.7361   49.6561 H   0  0  0  0  0  0  0  0  0  0  0  0
   46.7704   30.2490   49.2888 H   0  0  0  0  0  0  0  0  0  0  0  0
   48.1536   30.5018   47.2689 H   0  0  0  0  0  0  0  0  0  0  0  0
   47.6412   32.2341   45.5453 H   0  0  0  0  0  0  0  0  0  0  0  0
  1 22  1  0
  2  1  2  0
  3  2  1  0
  4  5  1  0
  4  3  2  0
  5  6  2  0
  6  7  1  0
  6  1  1  0
  7  8  1  0
  8  9  2  0
 10 11  2  0
 10  9  1  0
 12 10  1  0
 13 12  1  0
 13  7  1  0
 14 13  2  0
 15 16  1  0
 15 12  1  0
 17 16  2  0
 18 19  1  0
 18 17  1  0
 19 15  2  0
 20 25  2  0
 21 20  1  0
 22 21  2  0
 22 23  1  0
 23 24  2  0
 24 25  1  0
 24 26  1  0
 26 27  2  0
 27 28  1  0
 29 28  2  0
 30 29  1  0
 31 26  1  0
 31 30  2  0
  2 32  1  0
  3 33  1  0
  4 34  1  0
  5 35  1  0
  8 36  1  0
  9 37  1  0
 16 38  1  0
 17 39  1  0
 18 40  1  0
 20 41  1  0
 21 42  1  0
 27 43  1  0
 28 44  1  0
 29 45  1  0
 30 46  1  0
 31 47  1  0
M  ISO  8  32  14  33  14  34  14  35  14  36  14  37  14  38  14  39  14
M  ISO  8  40   9  41  14  42  14  43  14  44  14  45  14  46  14  47  14
M  END
>  <minimizedAffinity>  (1) 
-9.08359432

>  <minimizedRMSD>  (1) 
0.247756839

$$$$
