
     RDKit          3D

 43 47  0  0  0  0  0  0  0  0999 V2000
   46.6190   34.6070   42.2410 C   0  0  0  0  0  0  0  0  0  0  0  0
   47.8190   35.2250   42.0760 C   0  0  0  0  0  0  0  0  0  0  0  0
   48.5390   35.1700   40.8690 C   0  0  0  0  0  0  0  0  0  0  0  0
   47.9830   34.4450   39.8010 C   0  0  0  0  0  0  0  0  0  0  0  0
   46.7530   33.8090   39.9610 C   0  0  0  0  0  0  0  0  0  0  0  0
   46.1090   33.9080   41.1700 C   0  0  0  0  0  0  0  0  0  0  0  0
   44.8420   33.2430   41.3130 N   0  0  0  0  0  0  0  0  0  0  0  0
   44.6210   31.9820   41.7340 C   0  0  0  0  0  0  0  0  0  0  0  0
   43.3400   31.5020   41.8120 C   0  0  0  0  0  0  0  0  0  0  0  0
   42.2590   32.2770   41.4680 C   0  0  0  0  0  0  0  0  0  0  0  0
   41.0940   31.7970   41.5530 O   0  0  0  0  0  0  0  0  0  0  0  0
   42.5150   33.5440   41.0460 N   0  0  0  0  0  0  0  0  0  0  0  0
   43.7720   34.0130   40.9710 C   0  0  0  0  0  0  0  0  0  0  0  0
   43.8750   35.2010   40.5660 O   0  0  0  0  0  0  0  0  0  0  0  0
   41.3780   34.3280   40.6950 C   0  0  0  0  0  0  0  0  0  0  0  0
   41.3340   35.6620   41.0700 C   0  0  0  0  0  0  0  0  0  0  0  0
   40.1260   36.1890   40.6060 C   0  0  0  0  0  0  0  0  0  0  0  0
   39.4910   35.1490   39.9700 N   0  0  0  0  0  0  0  0  0  0  0  0
   40.2340   34.0740   40.0320 N   0  0  0  0  0  0  0  0  0  0  0  0
   44.4780   35.7280   45.1440 C   0  0  0  0  0  0  0  0  0  0  0  0
   45.0640   35.7020   43.8820 C   0  0  0  0  0  0  0  0  0  0  0  0
   45.9540   34.7240   43.5300 C   0  0  0  0  0  0  0  0  0  0  0  0
   46.2560   33.7640   44.4650 N   0  0  0  0  0  0  0  0  0  0  0  0
   45.6720   33.8040   45.7020 C   0  0  0  0  0  0  0  0  0  0  0  0
   44.7990   34.7720   46.0300 N   0  0  0  0  0  0  0  0  0  0  0  0
   46.0200   32.7510   46.6900 C   0  0  0  0  0  0  0  0  0  0  0  0
   47.0630   31.7630   46.5770 C   0  0  0  0  0  0  0  0  0  0  0  0
   46.8180   30.8880   48.1730 S   0  0  0  0  0  0  0  0  0  0  0  0
   45.4180   31.9540   48.6910 C   0  0  0  0  0  0  0  0  0  0  0  0
   45.1790   32.9020   47.6950 N   0  0  0  0  0  0  0  0  0  0  0  0
   48.2431   35.7899   42.9193 H   0  0  0  0  0  0  0  0  0  0  0  0
   49.5084   35.6792   40.7640 H   0  0  0  0  0  0  0  0  0  0  0  0
   48.5170   34.3797   38.8415 H   0  0  0  0  0  0  0  0  0  0  0  0
   46.3062   33.2380   39.1338 H   0  0  0  0  0  0  0  0  0  0  0  0
   45.4681   31.3388   42.0147 H   0  0  0  0  0  0  0  0  0  0  0  0
   43.1731   30.4714   42.1584 H   0  0  0  0  0  0  0  0  0  0  0  0
   42.1085   36.2061   41.6304 H   0  0  0  0  0  0  0  0  0  0  0  0
   39.7601   37.2195   40.7247 H   0  0  0  0  0  0  0  0  0  0  0  0
   38.5695   35.2072   39.5136 H   0  0  0  0  0  0  0  0  0  0  0  0
   43.7627   36.5198   45.4114 H   0  0  0  0  0  0  0  0  0  0  0  0
   44.8064   36.4838   43.1523 H   0  0  0  0  0  0  0  0  0  0  0  0
   47.7913   31.5853   45.7720 H   0  0  0  0  0  0  0  0  0  0  0  0
   44.8580   31.8612   49.6332 H   0  0  0  0  0  0  0  0  0  0  0  0
  1 22  1  0
  2  1  2  0
  3  2  1  0
  4  5  1  0
  4  3  2  0
  5  6  2  0
  6  7  1  0
  6  1  1  0
  7  8  1  0
  8  9  2  0
 10 11  2  0
 10  9  1  0
 12 10  1  0
 13 12  1  0
 13  7  1  0
 14 13  2  0
 15 12  1  0
 15 16  1  0
 17 16  2  0
 18 19  1  0
 18 17  1  0
 19 15  2  0
 20 25  2  0
 21 20  1  0
 22 21  2  0
 22 23  1  0
 23 24  2  0
 24 25  1  0
 24 26  1  0
 26 30  1  0
 27 26  2  0
 27 28  1  0
 28 29  1  0
 30 29  2  0
  2 31  1  0
  3 32  1  0
  4 33  1  0
  5 34  1  0
  8 35  1  0
  9 36  1  0
 16 37  1  0
 17 38  1  0
 18 39  1  0
 20 40  1  0
 21 41  1  0
 27 42  1  0
 29 43  1  0
M  ISO  8  31  14  32  14  33  14  34  14  35  14  36  14  37  14  38  14
M  ISO  5  39   9  40  14  41  14  42  14  43  14
M  END
>  <minimizedAffinity>  (1) 
-8.54752827

>  <minimizedRMSD>  (1) 
0.225368679

$$$$
