
     RDKit          3D

 32 35  0  0  0  0  0  0  0  0999 V2000
   47.6400   34.9010   41.8750 C   0  0  0  0  0  0  0  0  0  0  0  0
   47.8980   33.6170   41.2200 C   0  0  0  0  0  0  0  0  0  0  0  0
   47.8730   32.4570   41.9420 N   0  0  0  0  0  0  0  0  0  0  0  0
   48.0950   31.2480   41.3460 C   0  0  0  0  0  0  0  0  0  0  0  0
   48.3540   31.0860   40.0250 N   0  0  0  0  0  0  0  0  0  0  0  0
   48.3770   32.2520   39.3130 C   0  0  0  0  0  0  0  0  0  0  0  0
   48.6430   32.1330   37.9630 C   0  0  0  0  0  0  0  0  0  0  0  0
   48.6910   33.2660   37.1770 C   0  0  0  0  0  0  0  0  0  0  0  0
   48.4780   34.5280   37.7030 C   0  0  0  0  0  0  0  0  0  0  0  0
   48.2160   34.5880   39.0560 C   0  0  0  0  0  0  0  0  0  0  0  0
   48.1580   33.4900   39.8810 C   0  0  0  0  0  0  0  0  0  0  0  0
   44.0370   35.2130   41.9600 C   0  0  0  0  0  0  0  0  0  0  0  0
   44.3530   35.4390   43.2550 N   0  0  0  0  0  0  0  0  0  0  0  0
   45.6300   35.3640   43.4120 O   0  0  0  0  0  0  0  0  0  0  0  0
   46.1790   35.0930   42.2470 C   0  0  0  0  0  0  0  0  0  0  0  0
   45.1830   34.9940   41.3220 N   0  0  0  0  0  0  0  0  0  0  0  0
   41.5510   34.9170   39.1520 C   0  0  0  0  0  0  0  0  0  0  0  0
   42.8240   34.9450   39.7730 C   0  0  0  0  0  0  0  0  0  0  0  0
   42.8000   35.1550   41.1610 C   0  0  0  0  0  0  0  0  0  0  0  0
   41.6360   35.3180   41.8400 N   0  0  0  0  0  0  0  0  0  0  0  0
   40.4410   35.2770   41.1700 C   0  0  0  0  0  0  0  0  0  0  0  0
   40.4280   35.0760   39.8260 N   0  0  0  0  0  0  0  0  0  0  0  0
   47.9371   35.7097   41.1911 H   0  0  0  0  0  0  0  0  0  0  0  0
   48.2228   34.9184   42.8078 H   0  0  0  0  0  0  0  0  0  0  0  0
   48.0615   30.3484   41.9782 H   0  0  0  0  0  0  0  0  0  0  0  0
   48.8154   31.1421   37.5176 H   0  0  0  0  0  0  0  0  0  0  0  0
   48.9044   33.1632   36.1028 H   0  0  0  0  0  0  0  0  0  0  0  0
   48.5155   35.4322   37.0777 H   0  0  0  0  0  0  0  0  0  0  0  0
   48.0424   35.5778   39.5034 H   0  0  0  0  0  0  0  0  0  0  0  0
   41.4967   34.7564   38.0651 H   0  0  0  0  0  0  0  0  0  0  0  0
   43.7600   34.8123   39.2106 H   0  0  0  0  0  0  0  0  0  0  0  0
   39.4961   35.4063   41.7181 H   0  0  0  0  0  0  0  0  0  0  0  0
  1 15  1  0
  2  1  1  0
  2  3  2  0
  4  3  1  0
  5  4  2  0
  6 11  2  0
  6  5  1  0
  7  6  1  0
  8  9  1  0
  8  7  2  0
  9 10  2  0
 10 11  1  0
 11  2  1  0
 12 13  2  0
 13 14  1  0
 15 14  1  0
 16 12  1  0
 16 15  2  0
 17 18  2  0
 17 22  1  0
 18 19  1  0
 19 20  2  0
 19 12  1  0
 21 20  1  0
 22 21  2  0
  1 23  1  0
  1 24  1  0
  4 25  1  0
  7 26  1  0
  8 27  1  0
  9 28  1  0
 10 29  1  0
 17 30  1  0
 18 31  1  0
 21 32  1  0
M  ISO  8  23   8  24   8  25  14  26  14  27  14  28  14  29  14  30  14
M  ISO  2  31  14  32  14
M  END
>  <minimizedAffinity>  (1) 
-5.35163212

>  <minimizedRMSD>  (1) 
3.91050696

$$$$
