
     RDKit          3D

 26 28  0  0  0  0  0  0  0  0999 V2000
   47.0720   34.0020   42.5300 C   0  0  0  0  0  0  0  0  0  0  0  0
   47.8440   32.9210   42.2670 N   0  0  0  0  0  0  0  0  0  0  0  0
   48.4290   33.0720   41.1140 O   0  0  0  0  0  0  0  0  0  0  0  0
   48.0530   34.2300   40.6210 C   0  0  0  0  0  0  0  0  0  0  0  0
   47.2040   34.8270   41.4940 N   0  0  0  0  0  0  0  0  0  0  0  0
   44.5550   35.8330   44.6280 C   0  0  0  0  0  0  0  0  0  0  0  0
   45.3450   35.5380   43.4970 C   0  0  0  0  0  0  0  0  0  0  0  0
   46.1930   34.4270   43.6220 C   0  0  0  0  0  0  0  0  0  0  0  0
   46.2280   33.7030   44.7720 N   0  0  0  0  0  0  0  0  0  0  0  0
   45.4400   34.0430   45.8230 C   0  0  0  0  0  0  0  0  0  0  0  0
   44.6050   35.1110   45.7430 N   0  0  0  0  0  0  0  0  0  0  0  0
   48.4540   34.8650   39.3090 C   0  0  0  0  0  0  0  0  0  0  0  0
   48.0700   33.9940   38.1680 C   0  0  0  0  0  0  0  0  0  0  0  0
   46.8340   33.3810   38.2130 C   0  0  0  0  0  0  0  0  0  0  0  0
   46.4740   32.5710   37.1540 C   0  0  0  0  0  0  0  0  0  0  0  0
   47.3160   32.3980   36.1180 N   0  0  0  0  0  0  0  0  0  0  0  0
   48.5160   32.9980   36.0820 C   0  0  0  0  0  0  0  0  0  0  0  0
   48.9090   33.8050   37.1080 N   0  0  0  0  0  0  0  0  0  0  0  0
   43.8713   36.6937   44.5855 H   0  0  0  0  0  0  0  0  0  0  0  0
   45.2992   36.1396   42.5772 H   0  0  0  0  0  0  0  0  0  0  0  0
   45.4779   33.4485   46.7477 H   0  0  0  0  0  0  0  0  0  0  0  0
   47.9485   35.8368   39.2082 H   0  0  0  0  0  0  0  0  0  0  0  0
   49.5455   35.0013   39.2997 H   0  0  0  0  0  0  0  0  0  0  0  0
   46.1566   33.5330   39.0662 H   0  0  0  0  0  0  0  0  0  0  0  0
   45.4968   32.0659   37.1570 H   0  0  0  0  0  0  0  0  0  0  0  0
   49.1839   32.8382   35.2227 H   0  0  0  0  0  0  0  0  0  0  0  0
  1  8  1  0
  2  1  2  0
  3  2  1  0
  4  3  1  0
  4  5  2  0
  5  1  1  0
  6 11  2  0
  7  8  2  0
  7  6  1  0
  8  9  1  0
  9 10  2  0
 11 10  1  0
 12  4  1  0
 13 14  2  0
 13 12  1  0
 15 14  1  0
 16 15  2  0
 17 16  1  0
 17 18  2  0
 18 13  1  0
  6 19  1  0
  7 20  1  0
 10 21  1  0
 12 22  1  0
 12 23  1  0
 14 24  1  0
 15 25  1  0
 17 26  1  0
M  ISO  8  19  14  20  14  21  14  22   8  23   8  24  14  25  14  26  14
M  END
>  <minimizedAffinity>  (1) 
-4.76661968

>  <minimizedRMSD>  (1) 
2.49762607

$$$$
