
     RDKit          3D

 25 27  0  0  0  0  0  0  0  0999 V2000
   45.8890   34.1420   41.8300 C   0  0  0  0  0  0  0  0  0  0  0  0
   45.4020   33.3370   40.8550 N   0  0  0  0  0  0  0  0  0  0  0  0
   46.1990   33.3820   39.8300 O   0  0  0  0  0  0  0  0  0  0  0  0
   47.1970   34.1970   40.1130 C   0  0  0  0  0  0  0  0  0  0  0  0
   47.0130   34.6820   41.3670 N   0  0  0  0  0  0  0  0  0  0  0  0
   44.4620   35.9480   44.8000 C   0  0  0  0  0  0  0  0  0  0  0  0
   44.7980   35.7110   43.4500 C   0  0  0  0  0  0  0  0  0  0  0  0
   45.4790   34.5180   43.1770 C   0  0  0  0  0  0  0  0  0  0  0  0
   45.7790   33.6620   44.1960 N   0  0  0  0  0  0  0  0  0  0  0  0
   45.4300   33.9430   45.4740 C   0  0  0  0  0  0  0  0  0  0  0  0
   44.7720   35.0900   45.7620 N   0  0  0  0  0  0  0  0  0  0  0  0
   48.3700   34.5710   39.2420 C   0  0  0  0  0  0  0  0  0  0  0  0
   48.2820   33.8760   37.9260 C   0  0  0  0  0  0  0  0  0  0  0  0
   49.2290   32.9820   37.4630 C   0  0  0  0  0  0  0  0  0  0  0  0
   48.8400   32.5500   36.2540 N   0  0  0  0  0  0  0  0  0  0  0  0
   47.6720   33.1660   35.9750 C   0  0  0  0  0  0  0  0  0  0  0  0
   47.3110   33.9850   36.9870 N   0  0  0  0  0  0  0  0  0  0  0  0
   43.9267   36.8726   45.0620 H   0  0  0  0  0  0  0  0  0  0  0  0
   44.5388   36.4252   42.6545 H   0  0  0  0  0  0  0  0  0  0  0  0
   45.6819   33.2376   46.2796 H   0  0  0  0  0  0  0  0  0  0  0  0
   48.3678   35.6588   39.0784 H   0  0  0  0  0  0  0  0  0  0  0  0
   49.2996   34.2666   39.7451 H   0  0  0  0  0  0  0  0  0  0  0  0
   50.1431   32.6776   37.9938 H   0  0  0  0  0  0  0  0  0  0  0  0
   47.0935   33.0211   35.0507 H   0  0  0  0  0  0  0  0  0  0  0  0
   46.4673   34.5739   37.0352 H   0  0  0  0  0  0  0  0  0  0  0  0
  1  8  1  0
  2  1  2  0
  3  4  1  0
  3  2  1  0
  4  5  2  0
  5  1  1  0
  6 11  2  0
  7  6  1  0
  8  7  2  0
  8  9  1  0
  9 10  2  0
 10 11  1  0
 12  4  1  0
 13 12  1  0
 14 13  2  0
 15 14  1  0
 16 15  2  0
 16 17  1  0
 17 13  1  0
  6 18  1  0
  7 19  1  0
 10 20  1  0
 12 21  1  0
 12 22  1  0
 14 23  1  0
 16 24  1  0
 17 25  1  0
M  ISO  8  18  14  19  14  20  14  21   8  22   8  23  14  24  14  25   9
M  END
>  <minimizedAffinity>  (1) 
-4.56292105

>  <minimizedRMSD>  (1) 
1.94870257

$$$$
