
     RDKit          3D

 25 27  0  0  0  0  0  0  0  0999 V2000
   45.8450   34.1840   41.8750 C   0  0  0  0  0  0  0  0  0  0  0  0
   45.3610   33.4650   40.8610 N   0  0  0  0  0  0  0  0  0  0  0  0
   46.1720   33.4910   39.8490 O   0  0  0  0  0  0  0  0  0  0  0  0
   47.2110   34.2370   40.1910 C   0  0  0  0  0  0  0  0  0  0  0  0
   47.0210   34.6760   41.4520 N   0  0  0  0  0  0  0  0  0  0  0  0
   44.4360   35.9470   44.8660 C   0  0  0  0  0  0  0  0  0  0  0  0
   44.7580   35.7300   43.5270 C   0  0  0  0  0  0  0  0  0  0  0  0
   45.4410   34.5410   43.2280 C   0  0  0  0  0  0  0  0  0  0  0  0
   45.7480   33.6790   44.2330 N   0  0  0  0  0  0  0  0  0  0  0  0
   45.4080   33.9430   45.5150 C   0  0  0  0  0  0  0  0  0  0  0  0
   44.7500   35.0840   45.8260 N   0  0  0  0  0  0  0  0  0  0  0  0
   48.4260   34.5750   39.3570 C   0  0  0  0  0  0  0  0  0  0  0  0
   48.5780   33.7020   38.1920 C   0  0  0  0  0  0  0  0  0  0  0  0
   48.2300   33.9560   36.8390 C   0  0  0  0  0  0  0  0  0  0  0  0
   48.4830   32.9570   35.9540 C   0  0  0  0  0  0  0  0  0  0  0  0
   49.0420   31.7890   36.3920 C   0  0  0  0  0  0  0  0  0  0  0  0
   49.2620   32.0310   38.1760 S   0  0  0  0  0  0  0  0  0  0  0  0
   43.9010   36.8688   45.1382 H   0  0  0  0  0  0  0  0  0  0  0  0
   44.4901   36.4546   42.7439 H   0  0  0  0  0  0  0  0  0  0  0  0
   45.6675   33.2270   46.3087 H   0  0  0  0  0  0  0  0  0  0  0  0
   48.3338   35.6139   39.0074 H   0  0  0  0  0  0  0  0  0  0  0  0
   49.3124   34.4342   39.9929 H   0  0  0  0  0  0  0  0  0  0  0  0
   47.7802   34.9094   36.5248 H   0  0  0  0  0  0  0  0  0  0  0  0
   48.2391   33.0874   34.8893 H   0  0  0  0  0  0  0  0  0  0  0  0
   49.3005   30.9013   35.7961 H   0  0  0  0  0  0  0  0  0  0  0  0
  1  8  1  0
  2  1  2  0
  3  4  1  0
  3  2  1  0
  4  5  2  0
  5  1  1  0
  6 11  2  0
  7  6  1  0
  8  7  2  0
  8  9  1  0
  9 10  2  0
 10 11  1  0
 12  4  1  0
 13 12  1  0
 14 13  2  0
 15 16  2  0
 15 14  1  0
 16 17  1  0
 17 13  1  0
  6 18  1  0
  7 19  1  0
 10 20  1  0
 12 21  1  0
 12 22  1  0
 14 23  1  0
 15 24  1  0
 16 25  1  0
M  ISO  8  18  14  19  14  20  14  21   8  22   8  23  14  24  14  25  14
M  END
>  <minimizedAffinity>  (1) 
-4.35751343

>  <minimizedRMSD>  (1) 
1.72164762

$$$$
