
     RDKit          3D

 25 27  0  0  0  0  0  0  0  0999 V2000
   45.5360   34.1490   41.6760 C   0  0  0  0  0  0  0  0  0  0  0  0
   44.8650   33.5930   40.6530 N   0  0  0  0  0  0  0  0  0  0  0  0
   45.6400   33.4700   39.6170 O   0  0  0  0  0  0  0  0  0  0  0  0
   46.8250   33.9380   39.9370 C   0  0  0  0  0  0  0  0  0  0  0  0
   46.7790   34.3680   41.2220 N   0  0  0  0  0  0  0  0  0  0  0  0
   44.4420   35.9860   44.7480 C   0  0  0  0  0  0  0  0  0  0  0  0
   44.6520   35.7360   43.3890 C   0  0  0  0  0  0  0  0  0  0  0  0
   45.2570   34.5380   43.0480 C   0  0  0  0  0  0  0  0  0  0  0  0
   45.6260   33.6510   44.0330 N   0  0  0  0  0  0  0  0  0  0  0  0
   45.3950   33.9490   45.3430 C   0  0  0  0  0  0  0  0  0  0  0  0
   44.8020   35.1220   45.6810 N   0  0  0  0  0  0  0  0  0  0  0  0
   48.0730   34.0200   39.0840 C   0  0  0  0  0  0  0  0  0  0  0  0
   48.9640   32.9310   39.5490 C   0  0  0  0  0  0  0  0  0  0  0  0
   49.3240   31.8530   38.7340 C   0  0  0  0  0  0  0  0  0  0  0  0
   50.1640   30.9890   39.4300 C   0  0  0  0  0  0  0  0  0  0  0  0
   50.2660   31.6110   40.6630 C   0  0  0  0  0  0  0  0  0  0  0  0
   49.5700   32.7130   40.6950 O   0  0  0  0  0  0  0  0  0  0  0  0
   43.9632   36.9292   45.0497 H   0  0  0  0  0  0  0  0  0  0  0  0
   44.3486   36.4623   42.6206 H   0  0  0  0  0  0  0  0  0  0  0  0
   45.6899   33.2371   46.1280 H   0  0  0  0  0  0  0  0  0  0  0  0
   48.5624   34.9961   39.2171 H   0  0  0  0  0  0  0  0  0  0  0  0
   47.8355   33.9147   38.0151 H   0  0  0  0  0  0  0  0  0  0  0  0
   48.9919   31.7092   37.6952 H   0  0  0  0  0  0  0  0  0  0  0  0
   50.6281   30.0520   39.0883 H   0  0  0  0  0  0  0  0  0  0  0  0
   50.8577   31.2253   41.5063 H   0  0  0  0  0  0  0  0  0  0  0  0
  1  8  1  0
  2  1  2  0
  3  4  1  0
  3  2  1  0
  4  5  2  0
  5  1  1  0
  6 11  2  0
  7  6  1  0
  8  7  2  0
  8  9  1  0
  9 10  2  0
 10 11  1  0
 12 13  1  0
 12  4  1  0
 13 17  1  0
 14 15  1  0
 14 13  2  0
 15 16  2  0
 16 17  1  0
  6 18  1  0
  7 19  1  0
 10 20  1  0
 12 21  1  0
 12 22  1  0
 14 23  1  0
 15 24  1  0
 16 25  1  0
M  ISO  8  18  14  19  14  20  14  21   8  22   8  23  14  24  14  25  14
M  END
>  <minimizedAffinity>  (1) 
-4.08431435

>  <minimizedRMSD>  (1) 
0.721108913

$$$$
