
     RDKit          3D

 25 27  0  0  0  0  0  0  0  0999 V2000
   45.6950   33.9710   41.6650 C   0  0  0  0  0  0  0  0  0  0  0  0
   45.1360   33.1340   40.7610 N   0  0  0  0  0  0  0  0  0  0  0  0
   45.8880   33.0800   39.7000 O   0  0  0  0  0  0  0  0  0  0  0  0
   46.9360   33.8750   39.9020 C   0  0  0  0  0  0  0  0  0  0  0  0
   46.8200   34.4310   41.1240 N   0  0  0  0  0  0  0  0  0  0  0  0
   44.4840   36.0320   44.5670 C   0  0  0  0  0  0  0  0  0  0  0  0
   44.7560   35.7010   43.2190 C   0  0  0  0  0  0  0  0  0  0  0  0
   45.3610   34.4490   43.0080 C   0  0  0  0  0  0  0  0  0  0  0  0
   45.6510   33.6380   44.0600 N   0  0  0  0  0  0  0  0  0  0  0  0
   45.3610   34.0210   45.3250 C   0  0  0  0  0  0  0  0  0  0  0  0
   44.7790   35.2200   45.5660 N   0  0  0  0  0  0  0  0  0  0  0  0
   48.0810   34.1400   38.9610 C   0  0  0  0  0  0  0  0  0  0  0  0
   48.8930   32.9530   38.9150 N   0  0  0  0  0  0  0  0  0  0  0  0
   49.3050   32.4540   37.7330 C   0  0  0  0  0  0  0  0  0  0  0  0
   50.0530   31.3340   37.9940 C   0  0  0  0  0  0  0  0  0  0  0  0
   50.0810   31.1740   39.3480 N   0  0  0  0  0  0  0  0  0  0  0  0
   49.3580   32.1830   39.9150 C   0  0  0  0  0  0  0  0  0  0  0  0
   44.0104   36.9992   44.7911 H   0  0  0  0  0  0  0  0  0  0  0  0
   44.5101   36.3794   42.3888 H   0  0  0  0  0  0  0  0  0  0  0  0
   45.6001   33.3525   46.1652 H   0  0  0  0  0  0  0  0  0  0  0  0
   47.6952   34.3692   37.9567 H   0  0  0  0  0  0  0  0  0  0  0  0
   48.6739   34.9992   39.3079 H   0  0  0  0  0  0  0  0  0  0  0  0
   49.0820   32.8694   36.7391 H   0  0  0  0  0  0  0  0  0  0  0  0
   50.5394   30.6860   37.2500 H   0  0  0  0  0  0  0  0  0  0  0  0
   49.1872   32.3379   40.9906 H   0  0  0  0  0  0  0  0  0  0  0  0
  1  8  1  0
  2  1  2  0
  3  4  1  0
  3  2  1  0
  4  5  2  0
  5  1  1  0
  6 11  2  0
  7  6  1  0
  8  7  2  0
  8  9  1  0
  9 10  2  0
 10 11  1  0
 12  4  1  0
 13 12  1  0
 13 17  1  0
 14 15  2  0
 14 13  1  0
 15 16  1  0
 16 17  2  0
  6 18  1  0
  7 19  1  0
 10 20  1  0
 12 21  1  0
 12 22  1  0
 14 23  1  0
 15 24  1  0
 17 25  1  0
M  ISO  8  18  14  19  14  20  14  21   8  22   8  23  14  24  14  25  14
M  END
>  <minimizedAffinity>  (1) 
-4.01606321

>  <minimizedRMSD>  (1) 
0.624055922

$$$$
