
     RDKit          3D

 20 21  0  0  0  0  0  0  0  0999 V2000
   45.6380   34.1840   41.6560 C   0  0  0  0  0  0  0  0  0  0  0  0
   44.9460   33.8730   40.5460 N   0  0  0  0  0  0  0  0  0  0  0  0
   45.7830   33.6220   39.5710 O   0  0  0  0  0  0  0  0  0  0  0  0
   47.0110   33.7670   40.0330 C   0  0  0  0  0  0  0  0  0  0  0  0
   46.9320   34.1170   41.3320 N   0  0  0  0  0  0  0  0  0  0  0  0
   44.4600   35.9950   44.7280 C   0  0  0  0  0  0  0  0  0  0  0  0
   44.7100   35.7440   43.3770 C   0  0  0  0  0  0  0  0  0  0  0  0
   45.3270   34.5530   43.0360 C   0  0  0  0  0  0  0  0  0  0  0  0
   45.6790   33.6490   44.0180 N   0  0  0  0  0  0  0  0  0  0  0  0
   45.4040   33.9590   45.3260 C   0  0  0  0  0  0  0  0  0  0  0  0
   44.8020   35.1220   45.6580 N   0  0  0  0  0  0  0  0  0  0  0  0
   48.2960   33.5800   39.2750 C   0  0  0  0  0  0  0  0  0  0  0  0
   48.7120   34.8060   38.6390 N   0  0  0  0  0  0  0  0  0  0  0  0
   43.9703   36.9351   45.0221 H   0  0  0  0  0  0  0  0  0  0  0  0
   44.4242   36.4733   42.6047 H   0  0  0  0  0  0  0  0  0  0  0  0
   45.6787   33.2476   46.1188 H   0  0  0  0  0  0  0  0  0  0  0  0
   49.0805   33.2548   39.9742 H   0  0  0  0  0  0  0  0  0  0  0  0
   48.1319   32.8222   38.4947 H   0  0  0  0  0  0  0  0  0  0  0  0
   48.9486   35.5033   39.3592 H   0  0  0  0  0  0  0  0  0  0  0  0
   49.5386   34.6249   38.0518 H   0  0  0  0  0  0  0  0  0  0  0  0
  1  8  1  0
  2  1  2  0
  3  4  1  0
  3  2  1  0
  4  5  2  0
  5  1  1  0
  6 11  2  0
  7  6  1  0
  8  7  2  0
  8  9  1  0
  9 10  2  0
 10 11  1  0
 12  4  1  0
 13 12  1  0
  6 14  1  0
  7 15  1  0
 10 16  1  0
 12 17  1  0
 12 18  1  0
 13 19  1  0
 13 20  1  0
M  ISO  7  14  14  15  14  16  14  17   8  18   8  19   5  20   5
M  END
>  <minimizedAffinity>  (1) 
-3.91089344

>  <minimizedRMSD>  (1) 
0.421365798

$$$$
