
     RDKit          3D

 23 25  0  0  0  0  0  0  0  0999 V2000
   44.7280   35.1880   45.6110 C   0  0  0  0  0  0  0  0  0  0  0  0
   44.4460   35.9260   44.4400 C   0  0  0  0  0  0  0  0  0  0  0  0
   44.9970   35.4680   43.2320 C   0  0  0  0  0  0  0  0  0  0  0  0
   45.7620   34.3570   43.2390 N   0  0  0  0  0  0  0  0  0  0  0  0
   46.0110   33.6720   44.3870 C   0  0  0  0  0  0  0  0  0  0  0  0
   45.5040   34.0760   45.5620 N   0  0  0  0  0  0  0  0  0  0  0  0
   46.8180   32.4920   44.4180 N   0  0  0  0  0  0  0  0  0  0  0  0
   47.6560   32.3300   43.3660 C   0  0  0  0  0  0  0  0  0  0  0  0
   48.3280   31.1290   43.6150 C   0  0  0  0  0  0  0  0  0  0  0  0
   47.8880   30.6120   44.7820 N   0  0  0  0  0  0  0  0  0  0  0  0
   46.9650   31.4420   45.2770 C   0  0  0  0  0  0  0  0  0  0  0  0
   46.1630   31.4280   46.4560 N   0  0  0  0  0  0  0  0  0  0  0  0
   45.7400   32.4800   47.1550 C   0  0  0  0  0  0  0  0  0  0  0  0
   45.0050   32.0680   48.2070 N   0  0  0  0  0  0  0  0  0  0  0  0
   44.9930   30.7160   48.1250 C   0  0  0  0  0  0  0  0  0  0  0  0
   45.7090   30.3230   47.0440 N   0  0  0  0  0  0  0  0  0  0  0  0
   44.3133   35.5189   46.5746 H   0  0  0  0  0  0  0  0  0  0  0  0
   43.8169   36.8278   44.4731 H   0  0  0  0  0  0  0  0  0  0  0  0
   44.8072   36.0081   42.2927 H   0  0  0  0  0  0  0  0  0  0  0  0
   47.7810   32.9991   42.5019 H   0  0  0  0  0  0  0  0  0  0  0  0
   49.0921   30.6782   42.9647 H   0  0  0  0  0  0  0  0  0  0  0  0
   45.9583   33.5299   46.9099 H   0  0  0  0  0  0  0  0  0  0  0  0
   44.4812   30.0416   48.8273 H   0  0  0  0  0  0  0  0  0  0  0  0
  2  1  2  0
  3  4  2  0
  3  2  1  0
  4  5  1  0
  5  7  1  0
  5  6  2  0
  6  1  1  0
  7 11  1  0
  8  9  2  0
  8  7  1  0
  9 10  1  0
 10 11  2  0
 11 12  1  0
 12 16  1  0
 12 13  1  0
 13 14  2  0
 15 14  1  0
 16 15  2  0
  1 17  1  0
  2 18  1  0
  3 19  1  0
  8 20  1  0
  9 21  1  0
 13 22  1  0
 15 23  1  0
M  ISO  7  17  14  18  14  19  14  20  14  21  14  22  14  23  14
M  END
>  <minimizedAffinity>  (1) 
-4.77077723

>  <minimizedRMSD>  (1) 
3.11503839

$$$$
