
     RDKit          3D

 35 37  0  0  0  0  0  0  0  0999 V2000
   44.9900   34.5930   41.7370 C   0  0  0  0  0  0  0  0  0  0  0  0
   46.2980   34.8440   41.9210 N   0  0  0  0  0  0  0  0  0  0  0  0
   46.5830   34.8330   43.1850 O   0  0  0  0  0  0  0  0  0  0  0  0
   45.4800   34.5780   43.8490 C   0  0  0  0  0  0  0  0  0  0  0  0
   44.4780   34.4260   42.9500 N   0  0  0  0  0  0  0  0  0  0  0  0
   43.3750   33.5360   38.5090 C   0  0  0  0  0  0  0  0  0  0  0  0
   44.3110   33.5720   39.5580 C   0  0  0  0  0  0  0  0  0  0  0  0
   44.0850   34.4720   40.5990 C   0  0  0  0  0  0  0  0  0  0  0  0
   42.9950   35.2750   40.5800 N   0  0  0  0  0  0  0  0  0  0  0  0
   42.1180   35.2050   39.5450 C   0  0  0  0  0  0  0  0  0  0  0  0
   42.3080   34.3360   38.5110 N   0  0  0  0  0  0  0  0  0  0  0  0
   45.2630   34.4540   45.3330 C   0  0  0  0  0  0  0  0  0  0  0  0
   46.3910   33.1780   45.9440 S   0  0  0  0  0  0  0  0  0  0  0  0
   45.6170   32.1060   47.1620 C   0  0  0  0  0  0  0  0  0  0  0  0
   46.2550   32.2090   48.5140 C   0  0  0  0  0  0  0  0  0  0  0  0
   45.3300   31.4550   49.4740 C   0  0  0  0  0  0  0  0  0  0  0  0
   45.1040   30.0400   49.0230 C   0  0  0  0  0  0  0  0  0  0  0  0
   45.8650   29.6730   47.7710 C   0  0  0  0  0  0  0  0  0  0  0  0
   45.7170   30.6780   46.6750 C   0  0  0  0  0  0  0  0  0  0  0  0
   43.5254   32.8367   37.6733 H   0  0  0  0  0  0  0  0  0  0  0  0
   45.1915   32.9126   39.5574 H   0  0  0  0  0  0  0  0  0  0  0  0
   41.2363   35.8628   39.5407 H   0  0  0  0  0  0  0  0  0  0  0  0
   45.4794   35.4135   45.8255 H   0  0  0  0  0  0  0  0  0  0  0  0
   44.2190   34.1840   45.5503 H   0  0  0  0  0  0  0  0  0  0  0  0
   44.5696   32.4232   47.2726 H   0  0  0  0  0  0  0  0  0  0  0  0
   47.2530   31.7466   48.5022 H   0  0  0  0  0  0  0  0  0  0  0  0
   46.3858   33.2575   48.8197 H   0  0  0  0  0  0  0  0  0  0  0  0
   45.7867   31.4426   50.4746 H   0  0  0  0  0  0  0  0  0  0  0  0
   44.3584   31.9705   49.4934 H   0  0  0  0  0  0  0  0  0  0  0  0
   45.4184   29.3634   49.8314 H   0  0  0  0  0  0  0  0  0  0  0  0
   44.0336   29.9445   48.7882 H   0  0  0  0  0  0  0  0  0  0  0  0
   46.9321   29.5860   48.0236 H   0  0  0  0  0  0  0  0  0  0  0  0
   45.4484   28.7241   47.4022 H   0  0  0  0  0  0  0  0  0  0  0  0
   44.8045   30.4407   46.1085 H   0  0  0  0  0  0  0  0  0  0  0  0
   46.6258   30.6140   46.0585 H   0  0  0  0  0  0  0  0  0  0  0  0
  1  2  2  0
  1  5  1  0
  2  3  1  0
  3  4  1  0
  4 12  1  0
  5  4  2  0
  6 11  2  0
  6  7  1  0
  7  8  2  0
  8  1  1  0
  9  8  1  0
 10  9  2  0
 11 10  1  0
 12 13  1  0
 13 14  1  0
 14 15  1  0
 15 16  1  0
 17 16  1  0
 18 17  1  0
 19 14  1  0
 19 18  1  0
  6 20  1  0
  7 21  1  0
 10 22  1  0
 12 23  1  0
 12 24  1  0
 14 25  1  0
 15 26  1  0
 15 27  1  0
 16 28  1  0
 16 29  1  0
 17 30  1  0
 17 31  1  0
 18 32  1  0
 18 33  1  0
 19 34  1  0
 19 35  1  0
M  ISO  8  20  14  21  14  22  14  23   8  24   8  25  13  26  13  27  13
M  ISO  8  28  13  29  13  30  13  31  13  32  13  33  13  34  13  35  13
M  END
>  <minimizedAffinity>  (1) 
-4.96771002

>  <minimizedRMSD>  (1) 
8.03153896

$$$$
