
     RDKit          3D

 36 38  0  0  1  0  0  0  0  0999 V2000
   47.7830   34.9930   41.1100 C   0  0  2  0  0  0  0  0  0  0  0  0
   49.0030   35.6520   41.4930 C   0  0  0  0  0  0  0  0  0  0  0  0
   49.7740   34.6980   42.4240 C   0  0  0  0  0  0  0  0  0  0  0  0
   48.9780   33.4140   42.5150 C   0  0  0  0  0  0  0  0  0  0  0  0
   47.6150   33.8510   42.1640 C   0  0  1  0  0  0  0  0  0  0  0  0
   47.6920   34.3140   39.8050 C   0  0  0  0  0  0  0  0  0  0  0  0
   48.5300   34.7340   38.7710 C   0  0  0  0  0  0  0  0  0  0  0  0
   48.4770   34.1110   37.5360 C   0  0  0  0  0  0  0  0  0  0  0  0
   47.5790   33.0920   37.4090 N   0  0  0  0  0  0  0  0  0  0  0  0
   46.7760   32.6970   38.4150 C   0  0  0  0  0  0  0  0  0  0  0  0
   46.8410   33.3190   39.6170 N   0  0  0  0  0  0  0  0  0  0  0  0
   46.9290   34.4320   43.3630 C   0  0  0  0  0  0  0  0  0  0  0  0
   45.7730   35.2870   42.9500 C   0  0  0  0  0  0  0  0  0  0  0  0
   44.6880   34.5710   42.2480 C   0  0  0  0  0  0  0  0  0  0  0  0
   44.0110   35.1090   41.2050 C   0  0  0  0  0  0  0  0  0  0  0  0
   43.0640   34.1690   40.7850 C   0  0  0  0  0  0  0  0  0  0  0  0
   43.2390   33.0890   41.6310 C   0  0  0  0  0  0  0  0  0  0  0  0
   44.1920   33.3770   42.4570 O   0  0  0  0  0  0  0  0  0  0  0  0
   47.0368   35.7989   41.0494 H   0  0  0  0  0  0  0  0  0  0  0  0
   49.6060   35.8737   40.6001 H   0  0  0  0  0  0  0  0  0  0  0  0
   48.7856   36.6007   42.0056 H   0  0  0  0  0  0  0  0  0  0  0  0
   50.7721   34.4931   42.0096 H   0  0  0  0  0  0  0  0  0  0  0  0
   49.9029   35.1468   43.4200 H   0  0  0  0  0  0  0  0  0  0  0  0
   49.3505   32.6651   41.8006 H   0  0  0  0  0  0  0  0  0  0  0  0
   49.0407   32.9310   43.5013 H   0  0  0  0  0  0  0  0  0  0  0  0
   47.0225   33.0036   41.7887 H   0  0  0  0  0  0  0  0  0  0  0  0
   49.2344   35.5622   38.9379 H   0  0  0  0  0  0  0  0  0  0  0  0
   49.1240   34.4209   36.7021 H   0  0  0  0  0  0  0  0  0  0  0  0
   46.0675   31.8697   38.2611 H   0  0  0  0  0  0  0  0  0  0  0  0
   46.5630   33.6140   44.0009 H   0  0  0  0  0  0  0  0  0  0  0  0
   47.6490   35.0543   43.9146 H   0  0  0  0  0  0  0  0  0  0  0  0
   45.3488   35.7478   43.8543 H   0  0  0  0  0  0  0  0  0  0  0  0
   46.1724   36.0199   42.2335 H   0  0  0  0  0  0  0  0  0  0  0  0
   44.1761   36.1047   40.7676 H   0  0  0  0  0  0  0  0  0  0  0  0
   42.3397   34.2672   39.9630 H   0  0  0  0  0  0  0  0  0  0  0  0
   42.6677   32.1493   41.6059 H   0  0  0  0  0  0  0  0  0  0  0  0
  1  2  1  0
  1  5  1  0
  2  3  1  0
  3  4  1  0
  5  4  1  0
  5 12  1  0
  6  1  1  0
  7  6  2  0
  8  7  1  0
  9  8  2  0
  9 10  1  0
 10 11  2  0
 11  6  1  0
 13 12  1  0
 14 18  1  0
 14 13  1  0
 15 14  2  0
 16 15  1  0
 16 17  2  0
 17 18  1  0
  1 19  1  6
  2 20  1  0
  2 21  1  0
  3 22  1  0
  3 23  1  0
  4 24  1  0
  4 25  1  0
  5 26  1  6
  7 27  1  0
  8 28  1  0
 10 29  1  0
 12 30  1  0
 12 31  1  0
 13 32  1  0
 13 33  1  0
 15 34  1  0
 16 35  1  0
 17 36  1  0
M  ISO  8  19  13  20  13  21  13  22  13  23  13  24  13  25  13  26  13
M  ISO  8  27  14  28  14  29  14  30   8  31   8  32   8  33   8  34  14
M  ISO  2  35  14  36  14
M  END
>  <minimizedAffinity>  (1) 
-4.91839457

>  <minimizedRMSD>  (1) 
0.844189405

$$$$
