
     RDKit          3D

 34 36  0  0  0  0  0  0  0  0999 V2000
   45.6430   34.1900   41.6800 C   0  0  0  0  0  0  0  0  0  0  0  0
   44.9880   33.7000   40.6210 N   0  0  0  0  0  0  0  0  0  0  0  0
   45.8020   33.5750   39.6130 O   0  0  0  0  0  0  0  0  0  0  0  0
   46.9910   33.9770   39.9930 C   0  0  0  0  0  0  0  0  0  0  0  0
   46.9020   34.3640   41.2820 N   0  0  0  0  0  0  0  0  0  0  0  0
   44.4550   36.0040   44.7560 C   0  0  0  0  0  0  0  0  0  0  0  0
   44.7110   35.7560   43.3970 C   0  0  0  0  0  0  0  0  0  0  0  0
   45.3320   34.5510   43.0620 C   0  0  0  0  0  0  0  0  0  0  0  0
   45.6660   33.6720   44.0260 N   0  0  0  0  0  0  0  0  0  0  0  0
   45.4030   33.9480   45.3400 C   0  0  0  0  0  0  0  0  0  0  0  0
   44.7970   35.1160   45.6920 N   0  0  0  0  0  0  0  0  0  0  0  0
   48.2590   34.0250   39.1870 C   0  0  0  0  0  0  0  0  0  0  0  0
   48.8670   32.3220   39.0240 S   0  0  0  0  0  0  0  0  0  0  0  0
   49.7910   31.9710   34.5290 N   0  0  0  0  0  0  0  0  0  0  0  0
   48.5830   32.6310   34.9650 C   0  0  0  0  0  0  0  0  0  0  0  0
   48.6850   33.1210   36.3930 C   0  0  0  0  0  0  0  0  0  0  0  0
   48.9350   31.8900   37.2670 C   0  0  0  0  0  0  0  0  0  0  0  0
   50.2840   31.3620   36.8740 C   0  0  0  0  0  0  0  0  0  0  0  0
   50.2610   30.9700   35.4340 C   0  0  0  0  0  0  0  0  0  0  0  0
   43.9657   36.9434   45.0529 H   0  0  0  0  0  0  0  0  0  0  0  0
   44.4317   36.4862   42.6232 H   0  0  0  0  0  0  0  0  0  0  0  0
   45.6828   33.2218   46.1174 H   0  0  0  0  0  0  0  0  0  0  0  0
   48.0558   34.4481   38.1921 H   0  0  0  0  0  0  0  0  0  0  0  0
   49.0094   34.6584   39.6827 H   0  0  0  0  0  0  0  0  0  0  0  0
   49.6069   31.5251   33.6189 H   0  0  0  0  0  0  0  0  0  0  0  0
   48.3922   33.4920   34.3075 H   0  0  0  0  0  0  0  0  0  0  0  0
   47.7617   31.9009   34.9155 H   0  0  0  0  0  0  0  0  0  0  0  0
   49.5198   33.8306   36.4910 H   0  0  0  0  0  0  0  0  0  0  0  0
   47.7649   33.6410   36.6981 H   0  0  0  0  0  0  0  0  0  0  0  0
   48.1611   31.1233   37.1146 H   0  0  0  0  0  0  0  0  0  0  0  0
   51.0435   32.1422   37.0302 H   0  0  0  0  0  0  0  0  0  0  0  0
   50.5298   30.4847   37.4904 H   0  0  0  0  0  0  0  0  0  0  0  0
   49.6091   30.0897   35.3333 H   0  0  0  0  0  0  0  0  0  0  0  0
   51.3087   30.7817   35.1567 H   0  0  0  0  0  0  0  0  0  0  0  0
  1  8  1  0
  2  1  2  0
  3  4  1  0
  3  2  1  0
  4  5  2  0
  5  1  1  0
  6 11  2  0
  7  6  1  0
  8  7  2  0
  8  9  1  0
  9 10  2  0
 10 11  1  0
 12  4  1  0
 13 12  1  0
 14 15  1  0
 14 19  1  0
 15 16  1  0
 16 17  1  0
 17 13  1  0
 18 17  1  0
 19 18  1  0
  6 20  1  0
  7 21  1  0
 10 22  1  0
 12 23  1  0
 12 24  1  0
 14 25  1  0
 15 26  1  0
 15 27  1  0
 16 28  1  0
 16 29  1  0
 17 30  1  0
 18 31  1  0
 18 32  1  0
 19 33  1  0
 19 34  1  0
M  ISO  8  20  14  21  14  22  14  23   8  24   8  25   5  26  13  27  13
M  ISO  7  28  13  29  13  30  13  31  13  32  13  33  13  34  13
M  END
>  <minimizedAffinity>  (1) 
-4.49211407

>  <minimizedRMSD>  (1) 
1.80034506

$$$$
