
     RDKit          3D

 26 28  0  0  0  0  0  0  0  0999 V2000
   45.3220   34.1330   41.5860 C   0  0  0  0  0  0  0  0  0  0  0  0
   44.5420   33.8920   40.5110 N   0  0  0  0  0  0  0  0  0  0  0  0
   45.2710   33.5720   39.4860 O   0  0  0  0  0  0  0  0  0  0  0  0
   46.5460   33.5990   39.8740 C   0  0  0  0  0  0  0  0  0  0  0  0
   46.5790   33.9450   41.1730 N   0  0  0  0  0  0  0  0  0  0  0  0
   44.4550   35.9910   44.7290 C   0  0  0  0  0  0  0  0  0  0  0  0
   44.5780   35.7450   43.3450 C   0  0  0  0  0  0  0  0  0  0  0  0
   45.1340   34.5180   42.9770 C   0  0  0  0  0  0  0  0  0  0  0  0
   45.5260   33.6290   43.9290 N   0  0  0  0  0  0  0  0  0  0  0  0
   45.3880   33.9090   45.2410 C   0  0  0  0  0  0  0  0  0  0  0  0
   44.8470   35.1010   45.6330 N   0  0  0  0  0  0  0  0  0  0  0  0
   47.7360   33.2970   39.0230 C   0  0  0  0  0  0  0  0  0  0  0  0
   48.4890   31.7560   39.6420 S   0  0  0  0  0  0  0  0  0  0  0  0
   50.0200   32.0990   40.4940 C   0  0  0  0  0  0  0  0  0  0  0  0
   49.8390   32.8820   41.6400 C   0  0  0  0  0  0  0  0  0  0  0  0
   51.0910   33.0890   42.2260 C   0  0  0  0  0  0  0  0  0  0  0  0
   51.9670   32.4280   41.4160 N   0  0  0  0  0  0  0  0  0  0  0  0
   51.3550   31.8540   40.4150 N   0  0  0  0  0  0  0  0  0  0  0  0
   44.0233   36.9444   45.0676 H   0  0  0  0  0  0  0  0  0  0  0  0
   44.2529   36.4813   42.5952 H   0  0  0  0  0  0  0  0  0  0  0  0
   45.7112   33.1773   45.9961 H   0  0  0  0  0  0  0  0  0  0  0  0
   48.4619   34.1208   39.0892 H   0  0  0  0  0  0  0  0  0  0  0  0
   47.4362   33.1820   37.9709 H   0  0  0  0  0  0  0  0  0  0  0  0
   48.8790   33.2672   42.0142 H   0  0  0  0  0  0  0  0  0  0  0  0
   51.3193   33.6590   43.1387 H   0  0  0  0  0  0  0  0  0  0  0  0
   52.9840   32.3867   41.5739 H   0  0  0  0  0  0  0  0  0  0  0  0
  1  8  1  0
  2  1  2  0
  3  4  1  0
  3  2  1  0
  4  5  2  0
  5  1  1  0
  6 11  2  0
  7  6  1  0
  8  7  2  0
  8  9  1  0
  9 10  2  0
 10 11  1  0
 12 13  1  0
 12  4  1  0
 13 14  1  0
 14 15  1  0
 15 16  2  0
 17 16  1  0
 18 14  2  0
 18 17  1  0
  6 19  1  0
  7 20  1  0
 10 21  1  0
 12 22  1  0
 12 23  1  0
 15 24  1  0
 16 25  1  0
 17 26  1  0
M  ISO  8  19  14  20  14  21  14  22   8  23   8  24  14  25  14  26   9
M  END
>  <minimizedAffinity>  (1) 
-4.45399952

>  <minimizedRMSD>  (1) 
1.04986286

$$$$
