
     RDKit          3D

 26 28  0  0  0  0  0  0  0  0999 V2000
   45.6700   34.1360   41.5300 C   0  0  0  0  0  0  0  0  0  0  0  0
   45.0300   33.5740   40.5000 N   0  0  0  0  0  0  0  0  0  0  0  0
   45.8440   33.4340   39.4950 O   0  0  0  0  0  0  0  0  0  0  0  0
   47.0290   33.9040   39.8600 C   0  0  0  0  0  0  0  0  0  0  0  0
   46.9290   34.3430   41.1240 N   0  0  0  0  0  0  0  0  0  0  0  0
   44.5090   36.0660   44.5390 C   0  0  0  0  0  0  0  0  0  0  0  0
   44.7620   35.7980   43.1750 C   0  0  0  0  0  0  0  0  0  0  0  0
   45.3500   34.5530   42.9050 C   0  0  0  0  0  0  0  0  0  0  0  0
   45.6420   33.6890   43.8990 N   0  0  0  0  0  0  0  0  0  0  0  0
   45.3740   34.0060   45.1910 C   0  0  0  0  0  0  0  0  0  0  0  0
   44.8070   35.1980   45.4990 N   0  0  0  0  0  0  0  0  0  0  0  0
   48.2670   33.9470   39.0220 C   0  0  0  0  0  0  0  0  0  0  0  0
   48.5830   32.2700   38.4070 S   0  0  0  0  0  0  0  0  0  0  0  0
   50.3300   31.8870   38.5940 C   0  0  0  0  0  0  0  0  0  0  0  0
   51.1080   31.3320   39.5860 C   0  0  0  0  0  0  0  0  0  0  0  0
   52.3840   31.2890   39.1680 N   0  0  0  0  0  0  0  0  0  0  0  0
   52.3800   31.8210   37.9160 C   0  0  0  0  0  0  0  0  0  0  0  0
   51.1270   32.2010   37.5310 N   0  0  0  0  0  0  0  0  0  0  0  0
   44.0495   37.0265   44.8153 H   0  0  0  0  0  0  0  0  0  0  0  0
   44.5149   36.5162   42.3793 H   0  0  0  0  0  0  0  0  0  0  0  0
   45.6180   33.2925   45.9918 H   0  0  0  0  0  0  0  0  0  0  0  0
   48.1216   34.6342   38.1755 H   0  0  0  0  0  0  0  0  0  0  0  0
   49.1204   34.3038   39.6174 H   0  0  0  0  0  0  0  0  0  0  0  0
   50.7434   30.9808   40.5626 H   0  0  0  0  0  0  0  0  0  0  0  0
   53.2777   31.9315   37.2899 H   0  0  0  0  0  0  0  0  0  0  0  0
   50.8454   32.6292   36.6376 H   0  0  0  0  0  0  0  0  0  0  0  0
  1  8  1  0
  2  1  2  0
  3  4  1  0
  3  2  1  0
  4  5  2  0
  5  1  1  0
  6 11  2  0
  7  6  1  0
  8  7  2  0
  8  9  1  0
  9 10  2  0
 10 11  1  0
 12  4  1  0
 13 14  1  0
 13 12  1  0
 14 15  2  0
 16 15  1  0
 17 16  2  0
 18 17  1  0
 18 14  1  0
  6 19  1  0
  7 20  1  0
 10 21  1  0
 12 22  1  0
 12 23  1  0
 15 24  1  0
 17 25  1  0
 18 26  1  0
M  ISO  8  19  14  20  14  21  14  22   8  23   8  24  14  25  14  26   9
M  END
>  <minimizedAffinity>  (1) 
-4.45014763

>  <minimizedRMSD>  (1) 
0.829068005

$$$$
