
     RDKit          3D

 25 27  0  0  0  0  0  0  0  0999 V2000
   47.1220   32.9640   43.7640 C   0  0  0  0  0  0  0  0  0  0  0  0
   48.1470   32.6500   42.9420 N   0  0  0  0  0  0  0  0  0  0  0  0
   48.5970   31.4680   43.2200 O   0  0  0  0  0  0  0  0  0  0  0  0
   47.8870   30.9880   44.2150 C   0  0  0  0  0  0  0  0  0  0  0  0
   46.9550   31.9160   44.5690 N   0  0  0  0  0  0  0  0  0  0  0  0
   45.1820   36.1350   43.2450 C   0  0  0  0  0  0  0  0  0  0  0  0
   46.0680   35.0860   42.9550 C   0  0  0  0  0  0  0  0  0  0  0  0
   46.2240   34.1090   43.9510 C   0  0  0  0  0  0  0  0  0  0  0  0
   45.5540   34.1820   45.1210 N   0  0  0  0  0  0  0  0  0  0  0  0
   44.7050   35.2320   45.3400 C   0  0  0  0  0  0  0  0  0  0  0  0
   44.5290   36.1960   44.3990 N   0  0  0  0  0  0  0  0  0  0  0  0
   48.0020   29.6580   44.9130 C   0  0  0  0  0  0  0  0  0  0  0  0
   46.3630   29.2820   45.6280 S   0  0  0  0  0  0  0  0  0  0  0  0
   46.3680   30.1140   47.2400 C   0  0  0  0  0  0  0  0  0  0  0  0
   45.1100   30.3690   47.6620 C   0  0  0  0  0  0  0  0  0  0  0  0
   45.3340   31.2200   49.3240 S   0  0  0  0  0  0  0  0  0  0  0  0
   47.2250   31.0420   49.0880 C   0  0  0  0  0  0  0  0  0  0  0  0
   47.2750   30.5270   48.0950 N   0  0  0  0  0  0  0  0  0  0  0  0
   45.0248   36.9264   42.4973 H   0  0  0  0  0  0  0  0  0  0  0  0
   46.6105   35.0322   41.9996 H   0  0  0  0  0  0  0  0  0  0  0  0
   44.1570   35.2967   46.2916 H   0  0  0  0  0  0  0  0  0  0  0  0
   48.2873   28.8773   44.1925 H   0  0  0  0  0  0  0  0  0  0  0  0
   48.7723   29.6932   45.6975 H   0  0  0  0  0  0  0  0  0  0  0  0
   44.1665   30.1320   47.1486 H   0  0  0  0  0  0  0  0  0  0  0  0
   48.0434   31.3604   49.7504 H   0  0  0  0  0  0  0  0  0  0  0  0
  1  8  1  0
  1  5  1  0
  2  3  1  0
  2  1  2  0
  3  4  1  0
  4  5  2  0
  4 12  1  0
  6 11  2  0
  7  6  1  0
  7  8  2  0
  8  9  1  0
  9 10  2  0
 11 10  1  0
 12 13  1  0
 13 14  1  0
 14 15  2  0
 14 18  1  0
 15 16  1  0
 17 16  1  0
 18 17  2  0
  6 19  1  0
  7 20  1  0
 10 21  1  0
 12 22  1  0
 12 23  1  0
 15 24  1  0
 17 25  1  0
M  ISO  7  19  14  20  14  21  14  22   8  23   8  24  14  25  14
M  END
>  <minimizedAffinity>  (1) 
-4.37596273

>  <minimizedRMSD>  (1) 
7.28672457

$$$$
