
     RDKit          3D

 26 28  0  0  0  0  0  0  0  0999 V2000
   45.6670   34.1600   41.6790 C   0  0  0  0  0  0  0  0  0  0  0  0
   45.0210   33.6000   40.6420 N   0  0  0  0  0  0  0  0  0  0  0  0
   45.8120   33.5010   39.6230 O   0  0  0  0  0  0  0  0  0  0  0  0
   46.9820   33.9870   39.9610 C   0  0  0  0  0  0  0  0  0  0  0  0
   46.8890   34.3990   41.2440 N   0  0  0  0  0  0  0  0  0  0  0  0
   44.4600   35.9850   44.7410 C   0  0  0  0  0  0  0  0  0  0  0  0
   44.7120   35.7480   43.3760 C   0  0  0  0  0  0  0  0  0  0  0  0
   45.3470   34.5320   43.0560 C   0  0  0  0  0  0  0  0  0  0  0  0
   45.6930   33.6370   44.0290 N   0  0  0  0  0  0  0  0  0  0  0  0
   45.4180   33.9320   45.3240 C   0  0  0  0  0  0  0  0  0  0  0  0
   44.8020   35.1050   45.6810 N   0  0  0  0  0  0  0  0  0  0  0  0
   48.2400   34.1050   39.1420 C   0  0  0  0  0  0  0  0  0  0  0  0
   48.8500   32.4260   38.8420 S   0  0  0  0  0  0  0  0  0  0  0  0
   49.7090   31.8680   35.0170 N   0  0  0  0  0  0  0  0  0  0  0  0
   50.0180   31.5590   36.2700 N   0  0  0  0  0  0  0  0  0  0  0  0
   49.1710   32.2320   37.0950 C   0  0  0  0  0  0  0  0  0  0  0  0
   48.3170   32.9740   36.2690 C   0  0  0  0  0  0  0  0  0  0  0  0
   48.6720   32.7320   34.9560 C   0  0  0  0  0  0  0  0  0  0  0  0
   43.9674   36.9222   45.0393 H   0  0  0  0  0  0  0  0  0  0  0  0
   44.4279   36.4743   42.6003 H   0  0  0  0  0  0  0  0  0  0  0  0
   45.6959   33.2124   46.1082 H   0  0  0  0  0  0  0  0  0  0  0  0
   48.0207   34.6020   38.1855 H   0  0  0  0  0  0  0  0  0  0  0  0
   48.9948   34.7035   39.6732 H   0  0  0  0  0  0  0  0  0  0  0  0
   50.1997   31.4948   34.1919 H   0  0  0  0  0  0  0  0  0  0  0  0
   47.5049   33.6345   36.6070 H   0  0  0  0  0  0  0  0  0  0  0  0
   48.2084   33.1536   34.0519 H   0  0  0  0  0  0  0  0  0  0  0  0
  1  8  1  0
  2  1  2  0
  3  4  1  0
  3  2  1  0
  4  5  2  0
  5  1  1  0
  6 11  2  0
  7  6  1  0
  8  7  2  0
  8  9  1  0
  9 10  2  0
 10 11  1  0
 12  4  1  0
 13 12  1  0
 14 15  1  0
 15 16  2  0
 16 13  1  0
 17 16  1  0
 18 14  1  0
 18 17  2  0
  6 19  1  0
  7 20  1  0
 10 21  1  0
 12 22  1  0
 12 23  1  0
 14 24  1  0
 17 25  1  0
 18 26  1  0
M  ISO  8  19  14  20  14  21  14  22   8  23   8  24   9  25  14  26  14
M  END
>  <minimizedAffinity>  (1) 
-4.34510899

>  <minimizedRMSD>  (1) 
1.77403247

$$$$
