
     RDKit          3D

 28 30  0  0  0  0  0  0  0  0999 V2000
   45.5130   34.1000   41.6280 C   0  0  0  0  0  0  0  0  0  0  0  0
   44.7980   33.5300   40.6250 N   0  0  0  0  0  0  0  0  0  0  0  0
   45.5310   33.4030   39.5670 O   0  0  0  0  0  0  0  0  0  0  0  0
   46.7410   33.8860   39.8510 C   0  0  0  0  0  0  0  0  0  0  0  0
   46.7140   34.3130   41.1300 N   0  0  0  0  0  0  0  0  0  0  0  0
   44.4720   35.9450   44.7250 C   0  0  0  0  0  0  0  0  0  0  0  0
   44.6520   35.7120   43.3320 C   0  0  0  0  0  0  0  0  0  0  0  0
   45.2590   34.4910   43.0080 C   0  0  0  0  0  0  0  0  0  0  0  0
   45.6420   33.6090   43.9690 N   0  0  0  0  0  0  0  0  0  0  0  0
   45.4370   33.9010   45.2820 C   0  0  0  0  0  0  0  0  0  0  0  0
   44.8540   35.0680   45.6500 N   0  0  0  0  0  0  0  0  0  0  0  0
   47.9290   33.9560   38.9470 C   0  0  0  0  0  0  0  0  0  0  0  0
   48.3680   32.2530   38.4680 S   0  0  0  0  0  0  0  0  0  0  0  0
   49.9590   31.9240   39.2120 C   0  0  0  0  0  0  0  0  0  0  0  0
   50.0870   32.0650   40.5830 C   0  0  0  0  0  0  0  0  0  0  0  0
   51.2740   31.8360   41.2610 C   0  0  0  0  0  0  0  0  0  0  0  0
   52.3960   31.4440   40.5430 C   0  0  0  0  0  0  0  0  0  0  0  0
   52.2390   31.3080   39.1650 C   0  0  0  0  0  0  0  0  0  0  0  0
   51.0720   31.5380   38.5270 N   0  0  0  0  0  0  0  0  0  0  0  0
   43.9999   36.8844   45.0484 H   0  0  0  0  0  0  0  0  0  0  0  0
   44.3378   36.4368   42.5665 H   0  0  0  0  0  0  0  0  0  0  0  0
   45.7480   33.1816   46.0538 H   0  0  0  0  0  0  0  0  0  0  0  0
   47.6829   34.5448   38.0510 H   0  0  0  0  0  0  0  0  0  0  0  0
   48.7733   34.4400   39.4598 H   0  0  0  0  0  0  0  0  0  0  0  0
   49.2043   32.3736   41.1623 H   0  0  0  0  0  0  0  0  0  0  0  0
   51.3265   31.9630   42.3524 H   0  0  0  0  0  0  0  0  0  0  0  0
   53.3597   31.2506   41.0368 H   0  0  0  0  0  0  0  0  0  0  0  0
   53.1091   30.9979   38.5677 H   0  0  0  0  0  0  0  0  0  0  0  0
  1  8  1  0
  2  1  2  0
  3  4  1  0
  3  2  1  0
  4  5  2  0
  5  1  1  0
  6 11  2  0
  7  6  1  0
  8  7  2  0
  8  9  1  0
  9 10  2  0
 10 11  1  0
 12  4  1  0
 13 12  1  0
 13 14  1  0
 14 15  2  0
 15 16  1  0
 17 16  2  0
 18 17  1  0
 19 18  2  0
 19 14  1  0
  6 20  1  0
  7 21  1  0
 10 22  1  0
 12 23  1  0
 12 24  1  0
 15 25  1  0
 16 26  1  0
 17 27  1  0
 18 28  1  0
M  ISO  8  20  14  21  14  22  14  23   8  24   8  25  14  26  14  27  14
M  ISO  1  28  14
M  END
>  <minimizedAffinity>  (1) 
-4.31911516

>  <minimizedRMSD>  (1) 
1.68355465

$$$$
