
     RDKit          3D

 35 37  0  0  1  0  0  0  0  0999 V2000
   47.7840   34.8890   41.4110 C   0  0  2  0  0  0  0  0  0  0  0  0
   48.9760   35.6410   41.6960 C   0  0  0  0  0  0  0  0  0  0  0  0
   49.9470   34.7080   42.4390 C   0  0  0  0  0  0  0  0  0  0  0  0
   49.3070   33.3440   42.5000 C   0  0  0  0  0  0  0  0  0  0  0  0
   47.8530   33.6480   42.3640 C   0  0  1  0  0  0  0  0  0  0  0  0
   47.5890   34.3050   40.0640 C   0  0  0  0  0  0  0  0  0  0  0  0
   48.4360   34.7090   39.0340 C   0  0  0  0  0  0  0  0  0  0  0  0
   48.2900   34.1750   37.7670 C   0  0  0  0  0  0  0  0  0  0  0  0
   47.2900   33.2600   37.6150 N   0  0  0  0  0  0  0  0  0  0  0  0
   46.4800   32.8800   38.6170 C   0  0  0  0  0  0  0  0  0  0  0  0
   46.6240   33.4010   39.8510 N   0  0  0  0  0  0  0  0  0  0  0  0
   47.2850   34.0900   43.6870 C   0  0  0  0  0  0  0  0  0  0  0  0
   46.3470   33.0910   44.2200 C   0  0  0  0  0  0  0  0  0  0  0  0
   46.7460   32.3340   45.4160 C   0  0  0  0  0  0  0  0  0  0  0  0
   47.1740   31.0390   45.4060 C   0  0  0  0  0  0  0  0  0  0  0  0
   47.5960   30.6630   47.1500 S   0  0  0  0  0  0  0  0  0  0  0  0
   47.0930   32.4300   47.6270 C   0  0  0  0  0  0  0  0  0  0  0  0
   46.7920   32.8220   46.6260 N   0  0  0  0  0  0  0  0  0  0  0  0
   46.9688   35.6188   41.5241 H   0  0  0  0  0  0  0  0  0  0  0  0
   49.4335   35.9887   40.7580 H   0  0  0  0  0  0  0  0  0  0  0  0
   48.7396   36.5219   42.3109 H   0  0  0  0  0  0  0  0  0  0  0  0
   50.9022   34.6508   41.8965 H   0  0  0  0  0  0  0  0  0  0  0  0
   50.1498   35.0866   43.4517 H   0  0  0  0  0  0  0  0  0  0  0  0
   49.6563   32.7063   41.6745 H   0  0  0  0  0  0  0  0  0  0  0  0
   49.5499   32.7925   43.4202 H   0  0  0  0  0  0  0  0  0  0  0  0
   47.3005   32.7677   42.0036 H   0  0  0  0  0  0  0  0  0  0  0  0
   49.2218   35.4537   39.2291 H   0  0  0  0  0  0  0  0  0  0  0  0
   48.9415   34.4705   36.9314 H   0  0  0  0  0  0  0  0  0  0  0  0
   45.6917   32.1364   38.4281 H   0  0  0  0  0  0  0  0  0  0  0  0
   48.1082   34.2282   44.4034 H   0  0  0  0  0  0  0  0  0  0  0  0
   46.7415   35.0344   43.5362 H   0  0  0  0  0  0  0  0  0  0  0  0
   45.4126   33.6178   44.4637 H   0  0  0  0  0  0  0  0  0  0  0  0
   46.2764   32.3319   43.4270 H   0  0  0  0  0  0  0  0  0  0  0  0
   47.2496   30.3660   44.5392 H   0  0  0  0  0  0  0  0  0  0  0  0
   47.0970   32.9259   48.6089 H   0  0  0  0  0  0  0  0  0  0  0  0
  1  2  1  0
  1  5  1  0
  2  3  1  0
  3  4  1  0
  5  4  1  0
  5 12  1  0
  6  1  1  0
  7  6  2  0
  8  7  1  0
  9  8  2  0
  9 10  1  0
 10 11  2  0
 11  6  1  0
 12 13  1  0
 13 14  1  0
 14 18  1  0
 15 14  2  0
 15 16  1  0
 16 17  1  0
 18 17  2  0
  1 19  1  1
  2 20  1  0
  2 21  1  0
  3 22  1  0
  3 23  1  0
  4 24  1  0
  4 25  1  0
  5 26  1  6
  7 27  1  0
  8 28  1  0
 10 29  1  0
 12 30  1  0
 12 31  1  0
 13 32  1  0
 13 33  1  0
 15 34  1  0
 17 35  1  0
M  ISO  8  19  13  20  13  21  13  22  13  23  13  24  13  25  13  26  13
M  ISO  8  27  14  28  14  29  14  30   8  31   8  32   8  33   8  34  14
M  ISO  1  35  14
M  END
>  <minimizedAffinity>  (1) 
-4.89908123

>  <minimizedRMSD>  (1) 
2.80576992

$$$$
