
     RDKit          3D

 24 26  0  0  0  0  0  0  0  0999 V2000
   45.5270   34.1530   41.6450 C   0  0  0  0  0  0  0  0  0  0  0  0
   44.8310   33.6630   40.6110 N   0  0  0  0  0  0  0  0  0  0  0  0
   45.6170   33.5290   39.5740 O   0  0  0  0  0  0  0  0  0  0  0  0
   46.8310   33.9300   39.9310 C   0  0  0  0  0  0  0  0  0  0  0  0
   46.7860   34.3190   41.2120 N   0  0  0  0  0  0  0  0  0  0  0  0
   44.4530   35.9830   44.7480 C   0  0  0  0  0  0  0  0  0  0  0  0
   44.6470   35.7540   43.3610 C   0  0  0  0  0  0  0  0  0  0  0  0
   45.2620   34.5210   43.0330 C   0  0  0  0  0  0  0  0  0  0  0  0
   45.6270   33.6440   44.0030 N   0  0  0  0  0  0  0  0  0  0  0  0
   45.4140   33.9230   45.3130 C   0  0  0  0  0  0  0  0  0  0  0  0
   44.8290   35.0910   45.6650 N   0  0  0  0  0  0  0  0  0  0  0  0
   48.0240   33.9390   39.0400 C   0  0  0  0  0  0  0  0  0  0  0  0
   48.6520   32.2520   38.8880 S   0  0  0  0  0  0  0  0  0  0  0  0
   50.0320   32.0490   40.0050 C   0  0  0  0  0  0  0  0  0  0  0  0
   51.2730   31.5140   40.0480 N   0  0  0  0  0  0  0  0  0  0  0  0
   51.7970   31.7090   41.2200 O   0  0  0  0  0  0  0  0  0  0  0  0
   50.9600   32.3530   41.9660 C   0  0  0  0  0  0  0  0  0  0  0  0
   49.8560   32.5760   41.2350 N   0  0  0  0  0  0  0  0  0  0  0  0
   43.9801   36.9208   45.0751 H   0  0  0  0  0  0  0  0  0  0  0  0
   44.3415   36.4822   42.5952 H   0  0  0  0  0  0  0  0  0  0  0  0
   45.7159   33.2019   46.0869 H   0  0  0  0  0  0  0  0  0  0  0  0
   47.7408   34.3186   38.0472 H   0  0  0  0  0  0  0  0  0  0  0  0
   48.8022   34.5900   39.4650 H   0  0  0  0  0  0  0  0  0  0  0  0
   51.1227   32.6618   43.0091 H   0  0  0  0  0  0  0  0  0  0  0  0
  1  8  1  0
  2  1  2  0
  3  4  1  0
  3  2  1  0
  4  5  2  0
  5  1  1  0
  6 11  2  0
  7  6  1  0
  8  7  2  0
  8  9  1  0
  9 10  2  0
 10 11  1  0
 12  4  1  0
 13 12  1  0
 13 14  1  0
 14 15  2  0
 14 18  1  0
 15 16  1  0
 16 17  1  0
 18 17  2  0
  6 19  1  0
  7 20  1  0
 10 21  1  0
 12 22  1  0
 12 23  1  0
 17 24  1  0
M  ISO  6  19  14  20  14  21  14  22   8  23   8  24  14
M  END
>  <minimizedAffinity>  (1) 
-4.16378212

>  <minimizedRMSD>  (1) 
0.855736554

$$$$
