
     RDKit          3D

 25 26  0  0  0  0  0  0  0  0999 V2000
   45.8990   35.0060   42.0870 C   0  0  0  0  0  0  0  0  0  0  0  0
   44.9810   35.7160   42.7580 N   0  0  0  0  0  0  0  0  0  0  0  0
   43.8410   35.6910   42.1390 O   0  0  0  0  0  0  0  0  0  0  0  0
   44.0050   34.9560   41.0420 C   0  0  0  0  0  0  0  0  0  0  0  0
   45.2770   34.5290   41.0040 N   0  0  0  0  0  0  0  0  0  0  0  0
   49.6520   35.1090   42.1760 C   0  0  0  0  0  0  0  0  0  0  0  0
   48.3390   35.5700   41.9800 C   0  0  0  0  0  0  0  0  0  0  0  0
   47.3150   34.6580   42.2480 C   0  0  0  0  0  0  0  0  0  0  0  0
   47.5990   33.4010   42.6740 N   0  0  0  0  0  0  0  0  0  0  0  0
   48.8800   33.0140   42.8440 C   0  0  0  0  0  0  0  0  0  0  0  0
   49.9160   33.8800   42.5910 N   0  0  0  0  0  0  0  0  0  0  0  0
   42.9560   34.6500   40.0180 C   0  0  0  0  0  0  0  0  0  0  0  0
   41.6440   33.6840   40.8450 S   0  0  0  0  0  0  0  0  0  0  0  0
   40.3670   34.7560   41.5250 C   0  0  0  0  0  0  0  0  0  0  0  0
   40.2450   35.9620   40.5900 C   0  0  0  0  0  0  0  0  0  0  0  0
   50.4899   35.7935   41.9776 H   0  0  0  0  0  0  0  0  0  0  0  0
   48.1289   36.5930   41.6345 H   0  0  0  0  0  0  0  0  0  0  0  0
   49.0977   31.9926   43.1894 H   0  0  0  0  0  0  0  0  0  0  0  0
   43.3931   34.0631   39.1967 H   0  0  0  0  0  0  0  0  0  0  0  0
   42.5448   35.5789   39.5960 H   0  0  0  0  0  0  0  0  0  0  0  0
   39.4089   34.2177   41.5731 H   0  0  0  0  0  0  0  0  0  0  0  0
   40.6276   35.0765   42.5445 H   0  0  0  0  0  0  0  0  0  0  0  0
   40.1520   36.8811   41.1872 H   0  0  0  0  0  0  0  0  0  0  0  0
   41.1412   36.0262   39.9555 H   0  0  0  0  0  0  0  0  0  0  0  0
   39.3541   35.8454   39.9555 H   0  0  0  0  0  0  0  0  0  0  0  0
  1  8  1  0
  1  2  2  0
  3  2  1  0
  4  3  1  0
  5  4  2  0
  5  1  1  0
  6 11  2  0
  7  6  1  0
  7  8  2  0
  8  9  1  0
  9 10  2  0
 11 10  1  0
 12 13  1  0
 12  4  1  0
 13 14  1  0
 15 14  1  0
  6 16  1  0
  7 17  1  0
 10 18  1  0
 12 19  1  0
 12 20  1  0
 14 21  1  0
 14 22  1  0
 15 23  1  0
 15 24  1  0
 15 25  1  0
M  ISO  8  16  14  17  14  18  14  19   8  20   8  21   8  22   8  23   8
M  ISO  2  24   8  25   8
M  END
>  <minimizedAffinity>  (1) 
-4.15223694

>  <minimizedRMSD>  (1) 
5.69725037

$$$$
