
     RDKit          3D

 31 32  0  0  0  0  0  0  0  0999 V2000
   45.8700   34.2040   41.9310 C   0  0  0  0  0  0  0  0  0  0  0  0
   45.2900   34.1220   40.7190 N   0  0  0  0  0  0  0  0  0  0  0  0
   46.1660   33.7300   39.8450 O   0  0  0  0  0  0  0  0  0  0  0  0
   47.3280   33.5500   40.4780 C   0  0  0  0  0  0  0  0  0  0  0  0
   47.1480   33.8440   41.7750 N   0  0  0  0  0  0  0  0  0  0  0  0
   44.4250   35.9870   44.9090 C   0  0  0  0  0  0  0  0  0  0  0  0
   44.7720   35.7580   43.5590 C   0  0  0  0  0  0  0  0  0  0  0  0
   45.4490   34.5710   43.2840 C   0  0  0  0  0  0  0  0  0  0  0  0
   45.7340   33.7180   44.2840 N   0  0  0  0  0  0  0  0  0  0  0  0
   45.3910   33.9600   45.5690 C   0  0  0  0  0  0  0  0  0  0  0  0
   44.7320   35.1080   45.8660 N   0  0  0  0  0  0  0  0  0  0  0  0
   48.5980   33.1010   39.8470 C   0  0  0  0  0  0  0  0  0  0  0  0
   48.1910   32.0160   38.4560 S   0  0  0  0  0  0  0  0  0  0  0  0
   47.9670   32.9720   36.9510 C   0  0  0  0  0  0  0  0  0  0  0  0
   48.8230   32.4560   35.8130 C   0  0  0  0  0  0  0  0  0  0  0  0
   46.5220   32.8370   36.5050 C   0  0  0  0  0  0  0  0  0  0  0  0
   48.3260   34.4350   37.1620 C   0  0  0  0  0  0  0  0  0  0  0  0
   43.8901   36.9098   45.1778 H   0  0  0  0  0  0  0  0  0  0  0  0
   44.5212   36.4784   42.7665 H   0  0  0  0  0  0  0  0  0  0  0  0
   45.6420   33.2383   46.3603 H   0  0  0  0  0  0  0  0  0  0  0  0
   49.1621   33.9734   39.4853 H   0  0  0  0  0  0  0  0  0  0  0  0
   49.2147   32.5608   40.5804 H   0  0  0  0  0  0  0  0  0  0  0  0
   49.6976   31.9288   36.2219 H   0  0  0  0  0  0  0  0  0  0  0  0
   48.2329   31.7630   35.1953 H   0  0  0  0  0  0  0  0  0  0  0  0
   49.1602   33.3014   35.1953 H   0  0  0  0  0  0  0  0  0  0  0  0
   45.8697   32.7761   37.3886 H   0  0  0  0  0  0  0  0  0  0  0  0
   46.2411   33.7128   35.9016 H   0  0  0  0  0  0  0  0  0  0  0  0
   46.4082   31.9243   35.9016 H   0  0  0  0  0  0  0  0  0  0  0  0
   48.3783   34.6479   38.2399 H   0  0  0  0  0  0  0  0  0  0  0  0
   49.3019   34.6435   36.6993 H   0  0  0  0  0  0  0  0  0  0  0  0
   47.5574   35.0716   36.6993 H   0  0  0  0  0  0  0  0  0  0  0  0
  1  8  1  0
  2  1  2  0
  3  4  1  0
  3  2  1  0
  4  5  2  0
  5  1  1  0
  6 11  2  0
  7  6  1  0
  8  7  2  0
  8  9  1  0
  9 10  2  0
 10 11  1  0
 12  4  1  0
 13 12  1  0
 14 17  1  0
 14 13  1  0
 15 14  1  0
 16 14  1  0
  6 18  1  0
  7 19  1  0
 10 20  1  0
 12 21  1  0
 12 22  1  0
 15 23  1  0
 15 24  1  0
 15 25  1  0
 16 26  1  0
 16 27  1  0
 16 28  1  0
 17 29  1  0
 17 30  1  0
 17 31  1  0
M  ISO  8  18  14  19  14  20  14  21   8  22   8  23   8  24   8  25   8
M  ISO  6  26   8  27   8  28   8  29   8  30   8  31   8
M  END
>  <minimizedAffinity>  (1) 
-4.05915022

>  <minimizedRMSD>  (1) 
1.87347662

$$$$
