
     RDKit          3D

 33 36  0  0  0  0  0  0  0  0999 V2000
   43.5930   33.5520   40.5700 C   0  0  0  0  0  0  0  0  0  0  0  0
   44.0050   32.3460   41.0230 N   0  0  0  0  0  0  0  0  0  0  0  0
   45.2730   32.1880   40.7970 O   0  0  0  0  0  0  0  0  0  0  0  0
   45.7140   33.2850   40.1930 C   0  0  0  0  0  0  0  0  0  0  0  0
   44.6630   34.1280   40.0560 N   0  0  0  0  0  0  0  0  0  0  0  0
   40.8310   36.0110   41.2000 C   0  0  0  0  0  0  0  0  0  0  0  0
   42.1020   35.4030   41.3430 C   0  0  0  0  0  0  0  0  0  0  0  0
   42.3290   34.2840   40.5330 C   0  0  0  0  0  0  0  0  0  0  0  0
   41.3850   33.8190   39.6660 N   0  0  0  0  0  0  0  0  0  0  0  0
   40.1870   34.4620   39.5880 C   0  0  0  0  0  0  0  0  0  0  0  0
   39.9160   35.5500   40.3510 N   0  0  0  0  0  0  0  0  0  0  0  0
   47.1080   33.5910   39.7260 C   0  0  0  0  0  0  0  0  0  0  0  0
   47.9160   34.5840   41.0070 S   0  0  0  0  0  0  0  0  0  0  0  0
   47.3340   34.1720   42.6340 C   0  0  0  0  0  0  0  0  0  0  0  0
   47.9460   33.1440   43.2940 C   0  0  0  0  0  0  0  0  0  0  0  0
   47.3430   33.0050   44.5100 N   0  0  0  0  0  0  0  0  0  0  0  0
   46.3570   33.9400   44.6120 C   0  0  0  0  0  0  0  0  0  0  0  0
   45.4130   34.3070   45.5680 C   0  0  0  0  0  0  0  0  0  0  0  0
   44.5300   35.3470   45.3310 C   0  0  0  0  0  0  0  0  0  0  0  0
   44.5590   36.0530   44.1380 C   0  0  0  0  0  0  0  0  0  0  0  0
   45.4910   35.7160   43.1550 C   0  0  0  0  0  0  0  0  0  0  0  0
   46.3380   34.6810   43.4430 C   0  0  0  0  0  0  0  0  0  0  0  0
   40.5922   36.8938   41.8112 H   0  0  0  0  0  0  0  0  0  0  0  0
   42.8598   35.7843   42.0433 H   0  0  0  0  0  0  0  0  0  0  0  0
   39.4219   34.0905   38.8904 H   0  0  0  0  0  0  0  0  0  0  0  0
   47.6647   32.6550   39.5715 H   0  0  0  0  0  0  0  0  0  0  0  0
   47.0820   34.1405   38.7734 H   0  0  0  0  0  0  0  0  0  0  0  0
   48.7788   32.5352   42.9120 H   0  0  0  0  0  0  0  0  0  0  0  0
   47.5911   32.3107   45.2292 H   0  0  0  0  0  0  0  0  0  0  0  0
   45.3683   33.7638   46.5235 H   0  0  0  0  0  0  0  0  0  0  0  0
   43.7934   35.6175   46.1019 H   0  0  0  0  0  0  0  0  0  0  0  0
   43.8497   36.8762   43.9667 H   0  0  0  0  0  0  0  0  0  0  0  0
   45.5418   36.2552   42.1976 H   0  0  0  0  0  0  0  0  0  0  0  0
  1  2  2  0
  3  2  1  0
  4  3  1  0
  5  4  2  0
  5  1  1  0
  6  7  2  0
  8  1  1  0
  8  7  1  0
  9  8  2  0
 10  9  1  0
 10 11  2  0
 11  6  1  0
 12  4  1  0
 12 13  1  0
 13 14  1  0
 14 15  2  0
 14 22  1  0
 15 16  1  0
 16 17  1  0
 17 18  2  0
 19 18  1  0
 20 19  2  0
 21 22  2  0
 21 20  1  0
 22 17  1  0
  6 23  1  0
  7 24  1  0
 10 25  1  0
 12 26  1  0
 12 27  1  0
 15 28  1  0
 16 29  1  0
 18 30  1  0
 19 31  1  0
 20 32  1  0
 21 33  1  0
M  ISO  8  23  14  24  14  25  14  26   8  27   8  28  14  29   9  30  14
M  ISO  3  31  14  32  14  33  14
M  END
>  <minimizedAffinity>  (1) 
-5.5865407

>  <minimizedRMSD>  (1) 
4.35170984

$$$$
