
     RDKit          3D

 40 44  0  0  0  0  0  0  0  0999 V2000
   46.7890   33.2440   44.1970 S   0  0  0  0  0  0  0  0  0  0  0  0
   46.0420   33.1370   45.8020 C   0  0  0  0  0  0  0  0  0  0  0  0
   45.1560   34.1180   46.1780 C   0  0  0  0  0  0  0  0  0  0  0  0
   44.7220   33.8340   47.4500 N   0  0  0  0  0  0  0  0  0  0  0  0
   45.3420   32.6770   47.8580 C   0  0  0  0  0  0  0  0  0  0  0  0
   45.3250   31.9030   49.0190 C   0  0  0  0  0  0  0  0  0  0  0  0
   46.1040   30.7620   49.1050 C   0  0  0  0  0  0  0  0  0  0  0  0
   46.9010   30.3770   48.0510 C   0  0  0  0  0  0  0  0  0  0  0  0
   46.9540   31.1200   46.8580 C   0  0  0  0  0  0  0  0  0  0  0  0
   46.1730   32.2280   46.8290 C   0  0  0  0  0  0  0  0  0  0  0  0
   47.7440   30.5920   45.7050 C   0  0  0  0  0  0  0  0  0  0  0  0
   47.0420   29.4880   44.8900 C   0  0  0  0  0  0  0  0  0  0  0  0
   48.2540   29.1890   45.7110 C   0  0  0  0  0  0  0  0  0  0  0  0
   46.2850   34.7600   43.3150 C   0  0  0  0  0  0  0  0  0  0  0  0
   47.8390   34.4990   40.0510 C   0  0  0  0  0  0  0  0  0  0  0  0
   48.6260   35.4010   40.6680 N   0  0  0  0  0  0  0  0  0  0  0  0
   48.2070   35.6230   41.8800 O   0  0  0  0  0  0  0  0  0  0  0  0
   47.1400   34.8740   42.0810 C   0  0  0  0  0  0  0  0  0  0  0  0
   46.9390   34.1970   40.9400 N   0  0  0  0  0  0  0  0  0  0  0  0
   48.3960   33.6180   36.4470 C   0  0  0  0  0  0  0  0  0  0  0  0
   48.5420   34.3210   37.6690 C   0  0  0  0  0  0  0  0  0  0  0  0
   47.7890   33.8630   38.7470 C   0  0  0  0  0  0  0  0  0  0  0  0
   46.9570   32.7900   38.6230 N   0  0  0  0  0  0  0  0  0  0  0  0
   46.8580   32.1550   37.4240 C   0  0  0  0  0  0  0  0  0  0  0  0
   47.5710   32.5650   36.3500 N   0  0  0  0  0  0  0  0  0  0  0  0
   44.8483   34.9796   45.5674 H   0  0  0  0  0  0  0  0  0  0  0  0
   44.0513   34.3893   48.0002 H   0  0  0  0  0  0  0  0  0  0  0  0
   44.6913   32.2002   49.8676 H   0  0  0  0  0  0  0  0  0  0  0  0
   46.0859   30.1576   50.0239 H   0  0  0  0  0  0  0  0  0  0  0  0
   47.5111   29.4664   48.1439 H   0  0  0  0  0  0  0  0  0  0  0  0
   48.2237   31.5646   45.5206 H   0  0  0  0  0  0  0  0  0  0  0  0
   46.0563   29.1124   45.2019 H   0  0  0  0  0  0  0  0  0  0  0  0
   46.7554   29.3529   43.8366 H   0  0  0  0  0  0  0  0  0  0  0  0
   49.2052   28.9538   45.2111 H   0  0  0  0  0  0  0  0  0  0  0  0
   48.4805   28.4607   46.5036 H   0  0  0  0  0  0  0  0  0  0  0  0
   45.2242   34.6940   43.0316 H   0  0  0  0  0  0  0  0  0  0  0  0
   46.4153   35.6427   43.9583 H   0  0  0  0  0  0  0  0  0  0  0  0
   48.9680   33.9409   35.5647 H   0  0  0  0  0  0  0  0  0  0  0  0
   49.2164   35.1851   37.7612 H   0  0  0  0  0  0  0  0  0  0  0  0
   46.1846   31.2908   37.3258 H   0  0  0  0  0  0  0  0  0  0  0  0
  1  2  1  0
  2  3  2  0
  2 10  1  0
  3  4  1  0
  4  5  1  0
  5  6  2  0
  6  7  1  0
  8  7  2  0
  9  8  1  0
 10  9  2  0
 10  5  1  0
 11 13  1  0
 11  9  1  0
 12 11  1  0
 12 13  1  0
 14  1  1  0
 15 16  2  0
 15 19  1  0
 16 17  1  0
 17 18  1  0
 18 14  1  0
 19 18  2  0
 20 21  2  0
 21 22  1  0
 22 15  1  0
 23 22  2  0
 24 23  1  0
 25 20  1  0
 25 24  2  0
  3 26  1  0
  4 27  1  0
  6 28  1  0
  7 29  1  0
  8 30  1  0
 11 31  1  0
 12 32  1  0
 12 33  1  0
 13 34  1  0
 13 35  1  0
 14 36  1  0
 14 37  1  0
 20 38  1  0
 21 39  1  0
 24 40  1  0
M  ISO  8  26  14  27   9  28  14  29  14  30  14  31  13  32  13  33  13
M  ISO  7  34  13  35  13  36   8  37   8  38  14  39  14  40  14
M  END
>  <minimizedAffinity>  (1) 
-6.28347635

>  <minimizedRMSD>  (1) 
6.05800915

$$$$
