
     RDKit          3D

 36 39  0  0  0  0  0  0  0  0999 V2000
   46.6570   34.2390   40.9680 S   0  0  0  0  0  0  0  0  0  0  0  0
   47.0170   33.4040   42.4780 C   0  0  0  0  0  0  0  0  0  0  0  0
   47.9510   32.3950   42.4940 C   0  0  0  0  0  0  0  0  0  0  0  0
   48.0320   31.8960   43.7760 N   0  0  0  0  0  0  0  0  0  0  0  0
   47.1460   32.6000   44.5500 C   0  0  0  0  0  0  0  0  0  0  0  0
   46.7670   32.5630   45.8890 C   0  0  0  0  0  0  0  0  0  0  0  0
   45.8020   33.4470   46.3540 C   0  0  0  0  0  0  0  0  0  0  0  0
   45.2090   34.3680   45.5140 C   0  0  0  0  0  0  0  0  0  0  0  0
   45.5650   34.4420   44.1530 C   0  0  0  0  0  0  0  0  0  0  0  0
   46.5110   33.5480   43.7380 C   0  0  0  0  0  0  0  0  0  0  0  0
   45.0430   35.6220   43.4410 C   0  0  0  0  0  0  0  0  0  0  0  0
   44.5360   36.5810   44.3350 F   0  0  0  0  0  0  0  0  0  0  0  0
   44.1920   35.5260   42.4450 F   0  0  0  0  0  0  0  0  0  0  0  0
   46.1520   36.3540   42.9060 F   0  0  0  0  0  0  0  0  0  0  0  0
   45.6820   33.1880   39.8260 C   0  0  0  0  0  0  0  0  0  0  0  0
   42.2160   32.9450   40.8460 C   0  0  0  0  0  0  0  0  0  0  0  0
   42.8450   32.2630   41.8080 N   0  0  0  0  0  0  0  0  0  0  0  0
   44.1260   32.2460   41.5930 O   0  0  0  0  0  0  0  0  0  0  0  0
   44.3690   32.9160   40.4880 C   0  0  0  0  0  0  0  0  0  0  0  0
   43.1680   33.3240   40.0600 N   0  0  0  0  0  0  0  0  0  0  0  0
   39.1490   34.7590   39.6530 C   0  0  0  0  0  0  0  0  0  0  0  0
   40.5210   34.5210   39.9070 C   0  0  0  0  0  0  0  0  0  0  0  0
   40.8390   33.3190   40.5270 C   0  0  0  0  0  0  0  0  0  0  0  0
   39.8690   32.4330   40.8660 N   0  0  0  0  0  0  0  0  0  0  0  0
   38.5700   32.7210   40.5950 C   0  0  0  0  0  0  0  0  0  0  0  0
   38.2140   33.8820   39.9900 N   0  0  0  0  0  0  0  0  0  0  0  0
   48.5347   32.0453   41.6297 H   0  0  0  0  0  0  0  0  0  0  0  0
   48.6463   31.1331   44.0947 H   0  0  0  0  0  0  0  0  0  0  0  0
   47.2292   31.8377   46.5748 H   0  0  0  0  0  0  0  0  0  0  0  0
   45.5044   33.4126   47.4124 H   0  0  0  0  0  0  0  0  0  0  0  0
   44.4474   35.0541   45.9131 H   0  0  0  0  0  0  0  0  0  0  0  0
   46.2124   32.2428   39.6381 H   0  0  0  0  0  0  0  0  0  0  0  0
   45.5351   33.6929   38.8598 H   0  0  0  0  0  0  0  0  0  0  0  0
   38.8506   35.6973   39.1626 H   0  0  0  0  0  0  0  0  0  0  0  0
   41.2957   35.2503   39.6278 H   0  0  0  0  0  0  0  0  0  0  0  0
   37.7893   31.9972   40.8720 H   0  0  0  0  0  0  0  0  0  0  0  0
  1  2  1  0
  2  3  2  0
  2 10  1  0
  3  4  1  0
  4  5  1  0
  5  6  2  0
  6  7  1  0
  8  7  2  0
  9  8  1  0
 10  9  2  0
 10  5  1  0
 11  9  1  0
 11 12  1  0
 13 11  1  0
 14 11  1  0
 15 19  1  0
 15  1  1  0
 16 17  2  0
 18 17  1  0
 19 18  1  0
 20 19  2  0
 20 16  1  0
 21 22  2  0
 21 26  1  0
 22 23  1  0
 23 16  1  0
 23 24  2  0
 25 24  1  0
 26 25  2  0
  3 27  1  0
  4 28  1  0
  6 29  1  0
  7 30  1  0
  8 31  1  0
 15 32  1  0
 15 33  1  0
 21 34  1  0
 22 35  1  0
 25 36  1  0
M  ISO  8  27  14  28   9  29  14  30  14  31  14  32   8  33   8  34  14
M  ISO  2  35  14  36  14
M  END
>  <minimizedAffinity>  (1) 
-5.85082388

>  <minimizedRMSD>  (1) 
1.93000054

$$$$
