
     RDKit          3D

 36 39  0  0  0  0  0  0  0  0999 V2000
   46.8750   34.4780   41.1450 S   0  0  0  0  0  0  0  0  0  0  0  0
   46.9230   33.7690   42.7610 C   0  0  0  0  0  0  0  0  0  0  0  0
   47.7870   32.7390   42.9890 C   0  0  0  0  0  0  0  0  0  0  0  0
   47.6400   32.3500   44.2950 N   0  0  0  0  0  0  0  0  0  0  0  0
   46.6860   33.1380   44.8710 C   0  0  0  0  0  0  0  0  0  0  0  0
   46.1070   33.2300   46.1260 C   0  0  0  0  0  0  0  0  0  0  0  0
   45.1280   34.1780   46.3740 C   0  0  0  0  0  0  0  0  0  0  0  0
   44.7100   35.0450   45.3920 C   0  0  0  0  0  0  0  0  0  0  0  0
   45.2670   34.9860   44.1220 C   0  0  0  0  0  0  0  0  0  0  0  0
   46.2210   34.0440   43.9140 C   0  0  0  0  0  0  0  0  0  0  0  0
   44.8250   35.9910   43.1730 C   0  0  0  0  0  0  0  0  0  0  0  0
   44.1310   36.0210   42.1410 O   0  0  0  0  0  0  0  0  0  0  0  0
   45.1590   37.3270   43.2590 O   0  0  0  0  0  0  0  0  0  0  0  0
   46.0640   33.4100   39.9280 C   0  0  0  0  0  0  0  0  0  0  0  0
   42.4570   33.4040   40.2970 C   0  0  0  0  0  0  0  0  0  0  0  0
   42.8580   32.7690   41.4300 N   0  0  0  0  0  0  0  0  0  0  0  0
   44.1530   32.6800   41.4640 O   0  0  0  0  0  0  0  0  0  0  0  0
   44.6320   33.2540   40.3560 C   0  0  0  0  0  0  0  0  0  0  0  0
   43.5660   33.6860   39.6630 N   0  0  0  0  0  0  0  0  0  0  0  0
   38.8640   34.3180   39.7850 C   0  0  0  0  0  0  0  0  0  0  0  0
   40.0360   33.9230   40.4780 C   0  0  0  0  0  0  0  0  0  0  0  0
   41.1880   33.7890   39.7150 C   0  0  0  0  0  0  0  0  0  0  0  0
   41.1690   34.0290   38.3750 N   0  0  0  0  0  0  0  0  0  0  0  0
   40.0100   34.4040   37.7770 C   0  0  0  0  0  0  0  0  0  0  0  0
   38.8690   34.5450   38.4840 N   0  0  0  0  0  0  0  0  0  0  0  0
   48.4786   32.2988   42.2556 H   0  0  0  0  0  0  0  0  0  0  0  0
   48.1600   31.5932   44.7615 H   0  0  0  0  0  0  0  0  0  0  0  0
   46.4257   32.5481   46.9282 H   0  0  0  0  0  0  0  0  0  0  0  0
   44.6765   34.2384   47.3752 H   0  0  0  0  0  0  0  0  0  0  0  0
   43.9306   35.7888   45.6139 H   0  0  0  0  0  0  0  0  0  0  0  0
   44.8258   37.9653   42.5795 H   0  0  0  0  0  0  0  0  0  0  0  0
   46.5580   32.4276   39.9005 H   0  0  0  0  0  0  0  0  0  0  0  0
   46.1245   33.8498   38.9216 H   0  0  0  0  0  0  0  0  0  0  0  0
   37.9255   34.4386   40.3459 H   0  0  0  0  0  0  0  0  0  0  0  0
   40.0327   33.7330   41.5615 H   0  0  0  0  0  0  0  0  0  0  0  0
   40.0002   34.5970   36.6941 H   0  0  0  0  0  0  0  0  0  0  0  0
  1  2  1  0
  2  3  2  0
  2 10  1  0
  3  4  1  0
  4  5  1  0
  5  6  2  0
  6  7  1  0
  8  7  2  0
  9  8  1  0
 10  9  2  0
 10  5  1  0
 11 13  1  0
 11  9  1  0
 12 11  2  0
 14 18  1  0
 14  1  1  0
 15 16  2  0
 16 17  1  0
 18 17  1  0
 19 15  1  0
 19 18  2  0
 20 21  2  0
 22 15  1  0
 22 21  1  0
 23 22  2  0
 24 23  1  0
 24 25  2  0
 25 20  1  0
  3 26  1  0
  4 27  1  0
  6 28  1  0
  7 29  1  0
  8 30  1  0
 13 31  1  0
 14 32  1  0
 14 33  1  0
 20 34  1  0
 21 35  1  0
 24 36  1  0
M  ISO  8  26  14  27   9  28  14  29  14  30  14  31   3  32   8  33   8
M  ISO  3  34  14  35  14  36  14
M  END
>  <minimizedAffinity>  (1) 
-5.72178841

>  <minimizedRMSD>  (1) 
1.52912199

$$$$
