
     RDKit          3D

 42 45  0  0  0  0  0  0  0  0999 V2000
   46.9050   33.3960   38.7370 S   0  0  0  0  0  0  0  0  0  0  0  0
   48.3470   32.5350   39.2980 C   0  0  0  0  0  0  0  0  0  0  0  0
   48.7810   31.4330   38.5980 C   0  0  0  0  0  0  0  0  0  0  0  0
   49.8860   30.9340   39.2300 N   0  0  0  0  0  0  0  0  0  0  0  0
   50.1430   31.7110   40.3160 C   0  0  0  0  0  0  0  0  0  0  0  0
   51.0970   31.7060   41.3320 C   0  0  0  0  0  0  0  0  0  0  0  0
   51.0620   32.6750   42.3260 C   0  0  0  0  0  0  0  0  0  0  0  0
   50.0830   33.6600   42.3220 C   0  0  0  0  0  0  0  0  0  0  0  0
   49.0950   33.7190   41.3240 C   0  0  0  0  0  0  0  0  0  0  0  0
   49.1810   32.7260   40.3690 C   0  0  0  0  0  0  0  0  0  0  0  0
   48.1570   34.8480   41.1450 C   0  0  0  0  0  0  0  0  0  0  0  0
   47.1050   34.9540   42.2150 C   0  0  0  0  0  0  0  0  0  0  0  0
   49.0460   36.1160   41.3910 C   0  0  0  0  0  0  0  0  0  0  0  0
   45.9690   32.4350   37.5030 C   0  0  0  0  0  0  0  0  0  0  0  0
   42.6840   33.3480   38.7200 C   0  0  0  0  0  0  0  0  0  0  0  0
   42.4210   32.2800   37.9610 N   0  0  0  0  0  0  0  0  0  0  0  0
   43.5160   31.8150   37.4320 O   0  0  0  0  0  0  0  0  0  0  0  0
   44.5190   32.5680   37.8350 C   0  0  0  0  0  0  0  0  0  0  0  0
   43.9710   33.5020   38.6250 N   0  0  0  0  0  0  0  0  0  0  0  0
   40.0740   35.7140   40.0110 C   0  0  0  0  0  0  0  0  0  0  0  0
   40.7250   34.8410   39.1050 C   0  0  0  0  0  0  0  0  0  0  0  0
   41.9140   34.2750   39.5460 C   0  0  0  0  0  0  0  0  0  0  0  0
   42.4110   34.5540   40.7820 N   0  0  0  0  0  0  0  0  0  0  0  0
   41.7340   35.4000   41.5980 C   0  0  0  0  0  0  0  0  0  0  0  0
   40.5750   35.9740   41.2140 N   0  0  0  0  0  0  0  0  0  0  0  0
   48.3189   31.0241   37.6874 H   0  0  0  0  0  0  0  0  0  0  0  0
   50.4302   30.1110   38.9343 H   0  0  0  0  0  0  0  0  0  0  0  0
   51.8793   30.9328   41.3465 H   0  0  0  0  0  0  0  0  0  0  0  0
   51.8178   32.6623   43.1251 H   0  0  0  0  0  0  0  0  0  0  0  0
   50.0807   34.4149   43.1220 H   0  0  0  0  0  0  0  0  0  0  0  0
   47.6619   34.7340   40.1693 H   0  0  0  0  0  0  0  0  0  0  0  0
   47.5826   34.9059   43.2048 H   0  0  0  0  0  0  0  0  0  0  0  0
   46.5716   35.9104   42.1113 H   0  0  0  0  0  0  0  0  0  0  0  0
   46.3915   34.1232   42.1113 H   0  0  0  0  0  0  0  0  0  0  0  0
   49.1605   36.2793   42.4728 H   0  0  0  0  0  0  0  0  0  0  0  0
   50.0360   35.9635   40.9364 H   0  0  0  0  0  0  0  0  0  0  0  0
   48.5652   36.9947   40.9364 H   0  0  0  0  0  0  0  0  0  0  0  0
   46.2683   31.3773   37.5451 H   0  0  0  0  0  0  0  0  0  0  0  0
   46.1696   32.8087   36.4881 H   0  0  0  0  0  0  0  0  0  0  0  0
   39.1286   36.1893   39.7107 H   0  0  0  0  0  0  0  0  0  0  0  0
   40.3122   34.6238   38.1088 H   0  0  0  0  0  0  0  0  0  0  0  0
   42.1393   35.6232   42.5959 H   0  0  0  0  0  0  0  0  0  0  0  0
  1  2  1  0
  2 10  1  0
  3  4  1  0
  3  2  2  0
  4  5  1  0
  5 10  2  0
  5  6  1  0
  6  7  2  0
  8  7  1  0
  9  8  2  0
 10  9  1  0
 11  9  1  0
 11 13  1  0
 11 12  1  0
 14 18  1  0
 14  1  1  0
 15 22  1  0
 16 15  2  0
 17 18  1  0
 17 16  1  0
 18 19  2  0
 19 15  1  0
 20 25  2  0
 21 22  2  0
 21 20  1  0
 22 23  1  0
 23 24  2  0
 25 24  1  0
  3 26  1  0
  4 27  1  0
  6 28  1  0
  7 29  1  0
  8 30  1  0
 11 31  1  0
 12 32  1  0
 12 33  1  0
 12 34  1  0
 13 35  1  0
 13 36  1  0
 13 37  1  0
 14 38  1  0
 14 39  1  0
 20 40  1  0
 21 41  1  0
 24 42  1  0
M  ISO  8  26  14  27   9  28  14  29  14  30  14  31   8  32   8  33   8
M  ISO  8  34   8  35   8  36   8  37   8  38   8  39   8  40  14  41  14
M  ISO  1  42  14
M  END
>  <minimizedAffinity>  (1) 
-5.56702662

>  <minimizedRMSD>  (1) 
4.08751488

$$$$
