
     RDKit          3D

 39 42  0  0  0  0  0  0  0  0999 V2000
   47.4940   34.6710   41.4040 S   0  0  0  0  0  0  0  0  0  0  0  0
   47.1750   34.0140   43.0200 C   0  0  0  0  0  0  0  0  0  0  0  0
   47.9240   32.9580   43.4540 C   0  0  0  0  0  0  0  0  0  0  0  0
   47.4910   32.6210   44.7160 N   0  0  0  0  0  0  0  0  0  0  0  0
   46.4760   33.4730   45.0540 C   0  0  0  0  0  0  0  0  0  0  0  0
   45.6440   33.6320   46.1640 C   0  0  0  0  0  0  0  0  0  0  0  0
   44.6730   34.6300   46.1750 C   0  0  0  0  0  0  0  0  0  0  0  0
   44.5170   35.4770   45.0910 C   0  0  0  0  0  0  0  0  0  0  0  0
   45.3360   35.3530   43.9510 C   0  0  0  0  0  0  0  0  0  0  0  0
   46.2690   34.3550   43.9930 C   0  0  0  0  0  0  0  0  0  0  0  0
   45.2140   36.3800   42.8720 C   0  0  0  0  0  0  0  0  0  0  0  0
   45.2200   37.7620   43.5570 C   0  0  0  0  0  0  0  0  0  0  0  0
   46.7190   33.6520   40.1000 C   0  0  0  0  0  0  0  0  0  0  0  0
   43.1640   33.6070   40.7720 C   0  0  0  0  0  0  0  0  0  0  0  0
   43.5830   32.4820   41.3690 N   0  0  0  0  0  0  0  0  0  0  0  0
   44.8700   32.3290   41.2250 O   0  0  0  0  0  0  0  0  0  0  0  0
   45.3180   33.3640   40.5230 C   0  0  0  0  0  0  0  0  0  0  0  0
   44.2430   34.1260   40.2620 N   0  0  0  0  0  0  0  0  0  0  0  0
   40.3890   36.1250   40.8360 C   0  0  0  0  0  0  0  0  0  0  0  0
   41.6650   35.5770   41.0840 C   0  0  0  0  0  0  0  0  0  0  0  0
   41.8910   34.2990   40.5940 C   0  0  0  0  0  0  0  0  0  0  0  0
   40.9240   33.6170   39.9100 N   0  0  0  0  0  0  0  0  0  0  0  0
   39.7200   34.2070   39.7100 C   0  0  0  0  0  0  0  0  0  0  0  0
   39.4560   35.4500   40.1700 N   0  0  0  0  0  0  0  0  0  0  0  0
   48.7313   32.4638   42.8936 H   0  0  0  0  0  0  0  0  0  0  0  0
   47.8652   31.8614   45.3024 H   0  0  0  0  0  0  0  0  0  0  0  0
   45.7560   32.9666   47.0327 H   0  0  0  0  0  0  0  0  0  0  0  0
   44.0228   34.7467   47.0546 H   0  0  0  0  0  0  0  0  0  0  0  0
   43.7428   36.2578   45.1200 H   0  0  0  0  0  0  0  0  0  0  0  0
   44.2735   36.2369   42.3197 H   0  0  0  0  0  0  0  0  0  0  0  0
   46.0443   36.2950   42.1555 H   0  0  0  0  0  0  0  0  0  0  0  0
   45.2194   37.6300   44.6490 H   0  0  0  0  0  0  0  0  0  0  0  0
   46.1206   38.3169   43.2552 H   0  0  0  0  0  0  0  0  0  0  0  0
   44.3243   38.3247   43.2552 H   0  0  0  0  0  0  0  0  0  0  0  0
   47.2752   32.7106   39.9799 H   0  0  0  0  0  0  0  0  0  0  0  0
   46.7294   34.1845   39.1375 H   0  0  0  0  0  0  0  0  0  0  0  0
   40.1596   37.1364   41.2027 H   0  0  0  0  0  0  0  0  0  0  0  0
   42.4380   36.1323   41.6354 H   0  0  0  0  0  0  0  0  0  0  0  0
   38.9393   33.6610   39.1602 H   0  0  0  0  0  0  0  0  0  0  0  0
  1  2  1  0
  2  3  2  0
  2 10  1  0
  3  4  1  0
  4  5  1  0
  5  6  2  0
  6  7  1  0
  8  7  2  0
  9 10  2  0
  9  8  1  0
 10  5  1  0
 11 12  1  0
 11  9  1  0
 13 17  1  0
 13  1  1  0
 14 15  2  0
 16 15  1  0
 17 16  1  0
 18 17  2  0
 18 14  1  0
 19 20  2  0
 21 14  1  0
 21 20  1  0
 22 21  2  0
 23 22  1  0
 23 24  2  0
 24 19  1  0
  3 25  1  0
  4 26  1  0
  6 27  1  0
  7 28  1  0
  8 29  1  0
 11 30  1  0
 11 31  1  0
 12 32  1  0
 12 33  1  0
 12 34  1  0
 13 35  1  0
 13 36  1  0
 19 37  1  0
 20 38  1  0
 23 39  1  0
M  ISO  8  25  14  26   9  27  14  28  14  29  14  30   8  31   8  32   8
M  ISO  7  33   8  34   8  35   8  36   8  37  14  38  14  39  14
M  END
>  <minimizedAffinity>  (1) 
-5.35822248

>  <minimizedRMSD>  (1) 
0.740032017

$$$$
