
     RDKit          3D

 35 38  0  0  0  0  0  0  0  0999 V2000
   47.4040   34.7260   41.5920 S   0  0  0  0  0  0  0  0  0  0  0  0
   47.1440   33.9630   43.1620 C   0  0  0  0  0  0  0  0  0  0  0  0
   47.9090   32.8900   43.5080 C   0  0  0  0  0  0  0  0  0  0  0  0
   47.5230   32.4810   44.7610 N   0  0  0  0  0  0  0  0  0  0  0  0
   46.5140   33.3050   45.1890 C   0  0  0  0  0  0  0  0  0  0  0  0
   45.7160   33.4270   46.3240 C   0  0  0  0  0  0  0  0  0  0  0  0
   44.7610   34.4090   46.4250 C   0  0  0  0  0  0  0  0  0  0  0  0
   44.5630   35.3060   45.4060 C   0  0  0  0  0  0  0  0  0  0  0  0
   45.3370   35.2190   44.2620 C   0  0  0  0  0  0  0  0  0  0  0  0
   46.2730   34.2400   44.1840 C   0  0  0  0  0  0  0  0  0  0  0  0
   45.1190   36.2390   43.2660 C   0  0  0  0  0  0  0  0  0  0  0  0
   45.1230   37.4400   43.0530 O   0  0  0  0  0  0  0  0  0  0  0  0
   46.6050   33.8100   40.2400 C   0  0  0  0  0  0  0  0  0  0  0  0
   43.0520   33.6490   40.9060 C   0  0  0  0  0  0  0  0  0  0  0  0
   43.5130   32.5640   41.5880 N   0  0  0  0  0  0  0  0  0  0  0  0
   44.7990   32.4590   41.4590 O   0  0  0  0  0  0  0  0  0  0  0  0
   45.2140   33.4720   40.6910 C   0  0  0  0  0  0  0  0  0  0  0  0
   44.1190   34.1790   40.3710 N   0  0  0  0  0  0  0  0  0  0  0  0
   40.2430   36.0990   40.6160 C   0  0  0  0  0  0  0  0  0  0  0  0
   41.5510   35.6210   40.8700 C   0  0  0  0  0  0  0  0  0  0  0  0
   41.7620   34.2640   40.6800 C   0  0  0  0  0  0  0  0  0  0  0  0
   40.7500   33.4490   40.2710 N   0  0  0  0  0  0  0  0  0  0  0  0
   39.5170   33.9730   40.0440 C   0  0  0  0  0  0  0  0  0  0  0  0
   39.2670   35.2970   40.2180 N   0  0  0  0  0  0  0  0  0  0  0  0
   48.6970   32.4319   42.8922 H   0  0  0  0  0  0  0  0  0  0  0  0
   47.9225   31.6915   45.2882 H   0  0  0  0  0  0  0  0  0  0  0  0
   45.8535   32.7220   47.1571 H   0  0  0  0  0  0  0  0  0  0  0  0
   44.1468   34.4771   47.3350 H   0  0  0  0  0  0  0  0  0  0  0  0
   43.7951   36.0882   45.4975 H   0  0  0  0  0  0  0  0  0  0  0  0
   44.8386   35.7354   42.3291 H   0  0  0  0  0  0  0  0  0  0  0  0
   47.1660   32.8882   40.0268 H   0  0  0  0  0  0  0  0  0  0  0  0
   46.5805   34.4144   39.3213 H   0  0  0  0  0  0  0  0  0  0  0  0
   40.0306   37.1695   40.7534 H   0  0  0  0  0  0  0  0  0  0  0  0
   42.3580   36.2913   41.2009 H   0  0  0  0  0  0  0  0  0  0  0  0
   38.7037   33.3109   39.7122 H   0  0  0  0  0  0  0  0  0  0  0  0
  1  2  1  0
  2  3  2  0
  2 10  1  0
  3  4  1  0
  4  5  1  0
  5  6  2  0
  6  7  1  0
  8  7  2  0
  9  8  1  0
 10  9  2  0
 10  5  1  0
 11  9  1  0
 12 11  2  0
 13 17  1  0
 13  1  1  0
 14 15  2  0
 16 15  1  0
 17 16  1  0
 18 17  2  0
 18 14  1  0
 19 20  2  0
 21 20  1  0
 21 14  1  0
 22 21  2  0
 23 24  2  0
 23 22  1  0
 24 19  1  0
  3 25  1  0
  4 26  1  0
  6 27  1  0
  7 28  1  0
  8 29  1  0
 11 30  1  0
 13 31  1  0
 13 32  1  0
 19 33  1  0
 20 34  1  0
 23 35  1  0
M  ISO  8  25  14  26   9  27  14  28  14  29  14  30   6  31   8  32   8
M  ISO  3  33  14  34  14  35  14
M  END
>  <minimizedAffinity>  (1) 
-5.34061146

>  <minimizedRMSD>  (1) 
0.988964558

$$$$
