
     RDKit          3D

 46 50  0  0  0  0  0  0  0  0999 V2000
   46.9220   34.3970   42.8040 C   0  0  0  0  0  0  0  0  0  0  0  0
   47.6370   35.1270   41.8840 C   0  0  0  0  0  0  0  0  0  0  0  0
   48.7430   34.3950   41.5240 N   0  0  0  0  0  0  0  0  0  0  0  0
   48.7130   33.2200   42.2140 C   0  0  0  0  0  0  0  0  0  0  0  0
   49.5320   32.0930   42.2640 C   0  0  0  0  0  0  0  0  0  0  0  0
   49.1950   31.0300   43.0970 C   0  0  0  0  0  0  0  0  0  0  0  0
   48.0440   31.0790   43.8870 C   0  0  0  0  0  0  0  0  0  0  0  0
   47.1930   32.1990   43.8690 C   0  0  0  0  0  0  0  0  0  0  0  0
   47.5730   33.2140   43.0230 C   0  0  0  0  0  0  0  0  0  0  0  0
   46.1270   32.2370   44.8960 C   0  0  0  0  0  0  0  0  0  0  0  0
   45.9340   30.9290   45.5970 C   0  0  0  0  0  0  0  0  0  0  0  0
   47.0190   30.8070   46.6150 C   0  0  0  0  0  0  0  0  0  0  0  0
   46.9640   32.2190   47.2150 C   0  0  0  0  0  0  0  0  0  0  0  0
   46.5780   33.1170   46.0810 C   0  0  0  0  0  0  0  0  0  0  0  0
   45.4150   35.0590   43.4440 S   0  0  0  0  0  0  0  0  0  0  0  0
   44.5550   36.1170   42.2330 C   0  0  0  0  0  0  0  0  0  0  0  0
   42.1800   33.6410   41.0800 C   0  0  0  0  0  0  0  0  0  0  0  0
   42.3850   34.3790   39.9830 N   0  0  0  0  0  0  0  0  0  0  0  0
   43.2300   35.3340   40.2240 O   0  0  0  0  0  0  0  0  0  0  0  0
   43.6000   35.2480   41.4850 C   0  0  0  0  0  0  0  0  0  0  0  0
   42.9320   34.1960   41.9800 N   0  0  0  0  0  0  0  0  0  0  0  0
   41.0460   30.2990   42.3540 C   0  0  0  0  0  0  0  0  0  0  0  0
   41.9310   31.3610   42.0590 C   0  0  0  0  0  0  0  0  0  0  0  0
   41.3790   32.4730   41.4380 C   0  0  0  0  0  0  0  0  0  0  0  0
   40.0560   32.5180   41.1400 N   0  0  0  0  0  0  0  0  0  0  0  0
   39.2590   31.4630   41.4500 C   0  0  0  0  0  0  0  0  0  0  0  0
   39.7550   30.3620   42.0540 N   0  0  0  0  0  0  0  0  0  0  0  0
   47.3702   36.1236   41.5025 H   0  0  0  0  0  0  0  0  0  0  0  0
   49.4673   34.6836   40.8510 H   0  0  0  0  0  0  0  0  0  0  0  0
   50.4415   32.0440   41.6472 H   0  0  0  0  0  0  0  0  0  0  0  0
   49.8423   30.1414   43.1336 H   0  0  0  0  0  0  0  0  0  0  0  0
   47.7983   30.2253   44.5357 H   0  0  0  0  0  0  0  0  0  0  0  0
   45.2338   32.5703   44.3472 H   0  0  0  0  0  0  0  0  0  0  0  0
   44.9509   30.9076   46.0901 H   0  0  0  0  0  0  0  0  0  0  0  0
   45.9749   30.0941   44.8820 H   0  0  0  0  0  0  0  0  0  0  0  0
   46.7936   30.0338   47.3642 H   0  0  0  0  0  0  0  0  0  0  0  0
   47.9999   30.5043   46.2196 H   0  0  0  0  0  0  0  0  0  0  0  0
   46.2130   32.2674   48.0173 H   0  0  0  0  0  0  0  0  0  0  0  0
   47.9260   32.5124   47.6605 H   0  0  0  0  0  0  0  0  0  0  0  0
   47.4411   33.7297   45.7816 H   0  0  0  0  0  0  0  0  0  0  0  0
   45.7602   33.7852   46.3889 H   0  0  0  0  0  0  0  0  0  0  0  0
   44.0079   36.9170   42.7533 H   0  0  0  0  0  0  0  0  0  0  0  0
   45.2741   36.5872   41.5462 H   0  0  0  0  0  0  0  0  0  0  0  0
   41.4380   29.3963   42.8454 H   0  0  0  0  0  0  0  0  0  0  0  0
   43.0011   31.3090   42.3085 H   0  0  0  0  0  0  0  0  0  0  0  0
   38.1877   31.5063   41.2040 H   0  0  0  0  0  0  0  0  0  0  0  0
  1  9  1  0
  1 15  1  0
  2  1  2  0
  3  2  1  0
  3  4  1  0
  4  5  2  0
  4  9  1  0
  5  6  1  0
  6  7  2  0
  8  7  1  0
  8 10  1  0
  9  8  2  0
 10 11  1  0
 10 14  1  0
 11 12  1  0
 12 13  1  0
 14 13  1  0
 16 15  1  0
 17 24  1  0
 17 21  1  0
 18 19  1  0
 18 17  2  0
 19 20  1  0
 20 21  2  0
 20 16  1  0
 23 22  2  0
 24 23  1  0
 25 24  2  0
 25 26  1  0
 26 27  2  0
 27 22  1  0
  2 28  1  0
  3 29  1  0
  5 30  1  0
  6 31  1  0
  7 32  1  0
 10 33  1  0
 11 34  1  0
 11 35  1  0
 12 36  1  0
 12 37  1  0
 13 38  1  0
 13 39  1  0
 14 40  1  0
 14 41  1  0
 16 42  1  0
 16 43  1  0
 22 44  1  0
 23 45  1  0
 26 46  1  0
M  ISO  8  28  14  29   9  30  14  31  14  32  14  33  13  34  13  35  13
M  ISO  8  36  13  37  13  38  13  39  13  40  13  41  13  42   8  43   8
M  ISO  3  44  14  45  14  46  14
M  END
>  <minimizedAffinity>  (1) 
-5.26528406

>  <minimizedRMSD>  (1) 
4.74513674

$$$$
