
     RDKit          3D

 36 38  0  0  1  0  0  0  0  0999 V2000
   47.8310   34.9580   41.2910 C   0  0  2  0  0  0  0  0  0  0  0  0
   49.0580   35.6290   41.6320 C   0  0  0  0  0  0  0  0  0  0  0  0
   49.9330   34.6300   42.4080 C   0  0  0  0  0  0  0  0  0  0  0  0
   49.2000   33.3070   42.4180 C   0  0  0  0  0  0  0  0  0  0  0  0
   47.7750   33.7050   42.2280 C   0  0  1  0  0  0  0  0  0  0  0  0
   47.6620   34.4040   39.9340 C   0  0  0  0  0  0  0  0  0  0  0  0
   48.5460   34.7880   38.9310 C   0  0  0  0  0  0  0  0  0  0  0  0
   48.4090   34.2830   37.6490 C   0  0  0  0  0  0  0  0  0  0  0  0
   47.3680   33.4030   37.4480 N   0  0  0  0  0  0  0  0  0  0  0  0
   46.5170   33.0390   38.4380 C   0  0  0  0  0  0  0  0  0  0  0  0
   46.6920   33.5570   39.6620 N   0  0  0  0  0  0  0  0  0  0  0  0
   47.1880   34.1860   43.5340 C   0  0  0  0  0  0  0  0  0  0  0  0
   45.9460   34.9530   43.3210 C   0  0  0  0  0  0  0  0  0  0  0  0
   44.8570   34.3740   42.6410 N   0  0  0  0  0  0  0  0  0  0  0  0
   44.0460   35.0750   41.7700 C   0  0  0  0  0  0  0  0  0  0  0  0
   43.0680   34.3500   41.1370 C   0  0  0  0  0  0  0  0  0  0  0  0
   43.2660   33.1160   41.6310 N   0  0  0  0  0  0  0  0  0  0  0  0
   44.2950   33.1770   42.4830 C   0  0  0  0  0  0  0  0  0  0  0  0
   47.0601   35.7372   41.3836 H   0  0  0  0  0  0  0  0  0  0  0  0
   49.5768   35.9504   40.7168 H   0  0  0  0  0  0  0  0  0  0  0  0
   48.8543   36.5207   42.2431 H   0  0  0  0  0  0  0  0  0  0  0  0
   50.9076   34.5171   41.9107 H   0  0  0  0  0  0  0  0  0  0  0  0
   50.1138   34.9839   43.4337 H   0  0  0  0  0  0  0  0  0  0  0  0
   49.5418   32.6605   41.5963 H   0  0  0  0  0  0  0  0  0  0  0  0
   49.3671   32.7284   43.3385 H   0  0  0  0  0  0  0  0  0  0  0  0
   47.1808   32.8646   41.8399 H   0  0  0  0  0  0  0  0  0  0  0  0
   49.3572   35.4957   39.1572 H   0  0  0  0  0  0  0  0  0  0  0  0
   49.0931   34.5685   36.8363 H   0  0  0  0  0  0  0  0  0  0  0  0
   45.6980   32.3317   38.2408 H   0  0  0  0  0  0  0  0  0  0  0  0
   46.9654   33.3149   44.1677 H   0  0  0  0  0  0  0  0  0  0  0  0
   47.9218   34.8469   44.0185 H   0  0  0  0  0  0  0  0  0  0  0  0
   45.5786   35.2412   44.3170 H   0  0  0  0  0  0  0  0  0  0  0  0
   46.2645   35.7562   42.6403 H   0  0  0  0  0  0  0  0  0  0  0  0
   44.1767   36.1529   41.5938 H   0  0  0  0  0  0  0  0  0  0  0  0
   42.3151   34.6913   40.4113 H   0  0  0  0  0  0  0  0  0  0  0  0
   44.6565   32.2892   43.0225 H   0  0  0  0  0  0  0  0  0  0  0  0
  1  2  1  0
  1  5  1  0
  2  3  1  0
  3  4  1  0
  5  4  1  0
  5 12  1  0
  6  1  1  0
  7  6  2  0
  8  7  1  0
  9  8  2  0
  9 10  1  0
 10 11  2  0
 11  6  1  0
 13 12  1  0
 14 13  1  0
 15 14  1  0
 16 17  1  0
 16 15  2  0
 17 18  2  0
 18 14  1  0
  1 19  1  1
  2 20  1  0
  2 21  1  0
  3 22  1  0
  3 23  1  0
  4 24  1  0
  4 25  1  0
  5 26  1  6
  7 27  1  0
  8 28  1  0
 10 29  1  0
 12 30  1  0
 12 31  1  0
 13 32  1  0
 13 33  1  0
 15 34  1  0
 16 35  1  0
 18 36  1  0
M  ISO  8  19  13  20  13  21  13  22  13  23  13  24  13  25  13  26  13
M  ISO  8  27  14  28  14  29  14  30   8  31   8  32   8  33   8  34  14
M  ISO  2  35  14  36  14
M  END
>  <minimizedAffinity>  (1) 
-4.7989521

>  <minimizedRMSD>  (1) 
0.454269081

$$$$
