
     RDKit          3D

 26 28  0  0  0  0  0  0  0  0999 V2000
   46.6990   34.4880   41.6480 C   0  0  0  0  0  0  0  0  0  0  0  0
   46.0310   34.3370   40.5710 O   0  0  0  0  0  0  0  0  0  0  0  0
   45.8770   35.0120   42.7290 C   0  0  0  0  0  0  0  0  0  0  0  0
   45.0320   36.1260   42.7570 C   0  0  0  0  0  0  0  0  0  0  0  0
   44.4670   36.2370   43.9750 N   0  0  0  0  0  0  0  0  0  0  0  0
   44.9030   35.2400   44.7630 C   0  0  0  0  0  0  0  0  0  0  0  0
   44.6100   34.9410   46.0740 C   0  0  0  0  0  0  0  0  0  0  0  0
   45.2200   33.8240   46.6510 C   0  0  0  0  0  0  0  0  0  0  0  0
   46.0910   33.0560   45.9050 C   0  0  0  0  0  0  0  0  0  0  0  0
   46.3880   33.3520   44.5890 C   0  0  0  0  0  0  0  0  0  0  0  0
   45.7820   34.4670   44.0050 C   0  0  0  0  0  0  0  0  0  0  0  0
   48.0870   34.2020   41.8510 C   0  0  0  0  0  0  0  0  0  0  0  0
   48.4430   32.9360   41.3680 C   0  0  0  0  0  0  0  0  0  0  0  0
   49.7820   32.5340   41.5080 C   0  0  0  0  0  0  0  0  0  0  0  0
   50.6480   33.4150   42.1110 N   0  0  0  0  0  0  0  0  0  0  0  0
   50.2460   34.6300   42.5590 C   0  0  0  0  0  0  0  0  0  0  0  0
   48.9770   35.0090   42.4260 N   0  0  0  0  0  0  0  0  0  0  0  0
   44.8554   36.8083   41.9124 H   0  0  0  0  0  0  0  0  0  0  0  0
   43.8036   36.9723   44.2582 H   0  0  0  0  0  0  0  0  0  0  0  0
   43.9135   35.5653   46.6529 H   0  0  0  0  0  0  0  0  0  0  0  0
   45.0066   33.5576   47.6967 H   0  0  0  0  0  0  0  0  0  0  0  0
   46.5637   32.1802   46.3735 H   0  0  0  0  0  0  0  0  0  0  0  0
   47.0852   32.7246   44.0144 H   0  0  0  0  0  0  0  0  0  0  0  0
   47.6988   32.2785   40.8948 H   0  0  0  0  0  0  0  0  0  0  0  0
   50.1241   31.5522   41.1489 H   0  0  0  0  0  0  0  0  0  0  0  0
   50.9721   35.3057   43.0346 H   0  0  0  0  0  0  0  0  0  0  0  0
  1 12  1  0
  1  3  1  0
  2  1  2  0
  3  4  2  0
  3 11  1  0
  4  5  1  0
  5  6  1  0
  6  7  2  0
  7  8  1  0
  9  8  2  0
 10  9  1  0
 11 10  2  0
 11  6  1  0
 12 17  2  0
 13 14  2  0
 13 12  1  0
 14 15  1  0
 15 16  2  0
 17 16  1  0
  4 18  1  0
  5 19  1  0
  7 20  1  0
  8 21  1  0
  9 22  1  0
 10 23  1  0
 13 24  1  0
 14 25  1  0
 16 26  1  0
M  ISO  8  18  14  19   9  20  14  21  14  22  14  23  14  24  14  25  14
M  ISO  1  26  14
M  END
>  <minimizedAffinity>  (1) 
-5.13548803

>  <minimizedRMSD>  (1) 
4.64793873

$$$$
