
     RDKit          3D

 28 30  0  0  1  0  0  0  0  0999 V2000
   43.9390   35.1020   42.0420 C   0  0  0  0  0  0  0  0  0  0  0  0
   42.7130   35.5710   42.1740 N   0  0  0  0  0  0  0  0  0  0  0  0
   41.7680   35.3850   41.1990 C   0  0  0  0  0  0  0  0  0  0  0  0
   42.0270   34.7160   40.0480 N   0  0  0  0  0  0  0  0  0  0  0  0
   43.2790   34.2120   39.8560 C   0  0  0  0  0  0  0  0  0  0  0  0
   43.5650   33.5500   38.6870 C   0  0  0  0  0  0  0  0  0  0  0  0
   44.8290   33.0550   38.4600 C   0  0  0  0  0  0  0  0  0  0  0  0
   45.7650   33.2610   39.4610 C   0  0  0  0  0  0  0  0  0  0  0  0
   45.4210   33.9210   40.5940 C   0  0  0  0  0  0  0  0  0  0  0  0
   44.1790   34.4330   40.8730 C   0  0  0  0  0  0  0  0  0  0  0  0
   44.9460   35.3190   43.1130 C   0  0  0  0  0  0  0  0  0  0  0  0
   45.3210   36.5430   42.8830 O   0  0  0  0  0  0  0  0  0  0  0  0
   45.4620   34.5150   44.1710 C   0  0  0  0  0  0  0  0  0  0  0  0
   46.5160   33.7170   43.7370 C   0  0  0  0  0  0  0  0  0  0  0  0
   47.1370   32.8340   44.6630 C   0  0  0  0  0  0  0  0  0  0  0  0
   46.6290   32.8440   45.9430 N   0  0  0  0  0  0  0  0  0  0  0  0
   45.6100   33.6350   46.3130 C   0  0  0  0  0  0  0  0  0  0  0  0
   45.0260   34.4600   45.4590 N   0  0  0  0  0  0  0  0  0  0  0  0
   40.7593   35.7946   41.3562 H   0  0  0  0  0  0  0  0  0  0  0  0
   42.7799   33.4148   37.9285 H   0  0  0  0  0  0  0  0  0  0  0  0
   45.0833   32.5230   37.5314 H   0  0  0  0  0  0  0  0  0  0  0  0
   46.7919   32.8872   39.3356 H   0  0  0  0  0  0  0  0  0  0  0  0
   46.2041   34.0577   41.3543 H   0  0  0  0  0  0  0  0  0  0  0  0
   45.7373   34.9508   42.4436 H   0  0  0  0  0  0  0  0  0  0  0  0
   45.4645   37.0114   43.7433 H   0  0  0  0  0  0  0  0  0  0  0  0
   46.8633   33.7682   42.6945 H   0  0  0  0  0  0  0  0  0  0  0  0
   47.9739   32.1814   44.3738 H   0  0  0  0  0  0  0  0  0  0  0  0
   45.2513   33.5966   47.3521 H   0  0  0  0  0  0  0  0  0  0  0  0
  1  2  2  0
  1 11  1  0
  3  2  1  0
  4  3  2  0
  5  4  1  0
  5 10  2  0
  6  5  1  0
  7  6  2  0
  7  8  1  0
  8  9  2  0
  9 10  1  0
 10  1  1  0
 11 12  1  0
 11 13  1  0
 13 18  1  0
 14 13  2  0
 14 15  1  0
 15 16  2  0
 16 17  1  0
 18 17  2  0
  3 19  1  0
  6 20  1  0
  7 21  1  0
  8 22  1  0
  9 23  1  0
 11 24  1  0
 12 25  1  0
 14 26  1  0
 15 27  1  0
 17 28  1  0
M  ISO  8  19  14  20  14  21  14  22  14  23  14  24   8  25   3  26  14
M  ISO  2  27  14  28  14
M  END
>  <minimizedAffinity>  (1) 
-4.62672615

>  <minimizedRMSD>  (1) 
2.72113276

$$$$
