
     RDKit          3D

 22 23  0  0  0  0  0  0  0  0999 V2000
   45.6550   35.1380   42.5170 C   0  0  0  0  0  0  0  0  0  0  0  0
   45.3590   35.7630   43.5930 O   0  0  0  0  0  0  0  0  0  0  0  0
   44.7330   34.7730   41.4840 C   0  0  0  0  0  0  0  0  0  0  0  0
   43.5330   35.5080   41.5500 C   0  0  0  0  0  0  0  0  0  0  0  0
   42.5230   35.2660   40.6030 C   0  0  0  0  0  0  0  0  0  0  0  0
   42.7800   34.3140   39.6640 N   0  0  0  0  0  0  0  0  0  0  0  0
   43.9480   33.6290   39.6370 C   0  0  0  0  0  0  0  0  0  0  0  0
   44.9140   33.8490   40.5280 N   0  0  0  0  0  0  0  0  0  0  0  0
   47.0820   34.8350   42.4720 C   0  0  0  0  0  0  0  0  0  0  0  0
   47.9980   35.6670   41.8600 C   0  0  0  0  0  0  0  0  0  0  0  0
   49.3610   35.4250   41.7930 C   0  0  0  0  0  0  0  0  0  0  0  0
   49.8410   34.2530   42.3860 C   0  0  0  0  0  0  0  0  0  0  0  0
   48.9370   33.4080   43.0020 C   0  0  0  0  0  0  0  0  0  0  0  0
   47.5910   33.6890   43.0460 C   0  0  0  0  0  0  0  0  0  0  0  0
   43.3878   36.2643   42.3354 H   0  0  0  0  0  0  0  0  0  0  0  0
   41.5719   35.8184   40.6196 H   0  0  0  0  0  0  0  0  0  0  0  0
   44.1037   32.8691   38.8570 H   0  0  0  0  0  0  0  0  0  0  0  0
   47.6191   36.5876   41.3922 H   0  0  0  0  0  0  0  0  0  0  0  0
   50.0408   36.1295   41.2914 H   0  0  0  0  0  0  0  0  0  0  0  0
   50.9134   34.0091   42.3628 H   0  0  0  0  0  0  0  0  0  0  0  0
   49.3048   32.4834   43.4709 H   0  0  0  0  0  0  0  0  0  0  0  0
   46.9087   32.9872   43.5479 H   0  0  0  0  0  0  0  0  0  0  0  0
  1  2  2  0
  3  4  2  0
  3  1  1  0
  5  4  1  0
  6  5  2  0
  7  6  1  0
  7  8  2  0
  8  3  1  0
  9  1  1  0
  9 14  1  0
 10  9  2  0
 11 10  1  0
 11 12  2  0
 12 13  1  0
 13 14  2  0
  4 15  1  0
  5 16  1  0
  7 17  1  0
 10 18  1  0
 11 19  1  0
 12 20  1  0
 13 21  1  0
 14 22  1  0
M  ISO  8  15  14  16  14  17  14  18  14  19  14  20  14  21  14  22  14
M  END
>  <minimizedAffinity>  (1) 
-4.37901878

>  <minimizedRMSD>  (1) 
6.03521776

$$$$
