
     RDKit          3D

 19 20  0  0  0  0  0  0  0  0999 V2000
   45.6270   33.8900   44.4050 C   0  0  0  0  0  0  0  0  0  0  0  0
   44.8880   34.6620   45.3030 C   0  0  0  0  0  0  0  0  0  0  0  0
   44.5910   35.9740   44.8910 C   0  0  0  0  0  0  0  0  0  0  0  0
   45.0430   36.3870   43.6600 N   0  0  0  0  0  0  0  0  0  0  0  0
   45.7510   35.5890   42.8440 C   0  0  0  0  0  0  0  0  0  0  0  0
   46.0360   34.3540   43.2230 N   0  0  0  0  0  0  0  0  0  0  0  0
   45.9110   32.5540   44.8630 C   0  0  0  0  0  0  0  0  0  0  0  0
   45.8610   31.4920   44.1520 O   0  0  0  0  0  0  0  0  0  0  0  0
   46.2960   32.3520   46.2710 C   0  0  0  0  0  0  0  0  0  0  0  0
   45.7360   31.4440   47.1540 C   0  0  0  0  0  0  0  0  0  0  0  0
   46.3720   31.5780   48.3450 N   0  0  0  0  0  0  0  0  0  0  0  0
   47.3130   32.5420   48.2330 C   0  0  0  0  0  0  0  0  0  0  0  0
   47.2500   33.0010   46.9610 N   0  0  0  0  0  0  0  0  0  0  0  0
   44.5574   34.2678   46.2753 H   0  0  0  0  0  0  0  0  0  0  0  0
   44.0126   36.6513   45.5365 H   0  0  0  0  0  0  0  0  0  0  0  0
   46.0919   35.9602   41.8662 H   0  0  0  0  0  0  0  0  0  0  0  0
   44.9211   30.7399   46.9299 H   0  0  0  0  0  0  0  0  0  0  0  0
   47.9972   32.8866   49.0223 H   0  0  0  0  0  0  0  0  0  0  0  0
   47.8497   33.7443   46.5754 H   0  0  0  0  0  0  0  0  0  0  0  0
  1  7  1  0
  1  2  2  0
  3  2  1  0
  4  3  2  0
  5  6  2  0
  5  4  1  0
  6  1  1  0
  7  9  1  0
  8  7  2  0
  9 13  1  0
  9 10  2  0
 10 11  1  0
 12 11  2  0
 13 12  1  0
  2 14  1  0
  3 15  1  0
  5 16  1  0
 10 17  1  0
 12 18  1  0
 13 19  1  0
M  ISO  6  14  14  15  14  16  14  17  14  18  14  19   9
M  END
>  <minimizedAffinity>  (1) 
-4.05998325

>  <minimizedRMSD>  (1) 
5.16642284

$$$$
