
     RDKit          3D

 19 20  0  0  0  0  0  0  0  0999 V2000
   46.1650   34.9420   43.2460 C   0  0  0  0  0  0  0  0  0  0  0  0
   46.4360   33.9260   44.1660 C   0  0  0  0  0  0  0  0  0  0  0  0
   45.7290   33.8920   45.3680 C   0  0  0  0  0  0  0  0  0  0  0  0
   44.7930   34.8810   45.5740 N   0  0  0  0  0  0  0  0  0  0  0  0
   44.5610   35.8520   44.6520 C   0  0  0  0  0  0  0  0  0  0  0  0
   45.2460   35.8740   43.5000 N   0  0  0  0  0  0  0  0  0  0  0  0
   46.9430   34.8860   42.0450 C   0  0  0  0  0  0  0  0  0  0  0  0
   48.0880   35.4240   41.8790 O   0  0  0  0  0  0  0  0  0  0  0  0
   46.6040   34.2090   40.7580 C   0  0  0  0  0  0  0  0  0  0  0  0
   46.0490   32.8360   40.7680 C   0  0  0  0  0  0  0  0  0  0  0  0
   45.1340   33.9410   40.4840 C   0  0  0  0  0  0  0  0  0  0  0  0
   47.1969   33.1629   43.9453 H   0  0  0  0  0  0  0  0  0  0  0  0
   45.9112   33.1091   46.1189 H   0  0  0  0  0  0  0  0  0  0  0  0
   43.8053   36.6258   44.8526 H   0  0  0  0  0  0  0  0  0  0  0  0
   47.4426   34.6978   40.2405 H   0  0  0  0  0  0  0  0  0  0  0  0
   46.3197   32.1340   39.9656 H   0  0  0  0  0  0  0  0  0  0  0  0
   46.0528   32.0146   41.4997 H   0  0  0  0  0  0  0  0  0  0  0  0
   44.3735   34.2311   41.2239 H   0  0  0  0  0  0  0  0  0  0  0  0
   44.4342   34.1858   39.6714 H   0  0  0  0  0  0  0  0  0  0  0  0
  1  6  1  0
  1  2  2  0
  2  3  1  0
  3  4  2  0
  5  4  1  0
  6  5  2  0
  7  1  1  0
  8  7  2  0
  9 10  1  0
  9  7  1  0
 11  9  1  0
 11 10  1  0
  2 12  1  0
  3 13  1  0
  5 14  1  0
  9 15  1  0
 10 16  1  0
 10 17  1  0
 11 18  1  0
 11 19  1  0
M  ISO  8  12  14  13  14  14  14  15  13  16  13  17  13  18  13  19  13
M  END
>  <minimizedAffinity>  (1) 
-3.62516427

>  <minimizedRMSD>  (1) 
3.53801084

$$$$
