
     RDKit          3D

 22 23  0  0  0  0  0  0  0  0999 V2000
   45.4360   34.8530   41.8310 C   0  0  0  0  0  0  0  0  0  0  0  0
   45.7150   35.6720   42.7790 O   0  0  0  0  0  0  0  0  0  0  0  0
   44.1440   34.7700   41.2170 C   0  0  0  0  0  0  0  0  0  0  0  0
   43.0720   35.4280   41.8680 C   0  0  0  0  0  0  0  0  0  0  0  0
   41.8210   35.3500   41.2750 C   0  0  0  0  0  0  0  0  0  0  0  0
   41.6820   34.6510   40.1110 N   0  0  0  0  0  0  0  0  0  0  0  0
   42.7260   34.0370   39.5200 C   0  0  0  0  0  0  0  0  0  0  0  0
   43.9260   34.1100   40.0840 N   0  0  0  0  0  0  0  0  0  0  0  0
   46.6250   34.0670   41.5160 C   0  0  0  0  0  0  0  0  0  0  0  0
   47.0360   33.0010   42.2840 C   0  0  0  0  0  0  0  0  0  0  0  0
   48.1820   32.2600   41.9660 C   0  0  0  0  0  0  0  0  0  0  0  0
   48.9500   32.5790   40.8530 C   0  0  0  0  0  0  0  0  0  0  0  0
   48.5430   33.6330   40.0940 C   0  0  0  0  0  0  0  0  0  0  0  0
   47.4130   34.3510   40.4210 C   0  0  0  0  0  0  0  0  0  0  0  0
   43.2258   35.9794   42.8073 H   0  0  0  0  0  0  0  0  0  0  0  0
   40.9532   35.8443   41.7360 H   0  0  0  0  0  0  0  0  0  0  0  0
   42.5857   33.4816   38.5809 H   0  0  0  0  0  0  0  0  0  0  0  0
   46.4487   32.7233   43.1717 H   0  0  0  0  0  0  0  0  0  0  0  0
   48.4773   31.4152   42.6056 H   0  0  0  0  0  0  0  0  0  0  0  0
   49.8509   32.0028   40.5955 H   0  0  0  0  0  0  0  0  0  0  0  0
   49.1256   33.9164   39.2050 H   0  0  0  0  0  0  0  0  0  0  0  0
   47.1251   35.1937   39.7753 H   0  0  0  0  0  0  0  0  0  0  0  0
  1  2  2  0
  3  1  1  0
  3  4  2  0
  5  4  1  0
  6  5  2  0
  7  8  2  0
  7  6  1  0
  8  3  1  0
  9  1  1  0
  9 10  2  0
 11 10  1  0
 12 11  2  0
 13 14  2  0
 13 12  1  0
 14  9  1  0
  4 15  1  0
  5 16  1  0
  7 17  1  0
 10 18  1  0
 11 19  1  0
 12 20  1  0
 13 21  1  0
 14 22  1  0
M  ISO  8  15  14  16  14  17  14  18  14  19  14  20  14  21  14  22  14
M  END
>  <minimizedAffinity>  (1) 
-3.54843926

>  <minimizedRMSD>  (1) 
6.45315361

$$$$
