
     RDKit          3D

 17 17  0  0  0  0  0  0  0  0999 V2000
   46.1070   34.5890   43.5060 C   0  0  0  0  0  0  0  0  0  0  0  0
   46.1990   33.7190   44.6080 C   0  0  0  0  0  0  0  0  0  0  0  0
   45.4220   34.0420   45.7260 C   0  0  0  0  0  0  0  0  0  0  0  0
   44.6370   35.1570   45.6820 N   0  0  0  0  0  0  0  0  0  0  0  0
   44.5900   35.9560   44.5910 C   0  0  0  0  0  0  0  0  0  0  0  0
   45.3260   35.6630   43.5140 N   0  0  0  0  0  0  0  0  0  0  0  0
   46.9330   34.1900   42.3970 C   0  0  0  0  0  0  0  0  0  0  0  0
   47.1080   32.9990   41.9780 O   0  0  0  0  0  0  0  0  0  0  0  0
   47.6690   35.0740   41.6170 O   0  0  0  0  0  0  0  0  0  0  0  0
   49.0010   35.3350   41.7000 C   0  0  0  0  0  0  0  0  0  0  0  0
   49.9460   34.2790   41.9410 N   0  0  0  0  0  0  0  0  0  0  0  0
   49.3510   36.5300   41.5590 O   0  0  0  0  0  0  0  0  0  0  0  0
   46.8480   32.8310   44.5915 H   0  0  0  0  0  0  0  0  0  0  0  0
   45.4437   33.4080   46.6247 H   0  0  0  0  0  0  0  0  0  0  0  0
   43.9456   36.8475   44.5902 H   0  0  0  0  0  0  0  0  0  0  0  0
   50.9519   34.4919   42.0014 H   0  0  0  0  0  0  0  0  0  0  0  0
   49.6172   33.3094   42.0533 H   0  0  0  0  0  0  0  0  0  0  0  0
  1  6  2  0
  1  2  1  0
  2  3  2  0
  4  3  1  0
  5  4  2  0
  6  5  1  0
  7  1  1  0
  8  7  2  0
  9 10  1  0
  9  7  1  0
 10 11  1  0
 12 10  2  0
  2 13  1  0
  3 14  1  0
  5 15  1  0
 11 16  1  0
 11 17  1  0
M  ISO  3  13  14  14  14  15  14
M  END
>  <minimizedAffinity>  (1) 
-4.02405214

>  <minimizedRMSD>  (1) 
4.77783203

$$$$
