
     RDKit          3D

 20 21  0  0  0  0  0  0  0  0999 V2000
   46.4090   33.3560   44.9590 C   0  0  0  0  0  0  0  0  0  0  0  0
   47.1430   32.1970   44.7600 C   0  0  0  0  0  0  0  0  0  0  0  0
   47.1310   31.2650   45.8110 C   0  0  0  0  0  0  0  0  0  0  0  0
   46.4030   31.5610   46.9440 N   0  0  0  0  0  0  0  0  0  0  0  0
   45.7160   32.7070   47.0630 C   0  0  0  0  0  0  0  0  0  0  0  0
   45.7130   33.6100   46.0760 N   0  0  0  0  0  0  0  0  0  0  0  0
   46.4700   34.2650   43.8380 C   0  0  0  0  0  0  0  0  0  0  0  0
   45.5970   35.1420   43.5310 O   0  0  0  0  0  0  0  0  0  0  0  0
   47.5040   34.3230   42.9090 O   0  0  0  0  0  0  0  0  0  0  0  0
   47.6370   35.3140   41.9280 C   0  0  0  0  0  0  0  0  0  0  0  0
   49.0160   35.8050   41.5490 C   0  0  0  0  0  0  0  0  0  0  0  0
   48.3420   34.8390   40.6530 C   0  0  0  0  0  0  0  0  0  0  0  0
   47.7036   32.0171   43.8308 H   0  0  0  0  0  0  0  0  0  0  0  0
   47.6896   30.3207   45.7319 H   0  0  0  0  0  0  0  0  0  0  0  0
   45.1480   32.9067   47.9836 H   0  0  0  0  0  0  0  0  0  0  0  0
   46.7019   35.8212   42.2079 H   0  0  0  0  0  0  0  0  0  0  0  0
   49.1538   36.8466   41.2234 H   0  0  0  0  0  0  0  0  0  0  0  0
   49.9901   35.8289   42.0594 H   0  0  0  0  0  0  0  0  0  0  0  0
   47.9759   35.1659   39.6685 H   0  0  0  0  0  0  0  0  0  0  0  0
   48.6048   33.8579   40.2306 H   0  0  0  0  0  0  0  0  0  0  0  0
  1  6  1  0
  2  1  2  0
  2  3  1  0
  3  4  2  0
  4  5  1  0
  6  5  2  0
  7  1  1  0
  8  7  2  0
  9  7  1  0
 10  9  1  0
 11 10  1  0
 12 11  1  0
 12 10  1  0
  2 13  1  0
  3 14  1  0
  5 15  1  0
 10 16  1  0
 11 17  1  0
 11 18  1  0
 12 19  1  0
 12 20  1  0
M  ISO  8  13  14  14  14  15  14  16  13  17  13  18  13  19  13  20  13
M  END
>  <minimizedAffinity>  (1) 
-3.69162703

>  <minimizedRMSD>  (1) 
3.76202035

$$$$
