
     RDKit          3D

 23 24  0  0  0  0  0  0  0  0999 V2000
   45.2260   32.5600   42.0360 C   0  0  0  0  0  0  0  0  0  0  0  0
   46.3290   32.4410   41.3810 O   0  0  0  0  0  0  0  0  0  0  0  0
   44.1280   33.4350   41.7160 C   0  0  0  0  0  0  0  0  0  0  0  0
   44.5070   34.7810   41.6870 C   0  0  0  0  0  0  0  0  0  0  0  0
   43.5080   35.7170   41.3840 C   0  0  0  0  0  0  0  0  0  0  0  0
   42.2500   35.2500   41.1440 N   0  0  0  0  0  0  0  0  0  0  0  0
   41.9480   33.9350   41.1880 C   0  0  0  0  0  0  0  0  0  0  0  0
   42.8940   33.0250   41.4770 N   0  0  0  0  0  0  0  0  0  0  0  0
   45.2730   31.6920   43.1170 O   0  0  0  0  0  0  0  0  0  0  0  0
   45.7890   31.9690   44.3540 C   0  0  0  0  0  0  0  0  0  0  0  0
   45.8020   33.1870   45.0110 C   0  0  0  0  0  0  0  0  0  0  0  0
   46.3700   33.2950   46.2710 C   0  0  0  0  0  0  0  0  0  0  0  0
   46.9380   32.2110   46.9080 C   0  0  0  0  0  0  0  0  0  0  0  0
   46.9230   31.0080   46.2510 C   0  0  0  0  0  0  0  0  0  0  0  0
   46.3590   30.8680   44.9870 C   0  0  0  0  0  0  0  0  0  0  0  0
   45.5421   35.0913   41.8926 H   0  0  0  0  0  0  0  0  0  0  0  0
   43.7321   36.7931   41.3413 H   0  0  0  0  0  0  0  0  0  0  0  0
   40.9183   33.6052   40.9855 H   0  0  0  0  0  0  0  0  0  0  0  0
   45.3599   34.0728   44.5316 H   0  0  0  0  0  0  0  0  0  0  0  0
   46.3678   34.2718   46.7768 H   0  0  0  0  0  0  0  0  0  0  0  0
   47.3869   32.3086   47.9075 H   0  0  0  0  0  0  0  0  0  0  0  0
   47.3697   30.1282   46.7371 H   0  0  0  0  0  0  0  0  0  0  0  0
   46.3635   29.8877   44.4880 H   0  0  0  0  0  0  0  0  0  0  0  0
  1  9  1  0
  2  1  2  0
  3  1  1  0
  4  3  2  0
  5  4  1  0
  6  7  1  0
  6  5  2  0
  7  8  2  0
  8  3  1  0
  9 10  1  0
 10 15  1  0
 10 11  2  0
 11 12  1  0
 12 13  2  0
 14 13  1  0
 15 14  2  0
  4 16  1  0
  5 17  1  0
  7 18  1  0
 11 19  1  0
 12 20  1  0
 13 21  1  0
 14 22  1  0
 15 23  1  0
M  ISO  8  16  14  17  14  18  14  19  14  20  14  21  14  22  14  23  14
M  END
>  <minimizedAffinity>  (1) 
-3.2245028

>  <minimizedRMSD>  (1) 
6.43414211

$$$$
