
     RDKit          3D

 29 30  0  0  0  0  0  0  0  0999 V2000
   45.7310   33.3110   44.9460 C   0  0  0  0  0  0  0  0  0  0  0  0
   46.3300   33.1890   46.3170 C   0  0  0  0  0  0  0  0  0  0  0  0
   45.8940   32.0250   47.1070 C   0  0  0  0  0  0  0  0  0  0  0  0
   45.6530   30.6980   46.8400 C   0  0  0  0  0  0  0  0  0  0  0  0
   45.2690   29.8070   47.8150 C   0  0  0  0  0  0  0  0  0  0  0  0
   45.0950   30.1750   49.1330 C   0  0  0  0  0  0  0  0  0  0  0  0
   45.3260   31.5000   49.4370 C   0  0  0  0  0  0  0  0  0  0  0  0
   45.7130   32.3900   48.4440 C   0  0  0  0  0  0  0  0  0  0  0  0
   45.2630   34.5390   44.6850 O   0  0  0  0  0  0  0  0  0  0  0  0
   45.4490   35.3600   43.5980 C   0  0  0  0  0  0  0  0  0  0  0  0
   44.8940   36.4240   43.9060 O   0  0  0  0  0  0  0  0  0  0  0  0
   46.1520   34.9890   42.3930 C   0  0  0  0  0  0  0  0  0  0  0  0
   45.3330   34.3560   41.4830 C   0  0  0  0  0  0  0  0  0  0  0  0
   45.9810   33.9360   40.3110 C   0  0  0  0  0  0  0  0  0  0  0  0
   47.3200   34.1770   40.1690 N   0  0  0  0  0  0  0  0  0  0  0  0
   48.0500   34.8120   41.1240 C   0  0  0  0  0  0  0  0  0  0  0  0
   47.4600   35.2280   42.2600 N   0  0  0  0  0  0  0  0  0  0  0  0
   46.5041   33.0656   44.2029 H   0  0  0  0  0  0  0  0  0  0  0  0
   44.8785   32.6175   44.8973 H   0  0  0  0  0  0  0  0  0  0  0  0
   47.4225   33.1295   46.2036 H   0  0  0  0  0  0  0  0  0  0  0  0
   45.9846   34.0730   46.8730 H   0  0  0  0  0  0  0  0  0  0  0  0
   45.7717   30.3354   45.8083 H   0  0  0  0  0  0  0  0  0  0  0  0
   45.0936   28.7585   47.5323 H   0  0  0  0  0  0  0  0  0  0  0  0
   44.7882   29.4497   49.9010 H   0  0  0  0  0  0  0  0  0  0  0  0
   45.2031   31.8537   50.4713 H   0  0  0  0  0  0  0  0  0  0  0  0
   45.8866   33.4393   48.7248 H   0  0  0  0  0  0  0  0  0  0  0  0
   44.2597   34.1933   41.6607 H   0  0  0  0  0  0  0  0  0  0  0  0
   45.4200   33.4203   39.5178 H   0  0  0  0  0  0  0  0  0  0  0  0
   49.1249   34.9862   40.9680 H   0  0  0  0  0  0  0  0  0  0  0  0
  1  2  1  0
  2  3  1  0
  3  8  1  0
  4  3  2  0
  4  5  1  0
  5  6  2  0
  6  7  1  0
  8  7  2  0
  9  1  1  0
 10 11  2  0
 10  9  1  0
 12 10  1  0
 13 12  2  0
 14 13  1  0
 15 14  2  0
 15 16  1  0
 16 17  2  0
 17 12  1  0
  1 18  1  0
  1 19  1  0
  2 20  1  0
  2 21  1  0
  4 22  1  0
  5 23  1  0
  6 24  1  0
  7 25  1  0
  8 26  1  0
 13 27  1  0
 14 28  1  0
 16 29  1  0
M  ISO  8  18   8  19   8  20   8  21   8  22  14  23  14  24  14  25  14
M  ISO  4  26  14  27  14  28  14  29  14
M  END
>  <minimizedAffinity>  (1) 
-4.88284397

>  <minimizedRMSD>  (1) 
6.92185259

$$$$
