
     RDKit          3D

 29 30  0  0  0  0  0  0  0  0999 V2000
   48.1310   34.5120   41.2530 C   0  0  0  0  0  0  0  0  0  0  0  0
   48.6050   33.1670   41.7130 C   0  0  0  0  0  0  0  0  0  0  0  0
   49.6520   32.5550   40.9790 N   0  0  0  0  0  0  0  0  0  0  0  0
   49.7530   31.8220   39.8620 C   0  0  0  0  0  0  0  0  0  0  0  0
   50.9180   31.3070   39.3470 C   0  0  0  0  0  0  0  0  0  0  0  0
   52.1020   31.5460   40.0130 C   0  0  0  0  0  0  0  0  0  0  0  0
   53.1620   31.0740   39.5380 O   0  0  0  0  0  0  0  0  0  0  0  0
   52.0330   32.2800   41.1370 N   0  0  0  0  0  0  0  0  0  0  0  0
   50.8500   32.7710   41.6110 C   0  0  0  0  0  0  0  0  0  0  0  0
   51.0310   33.4340   42.6890 O   0  0  0  0  0  0  0  0  0  0  0  0
   46.9000   34.4870   40.7120 O   0  0  0  0  0  0  0  0  0  0  0  0
   45.6690   34.3590   41.3010 C   0  0  0  0  0  0  0  0  0  0  0  0
   44.9130   34.0320   40.3730 O   0  0  0  0  0  0  0  0  0  0  0  0
   45.3840   34.5770   42.6980 C   0  0  0  0  0  0  0  0  0  0  0  0
   44.9270   35.8530   42.9500 C   0  0  0  0  0  0  0  0  0  0  0  0
   44.6780   36.1210   44.3090 C   0  0  0  0  0  0  0  0  0  0  0  0
   44.8980   35.1400   45.2370 N   0  0  0  0  0  0  0  0  0  0  0  0
   45.3510   33.9080   44.8890 C   0  0  0  0  0  0  0  0  0  0  0  0
   45.6010   33.6140   43.6000 N   0  0  0  0  0  0  0  0  0  0  0  0
   48.1184   35.1920   42.1176 H   0  0  0  0  0  0  0  0  0  0  0  0
   48.8241   34.8504   40.4688 H   0  0  0  0  0  0  0  0  0  0  0  0
   48.9514   33.2772   42.7512 H   0  0  0  0  0  0  0  0  0  0  0  0
   47.7396   32.5024   41.5733 H   0  0  0  0  0  0  0  0  0  0  0  0
   48.8241   31.6149   39.3103 H   0  0  0  0  0  0  0  0  0  0  0  0
   50.9067   30.7147   38.4202 H   0  0  0  0  0  0  0  0  0  0  0  0
   52.8996   32.4784   41.6572 H   0  0  0  0  0  0  0  0  0  0  0  0
   44.7703   36.5983   42.1563 H   0  0  0  0  0  0  0  0  0  0  0  0
   44.3102   37.1093   44.6220 H   0  0  0  0  0  0  0  0  0  0  0  0
   45.5145   33.1460   45.6653 H   0  0  0  0  0  0  0  0  0  0  0  0
  1  2  1  0
  3  9  1  0
  3  2  1  0
  4  3  1  0
  5  4  2  0
  5  6  1  0
  6  8  1  0
  7  6  2  0
  8  9  1  0
  9 10  2  0
 11  1  1  0
 11 12  1  0
 12 14  1  0
 13 12  2  0
 14 15  2  0
 14 19  1  0
 15 16  1  0
 16 17  2  0
 18 17  1  0
 19 18  2  0
  1 20  1  0
  1 21  1  0
  2 22  1  0
  2 23  1  0
  4 24  1  0
  5 25  1  0
  8 26  1  0
 15 27  1  0
 16 28  1  0
 18 29  1  0
M  ISO  8  20   8  21   8  22   8  23   8  24  14  25  14  26   9  27  14
M  ISO  2  28  14  29  14
M  END
>  <minimizedAffinity>  (1) 
-4.67909813

>  <minimizedRMSD>  (1) 
2.00570178

$$$$
