
     RDKit          3D

 26 27  0  0  0  0  0  0  0  0999 V2000
   47.8360   35.7860   41.8920 O   0  0  0  0  0  0  0  0  0  0  0  0
   49.1210   35.5090   41.6430 C   0  0  0  0  0  0  0  0  0  0  0  0
   49.6910   34.4560   42.5790 C   0  0  0  0  0  0  0  0  0  0  0  0
   50.2930   33.3200   41.8860 C   0  0  0  0  0  0  0  0  0  0  0  0
   49.5160   32.5310   41.0600 C   0  0  0  0  0  0  0  0  0  0  0  0
   50.3120   31.5660   40.5520 N   0  0  0  0  0  0  0  0  0  0  0  0
   51.5270   31.7910   41.0750 C   0  0  0  0  0  0  0  0  0  0  0  0
   51.5330   32.8650   41.8960 N   0  0  0  0  0  0  0  0  0  0  0  0
   46.7600   34.9410   42.1310 C   0  0  0  0  0  0  0  0  0  0  0  0
   46.5420   34.3730   41.0490 O   0  0  0  0  0  0  0  0  0  0  0  0
   46.0950   34.8170   43.4060 C   0  0  0  0  0  0  0  0  0  0  0  0
   45.1630   35.8130   43.6140 C   0  0  0  0  0  0  0  0  0  0  0  0
   44.5240   35.7380   44.8620 C   0  0  0  0  0  0  0  0  0  0  0  0
   44.8400   34.7480   45.7370 N   0  0  0  0  0  0  0  0  0  0  0  0
   45.7710   33.8090   45.4430 C   0  0  0  0  0  0  0  0  0  0  0  0
   46.4120   33.8440   44.2560 N   0  0  0  0  0  0  0  0  0  0  0  0
   49.2073   35.1434   40.6091 H   0  0  0  0  0  0  0  0  0  0  0  0
   49.6945   36.4346   41.7990 H   0  0  0  0  0  0  0  0  0  0  0  0
   50.4615   34.9287   43.2058 H   0  0  0  0  0  0  0  0  0  0  0  0
   48.8514   34.0635   43.1715 H   0  0  0  0  0  0  0  0  0  0  0  0
   48.4438   32.6647   40.8537 H   0  0  0  0  0  0  0  0  0  0  0  0
   52.4128   31.1749   40.8612 H   0  0  0  0  0  0  0  0  0  0  0  0
   52.3342   33.2473   42.4183 H   0  0  0  0  0  0  0  0  0  0  0  0
   44.9412   36.5933   42.8711 H   0  0  0  0  0  0  0  0  0  0  0  0
   43.7633   36.4850   45.1327 H   0  0  0  0  0  0  0  0  0  0  0  0
   46.0044   33.0184   46.1714 H   0  0  0  0  0  0  0  0  0  0  0  0
  1  9  1  0
  2  1  1  0
  2  3  1  0
  4  8  1  0
  4  3  1  0
  5  4  2  0
  6  5  1  0
  6  7  2  0
  7  8  1  0
  9 11  1  0
 10  9  2  0
 11 12  2  0
 11 16  1  0
 12 13  1  0
 13 14  2  0
 15 14  1  0
 16 15  2  0
  2 17  1  0
  2 18  1  0
  3 19  1  0
  3 20  1  0
  5 21  1  0
  7 22  1  0
  8 23  1  0
 12 24  1  0
 13 25  1  0
 15 26  1  0
M  ISO  8  17   8  18   8  19   8  20   8  21  14  22  14  23   9  24  14
M  ISO  2  25  14  26  14
M  END
>  <minimizedAffinity>  (1) 
-4.65703297

>  <minimizedRMSD>  (1) 
1.08333135

$$$$
