
     RDKit          3D

 26 27  0  0  0  0  0  0  0  0999 V2000
   49.0850   34.9030   42.3800 C   0  0  0  0  0  0  0  0  0  0  0  0
   49.1650   33.4060   42.5400 C   0  0  0  0  0  0  0  0  0  0  0  0
   50.0670   32.7160   41.6180 C   0  0  0  0  0  0  0  0  0  0  0  0
   50.0470   31.9250   40.4950 C   0  0  0  0  0  0  0  0  0  0  0  0
   51.3000   31.5560   40.0880 C   0  0  0  0  0  0  0  0  0  0  0  0
   52.0890   32.1470   40.9990 N   0  0  0  0  0  0  0  0  0  0  0  0
   51.4030   32.8280   41.8990 N   0  0  0  0  0  0  0  0  0  0  0  0
   47.9200   35.3150   41.8460 O   0  0  0  0  0  0  0  0  0  0  0  0
   46.6310   34.8670   42.0580 C   0  0  0  0  0  0  0  0  0  0  0  0
   46.2640   34.4540   40.9500 O   0  0  0  0  0  0  0  0  0  0  0  0
   45.9400   34.9060   43.3200 C   0  0  0  0  0  0  0  0  0  0  0  0
   45.1590   36.0350   43.4570 C   0  0  0  0  0  0  0  0  0  0  0  0
   44.4940   36.1340   44.6910 C   0  0  0  0  0  0  0  0  0  0  0  0
   44.6580   35.1580   45.6210 N   0  0  0  0  0  0  0  0  0  0  0  0
   45.4460   34.0830   45.4000 C   0  0  0  0  0  0  0  0  0  0  0  0
   46.0990   33.9560   44.2250 N   0  0  0  0  0  0  0  0  0  0  0  0
   49.2000   35.3677   43.3704 H   0  0  0  0  0  0  0  0  0  0  0  0
   49.8869   35.2026   41.6892 H   0  0  0  0  0  0  0  0  0  0  0  0
   49.5024   33.1934   43.5652 H   0  0  0  0  0  0  0  0  0  0  0  0
   48.1577   33.0264   42.3137 H   0  0  0  0  0  0  0  0  0  0  0  0
   49.1241   31.6214   39.9792 H   0  0  0  0  0  0  0  0  0  0  0  0
   51.5885   30.9316   39.2295 H   0  0  0  0  0  0  0  0  0  0  0  0
   53.1166   32.0771   40.9965 H   0  0  0  0  0  0  0  0  0  0  0  0
   45.0647   36.7941   42.6665 H   0  0  0  0  0  0  0  0  0  0  0  0
   43.8448   36.9965   44.9023 H   0  0  0  0  0  0  0  0  0  0  0  0
   45.5555   33.3118   46.1767 H   0  0  0  0  0  0  0  0  0  0  0  0
  1  2  1  0
  3  7  2  0
  3  2  1  0
  4  3  1  0
  5  4  2  0
  5  6  1  0
  6  7  1  0
  8  9  1  0
  8  1  1  0
  9 11  1  0
 10  9  2  0
 11 12  2  0
 11 16  1  0
 12 13  1  0
 13 14  2  0
 15 14  1  0
 16 15  2  0
  1 17  1  0
  1 18  1  0
  2 19  1  0
  2 20  1  0
  4 21  1  0
  5 22  1  0
  6 23  1  0
 12 24  1  0
 13 25  1  0
 15 26  1  0
M  ISO  8  17   8  18   8  19   8  20   8  21  14  22  14  23   9  24  14
M  ISO  2  25  14  26  14
M  END
>  <minimizedAffinity>  (1) 
-4.5326457

>  <minimizedRMSD>  (1) 
1.11121929

$$$$
