
     RDKit          3D

 35 36  0  0  0  0  0  0  0  0999 V2000
   48.0100   35.4070   41.7410 O   0  0  0  0  0  0  0  0  0  0  0  0
   49.1810   35.1740   42.3520 C   0  0  0  0  0  0  0  0  0  0  0  0
   49.3840   33.7240   42.6700 C   0  0  0  0  0  0  0  0  0  0  0  0
   50.2030   32.9860   41.6490 C   0  0  0  0  0  0  0  0  0  0  0  0
   51.1280   31.9870   42.3350 C   0  0  0  0  0  0  0  0  0  0  0  0
   51.1680   30.6950   41.5500 C   0  0  0  0  0  0  0  0  0  0  0  0
   51.4550   31.0770   40.0950 C   0  0  0  0  0  0  0  0  0  0  0  0
   50.1750   31.6900   39.5660 C   0  0  0  0  0  0  0  0  0  0  0  0
   49.3120   32.2220   40.6940 C   0  0  0  0  0  0  0  0  0  0  0  0
   46.7580   34.8380   41.9530 C   0  0  0  0  0  0  0  0  0  0  0  0
   46.4620   34.3210   40.8680 O   0  0  0  0  0  0  0  0  0  0  0  0
   46.0330   34.8880   43.2000 C   0  0  0  0  0  0  0  0  0  0  0  0
   45.2370   36.0080   43.3020 C   0  0  0  0  0  0  0  0  0  0  0  0
   44.5550   36.1050   44.5250 C   0  0  0  0  0  0  0  0  0  0  0  0
   44.7090   35.1480   45.4750 N   0  0  0  0  0  0  0  0  0  0  0  0
   45.5190   34.0770   45.2800 C   0  0  0  0  0  0  0  0  0  0  0  0
   46.1920   33.9450   44.1210 N   0  0  0  0  0  0  0  0  0  0  0  0
   49.9956   35.5078   41.6924 H   0  0  0  0  0  0  0  0  0  0  0  0
   49.1777   35.7273   43.3027 H   0  0  0  0  0  0  0  0  0  0  0  0
   49.8939   33.6506   43.6419 H   0  0  0  0  0  0  0  0  0  0  0  0
   48.3883   33.2566   42.6793 H   0  0  0  0  0  0  0  0  0  0  0  0
   50.7906   33.7318   41.0935 H   0  0  0  0  0  0  0  0  0  0  0  0
   52.1419   32.4096   42.3927 H   0  0  0  0  0  0  0  0  0  0  0  0
   50.7507   31.7824   43.3478 H   0  0  0  0  0  0  0  0  0  0  0  0
   51.9644   30.0412   41.9351 H   0  0  0  0  0  0  0  0  0  0  0  0
   50.2176   30.1480   41.6369 H   0  0  0  0  0  0  0  0  0  0  0  0
   52.2771   31.8062   40.0460 H   0  0  0  0  0  0  0  0  0  0  0  0
   51.7596   30.2029   39.5007 H   0  0  0  0  0  0  0  0  0  0  0  0
   50.4279   32.5178   38.8872 H   0  0  0  0  0  0  0  0  0  0  0  0
   49.6100   30.9100   39.0346 H   0  0  0  0  0  0  0  0  0  0  0  0
   48.5397   32.8920   40.2882 H   0  0  0  0  0  0  0  0  0  0  0  0
   48.8161   31.3916   41.2180 H   0  0  0  0  0  0  0  0  0  0  0  0
   45.1447   36.7557   42.5005 H   0  0  0  0  0  0  0  0  0  0  0  0
   43.8917   36.9618   44.7146 H   0  0  0  0  0  0  0  0  0  0  0  0
   45.6259   33.3171   46.0681 H   0  0  0  0  0  0  0  0  0  0  0  0
  1 10  1  0
  1  2  1  0
  2  3  1  0
  4  5  1  0
  4  3  1  0
  6  5  1  0
  7  6  1  0
  8  7  1  0
  8  9  1  0
  9  4  1  0
 10 12  1  0
 11 10  2  0
 12 13  2  0
 12 17  1  0
 13 14  1  0
 14 15  2  0
 16 15  1  0
 17 16  2  0
  2 18  1  0
  2 19  1  0
  3 20  1  0
  3 21  1  0
  4 22  1  0
  5 23  1  0
  5 24  1  0
  6 25  1  0
  6 26  1  0
  7 27  1  0
  7 28  1  0
  8 29  1  0
  8 30  1  0
  9 31  1  0
  9 32  1  0
 13 33  1  0
 14 34  1  0
 16 35  1  0
M  ISO  8  18   8  19   8  20   8  21   8  22  13  23  13  24  13  25  13
M  ISO  8  26  13  27  13  28  13  29  13  30  13  31  13  32  13  33  14
M  ISO  2  34  14  35  14
M  END
>  <minimizedAffinity>  (1) 
-4.31144905

>  <minimizedRMSD>  (1) 
1.20216143

$$$$
