
     RDKit          3D

 21 21  0  0  0  0  0  0  0  0999 V2000
   47.0260   34.8860   41.9040 C   0  0  0  0  0  0  0  0  0  0  0  0
   46.7810   34.4270   40.7800 O   0  0  0  0  0  0  0  0  0  0  0  0
   46.2510   34.8580   43.1210 C   0  0  0  0  0  0  0  0  0  0  0  0
   45.3500   35.8990   43.1990 C   0  0  0  0  0  0  0  0  0  0  0  0
   44.5970   35.9440   44.3860 C   0  0  0  0  0  0  0  0  0  0  0  0
   44.8240   34.9720   45.3310 N   0  0  0  0  0  0  0  0  0  0  0  0
   45.7190   33.9920   45.1780 C   0  0  0  0  0  0  0  0  0  0  0  0
   46.4520   33.9320   44.0450 N   0  0  0  0  0  0  0  0  0  0  0  0
   48.2770   35.4830   41.7820 O   0  0  0  0  0  0  0  0  0  0  0  0
   49.4430   35.1890   42.3950 C   0  0  0  0  0  0  0  0  0  0  0  0
   49.7710   33.6970   42.2840 C   0  0  0  0  0  0  0  0  0  0  0  0
   51.2020   33.5940   42.5790 N   0  0  0  0  0  0  0  0  0  0  0  0
   45.2293   36.6384   42.3936 H   0  0  0  0  0  0  0  0  0  0  0  0
   43.8491   36.7331   44.5531 H   0  0  0  0  0  0  0  0  0  0  0  0
   45.8579   33.2398   45.9685 H   0  0  0  0  0  0  0  0  0  0  0  0
   50.2508   35.7691   41.9250 H   0  0  0  0  0  0  0  0  0  0  0  0
   49.3484   35.4447   43.4607 H   0  0  0  0  0  0  0  0  0  0  0  0
   49.1845   33.1181   43.0127 H   0  0  0  0  0  0  0  0  0  0  0  0
   49.5270   33.2959   41.2892 H   0  0  0  0  0  0  0  0  0  0  0  0
   51.3423   33.5839   43.5993 H   0  0  0  0  0  0  0  0  0  0  0  0
   51.5746   32.7240   42.1726 H   0  0  0  0  0  0  0  0  0  0  0  0
  1  3  1  0
  2  1  2  0
  3  4  2  0
  3  8  1  0
  4  5  1  0
  5  6  2  0
  7  6  1  0
  8  7  2  0
  9  1  1  0
  9 10  1  0
 11 10  1  0
 11 12  1  0
  4 13  1  0
  5 14  1  0
  7 15  1  0
 10 16  1  0
 10 17  1  0
 11 18  1  0
 11 19  1  0
 12 20  1  0
 12 21  1  0
M  ISO  8  13  14  14  14  15  14  16   8  17   8  18   8  19   8  20   5
M  ISO  1  21   5
M  END
>  <minimizedAffinity>  (1) 
-4.19177485

>  <minimizedRMSD>  (1) 
0.179358587

$$$$
