
     RDKit          3D

 24 25  0  0  0  0  0  0  0  0999 V2000
   48.2110   35.3040   41.6760 O   0  0  0  0  0  0  0  0  0  0  0  0
   49.2320   35.2950   42.5580 C   0  0  0  0  0  0  0  0  0  0  0  0
   50.1850   34.1920   42.3670 C   0  0  0  0  0  0  0  0  0  0  0  0
   49.7050   32.9530   41.8150 C   0  0  0  0  0  0  0  0  0  0  0  0
   49.6900   32.3180   40.6050 N   0  0  0  0  0  0  0  0  0  0  0  0
   49.1280   31.1630   40.6930 O   0  0  0  0  0  0  0  0  0  0  0  0
   48.7360   30.9410   41.9250 C   0  0  0  0  0  0  0  0  0  0  0  0
   49.0870   32.0340   42.6160 N   0  0  0  0  0  0  0  0  0  0  0  0
   46.9200   34.8070   41.8270 C   0  0  0  0  0  0  0  0  0  0  0  0
   46.6050   34.3650   40.7110 O   0  0  0  0  0  0  0  0  0  0  0  0
   46.1870   34.8430   43.0660 C   0  0  0  0  0  0  0  0  0  0  0  0
   45.3540   35.9280   43.1530 C   0  0  0  0  0  0  0  0  0  0  0  0
   44.6330   36.0250   44.3590 C   0  0  0  0  0  0  0  0  0  0  0  0
   44.8180   35.0560   45.3190 N   0  0  0  0  0  0  0  0  0  0  0  0
   45.6560   34.0260   45.1480 C   0  0  0  0  0  0  0  0  0  0  0  0
   46.3270   33.9490   44.0070 N   0  0  0  0  0  0  0  0  0  0  0  0
   49.7794   36.2442   42.4614 H   0  0  0  0  0  0  0  0  0  0  0  0
   48.7869   35.1585   43.5546 H   0  0  0  0  0  0  0  0  0  0  0  0
   50.9764   34.5599   41.6974 H   0  0  0  0  0  0  0  0  0  0  0  0
   50.4958   33.9272   43.3884 H   0  0  0  0  0  0  0  0  0  0  0  0
   48.2262   30.0455   42.3100 H   0  0  0  0  0  0  0  0  0  0  0  0
   45.2561   36.6661   42.3433 H   0  0  0  0  0  0  0  0  0  0  0  0
   43.9359   36.8585   44.5303 H   0  0  0  0  0  0  0  0  0  0  0  0
   45.7842   33.2651   45.9319 H   0  0  0  0  0  0  0  0  0  0  0  0
  1  9  1  0
  1  2  1  0
  3  2  1  0
  4  3  1  0
  4  8  1  0
  5  6  1  0
  5  4  2  0
  6  7  1  0
  7  8  2  0
  9 11  1  0
 10  9  2  0
 11 12  2  0
 11 16  1  0
 12 13  1  0
 13 14  2  0
 15 14  1  0
 16 15  2  0
  2 17  1  0
  2 18  1  0
  3 19  1  0
  3 20  1  0
  7 21  1  0
 12 22  1  0
 13 23  1  0
 15 24  1  0
M  ISO  8  17   8  18   8  19   8  20   8  21  14  22  14  23  14  24  14
M  END
>  <minimizedAffinity>  (1) 
-4.08028984

>  <minimizedRMSD>  (1) 
1.28544819

$$$$
