
     RDKit          3D

 26 27  0  0  0  0  0  0  0  0999 V2000
   49.2870   35.1450   42.2770 C   0  0  0  0  0  0  0  0  0  0  0  0
   49.4520   33.6910   42.6340 C   0  0  0  0  0  0  0  0  0  0  0  0
   49.9380   32.8480   41.5720 N   0  0  0  0  0  0  0  0  0  0  0  0
   51.2190   32.4470   41.6620 N   0  0  0  0  0  0  0  0  0  0  0  0
   51.5530   31.6620   40.6380 C   0  0  0  0  0  0  0  0  0  0  0  0
   50.4490   31.5310   39.8250 C   0  0  0  0  0  0  0  0  0  0  0  0
   49.5040   32.2810   40.4570 C   0  0  0  0  0  0  0  0  0  0  0  0
   48.0910   35.4080   41.7040 O   0  0  0  0  0  0  0  0  0  0  0  0
   46.8570   34.8210   41.9130 C   0  0  0  0  0  0  0  0  0  0  0  0
   46.5830   34.2820   40.8360 O   0  0  0  0  0  0  0  0  0  0  0  0
   46.1150   34.8740   43.1490 C   0  0  0  0  0  0  0  0  0  0  0  0
   45.3050   35.9900   43.2260 C   0  0  0  0  0  0  0  0  0  0  0  0
   44.5940   36.1040   44.4340 C   0  0  0  0  0  0  0  0  0  0  0  0
   44.7450   35.1520   45.3900 N   0  0  0  0  0  0  0  0  0  0  0  0
   45.5620   34.0910   45.2280 C   0  0  0  0  0  0  0  0  0  0  0  0
   46.2620   33.9480   44.0830 N   0  0  0  0  0  0  0  0  0  0  0  0
   49.3776   35.7453   43.1943 H   0  0  0  0  0  0  0  0  0  0  0  0
   50.0691   35.3991   41.5464 H   0  0  0  0  0  0  0  0  0  0  0  0
   50.1616   33.6252   43.4720 H   0  0  0  0  0  0  0  0  0  0  0  0
   48.4453   33.3217   42.8791 H   0  0  0  0  0  0  0  0  0  0  0  0
   52.5373   31.2000   40.4715 H   0  0  0  0  0  0  0  0  0  0  0  0
   50.3535   30.9586   38.8905 H   0  0  0  0  0  0  0  0  0  0  0  0
   48.4788   32.4039   40.0776 H   0  0  0  0  0  0  0  0  0  0  0  0
   45.2231   36.7261   42.4127 H   0  0  0  0  0  0  0  0  0  0  0  0
   43.9210   36.9576   44.6029 H   0  0  0  0  0  0  0  0  0  0  0  0
   45.6577   33.3428   46.0286 H   0  0  0  0  0  0  0  0  0  0  0  0
  1  2  1  0
  3  4  1  0
  3  2  1  0
  5  4  2  0
  6  7  2  0
  6  5  1  0
  7  3  1  0
  8  9  1  0
  8  1  1  0
  9 11  1  0
 10  9  2  0
 11 12  2  0
 11 16  1  0
 12 13  1  0
 13 14  2  0
 15 14  1  0
 16 15  2  0
  1 17  1  0
  1 18  1  0
  2 19  1  0
  2 20  1  0
  5 21  1  0
  6 22  1  0
  7 23  1  0
 12 24  1  0
 13 25  1  0
 15 26  1  0
M  ISO  8  17   8  18   8  19   8  20   8  21  14  22  14  23  14  24  14
M  ISO  2  25  14  26  14
M  END
>  <minimizedAffinity>  (1) 
-4.26209688

>  <minimizedRMSD>  (1) 
0.7176826

$$$$
