
     RDKit          3D

 42 45  0  0  0  0  0  0  0  0999 V2000
   46.0330   34.7520   43.5350 C   0  0  0  0  0  0  0  0  0  0  0  0
   45.1090   35.7330   43.7800 C   0  0  0  0  0  0  0  0  0  0  0  0
   44.5030   35.6340   45.0310 C   0  0  0  0  0  0  0  0  0  0  0  0
   44.8510   34.6290   45.8720 N   0  0  0  0  0  0  0  0  0  0  0  0
   45.7810   33.6890   45.5530 C   0  0  0  0  0  0  0  0  0  0  0  0
   46.3540   33.7940   44.3550 N   0  0  0  0  0  0  0  0  0  0  0  0
   45.9740   32.7230   46.6180 C   0  0  0  0  0  0  0  0  0  0  0  0
   45.4140   32.9030   47.8610 C   0  0  0  0  0  0  0  0  0  0  0  0
   45.5550   32.0350   48.9060 C   0  0  0  0  0  0  0  0  0  0  0  0
   46.2940   30.8840   48.7720 C   0  0  0  0  0  0  0  0  0  0  0  0
   46.8750   30.6520   47.5570 C   0  0  0  0  0  0  0  0  0  0  0  0
   47.6190   29.5010   47.4130 C   0  0  0  0  0  0  0  0  0  0  0  0
   48.2370   29.1950   46.2170 C   0  0  0  0  0  0  0  0  0  0  0  0
   48.0710   30.1070   45.1690 C   0  0  0  0  0  0  0  0  0  0  0  0
   47.3190   31.2440   45.3600 C   0  0  0  0  0  0  0  0  0  0  0  0
   46.6990   31.5590   46.5450 C   0  0  0  0  0  0  0  0  0  0  0  0
   46.6650   34.8970   42.2440 C   0  0  0  0  0  0  0  0  0  0  0  0
   46.4790   34.3690   41.1710 O   0  0  0  0  0  0  0  0  0  0  0  0
   47.7070   35.7610   41.9800 O   0  0  0  0  0  0  0  0  0  0  0  0
   48.9930   35.5330   41.6940 C   0  0  0  0  0  0  0  0  0  0  0  0
   49.6030   34.4530   42.5290 C   0  0  0  0  0  0  0  0  0  0  0  0
   49.9920   33.2810   41.7750 N   0  0  0  0  0  0  0  0  0  0  0  0
   51.2070   32.7730   41.9860 N   0  0  0  0  0  0  0  0  0  0  0  0
   51.4170   31.6930   41.2550 C   0  0  0  0  0  0  0  0  0  0  0  0
   50.2760   31.4610   40.5070 C   0  0  0  0  0  0  0  0  0  0  0  0
   49.4510   32.4800   40.8850 C   0  0  0  0  0  0  0  0  0  0  0  0
   44.8677   36.5255   43.0564 H   0  0  0  0  0  0  0  0  0  0  0  0
   43.7440   36.3696   45.3355 H   0  0  0  0  0  0  0  0  0  0  0  0
   44.8110   33.8083   48.0249 H   0  0  0  0  0  0  0  0  0  0  0  0
   45.0707   32.2601   49.8676 H   0  0  0  0  0  0  0  0  0  0  0  0
   46.4129   30.1789   49.6079 H   0  0  0  0  0  0  0  0  0  0  0  0
   47.7223   28.8141   48.2659 H   0  0  0  0  0  0  0  0  0  0  0  0
   48.8316   28.2778   46.0939 H   0  0  0  0  0  0  0  0  0  0  0  0
   48.5411   29.9155   44.1931 H   0  0  0  0  0  0  0  0  0  0  0  0
   47.2081   31.9402   44.5156 H   0  0  0  0  0  0  0  0  0  0  0  0
   49.0688   35.2411   40.6362 H   0  0  0  0  0  0  0  0  0  0  0  0
   49.5436   36.4607   41.9089 H   0  0  0  0  0  0  0  0  0  0  0  0
   50.4975   34.8601   43.0231 H   0  0  0  0  0  0  0  0  0  0  0  0
   48.8348   34.1312   43.2475 H   0  0  0  0  0  0  0  0  0  0  0  0
   52.3346   31.0865   41.2430 H   0  0  0  0  0  0  0  0  0  0  0  0
   50.0819   30.6538   39.7854 H   0  0  0  0  0  0  0  0  0  0  0  0
   48.4355   32.6170   40.4850 H   0  0  0  0  0  0  0  0  0  0  0  0
  1  2  2  0
  1  6  1  0
  2  3  1  0
  3  4  2  0
  5  4  1  0
  5  7  1  0
  6  5  2  0
  7  8  2  0
  8  9  1  0
 10  9  2  0
 11 10  1  0
 12 11  2  0
 13 12  1  0
 14 15  1  0
 14 13  2  0
 15 16  2  0
 16  7  1  0
 16 11  1  0
 17  1  1  0
 18 17  2  0
 19 17  1  0
 20 19  1  0
 20 21  1  0
 22 23  1  0
 22 21  1  0
 24 23  2  0
 25 26  2  0
 25 24  1  0
 26 22  1  0
  2 27  1  0
  3 28  1  0
  8 29  1  0
  9 30  1  0
 10 31  1  0
 12 32  1  0
 13 33  1  0
 14 34  1  0
 15 35  1  0
 20 36  1  0
 20 37  1  0
 21 38  1  0
 21 39  1  0
 24 40  1  0
 25 41  1  0
 26 42  1  0
M  ISO  8  27  14  28  14  29  14  30  14  31  14  32  14  33  14  34  14
M  ISO  8  35  14  36   8  37   8  38   8  39   8  40  14  41  14  42  14
M  END
>  <minimizedAffinity>  (1) 
-6.20826054

>  <minimizedRMSD>  (1) 
0.930866063

$$$$
