
     RDKit          3D

 39 42  0  0  0  0  0  0  0  0999 V2000
   46.1330   34.9960   42.9200 C   0  0  0  0  0  0  0  0  0  0  0  0
   45.3550   36.1280   42.8810 C   0  0  0  0  0  0  0  0  0  0  0  0
   44.6170   36.3400   44.0490 C   0  0  0  0  0  0  0  0  0  0  0  0
   44.7160   35.4660   45.0690 N   0  0  0  0  0  0  0  0  0  0  0  0
   45.5120   34.3680   45.0190 C   0  0  0  0  0  0  0  0  0  0  0  0
   46.2270   34.1460   43.9140 N   0  0  0  0  0  0  0  0  0  0  0  0
   45.6160   33.4450   46.0970 N   0  0  0  0  0  0  0  0  0  0  0  0
   44.9050   33.7570   47.2150 C   0  0  0  0  0  0  0  0  0  0  0  0
   45.1370   32.7650   48.1120 N   0  0  0  0  0  0  0  0  0  0  0  0
   45.9750   31.8500   47.5660 C   0  0  0  0  0  0  0  0  0  0  0  0
   46.5690   30.6630   47.9440 C   0  0  0  0  0  0  0  0  0  0  0  0
   47.3840   30.0140   47.0740 N   0  0  0  0  0  0  0  0  0  0  0  0
   47.6310   30.4980   45.8480 C   0  0  0  0  0  0  0  0  0  0  0  0
   47.0640   31.6670   45.4370 N   0  0  0  0  0  0  0  0  0  0  0  0
   46.2690   32.2910   46.2970 C   0  0  0  0  0  0  0  0  0  0  0  0
   46.2660   30.2000   49.2650 N   0  0  0  0  0  0  0  0  0  0  0  0
   46.9080   34.8430   41.7050 C   0  0  0  0  0  0  0  0  0  0  0  0
   46.7010   34.2860   40.6510 O   0  0  0  0  0  0  0  0  0  0  0  0
   48.1670   35.3710   41.5230 O   0  0  0  0  0  0  0  0  0  0  0  0
   49.3190   35.1760   42.1680 C   0  0  0  0  0  0  0  0  0  0  0  0
   49.5000   33.7640   42.6320 C   0  0  0  0  0  0  0  0  0  0  0  0
   50.0090   32.8780   41.6080 N   0  0  0  0  0  0  0  0  0  0  0  0
   51.2870   32.4930   41.6970 N   0  0  0  0  0  0  0  0  0  0  0  0
   51.6090   31.6650   40.7050 C   0  0  0  0  0  0  0  0  0  0  0  0
   50.4880   31.4920   39.9180 C   0  0  0  0  0  0  0  0  0  0  0  0
   49.5530   32.2670   40.5370 C   0  0  0  0  0  0  0  0  0  0  0  0
   45.3166   36.8030   42.0133 H   0  0  0  0  0  0  0  0  0  0  0  0
   43.9583   37.2168   44.1348 H   0  0  0  0  0  0  0  0  0  0  0  0
   44.2669   34.6407   47.3628 H   0  0  0  0  0  0  0  0  0  0  0  0
   48.2971   29.9465   45.1682 H   0  0  0  0  0  0  0  0  0  0  0  0
   46.6769   29.3205   49.6093 H   0  0  0  0  0  0  0  0  0  0  0  0
   45.6372   30.7465   49.8707 H   0  0  0  0  0  0  0  0  0  0  0  0
   50.1472   35.4308   41.4904 H   0  0  0  0  0  0  0  0  0  0  0  0
   49.3070   35.8164   43.0623 H   0  0  0  0  0  0  0  0  0  0  0  0
   50.2065   33.7630   43.4751 H   0  0  0  0  0  0  0  0  0  0  0  0
   48.5063   33.3888   42.9180 H   0  0  0  0  0  0  0  0  0  0  0  0
   52.5931   31.2014   40.5417 H   0  0  0  0  0  0  0  0  0  0  0  0
   50.3765   30.8782   39.0120 H   0  0  0  0  0  0  0  0  0  0  0  0
   48.5191   32.3709   40.1761 H   0  0  0  0  0  0  0  0  0  0  0  0
  1  6  1  0
  2  1  2  0
  2  3  1  0
  3  4  2  0
  5  4  1  0
  5  7  1  0
  6  5  2  0
  7 15  1  0
  7  8  1  0
  8  9  2  0
 10 11  2  0
 10  9  1  0
 11 16  1  0
 12 11  1  0
 13 12  2  0
 14 13  1  0
 14 15  2  0
 15 10  1  0
 17  1  1  0
 18 17  2  0
 19 17  1  0
 19 20  1  0
 20 21  1  0
 22 23  1  0
 22 21  1  0
 24 23  2  0
 25 26  2  0
 25 24  1  0
 26 22  1  0
  2 27  1  0
  3 28  1  0
  8 29  1  0
 13 30  1  0
 16 31  1  0
 16 32  1  0
 20 33  1  0
 20 34  1  0
 21 35  1  0
 21 36  1  0
 24 37  1  0
 25 38  1  0
 26 39  1  0
M  ISO  8  27  14  28  14  29  14  30  14  33   8  34   8  35   8  36   8
M  ISO  3  37  14  38  14  39  14
M  END
>  <minimizedAffinity>  (1) 
-6.07328415

>  <minimizedRMSD>  (1) 
0.346847981

$$$$
