
     RDKit          3D

 40 43  0  0  0  0  0  0  0  0999 V2000
   46.1390   34.7890   43.3080 C   0  0  0  0  0  0  0  0  0  0  0  0
   45.2170   35.8140   43.4360 C   0  0  0  0  0  0  0  0  0  0  0  0
   44.5540   35.8010   44.6830 C   0  0  0  0  0  0  0  0  0  0  0  0
   44.8660   34.8270   45.6020 N   0  0  0  0  0  0  0  0  0  0  0  0
   45.8030   33.8590   45.3550 C   0  0  0  0  0  0  0  0  0  0  0  0
   46.4090   33.8910   44.1890 N   0  0  0  0  0  0  0  0  0  0  0  0
   45.6620   33.2210   46.5970 C   0  0  0  0  0  0  0  0  0  0  0  0
   45.5410   32.6740   47.6580 N   0  0  0  0  0  0  0  0  0  0  0  0
   45.4240   32.1090   48.7370 C   0  0  0  0  0  0  0  0  0  0  0  0
   46.1490   31.0630   48.4180 N   0  0  0  0  0  0  0  0  0  0  0  0
   46.7290   30.9290   47.1780 C   0  0  0  0  0  0  0  0  0  0  0  0
   47.4560   29.7310   47.0300 C   0  0  0  0  0  0  0  0  0  0  0  0
   48.0140   29.5960   45.7950 C   0  0  0  0  0  0  0  0  0  0  0  0
   47.9110   30.4970   44.7740 C   0  0  0  0  0  0  0  0  0  0  0  0
   47.1630   31.5890   45.1250 C   0  0  0  0  0  0  0  0  0  0  0  0
   46.4560   32.0310   46.3040 C   0  0  0  0  0  0  0  0  0  0  0  0
   46.8180   34.8520   42.0430 C   0  0  0  0  0  0  0  0  0  0  0  0
   46.5590   34.4190   40.9340 O   0  0  0  0  0  0  0  0  0  0  0  0
   48.0280   35.4960   41.8320 O   0  0  0  0  0  0  0  0  0  0  0  0
   49.2660   35.1850   42.2190 C   0  0  0  0  0  0  0  0  0  0  0  0
   49.4220   33.7500   42.6100 C   0  0  0  0  0  0  0  0  0  0  0  0
   49.8910   32.8950   41.5330 N   0  0  0  0  0  0  0  0  0  0  0  0
   51.1550   32.4590   41.6170 N   0  0  0  0  0  0  0  0  0  0  0  0
   51.4420   31.6610   40.5840 C   0  0  0  0  0  0  0  0  0  0  0  0
   50.3160   31.5690   39.7850 C   0  0  0  0  0  0  0  0  0  0  0  0
   49.4110   32.3560   40.4370 C   0  0  0  0  0  0  0  0  0  0  0  0
   45.0218   36.5588   42.6504 H   0  0  0  0  0  0  0  0  0  0  0  0
   43.7955   36.5626   44.9167 H   0  0  0  0  0  0  0  0  0  0  0  0
   44.8923   32.3842   49.6598 H   0  0  0  0  0  0  0  0  0  0  0  0
   47.5618   28.9825   47.8291 H   0  0  0  0  0  0  0  0  0  0  0  0
   48.5974   28.6833   45.6036 H   0  0  0  0  0  0  0  0  0  0  0  0
   48.3745   30.3615   43.7857 H   0  0  0  0  0  0  0  0  0  0  0  0
   47.0796   32.3123   44.3005 H   0  0  0  0  0  0  0  0  0  0  0  0
   49.9549   35.3971   41.3881 H   0  0  0  0  0  0  0  0  0  0  0  0
   49.4903   35.7909   43.1093 H   0  0  0  0  0  0  0  0  0  0  0  0
   50.1445   33.6929   43.4375 H   0  0  0  0  0  0  0  0  0  0  0  0
   48.4240   33.3861   42.8956 H   0  0  0  0  0  0  0  0  0  0  0  0
   52.4059   31.1637   40.4008 H   0  0  0  0  0  0  0  0  0  0  0  0
   50.1827   31.0008   38.8526 H   0  0  0  0  0  0  0  0  0  0  0  0
   48.3838   32.5215   40.0800 H   0  0  0  0  0  0  0  0  0  0  0  0
  1  2  2  0
  1  6  1  0
  2  3  1  0
  3  4  2  0
  5  4  1  0
  5  7  1  0
  6  5  2  0
  7  8  2  0
  8  9  1  0
 10  9  2  0
 11 10  1  0
 12 11  2  0
 13 12  1  0
 14 15  1  0
 14 13  2  0
 15 16  2  0
 16  7  1  0
 16 11  1  0
 17  1  1  0
 18 17  2  0
 19 17  1  0
 19 20  1  0
 20 21  1  0
 22 23  1  0
 22 21  1  0
 24 23  2  0
 25 26  2  0
 25 24  1  0
 26 22  1  0
  2 27  1  0
  3 28  1  0
  9 29  1  0
 12 30  1  0
 13 31  1  0
 14 32  1  0
 15 33  1  0
 20 34  1  0
 20 35  1  0
 21 36  1  0
 21 37  1  0
 24 38  1  0
 25 39  1  0
 26 40  1  0
M  ISO  8  27  14  28  14  29  14  30  14  31  14  32  14  33  14  34   8
M  ISO  6  35   8  36   8  37   8  38  14  39  14  40  14
M  END
>  <minimizedAffinity>  (1) 
-6.06878424

>  <minimizedRMSD>  (1) 
0.384571761

$$$$
