
     RDKit          3D

 40 42  0  0  0  0  0  0  0  0999 V2000
   46.4400   34.5240   42.4960 C   0  0  0  0  0  0  0  0  0  0  0  0
   46.3190   33.8040   41.5330 O   0  0  0  0  0  0  0  0  0  0  0  0
   45.8740   34.4970   43.8300 C   0  0  0  0  0  0  0  0  0  0  0  0
   45.0270   35.5550   44.0440 C   0  0  0  0  0  0  0  0  0  0  0  0
   44.4880   35.5860   45.3350 C   0  0  0  0  0  0  0  0  0  0  0  0
   44.8130   34.6320   46.2300 N   0  0  0  0  0  0  0  0  0  0  0  0
   45.6650   33.6190   45.9230 C   0  0  0  0  0  0  0  0  0  0  0  0
   46.1920   33.5660   44.7020 N   0  0  0  0  0  0  0  0  0  0  0  0
   46.0270   32.5980   46.8510 N   0  0  0  0  0  0  0  0  0  0  0  0
   47.3860   32.1390   47.0400 C   0  0  0  0  0  0  0  0  0  0  0  0
   47.8150   32.1720   48.4950 C   0  0  0  0  0  0  0  0  0  0  0  0
   46.9190   31.3010   49.2410 N   0  0  0  0  0  0  0  0  0  0  0  0
   45.5980   31.8510   49.1450 C   0  0  0  0  0  0  0  0  0  0  0  0
   45.1210   31.8930   47.7090 C   0  0  0  0  0  0  0  0  0  0  0  0
   47.3100   35.4870   42.0470 O   0  0  0  0  0  0  0  0  0  0  0  0
   48.5800   35.4260   41.6360 C   0  0  0  0  0  0  0  0  0  0  0  0
   49.4250   34.5200   42.4730 C   0  0  0  0  0  0  0  0  0  0  0  0
   49.9090   33.3510   41.7690 N   0  0  0  0  0  0  0  0  0  0  0  0
   51.1350   32.9010   42.0540 N   0  0  0  0  0  0  0  0  0  0  0  0
   51.4360   31.8180   41.3570 C   0  0  0  0  0  0  0  0  0  0  0  0
   50.3630   31.5220   40.5610 C   0  0  0  0  0  0  0  0  0  0  0  0
   49.4640   32.5020   40.8650 C   0  0  0  0  0  0  0  0  0  0  0  0
   44.7941   36.3063   43.2750 H   0  0  0  0  0  0  0  0  0  0  0  0
   43.7963   36.3922   45.6206 H   0  0  0  0  0  0  0  0  0  0  0  0
   47.4630   31.1048   46.6732 H   0  0  0  0  0  0  0  0  0  0  0  0
   48.0479   32.8173   46.4816 H   0  0  0  0  0  0  0  0  0  0  0  0
   48.8504   31.8126   48.5884 H   0  0  0  0  0  0  0  0  0  0  0  0
   47.7685   33.1988   48.8869 H   0  0  0  0  0  0  0  0  0  0  0  0
   46.9347   30.3532   48.8380 H   0  0  0  0  0  0  0  0  0  0  0  0
   44.9076   31.2290   49.7336 H   0  0  0  0  0  0  0  0  0  0  0  0
   45.6222   32.8803   49.5323 H   0  0  0  0  0  0  0  0  0  0  0  0
   44.1423   32.3940   47.6767 H   0  0  0  0  0  0  0  0  0  0  0  0
   45.0562   30.8561   47.3475 H   0  0  0  0  0  0  0  0  0  0  0  0
   48.5950   35.0595   40.5990 H   0  0  0  0  0  0  0  0  0  0  0  0
   49.0011   36.4386   41.7214 H   0  0  0  0  0  0  0  0  0  0  0  0
   50.2933   35.0913   42.8331 H   0  0  0  0  0  0  0  0  0  0  0  0
   48.7878   34.1572   43.2930 H   0  0  0  0  0  0  0  0  0  0  0  0
   52.3801   31.2558   41.4080 H   0  0  0  0  0  0  0  0  0  0  0  0
   50.2520   30.6926   39.8471 H   0  0  0  0  0  0  0  0  0  0  0  0
   48.4687   32.5759   40.4024 H   0  0  0  0  0  0  0  0  0  0  0  0
  1  3  1  0
  2  1  2  0
  3  4  2  0
  3  8  1  0
  4  5  1  0
  5  6  2  0
  7  6  1  0
  7  9  1  0
  8  7  2  0
  9 10  1  0
  9 14  1  0
 10 11  1  0
 11 12  1  0
 13 12  1  0
 14 13  1  0
 15  1  1  0
 16 15  1  0
 16 17  1  0
 18 19  1  0
 18 17  1  0
 20 19  2  0
 21 22  2  0
 21 20  1  0
 22 18  1  0
  4 23  1  0
  5 24  1  0
 10 25  1  0
 10 26  1  0
 11 27  1  0
 11 28  1  0
 12 29  1  0
 13 30  1  0
 13 31  1  0
 14 32  1  0
 14 33  1  0
 16 34  1  0
 16 35  1  0
 17 36  1  0
 17 37  1  0
 20 38  1  0
 21 39  1  0
 22 40  1  0
M  ISO  8  23  14  24  14  25  13  26  13  27  13  28  13  29   5  30  13
M  ISO  8  31  13  32  13  33  13  34   8  35   8  36   8  37   8  38  14
M  ISO  2  39  14  40  14
M  END
>  <minimizedAffinity>  (1) 
-5.64644575

>  <minimizedRMSD>  (1) 
0.84621799

$$$$
