
     RDKit          3D

 35 37  0  0  0  0  0  0  0  0999 V2000
   46.6980   34.8550   42.2090 C   0  0  0  0  0  0  0  0  0  0  0  0
   46.5450   34.2590   41.1660 O   0  0  0  0  0  0  0  0  0  0  0  0
   46.0420   34.7790   43.4980 C   0  0  0  0  0  0  0  0  0  0  0  0
   45.1090   35.7760   43.6410 C   0  0  0  0  0  0  0  0  0  0  0  0
   44.4690   35.7600   44.8960 C   0  0  0  0  0  0  0  0  0  0  0  0
   44.8000   34.8220   45.8060 N   0  0  0  0  0  0  0  0  0  0  0  0
   45.7430   33.8710   45.5660 C   0  0  0  0  0  0  0  0  0  0  0  0
   46.3620   33.8660   44.3870 N   0  0  0  0  0  0  0  0  0  0  0  0
   46.0190   32.9080   46.6270 C   0  0  0  0  0  0  0  0  0  0  0  0
   45.2340   32.7900   47.7360 C   0  0  0  0  0  0  0  0  0  0  0  0
   45.5020   31.8730   48.7390 C   0  0  0  0  0  0  0  0  0  0  0  0
   46.6300   31.0860   48.5270 C   0  0  0  0  0  0  0  0  0  0  0  0
   47.4520   31.1820   47.4070 C   0  0  0  0  0  0  0  0  0  0  0  0
   47.0900   32.1080   46.5020 N   0  0  0  0  0  0  0  0  0  0  0  0
   47.7290   35.7160   41.9170 O   0  0  0  0  0  0  0  0  0  0  0  0
   49.0280   35.5070   41.6730 C   0  0  0  0  0  0  0  0  0  0  0  0
   49.6120   34.4160   42.5150 C   0  0  0  0  0  0  0  0  0  0  0  0
   50.0150   33.2500   41.7570 N   0  0  0  0  0  0  0  0  0  0  0  0
   51.2340   32.7490   41.9900 N   0  0  0  0  0  0  0  0  0  0  0  0
   51.4590   31.6670   41.2450 C   0  0  0  0  0  0  0  0  0  0  0  0
   50.3330   31.4400   40.4790 C   0  0  0  0  0  0  0  0  0  0  0  0
   49.4970   32.4500   40.8510 C   0  0  0  0  0  0  0  0  0  0  0  0
   44.8840   36.5125   42.8555 H   0  0  0  0  0  0  0  0  0  0  0  0
   43.7010   36.5111   45.1328 H   0  0  0  0  0  0  0  0  0  0  0  0
   44.3570   33.4462   47.8376 H   0  0  0  0  0  0  0  0  0  0  0  0
   44.8713   31.7744   49.6348 H   0  0  0  0  0  0  0  0  0  0  0  0
   46.8889   30.3404   49.2932 H   0  0  0  0  0  0  0  0  0  0  0  0
   48.3375   30.5435   47.2719 H   0  0  0  0  0  0  0  0  0  0  0  0
   49.1465   35.2343   40.6140 H   0  0  0  0  0  0  0  0  0  0  0  0
   49.5632   36.4358   41.9196 H   0  0  0  0  0  0  0  0  0  0  0  0
   50.4952   34.8141   43.0361 H   0  0  0  0  0  0  0  0  0  0  0  0
   48.8255   34.0910   43.2120 H   0  0  0  0  0  0  0  0  0  0  0  0
   52.3780   31.0626   41.2411 H   0  0  0  0  0  0  0  0  0  0  0  0
   50.1542   30.6389   39.7467 H   0  0  0  0  0  0  0  0  0  0  0  0
   48.4878   32.5830   40.4342 H   0  0  0  0  0  0  0  0  0  0  0  0
  1  3  1  0
  2  1  2  0
  3  4  2  0
  3  8  1  0
  4  5  1  0
  5  6  2  0
  7  6  1  0
  7  9  1  0
  8  7  2  0
  9 10  2  0
 10 11  1  0
 12 11  2  0
 13 12  1  0
 14  9  1  0
 14 13  2  0
 15  1  1  0
 16 15  1  0
 16 17  1  0
 18 19  1  0
 18 17  1  0
 20 19  2  0
 21 22  2  0
 21 20  1  0
 22 18  1  0
  4 23  1  0
  5 24  1  0
 10 25  1  0
 11 26  1  0
 12 27  1  0
 13 28  1  0
 16 29  1  0
 16 30  1  0
 17 31  1  0
 17 32  1  0
 20 33  1  0
 21 34  1  0
 22 35  1  0
M  ISO  8  23  14  24  14  25  14  26  14  27  14  28  14  29   8  30   8
M  ISO  5  31   8  32   8  33  14  34  14  35  14
M  END
>  <minimizedAffinity>  (1) 
-5.6335268

>  <minimizedRMSD>  (1) 
0.623765528

$$$$
