
     RDKit          3D

 38 40  0  0  0  0  0  0  0  0999 V2000
   46.6680   34.9200   42.2020 C   0  0  0  0  0  0  0  0  0  0  0  0
   46.5020   34.3600   41.1440 O   0  0  0  0  0  0  0  0  0  0  0  0
   46.0140   34.8220   43.4920 C   0  0  0  0  0  0  0  0  0  0  0  0
   45.1120   35.8510   43.6710 C   0  0  0  0  0  0  0  0  0  0  0  0
   44.4810   35.8130   44.9290 C   0  0  0  0  0  0  0  0  0  0  0  0
   44.7890   34.8350   45.8050 N   0  0  0  0  0  0  0  0  0  0  0  0
   45.6920   33.8670   45.5330 C   0  0  0  0  0  0  0  0  0  0  0  0
   46.3070   33.8740   44.3500 N   0  0  0  0  0  0  0  0  0  0  0  0
   45.9690   32.8650   46.5050 N   0  0  0  0  0  0  0  0  0  0  0  0
   47.1000   31.9580   46.4980 C   0  0  0  0  0  0  0  0  0  0  0  0
   47.4990   31.9950   47.9580 C   0  0  0  0  0  0  0  0  0  0  0  0
   46.2410   32.3510   48.7150 C   0  0  0  0  0  0  0  0  0  0  0  0
   45.1580   32.5790   47.6730 C   0  0  0  0  0  0  0  0  0  0  0  0
   47.7150   35.7670   41.9310 O   0  0  0  0  0  0  0  0  0  0  0  0
   48.9930   35.5380   41.6160 C   0  0  0  0  0  0  0  0  0  0  0  0
   49.6420   34.5210   42.4990 C   0  0  0  0  0  0  0  0  0  0  0  0
   49.9890   33.2930   41.8200 N   0  0  0  0  0  0  0  0  0  0  0  0
   51.2030   32.7740   42.0340 N   0  0  0  0  0  0  0  0  0  0  0  0
   51.3780   31.6440   41.3690 C   0  0  0  0  0  0  0  0  0  0  0  0
   50.2270   31.3860   40.6720 C   0  0  0  0  0  0  0  0  0  0  0  0
   49.4230   32.4410   40.9980 C   0  0  0  0  0  0  0  0  0  0  0  0
   44.9076   36.6196   42.9111 H   0  0  0  0  0  0  0  0  0  0  0  0
   43.7385   36.5792   45.1967 H   0  0  0  0  0  0  0  0  0  0  0  0
   46.8057   30.9457   46.1838 H   0  0  0  0  0  0  0  0  0  0  0  0
   47.9025   32.2346   45.7984 H   0  0  0  0  0  0  0  0  0  0  0  0
   47.8745   31.0119   48.2783 H   0  0  0  0  0  0  0  0  0  0  0  0
   48.3035   32.7224   48.1414 H   0  0  0  0  0  0  0  0  0  0  0  0
   45.9553   31.5271   49.3855 H   0  0  0  0  0  0  0  0  0  0  0  0
   46.3908   33.2474   49.3347 H   0  0  0  0  0  0  0  0  0  0  0  0
   44.5130   33.4299   47.9375 H   0  0  0  0  0  0  0  0  0  0  0  0
   44.4575   31.7399   47.5496 H   0  0  0  0  0  0  0  0  0  0  0  0
   49.0386   35.1795   40.5770 H   0  0  0  0  0  0  0  0  0  0  0  0
   49.5382   36.4840   41.7499 H   0  0  0  0  0  0  0  0  0  0  0  0
   50.5616   34.9591   42.9143 H   0  0  0  0  0  0  0  0  0  0  0  0
   48.9101   34.2600   43.2775 H   0  0  0  0  0  0  0  0  0  0  0  0
   52.2855   31.0224   41.3746 H   0  0  0  0  0  0  0  0  0  0  0  0
   50.0044   30.5358   40.0105 H   0  0  0  0  0  0  0  0  0  0  0  0
   48.4013   32.5643   40.6096 H   0  0  0  0  0  0  0  0  0  0  0  0
  1  3  1  0
  2  1  2  0
  3  4  2  0
  3  8  1  0
  4  5  1  0
  5  6  2  0
  7  6  1  0
  7  9  1  0
  8  7  2  0
  9 13  1  0
 10  9  1  0
 10 11  1  0
 11 12  1  0
 13 12  1  0
 14  1  1  0
 15 14  1  0
 15 16  1  0
 17 18  1  0
 17 16  1  0
 19 18  2  0
 20 21  2  0
 20 19  1  0
 21 17  1  0
  4 22  1  0
  5 23  1  0
 10 24  1  0
 10 25  1  0
 11 26  1  0
 11 27  1  0
 12 28  1  0
 12 29  1  0
 13 30  1  0
 13 31  1  0
 15 32  1  0
 15 33  1  0
 16 34  1  0
 16 35  1  0
 19 36  1  0
 20 37  1  0
 21 38  1  0
M  ISO  8  22  14  23  14  24  13  25  13  26  13  27  13  28  13  29  13
M  ISO  8  30  13  31  13  32   8  33   8  34   8  35   8  36  14  37  14
M  ISO  1  38  14
M  END
>  <minimizedAffinity>  (1) 
-5.57001638

>  <minimizedRMSD>  (1) 
0.568523645

$$$$
