
     RDKit          3D

 34 36  0  0  0  0  0  0  0  0999 V2000
   46.8050   34.8410   42.0230 C   0  0  0  0  0  0  0  0  0  0  0  0
   46.5400   34.3910   40.9330 O   0  0  0  0  0  0  0  0  0  0  0  0
   46.1140   34.8050   43.2960 C   0  0  0  0  0  0  0  0  0  0  0  0
   45.2130   35.8330   43.4030 C   0  0  0  0  0  0  0  0  0  0  0  0
   44.5430   35.8620   44.6450 C   0  0  0  0  0  0  0  0  0  0  0  0
   44.8280   34.9270   45.5740 N   0  0  0  0  0  0  0  0  0  0  0  0
   45.7420   33.9400   45.3730 C   0  0  0  0  0  0  0  0  0  0  0  0
   46.3800   33.9010   44.2070 N   0  0  0  0  0  0  0  0  0  0  0  0
   45.9730   32.9770   46.4470 C   0  0  0  0  0  0  0  0  0  0  0  0
   47.0000   32.0540   46.2640 C   0  0  0  0  0  0  0  0  0  0  0  0
   47.1610   31.1750   47.3210 C   0  0  0  0  0  0  0  0  0  0  0  0
   46.3920   31.2110   48.4230 N   0  0  0  0  0  0  0  0  0  0  0  0
   45.4140   32.1380   48.5240 C   0  0  0  0  0  0  0  0  0  0  0  0
   45.1780   33.0450   47.5380 N   0  0  0  0  0  0  0  0  0  0  0  0
   48.0180   35.4640   41.8150 O   0  0  0  0  0  0  0  0  0  0  0  0
   49.2480   35.1680   42.2420 C   0  0  0  0  0  0  0  0  0  0  0  0
   49.4090   33.7310   42.6260 C   0  0  0  0  0  0  0  0  0  0  0  0
   49.8890   32.8880   41.5520 N   0  0  0  0  0  0  0  0  0  0  0  0
   51.1520   32.4510   41.6170 N   0  0  0  0  0  0  0  0  0  0  0  0
   51.4470   31.6710   40.5810 C   0  0  0  0  0  0  0  0  0  0  0  0
   50.3200   31.5840   39.7860 C   0  0  0  0  0  0  0  0  0  0  0  0
   49.4130   32.3570   40.4490 C   0  0  0  0  0  0  0  0  0  0  0  0
   45.0304   36.5628   42.6005 H   0  0  0  0  0  0  0  0  0  0  0  0
   43.7946   36.6408   44.8534 H   0  0  0  0  0  0  0  0  0  0  0  0
   47.6269   32.0261   45.3605 H   0  0  0  0  0  0  0  0  0  0  0  0
   47.9526   30.4139   47.2565 H   0  0  0  0  0  0  0  0  0  0  0  0
   44.7905   32.1598   49.4300 H   0  0  0  0  0  0  0  0  0  0  0  0
   49.9620   35.3968   41.4371 H   0  0  0  0  0  0  0  0  0  0  0  0
   49.4346   35.7700   43.1435 H   0  0  0  0  0  0  0  0  0  0  0  0
   50.1255   33.6730   43.4586 H   0  0  0  0  0  0  0  0  0  0  0  0
   48.4108   33.3601   42.9017 H   0  0  0  0  0  0  0  0  0  0  0  0
   52.4143   31.1828   40.3911 H   0  0  0  0  0  0  0  0  0  0  0  0
   50.1869   31.0268   38.8469 H   0  0  0  0  0  0  0  0  0  0  0  0
   48.3843   32.5197   40.0950 H   0  0  0  0  0  0  0  0  0  0  0  0
  1  3  1  0
  2  1  2  0
  3  4  2  0
  3  8  1  0
  4  5  1  0
  5  6  2  0
  7  6  1  0
  7  9  1  0
  8  7  2  0
  9 14  1  0
 10  9  2  0
 10 11  1  0
 11 12  2  0
 12 13  1  0
 14 13  2  0
 15  1  1  0
 15 16  1  0
 16 17  1  0
 18 19  1  0
 18 17  1  0
 20 19  2  0
 21 22  2  0
 21 20  1  0
 22 18  1  0
  4 23  1  0
  5 24  1  0
 10 25  1  0
 11 26  1  0
 13 27  1  0
 16 28  1  0
 16 29  1  0
 17 30  1  0
 17 31  1  0
 20 32  1  0
 21 33  1  0
 22 34  1  0
M  ISO  8  23  14  24  14  25  14  26  14  27  14  28   8  29   8  30   8
M  ISO  4  31   8  32  14  33  14  34  14
M  END
>  <minimizedAffinity>  (1) 
-5.51348352

>  <minimizedRMSD>  (1) 
0.43229869

$$$$
