
     RDKit          3D

 33 35  0  0  0  0  0  0  0  0999 V2000
   48.0190   35.4010   41.7550 O   0  0  0  0  0  0  0  0  0  0  0  0
   49.2370   35.1480   42.2430 C   0  0  0  0  0  0  0  0  0  0  0  0
   49.4190   33.7180   42.6430 C   0  0  0  0  0  0  0  0  0  0  0  0
   49.9340   32.8700   41.5940 N   0  0  0  0  0  0  0  0  0  0  0  0
   51.2030   32.4690   41.6770 N   0  0  0  0  0  0  0  0  0  0  0  0
   51.5350   31.6770   40.6700 C   0  0  0  0  0  0  0  0  0  0  0  0
   50.4210   31.5390   39.8630 C   0  0  0  0  0  0  0  0  0  0  0  0
   49.4860   32.3000   40.4990 C   0  0  0  0  0  0  0  0  0  0  0  0
   46.8030   34.8010   41.9730 C   0  0  0  0  0  0  0  0  0  0  0  0
   46.5660   34.2890   40.9040 O   0  0  0  0  0  0  0  0  0  0  0  0
   46.0820   34.8500   43.2310 C   0  0  0  0  0  0  0  0  0  0  0  0
   45.2040   35.9060   43.2660 C   0  0  0  0  0  0  0  0  0  0  0  0
   44.5110   36.0110   44.4880 C   0  0  0  0  0  0  0  0  0  0  0  0
   44.7500   35.1170   45.4700 N   0  0  0  0  0  0  0  0  0  0  0  0
   45.6390   34.1030   45.3400 C   0  0  0  0  0  0  0  0  0  0  0  0
   46.3050   33.9850   44.1920 N   0  0  0  0  0  0  0  0  0  0  0  0
   45.8900   33.1610   46.3760 N   0  0  0  0  0  0  0  0  0  0  0  0
   45.2140   33.0440   47.5170 C   0  0  0  0  0  0  0  0  0  0  0  0
   45.7740   32.0000   48.2610 C   0  0  0  0  0  0  0  0  0  0  0  0
   46.8010   31.5030   47.5270 N   0  0  0  0  0  0  0  0  0  0  0  0
   46.8570   32.2280   46.3740 C   0  0  0  0  0  0  0  0  0  0  0  0
   49.9820   35.3942   41.4721 H   0  0  0  0  0  0  0  0  0  0  0  0
   49.3644   35.7621   43.1467 H   0  0  0  0  0  0  0  0  0  0  0  0
   50.1202   33.6834   43.4898 H   0  0  0  0  0  0  0  0  0  0  0  0
   48.4212   33.3325   42.8993 H   0  0  0  0  0  0  0  0  0  0  0  0
   52.5186   31.2129   40.5051 H   0  0  0  0  0  0  0  0  0  0  0  0
   50.3152   30.9576   38.9352 H   0  0  0  0  0  0  0  0  0  0  0  0
   48.4569   32.4245   40.1311 H   0  0  0  0  0  0  0  0  0  0  0  0
   45.0570   36.5995   42.4249 H   0  0  0  0  0  0  0  0  0  0  0  0
   43.7789   36.8176   44.6408 H   0  0  0  0  0  0  0  0  0  0  0  0
   44.3587   33.6642   47.8233 H   0  0  0  0  0  0  0  0  0  0  0  0
   45.4450   31.6496   49.2504 H   0  0  0  0  0  0  0  0  0  0  0  0
   47.5845   32.0726   45.5637 H   0  0  0  0  0  0  0  0  0  0  0  0
  1  9  1  0
  1  2  1  0
  2  3  1  0
  4  5  1  0
  4  3  1  0
  6  5  2  0
  7  8  2  0
  7  6  1  0
  8  4  1  0
  9 11  1  0
 10  9  2  0
 11 12  2  0
 11 16  1  0
 12 13  1  0
 13 14  2  0
 15 14  1  0
 15 17  1  0
 16 15  2  0
 17 18  1  0
 18 19  2  0
 20 19  1  0
 21 17  1  0
 21 20  2  0
  2 22  1  0
  2 23  1  0
  3 24  1  0
  3 25  1  0
  6 26  1  0
  7 27  1  0
  8 28  1  0
 12 29  1  0
 13 30  1  0
 18 31  1  0
 19 32  1  0
 21 33  1  0
M  ISO  8  22   8  23   8  24   8  25   8  26  14  27  14  28  14  29  14
M  ISO  4  30  14  31  14  32  14  33  14
M  END
>  <minimizedAffinity>  (1) 
-5.42814875

>  <minimizedRMSD>  (1) 
0.165882736

$$$$
