
     RDKit          3D

 33 35  0  0  0  0  0  0  0  0999 V2000
   46.7860   34.7760   41.9800 C   0  0  0  0  0  0  0  0  0  0  0  0
   46.5630   34.2340   40.9230 O   0  0  0  0  0  0  0  0  0  0  0  0
   46.0620   34.8570   43.2310 C   0  0  0  0  0  0  0  0  0  0  0  0
   45.1880   35.9150   43.2380 C   0  0  0  0  0  0  0  0  0  0  0  0
   44.4920   36.0530   44.4510 C   0  0  0  0  0  0  0  0  0  0  0  0
   44.7220   35.1790   45.4710 N   0  0  0  0  0  0  0  0  0  0  0  0
   45.6160   34.1600   45.3560 C   0  0  0  0  0  0  0  0  0  0  0  0
   46.2820   34.0180   44.2120 N   0  0  0  0  0  0  0  0  0  0  0  0
   45.8580   33.2270   46.4530 C   0  0  0  0  0  0  0  0  0  0  0  0
   46.9070   32.3450   46.6160 C   0  0  0  0  0  0  0  0  0  0  0  0
   46.7450   31.6510   47.7990 C   0  0  0  0  0  0  0  0  0  0  0  0
   45.5600   32.1700   48.3060 C   0  0  0  0  0  0  0  0  0  0  0  0
   45.0680   33.0860   47.5020 O   0  0  0  0  0  0  0  0  0  0  0  0
   48.0090   35.3810   41.7520 O   0  0  0  0  0  0  0  0  0  0  0  0
   49.2250   35.1270   42.2390 C   0  0  0  0  0  0  0  0  0  0  0  0
   49.4170   33.7010   42.6470 C   0  0  0  0  0  0  0  0  0  0  0  0
   49.9390   32.8550   41.5920 N   0  0  0  0  0  0  0  0  0  0  0  0
   51.2130   32.4580   41.6730 N   0  0  0  0  0  0  0  0  0  0  0  0
   51.5510   31.6770   40.6620 C   0  0  0  0  0  0  0  0  0  0  0  0
   50.4500   31.5380   39.8550 C   0  0  0  0  0  0  0  0  0  0  0  0
   49.4990   32.2890   40.4880 C   0  0  0  0  0  0  0  0  0  0  0  0
   45.0463   36.5880   42.3796 H   0  0  0  0  0  0  0  0  0  0  0  0
   43.7619   36.8661   44.5771 H   0  0  0  0  0  0  0  0  0  0  0  0
   47.7427   32.2149   45.9126 H   0  0  0  0  0  0  0  0  0  0  0  0
   47.3948   30.8770   48.2334 H   0  0  0  0  0  0  0  0  0  0  0  0
   45.0961   31.8565   49.2528 H   0  0  0  0  0  0  0  0  0  0  0  0
   49.9681   35.3712   41.4655 H   0  0  0  0  0  0  0  0  0  0  0  0
   49.3471   35.7420   43.1428 H   0  0  0  0  0  0  0  0  0  0  0  0
   50.1199   33.6740   43.4927 H   0  0  0  0  0  0  0  0  0  0  0  0
   48.4244   33.3073   42.9112 H   0  0  0  0  0  0  0  0  0  0  0  0
   52.5380   31.2202   40.4970 H   0  0  0  0  0  0  0  0  0  0  0  0
   50.3553   30.9612   38.9231 H   0  0  0  0  0  0  0  0  0  0  0  0
   48.4717   32.4080   40.1133 H   0  0  0  0  0  0  0  0  0  0  0  0
  1  3  1  0
  2  1  2  0
  3  4  2  0
  3  8  1  0
  4  5  1  0
  5  6  2  0
  7  6  1  0
  7  9  1  0
  8  7  2  0
  9 10  2  0
  9 13  1  0
 10 11  1  0
 11 12  2  0
 13 12  1  0
 14  1  1  0
 14 15  1  0
 15 16  1  0
 17 18  1  0
 17 16  1  0
 19 18  2  0
 20 21  2  0
 20 19  1  0
 21 17  1  0
  4 22  1  0
  5 23  1  0
 10 24  1  0
 11 25  1  0
 12 26  1  0
 15 27  1  0
 15 28  1  0
 16 29  1  0
 16 30  1  0
 19 31  1  0
 20 32  1  0
 21 33  1  0
M  ISO  8  22  14  23  14  24  14  25  14  26  14  27   8  28   8  29   8
M  ISO  4  30   8  31  14  32  14  33  14
M  END
>  <minimizedAffinity>  (1) 
-5.39719105

>  <minimizedRMSD>  (1) 
0.343273938

$$$$
