
     RDKit          3D

 32 34  0  0  0  0  0  0  0  0999 V2000
   46.8960   34.9140   42.0310 C   0  0  0  0  0  0  0  0  0  0  0  0
   46.7390   34.3880   40.9540 O   0  0  0  0  0  0  0  0  0  0  0  0
   46.1660   34.8570   43.2800 C   0  0  0  0  0  0  0  0  0  0  0  0
   45.2500   35.8730   43.3750 C   0  0  0  0  0  0  0  0  0  0  0  0
   44.5440   35.8770   44.5870 C   0  0  0  0  0  0  0  0  0  0  0  0
   44.7960   34.9400   45.5190 N   0  0  0  0  0  0  0  0  0  0  0  0
   45.7280   33.9670   45.3290 C   0  0  0  0  0  0  0  0  0  0  0  0
   46.4110   33.9410   44.1880 N   0  0  0  0  0  0  0  0  0  0  0  0
   45.9910   32.9460   46.3660 C   0  0  0  0  0  0  0  0  0  0  0  0
   46.9990   31.9160   46.2630 C   0  0  0  0  0  0  0  0  0  0  0  0
   46.7620   31.0510   47.8490 S   0  0  0  0  0  0  0  0  0  0  0  0
   45.3430   32.2320   48.3750 C   0  0  0  0  0  0  0  0  0  0  0  0
   45.2350   32.9860   47.4780 N   0  0  0  0  0  0  0  0  0  0  0  0
   48.0290   35.6670   41.8330 O   0  0  0  0  0  0  0  0  0  0  0  0
   49.3270   35.3970   42.0180 C   0  0  0  0  0  0  0  0  0  0  0  0
   49.5650   34.0530   42.6260 C   0  0  0  0  0  0  0  0  0  0  0  0
   50.0290   33.0560   41.6790 N   0  0  0  0  0  0  0  0  0  0  0  0
   51.2820   32.6150   41.8040 N   0  0  0  0  0  0  0  0  0  0  0  0
   51.5700   31.6880   40.9040 C   0  0  0  0  0  0  0  0  0  0  0  0
   50.4500   31.4990   40.1330 C   0  0  0  0  0  0  0  0  0  0  0  0
   49.5460   32.3700   40.6660 C   0  0  0  0  0  0  0  0  0  0  0  0
   45.0849   36.6130   42.5781 H   0  0  0  0  0  0  0  0  0  0  0  0
   43.7825   36.6480   44.7759 H   0  0  0  0  0  0  0  0  0  0  0  0
   47.7124   31.7107   45.4513 H   0  0  0  0  0  0  0  0  0  0  0  0
   44.7603   32.2090   49.3077 H   0  0  0  0  0  0  0  0  0  0  0  0
   49.8350   35.4352   41.0431 H   0  0  0  0  0  0  0  0  0  0  0  0
   49.7219   36.1483   42.7177 H   0  0  0  0  0  0  0  0  0  0  0  0
   50.3222   34.1592   43.4168 H   0  0  0  0  0  0  0  0  0  0  0  0
   48.5978   33.7009   43.0140 H   0  0  0  0  0  0  0  0  0  0  0  0
   52.5313   31.1647   40.7940 H   0  0  0  0  0  0  0  0  0  0  0  0
   50.3141   30.8093   39.2869 H   0  0  0  0  0  0  0  0  0  0  0  0
   48.5196   32.4867   40.2880 H   0  0  0  0  0  0  0  0  0  0  0  0
  1  3  1  0
  2  1  2  0
  3  4  2  0
  3  8  1  0
  4  5  1  0
  5  6  2  0
  7  6  1  0
  7  9  1  0
  8  7  2  0
  9 13  1  0
 10  9  2  0
 10 11  1  0
 11 12  1  0
 13 12  2  0
 14 15  1  0
 14  1  1  0
 15 16  1  0
 17 18  1  0
 17 16  1  0
 19 18  2  0
 20 21  2  0
 20 19  1  0
 21 17  1  0
  4 22  1  0
  5 23  1  0
 10 24  1  0
 12 25  1  0
 15 26  1  0
 15 27  1  0
 16 28  1  0
 16 29  1  0
 19 30  1  0
 20 31  1  0
 21 32  1  0
M  ISO  8  22  14  23  14  24  14  25  14  26   8  27   8  28   8  29   8
M  ISO  3  30  14  31  14  32  14
M  END
>  <minimizedAffinity>  (1) 
-5.32667685

>  <minimizedRMSD>  (1) 
0.290857971

$$$$
