
     RDKit          3D

 33 35  0  0  0  0  0  0  0  0999 V2000
   48.0060   35.3550   41.7940 O   0  0  0  0  0  0  0  0  0  0  0  0
   49.2150   35.0840   42.2930 C   0  0  0  0  0  0  0  0  0  0  0  0
   49.3890   33.6420   42.6620 C   0  0  0  0  0  0  0  0  0  0  0  0
   49.9270   32.8280   41.5960 N   0  0  0  0  0  0  0  0  0  0  0  0
   51.2070   32.4540   41.6790 N   0  0  0  0  0  0  0  0  0  0  0  0
   51.5530   31.6880   40.6440 C   0  0  0  0  0  0  0  0  0  0  0  0
   50.4400   31.5460   39.8280 C   0  0  0  0  0  0  0  0  0  0  0  0
   49.4930   32.2720   40.4830 C   0  0  0  0  0  0  0  0  0  0  0  0
   46.7720   34.7660   42.0070 C   0  0  0  0  0  0  0  0  0  0  0  0
   46.5540   34.2270   40.9500 O   0  0  0  0  0  0  0  0  0  0  0  0
   46.0360   34.8600   43.2490 C   0  0  0  0  0  0  0  0  0  0  0  0
   45.2170   35.9530   43.3010 C   0  0  0  0  0  0  0  0  0  0  0  0
   44.5190   36.1130   44.4930 C   0  0  0  0  0  0  0  0  0  0  0  0
   44.6880   35.2170   45.4840 N   0  0  0  0  0  0  0  0  0  0  0  0
   45.5230   34.1560   45.3520 C   0  0  0  0  0  0  0  0  0  0  0  0
   46.1940   33.9930   44.2180 N   0  0  0  0  0  0  0  0  0  0  0  0
   45.7080   33.1660   46.4480 C   0  0  0  0  0  0  0  0  0  0  0  0
   45.2320   32.9040   47.6550 C   0  0  0  0  0  0  0  0  0  0  0  0
   45.7040   31.8470   48.3410 C   0  0  0  0  0  0  0  0  0  0  0  0
   46.6860   31.0720   47.7340 C   0  0  0  0  0  0  0  0  0  0  0  0
   46.9140   31.9390   46.0930 S   0  0  0  0  0  0  0  0  0  0  0  0
   49.9718   35.3462   41.5390 H   0  0  0  0  0  0  0  0  0  0  0  0
   49.3295   35.6744   43.2141 H   0  0  0  0  0  0  0  0  0  0  0  0
   50.0729   33.5841   43.5216 H   0  0  0  0  0  0  0  0  0  0  0  0
   48.3885   33.2474   42.8927 H   0  0  0  0  0  0  0  0  0  0  0  0
   52.5452   31.2468   40.4682 H   0  0  0  0  0  0  0  0  0  0  0  0
   50.3461   30.9860   38.8859 H   0  0  0  0  0  0  0  0  0  0  0  0
   48.4616   32.3841   40.1173 H   0  0  0  0  0  0  0  0  0  0  0  0
   45.1172   36.6555   42.4604 H   0  0  0  0  0  0  0  0  0  0  0  0
   43.8348   36.9641   44.6253 H   0  0  0  0  0  0  0  0  0  0  0  0
   44.4551   33.5466   48.0947 H   0  0  0  0  0  0  0  0  0  0  0  0
   45.3267   31.6048   49.3455 H   0  0  0  0  0  0  0  0  0  0  0  0
   47.1976   30.1780   48.1202 H   0  0  0  0  0  0  0  0  0  0  0  0
  1  9  1  0
  1  2  1  0
  2  3  1  0
  4  5  1  0
  4  3  1  0
  6  5  2  0
  7  8  2  0
  7  6  1  0
  8  4  1  0
  9 11  1  0
 10  9  2  0
 11 12  2  0
 11 16  1  0
 12 13  1  0
 13 14  2  0
 15 14  1  0
 15 17  1  0
 16 15  2  0
 17 18  2  0
 18 19  1  0
 20 19  2  0
 21 17  1  0
 21 20  1  0
  2 22  1  0
  2 23  1  0
  3 24  1  0
  3 25  1  0
  6 26  1  0
  7 27  1  0
  8 28  1  0
 12 29  1  0
 13 30  1  0
 18 31  1  0
 19 32  1  0
 20 33  1  0
M  ISO  8  22   8  23   8  24   8  25   8  26  14  27  14  28  14  29  14
M  ISO  4  30  14  31  14  32  14  33  14
M  END
>  <minimizedAffinity>  (1) 
-5.26709127

>  <minimizedRMSD>  (1) 
0.24141705

$$$$
