
     RDKit          3D

 29 30  0  0  0  0  0  0  0  0999 V2000
   48.0440   35.4530   41.7580 O   0  0  0  0  0  0  0  0  0  0  0  0
   49.2830   35.1880   42.1890 C   0  0  0  0  0  0  0  0  0  0  0  0
   49.4600   33.7690   42.6290 C   0  0  0  0  0  0  0  0  0  0  0  0
   49.9590   32.8920   41.5950 N   0  0  0  0  0  0  0  0  0  0  0  0
   51.2250   32.4810   41.6780 N   0  0  0  0  0  0  0  0  0  0  0  0
   51.5440   31.6650   40.6860 C   0  0  0  0  0  0  0  0  0  0  0  0
   50.4290   31.5200   39.8890 C   0  0  0  0  0  0  0  0  0  0  0  0
   49.5020   32.3020   40.5130 C   0  0  0  0  0  0  0  0  0  0  0  0
   46.8420   34.8200   41.9700 C   0  0  0  0  0  0  0  0  0  0  0  0
   46.6220   34.3090   40.8980 O   0  0  0  0  0  0  0  0  0  0  0  0
   46.1200   34.8420   43.2270 C   0  0  0  0  0  0  0  0  0  0  0  0
   45.2610   35.9110   43.2860 C   0  0  0  0  0  0  0  0  0  0  0  0
   44.5610   35.9940   44.5040 C   0  0  0  0  0  0  0  0  0  0  0  0
   44.7770   35.0700   45.4620 N   0  0  0  0  0  0  0  0  0  0  0  0
   45.6540   34.0440   45.3080 C   0  0  0  0  0  0  0  0  0  0  0  0
   46.3260   33.9470   44.1610 N   0  0  0  0  0  0  0  0  0  0  0  0
   45.8250   33.0730   46.4220 C   0  0  0  0  0  0  0  0  0  0  0  0
   44.8910   33.3850   47.3720 F   0  0  0  0  0  0  0  0  0  0  0  0
   45.6630   31.7670   45.9390 F   0  0  0  0  0  0  0  0  0  0  0  0
   47.1220   33.1330   46.9200 F   0  0  0  0  0  0  0  0  0  0  0  0
   49.9894   35.3916   41.3707 H   0  0  0  0  0  0  0  0  0  0  0  0
   49.4703   35.8285   43.0635 H   0  0  0  0  0  0  0  0  0  0  0  0
   50.1703   33.7531   43.4688 H   0  0  0  0  0  0  0  0  0  0  0  0
   48.4641   33.3959   42.9101 H   0  0  0  0  0  0  0  0  0  0  0  0
   52.5225   31.1885   40.5264 H   0  0  0  0  0  0  0  0  0  0  0  0
   50.3147   30.9205   38.9738 H   0  0  0  0  0  0  0  0  0  0  0  0
   48.4724   32.4268   40.1465 H   0  0  0  0  0  0  0  0  0  0  0  0
   45.1327   36.6305   42.4639 H   0  0  0  0  0  0  0  0  0  0  0  0
   43.8414   36.8084   44.6737 H   0  0  0  0  0  0  0  0  0  0  0  0
  1  9  1  0
  1  2  1  0
  2  3  1  0
  4  5  1  0
  4  3  1  0
  6  5  2  0
  7  8  2  0
  7  6  1  0
  8  4  1  0
  9 11  1  0
 10  9  2  0
 11 12  2  0
 11 16  1  0
 12 13  1  0
 13 14  2  0
 15 14  1  0
 15 17  1  0
 16 15  2  0
 17 20  1  0
 17 18  1  0
 19 17  1  0
  2 21  1  0
  2 22  1  0
  3 23  1  0
  3 24  1  0
  6 25  1  0
  7 26  1  0
  8 27  1  0
 12 28  1  0
 13 29  1  0
M  ISO  8  21   8  22   8  23   8  24   8  25  14  26  14  27  14  28  14
M  ISO  1  29  14
M  END
>  <minimizedAffinity>  (1) 
-5.17817259

>  <minimizedRMSD>  (1) 
0.484943092

$$$$
