
     RDKit          3D

 28 29  0  0  0  0  0  0  0  0999 V2000
   49.2250   35.1320   42.2500 C   0  0  0  0  0  0  0  0  0  0  0  0
   49.3950   33.7010   42.6530 C   0  0  0  0  0  0  0  0  0  0  0  0
   49.9300   32.8590   41.6040 N   0  0  0  0  0  0  0  0  0  0  0  0
   51.2050   32.4720   41.6880 N   0  0  0  0  0  0  0  0  0  0  0  0
   51.5490   31.6890   40.6800 C   0  0  0  0  0  0  0  0  0  0  0  0
   50.4440   31.5420   39.8690 C   0  0  0  0  0  0  0  0  0  0  0  0
   49.4950   32.2870   40.5020 C   0  0  0  0  0  0  0  0  0  0  0  0
   48.0300   35.3840   41.7080 O   0  0  0  0  0  0  0  0  0  0  0  0
   46.7940   34.8120   41.9110 C   0  0  0  0  0  0  0  0  0  0  0  0
   46.5680   34.2840   40.8460 O   0  0  0  0  0  0  0  0  0  0  0  0
   46.0500   34.8990   43.1510 C   0  0  0  0  0  0  0  0  0  0  0  0
   45.3170   36.0590   43.2130 C   0  0  0  0  0  0  0  0  0  0  0  0
   44.6040   36.2000   44.4200 C   0  0  0  0  0  0  0  0  0  0  0  0
   44.6930   35.2410   45.3640 N   0  0  0  0  0  0  0  0  0  0  0  0
   45.4490   34.1210   45.2080 C   0  0  0  0  0  0  0  0  0  0  0  0
   46.1300   33.9710   44.0740 N   0  0  0  0  0  0  0  0  0  0  0  0
   45.4630   33.1790   46.2750 N   0  0  0  0  0  0  0  0  0  0  0  0
   49.3453   35.7640   43.1423 H   0  0  0  0  0  0  0  0  0  0  0  0
   49.9853   35.3508   41.4858 H   0  0  0  0  0  0  0  0  0  0  0  0
   50.0801   33.6617   43.5127 H   0  0  0  0  0  0  0  0  0  0  0  0
   48.3938   33.3148   42.8950 H   0  0  0  0  0  0  0  0  0  0  0  0
   52.5384   31.2365   40.5177 H   0  0  0  0  0  0  0  0  0  0  0  0
   50.3511   30.9640   38.9377 H   0  0  0  0  0  0  0  0  0  0  0  0
   48.4665   32.3992   40.1285 H   0  0  0  0  0  0  0  0  0  0  0  0
   45.2895   36.8023   42.4026 H   0  0  0  0  0  0  0  0  0  0  0  0
   43.9778   37.0880   44.5915 H   0  0  0  0  0  0  0  0  0  0  0  0
   46.0233   32.3184   46.1949 H   0  0  0  0  0  0  0  0  0  0  0  0
   44.9129   33.3579   47.1272 H   0  0  0  0  0  0  0  0  0  0  0  0
  1  2  1  0
  3  4  1  0
  3  2  1  0
  5  4  2  0
  6  7  2  0
  6  5  1  0
  7  3  1  0
  8  9  1  0
  8  1  1  0
  9 11  1  0
 10  9  2  0
 11 12  2  0
 11 16  1  0
 12 13  1  0
 13 14  2  0
 15 14  1  0
 15 17  1  0
 16 15  2  0
  1 18  1  0
  1 19  1  0
  2 20  1  0
  2 21  1  0
  5 22  1  0
  6 23  1  0
  7 24  1  0
 12 25  1  0
 13 26  1  0
 17 27  1  0
 17 28  1  0
M  ISO  8  18   8  19   8  20   8  21   8  22  14  23  14  24  14  25  14
M  ISO  1  26  14
M  END
>  <minimizedAffinity>  (1) 
-4.64537525

>  <minimizedRMSD>  (1) 
0.0902746171

$$$$
