
     RDKit          3D

 32 33  0  0  0  0  0  0  0  0999 V2000
   49.0010   35.5620   41.6290 C   0  0  0  0  0  0  0  0  0  0  0  0
   49.6650   34.5350   42.4890 C   0  0  0  0  0  0  0  0  0  0  0  0
   49.9980   33.3120   41.7930 N   0  0  0  0  0  0  0  0  0  0  0  0
   51.2170   32.7950   41.9830 N   0  0  0  0  0  0  0  0  0  0  0  0
   51.3760   31.6640   41.3090 C   0  0  0  0  0  0  0  0  0  0  0  0
   50.2010   31.4080   40.6280 C   0  0  0  0  0  0  0  0  0  0  0  0
   49.4090   32.4650   40.9790 C   0  0  0  0  0  0  0  0  0  0  0  0
   47.7280   35.7880   41.9650 O   0  0  0  0  0  0  0  0  0  0  0  0
   46.6820   34.9240   42.2170 C   0  0  0  0  0  0  0  0  0  0  0  0
   46.4690   34.4380   41.1320 O   0  0  0  0  0  0  0  0  0  0  0  0
   46.0750   34.7430   43.5200 C   0  0  0  0  0  0  0  0  0  0  0  0
   45.1020   35.6840   43.7520 C   0  0  0  0  0  0  0  0  0  0  0  0
   44.5100   35.5740   45.0290 C   0  0  0  0  0  0  0  0  0  0  0  0
   44.9280   34.6050   45.8700 N   0  0  0  0  0  0  0  0  0  0  0  0
   45.9010   33.7130   45.5480 C   0  0  0  0  0  0  0  0  0  0  0  0
   46.4700   33.8040   44.3460 N   0  0  0  0  0  0  0  0  0  0  0  0
   46.2970   32.6780   46.5380 C   0  0  0  0  0  0  0  0  0  0  0  0
   45.3770   32.6260   47.7300 C   0  0  0  0  0  0  0  0  0  0  0  0
   49.0307   35.2158   40.5853 H   0  0  0  0  0  0  0  0  0  0  0  0
   49.5477   36.5065   41.7675 H   0  0  0  0  0  0  0  0  0  0  0  0
   50.5929   34.9679   42.8911 H   0  0  0  0  0  0  0  0  0  0  0  0
   48.9464   34.2671   43.2776 H   0  0  0  0  0  0  0  0  0  0  0  0
   52.2821   31.0405   41.2946 H   0  0  0  0  0  0  0  0  0  0  0  0
   49.9622   30.5621   39.9666 H   0  0  0  0  0  0  0  0  0  0  0  0
   48.3788   32.5942   40.6156 H   0  0  0  0  0  0  0  0  0  0  0  0
   44.8125   36.4481   43.0155 H   0  0  0  0  0  0  0  0  0  0  0  0
   43.7161   36.2711   45.3353 H   0  0  0  0  0  0  0  0  0  0  0  0
   46.2860   31.6959   46.0428 H   0  0  0  0  0  0  0  0  0  0  0  0
   47.3003   32.9391   46.9059 H   0  0  0  0  0  0  0  0  0  0  0  0
   45.9723   32.6596   48.6544 H   0  0  0  0  0  0  0  0  0  0  0  0
   44.6928   33.4869   47.7030 H   0  0  0  0  0  0  0  0  0  0  0  0
   44.7942   31.6935   47.7030 H   0  0  0  0  0  0  0  0  0  0  0  0
  1  8  1  0
  1  2  1  0
  3  4  1  0
  3  2  1  0
  5  4  2  0
  6  7  2  0
  6  5  1  0
  7  3  1  0
  8  9  1  0
  9 11  1  0
 10  9  2  0
 11 12  2  0
 11 16  1  0
 12 13  1  0
 13 14  2  0
 15 14  1  0
 15 17  1  0
 16 15  2  0
 17 18  1  0
  1 19  1  0
  1 20  1  0
  2 21  1  0
  2 22  1  0
  5 23  1  0
  6 24  1  0
  7 25  1  0
 12 26  1  0
 13 27  1  0
 17 28  1  0
 17 29  1  0
 18 30  1  0
 18 31  1  0
 18 32  1  0
M  ISO  8  19   8  20   8  21   8  22   8  23  14  24  14  25  14  26  14
M  ISO  6  27  14  28   8  29   8  30   8  31   8  32   8
M  END
>  <minimizedAffinity>  (1) 
-4.63368893

>  <minimizedRMSD>  (1) 
0.668293297

$$$$
