
     RDKit          3D

 31 32  0  0  0  0  0  0  0  0999 V2000
   45.3100   35.8570   42.9470 C   0  0  0  0  0  0  0  0  0  0  0  0
   45.1520   36.9860   43.2820 O   0  0  0  0  0  0  0  0  0  0  0  0
   46.2170   34.7800   43.3190 C   0  0  0  0  0  0  0  0  0  0  0  0
   47.3690   34.8500   42.5990 C   0  0  0  0  0  0  0  0  0  0  0  0
   48.2740   33.8060   42.9100 C   0  0  0  0  0  0  0  0  0  0  0  0
   47.9290   32.8940   43.8360 N   0  0  0  0  0  0  0  0  0  0  0  0
   46.7350   32.9170   44.5060 C   0  0  0  0  0  0  0  0  0  0  0  0
   45.9040   33.8890   44.2090 N   0  0  0  0  0  0  0  0  0  0  0  0
   46.5030   31.8900   45.4590 N   0  0  0  0  0  0  0  0  0  0  0  0
   49.6040   33.7000   42.2310 C   0  0  0  0  0  0  0  0  0  0  0  0
   50.3280   34.8870   42.3930 F   0  0  0  0  0  0  0  0  0  0  0  0
   49.4350   33.5780   40.8500 F   0  0  0  0  0  0  0  0  0  0  0  0
   50.3740   32.6870   42.7130 F   0  0  0  0  0  0  0  0  0  0  0  0
   44.3280   35.7140   41.9880 O   0  0  0  0  0  0  0  0  0  0  0  0
   44.0880   34.7910   41.0740 C   0  0  0  0  0  0  0  0  0  0  0  0
   42.8570   33.9990   41.3410 C   0  0  0  0  0  0  0  0  0  0  0  0
   41.6470   34.6500   40.8680 N   0  0  0  0  0  0  0  0  0  0  0  0
   41.0270   34.1710   39.7920 N   0  0  0  0  0  0  0  0  0  0  0  0
   39.9470   34.8530   39.4930 C   0  0  0  0  0  0  0  0  0  0  0  0
   39.8310   35.8580   40.4300 C   0  0  0  0  0  0  0  0  0  0  0  0
   40.9140   35.6640   41.2380 C   0  0  0  0  0  0  0  0  0  0  0  0
   47.5755   35.6335   41.8550 H   0  0  0  0  0  0  0  0  0  0  0  0
   45.6188   31.8674   45.9868 H   0  0  0  0  0  0  0  0  0  0  0  0
   47.2189   31.1678   45.6224 H   0  0  0  0  0  0  0  0  0  0  0  0
   44.9451   34.1023   41.0409 H   0  0  0  0  0  0  0  0  0  0  0  0
   43.9363   35.3134   40.1179 H   0  0  0  0  0  0  0  0  0  0  0  0
   42.9507   33.0256   40.8373 H   0  0  0  0  0  0  0  0  0  0  0  0
   42.7665   33.8909   42.4319 H   0  0  0  0  0  0  0  0  0  0  0  0
   39.2631   34.6597   38.6534 H   0  0  0  0  0  0  0  0  0  0  0  0
   39.0522   36.6310   40.5077 H   0  0  0  0  0  0  0  0  0  0  0  0
   41.1443   36.2956   42.1087 H   0  0  0  0  0  0  0  0  0  0  0  0
  1  2  2  0
  1  3  1  0
  3  8  2  0
  4  5  2  0
  4  3  1  0
  5  6  1  0
  6  7  2  0
  7  9  1  0
  8  7  1  0
 10 11  1  0
 10 13  1  0
 10  5  1  0
 12 10  1  0
 14  1  1  0
 15 16  1  0
 15 14  1  0
 17 21  1  0
 17 16  1  0
 18 17  1  0
 19 18  2  0
 19 20  1  0
 20 21  2  0
  4 22  1  0
  9 23  1  0
  9 24  1  0
 15 25  1  0
 15 26  1  0
 16 27  1  0
 16 28  1  0
 19 29  1  0
 20 30  1  0
 21 31  1  0
M  ISO  8  22  14  25   8  26   8  27   8  28   8  29  14  30  14  31  14
M  END
>  <minimizedAffinity>  (1) 
-4.97986698

>  <minimizedRMSD>  (1) 
6.8022604

$$$$
