
     RDKit          3D

 31 32  0  0  0  0  0  0  0  0999 V2000
   47.6510   34.3620   40.9340 C   0  0  0  0  0  0  0  0  0  0  0  0
   47.7450   34.3830   39.7480 O   0  0  0  0  0  0  0  0  0  0  0  0
   46.5890   34.0950   41.8970 C   0  0  0  0  0  0  0  0  0  0  0  0
   46.2970   35.2280   42.6180 C   0  0  0  0  0  0  0  0  0  0  0  0
   45.2850   34.9940   43.5820 C   0  0  0  0  0  0  0  0  0  0  0  0
   44.7460   33.7700   43.6900 N   0  0  0  0  0  0  0  0  0  0  0  0
   45.1090   32.7190   42.9250 C   0  0  0  0  0  0  0  0  0  0  0  0
   46.0490   32.9220   42.0230 N   0  0  0  0  0  0  0  0  0  0  0  0
   44.4520   31.4790   43.1470 N   0  0  0  0  0  0  0  0  0  0  0  0
   44.8160   36.0600   44.4620 C   0  0  0  0  0  0  0  0  0  0  0  0
   44.4400   35.8240   45.6140 O   0  0  0  0  0  0  0  0  0  0  0  0
   44.7810   37.3790   44.0290 O   0  0  0  0  0  0  0  0  0  0  0  0
   48.9320   34.6890   41.3110 O   0  0  0  0  0  0  0  0  0  0  0  0
   49.7880   34.1770   42.1850 C   0  0  0  0  0  0  0  0  0  0  0  0
   49.8000   32.6870   42.1760 C   0  0  0  0  0  0  0  0  0  0  0  0
   50.4680   32.1300   41.0060 N   0  0  0  0  0  0  0  0  0  0  0  0
   51.7870   31.9510   41.0340 N   0  0  0  0  0  0  0  0  0  0  0  0
   52.2360   31.4290   39.9170 C   0  0  0  0  0  0  0  0  0  0  0  0
   51.1530   31.2430   39.0770 C   0  0  0  0  0  0  0  0  0  0  0  0
   50.1070   31.7010   39.8260 C   0  0  0  0  0  0  0  0  0  0  0  0
   46.7896   36.1996   42.4652 H   0  0  0  0  0  0  0  0  0  0  0  0
   44.7028   30.6549   42.5822 H   0  0  0  0  0  0  0  0  0  0  0  0
   43.7249   31.4041   43.8727 H   0  0  0  0  0  0  0  0  0  0  0  0
   44.4604   38.0913   44.6372 H   0  0  0  0  0  0  0  0  0  0  0  0
   50.7979   34.5381   41.9408 H   0  0  0  0  0  0  0  0  0  0  0  0
   49.4707   34.4998   43.1876 H   0  0  0  0  0  0  0  0  0  0  0  0
   50.3218   32.3352   43.0782 H   0  0  0  0  0  0  0  0  0  0  0  0
   48.7534   32.3496   42.1492 H   0  0  0  0  0  0  0  0  0  0  0  0
   53.2840   31.1837   39.6898 H   0  0  0  0  0  0  0  0  0  0  0  0
   51.1380   30.8288   38.0581 H   0  0  0  0  0  0  0  0  0  0  0  0
   49.0657   31.7080   39.4716 H   0  0  0  0  0  0  0  0  0  0  0  0
  1 13  1  0
  1  3  1  0
  2  1  2  0
  3  8  1  0
  3  4  2  0
  4  5  1  0
  5  6  2  0
  5 10  1  0
  7  9  1  0
  7  6  1  0
  8  7  2  0
 10 11  2  0
 12 10  1  0
 13 14  1  0
 15 14  1  0
 16 17  1  0
 16 15  1  0
 18 17  2  0
 19 20  2  0
 19 18  1  0
 20 16  1  0
  4 21  1  0
  9 22  1  0
  9 23  1  0
 12 24  1  0
 14 25  1  0
 14 26  1  0
 15 27  1  0
 15 28  1  0
 18 29  1  0
 19 30  1  0
 20 31  1  0
M  ISO  8  21  14  24   3  25   8  26   8  27   8  28   8  29  14  30  14
M  ISO  1  31  14
M  END
>  <minimizedAffinity>  (1) 
-4.66732407

>  <minimizedRMSD>  (1) 
1.78629017

$$$$
