
     RDKit          3D

 34 36  0  0  0  0  0  0  0  0999 V2000
   45.5820   35.5220   42.9090 C   0  0  0  0  0  0  0  0  0  0  0  0
   45.0410   36.2980   43.5940 O   0  0  0  0  0  0  0  0  0  0  0  0
   46.7540   34.6530   43.0010 C   0  0  0  0  0  0  0  0  0  0  0  0
   46.4120   33.4620   43.5760 C   0  0  0  0  0  0  0  0  0  0  0  0
   47.5100   32.6010   43.7170 C   0  0  0  0  0  0  0  0  0  0  0  0
   48.7380   32.9980   43.2950 N   0  0  0  0  0  0  0  0  0  0  0  0
   48.9560   34.2140   42.7350 C   0  0  0  0  0  0  0  0  0  0  0  0
   47.9320   35.0080   42.6070 N   0  0  0  0  0  0  0  0  0  0  0  0
   50.2800   34.5370   42.3420 N   0  0  0  0  0  0  0  0  0  0  0  0
   47.4510   31.3360   44.2650 O   0  0  0  0  0  0  0  0  0  0  0  0
   46.9190   31.1940   45.5390 C   0  0  0  0  0  0  0  0  0  0  0  0
   47.7880   30.3990   46.2290 N   0  0  0  0  0  0  0  0  0  0  0  0
   47.3450   30.2190   47.4580 O   0  0  0  0  0  0  0  0  0  0  0  0
   46.2140   30.8650   47.6120 C   0  0  0  0  0  0  0  0  0  0  0  0
   45.9560   31.4610   46.4360 N   0  0  0  0  0  0  0  0  0  0  0  0
   44.7940   35.5660   41.8010 O   0  0  0  0  0  0  0  0  0  0  0  0
   44.2720   34.6750   40.9950 C   0  0  0  0  0  0  0  0  0  0  0  0
   43.0960   33.9750   41.5380 C   0  0  0  0  0  0  0  0  0  0  0  0
   41.8370   34.6040   41.1300 N   0  0  0  0  0  0  0  0  0  0  0  0
   40.8220   33.8560   40.7340 N   0  0  0  0  0  0  0  0  0  0  0  0
   39.7740   34.5480   40.4040 C   0  0  0  0  0  0  0  0  0  0  0  0
   40.0960   35.8910   40.5910 C   0  0  0  0  0  0  0  0  0  0  0  0
   41.3880   35.8120   41.0400 C   0  0  0  0  0  0  0  0  0  0  0  0
   45.3900   33.2069   43.8929 H   0  0  0  0  0  0  0  0  0  0  0  0
   50.4814   35.4517   41.9135 H   0  0  0  0  0  0  0  0  0  0  0  0
   51.0401   33.8568   42.4851 H   0  0  0  0  0  0  0  0  0  0  0  0
   45.5990   30.9099   48.5229 H   0  0  0  0  0  0  0  0  0  0  0  0
   45.0433   33.9247   40.7666 H   0  0  0  0  0  0  0  0  0  0  0  0
   43.9271   35.2221   40.1052 H   0  0  0  0  0  0  0  0  0  0  0  0
   43.1053   32.9358   41.1776 H   0  0  0  0  0  0  0  0  0  0  0  0
   43.1546   34.0201   42.6355 H   0  0  0  0  0  0  0  0  0  0  0  0
   38.8137   34.1496   40.0448 H   0  0  0  0  0  0  0  0  0  0  0  0
   39.4744   36.7827   40.4220 H   0  0  0  0  0  0  0  0  0  0  0  0
   41.9882   36.6964   41.3001 H   0  0  0  0  0  0  0  0  0  0  0  0
  1  3  1  0
  1  2  2  0
  3  4  2  0
  4  5  1  0
  5 10  1  0
  6  5  2  0
  7  6  1  0
  8  7  2  0
  8  3  1  0
  9  7  1  0
 10 11  1  0
 11 12  2  0
 11 15  1  0
 12 13  1  0
 13 14  1  0
 15 14  2  0
 16  1  1  0
 17 18  1  0
 17 16  1  0
 19 18  1  0
 20 19  1  0
 21 22  1  0
 21 20  2  0
 22 23  2  0
 23 19  1  0
  4 24  1  0
  9 25  1  0
  9 26  1  0
 14 27  1  0
 17 28  1  0
 17 29  1  0
 18 30  1  0
 18 31  1  0
 21 32  1  0
 22 33  1  0
 23 34  1  0
M  ISO  8  24  14  27  14  28   8  29   8  30   8  31   8  32  14  33  14
M  ISO  1  34  14
M  END
>  <minimizedAffinity>  (1) 
-4.76696491

>  <minimizedRMSD>  (1) 
7.3129611

$$$$
