
     RDKit          3D

 38 39  0  0  0  0  0  0  0  0999 V2000
   47.9340   34.0160   39.4530 C   0  0  0  0  0  0  0  0  0  0  0  0
   48.2980   34.6070   38.5100 O   0  0  0  0  0  0  0  0  0  0  0  0
   46.7630   34.0130   40.3310 C   0  0  0  0  0  0  0  0  0  0  0  0
   47.1330   34.4030   41.5930 C   0  0  0  0  0  0  0  0  0  0  0  0
   46.0220   34.3740   42.4630 C   0  0  0  0  0  0  0  0  0  0  0  0
   44.8020   34.0020   42.0320 N   0  0  0  0  0  0  0  0  0  0  0  0
   44.5700   33.6370   40.7490 C   0  0  0  0  0  0  0  0  0  0  0  0
   45.5880   33.6610   39.9350 N   0  0  0  0  0  0  0  0  0  0  0  0
   43.2560   33.2480   40.3980 N   0  0  0  0  0  0  0  0  0  0  0  0
   46.1300   34.7300   43.8100 O   0  0  0  0  0  0  0  0  0  0  0  0
   45.3030   34.2270   44.8110 C   0  0  0  0  0  0  0  0  0  0  0  0
   44.5950   35.3780   45.4900 C   0  0  0  0  0  0  0  0  0  0  0  0
   46.1670   33.4440   45.7790 C   0  0  0  0  0  0  0  0  0  0  0  0
   48.9880   33.1630   39.6380 O   0  0  0  0  0  0  0  0  0  0  0  0
   49.1980   31.8920   39.4120 C   0  0  0  0  0  0  0  0  0  0  0  0
   49.9750   31.6070   38.1970 C   0  0  0  0  0  0  0  0  0  0  0  0
   51.4110   31.5050   38.4630 N   0  0  0  0  0  0  0  0  0  0  0  0
   51.8400   31.2680   39.6880 N   0  0  0  0  0  0  0  0  0  0  0  0
   53.1330   31.2040   39.7770 C   0  0  0  0  0  0  0  0  0  0  0  0
   53.6390   31.4170   38.4960 C   0  0  0  0  0  0  0  0  0  0  0  0
   52.4930   31.5920   37.7630 C   0  0  0  0  0  0  0  0  0  0  0  0
   48.1518   34.6969   41.8857 H   0  0  0  0  0  0  0  0  0  0  0  0
   43.0439   32.9643   39.4308 H   0  0  0  0  0  0  0  0  0  0  0  0
   42.5113   33.2485   41.1096 H   0  0  0  0  0  0  0  0  0  0  0  0
   44.5325   33.5565   44.4026 H   0  0  0  0  0  0  0  0  0  0  0  0
   44.6673   35.2605   46.5813 H   0  0  0  0  0  0  0  0  0  0  0  0
   45.0664   36.3259   45.1913 H   0  0  0  0  0  0  0  0  0  0  0  0
   43.5364   35.3848   45.1913 H   0  0  0  0  0  0  0  0  0  0  0  0
   45.8852   33.6994   46.8112 H   0  0  0  0  0  0  0  0  0  0  0  0
   46.0184   32.3666   45.6142 H   0  0  0  0  0  0  0  0  0  0  0  0
   47.2246   33.6976   45.6142 H   0  0  0  0  0  0  0  0  0  0  0  0
   49.7419   31.4757   40.2727 H   0  0  0  0  0  0  0  0  0  0  0  0
   48.2089   31.4339   39.2643 H   0  0  0  0  0  0  0  0  0  0  0  0
   49.8068   32.4172   37.4722 H   0  0  0  0  0  0  0  0  0  0  0  0
   49.6375   30.6369   37.8034 H   0  0  0  0  0  0  0  0  0  0  0  0
   53.7181   31.0172   40.6895 H   0  0  0  0  0  0  0  0  0  0  0  0
   54.6862   31.4391   38.1599 H   0  0  0  0  0  0  0  0  0  0  0  0
   52.4952   31.7880   36.6806 H   0  0  0  0  0  0  0  0  0  0  0  0
  1 14  1  0
  1  3  1  0
  2  1  2  0
  3  4  2  0
  4  5  1  0
  5 10  1  0
  6  5  2  0
  7  6  1  0
  8  3  1  0
  8  7  2  0
  9  7  1  0
 10 11  1  0
 11 12  1  0
 11 13  1  0
 15 14  1  0
 16 17  1  0
 16 15  1  0
 17 18  1  0
 18 19  2  0
 20 19  1  0
 21 17  1  0
 21 20  2  0
  4 22  1  0
  9 23  1  0
  9 24  1  0
 11 25  1  0
 12 26  1  0
 12 27  1  0
 12 28  1  0
 13 29  1  0
 13 30  1  0
 13 31  1  0
 15 32  1  0
 15 33  1  0
 16 34  1  0
 16 35  1  0
 19 36  1  0
 20 37  1  0
 21 38  1  0
M  ISO  8  22  14  25   8  26   8  27   8  28   8  29   8  30   8  31   8
M  ISO  7  32   8  33   8  34   8  35   8  36  14  37  14  38  14
M  END
>  <minimizedAffinity>  (1) 
-4.15151024

>  <minimizedRMSD>  (1) 
3.49654651

$$$$
