
     RDKit          3D

 36 38  0  0  0  0  0  0  0  0999 V2000
   46.1370   34.3530   42.5540 C   0  0  0  0  0  0  0  0  0  0  0  0
   45.7420   35.6210   42.8660 C   0  0  0  0  0  0  0  0  0  0  0  0
   45.1870   35.6930   44.1650 C   0  0  0  0  0  0  0  0  0  0  0  0
   45.1080   34.5690   44.9250 N   0  0  0  0  0  0  0  0  0  0  0  0
   45.5380   33.3640   44.4960 C   0  0  0  0  0  0  0  0  0  0  0  0
   46.0460   33.3040   43.2990 N   0  0  0  0  0  0  0  0  0  0  0  0
   45.4160   32.2650   45.3820 N   0  0  0  0  0  0  0  0  0  0  0  0
   46.7340   34.3360   41.2190 C   0  0  0  0  0  0  0  0  0  0  0  0
   46.4570   33.9160   40.1620 O   0  0  0  0  0  0  0  0  0  0  0  0
   47.9360   34.9210   40.9450 O   0  0  0  0  0  0  0  0  0  0  0  0
   49.0850   35.0190   41.5700 C   0  0  0  0  0  0  0  0  0  0  0  0
   49.4930   33.8040   42.2850 C   0  0  0  0  0  0  0  0  0  0  0  0
   50.0920   32.8060   41.3930 N   0  0  0  0  0  0  0  0  0  0  0  0
   51.3450   32.4230   41.5690 N   0  0  0  0  0  0  0  0  0  0  0  0
   51.7320   31.5250   40.7140 C   0  0  0  0  0  0  0  0  0  0  0  0
   50.6460   31.2700   39.8770 C   0  0  0  0  0  0  0  0  0  0  0  0
   49.6970   32.1060   40.3810 C   0  0  0  0  0  0  0  0  0  0  0  0
   44.7100   36.8640   44.7220 O   0  0  0  0  0  0  0  0  0  0  0  0
   45.0290   38.1280   44.2810 C   0  0  0  0  0  0  0  0  0  0  0  0
   45.1510   39.0490   45.3270 C   0  0  0  0  0  0  0  0  0  0  0  0
   45.4730   40.2870   44.7720 C   0  0  0  0  0  0  0  0  0  0  0  0
   45.5330   40.0800   43.4450 N   0  0  0  0  0  0  0  0  0  0  0  0
   45.2740   38.8230   43.1570 N   0  0  0  0  0  0  0  0  0  0  0  0
   45.8429   36.4826   42.1896 H   0  0  0  0  0  0  0  0  0  0  0  0
   45.7335   31.3299   45.0894 H   0  0  0  0  0  0  0  0  0  0  0  0
   45.0098   32.4012   46.3187 H   0  0  0  0  0  0  0  0  0  0  0  0
   49.8608   35.2581   40.8278 H   0  0  0  0  0  0  0  0  0  0  0  0
   48.9621   35.8040   42.3307 H   0  0  0  0  0  0  0  0  0  0  0  0
   50.2297   34.0775   43.0548 H   0  0  0  0  0  0  0  0  0  0  0  0
   48.5916   33.3580   42.7307 H   0  0  0  0  0  0  0  0  0  0  0  0
   52.7255   31.0558   40.6604 H   0  0  0  0  0  0  0  0  0  0  0  0
   50.5746   30.5734   39.0287 H   0  0  0  0  0  0  0  0  0  0  0  0
   48.6821   32.1793   39.9631 H   0  0  0  0  0  0  0  0  0  0  0  0
   45.0167   38.8345   46.3975 H   0  0  0  0  0  0  0  0  0  0  0  0
   45.6422   41.2331   45.3070 H   0  0  0  0  0  0  0  0  0  0  0  0
   45.7520   40.8067   42.7487 H   0  0  0  0  0  0  0  0  0  0  0  0
  1  2  2  0
  1  6  1  0
  2  3  1  0
  3 18  1  0
  3  4  2  0
  5  4  1  0
  5  7  1  0
  6  5  2  0
  8  1  1  0
  9  8  2  0
 10  8  1  0
 10 11  1  0
 11 12  1  0
 13 14  1  0
 13 12  1  0
 15 14  2  0
 16 17  2  0
 16 15  1  0
 17 13  1  0
 19 18  1  0
 19 20  1  0
 21 20  2  0
 22 21  1  0
 23 22  1  0
 23 19  2  0
  2 24  1  0
  7 25  1  0
  7 26  1  0
 11 27  1  0
 11 28  1  0
 12 29  1  0
 12 30  1  0
 15 31  1  0
 16 32  1  0
 17 33  1  0
 20 34  1  0
 21 35  1  0
 22 36  1  0
M  ISO  8  24  14  27   8  28   8  29   8  30   8  31  14  32  14  33  14
M  ISO  3  34  14  35  14  36   9
M  END
>  <minimizedAffinity>  (1) 
-4.08382559

>  <minimizedRMSD>  (1) 
0.890290141

$$$$
