
     RDKit          3D

 32 33  0  0  0  0  0  0  0  0999 V2000
   45.5450   34.6590   41.4610 C   0  0  0  0  0  0  0  0  0  0  0  0
   44.9160   34.4340   40.5000 O   0  0  0  0  0  0  0  0  0  0  0  0
   45.2840   35.0650   42.8410 C   0  0  0  0  0  0  0  0  0  0  0  0
   45.2490   36.4270   42.9240 C   0  0  0  0  0  0  0  0  0  0  0  0
   45.0360   36.8610   44.2460 C   0  0  0  0  0  0  0  0  0  0  0  0
   44.8950   35.9510   45.2460 N   0  0  0  0  0  0  0  0  0  0  0  0
   44.9500   34.6230   45.0350 C   0  0  0  0  0  0  0  0  0  0  0  0
   45.1460   34.2260   43.8090 N   0  0  0  0  0  0  0  0  0  0  0  0
   44.8070   33.7690   46.1530 N   0  0  0  0  0  0  0  0  0  0  0  0
   44.9570   38.1990   44.6130 O   0  0  0  0  0  0  0  0  0  0  0  0
   45.2940   39.2820   43.8140 C   0  0  0  0  0  0  0  0  0  0  0  0
   44.8420   39.1990   42.5120 F   0  0  0  0  0  0  0  0  0  0  0  0
   46.6920   39.2690   43.7080 F   0  0  0  0  0  0  0  0  0  0  0  0
   44.9990   40.4810   44.4240 F   0  0  0  0  0  0  0  0  0  0  0  0
   46.8090   34.4380   40.9870 O   0  0  0  0  0  0  0  0  0  0  0  0
   47.9970   34.9150   41.2650 C   0  0  0  0  0  0  0  0  0  0  0  0
   48.7880   34.0850   42.1880 C   0  0  0  0  0  0  0  0  0  0  0  0
   49.6150   33.0990   41.4890 N   0  0  0  0  0  0  0  0  0  0  0  0
   50.8460   32.8500   41.8990 N   0  0  0  0  0  0  0  0  0  0  0  0
   51.4550   31.9550   41.1860 C   0  0  0  0  0  0  0  0  0  0  0  0
   50.5690   31.5490   40.1940 C   0  0  0  0  0  0  0  0  0  0  0  0
   49.4640   32.3160   40.4720 C   0  0  0  0  0  0  0  0  0  0  0  0
   45.3720   37.1020   42.0642 H   0  0  0  0  0  0  0  0  0  0  0  0
   44.8439   32.7472   46.0286 H   0  0  0  0  0  0  0  0  0  0  0  0
   44.6659   34.1688   47.0917 H   0  0  0  0  0  0  0  0  0  0  0  0
   48.5575   35.0111   40.3234 H   0  0  0  0  0  0  0  0  0  0  0  0
   47.8364   35.8786   41.7707 H   0  0  0  0  0  0  0  0  0  0  0  0
   49.4448   34.7415   42.7776 H   0  0  0  0  0  0  0  0  0  0  0  0
   48.0835   33.5351   42.8293 H   0  0  0  0  0  0  0  0  0  0  0  0
   52.4801   31.5859   41.3372 H   0  0  0  0  0  0  0  0  0  0  0  0
   50.7150   30.8071   39.3951 H   0  0  0  0  0  0  0  0  0  0  0  0
   48.5360   32.2682   39.8833 H   0  0  0  0  0  0  0  0  0  0  0  0
  1  3  1  0
  2  1  2  0
  3  4  2  0
  3  8  1  0
  4  5  1  0
  5 10  1  0
  5  6  2  0
  7  6  1  0
  7  9  1  0
  8  7  2  0
 11 14  1  0
 11 10  1  0
 12 11  1  0
 13 11  1  0
 15 16  1  0
 15  1  1  0
 16 17  1  0
 18 19  1  0
 18 17  1  0
 20 19  2  0
 21 22  2  0
 21 20  1  0
 22 18  1  0
  4 23  1  0
  9 24  1  0
  9 25  1  0
 16 26  1  0
 16 27  1  0
 17 28  1  0
 17 29  1  0
 20 30  1  0
 21 31  1  0
 22 32  1  0
M  ISO  8  23  14  26   8  27   8  28   8  29   8  30  14  31  14  32  14
M  END
>  <minimizedAffinity>  (1) 
-4.04861593

>  <minimizedRMSD>  (1) 
1.43566215

$$$$
