
     RDKit          3D

 13 13  0  0  0  0  0  0  0  0999 V2000
   44.9870   34.9340   45.0850 C   0  0  0  0  0  0  0  0  0  0  0  0
   45.8520   34.6880   44.0090 C   0  0  0  0  0  0  0  0  0  0  0  0
   46.7760   33.6440   44.1090 C   0  0  0  0  0  0  0  0  0  0  0  0
   46.7830   32.9180   45.2560 N   0  0  0  0  0  0  0  0  0  0  0  0
   45.9440   33.1690   46.2800 C   0  0  0  0  0  0  0  0  0  0  0  0
   45.0480   34.1740   46.1940 N   0  0  0  0  0  0  0  0  0  0  0  0
   45.7140   35.5740   42.8270 C   0  0  0  0  0  0  0  0  0  0  0  0
   46.9460   35.7090   42.1940 F   0  0  0  0  0  0  0  0  0  0  0  0
   45.2560   36.8330   43.1280 F   0  0  0  0  0  0  0  0  0  0  0  0
   44.8810   35.0320   41.8630 F   0  0  0  0  0  0  0  0  0  0  0  0
   44.2548   35.7525   45.0223 H   0  0  0  0  0  0  0  0  0  0  0  0
   47.4724   33.4188   43.2878 H   0  0  0  0  0  0  0  0  0  0  0  0
   45.9898   32.5521   47.1896 H   0  0  0  0  0  0  0  0  0  0  0  0
  1  6  2  0
  2  3  2  0
  2  1  1  0
  3  4  1  0
  4  5  2  0
  6  5  1  0
  7  9  1  0
  7  2  1  0
  8  7  1  0
 10  7  1  0
  1 11  1  0
  3 12  1  0
  5 13  1  0
M  ISO  3  11  14  12  14  13  14
M  END
>  <minimizedAffinity>  (1) 
-3.55844212

>  <minimizedRMSD>  (1) 
1.38380957

$$$$
