
     RDKit          3D

 27 29  0  0  0  0  0  0  0  0999 V2000
   45.2430   34.6020   44.6340 C   0  0  0  0  0  0  0  0  0  0  0  0
   46.2370   34.4870   43.6710 C   0  0  0  0  0  0  0  0  0  0  0  0
   47.1910   33.4960   43.8340 C   0  0  0  0  0  0  0  0  0  0  0  0
   47.1010   32.7040   44.9130 N   0  0  0  0  0  0  0  0  0  0  0  0
   46.1570   32.8080   45.8370 C   0  0  0  0  0  0  0  0  0  0  0  0
   45.2340   33.7620   45.6840 N   0  0  0  0  0  0  0  0  0  0  0  0
   45.9010   32.0380   47.0760 C   0  0  0  0  0  0  0  0  0  0  0  0
   45.9820   32.5550   48.3090 N   0  0  0  0  0  0  0  0  0  0  0  0
   45.7520   31.8640   49.4220 C   0  0  0  0  0  0  0  0  0  0  0  0
   45.4140   30.5550   49.3820 N   0  0  0  0  0  0  0  0  0  0  0  0
   45.3030   29.9260   48.1710 C   0  0  0  0  0  0  0  0  0  0  0  0
   44.9580   28.5950   48.1480 C   0  0  0  0  0  0  0  0  0  0  0  0
   44.8420   27.9470   46.9360 C   0  0  0  0  0  0  0  0  0  0  0  0
   45.0820   28.6750   45.7980 C   0  0  0  0  0  0  0  0  0  0  0  0
   45.4240   30.0040   45.8980 C   0  0  0  0  0  0  0  0  0  0  0  0
   45.5550   30.7060   47.0650 C   0  0  0  0  0  0  0  0  0  0  0  0
   46.2050   35.4410   42.5350 C   0  0  0  0  0  0  0  0  0  0  0  0
   47.5120   35.7170   42.1150 F   0  0  0  0  0  0  0  0  0  0  0  0
   45.6110   36.6470   42.8640 F   0  0  0  0  0  0  0  0  0  0  0  0
   45.5640   34.9260   41.4350 F   0  0  0  0  0  0  0  0  0  0  0  0
   44.4673   35.3760   44.5384 H   0  0  0  0  0  0  0  0  0  0  0  0
   47.9991   33.3623   43.0998 H   0  0  0  0  0  0  0  0  0  0  0  0
   45.8385   32.3680   50.3959 H   0  0  0  0  0  0  0  0  0  0  0  0
   44.7763   28.0523   49.0874 H   0  0  0  0  0  0  0  0  0  0  0  0
   44.5666   26.8833   46.8835 H   0  0  0  0  0  0  0  0  0  0  0  0
   45.0013   28.1982   44.8100 H   0  0  0  0  0  0  0  0  0  0  0  0
   45.6077   30.5483   44.9599 H   0  0  0  0  0  0  0  0  0  0  0  0
  1  6  2  0
  2  3  2  0
  2  1  1  0
  3  4  1  0
  4  5  2  0
  5  7  1  0
  6  5  1  0
  7  8  2  0
  8  9  1  0
 10  9  2  0
 11 10  1  0
 12 11  2  0
 13 12  1  0
 14 15  1  0
 14 13  2  0
 15 16  2  0
 16  7  1  0
 16 11  1  0
 17 19  1  0
 17  2  1  0
 18 17  1  0
 20 17  1  0
  1 21  1  0
  3 22  1  0
  9 23  1  0
 12 24  1  0
 13 25  1  0
 14 26  1  0
 15 27  1  0
M  ISO  7  21  14  22  14  23  14  24  14  25  14  26  14  27  14
M  END
>  <minimizedAffinity>  (1) 
-5.74788189

>  <minimizedRMSD>  (1) 
0.889153719

$$$$
