
     RDKit          3D

 27 29  0  0  0  0  0  0  0  0999 V2000
   45.0260   34.9370   44.9430 C   0  0  0  0  0  0  0  0  0  0  0  0
   45.9530   34.6940   43.9200 C   0  0  0  0  0  0  0  0  0  0  0  0
   46.8230   33.6100   44.0410 C   0  0  0  0  0  0  0  0  0  0  0  0
   46.7280   32.8380   45.1520 N   0  0  0  0  0  0  0  0  0  0  0  0
   45.8290   33.0930   46.1200 C   0  0  0  0  0  0  0  0  0  0  0  0
   44.9820   34.1310   46.0210 N   0  0  0  0  0  0  0  0  0  0  0  0
   45.7630   32.2340   47.2960 C   0  0  0  0  0  0  0  0  0  0  0  0
   46.0110   32.5940   48.6080 C   0  0  0  0  0  0  0  0  0  0  0  0
   45.8480   31.5380   49.3910 N   0  0  0  0  0  0  0  0  0  0  0  0
   45.4950   30.4600   48.6660 C   0  0  0  0  0  0  0  0  0  0  0  0
   45.2190   29.1490   49.0290 C   0  0  0  0  0  0  0  0  0  0  0  0
   44.8770   28.2310   48.0680 C   0  0  0  0  0  0  0  0  0  0  0  0
   44.8250   28.6760   46.7520 C   0  0  0  0  0  0  0  0  0  0  0  0
   45.0970   29.9830   46.3550 C   0  0  0  0  0  0  0  0  0  0  0  0
   45.4400   30.8940   47.3410 C   0  0  0  0  0  0  0  0  0  0  0  0
   45.9470   35.6190   42.7640 C   0  0  0  0  0  0  0  0  0  0  0  0
   47.2120   35.7470   42.2250 F   0  0  0  0  0  0  0  0  0  0  0  0
   45.4820   36.8820   43.0670 F   0  0  0  0  0  0  0  0  0  0  0  0
   45.1620   35.1260   41.7210 F   0  0  0  0  0  0  0  0  0  0  0  0
   44.3331   35.7878   44.8651 H   0  0  0  0  0  0  0  0  0  0  0  0
   47.5638   33.3882   43.2587 H   0  0  0  0  0  0  0  0  0  0  0  0
   46.2986   33.5998   48.9481 H   0  0  0  0  0  0  0  0  0  0  0  0
   45.9739   31.5412   50.4133 H   0  0  0  0  0  0  0  0  0  0  0  0
   45.2743   28.8464   50.0851 H   0  0  0  0  0  0  0  0  0  0  0  0
   44.6532   27.1859   48.3283 H   0  0  0  0  0  0  0  0  0  0  0  0
   44.5512   27.9486   45.9736 H   0  0  0  0  0  0  0  0  0  0  0  0
   45.0416   30.2810   45.2976 H   0  0  0  0  0  0  0  0  0  0  0  0
  1  6  2  0
  2  3  2  0
  2  1  1  0
  3  4  1  0
  4  5  2  0
  5  7  1  0
  6  5  1  0
  7 15  1  0
  7  8  2  0
  8  9  1  0
 10 11  2  0
 10  9  1  0
 12 11  1  0
 13 12  2  0
 14 13  1  0
 14 15  2  0
 15 10  1  0
 16 18  1  0
 16  2  1  0
 17 16  1  0
 19 16  1  0
  1 20  1  0
  3 21  1  0
  8 22  1  0
  9 23  1  0
 11 24  1  0
 12 25  1  0
 13 26  1  0
 14 27  1  0
M  ISO  8  20  14  21  14  22  14  23   9  24  14  25  14  26  14  27  14
M  END
>  <minimizedAffinity>  (1) 
-5.43015766

>  <minimizedRMSD>  (1) 
0.920622647

$$$$
