
     RDKit          3D

 20 21  0  0  0  0  0  0  0  0999 V2000
   44.7010   35.2740   45.2660 C   0  0  0  0  0  0  0  0  0  0  0  0
   45.4880   34.9970   44.1320 C   0  0  0  0  0  0  0  0  0  0  0  0
   46.3240   33.8850   44.1450 C   0  0  0  0  0  0  0  0  0  0  0  0
   46.3360   33.1170   45.2640 N   0  0  0  0  0  0  0  0  0  0  0  0
   45.5840   33.3860   46.3410 C   0  0  0  0  0  0  0  0  0  0  0  0
   44.7740   34.4560   46.3390 N   0  0  0  0  0  0  0  0  0  0  0  0
   45.6260   32.5330   47.5260 C   0  0  0  0  0  0  0  0  0  0  0  0
   46.7260   32.0760   48.1780 C   0  0  0  0  0  0  0  0  0  0  0  0
   46.3460   31.3060   49.2390 N   0  0  0  0  0  0  0  0  0  0  0  0
   44.9820   31.2760   49.2570 C   0  0  0  0  0  0  0  0  0  0  0  0
   44.5890   32.0240   48.2120 N   0  0  0  0  0  0  0  0  0  0  0  0
   45.3560   35.9370   42.9910 C   0  0  0  0  0  0  0  0  0  0  0  0
   46.4930   35.8530   42.1930 F   0  0  0  0  0  0  0  0  0  0  0  0
   45.2200   37.2550   43.3860 F   0  0  0  0  0  0  0  0  0  0  0  0
   44.3020   35.6230   42.1680 F   0  0  0  0  0  0  0  0  0  0  0  0
   44.0331   36.1479   45.2784 H   0  0  0  0  0  0  0  0  0  0  0  0
   46.9538   33.6367   43.2780 H   0  0  0  0  0  0  0  0  0  0  0  0
   47.7662   32.2935   47.8940 H   0  0  0  0  0  0  0  0  0  0  0  0
   44.3382   30.7493   49.9768 H   0  0  0  0  0  0  0  0  0  0  0  0
   43.6028   32.1887   47.9646 H   0  0  0  0  0  0  0  0  0  0  0  0
  1  6  2  0
  2  3  2  0
  2  1  1  0
  3  4  1  0
  4  5  2  0
  5  7  1  0
  6  5  1  0
  7  8  2  0
  7 11  1  0
  8  9  1  0
  9 10  2  0
 11 10  1  0
 12 14  1  0
 12  2  1  0
 13 12  1  0
 15 12  1  0
  1 16  1  0
  3 17  1  0
  8 18  1  0
 10 19  1  0
 11 20  1  0
M  ISO  5  16  14  17  14  18  14  19  14  20   9
M  END
>  <minimizedAffinity>  (1) 
-5.40392351

>  <minimizedRMSD>  (1) 
0.760621309

$$$$
