
     RDKit          3D

 25 26  0  0  0  0  0  0  0  0999 V2000
   44.9980   34.9150   45.0790 C   0  0  0  0  0  0  0  0  0  0  0  0
   45.8410   34.7090   43.9860 C   0  0  0  0  0  0  0  0  0  0  0  0
   46.7750   33.6790   44.0510 C   0  0  0  0  0  0  0  0  0  0  0  0
   46.8210   32.9270   45.1690 N   0  0  0  0  0  0  0  0  0  0  0  0
   45.9950   33.1400   46.2230 C   0  0  0  0  0  0  0  0  0  0  0  0
   45.0900   34.1320   46.1700 N   0  0  0  0  0  0  0  0  0  0  0  0
   46.0830   32.3260   47.3690 N   0  0  0  0  0  0  0  0  0  0  0  0
   47.3360   31.7140   47.7900 C   0  0  0  0  0  0  0  0  0  0  0  0
   47.0520   31.1730   49.1750 C   0  0  0  0  0  0  0  0  0  0  0  0
   45.5600   30.9110   49.1650 C   0  0  0  0  0  0  0  0  0  0  0  0
   45.0130   31.9800   48.2710 C   0  0  0  0  0  0  0  0  0  0  0  0
   45.6760   35.6140   42.8260 C   0  0  0  0  0  0  0  0  0  0  0  0
   46.8870   35.7690   42.1560 F   0  0  0  0  0  0  0  0  0  0  0  0
   45.2420   36.8760   43.1650 F   0  0  0  0  0  0  0  0  0  0  0  0
   44.8160   35.1000   41.8820 F   0  0  0  0  0  0  0  0  0  0  0  0
   44.2527   35.7234   45.0487 H   0  0  0  0  0  0  0  0  0  0  0  0
   47.4583   33.4835   43.2114 H   0  0  0  0  0  0  0  0  0  0  0  0
   47.6195   30.9004   47.1062 H   0  0  0  0  0  0  0  0  0  0  0  0
   48.1713   32.4297   47.7855 H   0  0  0  0  0  0  0  0  0  0  0  0
   47.6115   30.2430   49.3542 H   0  0  0  0  0  0  0  0  0  0  0  0
   47.3554   31.8676   49.9722 H   0  0  0  0  0  0  0  0  0  0  0  0
   45.3407   29.9120   48.7601 H   0  0  0  0  0  0  0  0  0  0  0  0
   45.1185   30.9332   50.1723 H   0  0  0  0  0  0  0  0  0  0  0  0
   44.7127   32.8572   48.8629 H   0  0  0  0  0  0  0  0  0  0  0  0
   44.1216   31.6346   47.7268 H   0  0  0  0  0  0  0  0  0  0  0  0
  1  6  2  0
  2  3  2  0
  2  1  1  0
  3  4  1  0
  4  5  2  0
  5  7  1  0
  6  5  1  0
  7  8  1  0
  7 11  1  0
  8  9  1  0
 10  9  1  0
 11 10  1  0
 12 14  1  0
 12  2  1  0
 13 12  1  0
 15 12  1  0
  1 16  1  0
  3 17  1  0
  8 18  1  0
  8 19  1  0
  9 20  1  0
  9 21  1  0
 10 22  1  0
 10 23  1  0
 11 24  1  0
 11 25  1  0
M  ISO  8  16  14  17  14  18  13  19  13  20  13  21  13  22  13  23  13
M  ISO  2  24  13  25  13
M  END
>  <minimizedAffinity>  (1) 
-5.33231831

>  <minimizedRMSD>  (1) 
0.113039225

$$$$
