
     RDKit          3D

 20 21  0  0  0  0  0  0  0  0999 V2000
   45.0850   34.7820   45.0510 C   0  0  0  0  0  0  0  0  0  0  0  0
   45.9140   34.6180   43.9300 C   0  0  0  0  0  0  0  0  0  0  0  0
   46.9050   33.6460   43.9630 C   0  0  0  0  0  0  0  0  0  0  0  0
   47.0350   32.8930   45.0730 N   0  0  0  0  0  0  0  0  0  0  0  0
   46.2290   33.0600   46.1510 C   0  0  0  0  0  0  0  0  0  0  0  0
   45.2640   34.0000   46.1290 N   0  0  0  0  0  0  0  0  0  0  0  0
   46.3160   32.2990   47.3490 N   0  0  0  0  0  0  0  0  0  0  0  0
   47.2830   31.5930   47.9090 N   0  0  0  0  0  0  0  0  0  0  0  0
   46.8080   31.0650   49.0740 C   0  0  0  0  0  0  0  0  0  0  0  0
   45.4780   31.4570   49.2590 C   0  0  0  0  0  0  0  0  0  0  0  0
   45.2050   32.2390   48.1410 C   0  0  0  0  0  0  0  0  0  0  0  0
   45.6650   35.5120   42.7730 C   0  0  0  0  0  0  0  0  0  0  0  0
   46.7970   35.6020   41.9780 F   0  0  0  0  0  0  0  0  0  0  0  0
   45.2870   36.7920   43.1360 F   0  0  0  0  0  0  0  0  0  0  0  0
   44.6690   35.0200   41.9400 F   0  0  0  0  0  0  0  0  0  0  0  0
   44.2937   35.5461   45.0469 H   0  0  0  0  0  0  0  0  0  0  0  0
   47.5705   33.4937   43.1005 H   0  0  0  0  0  0  0  0  0  0  0  0
   47.3830   30.4284   49.7625 H   0  0  0  0  0  0  0  0  0  0  0  0
   44.8057   31.2059   50.0927 H   0  0  0  0  0  0  0  0  0  0  0  0
   44.2448   32.7317   47.9284 H   0  0  0  0  0  0  0  0  0  0  0  0
  1  6  2  0
  2  3  2  0
  2  1  1  0
  3  4  1  0
  4  5  2  0
  5  7  1  0
  6  5  1  0
  7  8  1  0
  7 11  1  0
  8  9  2  0
  9 10  1  0
 11 10  2  0
 12 14  1  0
 12  2  1  0
 13 12  1  0
 15 12  1  0
  1 16  1  0
  3 17  1  0
  9 18  1  0
 10 19  1  0
 11 20  1  0
M  ISO  5  16  14  17  14  18  14  19  14  20  14
M  END
>  <minimizedAffinity>  (1) 
-5.32906723

>  <minimizedRMSD>  (1) 
0.367655277

$$$$
