
     RDKit          3D

 20 21  0  0  0  0  0  0  0  0999 V2000
   44.9120   34.9660   45.1220 C   0  0  0  0  0  0  0  0  0  0  0  0
   45.8100   34.6270   44.0940 C   0  0  0  0  0  0  0  0  0  0  0  0
   46.7270   33.6000   44.3050 C   0  0  0  0  0  0  0  0  0  0  0  0
   46.6910   32.9780   45.5190 N   0  0  0  0  0  0  0  0  0  0  0  0
   45.8250   33.3170   46.4830 C   0  0  0  0  0  0  0  0  0  0  0  0
   44.9380   34.3040   46.2930 N   0  0  0  0  0  0  0  0  0  0  0  0
   46.0260   32.4780   47.6590 C   0  0  0  0  0  0  0  0  0  0  0  0
   44.9180   31.8550   48.2180 C   0  0  0  0  0  0  0  0  0  0  0  0
   45.3760   31.1250   49.3130 C   0  0  0  0  0  0  0  0  0  0  0  0
   46.7210   31.3250   49.3840 N   0  0  0  0  0  0  0  0  0  0  0  0
   47.0850   32.1380   48.3860 N   0  0  0  0  0  0  0  0  0  0  0  0
   45.7090   35.4130   42.8340 C   0  0  0  0  0  0  0  0  0  0  0  0
   46.9880   35.6050   42.3010 F   0  0  0  0  0  0  0  0  0  0  0  0
   45.1410   36.6620   43.0010 F   0  0  0  0  0  0  0  0  0  0  0  0
   45.0020   34.7390   41.8650 F   0  0  0  0  0  0  0  0  0  0  0  0
   44.1846   35.7766   44.9678 H   0  0  0  0  0  0  0  0  0  0  0  0
   47.4474   33.3038   43.5283 H   0  0  0  0  0  0  0  0  0  0  0  0
   43.8787   31.9244   47.8644 H   0  0  0  0  0  0  0  0  0  0  0  0
   44.7681   30.5064   49.9896 H   0  0  0  0  0  0  0  0  0  0  0  0
   47.3527   30.9182   50.0885 H   0  0  0  0  0  0  0  0  0  0  0  0
  1  6  2  0
  2  3  2  0
  2  1  1  0
  3  4  1  0
  4  5  2  0
  5  7  1  0
  6  5  1  0
  7  8  1  0
  7 11  2  0
  8  9  2  0
  9 10  1  0
 11 10  1  0
 12 14  1  0
 12  2  1  0
 13 12  1  0
 15 12  1  0
  1 16  1  0
  3 17  1  0
  8 18  1  0
  9 19  1  0
 10 20  1  0
M  ISO  5  16  14  17  14  18  14  19  14  20   9
M  END
>  <minimizedAffinity>  (1) 
-5.32872295

>  <minimizedRMSD>  (1) 
0.543706417

$$$$
