
     RDKit          3D

 29 30  0  0  0  0  0  0  0  0999 V2000
   46.9490   33.5210   43.8200 C   0  0  0  0  0  0  0  0  0  0  0  0
   46.0190   34.5610   43.8520 C   0  0  0  0  0  0  0  0  0  0  0  0
   45.1760   34.7010   44.9670 C   0  0  0  0  0  0  0  0  0  0  0  0
   45.3140   33.7970   45.9720 N   0  0  0  0  0  0  0  0  0  0  0  0
   46.2240   32.7950   45.9170 C   0  0  0  0  0  0  0  0  0  0  0  0
   47.0390   32.6570   44.8470 N   0  0  0  0  0  0  0  0  0  0  0  0
   46.3480   31.8110   47.0490 C   0  0  0  0  0  0  0  0  0  0  0  0
   45.7540   32.4340   48.2660 C   0  0  0  0  0  0  0  0  0  0  0  0
   44.8960   31.5400   49.1020 C   0  0  0  0  0  0  0  0  0  0  0  0
   45.2380   30.0810   48.9980 C   0  0  0  0  0  0  0  0  0  0  0  0
   45.3390   29.5570   47.6080 C   0  0  0  0  0  0  0  0  0  0  0  0
   45.7210   30.5500   46.5810 C   0  0  0  0  0  0  0  0  0  0  0  0
   45.9870   35.4690   42.6810 C   0  0  0  0  0  0  0  0  0  0  0  0
   45.4790   36.7110   43.0480 F   0  0  0  0  0  0  0  0  0  0  0  0
   45.2320   34.9870   41.6320 F   0  0  0  0  0  0  0  0  0  0  0  0
   47.2660   35.7370   42.1950 F   0  0  0  0  0  0  0  0  0  0  0  0
   47.6123   33.4071   42.9499 H   0  0  0  0  0  0  0  0  0  0  0  0
   44.4335   35.5105   45.0242 H   0  0  0  0  0  0  0  0  0  0  0  0
   47.3793   31.5575   47.3357 H   0  0  0  0  0  0  0  0  0  0  0  0
   46.5793   32.7960   48.8968 H   0  0  0  0  0  0  0  0  0  0  0  0
   45.0884   33.2295   47.8997 H   0  0  0  0  0  0  0  0  0  0  0  0
   45.0028   31.8448   50.1535 H   0  0  0  0  0  0  0  0  0  0  0  0
   43.8676   31.6500   48.7274 H   0  0  0  0  0  0  0  0  0  0  0  0
   46.2065   29.9211   49.4944 H   0  0  0  0  0  0  0  0  0  0  0  0
   44.4091   29.5358   49.4731 H   0  0  0  0  0  0  0  0  0  0  0  0
   46.0923   28.7555   47.6016 H   0  0  0  0  0  0  0  0  0  0  0  0
   44.3283   29.2166   47.3387 H   0  0  0  0  0  0  0  0  0  0  0  0
   44.8091   30.8204   46.0284 H   0  0  0  0  0  0  0  0  0  0  0  0
   46.5008   30.0526   45.9857 H   0  0  0  0  0  0  0  0  0  0  0  0
  1  2  2  0
  1  6  1  0
  2  3  1  0
  3  4  2  0
  5  4  1  0
  5  7  1  0
  6  5  2  0
  7  8  1  0
  8  9  1  0
 10  9  1  0
 11 10  1  0
 12  7  1  0
 12 11  1  0
 13 14  1  0
 13  2  1  0
 15 13  1  0
 16 13  1  0
  1 17  1  0
  3 18  1  0
  7 19  1  0
  8 20  1  0
  8 21  1  0
  9 22  1  0
  9 23  1  0
 10 24  1  0
 10 25  1  0
 11 26  1  0
 11 27  1  0
 12 28  1  0
 12 29  1  0
M  ISO  8  17  14  18  14  19  13  20  13  21  13  22  13  23  13  24  13
M  ISO  5  25  13  26  13  27  13  28  13  29  13
M  END
>  <minimizedAffinity>  (1) 
-5.32243395

>  <minimizedRMSD>  (1) 
2.18685532

$$$$
