
     RDKit          3D

 19 20  0  0  0  0  0  0  0  0999 V2000
   44.9340   34.9620   45.1120 C   0  0  0  0  0  0  0  0  0  0  0  0
   45.8310   34.6670   44.0690 C   0  0  0  0  0  0  0  0  0  0  0  0
   46.7380   33.6070   44.2190 C   0  0  0  0  0  0  0  0  0  0  0  0
   46.6950   32.9170   45.3840 N   0  0  0  0  0  0  0  0  0  0  0  0
   45.8370   33.2060   46.3700 C   0  0  0  0  0  0  0  0  0  0  0  0
   44.9660   34.2150   46.2420 N   0  0  0  0  0  0  0  0  0  0  0  0
   45.9180   32.3930   47.5210 N   0  0  0  0  0  0  0  0  0  0  0  0
   47.1080   31.9210   47.9750 C   0  0  0  0  0  0  0  0  0  0  0  0
   46.9010   31.1770   49.0800 N   0  0  0  0  0  0  0  0  0  0  0  0
   45.5630   31.2180   49.2720 C   0  0  0  0  0  0  0  0  0  0  0  0
   44.9600   31.9700   48.3090 N   0  0  0  0  0  0  0  0  0  0  0  0
   45.7430   35.5280   42.8550 C   0  0  0  0  0  0  0  0  0  0  0  0
   47.0070   35.6550   42.2790 F   0  0  0  0  0  0  0  0  0  0  0  0
   45.2790   36.7960   43.1090 F   0  0  0  0  0  0  0  0  0  0  0  0
   44.9550   34.9490   41.8810 F   0  0  0  0  0  0  0  0  0  0  0  0
   44.2156   35.7889   45.0113 H   0  0  0  0  0  0  0  0  0  0  0  0
   47.4533   33.3474   43.4247 H   0  0  0  0  0  0  0  0  0  0  0  0
   48.0873   32.1154   47.5133 H   0  0  0  0  0  0  0  0  0  0  0  0
   45.0337   30.7131   50.0935 H   0  0  0  0  0  0  0  0  0  0  0  0
  1  6  2  0
  2  3  2  0
  2  1  1  0
  3  4  1  0
  4  5  2  0
  5  7  1  0
  6  5  1  0
  7  8  1  0
  7 11  1  0
  8  9  2  0
  9 10  1  0
 11 10  2  0
 12 14  1  0
 12  2  1  0
 13 12  1  0
 15 12  1  0
  1 16  1  0
  3 17  1  0
  8 18  1  0
 10 19  1  0
M  ISO  4  16  14  17  14  18  14  19  14
M  END
>  <minimizedAffinity>  (1) 
-5.28587103

>  <minimizedRMSD>  (1) 
0.17188713

$$$$
