
     RDKit          3D

 22 22  0  0  0  0  0  0  0  0999 V2000
   45.1390   34.7420   45.0330 C   0  0  0  0  0  0  0  0  0  0  0  0
   46.0000   34.5890   43.9320 C   0  0  0  0  0  0  0  0  0  0  0  0
   46.9660   33.5670   43.9650 C   0  0  0  0  0  0  0  0  0  0  0  0
   47.0010   32.7930   45.0680 N   0  0  0  0  0  0  0  0  0  0  0  0
   46.1750   32.9500   46.1090 C   0  0  0  0  0  0  0  0  0  0  0  0
   45.2360   33.9320   46.0930 N   0  0  0  0  0  0  0  0  0  0  0  0
   45.8270   35.5290   42.7990 C   0  0  0  0  0  0  0  0  0  0  0  0
   47.0340   35.7340   42.1610 F   0  0  0  0  0  0  0  0  0  0  0  0
   45.3120   36.7500   43.1750 F   0  0  0  0  0  0  0  0  0  0  0  0
   44.9980   35.0030   41.8120 F   0  0  0  0  0  0  0  0  0  0  0  0
   46.2990   32.0360   47.2810 C   0  0  0  0  0  0  0  0  0  0  0  0
   45.0880   32.0780   48.1820 C   0  0  0  0  0  0  0  0  0  0  0  0
   47.5650   32.3890   48.0150 C   0  0  0  0  0  0  0  0  0  0  0  0
   44.3778   35.5360   45.0225 H   0  0  0  0  0  0  0  0  0  0  0  0
   47.6617   33.4066   43.1282 H   0  0  0  0  0  0  0  0  0  0  0  0
   46.3514   30.9961   46.9263 H   0  0  0  0  0  0  0  0  0  0  0  0
   45.4124   32.0667   49.2330 H   0  0  0  0  0  0  0  0  0  0  0  0
   44.5158   32.9965   47.9847 H   0  0  0  0  0  0  0  0  0  0  0  0
   44.4536   31.2013   47.9847 H   0  0  0  0  0  0  0  0  0  0  0  0
   47.3863   32.3392   49.0992 H   0  0  0  0  0  0  0  0  0  0  0  0
   48.3581   31.6777   47.7411 H   0  0  0  0  0  0  0  0  0  0  0  0
   47.8757   33.4080   47.7411 H   0  0  0  0  0  0  0  0  0  0  0  0
  1  6  2  0
  2  3  2  0
  2  1  1  0
  3  4  1  0
  4  5  2  0
  5 11  1  0
  6  5  1  0
  7  9  1  0
  7  2  1  0
  8  7  1  0
 10  7  1  0
 11 13  1  0
 11 12  1  0
  1 14  1  0
  3 15  1  0
 11 16  1  0
 12 17  1  0
 12 18  1  0
 12 19  1  0
 13 20  1  0
 13 21  1  0
 13 22  1  0
M  ISO  8  14  14  15  14  16   8  17   8  18   8  19   8  20   8  21   8
M  ISO  1  22   8
M  END
>  <minimizedAffinity>  (1) 
-4.46308184

>  <minimizedRMSD>  (1) 
0.311013132

$$$$
