
     RDKit          3D

 20 21  0  0  0  0  0  0  0  0999 V2000
   45.0480   34.8030   45.1570 C   0  0  0  0  0  0  0  0  0  0  0  0
   45.9080   34.5860   44.0620 C   0  0  0  0  0  0  0  0  0  0  0  0
   46.8530   33.5600   44.1290 C   0  0  0  0  0  0  0  0  0  0  0  0
   46.8870   32.8250   45.2620 N   0  0  0  0  0  0  0  0  0  0  0  0
   46.0590   33.0430   46.3060 C   0  0  0  0  0  0  0  0  0  0  0  0
   45.1440   34.0280   46.2500 N   0  0  0  0  0  0  0  0  0  0  0  0
   45.7320   35.4890   42.8930 C   0  0  0  0  0  0  0  0  0  0  0  0
   46.9360   35.6700   42.2480 F   0  0  0  0  0  0  0  0  0  0  0  0
   45.2110   36.7170   43.2100 F   0  0  0  0  0  0  0  0  0  0  0  0
   44.9070   34.9120   41.9290 F   0  0  0  0  0  0  0  0  0  0  0  0
   46.1680   32.1830   47.5160 C   0  0  0  0  0  0  0  0  0  0  0  0
   45.4720   30.8300   47.3500 C   0  0  0  0  0  0  0  0  0  0  0  0
   44.9980   31.8460   48.3400 C   0  0  0  0  0  0  0  0  0  0  0  0
   44.2982   35.6069   45.1168 H   0  0  0  0  0  0  0  0  0  0  0  0
   47.5407   33.3588   43.2944 H   0  0  0  0  0  0  0  0  0  0  0  0
   47.1567   32.5829   47.7855 H   0  0  0  0  0  0  0  0  0  0  0  0
   44.8810   30.6168   46.4471 H   0  0  0  0  0  0  0  0  0  0  0  0
   45.7798   29.7747   47.3889 H   0  0  0  0  0  0  0  0  0  0  0  0
   45.1265   31.6581   49.4162 H   0  0  0  0  0  0  0  0  0  0  0  0
   44.0311   32.3342   48.5319 H   0  0  0  0  0  0  0  0  0  0  0  0
  1  6  2  0
  2  3  2  0
  2  1  1  0
  3  4  1  0
  4  5  2  0
  5 11  1  0
  6  5  1  0
  7  9  1  0
  7  2  1  0
  8  7  1  0
 10  7  1  0
 11 13  1  0
 12 11  1  0
 12 13  1  0
  1 14  1  0
  3 15  1  0
 11 16  1  0
 12 17  1  0
 12 18  1  0
 13 19  1  0
 13 20  1  0
M  ISO  7  14  14  15  14  16  13  17  13  18  13  19  13  20  13
M  END
>  <minimizedAffinity>  (1) 
-4.38935328

>  <minimizedRMSD>  (1) 
0.156121522

$$$$
