
     RDKit          3D

 19 19  0  0  0  0  0  0  0  0999 V2000
   44.9630   34.9570   45.0900 C   0  0  0  0  0  0  0  0  0  0  0  0
   45.8420   34.6770   44.0240 C   0  0  0  0  0  0  0  0  0  0  0  0
   46.7440   33.6310   44.1530 C   0  0  0  0  0  0  0  0  0  0  0  0
   46.7310   32.9240   45.3150 N   0  0  0  0  0  0  0  0  0  0  0  0
   45.8920   33.1990   46.3220 C   0  0  0  0  0  0  0  0  0  0  0  0
   45.0150   34.2110   46.2020 N   0  0  0  0  0  0  0  0  0  0  0  0
   45.7270   35.5480   42.8210 C   0  0  0  0  0  0  0  0  0  0  0  0
   46.9890   35.6910   42.2360 F   0  0  0  0  0  0  0  0  0  0  0  0
   45.2610   36.8160   43.1100 F   0  0  0  0  0  0  0  0  0  0  0  0
   44.9310   34.9950   41.8500 F   0  0  0  0  0  0  0  0  0  0  0  0
   45.8990   32.4090   47.5820 C   0  0  0  0  0  0  0  0  0  0  0  0
   47.3020   32.2280   48.0810 C   0  0  0  0  0  0  0  0  0  0  0  0
   44.2397   35.7818   45.0096 H   0  0  0  0  0  0  0  0  0  0  0  0
   47.4457   33.3818   43.3434 H   0  0  0  0  0  0  0  0  0  0  0  0
   45.3091   32.9386   48.3446 H   0  0  0  0  0  0  0  0  0  0  0  0
   45.4615   31.4194   47.3838 H   0  0  0  0  0  0  0  0  0  0  0  0
   47.3028   32.2279   49.1810 H   0  0  0  0  0  0  0  0  0  0  0  0
   47.7011   31.2709   47.7140 H   0  0  0  0  0  0  0  0  0  0  0  0
   47.9309   33.0524   47.7140 H   0  0  0  0  0  0  0  0  0  0  0  0
  1  6  2  0
  2  3  2  0
  2  1  1  0
  3  4  1  0
  4  5  2  0
  5 11  1  0
  6  5  1  0
  7  9  1  0
  7  2  1  0
  8  7  1  0
 10  7  1  0
 11 12  1  0
  1 13  1  0
  3 14  1  0
 11 15  1  0
 11 16  1  0
 12 17  1  0
 12 18  1  0
 12 19  1  0
M  ISO  7  13  14  14  14  15   8  16   8  17   8  18   8  19   8
M  END
>  <minimizedAffinity>  (1) 
-4.13233042

>  <minimizedRMSD>  (1) 
0.0945434198

$$$$
