
     RDKit          3D

 28 30  0  0  0  0  0  0  0  0999 V2000
   44.5910   35.6470   44.8490 C   0  0  0  0  0  0  0  0  0  0  0  0
   45.3490   34.9510   43.9180 C   0  0  0  0  0  0  0  0  0  0  0  0
   45.9460   33.7520   44.3100 C   0  0  0  0  0  0  0  0  0  0  0  0
   45.7650   33.3160   45.5760 N   0  0  0  0  0  0  0  0  0  0  0  0
   45.0210   34.0150   46.4600 C   0  0  0  0  0  0  0  0  0  0  0  0
   44.4410   35.1640   46.1040 N   0  0  0  0  0  0  0  0  0  0  0  0
   44.9450   33.4020   47.7340 N   0  0  0  0  0  0  0  0  0  0  0  0
   46.7240   33.0380   43.3550 N   0  0  0  0  0  0  0  0  0  0  0  0
   46.1220   31.9660   42.7710 C   0  0  0  0  0  0  0  0  0  0  0  0
   47.0020   31.4060   41.8930 N   0  0  0  0  0  0  0  0  0  0  0  0
   48.1490   32.1140   41.9160 C   0  0  0  0  0  0  0  0  0  0  0  0
   49.3870   32.1080   41.3170 C   0  0  0  0  0  0  0  0  0  0  0  0
   50.3110   33.0350   41.6260 N   0  0  0  0  0  0  0  0  0  0  0  0
   50.0720   34.0170   42.5400 C   0  0  0  0  0  0  0  0  0  0  0  0
   48.8550   34.0550   43.1570 N   0  0  0  0  0  0  0  0  0  0  0  0
   47.9550   33.1310   42.8380 C   0  0  0  0  0  0  0  0  0  0  0  0
   49.6290   31.0750   40.3590 N   0  0  0  0  0  0  0  0  0  0  0  0
   45.4830   35.5240   42.5510 C   0  0  0  0  0  0  0  0  0  0  0  0
   46.7640   35.9440   42.3230 F   0  0  0  0  0  0  0  0  0  0  0  0
   44.6310   36.5800   42.3390 F   0  0  0  0  0  0  0  0  0  0  0  0
   45.2010   34.5770   41.5760 F   0  0  0  0  0  0  0  0  0  0  0  0
   44.1103   36.5950   44.5656 H   0  0  0  0  0  0  0  0  0  0  0  0
   44.4031   33.8473   48.4883 H   0  0  0  0  0  0  0  0  0  0  0  0
   45.4316   32.5107   47.9065 H   0  0  0  0  0  0  0  0  0  0  0  0
   45.1003   31.6120   42.9729 H   0  0  0  0  0  0  0  0  0  0  0  0
   50.8442   34.7640   42.7758 H   0  0  0  0  0  0  0  0  0  0  0  0
   48.8945   30.3837   40.1505 H   0  0  0  0  0  0  0  0  0  0  0  0
   50.5379   31.0220   39.8773 H   0  0  0  0  0  0  0  0  0  0  0  0
  1  6  2  0
  2  3  2  0
  2  1  1  0
  3  4  1  0
  4  5  2  0
  5  7  1  0
  6  5  1  0
  8  3  1  0
  9  8  1  0
 10 11  1  0
 10  9  2  0
 11 16  2  0
 12 13  2  0
 12 11  1  0
 13 14  1  0
 14 15  2  0
 16 15  1  0
 16  8  1  0
 17 12  1  0
 18  2  1  0
 19 18  1  0
 20 18  1  0
 21 18  1  0
  1 22  1  0
  7 23  1  0
  7 24  1  0
  9 25  1  0
 14 26  1  0
 17 27  1  0
 17 28  1  0
M  ISO  3  22  14  25  14  26  14
M  END
>  <minimizedAffinity>  (1) 
-5.72852468

>  <minimizedRMSD>  (1) 
1.46354532

$$$$
