
     RDKit          3D

 26 28  0  0  0  0  0  0  0  0999 V2000
   44.5770   35.6360   44.8220 C   0  0  0  0  0  0  0  0  0  0  0  0
   45.3080   34.9070   43.8980 C   0  0  0  0  0  0  0  0  0  0  0  0
   45.9370   33.7250   44.3310 C   0  0  0  0  0  0  0  0  0  0  0  0
   45.7960   33.3570   45.6280 N   0  0  0  0  0  0  0  0  0  0  0  0
   45.0810   34.0850   46.4990 C   0  0  0  0  0  0  0  0  0  0  0  0
   44.4740   35.2150   46.1020 N   0  0  0  0  0  0  0  0  0  0  0  0
   45.0600   33.5280   47.8010 N   0  0  0  0  0  0  0  0  0  0  0  0
   46.6870   32.9800   43.3810 N   0  0  0  0  0  0  0  0  0  0  0  0
   46.1990   31.8840   42.7770 C   0  0  0  0  0  0  0  0  0  0  0  0
   47.0960   31.3420   41.9110 N   0  0  0  0  0  0  0  0  0  0  0  0
   48.1810   32.1530   41.9990 C   0  0  0  0  0  0  0  0  0  0  0  0
   49.4270   32.2080   41.4210 C   0  0  0  0  0  0  0  0  0  0  0  0
   50.3150   33.1690   41.7210 N   0  0  0  0  0  0  0  0  0  0  0  0
   50.0160   34.1250   42.6090 C   0  0  0  0  0  0  0  0  0  0  0  0
   48.8110   34.1250   43.2100 N   0  0  0  0  0  0  0  0  0  0  0  0
   47.9240   33.1680   42.9110 C   0  0  0  0  0  0  0  0  0  0  0  0
   45.3880   35.4140   42.5070 C   0  0  0  0  0  0  0  0  0  0  0  0
   46.6620   35.8760   42.2370 F   0  0  0  0  0  0  0  0  0  0  0  0
   44.4900   36.4180   42.2600 F   0  0  0  0  0  0  0  0  0  0  0  0
   45.1670   34.4030   41.5880 F   0  0  0  0  0  0  0  0  0  0  0  0
   44.0765   36.5649   44.5112 H   0  0  0  0  0  0  0  0  0  0  0  0
   44.5414   34.0006   48.5550 H   0  0  0  0  0  0  0  0  0  0  0  0
   45.5633   32.6503   47.9938 H   0  0  0  0  0  0  0  0  0  0  0  0
   45.1948   31.4744   42.9609 H   0  0  0  0  0  0  0  0  0  0  0  0
   49.7062   31.4377   40.6871 H   0  0  0  0  0  0  0  0  0  0  0  0
   50.7517   34.9074   42.8468 H   0  0  0  0  0  0  0  0  0  0  0  0
  1  6  2  0
  2  3  2  0
  2  1  1  0
  3  4  1  0
  4  5  2  0
  5  7  1  0
  6  5  1  0
  8  3  1  0
  9  8  1  0
 10 11  1  0
 10  9  2  0
 11 16  2  0
 12 13  2  0
 12 11  1  0
 13 14  1  0
 14 15  2  0
 16 15  1  0
 16  8  1  0
 17  2  1  0
 18 17  1  0
 19 17  1  0
 20 17  1  0
  1 21  1  0
  7 22  1  0
  7 23  1  0
  9 24  1  0
 12 25  1  0
 14 26  1  0
M  ISO  4  21  14  24  14  25  14  26  14
M  END
>  <minimizedAffinity>  (1) 
-5.54849386

>  <minimizedRMSD>  (1) 
0.930957913

$$$$
