
     RDKit          3D

 25 26  0  0  0  0  0  0  0  0999 V2000
   44.5770   35.6650   45.0060 C   0  0  0  0  0  0  0  0  0  0  0  0
   45.4160   35.0610   44.0660 C   0  0  0  0  0  0  0  0  0  0  0  0
   46.0700   33.8740   44.4030 C   0  0  0  0  0  0  0  0  0  0  0  0
   45.8600   33.3570   45.6370 N   0  0  0  0  0  0  0  0  0  0  0  0
   45.0450   33.9630   46.5240 C   0  0  0  0  0  0  0  0  0  0  0  0
   44.4130   35.0950   46.2210 N   0  0  0  0  0  0  0  0  0  0  0  0
   44.9660   33.2510   47.7590 N   0  0  0  0  0  0  0  0  0  0  0  0
   46.9240   33.2660   43.4370 N   0  0  0  0  0  0  0  0  0  0  0  0
   48.2280   33.5190   43.2030 C   0  0  0  0  0  0  0  0  0  0  0  0
   48.8970   32.8250   42.2180 C   0  0  0  0  0  0  0  0  0  0  0  0
   48.2080   31.8680   41.4780 C   0  0  0  0  0  0  0  0  0  0  0  0
   48.8780   31.2600   40.5810 O   0  0  0  0  0  0  0  0  0  0  0  0
   46.9140   31.6450   41.7400 N   0  0  0  0  0  0  0  0  0  0  0  0
   46.2700   32.3280   42.7020 C   0  0  0  0  0  0  0  0  0  0  0  0
   45.0640   31.9910   42.8120 O   0  0  0  0  0  0  0  0  0  0  0  0
   45.5620   35.7270   42.7490 C   0  0  0  0  0  0  0  0  0  0  0  0
   46.8800   35.8630   42.4160 F   0  0  0  0  0  0  0  0  0  0  0  0
   44.9710   36.9640   42.7070 F   0  0  0  0  0  0  0  0  0  0  0  0
   44.9920   34.9670   41.7260 F   0  0  0  0  0  0  0  0  0  0  0  0
   44.0525   36.5997   44.7587 H   0  0  0  0  0  0  0  0  0  0  0  0
   44.3752   33.6091   48.5230 H   0  0  0  0  0  0  0  0  0  0  0  0
   45.4998   32.3793   47.8860 H   0  0  0  0  0  0  0  0  0  0  0  0
   48.7569   34.2784   43.7976 H   0  0  0  0  0  0  0  0  0  0  0  0
   49.9604   33.0244   42.0193 H   0  0  0  0  0  0  0  0  0  0  0  0
   46.4026   30.9369   41.1942 H   0  0  0  0  0  0  0  0  0  0  0  0
  1  6  2  0
  2  3  2  0
  2  1  1  0
  3  4  1  0
  4  5  2  0
  5  7  1  0
  6  5  1  0
  8  3  1  0
  9  8  1  0
 10  9  2  0
 11 13  1  0
 11 10  1  0
 12 11  2  0
 13 14  1  0
 14 15  2  0
 14  8  1  0
 16  2  1  0
 17 16  1  0
 18 16  1  0
 19 16  1  0
  1 20  1  0
  7 21  1  0
  7 22  1  0
  9 23  1  0
 10 24  1  0
 13 25  1  0
M  ISO  4  20  14  23  14  24  14  25   9
M  END
>  <minimizedAffinity>  (1) 
-5.26248598

>  <minimizedRMSD>  (1) 
0.135248393

$$$$
