
     RDKit          3D

 29 30  0  0  0  0  0  0  0  0999 V2000
   44.6110   35.6180   44.9190 C   0  0  0  0  0  0  0  0  0  0  0  0
   45.4660   35.0060   44.0120 C   0  0  0  0  0  0  0  0  0  0  0  0
   46.1280   33.8320   44.3980 C   0  0  0  0  0  0  0  0  0  0  0  0
   45.8960   33.3520   45.6510 N   0  0  0  0  0  0  0  0  0  0  0  0
   45.0640   33.9750   46.4940 C   0  0  0  0  0  0  0  0  0  0  0  0
   44.4280   35.0900   46.1410 N   0  0  0  0  0  0  0  0  0  0  0  0
   44.9610   33.3110   47.7510 N   0  0  0  0  0  0  0  0  0  0  0  0
   47.0170   33.1530   43.5140 N   0  0  0  0  0  0  0  0  0  0  0  0
   48.3750   33.3390   43.0800 C   0  0  0  0  0  0  0  0  0  0  0  0
   48.3760   33.5110   41.5780 C   0  0  0  0  0  0  0  0  0  0  0  0
   47.9460   32.3000   40.9520 N   0  0  0  0  0  0  0  0  0  0  0  0
   46.5940   31.9910   41.3680 C   0  0  0  0  0  0  0  0  0  0  0  0
   46.4620   31.9690   42.8730 C   0  0  0  0  0  0  0  0  0  0  0  0
   45.6480   35.6150   42.6750 C   0  0  0  0  0  0  0  0  0  0  0  0
   46.9470   35.9550   42.4380 F   0  0  0  0  0  0  0  0  0  0  0  0
   44.8760   36.7420   42.5010 F   0  0  0  0  0  0  0  0  0  0  0  0
   45.2830   34.7330   41.6590 F   0  0  0  0  0  0  0  0  0  0  0  0
   44.0810   36.5394   44.6358 H   0  0  0  0  0  0  0  0  0  0  0  0
   44.3501   33.6933   48.4869 H   0  0  0  0  0  0  0  0  0  0  0  0
   45.4975   32.4488   47.9235 H   0  0  0  0  0  0  0  0  0  0  0  0
   48.7981   34.2354   43.5570 H   0  0  0  0  0  0  0  0  0  0  0  0
   48.9846   32.4677   43.3613 H   0  0  0  0  0  0  0  0  0  0  0  0
   47.6915   34.3271   41.3034 H   0  0  0  0  0  0  0  0  0  0  0  0
   49.3947   33.7525   41.2406 H   0  0  0  0  0  0  0  0  0  0  0  0
   48.5734   31.5307   41.2268 H   0  0  0  0  0  0  0  0  0  0  0  0
   45.9133   32.7536   40.9618 H   0  0  0  0  0  0  0  0  0  0  0  0
   46.3389   30.9909   40.9874 H   0  0  0  0  0  0  0  0  0  0  0  0
   45.3945   31.9003   43.1295 H   0  0  0  0  0  0  0  0  0  0  0  0
   47.0311   31.1016   43.2388 H   0  0  0  0  0  0  0  0  0  0  0  0
  1  6  2  0
  2  3  2  0
  2  1  1  0
  3  4  1  0
  4  5  2  0
  5  7  1  0
  6  5  1  0
  8  3  1  0
  9  8  1  0
 10  9  1  0
 11 12  1  0
 11 10  1  0
 12 13  1  0
 13  8  1  0
 14  2  1  0
 15 14  1  0
 16 14  1  0
 17 14  1  0
  1 18  1  0
  7 19  1  0
  7 20  1  0
  9 21  1  0
  9 22  1  0
 10 23  1  0
 10 24  1  0
 11 25  1  0
 12 26  1  0
 12 27  1  0
 13 28  1  0
 13 29  1  0
M  ISO  8  18  14  21  13  22  13  23  13  24  13  25   5  26  13  27  13
M  ISO  2  28  13  29  13
M  END
>  <minimizedAffinity>  (1) 
-4.96036816

>  <minimizedRMSD>  (1) 
0.350555837

$$$$
