
     RDKit          3D

 21 22  0  0  0  0  0  0  0  0999 V2000
   44.6000   35.7060   44.9770 C   0  0  0  0  0  0  0  0  0  0  0  0
   45.3680   35.0580   44.0120 C   0  0  0  0  0  0  0  0  0  0  0  0
   45.9590   33.8360   44.3400 C   0  0  0  0  0  0  0  0  0  0  0  0
   45.7550   33.3360   45.5930 N   0  0  0  0  0  0  0  0  0  0  0  0
   45.0100   33.9930   46.4890 C   0  0  0  0  0  0  0  0  0  0  0  0
   44.4410   35.1570   46.1880 N   0  0  0  0  0  0  0  0  0  0  0  0
   44.9320   33.2940   47.7290 N   0  0  0  0  0  0  0  0  0  0  0  0
   46.7420   33.1790   43.3490 N   0  0  0  0  0  0  0  0  0  0  0  0
   46.5950   32.4090   42.2730 C   0  0  0  0  0  0  0  0  0  0  0  0
   47.8200   32.1260   41.7780 N   0  0  0  0  0  0  0  0  0  0  0  0
   48.7380   32.7300   42.5580 C   0  0  0  0  0  0  0  0  0  0  0  0
   48.0540   33.3830   43.5360 N   0  0  0  0  0  0  0  0  0  0  0  0
   45.5150   35.7100   42.6870 C   0  0  0  0  0  0  0  0  0  0  0  0
   46.8500   35.7750   42.3230 F   0  0  0  0  0  0  0  0  0  0  0  0
   45.0020   36.9810   42.6570 F   0  0  0  0  0  0  0  0  0  0  0  0
   44.8970   34.9790   41.6890 F   0  0  0  0  0  0  0  0  0  0  0  0
   44.1237   36.6697   44.7439 H   0  0  0  0  0  0  0  0  0  0  0  0
   44.3882   33.6889   48.5095 H   0  0  0  0  0  0  0  0  0  0  0  0
   45.4195   32.3940   47.8444 H   0  0  0  0  0  0  0  0  0  0  0  0
   45.6377   32.0617   41.8571 H   0  0  0  0  0  0  0  0  0  0  0  0
   49.8300   32.7007   42.4288 H   0  0  0  0  0  0  0  0  0  0  0  0
  1  6  2  0
  2  3  2  0
  2  1  1  0
  3  4  1  0
  4  5  2  0
  5  7  1  0
  6  5  1  0
  8 12  1  0
  8  3  1  0
  9  8  1  0
 10  9  2  0
 10 11  1  0
 11 12  2  0
 13  2  1  0
 14 13  1  0
 15 13  1  0
 16 13  1  0
  1 17  1  0
  7 18  1  0
  7 19  1  0
  9 20  1  0
 11 21  1  0
M  ISO  3  17  14  20  14  21  14
M  END
>  <minimizedAffinity>  (1) 
-4.90232611

>  <minimizedRMSD>  (1) 
0.479173124

$$$$
