
     RDKit          3D

 20 21  0  0  0  0  0  0  0  0999 V2000
   44.6010   35.6890   44.9800 C   0  0  0  0  0  0  0  0  0  0  0  0
   45.3980   35.0670   44.0150 C   0  0  0  0  0  0  0  0  0  0  0  0
   46.0130   33.8570   44.3430 C   0  0  0  0  0  0  0  0  0  0  0  0
   45.8170   33.3370   45.5760 N   0  0  0  0  0  0  0  0  0  0  0  0
   45.0360   33.9750   46.4810 C   0  0  0  0  0  0  0  0  0  0  0  0
   44.4390   35.1320   46.1870 N   0  0  0  0  0  0  0  0  0  0  0  0
   44.9540   33.2730   47.7190 N   0  0  0  0  0  0  0  0  0  0  0  0
   46.8460   33.2070   43.3360 C   0  0  0  0  0  0  0  0  0  0  0  0
   46.6220   32.4220   42.2540 N   0  0  0  0  0  0  0  0  0  0  0  0
   47.7500   32.1140   41.7000 O   0  0  0  0  0  0  0  0  0  0  0  0
   48.7560   32.6670   42.3710 C   0  0  0  0  0  0  0  0  0  0  0  0
   48.1990   33.3530   43.3960 N   0  0  0  0  0  0  0  0  0  0  0  0
   45.5410   35.7310   42.6970 C   0  0  0  0  0  0  0  0  0  0  0  0
   46.8640   35.8060   42.3320 F   0  0  0  0  0  0  0  0  0  0  0  0
   45.0170   36.9990   42.6770 F   0  0  0  0  0  0  0  0  0  0  0  0
   44.9210   35.0030   41.6940 F   0  0  0  0  0  0  0  0  0  0  0  0
   44.1037   36.6420   44.7466 H   0  0  0  0  0  0  0  0  0  0  0  0
   44.3894   33.6549   48.4912 H   0  0  0  0  0  0  0  0  0  0  0  0
   45.4594   32.3839   47.8413 H   0  0  0  0  0  0  0  0  0  0  0  0
   49.8280   32.5835   42.1390 H   0  0  0  0  0  0  0  0  0  0  0  0
  1  6  2  0
  2  3  2  0
  2  1  1  0
  3  4  1  0
  4  5  2  0
  5  7  1  0
  6  5  1  0
  8 12  1  0
  8  3  1  0
  9  8  2  0
 10  9  1  0
 10 11  1  0
 11 12  2  0
 13  2  1  0
 14 13  1  0
 15 13  1  0
 16 13  1  0
  1 17  1  0
  7 18  1  0
  7 19  1  0
 11 20  1  0
M  ISO  2  17  14  20  14
M  END
>  <minimizedAffinity>  (1) 
-4.88782358

>  <minimizedRMSD>  (1) 
0.29637301

$$$$
