
     RDKit          3D

 18 18  0  0  0  0  0  0  0  0999 V2000
   44.6090   35.6190   44.8760 C   0  0  0  0  0  0  0  0  0  0  0  0
   45.5130   34.9970   44.0180 C   0  0  0  0  0  0  0  0  0  0  0  0
   46.1940   33.8420   44.4400 C   0  0  0  0  0  0  0  0  0  0  0  0
   45.9010   33.4120   45.7070 N   0  0  0  0  0  0  0  0  0  0  0  0
   45.0320   34.0270   46.5050 C   0  0  0  0  0  0  0  0  0  0  0  0
   44.3870   35.1200   46.1050 N   0  0  0  0  0  0  0  0  0  0  0  0
   44.9260   33.3710   47.7700 N   0  0  0  0  0  0  0  0  0  0  0  0
   45.7190   35.5960   42.6740 C   0  0  0  0  0  0  0  0  0  0  0  0
   47.0420   35.8010   42.4210 F   0  0  0  0  0  0  0  0  0  0  0  0
   45.0820   36.8080   42.5360 F   0  0  0  0  0  0  0  0  0  0  0  0
   45.2660   34.7780   41.6610 F   0  0  0  0  0  0  0  0  0  0  0  0
   47.1610   33.1600   43.5740 C   0  0  0  0  0  0  0  0  0  0  0  0
   47.7590   32.0530   44.1230 F   0  0  0  0  0  0  0  0  0  0  0  0
   48.2320   34.0740   43.4310 F   0  0  0  0  0  0  0  0  0  0  0  0
   46.7030   32.9820   42.2880 F   0  0  0  0  0  0  0  0  0  0  0  0
   44.0744   36.5223   44.5469 H   0  0  0  0  0  0  0  0  0  0  0  0
   44.2875   33.7395   48.4893 H   0  0  0  0  0  0  0  0  0  0  0  0
   45.4880   32.5296   47.9625 H   0  0  0  0  0  0  0  0  0  0  0  0
  1  6  2  0
  2  3  2  0
  2  1  1  0
  3  4  1  0
  4  5  2  0
  5  7  1  0
  6  5  1  0
  8  2  1  0
  9  8  1  0
 10  8  1  0
 11  8  1  0
 12 13  1  0
 12  3  1  0
 14 12  1  0
 15 12  1  0
  1 16  1  0
  7 17  1  0
  7 18  1  0
M  ISO  1  16  14
M  END
>  <minimizedAffinity>  (1) 
-4.88714695

>  <minimizedRMSD>  (1) 
0.539621353

$$$$
