
     RDKit          3D

 43 46  0  0  1  0  0  0  0  0999 V2000
   47.9210   34.7060   41.4350 C   0  0  2  0  0  0  0  0  0  0  0  0
   48.9720   35.5980   41.7780 C   0  0  0  0  0  0  0  0  0  0  0  0
   50.1490   34.7460   42.2920 C   0  0  0  0  0  0  0  0  0  0  0  0
   49.7460   33.2890   42.1740 C   0  0  0  0  0  0  0  0  0  0  0  0
   48.2810   33.3830   42.1850 C   0  0  1  0  0  0  0  0  0  0  0  0
   47.6850   34.2820   40.0350 C   0  0  0  0  0  0  0  0  0  0  0  0
   48.5070   34.7940   39.0510 C   0  0  0  0  0  0  0  0  0  0  0  0
   48.3400   34.4330   37.7310 C   0  0  0  0  0  0  0  0  0  0  0  0
   47.3180   33.5480   37.4830 N   0  0  0  0  0  0  0  0  0  0  0  0
   46.5350   33.0670   38.4540 C   0  0  0  0  0  0  0  0  0  0  0  0
   46.7030   33.4220   39.7370 N   0  0  0  0  0  0  0  0  0  0  0  0
   47.7630   33.4360   43.5830 C   0  0  0  0  0  0  0  0  0  0  0  0
   46.3590   32.9390   43.6620 C   0  0  0  0  0  0  0  0  0  0  0  0
   45.5470   34.0620   44.2440 C   0  0  0  0  0  0  0  0  0  0  0  0
   44.9210   35.1030   43.6070 C   0  0  0  0  0  0  0  0  0  0  0  0
   44.3170   35.8610   44.5650 N   0  0  0  0  0  0  0  0  0  0  0  0
   44.5620   35.3070   45.7460 C   0  0  0  0  0  0  0  0  0  0  0  0
   45.2970   34.2270   45.5790 N   0  0  0  0  0  0  0  0  0  0  0  0
   45.7810   33.3360   46.6070 C   0  0  0  0  0  0  0  0  0  0  0  0
   46.8720   32.5460   46.9140 C   0  0  0  0  0  0  0  0  0  0  0  0
   46.6080   31.9650   48.1140 N   0  0  0  0  0  0  0  0  0  0  0  0
   45.4000   32.3690   48.5490 C   0  0  0  0  0  0  0  0  0  0  0  0
   44.8810   33.2170   47.6270 N   0  0  0  0  0  0  0  0  0  0  0  0
   47.0117   35.2720   41.6856 H   0  0  0  0  0  0  0  0  0  0  0  0
   49.2819   36.1724   40.8925 H   0  0  0  0  0  0  0  0  0  0  0  0
   48.6417   36.3100   42.5487 H   0  0  0  0  0  0  0  0  0  0  0  0
   51.0449   34.9379   41.6833 H   0  0  0  0  0  0  0  0  0  0  0  0
   50.3818   34.9991   43.3369 H   0  0  0  0  0  0  0  0  0  0  0  0
   50.1163   32.7003   43.0262 H   0  0  0  0  0  0  0  0  0  0  0  0
   50.1541   32.7835   41.2864 H   0  0  0  0  0  0  0  0  0  0  0  0
   47.8294   32.5041   41.7018 H   0  0  0  0  0  0  0  0  0  0  0  0
   49.3058   35.4993   39.3238 H   0  0  0  0  0  0  0  0  0  0  0  0
   48.9820   34.8271   36.9294 H   0  0  0  0  0  0  0  0  0  0  0  0
   45.7319   32.3616   38.1943 H   0  0  0  0  0  0  0  0  0  0  0  0
   48.4008   32.8106   44.2250 H   0  0  0  0  0  0  0  0  0  0  0  0
   47.7790   34.4834   43.9188 H   0  0  0  0  0  0  0  0  0  0  0  0
   45.9889   32.6814   42.6586 H   0  0  0  0  0  0  0  0  0  0  0  0
   46.2897   32.0324   44.2811 H   0  0  0  0  0  0  0  0  0  0  0  0
   44.9088   35.2912   42.5233 H   0  0  0  0  0  0  0  0  0  0  0  0
   44.2064   35.6903   46.7138 H   0  0  0  0  0  0  0  0  0  0  0  0
   47.7785   32.4130   46.3053 H   0  0  0  0  0  0  0  0  0  0  0  0
   44.9175   32.0641   49.4893 H   0  0  0  0  0  0  0  0  0  0  0  0
   43.9674   33.6890   47.6858 H   0  0  0  0  0  0  0  0  0  0  0  0
  1  2  1  0
  1  5  1  0
  2  3  1  0
  4  5  1  0
  4  3  1  0
  5 12  1  0
  6  1  1  0
  7  6  2  0
  8  7  1  0
  9  8  2  0
  9 10  1  0
 10 11  2  0
 11  6  1  0
 12 13  1  0
 13 14  1  0
 14 18  1  0
 15 14  2  0
 15 16  1  0
 16 17  2  0
 18 17  1  0
 18 19  1  0
 19 20  2  0
 19 23  1  0
 20 21  1  0
 21 22  2  0
 23 22  1  0
  1 24  1  1
  2 25  1  0
  2 26  1  0
  3 27  1  0
  3 28  1  0
  4 29  1  0
  4 30  1  0
  5 31  1  6
  7 32  1  0
  8 33  1  0
 10 34  1  0
 12 35  1  0
 12 36  1  0
 13 37  1  0
 13 38  1  0
 15 39  1  0
 17 40  1  0
 20 41  1  0
 22 42  1  0
 23 43  1  0
M  ISO  8  24  13  25  13  26  13  27  13  28  13  29  13  30  13  31  13
M  ISO  8  32  14  33  14  34  14  35   8  36   8  37   8  38   8  39  14
M  ISO  4  40  14  41  14  42  14  43   9
M  END
>  <minimizedAffinity>  (1) 
-6.69157457

>  <minimizedRMSD>  (1) 
1.18436623

$$$$
