
     RDKit          3D

 22 23  0  0  0  0  0  0  0  0999 V2000
   44.6170   35.7120   44.9720 C   0  0  0  0  0  0  0  0  0  0  0  0
   45.3530   35.0410   44.0040 C   0  0  0  0  0  0  0  0  0  0  0  0
   45.9170   33.8060   44.3240 C   0  0  0  0  0  0  0  0  0  0  0  0
   45.7190   33.3120   45.5740 N   0  0  0  0  0  0  0  0  0  0  0  0
   45.0030   33.9870   46.4880 C   0  0  0  0  0  0  0  0  0  0  0  0
   44.4560   35.1770   46.1900 N   0  0  0  0  0  0  0  0  0  0  0  0
   44.9200   33.2930   47.7290 N   0  0  0  0  0  0  0  0  0  0  0  0
   46.6710   33.1170   43.3320 N   0  0  0  0  0  0  0  0  0  0  0  0
   48.0200   33.2270   43.4730 C   0  0  0  0  0  0  0  0  0  0  0  0
   48.5980   32.5060   42.4380 C   0  0  0  0  0  0  0  0  0  0  0  0
   47.6060   31.9800   41.6980 N   0  0  0  0  0  0  0  0  0  0  0  0
   46.4490   32.3660   42.2640 C   0  0  0  0  0  0  0  0  0  0  0  0
   45.5000   35.6790   42.6730 C   0  0  0  0  0  0  0  0  0  0  0  0
   46.8150   35.7380   42.2940 F   0  0  0  0  0  0  0  0  0  0  0  0
   44.9780   36.9450   42.6210 F   0  0  0  0  0  0  0  0  0  0  0  0
   44.8550   34.9390   41.6740 F   0  0  0  0  0  0  0  0  0  0  0  0
   44.1643   36.6868   44.7378 H   0  0  0  0  0  0  0  0  0  0  0  0
   44.3974   33.7047   48.5153 H   0  0  0  0  0  0  0  0  0  0  0  0
   45.3826   32.3795   47.8401 H   0  0  0  0  0  0  0  0  0  0  0  0
   48.5519   33.7827   44.2593 H   0  0  0  0  0  0  0  0  0  0  0  0
   49.6761   32.3860   42.2553 H   0  0  0  0  0  0  0  0  0  0  0  0
   45.4510   32.0942   41.8898 H   0  0  0  0  0  0  0  0  0  0  0  0
  1  6  2  0
  2  3  2  0
  2  1  1  0
  3  4  1  0
  4  5  2  0
  5  7  1  0
  6  5  1  0
  8  9  1  0
  8  3  1  0
 10  9  2  0
 11 12  2  0
 11 10  1  0
 12  8  1  0
 13  2  1  0
 14 13  1  0
 15 13  1  0
 16 13  1  0
  1 17  1  0
  7 18  1  0
  7 19  1  0
  9 20  1  0
 10 21  1  0
 12 22  1  0
M  ISO  4  17  14  20  14  21  14  22  14
M  END
>  <minimizedAffinity>  (1) 
-4.82095957

>  <minimizedRMSD>  (1) 
0.322127908

$$$$
