
     RDKit          3D

 24 24  0  0  0  0  0  0  0  0999 V2000
   44.6380   35.6150   44.8980 C   0  0  0  0  0  0  0  0  0  0  0  0
   45.4920   34.9700   44.0110 C   0  0  0  0  0  0  0  0  0  0  0  0
   46.1310   33.7970   44.4090 C   0  0  0  0  0  0  0  0  0  0  0  0
   45.8910   33.3270   45.6610 N   0  0  0  0  0  0  0  0  0  0  0  0
   45.0640   33.9650   46.5020 C   0  0  0  0  0  0  0  0  0  0  0  0
   44.4410   35.1040   46.1220 N   0  0  0  0  0  0  0  0  0  0  0  0
   44.9220   33.3430   47.7730 N   0  0  0  0  0  0  0  0  0  0  0  0
   45.6880   35.5620   42.6680 C   0  0  0  0  0  0  0  0  0  0  0  0
   47.0070   35.7490   42.3830 F   0  0  0  0  0  0  0  0  0  0  0  0
   45.0180   36.7500   42.5050 F   0  0  0  0  0  0  0  0  0  0  0  0
   45.2170   34.7190   41.6590 F   0  0  0  0  0  0  0  0  0  0  0  0
   47.0390   33.0930   43.5000 C   0  0  0  0  0  0  0  0  0  0  0  0
   46.2600   32.6700   42.2760 C   0  0  0  0  0  0  0  0  0  0  0  0
   48.1040   34.0860   43.0330 C   0  0  0  0  0  0  0  0  0  0  0  0
   44.1259   36.5408   44.5971 H   0  0  0  0  0  0  0  0  0  0  0  0
   44.3068   33.7614   48.4853 H   0  0  0  0  0  0  0  0  0  0  0  0
   45.4344   32.4741   47.9813 H   0  0  0  0  0  0  0  0  0  0  0  0
   47.4872   32.2248   44.0054 H   0  0  0  0  0  0  0  0  0  0  0  0
   45.3328   32.1666   42.5873 H   0  0  0  0  0  0  0  0  0  0  0  0
   46.0115   33.5571   41.6749 H   0  0  0  0  0  0  0  0  0  0  0  0
   46.8687   31.9785   41.6749 H   0  0  0  0  0  0  0  0  0  0  0  0
   48.5910   34.5401   43.9086 H   0  0  0  0  0  0  0  0  0  0  0  0
   48.8560   33.5592   42.4272 H   0  0  0  0  0  0  0  0  0  0  0  0
   47.6311   34.8730   42.4272 H   0  0  0  0  0  0  0  0  0  0  0  0
  1  6  2  0
  2  3  2  0
  2  1  1  0
  3  4  1  0
  4  5  2  0
  5  7  1  0
  6  5  1  0
  8  2  1  0
  9  8  1  0
 10  8  1  0
 11  8  1  0
 12  3  1  0
 13 12  1  0
 14 12  1  0
  1 15  1  0
  7 16  1  0
  7 17  1  0
 12 18  1  0
 13 19  1  0
 13 20  1  0
 13 21  1  0
 14 22  1  0
 14 23  1  0
 14 24  1  0
M  ISO  8  15  14  18   8  19   8  20   8  21   8  22   8  23   8  24   8
M  END
>  <minimizedAffinity>  (1) 
-4.74602079

>  <minimizedRMSD>  (1) 
0.506011784

$$$$
