
     RDKit          3D

 18 19  0  0  0  0  0  0  0  0999 V2000
   44.5170   36.0330   44.4600 C   0  0  0  0  0  0  0  0  0  0  0  0
   44.7860   35.8300   43.1090 C   0  0  0  0  0  0  0  0  0  0  0  0
   45.4850   34.6580   42.7280 C   0  0  0  0  0  0  0  0  0  0  0  0
   45.8630   33.7770   43.6890 N   0  0  0  0  0  0  0  0  0  0  0  0
   45.5750   34.0210   45.0030 C   0  0  0  0  0  0  0  0  0  0  0  0
   44.9130   35.1310   45.3690 N   0  0  0  0  0  0  0  0  0  0  0  0
   45.9590   33.1100   46.0210 N   0  0  0  0  0  0  0  0  0  0  0  0
   46.9790   32.2520   45.7400 C   0  0  0  0  0  0  0  0  0  0  0  0
   47.1410   31.4840   46.8990 C   0  0  0  0  0  0  0  0  0  0  0  0
   46.2500   31.8770   47.8220 N   0  0  0  0  0  0  0  0  0  0  0  0
   45.5200   32.8740   47.2930 C   0  0  0  0  0  0  0  0  0  0  0  0
   44.4760   33.6450   47.7810 O   0  0  0  0  0  0  0  0  0  0  0  0
   43.9780   36.9361   44.7822 H   0  0  0  0  0  0  0  0  0  0  0  0
   44.4632   36.5628   42.3548 H   0  0  0  0  0  0  0  0  0  0  0  0
   45.7177   34.4651   41.6703 H   0  0  0  0  0  0  0  0  0  0  0  0
   47.5520   32.1785   44.8039 H   0  0  0  0  0  0  0  0  0  0  0  0
   47.8831   30.6831   47.0323 H   0  0  0  0  0  0  0  0  0  0  0  0
   44.1376   33.4957   48.6993 H   0  0  0  0  0  0  0  0  0  0  0  0
  1  6  2  0
  2  1  1  0
  3  2  2  0
  3  4  1  0
  4  5  2  0
  5  6  1  0
  5  7  1  0
  7 11  1  0
  8  7  1  0
  8  9  2  0
  9 10  1  0
 11 12  1  0
 11 10  2  0
  1 13  1  0
  2 14  1  0
  3 15  1  0
  8 16  1  0
  9 17  1  0
 12 18  1  0
M  ISO  6  13  14  14  14  15  14  16  14  17  14  18   3
M  END
>  <minimizedAffinity>  (1) 
-4.72530508

>  <minimizedRMSD>  (1) 
0.731578171

$$$$
