
     RDKit          3D

 47 51  0  0  1  0  0  0  0  0999 V2000
   47.5870   33.9030   43.4280 C   0  0  0  0  0  0  0  0  0  0  0  0
   47.9630   34.9100   41.1720 C   0  0  2  0  0  0  0  0  0  0  0  0
   49.0140   35.8060   41.5020 C   0  0  0  0  0  0  0  0  0  0  0  0
   50.1180   34.9820   42.2020 C   0  0  0  0  0  0  0  0  0  0  0  0
   49.6670   33.5340   42.2140 C   0  0  0  0  0  0  0  0  0  0  0  0
   48.2100   33.6650   42.0900 C   0  0  1  0  0  0  0  0  0  0  0  0
   47.8260   34.3400   39.8110 C   0  0  0  0  0  0  0  0  0  0  0  0
   48.5870   34.8830   38.7930 C   0  0  0  0  0  0  0  0  0  0  0  0
   48.5030   34.3870   37.5090 C   0  0  0  0  0  0  0  0  0  0  0  0
   47.6280   33.3420   37.3300 N   0  0  0  0  0  0  0  0  0  0  0  0
   46.9050   32.8360   38.3320 C   0  0  0  0  0  0  0  0  0  0  0  0
   46.9860   33.3180   39.5820 N   0  0  0  0  0  0  0  0  0  0  0  0
   46.2170   33.3120   43.4970 C   0  0  0  0  0  0  0  0  0  0  0  0
   45.5580   33.9270   44.6990 C   0  0  0  0  0  0  0  0  0  0  0  0
   44.8360   35.0870   44.7950 C   0  0  0  0  0  0  0  0  0  0  0  0
   44.4450   35.2180   46.0950 N   0  0  0  0  0  0  0  0  0  0  0  0
   44.9070   34.1770   46.7740 C   0  0  0  0  0  0  0  0  0  0  0  0
   45.5770   33.3900   45.9580 N   0  0  0  0  0  0  0  0  0  0  0  0
   45.9450   30.2030   49.2500 N   0  0  0  0  0  0  0  0  0  0  0  0
   45.0550   31.1760   49.5950 C   0  0  0  0  0  0  0  0  0  0  0  0
   44.9930   32.0770   48.5900 N   0  0  0  0  0  0  0  0  0  0  0  0
   45.8400   31.6910   47.5970 C   0  0  0  0  0  0  0  0  0  0  0  0
   46.2110   32.1770   46.3530 C   0  0  0  0  0  0  0  0  0  0  0  0
   47.1250   31.5010   45.5980 N   0  0  0  0  0  0  0  0  0  0  0  0
   47.6690   30.3510   46.0720 C   0  0  0  0  0  0  0  0  0  0  0  0
   47.3270   29.8420   47.2920 N   0  0  0  0  0  0  0  0  0  0  0  0
   46.4190   30.5250   48.0280 C   0  0  0  0  0  0  0  0  0  0  0  0
   47.5200   34.9865   43.6053 H   0  0  0  0  0  0  0  0  0  0  0  0
   48.2130   33.4233   44.1948 H   0  0  0  0  0  0  0  0  0  0  0  0
   47.0585   35.5259   41.2843 H   0  0  0  0  0  0  0  0  0  0  0  0
   49.4133   36.2706   40.5884 H   0  0  0  0  0  0  0  0  0  0  0  0
   48.6495   36.6077   42.1611 H   0  0  0  0  0  0  0  0  0  0  0  0
   51.0644   35.0761   41.6494 H   0  0  0  0  0  0  0  0  0  0  0  0
   50.2818   35.3455   43.2272 H   0  0  0  0  0  0  0  0  0  0  0  0
   50.0914   32.9765   41.3660 H   0  0  0  0  0  0  0  0  0  0  0  0
   49.9871   32.9780   43.1075 H   0  0  0  0  0  0  0  0  0  0  0  0
   47.7670   32.7485   41.6731 H   0  0  0  0  0  0  0  0  0  0  0  0
   49.2671   35.7200   39.0094 H   0  0  0  0  0  0  0  0  0  0  0  0
   49.0978   34.8009   36.6814 H   0  0  0  0  0  0  0  0  0  0  0  0
   46.2221   31.9985   38.1267 H   0  0  0  0  0  0  0  0  0  0  0  0
   45.6506   33.5538   42.5856 H   0  0  0  0  0  0  0  0  0  0  0  0
   46.2559   32.2156   43.5770 H   0  0  0  0  0  0  0  0  0  0  0  0
   44.6126   35.7847   43.9744 H   0  0  0  0  0  0  0  0  0  0  0  0
   44.7547   33.9990   47.8488 H   0  0  0  0  0  0  0  0  0  0  0  0
   46.2055   29.3808   49.8131 H   0  0  0  0  0  0  0  0  0  0  0  0
   44.4833   31.2203   50.5337 H   0  0  0  0  0  0  0  0  0  0  0  0
   48.4057   29.8144   45.4561 H   0  0  0  0  0  0  0  0  0  0  0  0
  1 13  1  0
  2  3  1  0
  2  6  1  0
  3  4  1  0
  4  5  1  0
  6  5  1  0
  6  1  1  0
  7  2  1  0
  8  7  2  0
  9  8  1  0
 10  9  2  0
 10 11  1  0
 11 12  2  0
 12  7  1  0
 13 14  1  0
 14 15  2  0
 14 18  1  0
 15 16  1  0
 16 17  2  0
 18 23  1  0
 18 17  1  0
 19 20  1  0
 21 20  2  0
 22 27  2  0
 22 21  1  0
 23 22  1  0
 24 25  1  0
 24 23  2  0
 25 26  2  0
 26 27  1  0
 27 19  1  0
  1 28  1  0
  1 29  1  0
  2 30  1  1
  3 31  1  0
  3 32  1  0
  4 33  1  0
  4 34  1  0
  5 35  1  0
  5 36  1  0
  6 37  1  6
  8 38  1  0
  9 39  1  0
 11 40  1  0
 13 41  1  0
 13 42  1  0
 15 43  1  0
 17 44  1  0
 19 45  1  0
 20 46  1  0
 25 47  1  0
M  ISO  8  28   8  29   8  30  13  31  13  32  13  33  13  34  13  35  13
M  ISO  8  36  13  37  13  38  14  39  14  40  14  41   8  42   8  43  14
M  ISO  4  44  14  45   9  46  14  47  14
M  END
>  <minimizedAffinity>  (1) 
-6.66072989

>  <minimizedRMSD>  (1) 
1.61027586

$$$$
