
     RDKit          3D

 18 18  0  0  0  0  0  0  0  0999 V2000
   44.6430   35.6150   44.8940 C   0  0  0  0  0  0  0  0  0  0  0  0
   45.5130   34.9630   44.0150 C   0  0  0  0  0  0  0  0  0  0  0  0
   46.1530   33.7910   44.4270 C   0  0  0  0  0  0  0  0  0  0  0  0
   45.8940   33.3350   45.6850 N   0  0  0  0  0  0  0  0  0  0  0  0
   45.0550   33.9800   46.5060 C   0  0  0  0  0  0  0  0  0  0  0  0
   44.4300   35.1120   46.1230 N   0  0  0  0  0  0  0  0  0  0  0  0
   44.9230   33.3400   47.7700 N   0  0  0  0  0  0  0  0  0  0  0  0
   45.7160   35.5560   42.6700 C   0  0  0  0  0  0  0  0  0  0  0  0
   47.0440   35.7180   42.3920 F   0  0  0  0  0  0  0  0  0  0  0  0
   45.0800   36.7630   42.5190 F   0  0  0  0  0  0  0  0  0  0  0  0
   45.2240   34.7100   41.6670 F   0  0  0  0  0  0  0  0  0  0  0  0
   47.0700   33.1010   43.5040 C   0  0  0  0  0  0  0  0  0  0  0  0
   44.1334   36.5382   44.5808 H   0  0  0  0  0  0  0  0  0  0  0  0
   44.3042   33.7419   48.4886 H   0  0  0  0  0  0  0  0  0  0  0  0
   45.4463   32.4748   47.9663 H   0  0  0  0  0  0  0  0  0  0  0  0
   47.8177   32.5384   44.0823 H   0  0  0  0  0  0  0  0  0  0  0  0
   46.4986   32.4069   42.8701 H   0  0  0  0  0  0  0  0  0  0  0  0
   47.5786   33.8423   42.8701 H   0  0  0  0  0  0  0  0  0  0  0  0
  1  6  2  0
  2  3  2  0
  2  1  1  0
  3  4  1  0
  4  5  2  0
  5  7  1  0
  6  5  1  0
  8  2  1  0
  9  8  1  0
 10  8  1  0
 11  8  1  0
 12  3  1  0
  1 13  1  0
  7 14  1  0
  7 15  1  0
 12 16  1  0
 12 17  1  0
 12 18  1  0
M  ISO  4  13  14  16   8  17   8  18   8
M  END
>  <minimizedAffinity>  (1) 
-4.49935341

>  <minimizedRMSD>  (1) 
0.258818775

$$$$
