
     RDKit          3D

 16 16  0  0  0  0  0  0  0  0999 V2000
   44.6420   35.6230   44.9150 C   0  0  0  0  0  0  0  0  0  0  0  0
   45.4700   34.9460   44.0100 C   0  0  0  0  0  0  0  0  0  0  0  0
   46.0730   33.7510   44.4140 C   0  0  0  0  0  0  0  0  0  0  0  0
   45.8280   33.3020   45.6700 N   0  0  0  0  0  0  0  0  0  0  0  0
   45.0270   33.9820   46.5100 C   0  0  0  0  0  0  0  0  0  0  0  0
   44.4450   35.1190   46.1420 N   0  0  0  0  0  0  0  0  0  0  0  0
   44.8910   33.3620   47.7820 N   0  0  0  0  0  0  0  0  0  0  0  0
   45.6520   35.5500   42.6640 C   0  0  0  0  0  0  0  0  0  0  0  0
   46.9820   35.7080   42.3760 F   0  0  0  0  0  0  0  0  0  0  0  0
   45.0260   36.7620   42.5220 F   0  0  0  0  0  0  0  0  0  0  0  0
   45.1740   34.7040   41.6710 F   0  0  0  0  0  0  0  0  0  0  0  0
   47.1220   32.9010   43.2570 S   0  0  0  0  0  0  0  0  0  0  0  0
   44.1553   36.5644   44.6202 H   0  0  0  0  0  0  0  0  0  0  0  0
   44.3002   33.7957   48.5058 H   0  0  0  0  0  0  0  0  0  0  0  0
   45.3832   32.4791   47.9799 H   0  0  0  0  0  0  0  0  0  0  0  0
   48.0444   32.1536   43.9406 H   0  0  0  0  0  0  0  0  0  0  0  0
  1  6  2  0
  2  3  2  0
  2  1  1  0
  3  4  1  0
  4  5  2  0
  5  7  1  0
  6  5  1  0
  8  2  1  0
  9  8  1  0
 10  8  1  0
 11  8  1  0
 12  3  1  0
  1 13  1  0
  7 14  1  0
  7 15  1  0
 12 16  1  0
M  ISO  2  13  14  16  11
M  END
>  <minimizedAffinity>  (1) 
-4.44005632

>  <minimizedRMSD>  (1) 
0.261712849

$$$$
