
     RDKit          3D

 16 16  0  0  0  0  0  0  0  0999 V2000
   44.6400   35.6360   44.9070 C   0  0  0  0  0  0  0  0  0  0  0  0
   45.4420   34.9550   44.0010 C   0  0  0  0  0  0  0  0  0  0  0  0
   46.0400   33.7390   44.4000 C   0  0  0  0  0  0  0  0  0  0  0  0
   45.7890   33.3090   45.6650 N   0  0  0  0  0  0  0  0  0  0  0  0
   45.0090   33.9970   46.5090 C   0  0  0  0  0  0  0  0  0  0  0  0
   44.4340   35.1540   46.1400 N   0  0  0  0  0  0  0  0  0  0  0  0
   44.8980   33.3590   47.7770 N   0  0  0  0  0  0  0  0  0  0  0  0
   45.6290   35.5450   42.6540 C   0  0  0  0  0  0  0  0  0  0  0  0
   46.9760   35.7070   42.3780 F   0  0  0  0  0  0  0  0  0  0  0  0
   45.0230   36.7690   42.5150 F   0  0  0  0  0  0  0  0  0  0  0  0
   45.1630   34.7020   41.6610 F   0  0  0  0  0  0  0  0  0  0  0  0
   46.8360   33.0700   43.4910 O   0  0  0  0  0  0  0  0  0  0  0  0
   44.1676   36.5835   44.6086 H   0  0  0  0  0  0  0  0  0  0  0  0
   44.3254   33.7852   48.5196 H   0  0  0  0  0  0  0  0  0  0  0  0
   45.3903   32.4713   47.9517 H   0  0  0  0  0  0  0  0  0  0  0  0
   47.2670   32.2157   43.7451 H   0  0  0  0  0  0  0  0  0  0  0  0
  1  6  2  0
  2  3  2  0
  2  1  1  0
  3  4  1  0
  4  5  2  0
  5  7  1  0
  6  5  1  0
  8  2  1  0
  9  8  1  0
 10  8  1  0
 11  8  1  0
 12  3  1  0
  1 13  1  0
  7 14  1  0
  7 15  1  0
 12 16  1  0
M  ISO  2  13  14  16   3
M  END
>  <minimizedAffinity>  (1) 
-4.41273165

>  <minimizedRMSD>  (1) 
0.263593465

$$$$
