
     RDKit          3D

 51 54  0  0  1  0  0  0  0  0999 V2000
   47.9120   34.7450   41.5700 C   0  0  2  0  0  0  0  0  0  0  0  0
   49.0470   35.5610   41.8300 C   0  0  0  0  0  0  0  0  0  0  0  0
   50.1660   34.6420   42.3560 C   0  0  0  0  0  0  0  0  0  0  0  0
   49.6310   33.2150   42.3380 C   0  0  0  0  0  0  0  0  0  0  0  0
   48.1800   33.4360   42.3790 C   0  0  1  0  0  0  0  0  0  0  0  0
   47.6010   34.2690   40.1910 C   0  0  0  0  0  0  0  0  0  0  0  0
   48.4190   34.6960   39.1630 C   0  0  0  0  0  0  0  0  0  0  0  0
   48.1710   34.2770   37.8700 C   0  0  0  0  0  0  0  0  0  0  0  0
   47.1030   33.4460   37.6990 N   0  0  0  0  0  0  0  0  0  0  0  0
   46.3300   33.0500   38.7160 C   0  0  0  0  0  0  0  0  0  0  0  0
   46.5620   33.4530   39.9780 N   0  0  0  0  0  0  0  0  0  0  0  0
   47.7170   33.6130   43.7900 C   0  0  0  0  0  0  0  0  0  0  0  0
   46.4390   32.8670   44.0280 C   0  0  0  0  0  0  0  0  0  0  0  0
   45.6470   33.7170   44.9880 C   0  0  0  0  0  0  0  0  0  0  0  0
   45.0050   34.9080   44.7650 C   0  0  0  0  0  0  0  0  0  0  0  0
   44.4300   35.2940   45.9360 N   0  0  0  0  0  0  0  0  0  0  0  0
   44.7090   34.3680   46.8530 C   0  0  0  0  0  0  0  0  0  0  0  0
   45.4370   33.4140   46.3090 N   0  0  0  0  0  0  0  0  0  0  0  0
   46.7450   30.9070   49.4130 N   0  0  0  0  0  0  0  0  0  0  0  0
   45.4420   30.6430   48.8250 C   0  0  0  0  0  0  0  0  0  0  0  0
   44.9830   31.9220   48.2000 C   0  0  0  0  0  0  0  0  0  0  0  0
   45.9300   32.2260   47.0300 C   0  0  0  0  0  0  0  0  0  0  0  0
   47.2810   32.5250   47.6470 C   0  0  0  0  0  0  0  0  0  0  0  0
   47.7140   31.2930   48.4030 C   0  0  0  0  0  0  0  0  0  0  0  0
   47.0616   35.3965   41.8199 H   0  0  0  0  0  0  0  0  0  0  0  0
   49.3728   36.0576   40.9041 H   0  0  0  0  0  0  0  0  0  0  0  0
   48.8044   36.3388   42.5690 H   0  0  0  0  0  0  0  0  0  0  0  0
   51.0516   34.7196   41.7082 H   0  0  0  0  0  0  0  0  0  0  0  0
   50.4605   34.9332   43.3751 H   0  0  0  0  0  0  0  0  0  0  0  0
   49.9297   32.6871   41.4203 H   0  0  0  0  0  0  0  0  0  0  0  0
   50.0088   32.5879   43.1590 H   0  0  0  0  0  0  0  0  0  0  0  0
   47.6394   32.5769   41.9551 H   0  0  0  0  0  0  0  0  0  0  0  0
   49.2648   35.3672   39.3731 H   0  0  0  0  0  0  0  0  0  0  0  0
   48.7998   34.5958   37.0256 H   0  0  0  0  0  0  0  0  0  0  0  0
   45.4829   32.3776   38.5152 H   0  0  0  0  0  0  0  0  0  0  0  0
   48.4898   33.2318   44.4737 H   0  0  0  0  0  0  0  0  0  0  0  0
   47.5397   34.6833   43.9714 H   0  0  0  0  0  0  0  0  0  0  0  0
   45.8881   32.7381   43.0847 H   0  0  0  0  0  0  0  0  0  0  0  0
   46.6240   31.8608   44.4322 H   0  0  0  0  0  0  0  0  0  0  0  0
   44.9625   35.4534   43.8107 H   0  0  0  0  0  0  0  0  0  0  0  0
   44.3817   34.3959   47.9028 H   0  0  0  0  0  0  0  0  0  0  0  0
   46.6546   31.6697   50.0993 H   0  0  0  0  0  0  0  0  0  0  0  0
   45.5238   29.8560   48.0608 H   0  0  0  0  0  0  0  0  0  0  0  0
   44.7278   30.2973   49.5869 H   0  0  0  0  0  0  0  0  0  0  0  0
   43.9526   31.8118   47.8311 H   0  0  0  0  0  0  0  0  0  0  0  0
   44.9972   32.7407   48.9345 H   0  0  0  0  0  0  0  0  0  0  0  0
   45.9918   31.3871   46.3212 H   0  0  0  0  0  0  0  0  0  0  0  0
   48.0113   32.7582   46.8582 H   0  0  0  0  0  0  0  0  0  0  0  0
   47.2170   33.3920   48.3210 H   0  0  0  0  0  0  0  0  0  0  0  0
   47.8347   30.4633   47.6909 H   0  0  0  0  0  0  0  0  0  0  0  0
   48.6623   31.5216   48.9113 H   0  0  0  0  0  0  0  0  0  0  0  0
  1  2  1  0
  1  5  1  0
  2  3  1  0
  4  3  1  0
  4  5  1  0
  5 12  1  0
  6  1  1  0
  7  6  2  0
  8  7  1  0
  9  8  2  0
  9 10  1  0
 10 11  2  0
 11  6  1  0
 12 13  1  0
 13 14  1  0
 14 18  1  0
 15 14  2  0
 15 16  1  0
 16 17  2  0
 18 17  1  0
 18 22  1  0
 20 19  1  0
 21 20  1  0
 22 23  1  0
 22 21  1  0
 23 24  1  0
 24 19  1  0
  1 25  1  1
  2 26  1  0
  2 27  1  0
  3 28  1  0
  3 29  1  0
  4 30  1  0
  4 31  1  0
  5 32  1  6
  7 33  1  0
  8 34  1  0
 10 35  1  0
 12 36  1  0
 12 37  1  0
 13 38  1  0
 13 39  1  0
 15 40  1  0
 17 41  1  0
 19 42  1  0
 20 43  1  0
 20 44  1  0
 21 45  1  0
 21 46  1  0
 22 47  1  0
 23 48  1  0
 23 49  1  0
 24 50  1  0
 24 51  1  0
M  ISO  8  25  13  26  13  27  13  28  13  29  13  30  13  31  13  32  13
M  ISO  8  33  14  34  14  35  14  36   8  37   8  38   8  39   8  40  14
M  ISO  8  41  14  42   5  43  13  44  13  45  13  46  13  47  13  48  13
M  ISO  3  49  13  50  13  51  13
M  END
>  <minimizedAffinity>  (1) 
-6.63712597

>  <minimizedRMSD>  (1) 
1.23579538

$$$$
