
     RDKit          3D

 28 29  0  0  0  0  0  0  0  0999 V2000
   44.6670   34.9030   44.9300 C   0  0  0  0  0  0  0  0  0  0  0  0
   45.3120   34.9190   43.6950 C   0  0  0  0  0  0  0  0  0  0  0  0
   46.5250   34.2460   43.5670 C   0  0  0  0  0  0  0  0  0  0  0  0
   47.0310   33.6040   44.6430 N   0  0  0  0  0  0  0  0  0  0  0  0
   46.3790   33.6070   45.8290 C   0  0  0  0  0  0  0  0  0  0  0  0
   45.2180   34.2440   45.9720 N   0  0  0  0  0  0  0  0  0  0  0  0
   47.0900   32.8740   46.8240 N   0  0  0  0  0  0  0  0  0  0  0  0
   47.2320   34.2520   42.2630 C   0  0  0  0  0  0  0  0  0  0  0  0
   48.1280   35.4220   42.0540 C   0  0  0  0  0  0  0  0  0  0  0  0
   49.5510   34.9330   42.1880 C   0  0  0  0  0  0  0  0  0  0  0  0
   49.5220   33.4570   42.4080 C   0  0  0  0  0  0  0  0  0  0  0  0
   48.1010   33.0010   42.2130 C   0  0  0  0  0  0  0  0  0  0  0  0
   44.6700   35.6540   42.5800 C   0  0  0  0  0  0  0  0  0  0  0  0
   45.0810   36.9550   42.5500 F   0  0  0  0  0  0  0  0  0  0  0  0
   43.2990   35.6350   42.6580 F   0  0  0  0  0  0  0  0  0  0  0  0
   45.0120   35.1330   41.3440 F   0  0  0  0  0  0  0  0  0  0  0  0
   43.7084   35.4275   45.0563 H   0  0  0  0  0  0  0  0  0  0  0  0
   46.7070   32.7941   47.7768 H   0  0  0  0  0  0  0  0  0  0  0  0
   47.9867   32.4244   46.5900 H   0  0  0  0  0  0  0  0  0  0  0  0
   46.4605   34.2951   41.4801 H   0  0  0  0  0  0  0  0  0  0  0  0
   47.9226   36.1925   42.8117 H   0  0  0  0  0  0  0  0  0  0  0  0
   47.9621   35.8648   41.0608 H   0  0  0  0  0  0  0  0  0  0  0  0
   50.1105   35.1609   41.2687 H   0  0  0  0  0  0  0  0  0  0  0  0
   50.0445   35.4322   43.0349 H   0  0  0  0  0  0  0  0  0  0  0  0
   50.1805   32.9558   41.6834 H   0  0  0  0  0  0  0  0  0  0  0  0
   49.8745   33.2080   43.4198 H   0  0  0  0  0  0  0  0  0  0  0  0
   47.8120   32.3057   43.0149 H   0  0  0  0  0  0  0  0  0  0  0  0
   47.9815   32.4728   41.2555 H   0  0  0  0  0  0  0  0  0  0  0  0
  1  6  2  0
  2  1  1  0
  3  2  2  0
  3  4  1  0
  4  5  2  0
  5  6  1  0
  5  7  1  0
  8  3  1  0
  9 10  1  0
  9  8  1  0
 10 11  1  0
 12  8  1  0
 12 11  1  0
 13 15  1  0
 13  2  1  0
 14 13  1  0
 16 13  1  0
  1 17  1  0
  7 18  1  0
  7 19  1  0
  8 20  1  0
  9 21  1  0
  9 22  1  0
 10 23  1  0
 10 24  1  0
 11 25  1  0
 11 26  1  0
 12 27  1  0
 12 28  1  0
M  ISO  8  17  14  20  13  21  13  22  13  23  13  24  13  25  13  26  13
M  ISO  2  27  13  28  13
M  END
>  <minimizedAffinity>  (1) 
-5.13999557

>  <minimizedRMSD>  (1) 
1.6445477

$$$$
