
     RDKit          3D

 42 45  0  0  1  0  0  0  0  0999 V2000
   47.1490   33.9170   42.3330 C   0  0  1  0  0  0  0  0  0  0  0  0
   48.3170   34.9360   42.1840 C   0  0  0  0  0  0  0  0  0  0  0  0
   49.5790   34.1490   42.2440 C   0  0  0  0  0  0  0  0  0  0  0  0
   49.2460   32.7090   42.4630 C   0  0  0  0  0  0  0  0  0  0  0  0
   47.7650   32.5710   42.2900 C   0  0  2  0  0  0  0  0  0  0  0  0
   47.4710   31.7720   41.1260 N   0  0  0  0  0  0  0  0  0  0  0  0
   46.9830   30.5550   40.8250 C   0  0  0  0  0  0  0  0  0  0  0  0
   46.9450   30.3770   39.4940 N   0  0  0  0  0  0  0  0  0  0  0  0
   47.4210   31.5030   38.9050 C   0  0  0  0  0  0  0  0  0  0  0  0
   47.5550   31.7450   37.5520 C   0  0  0  0  0  0  0  0  0  0  0  0
   47.2270   30.8820   36.7040 O   0  0  0  0  0  0  0  0  0  0  0  0
   48.0520   32.9390   37.1890 N   0  0  0  0  0  0  0  0  0  0  0  0
   48.3800   33.8060   38.1590 C   0  0  0  0  0  0  0  0  0  0  0  0
   48.9140   35.0910   37.7790 N   0  0  0  0  0  0  0  0  0  0  0  0
   48.2470   33.5670   39.4740 N   0  0  0  0  0  0  0  0  0  0  0  0
   47.7500   32.3790   39.9330 C   0  0  0  0  0  0  0  0  0  0  0  0
   44.7100   34.8980   45.0160 C   0  0  0  0  0  0  0  0  0  0  0  0
   45.3380   34.8390   43.7870 C   0  0  0  0  0  0  0  0  0  0  0  0
   46.5020   34.1200   43.6470 C   0  0  0  0  0  0  0  0  0  0  0  0
   46.9970   33.4850   44.7480 N   0  0  0  0  0  0  0  0  0  0  0  0
   46.3670   33.5530   45.9460 C   0  0  0  0  0  0  0  0  0  0  0  0
   45.2430   34.2460   46.0820 N   0  0  0  0  0  0  0  0  0  0  0  0
   47.0460   32.7990   46.9450 N   0  0  0  0  0  0  0  0  0  0  0  0
   44.7480   35.6200   42.6730 C   0  0  0  0  0  0  0  0  0  0  0  0
   45.1690   36.9380   42.7140 F   0  0  0  0  0  0  0  0  0  0  0  0
   43.3860   35.6300   42.6980 F   0  0  0  0  0  0  0  0  0  0  0  0
   45.1460   35.2180   41.4440 F   0  0  0  0  0  0  0  0  0  0  0  0
   46.3945   34.0384   41.5418 H   0  0  0  0  0  0  0  0  0  0  0  0
   48.2877   35.6692   43.0035 H   0  0  0  0  0  0  0  0  0  0  0  0
   48.2405   35.4910   41.2374 H   0  0  0  0  0  0  0  0  0  0  0  0
   50.1282   34.2604   41.2974 H   0  0  0  0  0  0  0  0  0  0  0  0
   50.2055   34.5149   43.0709 H   0  0  0  0  0  0  0  0  0  0  0  0
   49.7722   32.0834   41.7270 H   0  0  0  0  0  0  0  0  0  0  0  0
   49.5561   32.3826   43.4666 H   0  0  0  0  0  0  0  0  0  0  0  0
   47.3037   32.0125   43.1178 H   0  0  0  0  0  0  0  0  0  0  0  0
   46.6599   29.8090   41.5660 H   0  0  0  0  0  0  0  0  0  0  0  0
   48.1775   33.1817   36.1959 H   0  0  0  0  0  0  0  0  0  0  0  0
   49.1740   35.7753   38.5036 H   0  0  0  0  0  0  0  0  0  0  0  0
   49.0353   35.3242   36.7831 H   0  0  0  0  0  0  0  0  0  0  0  0
   43.7791   35.4725   45.1314 H   0  0  0  0  0  0  0  0  0  0  0  0
   46.6744   32.7638   47.9050 H   0  0  0  0  0  0  0  0  0  0  0  0
   47.9087   32.2888   46.7076 H   0  0  0  0  0  0  0  0  0  0  0  0
  1 19  1  0
  2  3  1  0
  2  1  1  0
  3  4  1  0
  5  1  1  0
  5  4  1  0
  6  5  1  0
  7  6  1  0
  8  7  2  0
  9  8  1  0
  9 16  2  0
 10  9  1  0
 11 10  2  0
 12 10  1  0
 12 13  1  0
 13 15  2  0
 14 13  1  0
 15 16  1  0
 16  6  1  0
 17 22  2  0
 18 17  1  0
 19 18  2  0
 19 20  1  0
 20 21  2  0
 21 22  1  0
 21 23  1  0
 24 26  1  0
 24 25  1  0
 24 18  1  0
 27 24  1  0
  1 28  1  6
  2 29  1  0
  2 30  1  0
  3 31  1  0
  3 32  1  0
  4 33  1  0
  4 34  1  0
  5 35  1  1
  7 36  1  0
 12 37  1  0
 14 38  1  0
 14 39  1  0
 17 40  1  0
 23 41  1  0
 23 42  1  0
M  ISO  8  28  13  29  13  30  13  31  13  32  13  33  13  34  13  35  13
M  ISO  3  36  14  37   9  40  14
M  END
>  <minimizedAffinity>  (1) 
-6.54641485

>  <minimizedRMSD>  (1) 
0.522517145

$$$$
