
     RDKit          3D

 42 45  0  0  1  0  0  0  0  0999 V2000
   47.4900   34.0230   42.3400 C   0  0  1  0  0  0  0  0  0  0  0  0
   48.6480   35.0600   42.3540 C   0  0  0  0  0  0  0  0  0  0  0  0
   49.9210   34.2900   42.4090 C   0  0  0  0  0  0  0  0  0  0  0  0
   49.5970   32.8340   42.4080 C   0  0  0  0  0  0  0  0  0  0  0  0
   48.1120   32.6910   42.1680 C   0  0  2  0  0  0  0  0  0  0  0  0
   47.9020   32.0500   40.8480 C   0  0  0  0  0  0  0  0  0  0  0  0
   47.6100   30.7150   40.8530 N   0  0  0  0  0  0  0  0  0  0  0  0
   47.3910   30.0110   39.7310 C   0  0  0  0  0  0  0  0  0  0  0  0
   47.4480   30.5920   38.4980 N   0  0  0  0  0  0  0  0  0  0  0  0
   47.7340   31.9080   38.4590 C   0  0  0  0  0  0  0  0  0  0  0  0
   47.8210   32.6100   37.2610 C   0  0  0  0  0  0  0  0  0  0  0  0
   48.1190   33.9650   37.2250 C   0  0  0  0  0  0  0  0  0  0  0  0
   48.3390   34.6640   38.3960 C   0  0  0  0  0  0  0  0  0  0  0  0
   48.2520   33.9680   39.5880 C   0  0  0  0  0  0  0  0  0  0  0  0
   47.9580   32.6230   39.6160 C   0  0  0  0  0  0  0  0  0  0  0  0
   44.9080   34.6460   45.0030 C   0  0  0  0  0  0  0  0  0  0  0  0
   45.5910   34.7380   43.8000 C   0  0  0  0  0  0  0  0  0  0  0  0
   46.7850   34.0670   43.6410 C   0  0  0  0  0  0  0  0  0  0  0  0
   47.2550   33.3300   44.6900 N   0  0  0  0  0  0  0  0  0  0  0  0
   46.5710   33.2560   45.8550 C   0  0  0  0  0  0  0  0  0  0  0  0
   45.4190   33.9030   46.0060 N   0  0  0  0  0  0  0  0  0  0  0  0
   47.2350   32.4280   46.8100 N   0  0  0  0  0  0  0  0  0  0  0  0
   45.0290   35.6240   42.7570 C   0  0  0  0  0  0  0  0  0  0  0  0
   45.5450   36.9050   42.8590 F   0  0  0  0  0  0  0  0  0  0  0  0
   43.6730   35.7310   42.8280 F   0  0  0  0  0  0  0  0  0  0  0  0
   45.3580   35.2620   41.4980 F   0  0  0  0  0  0  0  0  0  0  0  0
   46.7711   34.2350   41.5348 H   0  0  0  0  0  0  0  0  0  0  0  0
   48.6167   35.6736   41.4416 H   0  0  0  0  0  0  0  0  0  0  0  0
   48.5599   35.7352   43.2179 H   0  0  0  0  0  0  0  0  0  0  0  0
   50.5391   34.5327   41.5320 H   0  0  0  0  0  0  0  0  0  0  0  0
   50.4785   34.5503   43.3209 H   0  0  0  0  0  0  0  0  0  0  0  0
   50.1559   32.3269   41.6077 H   0  0  0  0  0  0  0  0  0  0  0  0
   49.8764   32.3777   43.3691 H   0  0  0  0  0  0  0  0  0  0  0  0
   47.6162   32.0288   42.8930 H   0  0  0  0  0  0  0  0  0  0  0  0
   47.1597   28.9383   39.8079 H   0  0  0  0  0  0  0  0  0  0  0  0
   47.6486   32.0757   36.3151 H   0  0  0  0  0  0  0  0  0  0  0  0
   48.1804   34.4856   36.2579 H   0  0  0  0  0  0  0  0  0  0  0  0
   48.5755   35.7382   38.3809 H   0  0  0  0  0  0  0  0  0  0  0  0
   48.4215   34.5010   40.5352 H   0  0  0  0  0  0  0  0  0  0  0  0
   43.9539   35.1764   45.1388 H   0  0  0  0  0  0  0  0  0  0  0  0
   46.8220   32.2844   47.7426 H   0  0  0  0  0  0  0  0  0  0  0  0
   48.1270   31.9742   46.5663 H   0  0  0  0  0  0  0  0  0  0  0  0
  1  2  1  0
  1 18  1  0
  2  3  1  0
  4  3  1  0
  5  1  1  0
  5  4  1  0
  6  7  2  0
  6  5  1  0
  8  7  1  0
  9  8  2  0
 10  9  1  0
 10 15  2  0
 11 10  1  0
 12 11  2  0
 12 13  1  0
 13 14  2  0
 14 15  1  0
 15  6  1  0
 16 21  2  0
 17 16  1  0
 18 17  2  0
 18 19  1  0
 19 20  2  0
 20 21  1  0
 20 22  1  0
 23 25  1  0
 23 24  1  0
 23 17  1  0
 26 23  1  0
  1 27  1  6
  2 28  1  0
  2 29  1  0
  3 30  1  0
  3 31  1  0
  4 32  1  0
  4 33  1  0
  5 34  1  1
  8 35  1  0
 11 36  1  0
 12 37  1  0
 13 38  1  0
 14 39  1  0
 16 40  1  0
 22 41  1  0
 22 42  1  0
M  ISO  8  27  13  28  13  29  13  30  13  31  13  32  13  33  13  34  13
M  ISO  6  35  14  36  14  37  14  38  14  39  14  40  14
M  END
>  <minimizedAffinity>  (1) 
-6.30457449

>  <minimizedRMSD>  (1) 
0.813237309

$$$$
