
     RDKit          3D

 39 42  0  0  1  0  0  0  0  0999 V2000
   47.4200   34.2880   42.2120 C   0  0  1  0  0  0  0  0  0  0  0  0
   48.2880   35.5760   42.1790 C   0  0  0  0  0  0  0  0  0  0  0  0
   49.7150   35.1320   42.2280 C   0  0  0  0  0  0  0  0  0  0  0  0
   49.7510   33.6360   42.2740 C   0  0  0  0  0  0  0  0  0  0  0  0
   48.3390   33.1480   42.0740 C   0  0  2  0  0  0  0  0  0  0  0  0
   44.8730   34.6010   44.9690 C   0  0  0  0  0  0  0  0  0  0  0  0
   45.5170   34.8000   43.7570 C   0  0  0  0  0  0  0  0  0  0  0  0
   46.7380   34.2020   43.5290 C   0  0  0  0  0  0  0  0  0  0  0  0
   47.2670   33.4300   44.5230 N   0  0  0  0  0  0  0  0  0  0  0  0
   46.6250   33.2500   45.6960 C   0  0  0  0  0  0  0  0  0  0  0  0
   45.4420   33.8250   45.9210 N   0  0  0  0  0  0  0  0  0  0  0  0
   47.3630   32.4290   46.5780 N   0  0  0  0  0  0  0  0  0  0  0  0
   44.8830   35.7150   42.7850 C   0  0  0  0  0  0  0  0  0  0  0  0
   45.4180   36.9860   42.8670 F   0  0  0  0  0  0  0  0  0  0  0  0
   43.5380   35.8310   42.9650 F   0  0  0  0  0  0  0  0  0  0  0  0
   45.0940   35.3710   41.4950 F   0  0  0  0  0  0  0  0  0  0  0  0
   48.3180   32.4240   40.8330 N   0  0  0  0  0  0  0  0  0  0  0  0
   48.3080   31.0630   40.7520 C   0  0  0  0  0  0  0  0  0  0  0  0
   48.2860   30.6990   39.4380 N   0  0  0  0  0  0  0  0  0  0  0  0
   48.2810   31.8210   38.6800 C   0  0  0  0  0  0  0  0  0  0  0  0
   48.2620   32.1400   37.3320 C   0  0  0  0  0  0  0  0  0  0  0  0
   48.2630   33.4120   36.8930 N   0  0  0  0  0  0  0  0  0  0  0  0
   48.2810   34.4340   37.7700 C   0  0  0  0  0  0  0  0  0  0  0  0
   48.3000   34.1510   39.1050 N   0  0  0  0  0  0  0  0  0  0  0  0
   48.3000   32.8640   39.5600 C   0  0  0  0  0  0  0  0  0  0  0  0
   46.6670   34.2921   41.4102 H   0  0  0  0  0  0  0  0  0  0  0  0
   48.0973   36.1384   41.2531 H   0  0  0  0  0  0  0  0  0  0  0  0
   48.0492   36.2366   43.0255 H   0  0  0  0  0  0  0  0  0  0  0  0
   50.2443   35.4876   41.3317 H   0  0  0  0  0  0  0  0  0  0  0  0
   50.2059   35.5463   43.1209 H   0  0  0  0  0  0  0  0  0  0  0  0
   50.3997   33.2502   41.4738 H   0  0  0  0  0  0  0  0  0  0  0  0
   50.1519   33.2852   43.2364 H   0  0  0  0  0  0  0  0  0  0  0  0
   47.9839   32.4374   42.8349 H   0  0  0  0  0  0  0  0  0  0  0  0
   43.8981   35.0746   45.1570 H   0  0  0  0  0  0  0  0  0  0  0  0
   46.9883   32.2091   47.5119 H   0  0  0  0  0  0  0  0  0  0  0  0
   48.2757   32.0505   46.2870 H   0  0  0  0  0  0  0  0  0  0  0  0
   48.3163   30.3713   41.6073 H   0  0  0  0  0  0  0  0  0  0  0  0
   48.2455   31.3243   36.5942 H   0  0  0  0  0  0  0  0  0  0  0  0
   48.2804   35.4759   37.4174 H   0  0  0  0  0  0  0  0  0  0  0  0
  1  8  1  0
  2  1  1  0
  2  3  1  0
  3  4  1  0
  5  1  1  0
  5  4  1  0
  6 11  2  0
  7  6  1  0
  8  7  2  0
  8  9  1  0
  9 10  2  0
 10 11  1  0
 10 12  1  0
 13 14  1  0
 13 15  1  0
 13  7  1  0
 16 13  1  0
 17  5  1  0
 18 17  1  0
 19 18  2  0
 20 19  1  0
 20 25  2  0
 21 20  1  0
 22 21  2  0
 22 23  1  0
 23 24  2  0
 24 25  1  0
 25 17  1  0
  1 26  1  6
  2 27  1  0
  2 28  1  0
  3 29  1  0
  3 30  1  0
  4 31  1  0
  4 32  1  0
  5 33  1  1
  6 34  1  0
 12 35  1  0
 12 36  1  0
 18 37  1  0
 21 38  1  0
 23 39  1  0
M  ISO  8  26  13  27  13  28  13  29  13  30  13  31  13  32  13  33  13
M  ISO  4  34  14  37  14  38  14  39  14
M  END
>  <minimizedAffinity>  (1) 
-6.21712875

>  <minimizedRMSD>  (1) 
0.74651438

$$$$
