
     RDKit          3D

 41 43  0  0  1  0  0  0  0  0999 V2000
   47.5830   34.2670   42.3550 C   0  0  1  0  0  0  0  0  0  0  0  0
   49.0780   34.5970   42.6590 C   0  0  0  0  0  0  0  0  0  0  0  0
   49.8600   33.3720   42.3430 C   0  0  0  0  0  0  0  0  0  0  0  0
   48.9300   32.3190   41.8470 C   0  0  0  0  0  0  0  0  0  0  0  0
   47.5690   32.9400   41.7020 C   0  0  2  0  0  0  0  0  0  0  0  0
   44.9140   34.5740   44.9830 C   0  0  0  0  0  0  0  0  0  0  0  0
   45.6150   34.7830   43.8070 C   0  0  0  0  0  0  0  0  0  0  0  0
   46.8430   34.1810   43.6310 C   0  0  0  0  0  0  0  0  0  0  0  0
   47.3230   33.3950   44.6400 N   0  0  0  0  0  0  0  0  0  0  0  0
   46.6220   33.2040   45.7800 C   0  0  0  0  0  0  0  0  0  0  0  0
   45.4410   33.7800   45.9520 N   0  0  0  0  0  0  0  0  0  0  0  0
   47.3000   32.3390   46.6870 N   0  0  0  0  0  0  0  0  0  0  0  0
   45.0290   35.7010   42.8090 C   0  0  0  0  0  0  0  0  0  0  0  0
   45.5660   36.9700   42.9160 F   0  0  0  0  0  0  0  0  0  0  0  0
   43.6770   35.8230   42.9320 F   0  0  0  0  0  0  0  0  0  0  0  0
   45.3020   35.3630   41.5270 F   0  0  0  0  0  0  0  0  0  0  0  0
   47.1560   32.8980   40.3210 N   0  0  0  0  0  0  0  0  0  0  0  0
   46.4030   31.9080   39.7540 C   0  0  0  0  0  0  0  0  0  0  0  0
   46.0460   31.9370   38.4220 C   0  0  0  0  0  0  0  0  0  0  0  0
   45.2230   30.8360   37.8440 C   0  0  0  0  0  0  0  0  0  0  0  0
   46.4360   32.9690   37.6010 C   0  0  0  0  0  0  0  0  0  0  0  0
   46.1340   33.0330   36.3890 O   0  0  0  0  0  0  0  0  0  0  0  0
   47.1770   33.9380   38.1680 N   0  0  0  0  0  0  0  0  0  0  0  0
   47.5080   33.8810   39.4700 C   0  0  0  0  0  0  0  0  0  0  0  0
   48.1970   34.8420   39.8730 O   0  0  0  0  0  0  0  0  0  0  0  0
   47.1208   35.0354   41.7179 H   0  0  0  0  0  0  0  0  0  0  0  0
   49.4163   35.4348   42.0316 H   0  0  0  0  0  0  0  0  0  0  0  0
   49.2119   34.8911   43.7105 H   0  0  0  0  0  0  0  0  0  0  0  0
   50.6062   33.6003   41.5677 H   0  0  0  0  0  0  0  0  0  0  0  0
   50.3765   33.0167   43.2468 H   0  0  0  0  0  0  0  0  0  0  0  0
   49.2756   31.9431   40.8727 H   0  0  0  0  0  0  0  0  0  0  0  0
   48.8943   31.4748   42.5513 H   0  0  0  0  0  0  0  0  0  0  0  0
   46.7852   32.3728   42.2253 H   0  0  0  0  0  0  0  0  0  0  0  0
   43.9333   35.0494   45.1324 H   0  0  0  0  0  0  0  0  0  0  0  0
   46.8738   32.1100   47.5963 H   0  0  0  0  0  0  0  0  0  0  0  0
   48.2163   31.9428   46.4333 H   0  0  0  0  0  0  0  0  0  0  0  0
   46.0724   31.0643   40.3777 H   0  0  0  0  0  0  0  0  0  0  0  0
   44.7800   30.2433   38.6579 H   0  0  0  0  0  0  0  0  0  0  0  0
   44.4216   31.2640   37.2239 H   0  0  0  0  0  0  0  0  0  0  0  0
   45.8603   30.1885   37.2239 H   0  0  0  0  0  0  0  0  0  0  0  0
   47.4951   34.7342   37.5972 H   0  0  0  0  0  0  0  0  0  0  0  0
  1  2  1  0
  1  8  1  0
  3  2  1  0
  4  3  1  0
  5  4  1  0
  5  1  1  0
  6 11  2  0
  7  6  1  0
  8  7  2  0
  8  9  1  0
  9 10  2  0
 10 11  1  0
 10 12  1  0
 13 14  1  0
 13 15  1  0
 13  7  1  0
 16 13  1  0
 17  5  1  0
 18 17  1  0
 19 18  2  0
 20 19  1  0
 21 23  1  0
 21 19  1  0
 22 21  2  0
 23 24  1  0
 24 25  2  0
 24 17  1  0
  1 26  1  6
  2 27  1  0
  2 28  1  0
  3 29  1  0
  3 30  1  0
  4 31  1  0
  4 32  1  0
  5 33  1  1
  6 34  1  0
 12 35  1  0
 12 36  1  0
 18 37  1  0
 20 38  1  0
 20 39  1  0
 20 40  1  0
 23 41  1  0
M  ISO  8  26  13  27  13  28  13  29  13  30  13  31  13  32  13  33  13
M  ISO  6  34  14  37  14  38   8  39   8  40   8  41   9
M  END
>  <minimizedAffinity>  (1) 
-6.1599431

>  <minimizedRMSD>  (1) 
1.78419709

$$$$
