
     RDKit          3D

 38 40  0  0  1  0  0  0  0  0999 V2000
   47.6440   34.4170   42.3310 C   0  0  1  0  0  0  0  0  0  0  0  0
   49.1040   34.8480   42.6590 C   0  0  0  0  0  0  0  0  0  0  0  0
   49.9790   33.6830   42.3530 C   0  0  0  0  0  0  0  0  0  0  0  0
   49.1350   32.5730   41.8200 C   0  0  0  0  0  0  0  0  0  0  0  0
   47.7400   33.1110   41.6490 C   0  0  2  0  0  0  0  0  0  0  0  0
   44.9310   34.5030   44.9370 C   0  0  0  0  0  0  0  0  0  0  0  0
   45.6400   34.7960   43.7830 C   0  0  0  0  0  0  0  0  0  0  0  0
   46.8940   34.2520   43.5970 C   0  0  0  0  0  0  0  0  0  0  0  0
   47.4020   33.4380   44.5670 N   0  0  0  0  0  0  0  0  0  0  0  0
   46.6820   33.1680   45.6880 C   0  0  0  0  0  0  0  0  0  0  0  0
   45.4710   33.6920   45.8680 N   0  0  0  0  0  0  0  0  0  0  0  0
   47.3610   32.2640   46.5490 N   0  0  0  0  0  0  0  0  0  0  0  0
   45.0310   35.7310   42.8160 C   0  0  0  0  0  0  0  0  0  0  0  0
   45.5550   37.0020   42.9450 F   0  0  0  0  0  0  0  0  0  0  0  0
   43.6790   35.8350   42.9660 F   0  0  0  0  0  0  0  0  0  0  0  0
   45.2810   35.4220   41.5230 F   0  0  0  0  0  0  0  0  0  0  0  0
   47.4440   33.0800   40.2420 N   0  0  0  0  0  0  0  0  0  0  0  0
   48.0400   33.9480   39.3950 C   0  0  0  0  0  0  0  0  0  0  0  0
   47.7960   33.9700   38.0190 C   0  0  0  0  0  0  0  0  0  0  0  0
   46.8930   33.0370   37.5470 C   0  0  0  0  0  0  0  0  0  0  0  0
   46.5800   32.9450   36.3270 O   0  0  0  0  0  0  0  0  0  0  0  0
   46.2840   32.1590   38.3630 N   0  0  0  0  0  0  0  0  0  0  0  0
   46.5740   32.2050   39.6760 C   0  0  0  0  0  0  0  0  0  0  0  0
   46.0330   31.4060   40.4940 O   0  0  0  0  0  0  0  0  0  0  0  0
   47.1302   35.1619   41.7057 H   0  0  0  0  0  0  0  0  0  0  0  0
   49.3919   35.7101   42.0395 H   0  0  0  0  0  0  0  0  0  0  0  0
   49.1989   35.1448   43.7139 H   0  0  0  0  0  0  0  0  0  0  0  0
   50.7284   33.9712   41.6011 H   0  0  0  0  0  0  0  0  0  0  0  0
   50.4953   33.3537   43.2668 H   0  0  0  0  0  0  0  0  0  0  0  0
   49.5286   32.2335   40.8505 H   0  0  0  0  0  0  0  0  0  0  0  0
   49.1391   31.7161   42.5098 H   0  0  0  0  0  0  0  0  0  0  0  0
   46.9564   32.5073   42.1301 H   0  0  0  0  0  0  0  0  0  0  0  0
   43.9299   34.9313   45.0927 H   0  0  0  0  0  0  0  0  0  0  0  0
   46.9266   31.9735   47.4366 H   0  0  0  0  0  0  0  0  0  0  0  0
   48.2875   31.8993   46.2855 H   0  0  0  0  0  0  0  0  0  0  0  0
   48.7540   34.6747   39.8099 H   0  0  0  0  0  0  0  0  0  0  0  0
   48.2938   34.6882   37.3509 H   0  0  0  0  0  0  0  0  0  0  0  0
   45.6137   31.4700   37.9931 H   0  0  0  0  0  0  0  0  0  0  0  0
  1  2  1  0
  1  8  1  0
  3  2  1  0
  4  3  1  0
  5  4  1  0
  5  1  1  0
  6 11  2  0
  7  6  1  0
  8  7  2  0
  8  9  1  0
  9 10  2  0
 10 11  1  0
 10 12  1  0
 13 14  1  0
 13 15  1  0
 13  7  1  0
 16 13  1  0
 17  5  1  0
 18 17  1  0
 19 18  2  0
 20 19  1  0
 20 22  1  0
 21 20  2  0
 22 23  1  0
 23 17  1  0
 23 24  2  0
  1 25  1  6
  2 26  1  0
  2 27  1  0
  3 28  1  0
  3 29  1  0
  4 30  1  0
  4 31  1  0
  5 32  1  1
  6 33  1  0
 12 34  1  0
 12 35  1  0
 18 36  1  0
 19 37  1  0
 22 38  1  0
M  ISO  8  25  13  26  13  27  13  28  13  29  13  30  13  31  13  32  13
M  ISO  4  33  14  36  14  37  14  38   9
M  END
>  <minimizedAffinity>  (1) 
-5.70485687

>  <minimizedRMSD>  (1) 
1.96598279

$$$$
