
     RDKit          3D

 41 43  0  0  1  0  0  0  0  0999 V2000
   47.5710   34.3620   42.3210 C   0  0  1  0  0  0  0  0  0  0  0  0
   49.0200   34.8500   42.6070 C   0  0  0  0  0  0  0  0  0  0  0  0
   49.9270   33.6890   42.3670 C   0  0  0  0  0  0  0  0  0  0  0  0
   49.1060   32.5520   41.8480 C   0  0  0  0  0  0  0  0  0  0  0  0
   47.6880   33.0220   41.7030 C   0  0  2  0  0  0  0  0  0  0  0  0
   44.9130   34.5550   44.9810 C   0  0  0  0  0  0  0  0  0  0  0  0
   45.6050   34.8060   43.8060 C   0  0  0  0  0  0  0  0  0  0  0  0
   46.8410   34.2330   43.6070 C   0  0  0  0  0  0  0  0  0  0  0  0
   47.3430   33.4310   44.5920 N   0  0  0  0  0  0  0  0  0  0  0  0
   46.6570   33.1970   45.7250 C   0  0  0  0  0  0  0  0  0  0  0  0
   45.4600   33.7510   45.9180 N   0  0  0  0  0  0  0  0  0  0  0  0
   47.3470   32.3190   46.6060 N   0  0  0  0  0  0  0  0  0  0  0  0
   44.9960   35.7400   42.8370 C   0  0  0  0  0  0  0  0  0  0  0  0
   45.5350   37.0090   42.9510 F   0  0  0  0  0  0  0  0  0  0  0  0
   43.6470   35.8590   42.9910 F   0  0  0  0  0  0  0  0  0  0  0  0
   45.2380   35.4240   41.5450 F   0  0  0  0  0  0  0  0  0  0  0  0
   46.3230   32.7350   37.7290 C   0  0  0  0  0  0  0  0  0  0  0  0
   45.7210   31.9010   38.6530 C   0  0  0  0  0  0  0  0  0  0  0  0
   46.1870   32.0130   39.9570 C   0  0  0  0  0  0  0  0  0  0  0  0
   47.1870   32.9000   40.3120 C   0  0  0  0  0  0  0  0  0  0  0  0
   47.7520   33.7040   39.3680 C   0  0  0  0  0  0  0  0  0  0  0  0
   47.3210   33.6240   38.0680 C   0  0  0  0  0  0  0  0  0  0  0  0
   45.6950   32.5530   36.0850 S   0  0  0  0  0  0  0  0  0  0  0  0
   46.7800   32.1710   35.1520 O   0  0  0  0  0  0  0  0  0  0  0  0
   44.5670   31.5770   36.1610 O   0  0  0  0  0  0  0  0  0  0  0  0
   47.0341   35.0641   41.6662 H   0  0  0  0  0  0  0  0  0  0  0  0
   49.2799   35.6783   41.9315 H   0  0  0  0  0  0  0  0  0  0  0  0
   49.1145   35.2148   43.6404 H   0  0  0  0  0  0  0  0  0  0  0  0
   50.6936   33.9625   41.6271 H   0  0  0  0  0  0  0  0  0  0  0  0
   50.4277   33.3992   43.3026 H   0  0  0  0  0  0  0  0  0  0  0  0
   49.4929   32.2299   40.8700 H   0  0  0  0  0  0  0  0  0  0  0  0
   49.1540   31.7014   42.5438 H   0  0  0  0  0  0  0  0  0  0  0  0
   47.0026   32.3602   42.2528 H   0  0  0  0  0  0  0  0  0  0  0  0
   43.9247   35.0079   45.1489 H   0  0  0  0  0  0  0  0  0  0  0  0
   46.9259   32.0606   47.5098 H   0  0  0  0  0  0  0  0  0  0  0  0
   48.2678   31.9416   46.3402 H   0  0  0  0  0  0  0  0  0  0  0  0
   44.9251   31.1949   38.3739 H   0  0  0  0  0  0  0  0  0  0  0  0
   45.7448   31.3733   40.7350 H   0  0  0  0  0  0  0  0  0  0  0  0
   48.5472   34.4114   39.6460 H   0  0  0  0  0  0  0  0  0  0  0  0
   47.7707   34.2677   37.2977 H   0  0  0  0  0  0  0  0  0  0  0  0
   45.2116   33.7293   35.5756 H   0  0  0  0  0  0  0  0  0  0  0  0
  1  2  1  0
  1  8  1  0
  3  2  1  0
  4  3  1  0
  5  4  1  0
  5  1  1  0
  6 11  2  0
  7  6  1  0
  8  7  2  0
  8  9  1  0
  9 10  2  0
 10 11  1  0
 10 12  1  0
 13 14  1  0
 13 15  1  0
 13  7  1  0
 16 13  1  0
 17 22  2  0
 17 18  1  0
 18 19  2  0
 19 20  1  0
 20  5  1  0
 21 20  2  0
 22 21  1  0
 23 25  2  0
 23 17  1  0
 24 23  2  0
  1 26  1  6
  2 27  1  0
  2 28  1  0
  3 29  1  0
  3 30  1  0
  4 31  1  0
  4 32  1  0
  5 33  1  1
  6 34  1  0
 12 35  1  0
 12 36  1  0
 18 37  1  0
 19 38  1  0
 21 39  1  0
 22 40  1  0
 23 41  1  0
M  ISO  8  26  13  27  13  28  13  29  13  30  13  31  13  32  13  33  13
M  ISO  6  34  14  37  14  38  14  39  14  40  14  41  11
M  END
>  <minimizedAffinity>  (1) 
-5.65932035

>  <minimizedRMSD>  (1) 
2.04912567

$$$$
