
     RDKit          3D

 43 45  0  0  1  0  0  0  0  0999 V2000
   47.5410   34.4240   42.2640 C   0  0  1  0  0  0  0  0  0  0  0  0
   48.8480   35.2370   42.5100 C   0  0  0  0  0  0  0  0  0  0  0  0
   49.9800   34.2900   42.3090 C   0  0  0  0  0  0  0  0  0  0  0  0
   49.4350   32.9490   41.9510 C   0  0  0  0  0  0  0  0  0  0  0  0
   47.9440   33.0970   41.7490 C   0  0  2  0  0  0  0  0  0  0  0  0
   44.9430   34.5300   44.9830 C   0  0  0  0  0  0  0  0  0  0  0  0
   45.6100   34.8210   43.8070 C   0  0  0  0  0  0  0  0  0  0  0  0
   46.8380   34.2520   43.5530 C   0  0  0  0  0  0  0  0  0  0  0  0
   47.3580   33.4080   44.4930 N   0  0  0  0  0  0  0  0  0  0  0  0
   46.6890   33.1340   45.6390 C   0  0  0  0  0  0  0  0  0  0  0  0
   45.5050   33.6860   45.8750 N   0  0  0  0  0  0  0  0  0  0  0  0
   47.3870   32.2050   46.4590 N   0  0  0  0  0  0  0  0  0  0  0  0
   44.9840   35.7930   42.8800 C   0  0  0  0  0  0  0  0  0  0  0  0
   45.5400   37.0490   43.0230 F   0  0  0  0  0  0  0  0  0  0  0  0
   43.6410   35.9210   43.0740 F   0  0  0  0  0  0  0  0  0  0  0  0
   45.1870   35.5150   41.5710 F   0  0  0  0  0  0  0  0  0  0  0  0
   47.6410   32.7450   40.4200 N   0  0  0  0  0  0  0  0  0  0  0  0
   48.5470   32.9460   39.3750 C   0  0  0  0  0  0  0  0  0  0  0  0
   48.0470   33.9800   38.3660 C   0  0  0  0  0  0  0  0  0  0  0  0
   46.8800   33.3730   37.6020 C   0  0  0  0  0  0  0  0  0  0  0  0
   46.0530   32.6000   38.5940 C   0  0  0  0  0  0  0  0  0  0  0  0
   46.2910   33.0120   40.0120 C   0  0  0  0  0  0  0  0  0  0  0  0
   46.8777   34.9374   41.5524 H   0  0  0  0  0  0  0  0  0  0  0  0
   48.9177   36.0697   41.7947 H   0  0  0  0  0  0  0  0  0  0  0  0
   48.8642   35.6668   43.5224 H   0  0  0  0  0  0  0  0  0  0  0  0
   50.6255   34.6544   41.4963 H   0  0  0  0  0  0  0  0  0  0  0  0
   50.5704   34.2157   43.2341 H   0  0  0  0  0  0  0  0  0  0  0  0
   49.9047   32.5892   41.0237 H   0  0  0  0  0  0  0  0  0  0  0  0
   49.6450   32.2223   42.7497 H   0  0  0  0  0  0  0  0  0  0  0  0
   47.3165   32.4059   42.3309 H   0  0  0  0  0  0  0  0  0  0  0  0
   43.9621   34.9826   45.1903 H   0  0  0  0  0  0  0  0  0  0  0  0
   46.9857   31.9113   47.3610 H   0  0  0  0  0  0  0  0  0  0  0  0
   48.2938   31.8259   46.1509 H   0  0  0  0  0  0  0  0  0  0  0  0
   49.5013   33.2951   39.7962 H   0  0  0  0  0  0  0  0  0  0  0  0
   48.6682   31.9895   38.8454 H   0  0  0  0  0  0  0  0  0  0  0  0
   47.7152   34.8858   38.8945 H   0  0  0  0  0  0  0  0  0  0  0  0
   48.8545   34.2542   37.6712 H   0  0  0  0  0  0  0  0  0  0  0  0
   46.2738   34.1690   37.1450 H   0  0  0  0  0  0  0  0  0  0  0  0
   47.2399   32.7155   36.7969 H   0  0  0  0  0  0  0  0  0  0  0  0
   44.9898   32.7562   38.3589 H   0  0  0  0  0  0  0  0  0  0  0  0
   46.3458   31.5431   38.5085 H   0  0  0  0  0  0  0  0  0  0  0  0
   46.0956   34.0902   40.1081 H   0  0  0  0  0  0  0  0  0  0  0  0
   45.6152   32.4314   40.6572 H   0  0  0  0  0  0  0  0  0  0  0  0
  1  2  1  0
  1  8  1  0
  3  2  1  0
  4  3  1  0
  5  4  1  0
  5  1  1  0
  6 11  2  0
  7  6  1  0
  8  7  2  0
  8  9  1  0
  9 10  2  0
 10 11  1  0
 10 12  1  0
 13 14  1  0
 13 15  1  0
 13  7  1  0
 16 13  1  0
 17  5  1  0
 18 17  1  0
 19 18  1  0
 20 19  1  0
 20 21  1  0
 21 22  1  0
 22 17  1  0
  1 23  1  6
  2 24  1  0
  2 25  1  0
  3 26  1  0
  3 27  1  0
  4 28  1  0
  4 29  1  0
  5 30  1  1
  6 31  1  0
 12 32  1  0
 12 33  1  0
 18 34  1  0
 18 35  1  0
 19 36  1  0
 19 37  1  0
 20 38  1  0
 20 39  1  0
 21 40  1  0
 21 41  1  0
 22 42  1  0
 22 43  1  0
M  ISO  8  23  13  24  13  25  13  26  13  27  13  28  13  29  13  30  13
M  ISO  8  31  14  34  13  35  13  36  13  37  13  38  13  39  13  40  13
M  ISO  3  41  13  42  13  43  13
M  END
>  <minimizedAffinity>  (1) 
-5.58615923

>  <minimizedRMSD>  (1) 
1.15389764

$$$$
