
     RDKit          3D

 44 46  0  0  1  0  0  0  0  0999 V2000
   47.4830   34.3530   42.2830 C   0  0  1  0  0  0  0  0  0  0  0  0
   48.6750   35.3420   42.4390 C   0  0  0  0  0  0  0  0  0  0  0  0
   49.9190   34.5270   42.3340 C   0  0  0  0  0  0  0  0  0  0  0  0
   49.5490   33.0990   42.1200 C   0  0  0  0  0  0  0  0  0  0  0  0
   48.0560   33.0450   41.8920 C   0  0  2  0  0  0  0  0  0  0  0  0
   44.9200   34.5640   45.0200 C   0  0  0  0  0  0  0  0  0  0  0  0
   45.5740   34.8200   43.8260 C   0  0  0  0  0  0  0  0  0  0  0  0
   46.7950   34.2230   43.5850 C   0  0  0  0  0  0  0  0  0  0  0  0
   47.3130   33.4020   44.5430 N   0  0  0  0  0  0  0  0  0  0  0  0
   46.6510   33.1700   45.7020 C   0  0  0  0  0  0  0  0  0  0  0  0
   45.4770   33.7380   45.9390 N   0  0  0  0  0  0  0  0  0  0  0  0
   47.3690   32.2830   46.5580 N   0  0  0  0  0  0  0  0  0  0  0  0
   44.9550   35.7800   42.8890 C   0  0  0  0  0  0  0  0  0  0  0  0
   45.5510   37.0270   42.9800 F   0  0  0  0  0  0  0  0  0  0  0  0
   43.6230   35.9530   43.1130 F   0  0  0  0  0  0  0  0  0  0  0  0
   45.1260   35.4620   41.5880 F   0  0  0  0  0  0  0  0  0  0  0  0
   47.7280   32.5850   40.4950 C   0  0  0  0  0  0  0  0  0  0  0  0
   46.9050   33.5250   39.6910 C   0  0  0  0  0  0  0  0  0  0  0  0
   47.3720   33.5510   38.2590 C   0  0  0  0  0  0  0  0  0  0  0  0
   47.6230   32.1690   37.7070 C   0  0  0  0  0  0  0  0  0  0  0  0
   48.4110   31.2830   38.6130 C   0  0  0  0  0  0  0  0  0  0  0  0
   48.9470   32.1340   39.7680 C   0  0  0  0  0  0  0  0  0  0  0  0
   46.7619   34.7056   41.5309 H   0  0  0  0  0  0  0  0  0  0  0  0
   48.6479   36.0984   41.6408 H   0  0  0  0  0  0  0  0  0  0  0  0
   48.6277   35.8728   43.4013 H   0  0  0  0  0  0  0  0  0  0  0  0
   50.5220   34.8826   41.4855 H   0  0  0  0  0  0  0  0  0  0  0  0
   50.5050   34.6236   43.2599 H   0  0  0  0  0  0  0  0  0  0  0  0
   50.0776   32.7019   41.2409 H   0  0  0  0  0  0  0  0  0  0  0  0
   49.8295   32.4914   42.9930 H   0  0  0  0  0  0  0  0  0  0  0  0
   47.5805   32.2833   42.5274 H   0  0  0  0  0  0  0  0  0  0  0  0
   43.9457   35.0325   45.2229 H   0  0  0  0  0  0  0  0  0  0  0  0
   46.9773   32.0217   47.4740 H   0  0  0  0  0  0  0  0  0  0  0  0
   48.2792   31.9039   46.2600 H   0  0  0  0  0  0  0  0  0  0  0  0
   47.0682   31.7160   40.6349 H   0  0  0  0  0  0  0  0  0  0  0  0
   45.8539   33.2021   39.7222 H   0  0  0  0  0  0  0  0  0  0  0  0
   47.0068   34.5351   40.1145 H   0  0  0  0  0  0  0  0  0  0  0  0
   46.6015   34.0411   37.6457 H   0  0  0  0  0  0  0  0  0  0  0  0
   48.3242   34.1009   38.2283 H   0  0  0  0  0  0  0  0  0  0  0  0
   46.6505   31.6913   37.5173 H   0  0  0  0  0  0  0  0  0  0  0  0
   48.2201   32.2974   36.7921 H   0  0  0  0  0  0  0  0  0  0  0  0
   47.7651   30.4847   39.0073 H   0  0  0  0  0  0  0  0  0  0  0  0
   49.2443   30.8217   38.0626 H   0  0  0  0  0  0  0  0  0  0  0  0
   49.5927   31.5340   40.4261 H   0  0  0  0  0  0  0  0  0  0  0  0
   49.5609   32.9767   39.4172 H   0  0  0  0  0  0  0  0  0  0  0  0
  1  2  1  0
  1  8  1  0
  3  2  1  0
  4  3  1  0
  5  4  1  0
  5  1  1  0
  6 11  2  0
  7  6  1  0
  8  7  2  0
  8  9  1  0
  9 10  2  0
 10 11  1  0
 10 12  1  0
 13 14  1  0
 13 15  1  0
 13  7  1  0
 16 13  1  0
 17  5  1  0
 18 17  1  0
 19 18  1  0
 20 19  1  0
 20 21  1  0
 21 22  1  0
 22 17  1  0
  1 23  1  6
  2 24  1  0
  2 25  1  0
  3 26  1  0
  3 27  1  0
  4 28  1  0
  4 29  1  0
  5 30  1  1
  6 31  1  0
 12 32  1  0
 12 33  1  0
 17 34  1  0
 18 35  1  0
 18 36  1  0
 19 37  1  0
 19 38  1  0
 20 39  1  0
 20 40  1  0
 21 41  1  0
 21 42  1  0
 22 43  1  0
 22 44  1  0
M  ISO  8  23  13  24  13  25  13  26  13  27  13  28  13  29  13  30  13
M  ISO  8  31  14  34  13  35  13  36  13  37  13  38  13  39  13  40  13
M  ISO  4  41  13  42  13  43  13  44  13
M  END
>  <minimizedAffinity>  (1) 
-5.51719856

>  <minimizedRMSD>  (1) 
1.08773994

$$$$
