
     RDKit          3D

 37 39  0  0  1  0  0  0  0  0999 V2000
   47.5060   34.2900   42.2610 C   0  0  1  0  0  0  0  0  0  0  0  0
   48.3800   35.5810   42.2510 C   0  0  0  0  0  0  0  0  0  0  0  0
   49.8010   35.1350   42.3250 C   0  0  0  0  0  0  0  0  0  0  0  0
   49.8400   33.6420   42.3570 C   0  0  0  0  0  0  0  0  0  0  0  0
   48.4390   33.1520   42.1330 C   0  0  2  0  0  0  0  0  0  0  0  0
   44.8930   34.5700   44.9550 C   0  0  0  0  0  0  0  0  0  0  0  0
   45.5650   34.7870   43.7580 C   0  0  0  0  0  0  0  0  0  0  0  0
   46.7990   34.2020   43.5580 C   0  0  0  0  0  0  0  0  0  0  0  0
   47.3170   33.4270   44.5560 N   0  0  0  0  0  0  0  0  0  0  0  0
   46.6420   33.2320   45.7060 C   0  0  0  0  0  0  0  0  0  0  0  0
   45.4510   33.7940   45.9050 N   0  0  0  0  0  0  0  0  0  0  0  0
   47.3230   32.3510   46.5840 N   0  0  0  0  0  0  0  0  0  0  0  0
   44.9370   35.6800   42.7710 C   0  0  0  0  0  0  0  0  0  0  0  0
   45.4520   36.9580   42.8480 F   0  0  0  0  0  0  0  0  0  0  0  0
   43.5850   35.7760   42.9220 F   0  0  0  0  0  0  0  0  0  0  0  0
   45.1790   35.3320   41.4870 F   0  0  0  0  0  0  0  0  0  0  0  0
   48.4240   32.4180   40.8540 C   0  0  0  0  0  0  0  0  0  0  0  0
   47.2050   31.9940   40.3300 C   0  0  0  0  0  0  0  0  0  0  0  0
   47.1220   31.3030   39.1410 C   0  0  0  0  0  0  0  0  0  0  0  0
   48.2790   31.0160   38.4360 C   0  0  0  0  0  0  0  0  0  0  0  0
   49.4860   31.4390   38.9630 C   0  0  0  0  0  0  0  0  0  0  0  0
   49.5190   32.1080   40.1240 N   0  0  0  0  0  0  0  0  0  0  0  0
   46.7648   34.2919   41.4482 H   0  0  0  0  0  0  0  0  0  0  0  0
   48.2082   36.1483   41.3244 H   0  0  0  0  0  0  0  0  0  0  0  0
   48.1263   36.2380   43.0960 H   0  0  0  0  0  0  0  0  0  0  0  0
   50.3486   35.4996   41.4434 H   0  0  0  0  0  0  0  0  0  0  0  0
   50.2710   35.5391   43.2338 H   0  0  0  0  0  0  0  0  0  0  0  0
   50.5015   33.2660   41.5626 H   0  0  0  0  0  0  0  0  0  0  0  0
   50.2272   33.2840   43.3223 H   0  0  0  0  0  0  0  0  0  0  0  0
   48.0896   32.4340   42.8896 H   0  0  0  0  0  0  0  0  0  0  0  0
   43.9087   35.0302   45.1264 H   0  0  0  0  0  0  0  0  0  0  0  0
   46.9130   32.1177   47.4997 H   0  0  0  0  0  0  0  0  0  0  0  0
   48.2276   31.9444   46.3061 H   0  0  0  0  0  0  0  0  0  0  0  0
   46.2804   32.2177   40.8824 H   0  0  0  0  0  0  0  0  0  0  0  0
   46.1437   30.9815   38.7544 H   0  0  0  0  0  0  0  0  0  0  0  0
   48.2393   30.4670   37.4836 H   0  0  0  0  0  0  0  0  0  0  0  0
   50.4226   31.2255   38.4271 H   0  0  0  0  0  0  0  0  0  0  0  0
  1  8  1  0
  2  1  1  0
  2  3  1  0
  3  4  1  0
  5  1  1  0
  5  4  1  0
  6 11  2  0
  7  6  1  0
  8  7  2  0
  8  9  1  0
  9 10  2  0
 10 11  1  0
 10 12  1  0
 13 14  1  0
 13 15  1  0
 13  7  1  0
 16 13  1  0
 17  5  1  0
 18 17  2  0
 19 18  1  0
 20 21  1  0
 20 19  2  0
 21 22  2  0
 22 17  1  0
  1 23  1  6
  2 24  1  0
  2 25  1  0
  3 26  1  0
  3 27  1  0
  4 28  1  0
  4 29  1  0
  5 30  1  1
  6 31  1  0
 12 32  1  0
 12 33  1  0
 18 34  1  0
 19 35  1  0
 20 36  1  0
 21 37  1  0
M  ISO  8  23  13  24  13  25  13  26  13  27  13  28  13  29  13  30  13
M  ISO  5  31  14  34  14  35  14  36  14  37  14
M  END
>  <minimizedAffinity>  (1) 
-5.44957733

>  <minimizedRMSD>  (1) 
0.731853187

$$$$
