
     RDKit          3D

 52 55  0  0  1  0  0  0  0  0999 V2000
   47.8390   34.6860   41.5390 C   0  0  2  0  0  0  0  0  0  0  0  0
   48.8620   35.6210   41.8550 C   0  0  0  0  0  0  0  0  0  0  0  0
   50.0820   34.8270   42.3450 C   0  0  0  0  0  0  0  0  0  0  0  0
   49.7300   33.3440   42.2540 C   0  0  0  0  0  0  0  0  0  0  0  0
   48.2620   33.3840   42.2900 C   0  0  1  0  0  0  0  0  0  0  0  0
   47.6010   34.2410   40.1350 C   0  0  0  0  0  0  0  0  0  0  0  0
   48.4310   34.7380   39.1500 C   0  0  0  0  0  0  0  0  0  0  0  0
   48.2560   34.3510   37.8380 C   0  0  0  0  0  0  0  0  0  0  0  0
   47.2330   33.4690   37.6020 N   0  0  0  0  0  0  0  0  0  0  0  0
   46.4460   33.0050   38.5780 C   0  0  0  0  0  0  0  0  0  0  0  0
   46.6100   33.3770   39.8600 N   0  0  0  0  0  0  0  0  0  0  0  0
   47.7720   33.4270   43.7010 C   0  0  0  0  0  0  0  0  0  0  0  0
   46.3900   32.8570   43.8000 C   0  0  0  0  0  0  0  0  0  0  0  0
   45.6380   33.7700   44.7370 C   0  0  0  0  0  0  0  0  0  0  0  0
   45.0270   34.9690   44.4720 C   0  0  0  0  0  0  0  0  0  0  0  0
   44.4850   35.4210   45.6340 N   0  0  0  0  0  0  0  0  0  0  0  0
   44.7560   34.5210   46.5840 C   0  0  0  0  0  0  0  0  0  0  0  0
   45.4460   33.5230   46.0690 N   0  0  0  0  0  0  0  0  0  0  0  0
   45.8900   32.3890   46.8580 C   0  0  0  0  0  0  0  0  0  0  0  0
   44.8860   32.0860   47.9780 C   0  0  0  0  0  0  0  0  0  0  0  0
   45.5550   31.7790   49.2820 C   0  0  0  0  0  0  0  0  0  0  0  0
   46.7010   30.8130   48.9660 C   0  0  0  0  0  0  0  0  0  0  0  0
   47.7840   31.6540   48.3250 C   0  0  0  0  0  0  0  0  0  0  0  0
   47.2420   32.7400   47.4390 C   0  0  0  0  0  0  0  0  0  0  0  0
   46.9119   35.2152   41.8043 H   0  0  0  0  0  0  0  0  0  0  0  0
   49.1279   36.2027   40.9601 H   0  0  0  0  0  0  0  0  0  0  0  0
   48.5193   36.3207   42.6315 H   0  0  0  0  0  0  0  0  0  0  0  0
   50.9528   35.0461   41.7097 H   0  0  0  0  0  0  0  0  0  0  0  0
   50.3343   35.1029   43.3795 H   0  0  0  0  0  0  0  0  0  0  0  0
   50.1369   32.7821   43.1076 H   0  0  0  0  0  0  0  0  0  0  0  0
   50.1415   32.8409   41.3666 H   0  0  0  0  0  0  0  0  0  0  0  0
   47.8322   32.4876   41.8191 H   0  0  0  0  0  0  0  0  0  0  0  0
   49.2330   35.4437   39.4121 H   0  0  0  0  0  0  0  0  0  0  0  0
   48.8990   34.7275   37.0288 H   0  0  0  0  0  0  0  0  0  0  0  0
   45.6414   32.2988   38.3253 H   0  0  0  0  0  0  0  0  0  0  0  0
   48.4510   32.8400   44.3369 H   0  0  0  0  0  0  0  0  0  0  0  0
   47.7467   34.4749   44.0345 H   0  0  0  0  0  0  0  0  0  0  0  0
   45.9093   32.8425   42.8107 H   0  0  0  0  0  0  0  0  0  0  0  0
   46.4037   31.8202   44.1673 H   0  0  0  0  0  0  0  0  0  0  0  0
   44.9834   35.4737   43.4956 H   0  0  0  0  0  0  0  0  0  0  0  0
   44.4493   34.6010   47.6374 H   0  0  0  0  0  0  0  0  0  0  0  0
   45.9635   31.4894   46.2293 H   0  0  0  0  0  0  0  0  0  0  0  0
   44.2344   32.9618   48.1137 H   0  0  0  0  0  0  0  0  0  0  0  0
   44.3120   31.1962   47.6799 H   0  0  0  0  0  0  0  0  0  0  0  0
   45.9491   32.7015   49.7334 H   0  0  0  0  0  0  0  0  0  0  0  0
   44.8470   31.3357   49.9977 H   0  0  0  0  0  0  0  0  0  0  0  0
   47.0745   30.3465   49.8895 H   0  0  0  0  0  0  0  0  0  0  0  0
   46.3735   29.9996   48.3018 H   0  0  0  0  0  0  0  0  0  0  0  0
   48.3834   32.1190   49.1216 H   0  0  0  0  0  0  0  0  0  0  0  0
   48.3863   30.9854   47.6924 H   0  0  0  0  0  0  0  0  0  0  0  0
   47.9488   32.9077   46.6129 H   0  0  0  0  0  0  0  0  0  0  0  0
   47.1186   33.6440   48.0535 H   0  0  0  0  0  0  0  0  0  0  0  0
  1  2  1  0
  1  5  1  0
  2  3  1  0
  4  5  1  0
  4  3  1  0
  5 12  1  0
  6  1  1  0
  7  6  2  0
  8  7  1  0
  9  8  2  0
  9 10  1  0
 10 11  2  0
 11  6  1  0
 12 13  1  0
 13 14  1  0
 14 18  1  0
 15 14  2  0
 15 16  1  0
 16 17  2  0
 18 17  1  0
 18 19  1  0
 19 24  1  0
 19 20  1  0
 20 21  1  0
 22 21  1  0
 23 22  1  0
 24 23  1  0
  1 25  1  1
  2 26  1  0
  2 27  1  0
  3 28  1  0
  3 29  1  0
  4 30  1  0
  4 31  1  0
  5 32  1  6
  7 33  1  0
  8 34  1  0
 10 35  1  0
 12 36  1  0
 12 37  1  0
 13 38  1  0
 13 39  1  0
 15 40  1  0
 17 41  1  0
 19 42  1  0
 20 43  1  0
 20 44  1  0
 21 45  1  0
 21 46  1  0
 22 47  1  0
 22 48  1  0
 23 49  1  0
 23 50  1  0
 24 51  1  0
 24 52  1  0
M  ISO  8  25  13  26  13  27  13  28  13  29  13  30  13  31  13  32  13
M  ISO  8  33  14  34  14  35  14  36   8  37   8  38   8  39   8  40  14
M  ISO  8  41  14  42  13  43  13  44  13  45  13  46  13  47  13  48  13
M  ISO  4  49  13  50  13  51  13  52  13
M  END
>  <minimizedAffinity>  (1) 
-6.50492764

>  <minimizedRMSD>  (1) 
1.05039454

$$$$
