
     RDKit          3D

 35 37  0  0  1  0  0  0  0  0999 V2000
   47.3650   34.1740   42.3140 C   0  0  1  0  0  0  0  0  0  0  0  0
   48.1720   35.4900   42.1140 C   0  0  0  0  0  0  0  0  0  0  0  0
   49.6120   35.1430   42.2660 C   0  0  0  0  0  0  0  0  0  0  0  0
   49.7270   33.6750   42.5190 C   0  0  0  0  0  0  0  0  0  0  0  0
   48.3550   33.0780   42.3640 C   0  0  2  0  0  0  0  0  0  0  0  0
   44.7140   34.7510   44.9180 C   0  0  0  0  0  0  0  0  0  0  0  0
   45.4000   34.8240   43.7160 C   0  0  0  0  0  0  0  0  0  0  0  0
   46.6440   34.2400   43.6020 C   0  0  0  0  0  0  0  0  0  0  0  0
   47.1590   33.6060   44.6960 N   0  0  0  0  0  0  0  0  0  0  0  0
   46.4710   33.5460   45.8630 C   0  0  0  0  0  0  0  0  0  0  0  0
   45.2730   34.1080   45.9690 N   0  0  0  0  0  0  0  0  0  0  0  0
   47.1840   32.8230   46.8640 N   0  0  0  0  0  0  0  0  0  0  0  0
   44.7810   35.5960   42.6160 C   0  0  0  0  0  0  0  0  0  0  0  0
   45.2250   36.9060   42.6110 F   0  0  0  0  0  0  0  0  0  0  0  0
   43.4210   35.6310   42.6950 F   0  0  0  0  0  0  0  0  0  0  0  0
   45.1170   35.1580   41.3810 F   0  0  0  0  0  0  0  0  0  0  0  0
   48.3680   32.1380   41.2230 C   0  0  0  0  0  0  0  0  0  0  0  0
   49.1010   32.2820   40.0380 C   0  0  0  0  0  0  0  0  0  0  0  0
   48.8580   31.2010   39.2000 C   0  0  0  0  0  0  0  0  0  0  0  0
   47.9850   30.4360   39.9030 N   0  0  0  0  0  0  0  0  0  0  0  0
   47.7050   30.9780   41.0660 N   0  0  0  0  0  0  0  0  0  0  0  0
   46.6358   34.0195   41.5050 H   0  0  0  0  0  0  0  0  0  0  0  0
   47.8798   36.2316   42.8720 H   0  0  0  0  0  0  0  0  0  0  0  0
   47.9749   35.9255   41.1233 H   0  0  0  0  0  0  0  0  0  0  0  0
   50.1547   35.4035   41.3453 H   0  0  0  0  0  0  0  0  0  0  0  0
   50.0457   35.7034   43.1074 H   0  0  0  0  0  0  0  0  0  0  0  0
   50.4175   33.2221   41.7923 H   0  0  0  0  0  0  0  0  0  0  0  0
   50.1184   33.4866   43.5296 H   0  0  0  0  0  0  0  0  0  0  0  0
   48.0482   32.4633   43.2231 H   0  0  0  0  0  0  0  0  0  0  0  0
   43.7207   35.2132   45.0170 H   0  0  0  0  0  0  0  0  0  0  0  0
   46.7745   32.7011   47.8012 H   0  0  0  0  0  0  0  0  0  0  0  0
   48.1085   32.4226   46.6499 H   0  0  0  0  0  0  0  0  0  0  0  0
   49.7688   33.1247   39.8058 H   0  0  0  0  0  0  0  0  0  0  0  0
   49.2755   31.0099   38.2004 H   0  0  0  0  0  0  0  0  0  0  0  0
   47.5924   29.5448   39.5676 H   0  0  0  0  0  0  0  0  0  0  0  0
  1  5  1  0
  1  8  1  0
  2  3  1  0
  2  1  1  0
  3  4  1  0
  5  4  1  0
  6 11  2  0
  7  6  1  0
  8  7  2  0
  8  9  1  0
  9 10  2  0
 10 11  1  0
 10 12  1  0
 13 15  1  0
 13  7  1  0
 14 13  1  0
 16 13  1  0
 17  5  1  0
 18 17  1  0
 19 20  1  0
 19 18  2  0
 20 21  1  0
 21 17  2  0
  1 22  1  6
  2 23  1  0
  2 24  1  0
  3 25  1  0
  3 26  1  0
  4 27  1  0
  4 28  1  0
  5 29  1  1
  6 30  1  0
 12 31  1  0
 12 32  1  0
 18 33  1  0
 19 34  1  0
 20 35  1  0
M  ISO  8  22  13  23  13  24  13  25  13  26  13  27  13  28  13  29  13
M  ISO  4  30  14  33  14  34  14  35   9
M  END
>  <minimizedAffinity>  (1) 
-5.36510372

>  <minimizedRMSD>  (1) 
0.255784899

$$$$
