
     RDKit          3D

 35 37  0  0  1  0  0  0  0  0999 V2000
   47.2840   34.1900   42.2730 C   0  0  1  0  0  0  0  0  0  0  0  0
   48.1230   35.4900   42.0720 C   0  0  0  0  0  0  0  0  0  0  0  0
   49.5510   35.1170   42.2280 C   0  0  0  0  0  0  0  0  0  0  0  0
   49.6370   33.6430   42.4610 C   0  0  0  0  0  0  0  0  0  0  0  0
   48.2500   33.0740   42.3230 C   0  0  2  0  0  0  0  0  0  0  0  0
   44.6720   34.8340   44.9010 C   0  0  0  0  0  0  0  0  0  0  0  0
   45.3420   34.8800   43.6960 C   0  0  0  0  0  0  0  0  0  0  0  0
   46.5720   34.2770   43.5680 C   0  0  0  0  0  0  0  0  0  0  0  0
   47.0900   33.6440   44.6610 N   0  0  0  0  0  0  0  0  0  0  0  0
   46.4140   33.6100   45.8360 C   0  0  0  0  0  0  0  0  0  0  0  0
   45.2300   34.1950   45.9500 N   0  0  0  0  0  0  0  0  0  0  0  0
   47.1120   32.8610   46.8270 N   0  0  0  0  0  0  0  0  0  0  0  0
   44.7080   35.6270   42.5840 C   0  0  0  0  0  0  0  0  0  0  0  0
   45.1280   36.9410   42.5710 F   0  0  0  0  0  0  0  0  0  0  0  0
   43.3450   35.6340   42.6560 F   0  0  0  0  0  0  0  0  0  0  0  0
   45.0520   35.1860   41.3500 F   0  0  0  0  0  0  0  0  0  0  0  0
   48.2540   32.1630   41.2130 N   0  0  0  0  0  0  0  0  0  0  0  0
   47.5030   31.1030   41.0520 N   0  0  0  0  0  0  0  0  0  0  0  0
   47.7570   30.4690   39.9000 C   0  0  0  0  0  0  0  0  0  0  0  0
   48.7630   31.1990   39.2810 C   0  0  0  0  0  0  0  0  0  0  0  0
   49.0580   32.2530   40.1190 C   0  0  0  0  0  0  0  0  0  0  0  0
   46.5490   34.0491   41.4668 H   0  0  0  0  0  0  0  0  0  0  0  0
   47.8442   36.2394   42.8274 H   0  0  0  0  0  0  0  0  0  0  0  0
   47.9385   35.9251   41.0787 H   0  0  0  0  0  0  0  0  0  0  0  0
   50.1046   35.3806   41.3147 H   0  0  0  0  0  0  0  0  0  0  0  0
   49.9895   35.6579   43.0795 H   0  0  0  0  0  0  0  0  0  0  0  0
   50.3052   33.1848   41.7170 H   0  0  0  0  0  0  0  0  0  0  0  0
   50.0398   33.4351   43.4633 H   0  0  0  0  0  0  0  0  0  0  0  0
   47.9247   32.4726   43.1847 H   0  0  0  0  0  0  0  0  0  0  0  0
   43.6886   35.3155   45.0059 H   0  0  0  0  0  0  0  0  0  0  0  0
   46.7104   32.7539   47.7694 H   0  0  0  0  0  0  0  0  0  0  0  0
   48.0182   32.4267   46.6010 H   0  0  0  0  0  0  0  0  0  0  0  0
   47.2694   29.5582   39.5222 H   0  0  0  0  0  0  0  0  0  0  0  0
   49.2329   30.9791   38.3110 H   0  0  0  0  0  0  0  0  0  0  0  0
   49.8127   33.0319   39.9351 H   0  0  0  0  0  0  0  0  0  0  0  0
  1  5  1  0
  1  8  1  0
  2  3  1  0
  2  1  1  0
  3  4  1  0
  5  4  1  0
  6 11  2  0
  7  6  1  0
  8  7  2  0
  8  9  1  0
  9 10  2  0
 10 11  1  0
 10 12  1  0
 13 15  1  0
 13  7  1  0
 14 13  1  0
 16 13  1  0
 17  5  1  0
 18 17  1  0
 19 18  2  0
 20 19  1  0
 20 21  2  0
 21 17  1  0
  1 22  1  6
  2 23  1  0
  2 24  1  0
  3 25  1  0
  3 26  1  0
  4 27  1  0
  4 28  1  0
  5 29  1  1
  6 30  1  0
 12 31  1  0
 12 32  1  0
 19 33  1  0
 20 34  1  0
 21 35  1  0
M  ISO  8  22  13  23  13  24  13  25  13  26  13  27  13  28  13  29  13
M  ISO  4  30  14  33  14  34  14  35  14
M  END
>  <minimizedAffinity>  (1) 
-5.34609127

>  <minimizedRMSD>  (1) 
0.148458049

$$$$
