
     RDKit          3D

 35 37  0  0  1  0  0  0  0  0999 V2000
   47.3160   34.1920   42.2820 C   0  0  1  0  0  0  0  0  0  0  0  0
   48.1430   35.4990   42.0850 C   0  0  0  0  0  0  0  0  0  0  0  0
   49.5770   35.1280   42.2310 C   0  0  0  0  0  0  0  0  0  0  0  0
   49.6730   33.6570   42.4660 C   0  0  0  0  0  0  0  0  0  0  0  0
   48.2900   33.0810   42.3340 C   0  0  2  0  0  0  0  0  0  0  0  0
   44.6890   34.7930   44.9090 C   0  0  0  0  0  0  0  0  0  0  0  0
   45.3640   34.8600   43.6960 C   0  0  0  0  0  0  0  0  0  0  0  0
   46.6020   34.2680   43.5780 C   0  0  0  0  0  0  0  0  0  0  0  0
   47.1220   33.6340   44.6710 N   0  0  0  0  0  0  0  0  0  0  0  0
   46.4480   33.5800   45.8370 C   0  0  0  0  0  0  0  0  0  0  0  0
   45.2510   34.1510   45.9550 N   0  0  0  0  0  0  0  0  0  0  0  0
   47.1470   32.8460   46.8320 N   0  0  0  0  0  0  0  0  0  0  0  0
   44.7360   35.6190   42.6010 C   0  0  0  0  0  0  0  0  0  0  0  0
   45.1640   36.9340   42.5870 F   0  0  0  0  0  0  0  0  0  0  0  0
   43.3750   35.6340   42.6790 F   0  0  0  0  0  0  0  0  0  0  0  0
   45.0740   35.1800   41.3670 F   0  0  0  0  0  0  0  0  0  0  0  0
   48.2220   32.1160   41.2610 N   0  0  0  0  0  0  0  0  0  0  0  0
   49.1720   31.8520   40.3170 C   0  0  0  0  0  0  0  0  0  0  0  0
   48.7460   30.8700   39.4670 C   0  0  0  0  0  0  0  0  0  0  0  0
   47.5310   30.5130   39.8690 N   0  0  0  0  0  0  0  0  0  0  0  0
   47.2110   31.2580   40.9480 C   0  0  0  0  0  0  0  0  0  0  0  0
   46.5851   34.0493   41.4724 H   0  0  0  0  0  0  0  0  0  0  0  0
   47.8647   36.2415   42.8473 H   0  0  0  0  0  0  0  0  0  0  0  0
   47.9492   35.9430   41.0974 H   0  0  0  0  0  0  0  0  0  0  0  0
   50.1223   35.3918   41.3128 H   0  0  0  0  0  0  0  0  0  0  0  0
   50.0185   35.6711   43.0796 H   0  0  0  0  0  0  0  0  0  0  0  0
   50.3412   33.2014   41.7204 H   0  0  0  0  0  0  0  0  0  0  0  0
   50.0812   33.4528   43.4669 H   0  0  0  0  0  0  0  0  0  0  0  0
   48.0167   32.4843   43.2167 H   0  0  0  0  0  0  0  0  0  0  0  0
   43.6997   35.2618   45.0164 H   0  0  0  0  0  0  0  0  0  0  0  0
   46.7374   32.7310   47.7700 H   0  0  0  0  0  0  0  0  0  0  0  0
   48.0635   32.4288   46.6155 H   0  0  0  0  0  0  0  0  0  0  0  0
   50.1457   32.3594   40.2497 H   0  0  0  0  0  0  0  0  0  0  0  0
   49.3024   30.4549   38.6137 H   0  0  0  0  0  0  0  0  0  0  0  0
   46.2625   31.1827   41.4999 H   0  0  0  0  0  0  0  0  0  0  0  0
  1  5  1  0
  1  8  1  0
  2  3  1  0
  2  1  1  0
  3  4  1  0
  5  4  1  0
  6 11  2  0
  7  6  1  0
  8  7  2  0
  8  9  1  0
  9 10  2  0
 10 11  1  0
 10 12  1  0
 13 15  1  0
 13  7  1  0
 14 13  1  0
 16 13  1  0
 17  5  1  0
 18 17  1  0
 19 20  1  0
 19 18  2  0
 20 21  2  0
 21 17  1  0
  1 22  1  6
  2 23  1  0
  2 24  1  0
  3 25  1  0
  3 26  1  0
  4 27  1  0
  4 28  1  0
  5 29  1  1
  6 30  1  0
 12 31  1  0
 12 32  1  0
 18 33  1  0
 19 34  1  0
 21 35  1  0
M  ISO  8  22  13  23  13  24  13  25  13  26  13  27  13  28  13  29  13
M  ISO  4  30  14  33  14  34  14  35  14
M  END
>  <minimizedAffinity>  (1) 
-5.29065704

>  <minimizedRMSD>  (1) 
0.253089577

$$$$
