
     RDKit          3D

 31 32  0  0  1  0  0  0  0  0999 V2000
   47.2900   34.2040   42.2650 C   0  0  1  0  0  0  0  0  0  0  0  0
   48.1300   35.5000   42.0690 C   0  0  0  0  0  0  0  0  0  0  0  0
   49.5610   35.1200   42.2280 C   0  0  0  0  0  0  0  0  0  0  0  0
   49.6420   33.6490   42.4810 C   0  0  0  0  0  0  0  0  0  0  0  0
   48.2520   33.0860   42.2950 C   0  0  2  0  0  0  0  0  0  0  0  0
   44.6730   34.8230   44.8990 C   0  0  0  0  0  0  0  0  0  0  0  0
   45.3440   34.8780   43.6920 C   0  0  0  0  0  0  0  0  0  0  0  0
   46.5780   34.2810   43.5630 C   0  0  0  0  0  0  0  0  0  0  0  0
   47.0960   33.6480   44.6560 N   0  0  0  0  0  0  0  0  0  0  0  0
   46.4300   33.6040   45.8240 C   0  0  0  0  0  0  0  0  0  0  0  0
   45.2360   34.1840   45.9450 N   0  0  0  0  0  0  0  0  0  0  0  0
   47.1210   32.8610   46.8150 N   0  0  0  0  0  0  0  0  0  0  0  0
   44.7070   35.6270   42.5870 C   0  0  0  0  0  0  0  0  0  0  0  0
   45.1220   36.9430   42.5690 F   0  0  0  0  0  0  0  0  0  0  0  0
   43.3460   35.6310   42.6570 F   0  0  0  0  0  0  0  0  0  0  0  0
   45.0510   35.1910   41.3500 F   0  0  0  0  0  0  0  0  0  0  0  0
   48.3350   32.2670   41.0620 C   0  0  0  0  0  0  0  0  0  0  0  0
   49.1510   32.4310   40.1270 O   0  0  0  0  0  0  0  0  0  0  0  0
   47.4570   31.2100   40.8690 O   0  0  0  0  0  0  0  0  0  0  0  0
   46.5489   34.0722   41.4629 H   0  0  0  0  0  0  0  0  0  0  0  0
   47.8517   36.2485   42.8255 H   0  0  0  0  0  0  0  0  0  0  0  0
   47.9485   35.9390   41.0768 H   0  0  0  0  0  0  0  0  0  0  0  0
   50.1140   35.3685   41.3102 H   0  0  0  0  0  0  0  0  0  0  0  0
   50.0028   35.6699   43.0720 H   0  0  0  0  0  0  0  0  0  0  0  0
   50.3365   33.1816   41.7674 H   0  0  0  0  0  0  0  0  0  0  0  0
   50.0120   33.4475   43.4971 H   0  0  0  0  0  0  0  0  0  0  0  0
   47.8905   32.4405   43.1091 H   0  0  0  0  0  0  0  0  0  0  0  0
   43.6863   35.2972   45.0059 H   0  0  0  0  0  0  0  0  0  0  0  0
   46.7140   32.7531   47.7550 H   0  0  0  0  0  0  0  0  0  0  0  0
   48.0298   32.4293   46.5947 H   0  0  0  0  0  0  0  0  0  0  0  0
   47.5134   30.6638   40.0452 H   0  0  0  0  0  0  0  0  0  0  0  0
  1  5  1  0
  1  8  1  0
  2  3  1  0
  2  1  1  0
  3  4  1  0
  5  4  1  0
  6 11  2  0
  7  6  1  0
  8  7  2  0
  8  9  1  0
  9 10  2  0
 10 11  1  0
 10 12  1  0
 13 15  1  0
 13  7  1  0
 14 13  1  0
 16 13  1  0
 17  5  1  0
 18 17  2  0
 19 17  1  0
  1 20  1  6
  2 21  1  0
  2 22  1  0
  3 23  1  0
  3 24  1  0
  4 25  1  0
  4 26  1  0
  5 27  1  1
  6 28  1  0
 12 29  1  0
 12 30  1  0
 19 31  1  0
M  ISO  8  20  13  21  13  22  13  23  13  24  13  25  13  26  13  27  13
M  ISO  2  28  14  31   3
M  END
>  <minimizedAffinity>  (1) 
-5.22564554

>  <minimizedRMSD>  (1) 
0.128460884

$$$$
