
     RDKit          3D

 29 30  0  0  1  0  0  0  0  0999 V2000
   47.2270   34.1460   42.2580 C   0  0  1  0  0  0  0  0  0  0  0  0
   48.1300   35.3990   42.0610 C   0  0  0  0  0  0  0  0  0  0  0  0
   49.5440   34.9400   42.1960 C   0  0  0  0  0  0  0  0  0  0  0  0
   49.5450   33.4590   42.4140 C   0  0  0  0  0  0  0  0  0  0  0  0
   48.1250   32.9760   42.2610 C   0  0  2  0  0  0  0  0  0  0  0  0
   44.6630   34.8370   44.9200 C   0  0  0  0  0  0  0  0  0  0  0  0
   45.3160   34.8700   43.6970 C   0  0  0  0  0  0  0  0  0  0  0  0
   46.5390   34.2460   43.5640 C   0  0  0  0  0  0  0  0  0  0  0  0
   47.0620   33.6150   44.6570 N   0  0  0  0  0  0  0  0  0  0  0  0
   46.4060   33.5970   45.8400 C   0  0  0  0  0  0  0  0  0  0  0  0
   45.2290   34.1960   45.9680 N   0  0  0  0  0  0  0  0  0  0  0  0
   47.1350   32.8810   46.8380 N   0  0  0  0  0  0  0  0  0  0  0  0
   44.6910   35.6450   42.6030 C   0  0  0  0  0  0  0  0  0  0  0  0
   45.1310   36.9580   42.6060 F   0  0  0  0  0  0  0  0  0  0  0  0
   43.3330   35.6750   42.6880 F   0  0  0  0  0  0  0  0  0  0  0  0
   45.0270   35.2120   41.3660 F   0  0  0  0  0  0  0  0  0  0  0  0
   48.1050   32.1640   41.1420 O   0  0  0  0  0  0  0  0  0  0  0  0
   46.4696   34.0633   41.4646 H   0  0  0  0  0  0  0  0  0  0  0  0
   47.9024   36.1537   42.8282 H   0  0  0  0  0  0  0  0  0  0  0  0
   47.9573   35.8579   41.0763 H   0  0  0  0  0  0  0  0  0  0  0  0
   50.1011   35.1802   41.2784 H   0  0  0  0  0  0  0  0  0  0  0  0
   50.0245   35.4460   43.0464 H   0  0  0  0  0  0  0  0  0  0  0  0
   50.1900   32.9704   41.6688 H   0  0  0  0  0  0  0  0  0  0  0  0
   49.9306   33.2156   43.4150 H   0  0  0  0  0  0  0  0  0  0  0  0
   47.7520   32.3596   43.0922 H   0  0  0  0  0  0  0  0  0  0  0  0
   43.6872   35.3309   45.0375 H   0  0  0  0  0  0  0  0  0  0  0  0
   46.7508   32.7882   47.7892 H   0  0  0  0  0  0  0  0  0  0  0  0
   48.0449   32.4574   46.6065 H   0  0  0  0  0  0  0  0  0  0  0  0
   48.0816   31.2151   41.4232 H   0  0  0  0  0  0  0  0  0  0  0  0
  1  5  1  0
  1  8  1  0
  2  3  1  0
  2  1  1  0
  3  4  1  0
  5  4  1  0
  6 11  2  0
  7  6  1  0
  8  7  2  0
  8  9  1  0
  9 10  2  0
 10 11  1  0
 10 12  1  0
 13 14  1  0
 13 15  1  0
 13  7  1  0
 16 13  1  0
 17  5  1  0
  1 18  1  6
  2 19  1  0
  2 20  1  0
  3 21  1  0
  3 22  1  0
  4 23  1  0
  4 24  1  0
  5 25  1  1
  6 26  1  0
 12 27  1  0
 12 28  1  0
 17 29  1  0
M  ISO  8  18  13  19  13  20  13  21  13  22  13  23  13  24  13  25  13
M  ISO  2  26  14  29   3
M  END
>  <minimizedAffinity>  (1) 
-5.17178631

>  <minimizedRMSD>  (1) 
0.0272065289

$$$$
