
     RDKit          3D

 43 46  0  0  1  0  0  0  0  0999 V2000
   47.9750   34.7300   41.4560 C   0  0  2  0  0  0  0  0  0  0  0  0
   49.0450   35.6120   41.7610 C   0  0  0  0  0  0  0  0  0  0  0  0
   50.2150   34.7500   42.2720 C   0  0  0  0  0  0  0  0  0  0  0  0
   49.7830   33.2950   42.1910 C   0  0  0  0  0  0  0  0  0  0  0  0
   48.3210   33.4120   42.2210 C   0  0  1  0  0  0  0  0  0  0  0  0
   47.7070   34.2840   40.0590 C   0  0  0  0  0  0  0  0  0  0  0  0
   48.5130   34.7880   39.0560 C   0  0  0  0  0  0  0  0  0  0  0  0
   48.3110   34.4090   37.7460 C   0  0  0  0  0  0  0  0  0  0  0  0
   47.2930   33.5290   37.5260 N   0  0  0  0  0  0  0  0  0  0  0  0
   46.5260   33.0550   38.5150 C   0  0  0  0  0  0  0  0  0  0  0  0
   46.7190   33.4230   39.7950 N   0  0  0  0  0  0  0  0  0  0  0  0
   47.8190   33.5070   43.6270 C   0  0  0  0  0  0  0  0  0  0  0  0
   46.4370   32.9590   43.7490 C   0  0  0  0  0  0  0  0  0  0  0  0
   45.5990   34.0790   44.3090 C   0  0  0  0  0  0  0  0  0  0  0  0
   45.0440   35.1530   43.6640 C   0  0  0  0  0  0  0  0  0  0  0  0
   44.3730   35.8980   44.5950 N   0  0  0  0  0  0  0  0  0  0  0  0
   44.5220   35.2850   45.7740 C   0  0  0  0  0  0  0  0  0  0  0  0
   45.2490   34.1960   45.6330 N   0  0  0  0  0  0  0  0  0  0  0  0
   45.7830   32.0530   48.4720 N   0  0  0  0  0  0  0  0  0  0  0  0
   45.0260   32.9680   47.8560 N   0  0  0  0  0  0  0  0  0  0  0  0
   45.6110   33.2930   46.6750 C   0  0  0  0  0  0  0  0  0  0  0  0
   46.7760   32.5480   46.5570 C   0  0  0  0  0  0  0  0  0  0  0  0
   46.8760   31.7620   47.7080 C   0  0  0  0  0  0  0  0  0  0  0  0
   47.0815   35.3158   41.7175 H   0  0  0  0  0  0  0  0  0  0  0  0
   49.3486   36.1623   40.8583 H   0  0  0  0  0  0  0  0  0  0  0  0
   48.7406   36.3468   42.5209 H   0  0  0  0  0  0  0  0  0  0  0  0
   51.1033   34.9131   41.6441 H   0  0  0  0  0  0  0  0  0  0  0  0
   50.4708   35.0202   43.3072 H   0  0  0  0  0  0  0  0  0  0  0  0
   50.1560   32.7183   43.0502 H   0  0  0  0  0  0  0  0  0  0  0  0
   50.1687   32.7651   41.3076 H   0  0  0  0  0  0  0  0  0  0  0  0
   47.8518   32.5292   41.7622 H   0  0  0  0  0  0  0  0  0  0  0  0
   49.3190   35.4944   39.3039 H   0  0  0  0  0  0  0  0  0  0  0  0
   48.9348   34.7941   36.9259 H   0  0  0  0  0  0  0  0  0  0  0  0
   45.7183   32.3475   38.2759 H   0  0  0  0  0  0  0  0  0  0  0  0
   48.4899   32.9364   44.2860 H   0  0  0  0  0  0  0  0  0  0  0  0
   47.7978   34.5680   43.9164 H   0  0  0  0  0  0  0  0  0  0  0  0
   46.0578   32.6531   42.7628 H   0  0  0  0  0  0  0  0  0  0  0  0
   46.4097   32.0702   44.3966 H   0  0  0  0  0  0  0  0  0  0  0  0
   45.1237   35.3763   42.5899 H   0  0  0  0  0  0  0  0  0  0  0  0
   44.0982   35.6395   46.7252 H   0  0  0  0  0  0  0  0  0  0  0  0
   45.5722   31.6306   49.3874 H   0  0  0  0  0  0  0  0  0  0  0  0
   47.4858   32.5718   45.7170 H   0  0  0  0  0  0  0  0  0  0  0  0
   47.6778   31.0491   47.9506 H   0  0  0  0  0  0  0  0  0  0  0  0
  1  2  1  0
  1  5  1  0
  2  3  1  0
  4  5  1  0
  4  3  1  0
  5 12  1  0
  6  1  1  0
  7  6  2  0
  8  7  1  0
  9  8  2  0
  9 10  1  0
 10 11  2  0
 11  6  1  0
 12 13  1  0
 13 14  1  0
 14 18  1  0
 15 14  2  0
 15 16  1  0
 16 17  2  0
 18 17  1  0
 18 21  1  0
 20 19  1  0
 21 20  2  0
 22 21  1  0
 22 23  2  0
 23 19  1  0
  1 24  1  1
  2 25  1  0
  2 26  1  0
  3 27  1  0
  3 28  1  0
  4 29  1  0
  4 30  1  0
  5 31  1  6
  7 32  1  0
  8 33  1  0
 10 34  1  0
 12 35  1  0
 12 36  1  0
 13 37  1  0
 13 38  1  0
 15 39  1  0
 17 40  1  0
 19 41  1  0
 22 42  1  0
 23 43  1  0
M  ISO  8  24  13  25  13  26  13  27  13  28  13  29  13  30  13  31  13
M  ISO  8  32  14  33  14  34  14  35   8  36   8  37   8  38   8  39  14
M  ISO  4  40  14  41   9  42  14  43  14
M  END
>  <minimizedAffinity>  (1) 
-6.48394966

>  <minimizedRMSD>  (1) 
0.811836839

$$$$
