
     RDKit          3D

 45 48  0  0  1  0  0  0  0  0999 V2000
   48.6150   34.1300   42.6350 C   0  0  1  0  0  0  0  0  0  0  0  0
   49.6300   35.3160   42.7130 C   0  0  0  0  0  0  0  0  0  0  0  0
   49.4400   36.1160   41.4900 C   0  0  0  0  0  0  0  0  0  0  0  0
   48.3610   35.5050   40.6810 C   0  0  0  0  0  0  0  0  0  0  0  0
   47.7410   34.4230   41.5320 C   0  0  2  0  0  0  0  0  0  0  0  0
   49.5940   30.5170   42.7040 C   0  0  0  0  0  0  0  0  0  0  0  0
   48.8700   31.6770   42.9550 C   0  0  0  0  0  0  0  0  0  0  0  0
   49.3510   32.8720   42.4720 C   0  0  0  0  0  0  0  0  0  0  0  0
   50.5070   32.8980   41.7740 N   0  0  0  0  0  0  0  0  0  0  0  0
   51.2000   31.7620   41.5380 C   0  0  0  0  0  0  0  0  0  0  0  0
   50.7410   30.5970   41.9990 N   0  0  0  0  0  0  0  0  0  0  0  0
   52.3830   32.0070   40.7830 N   0  0  0  0  0  0  0  0  0  0  0  0
   47.6430   31.5480   43.7580 C   0  0  0  0  0  0  0  0  0  0  0  0
   47.5720   32.5630   44.7030 F   0  0  0  0  0  0  0  0  0  0  0  0
   47.5610   30.3840   44.4440 F   0  0  0  0  0  0  0  0  0  0  0  0
   46.5150   31.6510   43.0520 F   0  0  0  0  0  0  0  0  0  0  0  0
   46.3140   34.6500   41.8160 C   0  0  0  0  0  0  0  0  0  0  0  0
   45.8450   35.3020   42.9690 C   0  0  0  0  0  0  0  0  0  0  0  0
   44.5250   35.5970   43.1920 C   0  0  0  0  0  0  0  0  0  0  0  0
   43.6340   35.2220   42.1890 C   0  0  0  0  0  0  0  0  0  0  0  0
   44.1030   34.5700   41.0470 C   0  0  0  0  0  0  0  0  0  0  0  0
   45.4220   34.2760   40.8680 C   0  0  0  0  0  0  0  0  0  0  0  0
   45.3990   33.3440   39.6830 C   0  0  0  0  0  0  0  0  0  0  0  0
   46.0090   31.9130   39.8220 C   0  0  0  0  0  0  0  0  0  0  0  0
   44.5950   32.0670   39.6970 C   0  0  0  0  0  0  0  0  0  0  0  0
   48.0152   34.0142   43.5498 H   0  0  0  0  0  0  0  0  0  0  0  0
   49.4281   35.9301   43.6030 H   0  0  0  0  0  0  0  0  0  0  0  0
   50.6639   34.9481   42.7889 H   0  0  0  0  0  0  0  0  0  0  0  0
   49.1609   37.1448   41.7612 H   0  0  0  0  0  0  0  0  0  0  0  0
   50.3743   36.1381   40.9098 H   0  0  0  0  0  0  0  0  0  0  0  0
   47.6065   36.2622   40.4214 H   0  0  0  0  0  0  0  0  0  0  0  0
   48.7563   35.0918   39.7413 H   0  0  0  0  0  0  0  0  0  0  0  0
   47.6708   33.4794   40.9711 H   0  0  0  0  0  0  0  0  0  0  0  0
   49.2357   29.5457   43.0759 H   0  0  0  0  0  0  0  0  0  0  0  0
   53.0053   31.2253   40.5326 H   0  0  0  0  0  0  0  0  0  0  0  0
   52.6160   32.9658   40.4875 H   0  0  0  0  0  0  0  0  0  0  0  0
   46.5784   35.5920   43.7358 H   0  0  0  0  0  0  0  0  0  0  0  0
   44.1887   36.1009   44.1102 H   0  0  0  0  0  0  0  0  0  0  0  0
   42.5611   35.4395   42.2967 H   0  0  0  0  0  0  0  0  0  0  0  0
   43.3839   34.2839   40.2653 H   0  0  0  0  0  0  0  0  0  0  0  0
   45.4952   34.2111   39.0130 H   0  0  0  0  0  0  0  0  0  0  0  0
   46.5894   31.4810   38.9934 H   0  0  0  0  0  0  0  0  0  0  0  0
   46.6742   31.4208   40.5468 H   0  0  0  0  0  0  0  0  0  0  0  0
   43.9512   31.8460   40.5611 H   0  0  0  0  0  0  0  0  0  0  0  0
   43.8494   31.6398   39.0103 H   0  0  0  0  0  0  0  0  0  0  0  0
  1  2  1  0
  3  2  1  0
  4  3  1  0
  4  5  1  0
  5 17  1  0
  5  1  1  0
  6  7  2  0
  7 13  1  0
  8  1  1  0
  8  7  1  0
  9  8  2  0
 10  9  1  0
 10 11  2  0
 11  6  1  0
 12 10  1  0
 13 15  1  0
 13 14  1  0
 16 13  1  0
 17 18  2  0
 18 19  1  0
 20 19  2  0
 21 20  1  0
 22 21  2  0
 22 17  1  0
 23 25  1  0
 23 24  1  0
 23 22  1  0
 25 24  1  0
  1 26  1  1
  2 27  1  0
  2 28  1  0
  3 29  1  0
  3 30  1  0
  4 31  1  0
  4 32  1  0
  5 33  1  6
  6 34  1  0
 12 35  1  0
 12 36  1  0
 18 37  1  0
 19 38  1  0
 20 39  1  0
 21 40  1  0
 23 41  1  0
 24 42  1  0
 24 43  1  0
 25 44  1  0
 25 45  1  0
M  ISO  8  26  13  27  13  28  13  29  13  30  13  31  13  32  13  33  13
M  ISO  8  34  14  37  14  38  14  39  14  40  14  41  13  42  13  43  13
M  ISO  2  44  13  45  13
M  END
>  <minimizedAffinity>  (1) 
-6.06943464

>  <minimizedRMSD>  (1) 
4.83461428

$$$$
