
     RDKit          3D

 44 46  0  0  1  0  0  0  0  0999 V2000
   47.4350   34.1940   42.3660 C   0  0  1  0  0  0  0  0  0  0  0  0
   48.6820   35.1250   42.4920 C   0  0  0  0  0  0  0  0  0  0  0  0
   49.8720   34.2550   42.4020 C   0  0  0  0  0  0  0  0  0  0  0  0
   49.4260   32.8570   42.1790 C   0  0  0  0  0  0  0  0  0  0  0  0
   47.9320   32.9020   41.9550 C   0  0  2  0  0  0  0  0  0  0  0  0
   44.8960   34.6750   45.0790 C   0  0  0  0  0  0  0  0  0  0  0  0
   45.5470   34.8200   43.8620 C   0  0  0  0  0  0  0  0  0  0  0  0
   46.7270   34.1470   43.6510 C   0  0  0  0  0  0  0  0  0  0  0  0
   47.2310   33.3650   44.6320 N   0  0  0  0  0  0  0  0  0  0  0  0
   46.5900   33.2330   45.8100 C   0  0  0  0  0  0  0  0  0  0  0  0
   45.4430   33.8810   46.0210 N   0  0  0  0  0  0  0  0  0  0  0  0
   47.2780   32.3530   46.6970 N   0  0  0  0  0  0  0  0  0  0  0  0
   44.9370   35.7310   42.8810 C   0  0  0  0  0  0  0  0  0  0  0  0
   45.4450   37.0190   43.0150 F   0  0  0  0  0  0  0  0  0  0  0  0
   43.5890   35.8370   42.9920 F   0  0  0  0  0  0  0  0  0  0  0  0
   45.1860   35.4110   41.6020 F   0  0  0  0  0  0  0  0  0  0  0  0
   47.5390   32.3970   40.6300 C   0  0  0  0  0  0  0  0  0  0  0  0
   47.0120   31.1150   40.4270 C   0  0  0  0  0  0  0  0  0  0  0  0
   46.5210   30.6930   39.1960 C   0  0  0  0  0  0  0  0  0  0  0  0
   46.5700   31.6360   38.1660 C   0  0  0  0  0  0  0  0  0  0  0  0
   47.1000   32.9040   38.3700 C   0  0  0  0  0  0  0  0  0  0  0  0
   47.5890   33.2680   39.5990 C   0  0  0  0  0  0  0  0  0  0  0  0
   48.2330   34.5330   39.1160 C   0  0  0  0  0  0  0  0  0  0  0  0
   48.4370   34.5220   37.5500 C   0  0  0  0  0  0  0  0  0  0  0  0
   46.7071   34.5581   41.6260 H   0  0  0  0  0  0  0  0  0  0  0  0
   48.6887   35.8622   41.6756 H   0  0  0  0  0  0  0  0  0  0  0  0
   48.6678   35.6789   43.4422 H   0  0  0  0  0  0  0  0  0  0  0  0
   50.5048   34.5796   41.5628 H   0  0  0  0  0  0  0  0  0  0  0  0
   50.4528   34.3181   43.3341 H   0  0  0  0  0  0  0  0  0  0  0  0
   49.9283   32.4363   41.2954 H   0  0  0  0  0  0  0  0  0  0  0  0
   49.6753   32.2223   43.0421 H   0  0  0  0  0  0  0  0  0  0  0  0
   47.4105   32.1808   42.6015 H   0  0  0  0  0  0  0  0  0  0  0  0
   43.9486   35.1997   45.2719 H   0  0  0  0  0  0  0  0  0  0  0  0
   46.8950   32.1634   47.6341 H   0  0  0  0  0  0  0  0  0  0  0  0
   48.1579   31.9072   46.4004 H   0  0  0  0  0  0  0  0  0  0  0  0
   46.9855   30.4144   41.2746 H   0  0  0  0  0  0  0  0  0  0  0  0
   46.1193   29.6805   39.0429 H   0  0  0  0  0  0  0  0  0  0  0  0
   46.1807   31.3687   37.1725 H   0  0  0  0  0  0  0  0  0  0  0  0
   47.1278   33.6230   37.5380 H   0  0  0  0  0  0  0  0  0  0  0  0
   47.5922   35.3852   39.3863 H   0  0  0  0  0  0  0  0  0  0  0  0
   49.2217   34.6180   39.5906 H   0  0  0  0  0  0  0  0  0  0  0  0
   49.5112   34.4641   37.3206 H   0  0  0  0  0  0  0  0  0  0  0  0
   47.9226   33.6503   37.1193 H   0  0  0  0  0  0  0  0  0  0  0  0
   48.0193   35.4440   37.1193 H   0  0  0  0  0  0  0  0  0  0  0  0
  1  2  1  0
  1  8  1  0
  3  2  1  0
  4  3  1  0
  5  4  1  0
  5  1  1  0
  6 11  2  0
  7  6  1  0
  8  7  2  0
  8  9  1  0
  9 10  2  0
 10 11  1  0
 10 12  1  0
 13 15  1  0
 13 14  1  0
 13  7  1  0
 16 13  1  0
 17  5  1  0
 18 17  2  0
 19 18  1  0
 20 21  1  0
 20 19  2  0
 21 22  2  0
 22 17  1  0
 23 22  1  0
 24 23  1  0
  1 25  1  6
  2 26  1  0
  2 27  1  0
  3 28  1  0
  3 29  1  0
  4 30  1  0
  4 31  1  0
  5 32  1  1
  6 33  1  0
 12 34  1  0
 12 35  1  0
 18 36  1  0
 19 37  1  0
 20 38  1  0
 21 39  1  0
 23 40  1  0
 23 41  1  0
 24 42  1  0
 24 43  1  0
 24 44  1  0
M  ISO  8  25  13  26  13  27  13  28  13  29  13  30  13  31  13  32  13
M  ISO  8  33  14  36  14  37  14  38  14  39  14  40   8  41   8  42   8
M  ISO  2  43   8  44   8
M  END
>  <minimizedAffinity>  (1) 
-5.9308691

>  <minimizedRMSD>  (1) 
0.41567573

$$$$
