
     RDKit          3D

 49 52  0  0  1  0  0  0  0  0999 V2000
   47.6890   33.5090   43.5260 C   0  0  0  0  0  0  0  0  0  0  0  0
   47.9010   34.7450   41.3640 C   0  0  2  0  0  0  0  0  0  0  0  0
   48.9690   35.6170   41.7150 C   0  0  0  0  0  0  0  0  0  0  0  0
   50.1180   34.7470   42.2600 C   0  0  0  0  0  0  0  0  0  0  0  0
   49.6880   33.2970   42.1460 C   0  0  0  0  0  0  0  0  0  0  0  0
   48.2240   33.4200   42.1330 C   0  0  1  0  0  0  0  0  0  0  0  0
   47.6780   34.3120   39.9670 C   0  0  0  0  0  0  0  0  0  0  0  0
   48.5150   34.8110   38.9880 C   0  0  0  0  0  0  0  0  0  0  0  0
   48.3560   34.4330   37.6700 C   0  0  0  0  0  0  0  0  0  0  0  0
   47.3350   33.5520   37.4170 N   0  0  0  0  0  0  0  0  0  0  0  0
   46.5400   33.0850   38.3840 C   0  0  0  0  0  0  0  0  0  0  0  0
   46.6930   33.4510   39.6610 N   0  0  0  0  0  0  0  0  0  0  0  0
   46.2770   33.0250   43.5910 C   0  0  0  0  0  0  0  0  0  0  0  0
   45.4840   34.1430   44.2070 C   0  0  0  0  0  0  0  0  0  0  0  0
   44.8820   35.2170   43.6060 C   0  0  0  0  0  0  0  0  0  0  0  0
   44.2850   35.9500   44.5890 N   0  0  0  0  0  0  0  0  0  0  0  0
   44.5110   35.3490   45.7500 C   0  0  0  0  0  0  0  0  0  0  0  0
   45.2260   34.2650   45.5440 N   0  0  0  0  0  0  0  0  0  0  0  0
   46.9820   31.5080   48.1370 C   0  0  0  0  0  0  0  0  0  0  0  0
   47.6210   31.9560   47.0050 C   0  0  0  0  0  0  0  0  0  0  0  0
   46.9650   32.8730   46.1990 C   0  0  0  0  0  0  0  0  0  0  0  0
   45.6850   33.3350   46.5210 C   0  0  0  0  0  0  0  0  0  0  0  0
   45.0620   32.8720   47.6620 C   0  0  0  0  0  0  0  0  0  0  0  0
   45.7200   31.9610   48.4610 C   0  0  0  0  0  0  0  0  0  0  0  0
   47.7700   30.3490   49.1910 S   0  0  0  0  0  0  0  0  0  0  0  0
   48.9500   31.0650   49.8040 O   0  0  0  0  0  0  0  0  0  0  0  0
   48.3800   29.2740   48.3060 O   0  0  0  0  0  0  0  0  0  0  0  0
   47.7254   34.5568   43.8587 H   0  0  0  0  0  0  0  0  0  0  0  0
   48.3065   32.8747   44.1790 H   0  0  0  0  0  0  0  0  0  0  0  0
   47.0002   35.3327   41.5946 H   0  0  0  0  0  0  0  0  0  0  0  0
   49.3070   36.1727   40.8279 H   0  0  0  0  0  0  0  0  0  0  0  0
   48.6417   36.3448   42.4721 H   0  0  0  0  0  0  0  0  0  0  0  0
   51.0297   34.9157   41.6681 H   0  0  0  0  0  0  0  0  0  0  0  0
   50.3350   35.0048   43.3071 H   0  0  0  0  0  0  0  0  0  0  0  0
   50.0602   32.8403   41.2171 H   0  0  0  0  0  0  0  0  0  0  0  0
   50.0746   32.6524   42.9491 H   0  0  0  0  0  0  0  0  0  0  0  0
   47.7632   32.5436   41.6538 H   0  0  0  0  0  0  0  0  0  0  0  0
   49.3147   35.5153   39.2609 H   0  0  0  0  0  0  0  0  0  0  0  0
   49.0083   34.8149   36.8709 H   0  0  0  0  0  0  0  0  0  0  0  0
   45.7373   32.3798   38.1224 H   0  0  0  0  0  0  0  0  0  0  0  0
   45.9025   32.8021   42.5810 H   0  0  0  0  0  0  0  0  0  0  0  0
   46.1948   32.1001   44.1808 H   0  0  0  0  0  0  0  0  0  0  0  0
   44.8805   35.4457   42.5300 H   0  0  0  0  0  0  0  0  0  0  0  0
   44.1564   35.7017   46.7297 H   0  0  0  0  0  0  0  0  0  0  0  0
   48.6274   31.5957   46.7456 H   0  0  0  0  0  0  0  0  0  0  0  0
   47.4602   33.2441   45.2896 H   0  0  0  0  0  0  0  0  0  0  0  0
   44.0551   33.2246   47.9302 H   0  0  0  0  0  0  0  0  0  0  0  0
   45.2299   31.5889   49.3728 H   0  0  0  0  0  0  0  0  0  0  0  0
   46.8973   29.8397   50.1162 H   0  0  0  0  0  0  0  0  0  0  0  0
  1 13  1  0
  2  3  1  0
  2  6  1  0
  3  4  1  0
  5  4  1  0
  6  5  1  0
  6  1  1  0
  7  2  1  0
  8  7  2  0
  9  8  1  0
 10  9  2  0
 10 11  1  0
 11 12  2  0
 12  7  1  0
 13 14  1  0
 14 18  1  0
 15 14  2  0
 15 16  1  0
 16 17  2  0
 18 17  1  0
 18 22  1  0
 19 24  2  0
 19 25  1  0
 20 19  1  0
 21 22  1  0
 21 20  2  0
 22 23  2  0
 23 24  1  0
 25 26  2  0
 27 25  2  0
  1 28  1  0
  1 29  1  0
  2 30  1  1
  3 31  1  0
  3 32  1  0
  4 33  1  0
  4 34  1  0
  5 35  1  0
  5 36  1  0
  6 37  1  6
  8 38  1  0
  9 39  1  0
 11 40  1  0
 13 41  1  0
 13 42  1  0
 15 43  1  0
 17 44  1  0
 20 45  1  0
 21 46  1  0
 23 47  1  0
 24 48  1  0
 25 49  1  0
M  ISO  8  28   8  29   8  30  13  31  13  32  13  33  13  34  13  35  13
M  ISO  8  36  13  37  13  38  14  39  14  40  14  41   8  42   8  43  14
M  ISO  6  44  14  45  14  46  14  47  14  48  14  49  11
M  END
>  <minimizedAffinity>  (1) 
-6.34662724

>  <minimizedRMSD>  (1) 
1.21961713

$$$$
