
     RDKit          3D

 46 49  0  0  1  0  0  0  0  0999 V2000
   47.9580   34.5940   41.6250 C   0  0  2  0  0  0  0  0  0  0  0  0
   49.0770   35.4350   41.8810 C   0  0  0  0  0  0  0  0  0  0  0  0
   50.2370   34.5220   42.3250 C   0  0  0  0  0  0  0  0  0  0  0  0
   49.7320   33.0820   42.2660 C   0  0  0  0  0  0  0  0  0  0  0  0
   48.2760   33.2580   42.3700 C   0  0  1  0  0  0  0  0  0  0  0  0
   47.6050   34.1750   40.2460 C   0  0  0  0  0  0  0  0  0  0  0  0
   48.4020   34.6430   39.2020 C   0  0  0  0  0  0  0  0  0  0  0  0
   48.1050   34.2740   37.9010 C   0  0  0  0  0  0  0  0  0  0  0  0
   47.0230   33.4570   37.7290 N   0  0  0  0  0  0  0  0  0  0  0  0
   46.2820   33.0300   38.7560 C   0  0  0  0  0  0  0  0  0  0  0  0
   46.5570   33.3790   40.0260 N   0  0  0  0  0  0  0  0  0  0  0  0
   47.8620   33.3790   43.7970 C   0  0  0  0  0  0  0  0  0  0  0  0
   46.5220   32.7510   44.0260 C   0  0  0  0  0  0  0  0  0  0  0  0
   45.6700   33.8130   44.6600 C   0  0  0  0  0  0  0  0  0  0  0  0
   45.0250   34.8700   44.0740 C   0  0  0  0  0  0  0  0  0  0  0  0
   44.3860   35.5580   45.0660 N   0  0  0  0  0  0  0  0  0  0  0  0
   44.6320   34.9400   46.2150 C   0  0  0  0  0  0  0  0  0  0  0  0
   45.3990   33.8930   46.0000 N   0  0  0  0  0  0  0  0  0  0  0  0
   45.8950   32.9630   46.9570 C   0  0  0  0  0  0  0  0  0  0  0  0
   47.1900   32.5580   47.1950 C   0  0  0  0  0  0  0  0  0  0  0  0
   47.4390   31.6330   48.1890 C   0  0  0  0  0  0  0  0  0  0  0  0
   46.4310   31.0950   48.9570 C   0  0  0  0  0  0  0  0  0  0  0  0
   45.1280   31.5020   48.7190 C   0  0  0  0  0  0  0  0  0  0  0  0
   44.8650   32.4260   47.7300 C   0  0  0  0  0  0  0  0  0  0  0  0
   47.1041   35.2145   41.9345 H   0  0  0  0  0  0  0  0  0  0  0  0
   49.3551   35.9816   40.9678 H   0  0  0  0  0  0  0  0  0  0  0  0
   48.8408   36.1752   42.6597 H   0  0  0  0  0  0  0  0  0  0  0  0
   51.0949   34.6478   41.6481 H   0  0  0  0  0  0  0  0  0  0  0  0
   50.5649   34.7775   43.3434 H   0  0  0  0  0  0  0  0  0  0  0  0
   50.0086   32.6011   41.3161 H   0  0  0  0  0  0  0  0  0  0  0  0
   50.1550   32.4338   43.0476 H   0  0  0  0  0  0  0  0  0  0  0  0
   47.7406   32.3991   41.9391 H   0  0  0  0  0  0  0  0  0  0  0  0
   49.2595   35.2998   39.4102 H   0  0  0  0  0  0  0  0  0  0  0  0
   48.7089   34.6206   37.0495 H   0  0  0  0  0  0  0  0  0  0  0  0
   45.4218   32.3738   38.5571 H   0  0  0  0  0  0  0  0  0  0  0  0
   48.6072   32.8762   44.4309 H   0  0  0  0  0  0  0  0  0  0  0  0
   47.7947   34.4471   44.0513 H   0  0  0  0  0  0  0  0  0  0  0  0
   46.0827   32.4285   43.0705 H   0  0  0  0  0  0  0  0  0  0  0  0
   46.5987   31.8602   44.6668 H   0  0  0  0  0  0  0  0  0  0  0  0
   45.0222   35.1187   43.0025 H   0  0  0  0  0  0  0  0  0  0  0  0
   44.2521   35.2556   47.1979 H   0  0  0  0  0  0  0  0  0  0  0  0
   48.0182   32.9680   46.5984 H   0  0  0  0  0  0  0  0  0  0  0  0
   48.4760   31.3156   48.3733 H   0  0  0  0  0  0  0  0  0  0  0  0
   46.6551   30.3582   49.7424 H   0  0  0  0  0  0  0  0  0  0  0  0
   44.3039   31.0882   49.3187 H   0  0  0  0  0  0  0  0  0  0  0  0
   43.8280   32.7445   47.5477 H   0  0  0  0  0  0  0  0  0  0  0  0
  1  2  1  0
  1  5  1  0
  2  3  1  0
  4  3  1  0
  4  5  1  0
  5 12  1  0
  6  1  1  0
  7  6  2  0
  8  7  1  0
  9  8  2  0
  9 10  1  0
 10 11  2  0
 11  6  1  0
 12 13  1  0
 13 14  1  0
 14 18  1  0
 15 14  2  0
 15 16  1  0
 16 17  2  0
 18 17  1  0
 18 19  1  0
 19 20  2  0
 19 24  1  0
 20 21  1  0
 21 22  2  0
 23 22  1  0
 24 23  2  0
  1 25  1  1
  2 26  1  0
  2 27  1  0
  3 28  1  0
  3 29  1  0
  4 30  1  0
  4 31  1  0
  5 32  1  6
  7 33  1  0
  8 34  1  0
 10 35  1  0
 12 36  1  0
 12 37  1  0
 13 38  1  0
 13 39  1  0
 15 40  1  0
 17 41  1  0
 20 42  1  0
 21 43  1  0
 22 44  1  0
 23 45  1  0
 24 46  1  0
M  ISO  8  25  13  26  13  27  13  28  13  29  13  30  13  31  13  32  13
M  ISO  8  33  14  34  14  35  14  36   8  37   8  38   8  39   8  40  14
M  ISO  6  41  14  42  14  43  14  44  14  45  14  46  14
M  END
>  <minimizedAffinity>  (1) 
-6.33514404

>  <minimizedRMSD>  (1) 
1.22777569

$$$$
