
     RDKit          3D

 42 44  0  0  1  0  0  0  0  0999 V2000
   46.9810   33.9960   42.2390 C   0  0  1  0  0  0  0  0  0  0  0  0
   48.1720   34.9700   42.0930 C   0  0  0  0  0  0  0  0  0  0  0  0
   49.3880   34.1280   42.1020 C   0  0  0  0  0  0  0  0  0  0  0  0
   49.0110   32.7220   42.2030 C   0  0  0  0  0  0  0  0  0  0  0  0
   47.4950   32.6250   42.1200 C   0  0  2  0  0  0  0  0  0  0  0  0
   44.6360   35.0380   44.9780 C   0  0  0  0  0  0  0  0  0  0  0  0
   45.1960   34.9430   43.7110 C   0  0  0  0  0  0  0  0  0  0  0  0
   46.3170   34.1800   43.5410 C   0  0  0  0  0  0  0  0  0  0  0  0
   46.8490   33.5420   44.6130 N   0  0  0  0  0  0  0  0  0  0  0  0
   46.3030   33.6380   45.8310 C   0  0  0  0  0  0  0  0  0  0  0  0
   45.2090   34.3800   46.0030 N   0  0  0  0  0  0  0  0  0  0  0  0
   47.0080   32.8930   46.8040 N   0  0  0  0  0  0  0  0  0  0  0  0
   44.5360   35.6870   42.6330 C   0  0  0  0  0  0  0  0  0  0  0  0
   44.9160   37.0270   42.6790 F   0  0  0  0  0  0  0  0  0  0  0  0
   43.1910   35.6690   42.6890 F   0  0  0  0  0  0  0  0  0  0  0  0
   44.8460   35.2630   41.4050 F   0  0  0  0  0  0  0  0  0  0  0  0
   47.0440   31.8370   40.9470 C   0  0  0  0  0  0  0  0  0  0  0  0
   46.7310   30.4800   41.0120 C   0  0  0  0  0  0  0  0  0  0  0  0
   46.2740   29.7990   39.9080 C   0  0  0  0  0  0  0  0  0  0  0  0
   46.1180   30.5010   38.6930 C   0  0  0  0  0  0  0  0  0  0  0  0
   46.4380   31.8560   38.6690 C   0  0  0  0  0  0  0  0  0  0  0  0
   46.8980   32.5140   39.7720 C   0  0  0  0  0  0  0  0  0  0  0  0
   47.0990   33.7710   39.2490 O   0  0  0  0  0  0  0  0  0  0  0  0
   48.2210   34.1880   38.5550 C   0  0  0  0  0  0  0  0  0  0  0  0
   48.7320   35.3950   38.9950 F   0  0  0  0  0  0  0  0  0  0  0  0
   47.6980   34.5180   37.2500 F   0  0  0  0  0  0  0  0  0  0  0  0
   49.1290   33.2290   38.2780 F   0  0  0  0  0  0  0  0  0  0  0  0
   46.2376   34.1937   41.4527 H   0  0  0  0  0  0  0  0  0  0  0  0
   48.1915   35.6792   42.9336 H   0  0  0  0  0  0  0  0  0  0  0  0
   48.0981   35.5626   41.1692 H   0  0  0  0  0  0  0  0  0  0  0  0
   49.9517   34.2896   41.1714 H   0  0  0  0  0  0  0  0  0  0  0  0
   50.0138   34.4006   42.9646 H   0  0  0  0  0  0  0  0  0  0  0  0
   49.4654   32.1551   41.3771 H   0  0  0  0  0  0  0  0  0  0  0  0
   49.3652   32.3029   43.1564 H   0  0  0  0  0  0  0  0  0  0  0  0
   47.0638   32.0387   42.9448 H   0  0  0  0  0  0  0  0  0  0  0  0
   43.7333   35.6448   45.1424 H   0  0  0  0  0  0  0  0  0  0  0  0
   46.6848   32.8871   47.7820 H   0  0  0  0  0  0  0  0  0  0  0  0
   47.8448   32.3561   46.5349 H   0  0  0  0  0  0  0  0  0  0  0  0
   46.8519   29.9436   41.9647 H   0  0  0  0  0  0  0  0  0  0  0  0
   46.0345   28.7272   39.9705 H   0  0  0  0  0  0  0  0  0  0  0  0
   45.7533   29.9910   37.7892 H   0  0  0  0  0  0  0  0  0  0  0  0
   46.3158   32.4145   37.7293 H   0  0  0  0  0  0  0  0  0  0  0  0
  1  8  1  0
  2  3  1  0
  2  1  1  0
  3  4  1  0
  5  4  1  0
  5  1  1  0
  6 11  2  0
  7  6  1  0
  8  7  2  0
  8  9  1  0
  9 10  2  0
 10 11  1  0
 10 12  1  0
 13 14  1  0
 13 15  1  0
 13  7  1  0
 16 13  1  0
 17 18  2  0
 17  5  1  0
 19 18  1  0
 20 19  2  0
 21 20  1  0
 21 22  2  0
 22 17  1  0
 23 22  1  0
 24 25  1  0
 24 23  1  0
 26 24  1  0
 27 24  1  0
  1 28  1  6
  2 29  1  0
  2 30  1  0
  3 31  1  0
  3 32  1  0
  4 33  1  0
  4 34  1  0
  5 35  1  1
  6 36  1  0
 12 37  1  0
 12 38  1  0
 18 39  1  0
 19 40  1  0
 20 41  1  0
 21 42  1  0
M  ISO  8  28  13  29  13  30  13  31  13  32  13  33  13  34  13  35  13
M  ISO  5  36  14  39  14  40  14  41  14  42  14
M  END
>  <minimizedAffinity>  (1) 
-5.95733118

>  <minimizedRMSD>  (1) 
1.57879436

$$$$
