
     RDKit          3D

 42 44  0  0  1  0  0  0  0  0999 V2000
   47.1530   34.1160   42.2780 C   0  0  1  0  0  0  0  0  0  0  0  0
   48.3910   35.0430   42.2700 C   0  0  0  0  0  0  0  0  0  0  0  0
   49.5660   34.1740   42.1460 C   0  0  0  0  0  0  0  0  0  0  0  0
   49.1290   32.7770   42.0640 C   0  0  0  0  0  0  0  0  0  0  0  0
   47.6100   32.7540   41.9760 C   0  0  2  0  0  0  0  0  0  0  0  0
   44.8280   34.8360   45.1330 C   0  0  0  0  0  0  0  0  0  0  0  0
   45.3780   34.8920   43.8570 C   0  0  0  0  0  0  0  0  0  0  0  0
   46.4930   34.1450   43.5950 C   0  0  0  0  0  0  0  0  0  0  0  0
   47.0220   33.3800   44.5790 N   0  0  0  0  0  0  0  0  0  0  0  0
   46.4830   33.3350   45.8030 C   0  0  0  0  0  0  0  0  0  0  0  0
   45.3980   34.0580   46.0670 N   0  0  0  0  0  0  0  0  0  0  0  0
   47.2030   32.4720   46.6840 N   0  0  0  0  0  0  0  0  0  0  0  0
   44.7170   35.7640   42.8730 C   0  0  0  0  0  0  0  0  0  0  0  0
   45.1790   37.0640   43.0130 F   0  0  0  0  0  0  0  0  0  0  0  0
   43.3750   35.8110   42.9950 F   0  0  0  0  0  0  0  0  0  0  0  0
   44.9490   35.4350   41.6030 F   0  0  0  0  0  0  0  0  0  0  0  0
   47.1240   32.1670   40.6970 C   0  0  0  0  0  0  0  0  0  0  0  0
   46.4070   30.9690   40.6330 C   0  0  0  0  0  0  0  0  0  0  0  0
   45.9550   30.4590   39.4490 C   0  0  0  0  0  0  0  0  0  0  0  0
   46.2170   31.1670   38.2730 C   0  0  0  0  0  0  0  0  0  0  0  0
   46.9260   32.3490   38.3700 C   0  0  0  0  0  0  0  0  0  0  0  0
   47.3870   32.8530   39.5590 C   0  0  0  0  0  0  0  0  0  0  0  0
   48.0400   33.9860   39.1540 O   0  0  0  0  0  0  0  0  0  0  0  0
   48.4310   34.4930   37.9540 C   0  0  0  0  0  0  0  0  0  0  0  0
   46.4237   34.4552   41.5276 H   0  0  0  0  0  0  0  0  0  0  0  0
   48.3403   35.7362   41.4174 H   0  0  0  0  0  0  0  0  0  0  0  0
   48.4398   35.6466   43.1883 H   0  0  0  0  0  0  0  0  0  0  0  0
   50.1242   34.4384   41.2358 H   0  0  0  0  0  0  0  0  0  0  0  0
   50.2160   34.3058   43.0235 H   0  0  0  0  0  0  0  0  0  0  0  0
   49.5603   32.3046   41.1691 H   0  0  0  0  0  0  0  0  0  0  0  0
   49.4648   32.2229   42.9529 H   0  0  0  0  0  0  0  0  0  0  0  0
   47.1626   32.0731   42.7151 H   0  0  0  0  0  0  0  0  0  0  0  0
   43.9315   35.4255   45.3756 H   0  0  0  0  0  0  0  0  0  0  0  0
   46.8883   32.3508   47.6572 H   0  0  0  0  0  0  0  0  0  0  0  0
   48.0370   31.9707   46.3462 H   0  0  0  0  0  0  0  0  0  0  0  0
   46.2005   30.4204   41.5638 H   0  0  0  0  0  0  0  0  0  0  0  0
   45.3969   29.5115   39.4219 H   0  0  0  0  0  0  0  0  0  0  0  0
   45.8689   30.7941   37.2984 H   0  0  0  0  0  0  0  0  0  0  0  0
   47.1306   32.9133   37.4482 H   0  0  0  0  0  0  0  0  0  0  0  0
   49.0952   35.3542   38.1187 H   0  0  0  0  0  0  0  0  0  0  0  0
   48.9682   33.7189   37.3864 H   0  0  0  0  0  0  0  0  0  0  0  0
   47.5458   34.8159   37.3864 H   0  0  0  0  0  0  0  0  0  0  0  0
  1  8  1  0
  2  1  1  0
  3  2  1  0
  4  3  1  0
  5  4  1  0
  5  1  1  0
  6 11  2  0
  7  6  1  0
  8  7  2  0
  8  9  1  0
  9 10  2  0
 10 11  1  0
 10 12  1  0
 13 15  1  0
 13 14  1  0
 13  7  1  0
 16 13  1  0
 17  5  1  0
 18 17  2  0
 19 18  1  0
 20 21  1  0
 20 19  2  0
 21 22  2  0
 22 17  1  0
 23 22  1  0
 24 23  1  0
  1 25  1  6
  2 26  1  0
  2 27  1  0
  3 28  1  0
  3 29  1  0
  4 30  1  0
  4 31  1  0
  5 32  1  1
  6 33  1  0
 12 34  1  0
 12 35  1  0
 18 36  1  0
 19 37  1  0
 20 38  1  0
 21 39  1  0
 24 40  1  0
 24 41  1  0
 24 42  1  0
M  ISO  8  25  13  26  13  27  13  28  13  29  13  30  13  31  13  32  13
M  ISO  8  33  14  36  14  37  14  38  14  39  14  40   8  41   8  42   8
M  END
>  <minimizedAffinity>  (1) 
-5.56784534

>  <minimizedRMSD>  (1) 
1.03589022

$$$$
