
     RDKit          3D

 26 28  0  0  0  0  0  0  0  0999 V2000
   45.4790   34.1560   45.2250 C   0  0  0  0  0  0  0  0  0  0  0  0
   44.6020   35.2280   45.4290 C   0  0  0  0  0  0  0  0  0  0  0  0
   44.5890   36.2400   44.4570 C   0  0  0  0  0  0  0  0  0  0  0  0
   45.4270   36.1190   43.3760 N   0  0  0  0  0  0  0  0  0  0  0  0
   46.2430   35.0700   43.2370 C   0  0  0  0  0  0  0  0  0  0  0  0
   46.2680   34.0940   44.1580 N   0  0  0  0  0  0  0  0  0  0  0  0
   45.5990   33.0540   46.1350 N   0  0  0  0  0  0  0  0  0  0  0  0
   47.1300   34.9670   42.0710 C   0  0  0  0  0  0  0  0  0  0  0  0
   48.3760   35.5460   41.9410 C   0  0  0  0  0  0  0  0  0  0  0  0
   48.9020   35.2430   40.7490 N   0  0  0  0  0  0  0  0  0  0  0  0
   48.0080   34.4750   40.1090 C   0  0  0  0  0  0  0  0  0  0  0  0
   48.0080   33.8830   38.8780 C   0  0  0  0  0  0  0  0  0  0  0  0
   46.9630   33.1120   38.3950 C   0  0  0  0  0  0  0  0  0  0  0  0
   45.8450   32.9260   39.2050 C   0  0  0  0  0  0  0  0  0  0  0  0
   45.8360   33.5210   40.4500 C   0  0  0  0  0  0  0  0  0  0  0  0
   46.8900   34.2850   40.9100 C   0  0  0  0  0  0  0  0  0  0  0  0
   43.9505   35.2750   46.3140 H   0  0  0  0  0  0  0  0  0  0  0  0
   43.9232   37.1097   44.5586 H   0  0  0  0  0  0  0  0  0  0  0  0
   46.2613   32.2909   45.9352 H   0  0  0  0  0  0  0  0  0  0  0  0
   45.0228   33.0256   46.9883 H   0  0  0  0  0  0  0  0  0  0  0  0
   48.8654   36.1664   42.7063 H   0  0  0  0  0  0  0  0  0  0  0  0
   49.8199   35.5428   40.3905 H   0  0  0  0  0  0  0  0  0  0  0  0
   48.8877   34.0265   38.2334 H   0  0  0  0  0  0  0  0  0  0  0  0
   47.0150   32.6572   37.3948 H   0  0  0  0  0  0  0  0  0  0  0  0
   44.9927   32.3214   38.8615 H   0  0  0  0  0  0  0  0  0  0  0  0
   44.9585   33.3818   41.0986 H   0  0  0  0  0  0  0  0  0  0  0  0
  1  2  2  0
  1  7  1  0
  3  2  1  0
  4  3  2  0
  5  4  1  0
  5  6  2  0
  6  1  1  0
  8  5  1  0
  9  8  2  0
 10  9  1  0
 11 10  1  0
 11 16  2  0
 12 11  1  0
 13 12  2  0
 13 14  1  0
 14 15  2  0
 15 16  1  0
 16  8  1  0
  2 17  1  0
  3 18  1  0
  7 19  1  0
  7 20  1  0
  9 21  1  0
 10 22  1  0
 12 23  1  0
 13 24  1  0
 14 25  1  0
 15 26  1  0
M  ISO  8  17  14  18  14  21  14  22   9  23  14  24  14  25  14  26  14
M  END
>  <minimizedAffinity>  (1) 
-5.68678904

>  <minimizedRMSD>  (1) 
7.08282709

$$$$
