
     RDKit          3D

 23 24  0  0  0  0  0  0  0  0999 V2000
   44.8300   35.1880   43.6920 C   0  0  0  0  0  0  0  0  0  0  0  0
   45.8630   35.2470   42.7340 C   0  0  0  0  0  0  0  0  0  0  0  0
   47.0150   34.4870   42.9920 C   0  0  0  0  0  0  0  0  0  0  0  0
   47.0760   33.7450   44.1350 N   0  0  0  0  0  0  0  0  0  0  0  0
   46.0630   33.7260   45.0120 C   0  0  0  0  0  0  0  0  0  0  0  0
   44.9350   34.4420   44.8040 N   0  0  0  0  0  0  0  0  0  0  0  0
   43.6090   35.8950   43.5800 N   0  0  0  0  0  0  0  0  0  0  0  0
   46.1960   32.9260   46.1870 N   0  0  0  0  0  0  0  0  0  0  0  0
   47.1080   31.9360   46.1500 C   0  0  0  0  0  0  0  0  0  0  0  0
   47.2360   31.1630   47.2860 C   0  0  0  0  0  0  0  0  0  0  0  0
   46.4270   31.4620   48.3620 C   0  0  0  0  0  0  0  0  0  0  0  0
   46.5300   30.6870   49.5510 N   0  0  0  0  0  0  0  0  0  0  0  0
   45.5350   32.4750   48.3190 N   0  0  0  0  0  0  0  0  0  0  0  0
   45.3940   33.2410   47.2210 C   0  0  0  0  0  0  0  0  0  0  0  0
   44.5750   34.1940   47.1400 O   0  0  0  0  0  0  0  0  0  0  0  0
   45.7705   35.8606   41.8257 H   0  0  0  0  0  0  0  0  0  0  0  0
   47.8559   34.4899   42.2829 H   0  0  0  0  0  0  0  0  0  0  0  0
   43.4346   36.4950   42.7612 H   0  0  0  0  0  0  0  0  0  0  0  0
   42.8949   35.8095   44.3173 H   0  0  0  0  0  0  0  0  0  0  0  0
   47.7222   31.7521   45.2562 H   0  0  0  0  0  0  0  0  0  0  0  0
   47.9595   30.3356   47.3317 H   0  0  0  0  0  0  0  0  0  0  0  0
   45.9300   30.9027   50.3599 H   0  0  0  0  0  0  0  0  0  0  0  0
   47.2046   29.9103   49.6027 H   0  0  0  0  0  0  0  0  0  0  0  0
  1  6  2  0
  2  3  2  0
  2  1  1  0
  3  4  1  0
  4  5  2  0
  5  8  1  0
  6  5  1  0
  7  1  1  0
  8 14  1  0
  9  8  1  0
  9 10  2  0
 10 11  1  0
 11 12  1  0
 13 11  2  0
 14 13  1  0
 15 14  2  0
  2 16  1  0
  3 17  1  0
  7 18  1  0
  7 19  1  0
  9 20  1  0
 10 21  1  0
 12 22  1  0
 12 23  1  0
M  ISO  4  16  14  17  14  20  14  21  14
M  END
>  <minimizedAffinity>  (1) 
-5.6523242

>  <minimizedRMSD>  (1) 
0.747233033

$$$$
