
     RDKit          3D

 26 28  0  0  0  0  0  0  0  0999 V2000
   46.2400   32.5630   46.4790 C   0  0  0  0  0  0  0  0  0  0  0  0
   45.6120   32.9210   47.6400 N   0  0  0  0  0  0  0  0  0  0  0  0
   45.6100   32.1620   48.7400 C   0  0  0  0  0  0  0  0  0  0  0  0
   46.2310   30.9730   48.7990 N   0  0  0  0  0  0  0  0  0  0  0  0
   46.8650   30.5560   47.7060 C   0  0  0  0  0  0  0  0  0  0  0  0
   47.5040   29.3360   47.7600 C   0  0  0  0  0  0  0  0  0  0  0  0
   48.1830   28.8340   46.6690 C   0  0  0  0  0  0  0  0  0  0  0  0
   48.1760   29.6380   45.5250 C   0  0  0  0  0  0  0  0  0  0  0  0
   47.5290   30.8470   45.5060 C   0  0  0  0  0  0  0  0  0  0  0  0
   46.8600   31.3430   46.5800 C   0  0  0  0  0  0  0  0  0  0  0  0
   44.9350   35.0540   44.2300 C   0  0  0  0  0  0  0  0  0  0  0  0
   45.8350   35.1670   43.1780 C   0  0  0  0  0  0  0  0  0  0  0  0
   46.9610   34.3420   43.2330 C   0  0  0  0  0  0  0  0  0  0  0  0
   47.1020   33.5060   44.2830 N   0  0  0  0  0  0  0  0  0  0  0  0
   46.2280   33.4140   45.2810 C   0  0  0  0  0  0  0  0  0  0  0  0
   45.1680   34.2010   45.2110 N   0  0  0  0  0  0  0  0  0  0  0  0
   43.7330   35.8300   44.3180 N   0  0  0  0  0  0  0  0  0  0  0  0
   45.0788   32.5256   49.6320 H   0  0  0  0  0  0  0  0  0  0  0  0
   47.4720   28.7512   48.6911 H   0  0  0  0  0  0  0  0  0  0  0  0
   48.6976   27.8622   46.6973 H   0  0  0  0  0  0  0  0  0  0  0  0
   48.7004   29.2936   44.6215 H   0  0  0  0  0  0  0  0  0  0  0  0
   47.5525   31.4415   44.5808 H   0  0  0  0  0  0  0  0  0  0  0  0
   45.6700   35.8681   42.3466 H   0  0  0  0  0  0  0  0  0  0  0  0
   47.7182   34.3732   42.4357 H   0  0  0  0  0  0  0  0  0  0  0  0
   43.5037   36.5100   43.5791 H   0  0  0  0  0  0  0  0  0  0  0  0
   43.0986   35.7076   45.1201 H   0  0  0  0  0  0  0  0  0  0  0  0
  1 10  1  0
  1  2  2  0
  2  3  1  0
  3  4  2  0
  5  6  2  0
  5  4  1  0
  7  6  1  0
  8  7  2  0
  9  8  1  0
  9 10  2  0
 10  5  1  0
 11 17  1  0
 11 16  2  0
 12 13  2  0
 12 11  1  0
 13 14  1  0
 14 15  2  0
 15  1  1  0
 16 15  1  0
  3 18  1  0
  6 19  1  0
  7 20  1  0
  8 21  1  0
  9 22  1  0
 12 23  1  0
 13 24  1  0
 17 25  1  0
 17 26  1  0
M  ISO  7  18  14  19  14  20  14  21  14  22  14  23  14  24  14
M  END
>  <minimizedAffinity>  (1) 
-5.37588596

>  <minimizedRMSD>  (1) 
0.866125286

$$$$
