
     RDKit          3D

 22 23  0  0  0  0  0  0  0  0999 V2000
   44.9760   34.9990   44.5040 C   0  0  0  0  0  0  0  0  0  0  0  0
   45.8940   34.8870   43.4550 C   0  0  0  0  0  0  0  0  0  0  0  0
   46.9610   33.9730   43.6360 C   0  0  0  0  0  0  0  0  0  0  0  0
   47.0200   33.2760   44.8010 N   0  0  0  0  0  0  0  0  0  0  0  0
   46.1100   33.4250   45.7740 C   0  0  0  0  0  0  0  0  0  0  0  0
   45.0800   34.2850   45.6400 N   0  0  0  0  0  0  0  0  0  0  0  0
   43.8440   35.8810   44.4690 N   0  0  0  0  0  0  0  0  0  0  0  0
   46.2140   32.6530   47.0130 C   0  0  0  0  0  0  0  0  0  0  0  0
   45.0630   32.4270   47.7680 C   0  0  0  0  0  0  0  0  0  0  0  0
   45.1290   31.7110   48.9250 C   0  0  0  0  0  0  0  0  0  0  0  0
   46.3180   31.2080   49.3580 C   0  0  0  0  0  0  0  0  0  0  0  0
   47.4890   31.4170   48.6230 C   0  0  0  0  0  0  0  0  0  0  0  0
   47.4270   32.1470   47.4410 C   0  0  0  0  0  0  0  0  0  0  0  0
   45.7925   35.4799   42.5340 H   0  0  0  0  0  0  0  0  0  0  0  0
   47.7217   33.8312   42.8542 H   0  0  0  0  0  0  0  0  0  0  0  0
   43.6763   36.4711   43.6416 H   0  0  0  0  0  0  0  0  0  0  0  0
   43.1995   35.9238   45.2713 H   0  0  0  0  0  0  0  0  0  0  0  0
   44.0974   32.8289   47.4274 H   0  0  0  0  0  0  0  0  0  0  0  0
   44.2158   31.5380   49.5134 H   0  0  0  0  0  0  0  0  0  0  0  0
   46.3576   30.6321   50.2944 H   0  0  0  0  0  0  0  0  0  0  0  0
   48.4477   31.0089   48.9755 H   0  0  0  0  0  0  0  0  0  0  0  0
   48.3383   32.3208   46.8499 H   0  0  0  0  0  0  0  0  0  0  0  0
  1  6  2  0
  2  3  2  0
  2  1  1  0
  3  4  1  0
  4  5  2  0
  5  8  1  0
  6  5  1  0
  7  1  1  0
  8 13  1  0
  8  9  2  0
  9 10  1  0
 10 11  2  0
 12 11  1  0
 13 12  2  0
  2 14  1  0
  3 15  1  0
  7 16  1  0
  7 17  1  0
  9 18  1  0
 10 19  1  0
 11 20  1  0
 12 21  1  0
 13 22  1  0
M  ISO  7  14  14  15  14  18  14  19  14  20  14  21  14  22  14
M  END
>  <minimizedAffinity>  (1) 
-5.23928165

>  <minimizedRMSD>  (1) 
0.446413964

$$$$
