
     RDKit          3D

 22 23  0  0  0  0  0  0  0  0999 V2000
   44.9550   35.0200   44.4760 C   0  0  0  0  0  0  0  0  0  0  0  0
   45.8730   34.9220   43.4300 C   0  0  0  0  0  0  0  0  0  0  0  0
   46.9470   34.0170   43.5820 C   0  0  0  0  0  0  0  0  0  0  0  0
   47.0240   33.2960   44.7330 N   0  0  0  0  0  0  0  0  0  0  0  0
   46.1090   33.4280   45.7130 C   0  0  0  0  0  0  0  0  0  0  0  0
   45.0940   34.2810   45.5750 N   0  0  0  0  0  0  0  0  0  0  0  0
   43.8270   35.8770   44.4780 N   0  0  0  0  0  0  0  0  0  0  0  0
   46.2520   32.6190   46.9300 C   0  0  0  0  0  0  0  0  0  0  0  0
   45.2000   32.5850   47.8380 C   0  0  0  0  0  0  0  0  0  0  0  0
   45.3040   31.8340   48.9930 C   0  0  0  0  0  0  0  0  0  0  0  0
   46.4750   31.1130   49.2340 C   0  0  0  0  0  0  0  0  0  0  0  0
   47.5000   31.1720   48.3060 C   0  0  0  0  0  0  0  0  0  0  0  0
   47.4150   31.9150   47.1510 C   0  0  0  0  0  0  0  0  0  0  0  0
   45.7643   35.5283   42.5187 H   0  0  0  0  0  0  0  0  0  0  0  0
   47.7014   33.8984   42.7903 H   0  0  0  0  0  0  0  0  0  0  0  0
   43.6410   36.4853   43.6679 H   0  0  0  0  0  0  0  0  0  0  0  0
   43.1929   35.8918   45.2895 H   0  0  0  0  0  0  0  0  0  0  0  0
   44.2825   33.1574   47.6365 H   0  0  0  0  0  0  0  0  0  0  0  0
   44.4739   31.8045   49.7142 H   0  0  0  0  0  0  0  0  0  0  0  0
   46.5812   30.5080   50.1465 H   0  0  0  0  0  0  0  0  0  0  0  0
   48.4204   30.6015   48.4997 H   0  0  0  0  0  0  0  0  0  0  0  0
   48.2456   31.9456   46.4304 H   0  0  0  0  0  0  0  0  0  0  0  0
  1  7  1  0
  1  6  2  0
  2  3  2  0
  2  1  1  0
  3  4  1  0
  4  5  2  0
  5  8  1  0
  6  5  1  0
  8 13  1  0
  8  9  2  0
  9 10  1  0
 10 11  2  0
 12 11  1  0
 13 12  2  0
  2 14  1  0
  3 15  1  0
  7 16  1  0
  7 17  1  0
  9 18  1  0
 10 19  1  0
 11 20  1  0
 12 21  1  0
 13 22  1  0
M  ISO  7  14  14  15  14  18  14  19  14  20  14  21  14  22  14
M  END
>  <minimizedAffinity>  (1) 
-5.22451878

>  <minimizedRMSD>  (1) 
0.489662141

$$$$
