
     RDKit          3D

 25 26  0  0  0  0  0  0  0  0999 V2000
   44.9830   34.9450   44.5110 C   0  0  0  0  0  0  0  0  0  0  0  0
   45.9240   34.6800   43.5120 C   0  0  0  0  0  0  0  0  0  0  0  0
   46.9450   33.7580   43.7980 C   0  0  0  0  0  0  0  0  0  0  0  0
   46.9540   33.1780   45.0410 N   0  0  0  0  0  0  0  0  0  0  0  0
   46.0340   33.4610   45.9680 C   0  0  0  0  0  0  0  0  0  0  0  0
   45.0610   34.3380   45.6980 N   0  0  0  0  0  0  0  0  0  0  0  0
   43.8980   35.8510   44.3640 N   0  0  0  0  0  0  0  0  0  0  0  0
   46.1310   32.8060   47.2280 N   0  0  0  0  0  0  0  0  0  0  0  0
   47.4470   32.4250   47.7120 C   0  0  0  0  0  0  0  0  0  0  0  0
   47.3290   30.9700   48.0920 C   0  0  0  0  0  0  0  0  0  0  0  0
   46.2730   30.7010   49.1160 C   0  0  0  0  0  0  0  0  0  0  0  0
   45.0270   31.4720   49.0030 C   0  0  0  0  0  0  0  0  0  0  0  0
   44.9490   32.5360   47.9870 C   0  0  0  0  0  0  0  0  0  0  0  0
   45.8670   35.1776   42.5327 H   0  0  0  0  0  0  0  0  0  0  0  0
   47.7119   33.5095   43.0496 H   0  0  0  0  0  0  0  0  0  0  0  0
   43.7682   36.3595   43.4778 H   0  0  0  0  0  0  0  0  0  0  0  0
   43.2415   35.9991   45.1437 H   0  0  0  0  0  0  0  0  0  0  0  0
   48.2006   32.5563   46.9215 H   0  0  0  0  0  0  0  0  0  0  0  0
   47.7650   33.0453   48.5630 H   0  0  0  0  0  0  0  0  0  0  0  0
   47.0902   30.3927   47.1866 H   0  0  0  0  0  0  0  0  0  0  0  0
   48.2909   30.6742   48.5361 H   0  0  0  0  0  0  0  0  0  0  0  0
   46.0112   29.6346   49.0514 H   0  0  0  0  0  0  0  0  0  0  0  0
   46.7164   31.0104   50.0740 H   0  0  0  0  0  0  0  0  0  0  0  0
   44.1722   31.2595   49.6619 H   0  0  0  0  0  0  0  0  0  0  0  0
   44.0196   33.0999   47.8189 H   0  0  0  0  0  0  0  0  0  0  0  0
  1  6  2  0
  2  3  2  0
  2  1  1  0
  3  4  1  0
  4  5  2  0
  5  8  1  0
  6  5  1  0
  7  1  1  0
  8  9  1  0
  8 13  1  0
  9 10  1  0
 10 11  1  0
 12 11  1  0
 13 12  2  0
  2 14  1  0
  3 15  1  0
  7 16  1  0
  7 17  1  0
  9 18  1  0
  9 19  1  0
 10 20  1  0
 10 21  1  0
 11 22  1  0
 11 23  1  0
 12 24  1  0
 13 25  1  0
M  ISO  8  14  14  15  14  18  13  19  13  20  13  21  13  22  13  23  13
M  ISO  2  24  13  25  13
M  END
>  <minimizedAffinity>  (1) 
-5.197505

>  <minimizedRMSD>  (1) 
0.409556031

$$$$
