
     RDKit          3D

 26 28  0  0  0  0  0  0  0  0999 V2000
   44.7770   35.2420   43.9360 C   0  0  0  0  0  0  0  0  0  0  0  0
   45.6700   35.4890   42.8690 C   0  0  0  0  0  0  0  0  0  0  0  0
   46.8640   34.7550   42.8270 C   0  0  0  0  0  0  0  0  0  0  0  0
   47.0940   33.8410   43.8300 N   0  0  0  0  0  0  0  0  0  0  0  0
   46.2130   33.6500   44.8170 C   0  0  0  0  0  0  0  0  0  0  0  0
   45.0730   34.3410   44.8680 N   0  0  0  0  0  0  0  0  0  0  0  0
   43.5430   35.9130   44.0930 N   0  0  0  0  0  0  0  0  0  0  0  0
   46.4870   32.6820   45.8520 N   0  0  0  0  0  0  0  0  0  0  0  0
   46.1220   32.6660   47.1520 C   0  0  0  0  0  0  0  0  0  0  0  0
   46.6280   31.5400   47.7090 N   0  0  0  0  0  0  0  0  0  0  0  0
   47.3090   30.8510   46.7600 C   0  0  0  0  0  0  0  0  0  0  0  0
   48.0080   29.6610   46.7790 C   0  0  0  0  0  0  0  0  0  0  0  0
   48.1030   28.9800   47.8460 O   0  0  0  0  0  0  0  0  0  0  0  0
   48.6240   29.1410   45.7050 N   0  0  0  0  0  0  0  0  0  0  0  0
   48.5130   29.8820   44.5680 C   0  0  0  0  0  0  0  0  0  0  0  0
   49.1640   29.3480   43.4060 N   0  0  0  0  0  0  0  0  0  0  0  0
   47.8390   31.0510   44.5080 N   0  0  0  0  0  0  0  0  0  0  0  0
   47.2240   31.5660   45.5830 C   0  0  0  0  0  0  0  0  0  0  0  0
   45.4356   36.2345   42.0949 H   0  0  0  0  0  0  0  0  0  0  0  0
   47.5939   34.9050   42.0179 H   0  0  0  0  0  0  0  0  0  0  0  0
   43.2521   36.6235   43.4063 H   0  0  0  0  0  0  0  0  0  0  0  0
   42.9346   35.6915   44.8941 H   0  0  0  0  0  0  0  0  0  0  0  0
   45.5213   33.4306   47.6664 H   0  0  0  0  0  0  0  0  0  0  0  0
   49.1405   28.2505   45.7387 H   0  0  0  0  0  0  0  0  0  0  0  0
   49.1204   29.8570   42.5116 H   0  0  0  0  0  0  0  0  0  0  0  0
   49.6749   28.4557   43.4663 H   0  0  0  0  0  0  0  0  0  0  0  0
  1  7  1  0
  1  6  2  0
  2  1  1  0
  3  2  2  0
  3  4  1  0
  4  5  2  0
  5  6  1  0
  5  8  1  0
  8  9  1  0
  9 10  2  0
 11 12  1  0
 11 10  1  0
 12 13  2  0
 14 12  1  0
 15 14  1  0
 16 15  1  0
 17 15  2  0
 17 18  1  0
 18  8  1  0
 18 11  2  0
  2 19  1  0
  3 20  1  0
  7 21  1  0
  7 22  1  0
  9 23  1  0
 14 24  1  0
 16 25  1  0
 16 26  1  0
M  ISO  4  19  14  20  14  23  14  24   9
M  END
>  <minimizedAffinity>  (1) 
-5.16583586

>  <minimizedRMSD>  (1) 
1.45812464

$$$$
