
     RDKit          3D

 25 26  0  0  0  0  0  0  0  0999 V2000
   45.0000   34.9270   44.5450 C   0  0  0  0  0  0  0  0  0  0  0  0
   45.9320   34.7570   43.5150 C   0  0  0  0  0  0  0  0  0  0  0  0
   46.9900   33.8520   43.7360 C   0  0  0  0  0  0  0  0  0  0  0  0
   47.0470   33.2010   44.9260 N   0  0  0  0  0  0  0  0  0  0  0  0
   46.1210   33.3990   45.8920 C   0  0  0  0  0  0  0  0  0  0  0  0
   45.1080   34.2520   45.7060 N   0  0  0  0  0  0  0  0  0  0  0  0
   43.8860   35.8040   44.4620 N   0  0  0  0  0  0  0  0  0  0  0  0
   46.2170   32.6930   47.1280 N   0  0  0  0  0  0  0  0  0  0  0  0
   47.5190   32.2940   47.6640 C   0  0  0  0  0  0  0  0  0  0  0  0
   47.3890   30.8810   48.1940 C   0  0  0  0  0  0  0  0  0  0  0  0
   46.4940   30.8670   49.2530 O   0  0  0  0  0  0  0  0  0  0  0  0
   45.6300   31.9390   49.2890 C   0  0  0  0  0  0  0  0  0  0  0  0
   45.0850   32.3290   47.9230 C   0  0  0  0  0  0  0  0  0  0  0  0
   45.8423   35.3092   42.5679 H   0  0  0  0  0  0  0  0  0  0  0  0
   47.7519   33.6773   42.9620 H   0  0  0  0  0  0  0  0  0  0  0  0
   43.7294   36.3583   43.6081 H   0  0  0  0  0  0  0  0  0  0  0  0
   43.2347   35.8858   45.2557 H   0  0  0  0  0  0  0  0  0  0  0  0
   48.2772   32.3266   46.8678 H   0  0  0  0  0  0  0  0  0  0  0  0
   47.8296   32.9783   48.4673 H   0  0  0  0  0  0  0  0  0  0  0  0
   47.0215   30.2213   47.3941 H   0  0  0  0  0  0  0  0  0  0  0  0
   48.3715   30.5259   48.5384 H   0  0  0  0  0  0  0  0  0  0  0  0
   44.7823   31.6806   49.9406 H   0  0  0  0  0  0  0  0  0  0  0  0
   46.2007   32.8004   49.6662 H   0  0  0  0  0  0  0  0  0  0  0  0
   44.3958   33.1811   48.0170 H   0  0  0  0  0  0  0  0  0  0  0  0
   44.5245   31.5008   47.4649 H   0  0  0  0  0  0  0  0  0  0  0  0
  1  6  2  0
  2  3  2  0
  2  1  1  0
  3  4  1  0
  4  5  2  0
  5  8  1  0
  6  5  1  0
  7  1  1  0
  8  9  1  0
  8 13  1  0
  9 10  1  0
 10 11  1  0
 11 12  1  0
 13 12  1  0
  2 14  1  0
  3 15  1  0
  7 16  1  0
  7 17  1  0
  9 18  1  0
  9 19  1  0
 10 20  1  0
 10 21  1  0
 12 22  1  0
 12 23  1  0
 13 24  1  0
 13 25  1  0
M  ISO  8  14  14  15  14  18  13  19  13  20  13  21  13  22  13  23  13
M  ISO  2  24  13  25  13
M  END
>  <minimizedAffinity>  (1) 
-5.10878372

>  <minimizedRMSD>  (1) 
0.252827764

$$$$
