
     RDKit          3D

 19 20  0  0  0  0  0  0  0  0999 V2000
   44.9510   34.9860   44.5050 C   0  0  0  0  0  0  0  0  0  0  0  0
   45.8490   34.8330   43.4460 C   0  0  0  0  0  0  0  0  0  0  0  0
   46.9260   33.9530   43.6200 C   0  0  0  0  0  0  0  0  0  0  0  0
   47.0330   33.2950   44.8180 N   0  0  0  0  0  0  0  0  0  0  0  0
   46.1460   33.4770   45.8000 C   0  0  0  0  0  0  0  0  0  0  0  0
   45.1140   34.3110   45.6550 N   0  0  0  0  0  0  0  0  0  0  0  0
   43.8230   35.8420   44.4630 N   0  0  0  0  0  0  0  0  0  0  0  0
   46.3680   32.7270   47.0130 N   0  0  0  0  0  0  0  0  0  0  0  0
   45.2800   32.7280   47.7740 N   0  0  0  0  0  0  0  0  0  0  0  0
   45.5440   32.0100   48.8990 C   0  0  0  0  0  0  0  0  0  0  0  0
   46.8610   31.5650   48.7850 C   0  0  0  0  0  0  0  0  0  0  0  0
   47.3600   32.0280   47.5880 C   0  0  0  0  0  0  0  0  0  0  0  0
   45.7151   35.3860   42.5046 H   0  0  0  0  0  0  0  0  0  0  0  0
   47.6634   33.7950   42.8192 H   0  0  0  0  0  0  0  0  0  0  0  0
   43.6274   36.3950   43.6163 H   0  0  0  0  0  0  0  0  0  0  0  0
   43.1985   35.9114   45.2791 H   0  0  0  0  0  0  0  0  0  0  0  0
   44.8544   31.8181   49.7343 H   0  0  0  0  0  0  0  0  0  0  0  0
   47.4042   30.9532   49.5203 H   0  0  0  0  0  0  0  0  0  0  0  0
   48.3690   31.8591   47.1838 H   0  0  0  0  0  0  0  0  0  0  0  0
  1  6  2  0
  2  3  2  0
  2  1  1  0
  3  4  1  0
  4  5  2  0
  5  8  1  0
  6  5  1  0
  7  1  1  0
  8 12  1  0
  8  9  1  0
  9 10  2  0
 11 10  1  0
 12 11  2  0
  2 13  1  0
  3 14  1  0
  7 15  1  0
  7 16  1  0
 10 17  1  0
 11 18  1  0
 12 19  1  0
M  ISO  5  13  14  14  14  17  14  18  14  19  14
M  END
>  <minimizedAffinity>  (1) 
-5.02321911

>  <minimizedRMSD>  (1) 
0.15116559

$$$$
