
     RDKit          3D

 44 47  0  0  1  0  0  0  0  0999 V2000
   47.9020   34.6470   41.5900 C   0  0  2  0  0  0  0  0  0  0  0  0
   48.9620   35.5500   41.8700 C   0  0  0  0  0  0  0  0  0  0  0  0
   50.1750   34.7120   42.3200 C   0  0  0  0  0  0  0  0  0  0  0  0
   49.7770   33.2490   42.2340 C   0  0  0  0  0  0  0  0  0  0  0  0
   48.3140   33.3290   42.3250 C   0  0  1  0  0  0  0  0  0  0  0  0
   47.5930   34.2170   40.2070 C   0  0  0  0  0  0  0  0  0  0  0  0
   48.3970   34.6760   39.1820 C   0  0  0  0  0  0  0  0  0  0  0  0
   48.1580   34.2990   37.8760 C   0  0  0  0  0  0  0  0  0  0  0  0
   47.0910   33.4580   37.6830 N   0  0  0  0  0  0  0  0  0  0  0  0
   46.3270   33.0270   38.6920 C   0  0  0  0  0  0  0  0  0  0  0  0
   46.5620   33.3940   39.9610 N   0  0  0  0  0  0  0  0  0  0  0  0
   47.8790   33.3900   43.7510 C   0  0  0  0  0  0  0  0  0  0  0  0
   46.5250   32.7800   43.9270 C   0  0  0  0  0  0  0  0  0  0  0  0
   45.6760   33.8250   44.5910 C   0  0  0  0  0  0  0  0  0  0  0  0
   44.9990   34.8740   44.0300 C   0  0  0  0  0  0  0  0  0  0  0  0
   44.3720   35.5460   45.0360 N   0  0  0  0  0  0  0  0  0  0  0  0
   44.6510   34.9330   46.1790 C   0  0  0  0  0  0  0  0  0  0  0  0
   45.4290   33.9010   45.9320 N   0  0  0  0  0  0  0  0  0  0  0  0
   45.9390   33.0020   46.9100 C   0  0  0  0  0  0  0  0  0  0  0  0
   44.9470   32.5030   47.7450 C   0  0  0  0  0  0  0  0  0  0  0  0
   45.2570   31.6060   48.7660 C   0  0  0  0  0  0  0  0  0  0  0  0
   46.5580   31.2260   48.9290 N   0  0  0  0  0  0  0  0  0  0  0  0
   47.5020   31.7400   48.0870 C   0  0  0  0  0  0  0  0  0  0  0  0
   47.2160   32.6060   47.0980 N   0  0  0  0  0  0  0  0  0  0  0  0
   47.0027   35.2051   41.8896 H   0  0  0  0  0  0  0  0  0  0  0  0
   49.2158   36.1236   40.9664 H   0  0  0  0  0  0  0  0  0  0  0  0
   48.6686   36.2615   42.6559 H   0  0  0  0  0  0  0  0  0  0  0  0
   51.0323   34.9074   41.6590 H   0  0  0  0  0  0  0  0  0  0  0  0
   50.4669   34.9741   43.3477 H   0  0  0  0  0  0  0  0  0  0  0  0
   50.0950   32.8030   41.2801 H   0  0  0  0  0  0  0  0  0  0  0  0
   50.2371   32.6163   43.0073 H   0  0  0  0  0  0  0  0  0  0  0  0
   47.8425   32.4441   41.8726 H   0  0  0  0  0  0  0  0  0  0  0  0
   49.2368   35.3492   39.4090 H   0  0  0  0  0  0  0  0  0  0  0  0
   48.7835   34.6506   37.0423 H   0  0  0  0  0  0  0  0  0  0  0  0
   45.4840   32.3541   38.4762 H   0  0  0  0  0  0  0  0  0  0  0  0
   48.6034   32.8420   44.3714 H   0  0  0  0  0  0  0  0  0  0  0  0
   47.8292   34.4456   44.0564 H   0  0  0  0  0  0  0  0  0  0  0  0
   46.0997   32.5081   42.9497 H   0  0  0  0  0  0  0  0  0  0  0  0
   46.5751   31.8621   44.5311 H   0  0  0  0  0  0  0  0  0  0  0  0
   44.9669   35.1286   42.9603 H   0  0  0  0  0  0  0  0  0  0  0  0
   44.2903   35.2381   47.1724 H   0  0  0  0  0  0  0  0  0  0  0  0
   43.9038   32.8198   47.5986 H   0  0  0  0  0  0  0  0  0  0  0  0
   44.4700   31.2127   49.4263 H   0  0  0  0  0  0  0  0  0  0  0  0
   48.5486   31.4306   48.2242 H   0  0  0  0  0  0  0  0  0  0  0  0
  1  2  1  0
  1  5  1  0
  2  3  1  0
  4  3  1  0
  4  5  1  0
  5 12  1  0
  6  1  1  0
  7  6  2  0
  8  7  1  0
  9  8  2  0
  9 10  1  0
 10 11  2  0
 11  6  1  0
 12 13  1  0
 13 14  1  0
 14 18  1  0
 15 14  2  0
 15 16  1  0
 16 17  2  0
 18 17  1  0
 18 19  1  0
 19 24  1  0
 19 20  2  0
 20 21  1  0
 21 22  2  0
 23 22  1  0
 24 23  2  0
  1 25  1  1
  2 26  1  0
  2 27  1  0
  3 28  1  0
  3 29  1  0
  4 30  1  0
  4 31  1  0
  5 32  1  6
  7 33  1  0
  8 34  1  0
 10 35  1  0
 12 36  1  0
 12 37  1  0
 13 38  1  0
 13 39  1  0
 15 40  1  0
 17 41  1  0
 20 42  1  0
 21 43  1  0
 23 44  1  0
M  ISO  8  25  13  26  13  27  13  28  13  29  13  30  13  31  13  32  13
M  ISO  8  33  14  34  14  35  14  36   8  37   8  38   8  39   8  40  14
M  ISO  4  41  14  42  14  43  14  44  14
M  END
>  <minimizedAffinity>  (1) 
-6.22022009

>  <minimizedRMSD>  (1) 
1.13534677

$$$$
