
     RDKit          3D

 19 20  0  0  0  0  0  0  0  0999 V2000
   44.9120   35.0540   44.3690 C   0  0  0  0  0  0  0  0  0  0  0  0
   45.8510   34.8390   43.3520 C   0  0  0  0  0  0  0  0  0  0  0  0
   46.9090   33.9510   43.6080 C   0  0  0  0  0  0  0  0  0  0  0  0
   46.9670   33.3440   44.8350 N   0  0  0  0  0  0  0  0  0  0  0  0
   46.0420   33.5870   45.7690 C   0  0  0  0  0  0  0  0  0  0  0  0
   45.0240   34.4250   45.5600 N   0  0  0  0  0  0  0  0  0  0  0  0
   43.7940   35.9190   44.2600 N   0  0  0  0  0  0  0  0  0  0  0  0
   46.1600   32.9080   47.0600 C   0  0  0  0  0  0  0  0  0  0  0  0
   47.2040   32.1170   47.5110 C   0  0  0  0  0  0  0  0  0  0  0  0
   46.9520   31.6620   48.7580 N   0  0  0  0  0  0  0  0  0  0  0  0
   45.7480   32.1710   49.0860 C   0  0  0  0  0  0  0  0  0  0  0  0
   45.2720   32.9170   48.0720 N   0  0  0  0  0  0  0  0  0  0  0  0
   45.7626   35.3502   42.3820 H   0  0  0  0  0  0  0  0  0  0  0  0
   47.6721   33.7480   42.8422 H   0  0  0  0  0  0  0  0  0  0  0  0
   43.6293   36.4402   43.3870 H   0  0  0  0  0  0  0  0  0  0  0  0
   43.1465   36.0262   45.0538 H   0  0  0  0  0  0  0  0  0  0  0  0
   48.1126   31.8906   46.9337 H   0  0  0  0  0  0  0  0  0  0  0  0
   45.2305   32.0017   50.0418 H   0  0  0  0  0  0  0  0  0  0  0  0
   44.3709   33.4159   48.0704 H   0  0  0  0  0  0  0  0  0  0  0  0
  1  6  2  0
  2  3  2  0
  2  1  1  0
  3  4  1  0
  4  5  2  0
  5  8  1  0
  6  5  1  0
  7  1  1  0
  8  9  2  0
  8 12  1  0
  9 10  1  0
 10 11  2  0
 12 11  1  0
  2 13  1  0
  3 14  1  0
  7 15  1  0
  7 16  1  0
  9 17  1  0
 11 18  1  0
 12 19  1  0
M  ISO  5  13  14  14  14  17  14  18  14  19   9
M  END
>  <minimizedAffinity>  (1) 
-4.96273518

>  <minimizedRMSD>  (1) 
0.606406331

$$$$
