
     RDKit          3D

 19 20  0  0  0  0  0  0  0  0999 V2000
   44.9730   34.9540   44.5030 C   0  0  0  0  0  0  0  0  0  0  0  0
   45.8760   34.7890   43.4450 C   0  0  0  0  0  0  0  0  0  0  0  0
   46.9640   33.8960   43.6470 C   0  0  0  0  0  0  0  0  0  0  0  0
   47.0560   33.2640   44.8460 N   0  0  0  0  0  0  0  0  0  0  0  0
   46.1540   33.4650   45.8260 C   0  0  0  0  0  0  0  0  0  0  0  0
   45.1240   34.3020   45.6540 N   0  0  0  0  0  0  0  0  0  0  0  0
   43.8420   35.8180   44.4280 N   0  0  0  0  0  0  0  0  0  0  0  0
   46.2820   32.7780   47.0850 N   0  0  0  0  0  0  0  0  0  0  0  0
   45.2120   32.6220   47.8870 C   0  0  0  0  0  0  0  0  0  0  0  0
   45.6830   31.9260   49.0020 C   0  0  0  0  0  0  0  0  0  0  0  0
   47.0000   31.6900   48.8400 N   0  0  0  0  0  0  0  0  0  0  0  0
   47.3650   32.2100   47.6690 C   0  0  0  0  0  0  0  0  0  0  0  0
   45.7485   35.3290   42.4952 H   0  0  0  0  0  0  0  0  0  0  0  0
   47.7087   33.7222   42.8563 H   0  0  0  0  0  0  0  0  0  0  0  0
   43.6605   36.3554   43.5682 H   0  0  0  0  0  0  0  0  0  0  0  0
   43.2061   35.9051   45.2336 H   0  0  0  0  0  0  0  0  0  0  0  0
   44.1846   32.9692   47.7029 H   0  0  0  0  0  0  0  0  0  0  0  0
   45.0791   31.6208   49.8692 H   0  0  0  0  0  0  0  0  0  0  0  0
   48.3798   32.1828   47.2453 H   0  0  0  0  0  0  0  0  0  0  0  0
  1  6  2  0
  2  3  2  0
  2  1  1  0
  3  4  1  0
  4  5  2  0
  5  8  1  0
  6  5  1  0
  7  1  1  0
  8 12  1  0
  8  9  1  0
  9 10  2  0
 11 10  1  0
 12 11  2  0
  2 13  1  0
  3 14  1  0
  7 15  1  0
  7 16  1  0
  9 17  1  0
 10 18  1  0
 12 19  1  0
M  ISO  5  13  14  14  14  17  14  18  14  19  14
M  END
>  <minimizedAffinity>  (1) 
-4.96135807

>  <minimizedRMSD>  (1) 
0.179837823

$$$$
