
     RDKit          3D

 18 19  0  0  0  0  0  0  0  0999 V2000
   44.9420   35.0200   44.3960 C   0  0  0  0  0  0  0  0  0  0  0  0
   45.8720   34.8260   43.3680 C   0  0  0  0  0  0  0  0  0  0  0  0
   46.9340   33.9410   43.6190 C   0  0  0  0  0  0  0  0  0  0  0  0
   47.0020   33.3230   44.8460 N   0  0  0  0  0  0  0  0  0  0  0  0
   46.0800   33.5520   45.7880 C   0  0  0  0  0  0  0  0  0  0  0  0
   45.0530   34.3880   45.5840 N   0  0  0  0  0  0  0  0  0  0  0  0
   43.8150   35.8790   44.2960 N   0  0  0  0  0  0  0  0  0  0  0  0
   46.2920   32.8360   47.0000 N   0  0  0  0  0  0  0  0  0  0  0  0
   45.2610   32.6560   47.8560 C   0  0  0  0  0  0  0  0  0  0  0  0
   45.7060   31.9520   48.9280 N   0  0  0  0  0  0  0  0  0  0  0  0
   47.0270   31.6980   48.7260 C   0  0  0  0  0  0  0  0  0  0  0  0
   47.3520   32.2560   47.5340 N   0  0  0  0  0  0  0  0  0  0  0  0
   45.7753   35.3452   42.4031 H   0  0  0  0  0  0  0  0  0  0  0  0
   47.6958   33.7462   42.8497 H   0  0  0  0  0  0  0  0  0  0  0  0
   43.6443   36.4056   43.4274 H   0  0  0  0  0  0  0  0  0  0  0  0
   43.1685   35.9752   45.0921 H   0  0  0  0  0  0  0  0  0  0  0  0
   44.2333   33.0193   47.7084 H   0  0  0  0  0  0  0  0  0  0  0  0
   47.7005   31.1470   49.3989 H   0  0  0  0  0  0  0  0  0  0  0  0
  1  6  2  0
  2  3  2  0
  2  1  1  0
  3  4  1  0
  4  5  2  0
  5  8  1  0
  6  5  1  0
  7  1  1  0
  8 12  1  0
  8  9  1  0
  9 10  2  0
 11 10  1  0
 12 11  2  0
  2 13  1  0
  3 14  1  0
  7 15  1  0
  7 16  1  0
  9 17  1  0
 11 18  1  0
M  ISO  4  13  14  14  14  17  14  18  14
M  END
>  <minimizedAffinity>  (1) 
-4.94903898

>  <minimizedRMSD>  (1) 
0.181532681

$$$$
