
     RDKit          3D

 25 26  0  0  0  0  0  0  0  0999 V2000
   45.0510   34.8910   44.5770 C   0  0  0  0  0  0  0  0  0  0  0  0
   45.9910   34.8370   43.5370 C   0  0  0  0  0  0  0  0  0  0  0  0
   47.0090   33.8720   43.6420 C   0  0  0  0  0  0  0  0  0  0  0  0
   47.0220   33.0510   44.7390 N   0  0  0  0  0  0  0  0  0  0  0  0
   46.0930   33.1520   45.7010 C   0  0  0  0  0  0  0  0  0  0  0  0
   45.1090   34.0600   45.6340 N   0  0  0  0  0  0  0  0  0  0  0  0
   43.9720   35.8180   44.5960 N   0  0  0  0  0  0  0  0  0  0  0  0
   46.1390   32.2390   46.8820 C   0  0  0  0  0  0  0  0  0  0  0  0
   47.4390   32.3570   47.6450 C   0  0  0  0  0  0  0  0  0  0  0  0
   47.0720   31.5470   48.8960 C   0  0  0  0  0  0  0  0  0  0  0  0
   45.6030   31.7970   49.1160 C   0  0  0  0  0  0  0  0  0  0  0  0
   45.1300   32.6230   47.9370 C   0  0  0  0  0  0  0  0  0  0  0  0
   45.9344   35.5199   42.6765 H   0  0  0  0  0  0  0  0  0  0  0  0
   47.7777   33.7785   42.8607 H   0  0  0  0  0  0  0  0  0  0  0  0
   43.8562   36.4894   43.8235 H   0  0  0  0  0  0  0  0  0  0  0  0
   43.3066   35.8178   45.3822 H   0  0  0  0  0  0  0  0  0  0  0  0
   45.9696   31.2432   46.4465 H   0  0  0  0  0  0  0  0  0  0  0  0
   48.2793   31.9066   47.0963 H   0  0  0  0  0  0  0  0  0  0  0  0
   47.7785   33.3858   47.8359 H   0  0  0  0  0  0  0  0  0  0  0  0
   47.2597   30.4759   48.7300 H   0  0  0  0  0  0  0  0  0  0  0  0
   47.6732   31.8447   49.7677 H   0  0  0  0  0  0  0  0  0  0  0  0
   45.0564   30.8433   49.1564 H   0  0  0  0  0  0  0  0  0  0  0  0
   45.4249   32.3200   50.0672 H   0  0  0  0  0  0  0  0  0  0  0  0
   45.1690   33.6998   48.1584 H   0  0  0  0  0  0  0  0  0  0  0  0
   44.0847   32.4384   47.6485 H   0  0  0  0  0  0  0  0  0  0  0  0
  1  7  1  0
  1  6  2  0
  2  3  2  0
  2  1  1  0
  3  4  1  0
  4  5  2  0
  5  8  1  0
  6  5  1  0
  8  9  1  0
  8 12  1  0
  9 10  1  0
 10 11  1  0
 12 11  1  0
  2 13  1  0
  3 14  1  0
  7 15  1  0
  7 16  1  0
  8 17  1  0
  9 18  1  0
  9 19  1  0
 10 20  1  0
 10 21  1  0
 11 22  1  0
 11 23  1  0
 12 24  1  0
 12 25  1  0
M  ISO  8  13  14  14  14  17  13  18  13  19  13  20  13  21  13  22  13
M  ISO  3  23  13  24  13  25  13
M  END
>  <minimizedAffinity>  (1) 
-4.81044292

>  <minimizedRMSD>  (1) 
0.541209161

$$$$
