
     RDKit          3D

 44 47  0  0  1  0  0  0  0  0999 V2000
   47.9030   34.6340   41.6120 C   0  0  2  0  0  0  0  0  0  0  0  0
   48.9670   35.5400   41.8730 C   0  0  0  0  0  0  0  0  0  0  0  0
   50.1750   34.7000   42.3240 C   0  0  0  0  0  0  0  0  0  0  0  0
   49.7600   33.2330   42.2550 C   0  0  0  0  0  0  0  0  0  0  0  0
   48.2960   33.3190   42.3550 C   0  0  1  0  0  0  0  0  0  0  0  0
   47.5830   34.1970   40.2310 C   0  0  0  0  0  0  0  0  0  0  0  0
   48.3790   34.6540   39.1950 C   0  0  0  0  0  0  0  0  0  0  0  0
   48.1250   34.2790   37.8940 C   0  0  0  0  0  0  0  0  0  0  0  0
   47.0570   33.4460   37.7100 N   0  0  0  0  0  0  0  0  0  0  0  0
   46.3010   33.0160   38.7240 C   0  0  0  0  0  0  0  0  0  0  0  0
   46.5420   33.3780   39.9980 N   0  0  0  0  0  0  0  0  0  0  0  0
   47.8600   33.4000   43.7800 C   0  0  0  0  0  0  0  0  0  0  0  0
   46.5110   32.7880   43.9700 C   0  0  0  0  0  0  0  0  0  0  0  0
   45.6630   33.8440   44.6170 C   0  0  0  0  0  0  0  0  0  0  0  0
   45.0180   34.9120   44.0510 C   0  0  0  0  0  0  0  0  0  0  0  0
   44.3840   35.5830   45.0530 N   0  0  0  0  0  0  0  0  0  0  0  0
   44.6300   34.9530   46.1910 C   0  0  0  0  0  0  0  0  0  0  0  0
   45.3930   33.9060   45.9610 N   0  0  0  0  0  0  0  0  0  0  0  0
   45.8800   32.9680   46.9280 C   0  0  0  0  0  0  0  0  0  0  0  0
   47.1730   32.5580   47.1730 C   0  0  0  0  0  0  0  0  0  0  0  0
   47.3960   31.6320   48.1700 C   0  0  0  0  0  0  0  0  0  0  0  0
   46.3820   31.1240   48.9050 N   0  0  0  0  0  0  0  0  0  0  0  0
   45.1140   31.5520   48.6360 C   0  0  0  0  0  0  0  0  0  0  0  0
   44.8500   32.4660   47.6590 N   0  0  0  0  0  0  0  0  0  0  0  0
   47.0124   35.2015   41.9200 H   0  0  0  0  0  0  0  0  0  0  0  0
   49.2171   36.1014   40.9607 H   0  0  0  0  0  0  0  0  0  0  0  0
   48.6824   36.2655   42.6493 H   0  0  0  0  0  0  0  0  0  0  0  0
   51.0297   34.8811   41.6557 H   0  0  0  0  0  0  0  0  0  0  0  0
   50.4775   34.9711   43.3463 H   0  0  0  0  0  0  0  0  0  0  0  0
   50.0685   32.7757   41.3033 H   0  0  0  0  0  0  0  0  0  0  0  0
   50.2196   32.6071   43.0341 H   0  0  0  0  0  0  0  0  0  0  0  0
   47.8166   32.4299   41.9194 H   0  0  0  0  0  0  0  0  0  0  0  0
   49.2237   35.3240   39.4129 H   0  0  0  0  0  0  0  0  0  0  0  0
   48.7439   34.6286   37.0545 H   0  0  0  0  0  0  0  0  0  0  0  0
   45.4554   32.3454   38.5113 H   0  0  0  0  0  0  0  0  0  0  0  0
   48.5877   32.8656   44.4084 H   0  0  0  0  0  0  0  0  0  0  0  0
   47.8037   34.4606   44.0663 H   0  0  0  0  0  0  0  0  0  0  0  0
   46.0836   32.4968   42.9992 H   0  0  0  0  0  0  0  0  0  0  0  0
   46.5648   31.8803   44.5890 H   0  0  0  0  0  0  0  0  0  0  0  0
   45.0129   35.1787   42.9838 H   0  0  0  0  0  0  0  0  0  0  0  0
   44.2538   35.2583   47.1786 H   0  0  0  0  0  0  0  0  0  0  0  0
   48.0104   32.9615   46.5848 H   0  0  0  0  0  0  0  0  0  0  0  0
   48.4246   31.2985   48.3721 H   0  0  0  0  0  0  0  0  0  0  0  0
   44.2787   31.1468   49.2260 H   0  0  0  0  0  0  0  0  0  0  0  0
  1  2  1  0
  1  5  1  0
  2  3  1  0
  4  3  1  0
  4  5  1  0
  5 12  1  0
  6  1  1  0
  7  6  2  0
  8  7  1  0
  9  8  2  0
  9 10  1  0
 10 11  2  0
 11  6  1  0
 12 13  1  0
 13 14  1  0
 14 18  1  0
 15 14  2  0
 15 16  1  0
 16 17  2  0
 18 17  1  0
 18 19  1  0
 19 20  2  0
 19 24  1  0
 20 21  1  0
 21 22  2  0
 23 22  1  0
 24 23  2  0
  1 25  1  1
  2 26  1  0
  2 27  1  0
  3 28  1  0
  3 29  1  0
  4 30  1  0
  4 31  1  0
  5 32  1  6
  7 33  1  0
  8 34  1  0
 10 35  1  0
 12 36  1  0
 12 37  1  0
 13 38  1  0
 13 39  1  0
 15 40  1  0
 17 41  1  0
 20 42  1  0
 21 43  1  0
 23 44  1  0
M  ISO  8  25  13  26  13  27  13  28  13  29  13  30  13  31  13  32  13
M  ISO  8  33  14  34  14  35  14  36   8  37   8  38   8  39   8  40  14
M  ISO  4  41  14  42  14  43  14  44  14
M  END
>  <minimizedAffinity>  (1) 
-6.15827894

>  <minimizedRMSD>  (1) 
1.1354996

$$$$
