
     RDKit          3D

 25 26  0  0  0  0  0  0  0  0999 V2000
   44.7180   35.2850   43.8170 C   0  0  0  0  0  0  0  0  0  0  0  0
   45.4600   35.7010   42.7110 C   0  0  0  0  0  0  0  0  0  0  0  0
   46.7120   35.0660   42.5100 C   0  0  0  0  0  0  0  0  0  0  0  0
   47.1050   34.1070   43.3930 N   0  0  0  0  0  0  0  0  0  0  0  0
   46.3420   33.7530   44.4400 C   0  0  0  0  0  0  0  0  0  0  0  0
   45.1640   34.3400   44.6410 N   0  0  0  0  0  0  0  0  0  0  0  0
   43.4370   35.8310   44.1510 N   0  0  0  0  0  0  0  0  0  0  0  0
   47.6930   30.7860   47.0980 C   0  0  0  0  0  0  0  0  0  0  0  0
   47.2570   31.9910   47.6080 C   0  0  0  0  0  0  0  0  0  0  0  0
   46.8170   32.9530   46.7200 C   0  0  0  0  0  0  0  0  0  0  0  0
   46.8130   32.7180   45.3580 C   0  0  0  0  0  0  0  0  0  0  0  0
   47.2570   31.4990   44.8880 C   0  0  0  0  0  0  0  0  0  0  0  0
   47.7140   30.4880   45.7410 C   0  0  0  0  0  0  0  0  0  0  0  0
   48.2410   29.6030   48.2780 S   0  0  0  0  0  0  0  0  0  0  0  0
   48.7010   30.3720   49.4870 O   0  0  0  0  0  0  0  0  0  0  0  0
   49.3270   28.7610   47.6960 O   0  0  0  0  0  0  0  0  0  0  0  0
   45.0924   36.4821   42.0293 H   0  0  0  0  0  0  0  0  0  0  0  0
   47.3519   35.3423   41.6590 H   0  0  0  0  0  0  0  0  0  0  0  0
   43.0217   36.5673   43.5626 H   0  0  0  0  0  0  0  0  0  0  0  0
   42.9309   35.4874   44.9797 H   0  0  0  0  0  0  0  0  0  0  0  0
   47.2596   32.1806   48.6915 H   0  0  0  0  0  0  0  0  0  0  0  0
   46.4640   33.9219   47.1029 H   0  0  0  0  0  0  0  0  0  0  0  0
   47.2516   31.3152   43.8035 H   0  0  0  0  0  0  0  0  0  0  0  0
   48.0677   29.5182   45.3610 H   0  0  0  0  0  0  0  0  0  0  0  0
   47.2376   28.7417   48.6362 H   0  0  0  0  0  0  0  0  0  0  0  0
  1  7  1  0
  1  6  2  0
  2  1  1  0
  3  2  2  0
  3  4  1  0
  4  5  2  0
  5  6  1  0
  5 11  1  0
  8  9  2  0
  8 14  1  0
 10  9  1  0
 11 10  2  0
 12 11  1  0
 12 13  2  0
 13  8  1  0
 14 15  2  0
 16 14  2  0
  2 17  1  0
  3 18  1  0
  7 19  1  0
  7 20  1  0
  9 21  1  0
 10 22  1  0
 12 23  1  0
 13 24  1  0
 14 25  1  0
M  ISO  7  17  14  18  14  21  14  22  14  23  14  24  14  25  11
M  END
>  <minimizedAffinity>  (1) 
-4.74563789

>  <minimizedRMSD>  (1) 
2.33858347

$$$$
