
     RDKit          3D

 15 15  0  0  0  0  0  0  0  0999 V2000
   44.9130   35.0900   44.2330 C   0  0  0  0  0  0  0  0  0  0  0  0
   45.8020   35.0470   43.1390 C   0  0  0  0  0  0  0  0  0  0  0  0
   46.9260   34.2120   43.2480 C   0  0  0  0  0  0  0  0  0  0  0  0
   47.0920   33.4930   44.4060 N   0  0  0  0  0  0  0  0  0  0  0  0
   46.2130   33.5760   45.4090 C   0  0  0  0  0  0  0  0  0  0  0  0
   45.1330   34.3630   45.3340 N   0  0  0  0  0  0  0  0  0  0  0  0
   43.7440   35.8870   44.2560 N   0  0  0  0  0  0  0  0  0  0  0  0
   46.4460   32.7830   46.6200 C   0  0  0  0  0  0  0  0  0  0  0  0
   45.7950   31.7350   46.8410 O   0  0  0  0  0  0  0  0  0  0  0  0
   47.3830   33.1420   47.5690 O   0  0  0  0  0  0  0  0  0  0  0  0
   45.6217   35.6454   42.2338 H   0  0  0  0  0  0  0  0  0  0  0  0
   47.6543   34.1360   42.4272 H   0  0  0  0  0  0  0  0  0  0  0  0
   43.5058   36.4753   43.4448 H   0  0  0  0  0  0  0  0  0  0  0  0
   43.1313   35.8788   45.0839 H   0  0  0  0  0  0  0  0  0  0  0  0
   47.5120   32.5808   48.3743 H   0  0  0  0  0  0  0  0  0  0  0  0
  1  7  1  0
  1  6  2  0
  2  3  2  0
  2  1  1  0
  3  4  1  0
  4  5  2  0
  5  8  1  0
  6  5  1  0
  8  9  2  0
  8 10  1  0
  2 11  1  0
  3 12  1  0
  7 13  1  0
  7 14  1  0
 10 15  1  0
M  ISO  3  11  14  12  14  15   3
M  END
>  <minimizedAffinity>  (1) 
-4.3659234

>  <minimizedRMSD>  (1) 
0.293134868

$$$$
