
     RDKit          3D

 21 21  0  0  0  0  0  0  0  0999 V2000
   44.7840   35.1720   45.3190 C   0  0  0  0  0  0  0  0  0  0  0  0
   44.5410   36.2110   44.4060 C   0  0  0  0  0  0  0  0  0  0  0  0
   45.2070   36.1650   43.1720 C   0  0  0  0  0  0  0  0  0  0  0  0
   46.0520   35.1150   42.9210 N   0  0  0  0  0  0  0  0  0  0  0  0
   46.2520   34.1360   43.8350 C   0  0  0  0  0  0  0  0  0  0  0  0
   45.6240   34.1650   45.0220 N   0  0  0  0  0  0  0  0  0  0  0  0
   44.1880   35.0740   46.6120 N   0  0  0  0  0  0  0  0  0  0  0  0
   47.1900   33.0450   43.4590 C   0  0  0  0  0  0  0  0  0  0  0  0
   47.3080   32.0340   44.5530 C   0  0  0  0  0  0  0  0  0  0  0  0
   48.5150   33.5840   42.9870 C   0  0  0  0  0  0  0  0  0  0  0  0
   43.8519   37.0330   44.6500 H   0  0  0  0  0  0  0  0  0  0  0  0
   45.0544   36.9548   42.4217 H   0  0  0  0  0  0  0  0  0  0  0  0
   44.4172   34.2793   47.2258 H   0  0  0  0  0  0  0  0  0  0  0  0
   43.5286   35.7980   46.9314 H   0  0  0  0  0  0  0  0  0  0  0  0
   46.7681   32.5111   42.5947 H   0  0  0  0  0  0  0  0  0  0  0  0
   47.2489   32.5401   45.5279 H   0  0  0  0  0  0  0  0  0  0  0  0
   46.4889   31.3047   44.4682 H   0  0  0  0  0  0  0  0  0  0  0  0
   48.2731   31.5130   44.4682 H   0  0  0  0  0  0  0  0  0  0  0  0
   49.1386   33.8377   43.8570 H   0  0  0  0  0  0  0  0  0  0  0  0
   49.0255   32.8220   42.3797 H   0  0  0  0  0  0  0  0  0  0  0  0
   48.3486   34.4859   42.3797 H   0  0  0  0  0  0  0  0  0  0  0  0
  1  7  1  0
  2  1  2  0
  3  2  1  0
  4  3  2  0
  4  5  1  0
  5  6  2  0
  6  1  1  0
  8  5  1  0
  8  9  1  0
 10  8  1  0
  2 11  1  0
  3 12  1  0
  7 13  1  0
  7 14  1  0
  8 15  1  0
  9 16  1  0
  9 17  1  0
  9 18  1  0
 10 19  1  0
 10 20  1  0
 10 21  1  0
M  ISO  8  11  14  12  14  15   8  16   8  17   8  18   8  19   8  20   8
M  ISO  1  21   8
M  END
>  <minimizedAffinity>  (1) 
-4.13873672

>  <minimizedRMSD>  (1) 
2.91132617

$$$$
