
     RDKit          3D

 14 14  0  0  0  0  0  0  0  0999 V2000
   44.9230   35.0880   44.2600 C   0  0  0  0  0  0  0  0  0  0  0  0
   45.8480   35.0250   43.2110 C   0  0  0  0  0  0  0  0  0  0  0  0
   46.9520   34.1740   43.3600 C   0  0  0  0  0  0  0  0  0  0  0  0
   47.0650   33.4550   44.5180 N   0  0  0  0  0  0  0  0  0  0  0  0
   46.1490   33.5540   45.4930 C   0  0  0  0  0  0  0  0  0  0  0  0
   45.0900   34.3540   45.3790 N   0  0  0  0  0  0  0  0  0  0  0  0
   43.7640   35.9030   44.2470 N   0  0  0  0  0  0  0  0  0  0  0  0
   46.3850   32.7340   46.6790 C   0  0  0  0  0  0  0  0  0  0  0  0
   45.4860   32.6630   47.5570 O   0  0  0  0  0  0  0  0  0  0  0  0
   45.7128   35.6244   42.2986 H   0  0  0  0  0  0  0  0  0  0  0  0
   47.7081   34.0867   42.5658 H   0  0  0  0  0  0  0  0  0  0  0  0
   43.5605   36.4959   43.4297 H   0  0  0  0  0  0  0  0  0  0  0  0
   43.1250   35.9025   45.0548 H   0  0  0  0  0  0  0  0  0  0  0  0
   47.3320   32.1881   46.8024 H   0  0  0  0  0  0  0  0  0  0  0  0
  1  6  2  0
  2  3  2  0
  2  1  1  0
  3  4  1  0
  4  5  2  0
  5  8  1  0
  6  5  1  0
  7  1  1  0
  8  9  2  0
  2 10  1  0
  3 11  1  0
  7 12  1  0
  7 13  1  0
  8 14  1  0
M  ISO  3  10  14  11  14  14   6
M  END
>  <minimizedAffinity>  (1) 
-3.63837624

>  <minimizedRMSD>  (1) 
0.514682114

$$$$
