
     RDKit          3D

 49 52  0  0  1  0  0  0  0  0999 V2000
   47.8310   34.7240   41.4610 C   0  0  2  0  0  0  0  0  0  0  0  0
   48.8320   35.6700   41.8050 C   0  0  0  0  0  0  0  0  0  0  0  0
   50.0440   34.8790   42.3290 C   0  0  0  0  0  0  0  0  0  0  0  0
   49.7050   33.4010   42.2240 C   0  0  0  0  0  0  0  0  0  0  0  0
   48.2370   33.4230   42.2230 C   0  0  1  0  0  0  0  0  0  0  0  0
   47.6250   34.2820   40.0580 C   0  0  0  0  0  0  0  0  0  0  0  0
   48.4700   34.7830   39.0860 C   0  0  0  0  0  0  0  0  0  0  0  0
   48.3220   34.3990   37.7670 C   0  0  0  0  0  0  0  0  0  0  0  0
   47.3090   33.5180   37.5080 N   0  0  0  0  0  0  0  0  0  0  0  0
   46.5060   33.0500   38.4680 C   0  0  0  0  0  0  0  0  0  0  0  0
   46.6490   33.4220   39.7510 N   0  0  0  0  0  0  0  0  0  0  0  0
   47.7050   33.4710   43.6170 C   0  0  0  0  0  0  0  0  0  0  0  0
   46.3050   32.9570   43.6760 C   0  0  0  0  0  0  0  0  0  0  0  0
   45.6060   33.7690   44.7300 C   0  0  0  0  0  0  0  0  0  0  0  0
   45.0230   35.0070   44.6190 C   0  0  0  0  0  0  0  0  0  0  0  0
   44.5240   35.3340   45.8400 N   0  0  0  0  0  0  0  0  0  0  0  0
   44.7930   34.3280   46.6740 C   0  0  0  0  0  0  0  0  0  0  0  0
   45.4400   33.3760   46.0350 N   0  0  0  0  0  0  0  0  0  0  0  0
   45.9350   32.0910   46.5510 C   0  0  0  0  0  0  0  0  0  0  0  0
   47.3090   32.2180   47.1030 C   0  0  0  0  0  0  0  0  0  0  0  0
   47.2520   32.0370   48.5970 C   0  0  0  0  0  0  0  0  0  0  0  0
   45.8060   32.2990   48.9440 C   0  0  0  0  0  0  0  0  0  0  0  0
   45.1100   31.6410   47.7460 C   0  0  0  0  0  0  0  0  0  0  0  0
   46.8956   35.2496   41.7035 H   0  0  0  0  0  0  0  0  0  0  0  0
   49.1183   36.2551   40.9186 H   0  0  0  0  0  0  0  0  0  0  0  0
   48.4622   36.3698   42.5689 H   0  0  0  0  0  0  0  0  0  0  0  0
   50.9317   35.1049   41.7200 H   0  0  0  0  0  0  0  0  0  0  0  0
   50.2641   35.1529   43.3714 H   0  0  0  0  0  0  0  0  0  0  0  0
   50.0987   32.9659   41.2936 H   0  0  0  0  0  0  0  0  0  0  0  0
   50.1385   32.7887   43.0284 H   0  0  0  0  0  0  0  0  0  0  0  0
   47.8291   32.5185   41.7481 H   0  0  0  0  0  0  0  0  0  0  0  0
   49.2645   35.4912   39.3638 H   0  0  0  0  0  0  0  0  0  0  0  0
   48.9803   34.7796   36.9722 H   0  0  0  0  0  0  0  0  0  0  0  0
   45.7075   32.3421   38.2010 H   0  0  0  0  0  0  0  0  0  0  0  0
   48.3423   32.8527   44.2662 H   0  0  0  0  0  0  0  0  0  0  0  0
   47.7075   34.5175   43.9560 H   0  0  0  0  0  0  0  0  0  0  0  0
   45.8093   33.0873   42.7027 H   0  0  0  0  0  0  0  0  0  0  0  0
   46.2812   31.8835   43.9147 H   0  0  0  0  0  0  0  0  0  0  0  0
   44.9696   35.6217   43.7084 H   0  0  0  0  0  0  0  0  0  0  0  0
   44.5153   34.2984   47.7380 H   0  0  0  0  0  0  0  0  0  0  0  0
   45.8874   31.3930   45.7022 H   0  0  0  0  0  0  0  0  0  0  0  0
   47.9572   31.4465   46.6618 H   0  0  0  0  0  0  0  0  0  0  0  0
   47.7174   33.2107   46.8627 H   0  0  0  0  0  0  0  0  0  0  0  0
   47.5419   31.0137   48.8779 H   0  0  0  0  0  0  0  0  0  0  0  0
   47.9425   32.7068   49.1304 H   0  0  0  0  0  0  0  0  0  0  0  0
   45.5223   31.8197   49.8925 H   0  0  0  0  0  0  0  0  0  0  0  0
   45.5549   33.3592   49.0957 H   0  0  0  0  0  0  0  0  0  0  0  0
   44.0705   31.9896   47.6574 H   0  0  0  0  0  0  0  0  0  0  0  0
   45.0560   30.5460   47.8359 H   0  0  0  0  0  0  0  0  0  0  0  0
  1  2  1  0
  1  5  1  0
  2  3  1  0
  4  3  1  0
  5  4  1  0
  5 12  1  0
  6  1  1  0
  7  6  2  0
  8  7  1  0
  9  8  2  0
  9 10  1  0
 10 11  2  0
 11  6  1  0
 12 13  1  0
 13 14  1  0
 14 18  1  0
 15 14  2  0
 15 16  1  0
 16 17  2  0
 18 19  1  0
 18 17  1  0
 19 20  1  0
 19 23  1  0
 20 21  1  0
 21 22  1  0
 23 22  1  0
  1 24  1  1
  2 25  1  0
  2 26  1  0
  3 27  1  0
  3 28  1  0
  4 29  1  0
  4 30  1  0
  5 31  1  6
  7 32  1  0
  8 33  1  0
 10 34  1  0
 12 35  1  0
 12 36  1  0
 13 37  1  0
 13 38  1  0
 15 39  1  0
 17 40  1  0
 19 41  1  0
 20 42  1  0
 20 43  1  0
 21 44  1  0
 21 45  1  0
 22 46  1  0
 22 47  1  0
 23 48  1  0
 23 49  1  0
M  ISO  8  24  13  25  13  26  13  27  13  28  13  29  13  30  13  31  13
M  ISO  8  32  14  33  14  34  14  35   8  36   8  37   8  38   8  39  14
M  ISO  8  40  14  41  13  42  13  43  13  44  13  45  13  46  13  47  13
M  ISO  2  48  13  49  13
M  END
>  <minimizedAffinity>  (1) 
-6.08558035

>  <minimizedRMSD>  (1) 
1.49824727

$$$$
