
     RDKit          3D

 14 14  0  0  0  0  0  0  0  0999 V2000
   44.9050   35.0390   44.3630 C   0  0  0  0  0  0  0  0  0  0  0  0
   45.7930   34.8120   43.3030 C   0  0  0  0  0  0  0  0  0  0  0  0
   46.8750   33.9390   43.5600 C   0  0  0  0  0  0  0  0  0  0  0  0
   46.9920   33.3780   44.7960 N   0  0  0  0  0  0  0  0  0  0  0  0
   46.1010   33.6370   45.7760 C   0  0  0  0  0  0  0  0  0  0  0  0
   45.0710   34.4600   45.5540 N   0  0  0  0  0  0  0  0  0  0  0  0
   43.7730   35.8920   44.2520 N   0  0  0  0  0  0  0  0  0  0  0  0
   46.2590   33.0310   47.0530 N   0  0  0  0  0  0  0  0  0  0  0  0
   45.6553   35.2886   42.3212 H   0  0  0  0  0  0  0  0  0  0  0  0
   47.6113   33.7161   42.7738 H   0  0  0  0  0  0  0  0  0  0  0  0
   43.5774   36.3752   43.3637 H   0  0  0  0  0  0  0  0  0  0  0  0
   43.1485   36.0267   45.0599 H   0  0  0  0  0  0  0  0  0  0  0  0
   45.5809   33.2264   47.8032 H   0  0  0  0  0  0  0  0  0  0  0  0
   47.0515   32.3967   47.2275 H   0  0  0  0  0  0  0  0  0  0  0  0
  1  6  2  0
  2  3  2  0
  2  1  1  0
  3  4  1  0
  4  5  2  0
  5  8  1  0
  6  5  1  0
  7  1  1  0
  2  9  1  0
  3 10  1  0
  7 11  1  0
  7 12  1  0
  8 13  1  0
  8 14  1  0
M  ISO  2   9  14  10  14
M  END
>  <minimizedAffinity>  (1) 
-3.63755703

>  <minimizedRMSD>  (1) 
0.146457911

$$$$
