
     RDKit          3D

 13 13  0  0  0  0  0  0  0  0999 V2000
   44.8950   35.0380   44.3610 C   0  0  0  0  0  0  0  0  0  0  0  0
   45.7870   34.7700   43.3180 C   0  0  0  0  0  0  0  0  0  0  0  0
   46.8640   33.9010   43.5810 C   0  0  0  0  0  0  0  0  0  0  0  0
   46.9730   33.3720   44.8360 N   0  0  0  0  0  0  0  0  0  0  0  0
   46.0870   33.6630   45.8010 C   0  0  0  0  0  0  0  0  0  0  0  0
   45.0540   34.4850   45.5830 N   0  0  0  0  0  0  0  0  0  0  0  0
   43.7690   35.8910   44.2400 N   0  0  0  0  0  0  0  0  0  0  0  0
   46.2550   33.0890   47.0660 O   0  0  0  0  0  0  0  0  0  0  0  0
   45.6521   35.2229   42.3247 H   0  0  0  0  0  0  0  0  0  0  0  0
   47.5966   33.6552   42.7981 H   0  0  0  0  0  0  0  0  0  0  0  0
   43.5695   36.3564   43.3431 H   0  0  0  0  0  0  0  0  0  0  0  0
   43.1505   36.0453   45.0490 H   0  0  0  0  0  0  0  0  0  0  0  0
   45.6118   33.2915   47.7909 H   0  0  0  0  0  0  0  0  0  0  0  0
  1  6  2  0
  2  3  2  0
  2  1  1  0
  3  4  1  0
  4  5  2  0
  5  8  1  0
  6  5  1  0
  7  1  1  0
  2  9  1  0
  3 10  1  0
  7 11  1  0
  7 12  1  0
  8 13  1  0
M  ISO  3   9  14  10  14  13   3
M  END
>  <minimizedAffinity>  (1) 
-3.59005308

>  <minimizedRMSD>  (1) 
0.185336605

$$$$
