
     RDKit          3D

 15 15  0  0  0  0  0  0  0  0999 V2000
   44.9320   35.0670   44.2950 C   0  0  0  0  0  0  0  0  0  0  0  0
   45.8230   35.0400   43.2010 C   0  0  0  0  0  0  0  0  0  0  0  0
   46.9530   34.1900   43.3110 C   0  0  0  0  0  0  0  0  0  0  0  0
   47.1190   33.4550   44.4450 N   0  0  0  0  0  0  0  0  0  0  0  0
   46.2410   33.5220   45.4510 C   0  0  0  0  0  0  0  0  0  0  0  0
   45.1620   34.3140   45.3810 N   0  0  0  0  0  0  0  0  0  0  0  0
   43.7640   35.8590   44.3390 N   0  0  0  0  0  0  0  0  0  0  0  0
   46.4600   32.6990   46.6800 C   0  0  0  0  0  0  0  0  0  0  0  0
   45.6489   35.6509   42.3030 H   0  0  0  0  0  0  0  0  0  0  0  0
   47.6846   34.1255   42.4921 H   0  0  0  0  0  0  0  0  0  0  0  0
   43.5214   36.4636   43.5412 H   0  0  0  0  0  0  0  0  0  0  0  0
   43.1545   35.8322   45.1689 H   0  0  0  0  0  0  0  0  0  0  0  0
   46.2945   33.3209   47.5721 H   0  0  0  0  0  0  0  0  0  0  0  0
   45.7554   31.8543   46.6860 H   0  0  0  0  0  0  0  0  0  0  0  0
   47.4912   32.3163   46.6860 H   0  0  0  0  0  0  0  0  0  0  0  0
  1  7  1  0
  1  6  2  0
  2  3  2  0
  2  1  1  0
  3  4  1  0
  4  5  2  0
  5  8  1  0
  6  5  1  0
  2  9  1  0
  3 10  1  0
  7 11  1  0
  7 12  1  0
  8 13  1  0
  8 14  1  0
  8 15  1  0
M  ISO  5   9  14  10  14  13   8  14   8  15   8
M  END
>  <minimizedAffinity>  (1) 
-3.53584552

>  <minimizedRMSD>  (1) 
0.226447433

$$$$
