
     RDKit          3D

 30 31  0  0  1  0  0  0  0  0999 V2000
   45.1640   34.6950   44.9580 C   0  0  0  0  0  0  0  0  0  0  0  0
   45.9140   34.4960   43.7760 C   0  0  0  0  0  0  0  0  0  0  0  0
   46.7970   33.4060   43.7390 C   0  0  0  0  0  0  0  0  0  0  0  0
   46.8770   32.6000   44.8530 N   0  0  0  0  0  0  0  0  0  0  0  0
   46.1350   32.8460   45.9420 C   0  0  0  0  0  0  0  0  0  0  0  0
   45.2730   33.8720   46.0360 N   0  0  0  0  0  0  0  0  0  0  0  0
   44.2490   35.7470   45.1300 N   0  0  0  0  0  0  0  0  0  0  0  0
   46.2810   31.9730   47.0490 N   0  0  0  0  0  0  0  0  0  0  0  0
   45.2600   31.5910   48.0220 C   0  0  0  0  0  0  0  0  0  0  0  0
   45.5330   30.1100   48.2400 C   0  0  0  0  0  0  0  0  0  0  0  0
   46.8790   29.8330   47.5890 C   0  0  0  0  0  0  0  0  0  0  0  0
   47.4520   31.2350   47.5130 C   0  0  2  0  0  0  0  0  0  0  0  0
   47.8800   31.7300   48.8540 C   0  0  0  0  0  0  0  0  0  0  0  0
   48.9560   30.8430   49.4570 C   0  0  0  0  0  0  0  0  0  0  0  0
   45.8089   35.1724   42.9150 H   0  0  0  0  0  0  0  0  0  0  0  0
   47.4071   33.2014   42.8469 H   0  0  0  0  0  0  0  0  0  0  0  0
   44.0950   36.4250   44.3701 H   0  0  0  0  0  0  0  0  0  0  0  0
   43.7321   35.8403   46.0160 H   0  0  0  0  0  0  0  0  0  0  0  0
   45.3750   32.1564   48.9585 H   0  0  0  0  0  0  0  0  0  0  0  0
   44.2353   31.7973   47.6792 H   0  0  0  0  0  0  0  0  0  0  0  0
   45.5744   29.8830   49.3155 H   0  0  0  0  0  0  0  0  0  0  0  0
   44.7386   29.4852   47.8058 H   0  0  0  0  0  0  0  0  0  0  0  0
   47.5020   29.1743   48.2119 H   0  0  0  0  0  0  0  0  0  0  0  0
   46.8185   29.3127   46.6217 H   0  0  0  0  0  0  0  0  0  0  0  0
   48.3476   31.3225   46.8803 H   0  0  0  0  0  0  0  0  0  0  0  0
   48.2758   32.7509   48.7486 H   0  0  0  0  0  0  0  0  0  0  0  0
   47.0064   31.7160   49.5223 H   0  0  0  0  0  0  0  0  0  0  0  0
   48.8981   30.8908   50.5544 H   0  0  0  0  0  0  0  0  0  0  0  0
   48.8032   29.8050   49.1266 H   0  0  0  0  0  0  0  0  0  0  0  0
   49.9458   31.1910   49.1266 H   0  0  0  0  0  0  0  0  0  0  0  0
  1  7  1  0
  1  6  2  0
  2  1  1  0
  3  2  2  0
  3  4  1  0
  4  5  2  0
  5  6  1  0
  5  8  1  0
  8 12  1  0
  8  9  1  0
  9 10  1  0
 11 10  1  0
 12 11  1  0
 12 13  1  0
 13 14  1  0
  2 15  1  0
  3 16  1  0
  7 17  1  0
  7 18  1  0
  9 19  1  0
  9 20  1  0
 10 21  1  0
 10 22  1  0
 11 23  1  0
 11 24  1  0
 12 25  1  6
 13 26  1  0
 13 27  1  0
 14 28  1  0
 14 29  1  0
 14 30  1  0
M  ISO  8  15  14  16  14  19  13  20  13  21  13  22  13  23  13  24  13
M  ISO  6  25  13  26   8  27   8  28   8  29   8  30   8
M  END
>  <minimizedAffinity>  (1) 
-4.75550461

>  <minimizedRMSD>  (1) 
0.942914486

$$$$
