
     RDKit          3D

 31 33  0  0  1  0  0  0  0  0999 V2000
   45.1120   34.6320   44.9210 C   0  0  0  0  0  0  0  0  0  0  0  0
   45.1300   33.9070   43.7120 C   0  0  0  0  0  0  0  0  0  0  0  0
   45.5050   32.5340   43.7640 C   0  0  0  0  0  0  0  0  0  0  0  0
   45.8220   32.0240   44.9980 N   0  0  0  0  0  0  0  0  0  0  0  0
   45.7870   32.7570   46.1010 C   0  0  0  0  0  0  0  0  0  0  0  0
   45.4400   34.0470   46.0910 N   0  0  0  0  0  0  0  0  0  0  0  0
   44.7590   35.9920   44.9880 N   0  0  0  0  0  0  0  0  0  0  0  0
   46.1330   32.1330   47.3200 N   0  0  0  0  0  0  0  0  0  0  0  0
   45.6340   32.4380   48.6590 C   0  0  0  0  0  0  0  0  0  0  0  0
   45.3930   31.0720   49.2920 C   0  0  0  0  0  0  0  0  0  0  0  0
   46.1010   30.0780   48.3500 C   0  0  0  0  0  0  0  0  0  0  0  0
   47.0360   31.0550   47.6360 C   0  0  1  0  0  0  0  0  0  0  0  0
   47.6610   30.4690   46.4120 C   0  0  0  0  0  0  0  0  0  0  0  0
   48.7730   29.5280   46.5740 C   0  0  0  0  0  0  0  0  0  0  0  0
   47.4550   29.0450   46.0890 C   0  0  0  0  0  0  0  0  0  0  0  0
   44.8629   34.3866   42.7588 H   0  0  0  0  0  0  0  0  0  0  0  0
   45.5389   31.9116   42.8576 H   0  0  0  0  0  0  0  0  0  0  0  0
   44.4977   36.4991   44.1304 H   0  0  0  0  0  0  0  0  0  0  0  0
   44.7618   36.4807   45.8947 H   0  0  0  0  0  0  0  0  0  0  0  0
   46.3804   33.0070   49.2327 H   0  0  0  0  0  0  0  0  0  0  0  0
   44.7252   33.0573   48.6376 H   0  0  0  0  0  0  0  0  0  0  0  0
   45.8290   31.0290   50.3010 H   0  0  0  0  0  0  0  0  0  0  0  0
   44.3222   30.8480   49.4071 H   0  0  0  0  0  0  0  0  0  0  0  0
   46.6552   29.3065   48.9047 H   0  0  0  0  0  0  0  0  0  0  0  0
   45.4395   29.4908   47.6961 H   0  0  0  0  0  0  0  0  0  0  0  0
   47.9041   31.3549   48.2414 H   0  0  0  0  0  0  0  0  0  0  0  0
   47.5058   31.4091   45.8623 H   0  0  0  0  0  0  0  0  0  0  0  0
   49.6313   29.5672   45.8871 H   0  0  0  0  0  0  0  0  0  0  0  0
   49.4464   29.2540   47.3995 H   0  0  0  0  0  0  0  0  0  0  0  0
   46.8248   28.4179   46.7367 H   0  0  0  0  0  0  0  0  0  0  0  0
   47.1028   28.4861   45.2094 H   0  0  0  0  0  0  0  0  0  0  0  0
  1  7  1  0
  1  6  2  0
  2  3  2  0
  2  1  1  0
  3  4  1  0
  4  5  2  0
  5  8  1  0
  6  5  1  0
  8 12  1  0
  8  9  1  0
  9 10  1  0
 11 10  1  0
 12 11  1  0
 13 14  1  0
 13 12  1  0
 15 13  1  0
 15 14  1  0
  2 16  1  0
  3 17  1  0
  7 18  1  0
  7 19  1  0
  9 20  1  0
  9 21  1  0
 10 22  1  0
 10 23  1  0
 11 24  1  0
 11 25  1  0
 12 26  1  1
 13 27  1  0
 14 28  1  0
 14 29  1  0
 15 30  1  0
 15 31  1  0
M  ISO  8  16  14  17  14  20  13  21  13  22  13  23  13  24  13  25  13
M  ISO  6  26  13  27  13  28  13  29  13  30  13  31  13
M  END
>  <minimizedAffinity>  (1) 
-4.36770535

>  <minimizedRMSD>  (1) 
1.54826868

$$$$
