
     RDKit          3D

 33 34  0  0  1  0  0  0  0  0999 V2000
   45.1410   34.2850   45.8280 C   0  0  0  0  0  0  0  0  0  0  0  0
   44.5370   35.4970   45.4890 C   0  0  0  0  0  0  0  0  0  0  0  0
   44.7480   35.9960   44.1820 C   0  0  0  0  0  0  0  0  0  0  0  0
   45.5290   35.2730   43.3130 N   0  0  0  0  0  0  0  0  0  0  0  0
   46.0800   34.1170   43.7010 C   0  0  0  0  0  0  0  0  0  0  0  0
   45.8990   33.6230   44.9260 N   0  0  0  0  0  0  0  0  0  0  0  0
   46.8790   33.4030   42.7640 N   0  0  0  0  0  0  0  0  0  0  0  0
   47.1010   31.9830   42.6630 C   0  0  0  0  0  0  0  0  0  0  0  0
   46.9650   31.7170   41.1530 C   0  0  0  0  0  0  0  0  0  0  0  0
   47.0880   33.0740   40.5170 C   0  0  0  0  0  0  0  0  0  0  0  0
   47.6850   33.9010   41.6610 C   0  0  2  0  0  0  0  0  0  0  0  0
   49.1010   33.6930   41.7980 C   0  0  0  0  0  0  0  0  0  0  0  0
   49.5570   34.0260   42.8790 O   0  0  0  0  0  0  0  0  0  0  0  0
   49.9490   33.1600   40.8280 N   0  0  0  0  0  0  0  0  0  0  0  0
   51.0560   32.4480   41.3450 C   0  0  0  0  0  0  0  0  0  0  0  0
   51.5320   32.1310   42.4620 N   0  0  0  0  0  0  0  0  0  0  0  0
   52.0080   31.8500   40.4330 N   0  0  0  0  0  0  0  0  0  0  0  0
   51.1450   32.3670   43.3650 H   0  0  0  0  0  0  0  0  0  0  0  0
   45.0150   33.6880   47.0890 N   0  0  0  0  0  0  0  0  0  0  0  0
   43.9177   36.0457   46.2138 H   0  0  0  0  0  0  0  0  0  0  0  0
   44.2942   36.9472   43.8667 H   0  0  0  0  0  0  0  0  0  0  0  0
   48.1048   31.7133   43.0230 H   0  0  0  0  0  0  0  0  0  0  0  0
   46.4019   31.3909   43.2718 H   0  0  0  0  0  0  0  0  0  0  0  0
   47.7661   31.0496   40.8024 H   0  0  0  0  0  0  0  0  0  0  0  0
   46.0158   31.2219   40.9001 H   0  0  0  0  0  0  0  0  0  0  0  0
   47.7604   33.0494   39.6468 H   0  0  0  0  0  0  0  0  0  0  0  0
   46.1396   33.4716   40.1266 H   0  0  0  0  0  0  0  0  0  0  0  0
   47.6413   34.9942   41.5466 H   0  0  0  0  0  0  0  0  0  0  0  0
   49.7828   33.2754   39.8181 H   0  0  0  0  0  0  0  0  0  0  0  0
   52.8171   31.3297   40.8012 H   0  0  0  0  0  0  0  0  0  0  0  0
   51.8763   31.9448   39.4159 H   0  0  0  0  0  0  0  0  0  0  0  0
   45.4835   32.7916   47.2835 H   0  0  0  0  0  0  0  0  0  0  0  0
   44.4539   34.1455   47.8216 H   0  0  0  0  0  0  0  0  0  0  0  0
  1 19  1  0
  2  1  2  0
  3  2  1  0
  4  5  1  0
  4  3  2  0
  5  6  2  0
  6  1  1  0
  7  5  1  0
  8  7  1  0
  9  8  1  0
 10  9  1  0
 10 11  1  0
 11 12  1  0
 11  7  1  0
 12 13  2  0
 14 15  1  0
 14 12  1  0
 15 16  2  0
 16 18  1  0
 17 15  1  0
  2 20  1  0
  3 21  1  0
  8 22  1  0
  8 23  1  0
  9 24  1  0
  9 25  1  0
 10 26  1  0
 10 27  1  0
 11 28  1  6
 14 29  1  0
 17 30  1  0
 17 31  1  0
 19 32  1  0
 19 33  1  0
M  ISO  8  20  14  21  14  22  13  23  13  24  13  25  13  26  13  27  13
M  ISO  1  28  13
M  END
>  <minimizedAffinity>  (1) 
-5.67555094

>  <minimizedRMSD>  (1) 
0.978826761

$$$$
