
     RDKit          3D

 39 41  0  0  1  0  0  0  0  0999 V2000
   45.1050   34.6460   45.2540 C   0  0  0  0  0  0  0  0  0  0  0  0
   44.5850   35.7470   44.5730 C   0  0  0  0  0  0  0  0  0  0  0  0
   44.9790   35.9510   43.2380 C   0  0  0  0  0  0  0  0  0  0  0  0
   45.8530   35.0560   42.6760 N   0  0  0  0  0  0  0  0  0  0  0  0
   46.3260   34.0140   43.3680 C   0  0  0  0  0  0  0  0  0  0  0  0
   45.9600   33.8220   44.6130 N   0  0  0  0  0  0  0  0  0  0  0  0
   47.2210   33.1480   42.7020 N   0  0  0  0  0  0  0  0  0  0  0  0
   47.4250   31.7230   42.9650 C   0  0  0  0  0  0  0  0  0  0  0  0
   47.5170   31.1250   41.5680 C   0  0  0  0  0  0  0  0  0  0  0  0
   47.7370   32.2970   40.6600 C   0  0  0  0  0  0  0  0  0  0  0  0
   48.1540   33.3920   41.6130 C   0  0  2  0  0  0  0  0  0  0  0  0
   44.8070   34.3490   46.5840 N   0  0  0  0  0  0  0  0  0  0  0  0
   49.5620   33.2520   41.9900 C   0  0  0  0  0  0  0  0  0  0  0  0
   49.9660   33.9170   42.9630 O   0  0  0  0  0  0  0  0  0  0  0  0
   50.7820   32.5580   41.6070 C   0  0  0  0  0  0  0  0  0  0  0  0
   50.5220   31.9010   40.2570 C   0  0  0  0  0  0  0  0  0  0  0  0
   51.6070   30.8480   40.1830 C   0  0  0  0  0  0  0  0  0  0  0  0
   51.8220   30.4290   41.6090 C   0  0  0  0  0  0  0  0  0  0  0  0
   50.9640   31.3420   42.4810 C   0  0  0  0  0  0  0  0  0  0  0  0
   43.8854   36.4374   45.0669 H   0  0  0  0  0  0  0  0  0  0  0  0
   44.5963   36.8054   42.6605 H   0  0  0  0  0  0  0  0  0  0  0  0
   48.3543   31.5544   43.5289 H   0  0  0  0  0  0  0  0  0  0  0  0
   46.6259   31.2767   43.5751 H   0  0  0  0  0  0  0  0  0  0  0  0
   48.3602   30.4215   41.5030 H   0  0  0  0  0  0  0  0  0  0  0  0
   46.6133   30.5579   41.3002 H   0  0  0  0  0  0  0  0  0  0  0  0
   48.5307   32.0865   39.9281 H   0  0  0  0  0  0  0  0  0  0  0  0
   46.8495   32.5560   40.0640 H   0  0  0  0  0  0  0  0  0  0  0  0
   48.1082   34.4195   41.2230 H   0  0  0  0  0  0  0  0  0  0  0  0
   45.2230   33.5202   47.0323 H   0  0  0  0  0  0  0  0  0  0  0  0
   44.1709   34.9585   47.1177 H   0  0  0  0  0  0  0  0  0  0  0  0
   51.6172   33.2726   41.6478 H   0  0  0  0  0  0  0  0  0  0  0  0
   49.5224   31.4431   40.2250 H   0  0  0  0  0  0  0  0  0  0  0  0
   50.5442   32.6096   39.4159 H   0  0  0  0  0  0  0  0  0  0  0  0
   51.2791   29.9941   39.5720 H   0  0  0  0  0  0  0  0  0  0  0  0
   52.5273   31.2278   39.7153 H   0  0  0  0  0  0  0  0  0  0  0  0
   51.5155   29.3813   41.7444 H   0  0  0  0  0  0  0  0  0  0  0  0
   52.8838   30.5103   41.8844 H   0  0  0  0  0  0  0  0  0  0  0  0
   51.4825   31.5995   43.4163 H   0  0  0  0  0  0  0  0  0  0  0  0
   50.0147   30.8823   42.7933 H   0  0  0  0  0  0  0  0  0  0  0  0
  1 12  1  0
  2  1  2  0
  3  2  1  0
  4  3  2  0
  4  5  1  0
  5  6  2  0
  6  1  1  0
  7  8  1  0
  7  5  1  0
  9  8  1  0
 10  9  1  0
 10 11  1  0
 11 13  1  0
 11  7  1  0
 13 14  2  0
 15 13  1  0
 15 19  1  0
 16 15  1  0
 17 16  1  0
 17 18  1  0
 18 19  1  0
  2 20  1  0
  3 21  1  0
  8 22  1  0
  8 23  1  0
  9 24  1  0
  9 25  1  0
 10 26  1  0
 10 27  1  0
 11 28  1  6
 12 29  1  0
 12 30  1  0
 15 31  1  0
 16 32  1  0
 16 33  1  0
 17 34  1  0
 17 35  1  0
 18 36  1  0
 18 37  1  0
 19 38  1  0
 19 39  1  0
M  ISO  8  20  14  21  14  22  13  23  13  24  13  25  13  26  13  27  13
M  ISO  8  28  13  31  13  32  13  33  13  34  13  35  13  36  13  37  13
M  ISO  2  38  13  39  13
M  END
>  <minimizedAffinity>  (1) 
-4.80423737

>  <minimizedRMSD>  (1) 
1.58944988

$$$$
