
     RDKit          3D

 52 56  0  0  1  0  0  0  0  0999 V2000
   46.6590   33.1220   43.7700 C   0  0  0  0  0  0  0  0  0  0  0  0
   46.7790   34.1460   44.4330 O   0  0  0  0  0  0  0  0  0  0  0  0
   47.1690   30.9200   48.9920 C   0  0  0  0  0  0  0  0  0  0  0  0
   45.8780   31.0330   49.4780 C   0  0  0  0  0  0  0  0  0  0  0  0
   44.8340   31.2480   48.5580 C   0  0  0  0  0  0  0  0  0  0  0  0
   45.1590   31.3330   47.2300 N   0  0  0  0  0  0  0  0  0  0  0  0
   46.4320   31.2150   46.8070 C   0  0  0  0  0  0  0  0  0  0  0  0
   47.3950   31.0180   47.6590 N   0  0  0  0  0  0  0  0  0  0  0  0
   46.6670   31.3030   45.4120 N   0  0  0  0  0  0  0  0  0  0  0  0
   47.7150   30.6720   44.6530 C   0  0  0  0  0  0  0  0  0  0  0  0
   47.0230   30.1870   43.4010 C   0  0  0  0  0  0  0  0  0  0  0  0
   45.7290   30.8720   43.4210 C   0  0  0  0  0  0  0  0  0  0  0  0
   45.9250   32.0180   44.3580 C   0  0  2  0  0  0  0  0  0  0  0  0
   48.2800   30.7020   49.8030 N   0  0  0  0  0  0  0  0  0  0  0  0
   47.3550   33.4050   42.5460 C   0  0  2  0  0  0  0  0  0  0  0  0
   48.7890   33.6930   42.7900 C   0  0  0  0  0  0  0  0  0  0  0  0
   49.1440   34.1170   41.3840 C   0  0  0  0  0  0  0  0  0  0  0  0
   48.0290   35.0350   41.0050 C   0  0  0  0  0  0  0  0  0  0  0  0
   46.8360   34.6370   41.8900 C   0  0  1  0  0  0  0  0  0  0  0  0
   45.7590   34.2510   40.9870 N   0  0  0  0  0  0  0  0  0  0  0  0
   45.9810   33.4700   39.8920 C   0  0  0  0  0  0  0  0  0  0  0  0
   44.8250   33.2540   39.2190 N   0  0  0  0  0  0  0  0  0  0  0  0
   43.8440   33.9070   39.8910 C   0  0  0  0  0  0  0  0  0  0  0  0
   42.4790   34.0600   39.7020 C   0  0  0  0  0  0  0  0  0  0  0  0
   41.7710   34.7990   40.5850 N   0  0  0  0  0  0  0  0  0  0  0  0
   42.4030   35.3810   41.6430 C   0  0  0  0  0  0  0  0  0  0  0  0
   43.7340   35.2490   41.8530 N   0  0  0  0  0  0  0  0  0  0  0  0
   44.4390   34.5150   40.9760 C   0  0  0  0  0  0  0  0  0  0  0  0
   41.8590   33.4260   38.5670 N   0  0  0  0  0  0  0  0  0  0  0  0
   45.6727   30.9568   50.5560 H   0  0  0  0  0  0  0  0  0  0  0  0
   43.7913   31.3446   48.8947 H   0  0  0  0  0  0  0  0  0  0  0  0
   48.5074   31.3940   44.4064 H   0  0  0  0  0  0  0  0  0  0  0  0
   48.2053   29.8576   45.2066 H   0  0  0  0  0  0  0  0  0  0  0  0
   46.8877   29.0957   43.4272 H   0  0  0  0  0  0  0  0  0  0  0  0
   47.6002   30.4008   42.4894 H   0  0  0  0  0  0  0  0  0  0  0  0
   45.4648   31.2327   42.4160 H   0  0  0  0  0  0  0  0  0  0  0  0
   44.9104   30.2090   43.7378 H   0  0  0  0  0  0  0  0  0  0  0  0
   45.0096   32.5301   44.6893 H   0  0  0  0  0  0  0  0  0  0  0  0
   49.2174   30.6265   49.3829 H   0  0  0  0  0  0  0  0  0  0  0  0
   48.1643   30.6162   50.8229 H   0  0  0  0  0  0  0  0  0  0  0  0
   47.2098   32.5113   41.9213 H   0  0  0  0  0  0  0  0  0  0  0  0
   48.9357   34.5015   43.5213 H   0  0  0  0  0  0  0  0  0  0  0  0
   49.3857   32.8744   43.2188 H   0  0  0  0  0  0  0  0  0  0  0  0
   50.1101   34.6425   41.3639 H   0  0  0  0  0  0  0  0  0  0  0  0
   49.2523   33.2668   40.6945 H   0  0  0  0  0  0  0  0  0  0  0  0
   48.3134   36.0807   41.1938 H   0  0  0  0  0  0  0  0  0  0  0  0
   47.7839   34.9527   39.9358 H   0  0  0  0  0  0  0  0  0  0  0  0
   46.4793   35.4084   42.5884 H   0  0  0  0  0  0  0  0  0  0  0  0
   46.9622   33.0706   39.5959 H   0  0  0  0  0  0  0  0  0  0  0  0
   41.8108   35.9791   42.3513 H   0  0  0  0  0  0  0  0  0  0  0  0
   40.8462   33.5281   38.4097 H   0  0  0  0  0  0  0  0  0  0  0  0
   42.4284   32.8706   37.9127 H   0  0  0  0  0  0  0  0  0  0  0  0
  1 13  1  0
  1  2  2  0
  3  4  2  0
  3 14  1  0
  5  4  1  0
  6  5  2  0
  7  6  1  0
  7  8  2  0
  8  3  1  0
  9  7  1  0
 10  9  1  0
 11 12  1  0
 11 10  1  0
 12 13  1  0
 13  9  1  0
 15 16  1  0
 15  1  1  0
 17 16  1  0
 18 17  1  0
 18 19  1  0
 19 15  1  0
 20 19  1  0
 21 20  1  0
 22 23  1  0
 22 21  2  0
 23 28  2  0
 24 23  1  0
 24 25  2  0
 25 26  1  0
 26 27  2  0
 28 20  1  0
 28 27  1  0
 29 24  1  0
  4 30  1  0
  5 31  1  0
 10 32  1  0
 10 33  1  0
 11 34  1  0
 11 35  1  0
 12 36  1  0
 12 37  1  0
 13 38  1  1
 14 39  1  0
 14 40  1  0
 15 41  1  6
 16 42  1  0
 16 43  1  0
 17 44  1  0
 17 45  1  0
 18 46  1  0
 18 47  1  0
 19 48  1  1
 21 49  1  0
 26 50  1  0
 29 51  1  0
 29 52  1  0
M  ISO  8  30  14  31  14  32  13  33  13  34  13  35  13  36  13  37  13
M  ISO  8  38  13  41  13  42  13  43  13  44  13  45  13  46  13  47  13
M  ISO  3  48  13  49  14  50  14
M  END
>  <minimizedAffinity>  (1) 
-6.74107313

>  <minimizedRMSD>  (1) 
7.75502729

$$$$
