
     RDKit          3D

 48 51  0  0  1  0  0  0  0  0999 V2000
   45.1390   34.2560   45.0800 C   0  0  0  0  0  0  0  0  0  0  0  0
   44.8670   35.6170   45.0790 C   0  0  0  0  0  0  0  0  0  0  0  0
   44.4380   36.2080   43.8760 C   0  0  0  0  0  0  0  0  0  0  0  0
   44.3120   35.4060   42.7730 N   0  0  0  0  0  0  0  0  0  0  0  0
   44.5880   34.0880   42.8270 C   0  0  0  0  0  0  0  0  0  0  0  0
   44.9850   33.5440   43.9410 N   0  0  0  0  0  0  0  0  0  0  0  0
   44.4160   33.3370   41.6370 N   0  0  0  0  0  0  0  0  0  0  0  0
   44.0630   31.9450   41.5130 C   0  0  0  0  0  0  0  0  0  0  0  0
   43.0670   31.9170   40.3800 C   0  0  0  0  0  0  0  0  0  0  0  0
   43.1980   33.2330   39.7550 C   0  0  0  0  0  0  0  0  0  0  0  0
   44.5220   33.7410   40.2240 C   0  0  2  0  0  0  0  0  0  0  0  0
   45.5650   33.5540   46.2080 N   0  0  0  0  0  0  0  0  0  0  0  0
   45.6430   33.1470   39.5240 C   0  0  0  0  0  0  0  0  0  0  0  0
   45.7180   31.9240   39.5020 O   0  0  0  0  0  0  0  0  0  0  0  0
   46.7880   33.5870   38.7760 C   0  0  2  0  0  0  0  0  0  0  0  0
   46.6910   33.1900   37.3510 C   0  0  0  0  0  0  0  0  0  0  0  0
   48.0780   33.6200   36.9430 C   0  0  0  0  0  0  0  0  0  0  0  0
   48.9590   33.0830   38.0380 C   0  0  0  0  0  0  0  0  0  0  0  0
   48.0410   32.9370   39.2580 C   0  0  1  0  0  0  0  0  0  0  0  0
   48.6140   33.7650   40.3490 C   0  0  0  0  0  0  0  0  0  0  0  0
   48.4700   35.1230   40.5380 C   0  0  0  0  0  0  0  0  0  0  0  0
   49.0530   35.7740   41.6020 C   0  0  0  0  0  0  0  0  0  0  0  0
   49.8040   35.1300   42.5320 C   0  0  0  0  0  0  0  0  0  0  0  0
   49.9250   33.7800   42.3130 C   0  0  0  0  0  0  0  0  0  0  0  0
   49.3590   33.1370   41.2770 N   0  0  0  0  0  0  0  0  0  0  0  0
   44.9835   36.2172   45.9934 H   0  0  0  0  0  0  0  0  0  0  0  0
   44.2105   37.2829   43.8231 H   0  0  0  0  0  0  0  0  0  0  0  0
   44.9477   31.3380   41.2702 H   0  0  0  0  0  0  0  0  0  0  0  0
   43.6535   31.5288   42.4453 H   0  0  0  0  0  0  0  0  0  0  0  0
   43.3127   31.1188   39.6641 H   0  0  0  0  0  0  0  0  0  0  0  0
   42.0422   31.7141   40.7246 H   0  0  0  0  0  0  0  0  0  0  0  0
   42.3875   33.9009   40.0820 H   0  0  0  0  0  0  0  0  0  0  0  0
   43.1346   33.1827   38.6580 H   0  0  0  0  0  0  0  0  0  0  0  0
   44.7149   34.8107   40.0549 H   0  0  0  0  0  0  0  0  0  0  0  0
   45.7510   32.5429   46.1455 H   0  0  0  0  0  0  0  0  0  0  0  0
   45.6934   34.0469   47.1032 H   0  0  0  0  0  0  0  0  0  0  0  0
   46.8122   34.6794   38.9031 H   0  0  0  0  0  0  0  0  0  0  0  0
   46.5321   32.1088   37.2257 H   0  0  0  0  0  0  0  0  0  0  0  0
   45.8553   33.6176   36.7775 H   0  0  0  0  0  0  0  0  0  0  0  0
   48.3527   33.1850   35.9707 H   0  0  0  0  0  0  0  0  0  0  0  0
   48.1665   34.7098   36.8228 H   0  0  0  0  0  0  0  0  0  0  0  0
   49.3784   32.1072   37.7519 H   0  0  0  0  0  0  0  0  0  0  0  0
   49.8117   33.7472   38.2424 H   0  0  0  0  0  0  0  0  0  0  0  0
   47.9044   31.9076   39.6208 H   0  0  0  0  0  0  0  0  0  0  0  0
   47.8727   35.7026   39.8187 H   0  0  0  0  0  0  0  0  0  0  0  0
   48.9044   36.8593   41.7026 H   0  0  0  0  0  0  0  0  0  0  0  0
   50.2732   35.6436   43.3841 H   0  0  0  0  0  0  0  0  0  0  0  0
   50.5194   33.1905   43.0265 H   0  0  0  0  0  0  0  0  0  0  0  0
  1 12  1  0
  2  1  2  0
  3  2  1  0
  4  5  1  0
  4  3  2  0
  5  6  2  0
  6  1  1  0
  7  5  1  0
  8  7  1  0
  9  8  1  0
 10 11  1  0
 10  9  1  0
 11  7  1  0
 13 11  1  0
 14 13  2  0
 15 19  1  0
 15 13  1  0
 16 15  1  0
 17 16  1  0
 17 18  1  0
 18 19  1  0
 19 20  1  0
 20 21  2  0
 20 25  1  0
 21 22  1  0
 22 23  2  0
 24 23  1  0
 25 24  2  0
  2 26  1  0
  3 27  1  0
  8 28  1  0
  8 29  1  0
  9 30  1  0
  9 31  1  0
 10 32  1  0
 10 33  1  0
 11 34  1  1
 12 35  1  0
 12 36  1  0
 15 37  1  6
 16 38  1  0
 16 39  1  0
 17 40  1  0
 17 41  1  0
 18 42  1  0
 18 43  1  0
 19 44  1  1
 21 45  1  0
 22 46  1  0
 23 47  1  0
 24 48  1  0
M  ISO  8  26  14  27  14  28  13  29  13  30  13  31  13  32  13  33  13
M  ISO  8  34  13  37  13  38  13  39  13  40  13  41  13  42  13  43  13
M  ISO  5  44  13  45  14  46  14  47  14  48  14
M  END
>  <minimizedAffinity>  (1) 
-6.23605156

>  <minimizedRMSD>  (1) 
4.22226095

$$$$
