
     RDKit          3D

 20 21  0  0  0  0  0  0  0  0999 V2000
   44.5790   35.6390   44.8500 C   0  0  0  0  0  0  0  0  0  0  0  0
   44.4390   35.7270   43.4650 C   0  0  0  0  0  0  0  0  0  0  0  0
   44.9340   34.6520   42.7230 C   0  0  0  0  0  0  0  0  0  0  0  0
   45.5080   33.6080   43.3560 N   0  0  0  0  0  0  0  0  0  0  0  0
   45.6290   33.5560   44.7190 C   0  0  0  0  0  0  0  0  0  0  0  0
   45.1620   34.5720   45.4320 N   0  0  0  0  0  0  0  0  0  0  0  0
   46.2360   32.4640   45.3820 N   0  0  0  0  0  0  0  0  0  0  0  0
   47.1370   31.7480   44.6750 C   0  0  0  0  0  0  0  0  0  0  0  0
   47.5790   30.7470   45.5520 C   0  0  0  0  0  0  0  0  0  0  0  0
   46.9430   30.8870   46.7390 N   0  0  0  0  0  0  0  0  0  0  0  0
   46.1340   31.9310   46.6160 C   0  0  0  0  0  0  0  0  0  0  0  0
   45.2560   32.4390   47.6500 C   0  0  0  0  0  0  0  0  0  0  0  0
   44.5790   31.6740   48.3690 O   0  0  0  0  0  0  0  0  0  0  0  0
   44.9480   33.7050   48.0830 O   0  0  0  0  0  0  0  0  0  0  0  0
   44.2053   36.4586   45.4814 H   0  0  0  0  0  0  0  0  0  0  0  0
   43.9649   36.5951   42.9836 H   0  0  0  0  0  0  0  0  0  0  0  0
   44.8560   34.6567   41.6258 H   0  0  0  0  0  0  0  0  0  0  0  0
   47.4555   31.9143   43.6353 H   0  0  0  0  0  0  0  0  0  0  0  0
   48.3229   29.9725   45.3138 H   0  0  0  0  0  0  0  0  0  0  0  0
   44.3047   33.8316   48.8248 H   0  0  0  0  0  0  0  0  0  0  0  0
  1  6  2  0
  2  1  1  0
  3  4  1  0
  3  2  2  0
  4  5  2  0
  5  7  1  0
  5  6  1  0
  7 11  1  0
  8  7  1  0
  8  9  2  0
  9 10  1  0
 11 10  2  0
 11 12  1  0
 12 14  1  0
 12 13  2  0
  1 15  1  0
  2 16  1  0
  3 17  1  0
  8 18  1  0
  9 19  1  0
 14 20  1  0
M  ISO  6  15  14  16  14  17  14  18  14  19  14  20   3
M  END
>  <minimizedAffinity>  (1) 
-4.62772274

>  <minimizedRMSD>  (1) 
1.65314341

$$$$
