
     RDKit          3D

 52 52  0  0  1  0  0  0  0  0999 V2000
   45.2700   34.1480   45.5450 C   0  0  0  0  0  0  0  0  0  0  0  0
   44.6270   35.3750   45.5110 C   0  0  0  0  0  0  0  0  0  0  0  0
   44.4530   35.9820   44.2660 C   0  0  0  0  0  0  0  0  0  0  0  0
   44.9200   35.3440   43.1570 N   0  0  0  0  0  0  0  0  0  0  0  0
   45.5420   34.1510   43.2390 C   0  0  0  0  0  0  0  0  0  0  0  0
   45.7060   33.5810   44.3970 N   0  0  0  0  0  0  0  0  0  0  0  0
   45.9860   33.5520   42.0380 N   0  0  0  0  0  0  0  0  0  0  0  0
   46.1330   32.1470   41.7620 C   0  0  0  0  0  0  0  0  0  0  0  0
   45.6250   31.9860   40.3510 C   0  0  0  0  0  0  0  0  0  0  0  0
   45.5050   33.3750   39.8770 C   0  0  0  0  0  0  0  0  0  0  0  0
   46.3930   34.1670   40.7540 C   0  0  2  0  0  0  0  0  0  0  0  0
   45.4740   33.4050   46.7170 N   0  0  0  0  0  0  0  0  0  0  0  0
   47.7960   34.0010   40.4890 C   0  0  0  0  0  0  0  0  0  0  0  0
   48.6190   34.1800   41.3780 O   0  0  0  0  0  0  0  0  0  0  0  0
   48.6230   33.6270   39.3330 C   0  0  0  0  0  0  0  0  0  0  0  0
   48.0710   34.2590   38.0460 C   0  0  0  0  0  0  0  0  0  0  0  0
   48.9600   33.4580   37.0970 C   0  0  0  0  0  0  0  0  0  0  0  0
   48.9840   32.0730   37.6210 C   0  0  0  0  0  0  0  0  0  0  0  0
   48.7020   32.1810   39.1160 C   0  0  0  0  0  0  0  0  0  0  0  0
   49.9880   31.7520   39.7760 C   0  0  0  0  0  0  0  0  0  0  0  0
   50.1300   31.0740   40.9690 C   0  0  0  0  0  0  0  0  0  0  0  0
   51.4500   30.8700   41.2240 N   0  0  0  0  0  0  0  0  0  0  0  0
   52.1270   31.4140   40.2050 C   0  0  0  0  0  0  0  0  0  0  0  0
   51.2460   31.9430   39.3360 N   0  0  0  0  0  0  0  0  0  0  0  0
   44.2662   35.8541   46.4331 H   0  0  0  0  0  0  0  0  0  0  0  0
   43.9488   36.9561   44.1823 H   0  0  0  0  0  0  0  0  0  0  0  0
   47.1884   31.8449   41.8325 H   0  0  0  0  0  0  0  0  0  0  0  0
   45.5838   31.5194   42.4792 H   0  0  0  0  0  0  0  0  0  0  0  0
   46.3402   31.4197   39.7363 H   0  0  0  0  0  0  0  0  0  0  0  0
   44.6793   31.4271   40.2937 H   0  0  0  0  0  0  0  0  0  0  0  0
   45.8295   33.4534   38.8289 H   0  0  0  0  0  0  0  0  0  0  0  0
   44.4655   33.7326   39.9170 H   0  0  0  0  0  0  0  0  0  0  0  0
   46.2902   35.2584   40.6624 H   0  0  0  0  0  0  0  0  0  0  0  0
   45.9603   32.4981   46.6737 H   0  0  0  0  0  0  0  0  0  0  0  0
   45.1375   33.7663   47.6210 H   0  0  0  0  0  0  0  0  0  0  0  0
   48.1322   33.7117   39.4824 H   0  0  0  0  0  0  0  0  0  0  0  0
   48.6116   33.8356   40.4130 H   0  0  0  0  0  0  0  0  0  0  0  0
   49.4958   34.1148   38.8745 H   0  0  0  0  0  0  0  0  0  0  0  0
   47.7022   34.0168   38.8745 H   0  0  0  0  0  0  0  0  0  0  0  0
   48.3363   34.0199   39.0864 H   0  0  0  0  0  0  0  0  0  0  0  0
   48.2194   35.3342   37.8676 H   0  0  0  0  0  0  0  0  0  0  0  0
   47.0170   33.9997   37.8676 H   0  0  0  0  0  0  0  0  0  0  0  0
   49.9768   33.8775   37.0822 H   0  0  0  0  0  0  0  0  0  0  0  0
   48.5760   33.4895   36.0667 H   0  0  0  0  0  0  0  0  0  0  0  0
   48.9836   32.0970   38.7207 H   0  0  0  0  0  0  0  0  0  0  0  0
   48.0951   31.5311   37.2657 H   0  0  0  0  0  0  0  0  0  0  0  0
   49.8911   31.5622   37.2657 H   0  0  0  0  0  0  0  0  0  0  0  0
   47.8428   31.6739   39.5793 H   0  0  0  0  0  0  0  0  0  0  0  0
   48.6830   31.9241   38.0466 H   0  0  0  0  0  0  0  0  0  0  0  0
   49.3018   30.7481   41.6154 H   0  0  0  0  0  0  0  0  0  0  0  0
   53.2215   31.4265   40.0962 H   0  0  0  0  0  0  0  0  0  0  0  0
   51.4977   32.4244   38.4609 H   0  0  0  0  0  0  0  0  0  0  0  0
  1 12  1  0
  2  1  2  0
  3  2  1  0
  4  5  1  0
  4  3  2  0
  5  6  2  0
  6  1  1  0
  7  5  1  0
  8  7  1  0
  9  8  1  0
 10  9  1  0
 10 11  1  0
 11  7  1  0
 13 11  1  0
 13 14  2  0
 17 18  1  0
 17 16  1  0
 19 15  1  0
 19 20  1  0
 20 21  2  0
 21 22  1  0
 23 22  2  0
 24 20  1  0
 24 23  1  0
  2 25  1  0
  3 26  1  0
  8 27  1  0
  8 28  1  0
  9 29  1  0
  9 30  1  0
 10 31  1  0
 10 32  1  0
 11 33  1  1
 12 34  1  0
 12 35  1  0
 13 36  1  0
 15 37  1  0
 15 38  1  0
 15 39  1  0
 16 40  1  0
 16 41  1  0
 16 42  1  0
 17 43  1  0
 17 44  1  0
 18 45  1  0
 18 46  1  0
 18 47  1  0
 19 48  1  0
 19 49  1  0
 21 50  1  0
 23 51  1  0
 24 52  1  0
M  ISO  8  25  14  26  14  27  13  28  13  29  13  30  13  31  13  32  13
M  ISO  8  33  13  36   6  37   8  38   8  39   8  40   8  41   8  42   8
M  ISO  8  43   8  44   8  45   8  46   8  47   8  48   8  49   8  50  14
M  ISO  2  51  14  52   9
M  END
>  <minimizedAffinity>  (1) 
-5.72374392

>  <minimizedRMSD>  (1) 
3.14547467

$$$$
