
     RDKit          3D

 49 52  0  0  1  0  0  0  0  0999 V2000
   45.3540   34.1720   45.5600 C   0  0  0  0  0  0  0  0  0  0  0  0
   44.6550   35.3680   45.5170 C   0  0  0  0  0  0  0  0  0  0  0  0
   44.4200   35.9470   44.2660 C   0  0  0  0  0  0  0  0  0  0  0  0
   44.8930   35.3010   43.1530 N   0  0  0  0  0  0  0  0  0  0  0  0
   45.5680   34.1400   43.2470 C   0  0  0  0  0  0  0  0  0  0  0  0
   45.7870   33.6010   44.4120 N   0  0  0  0  0  0  0  0  0  0  0  0
   46.0060   33.5400   42.0410 N   0  0  0  0  0  0  0  0  0  0  0  0
   46.1950   32.1370   41.7660 C   0  0  0  0  0  0  0  0  0  0  0  0
   45.6240   31.9560   40.3780 C   0  0  0  0  0  0  0  0  0  0  0  0
   45.4760   33.3210   39.8740 C   0  0  0  0  0  0  0  0  0  0  0  0
   46.3680   34.1450   40.7470 C   0  0  2  0  0  0  0  0  0  0  0  0
   45.6560   33.4830   46.7430 N   0  0  0  0  0  0  0  0  0  0  0  0
   47.7740   34.0210   40.4120 C   0  0  0  0  0  0  0  0  0  0  0  0
   48.5910   34.2300   41.3010 O   0  0  0  0  0  0  0  0  0  0  0  0
   48.5660   33.6940   39.2630 C   0  0  2  0  0  0  0  0  0  0  0  0
   47.9600   34.2190   38.0150 C   0  0  0  0  0  0  0  0  0  0  0  0
   48.9080   33.5610   37.0470 C   0  0  0  0  0  0  0  0  0  0  0  0
   49.0370   32.1680   37.5620 C   0  0  0  0  0  0  0  0  0  0  0  0
   48.6410   32.2190   39.0460 C   0  0  1  0  0  0  0  0  0  0  0  0
   49.7080   31.5640   39.8460 C   0  0  0  0  0  0  0  0  0  0  0  0
   51.0240   31.6830   39.3830 C   0  0  0  0  0  0  0  0  0  0  0  0
   52.1320   31.1390   40.0020 C   0  0  0  0  0  0  0  0  0  0  0  0
   51.9540   30.4270   41.1540 C   0  0  0  0  0  0  0  0  0  0  0  0
   50.6710   30.2900   41.6370 C   0  0  0  0  0  0  0  0  0  0  0  0
   49.5740   30.8370   41.0090 C   0  0  0  0  0  0  0  0  0  0  0  0
   44.2958   35.8475   46.4395 H   0  0  0  0  0  0  0  0  0  0  0  0
   43.8702   36.8956   44.1772 H   0  0  0  0  0  0  0  0  0  0  0  0
   47.2631   31.8750   41.7866 H   0  0  0  0  0  0  0  0  0  0  0  0
   45.7089   31.4903   42.5113 H   0  0  0  0  0  0  0  0  0  0  0  0
   46.3129   31.3781   39.7444 H   0  0  0  0  0  0  0  0  0  0  0  0
   44.6743   31.4010   40.3806 H   0  0  0  0  0  0  0  0  0  0  0  0
   45.7955   33.3837   38.8233 H   0  0  0  0  0  0  0  0  0  0  0  0
   44.4315   33.6649   39.9024 H   0  0  0  0  0  0  0  0  0  0  0  0
   46.2356   35.2350   40.6809 H   0  0  0  0  0  0  0  0  0  0  0  0
   46.1800   32.5971   46.7036 H   0  0  0  0  0  0  0  0  0  0  0  0
   45.3539   33.8627   47.6516 H   0  0  0  0  0  0  0  0  0  0  0  0
   49.5538   34.1343   39.4637 H   0  0  0  0  0  0  0  0  0  0  0  0
   46.9217   33.8821   37.8793 H   0  0  0  0  0  0  0  0  0  0  0  0
   47.8663   35.3124   37.9400 H   0  0  0  0  0  0  0  0  0  0  0  0
   49.8831   34.0701   37.0470 H   0  0  0  0  0  0  0  0  0  0  0  0
   48.5469   33.5975   36.0086 H   0  0  0  0  0  0  0  0  0  0  0  0
   48.3642   31.4943   37.0111 H   0  0  0  0  0  0  0  0  0  0  0  0
   50.0611   31.7875   37.4341 H   0  0  0  0  0  0  0  0  0  0  0  0
   47.7117   31.7029   39.3290 H   0  0  0  0  0  0  0  0  0  0  0  0
   51.1876   32.2527   38.4564 H   0  0  0  0  0  0  0  0  0  0  0  0
   53.1370   31.2762   39.5763 H   0  0  0  0  0  0  0  0  0  0  0  0
   52.8088   29.9768   41.6800 H   0  0  0  0  0  0  0  0  0  0  0  0
   50.5160   29.7190   42.5644 H   0  0  0  0  0  0  0  0  0  0  0  0
   48.5739   30.6911   41.4432 H   0  0  0  0  0  0  0  0  0  0  0  0
  1 12  1  0
  2  1  2  0
  3  2  1  0
  4  5  1  0
  4  3  2  0
  5  6  2  0
  6  1  1  0
  7  5  1  0
  8  7  1  0
  9  8  1  0
 10  9  1  0
 10 11  1  0
 11  7  1  0
 13 11  1  0
 13 14  2  0
 15 13  1  0
 16 15  1  0
 17 18  1  0
 17 16  1  0
 18 19  1  0
 19 15  1  0
 19 20  1  0
 20 25  1  0
 21 20  2  0
 21 22  1  0
 22 23  2  0
 23 24  1  0
 25 24  2  0
  2 26  1  0
  3 27  1  0
  8 28  1  0
  8 29  1  0
  9 30  1  0
  9 31  1  0
 10 32  1  0
 10 33  1  0
 11 34  1  1
 12 35  1  0
 12 36  1  0
 15 37  1  1
 16 38  1  0
 16 39  1  0
 17 40  1  0
 17 41  1  0
 18 42  1  0
 18 43  1  0
 19 44  1  6
 21 45  1  0
 22 46  1  0
 23 47  1  0
 24 48  1  0
 25 49  1  0
M  ISO  8  26  14  27  14  28  13  29  13  30  13  31  13  32  13  33  13
M  ISO  8  34  13  37  13  38  13  39  13  40  13  41  13  42  13  43  13
M  ISO  6  44  13  45  14  46  14  47  14  48  14  49  14
M  END
>  <minimizedAffinity>  (1) 
-5.44091654

>  <minimizedRMSD>  (1) 
3.3541851

$$$$
