
     RDKit          3D

 45 48  0  0  1  0  0  0  0  0999 V2000
   45.2660   34.1220   45.5610 C   0  0  0  0  0  0  0  0  0  0  0  0
   44.6210   35.3560   45.5330 C   0  0  0  0  0  0  0  0  0  0  0  0
   44.4380   35.9860   44.2880 C   0  0  0  0  0  0  0  0  0  0  0  0
   44.9080   35.3430   43.1710 N   0  0  0  0  0  0  0  0  0  0  0  0
   45.5250   34.1500   43.2530 C   0  0  0  0  0  0  0  0  0  0  0  0
   45.6880   33.5770   44.4110 N   0  0  0  0  0  0  0  0  0  0  0  0
   45.9570   33.5650   42.0390 N   0  0  0  0  0  0  0  0  0  0  0  0
   46.0690   32.1580   41.7370 C   0  0  0  0  0  0  0  0  0  0  0  0
   45.5300   32.0450   40.3320 C   0  0  0  0  0  0  0  0  0  0  0  0
   45.4740   33.4260   39.8530 C   0  0  0  0  0  0  0  0  0  0  0  0
   46.3860   34.1770   40.7680 C   0  0  2  0  0  0  0  0  0  0  0  0
   45.4930   33.4110   46.7340 N   0  0  0  0  0  0  0  0  0  0  0  0
   47.7930   33.9870   40.4710 C   0  0  0  0  0  0  0  0  0  0  0  0
   48.5900   34.1020   41.3920 O   0  0  0  0  0  0  0  0  0  0  0  0
   48.6130   33.6670   39.3310 C   0  0  2  0  0  0  0  0  0  0  0  0
   48.0160   34.2060   38.0800 C   0  0  0  0  0  0  0  0  0  0  0  0
   48.9700   33.5580   37.1120 C   0  0  0  0  0  0  0  0  0  0  0  0
   49.0780   32.1520   37.6110 C   0  0  0  0  0  0  0  0  0  0  0  0
   48.6770   32.1940   39.0940 C   0  0  1  0  0  0  0  0  0  0  0  0
   49.8130   31.5620   39.8460 C   0  0  0  0  0  0  0  0  0  0  0  0
   49.4850   30.6610   40.9040 C   0  0  0  0  0  0  0  0  0  0  0  0
   51.1850   30.1620   41.5000 S   0  0  0  0  0  0  0  0  0  0  0  0
   52.0010   31.2750   40.1930 C   0  0  0  0  0  0  0  0  0  0  0  0
   51.1120   31.7180   39.6670 N   0  0  0  0  0  0  0  0  0  0  0  0
   44.2635   35.8265   46.4608 H   0  0  0  0  0  0  0  0  0  0  0  0
   43.9349   36.9614   44.2130 H   0  0  0  0  0  0  0  0  0  0  0  0
   47.1181   31.8304   41.7813 H   0  0  0  0  0  0  0  0  0  0  0  0
   45.5237   31.5255   42.4530 H   0  0  0  0  0  0  0  0  0  0  0  0
   46.2025   31.4420   39.7042 H   0  0  0  0  0  0  0  0  0  0  0  0
   44.5490   31.5485   40.2974 H   0  0  0  0  0  0  0  0  0  0  0  0
   45.8265   33.4914   38.8131 H   0  0  0  0  0  0  0  0  0  0  0  0
   44.4507   33.8295   39.8589 H   0  0  0  0  0  0  0  0  0  0  0  0
   46.3141   35.2736   40.7210 H   0  0  0  0  0  0  0  0  0  0  0  0
   45.9752   32.5015   46.6998 H   0  0  0  0  0  0  0  0  0  0  0  0
   45.1789   33.7938   47.6372 H   0  0  0  0  0  0  0  0  0  0  0  0
   49.6017   34.0951   39.5530 H   0  0  0  0  0  0  0  0  0  0  0  0
   46.9785   33.8712   37.9330 H   0  0  0  0  0  0  0  0  0  0  0  0
   47.9244   35.3003   38.0156 H   0  0  0  0  0  0  0  0  0  0  0  0
   49.9496   34.0580   37.1321 H   0  0  0  0  0  0  0  0  0  0  0  0
   48.6249   33.6157   36.0691 H   0  0  0  0  0  0  0  0  0  0  0  0
   48.3976   31.4945   37.0500 H   0  0  0  0  0  0  0  0  0  0  0  0
   50.0962   31.7566   37.4811 H   0  0  0  0  0  0  0  0  0  0  0  0
   47.7484   31.6811   39.3851 H   0  0  0  0  0  0  0  0  0  0  0  0
   48.4970   30.3452   41.2701 H   0  0  0  0  0  0  0  0  0  0  0  0
   53.0709   31.4428   40.0004 H   0  0  0  0  0  0  0  0  0  0  0  0
  1 12  1  0
  2  1  2  0
  3  2  1  0
  4  5  1  0
  4  3  2  0
  5  6  2  0
  6  1  1  0
  7  5  1  0
  8  7  1  0
  9  8  1  0
 10  9  1  0
 10 11  1  0
 11  7  1  0
 13 11  1  0
 13 14  2  0
 15 13  1  0
 16 15  1  0
 17 18  1  0
 17 16  1  0
 18 19  1  0
 19 15  1  0
 19 20  1  0
 20 21  2  0
 21 22  1  0
 23 22  1  0
 24 20  1  0
 24 23  2  0
  2 25  1  0
  3 26  1  0
  8 27  1  0
  8 28  1  0
  9 29  1  0
  9 30  1  0
 10 31  1  0
 10 32  1  0
 11 33  1  1
 12 34  1  0
 12 35  1  0
 15 36  1  1
 16 37  1  0
 16 38  1  0
 17 39  1  0
 17 40  1  0
 18 41  1  0
 18 42  1  0
 19 43  1  6
 21 44  1  0
 23 45  1  0
M  ISO  8  25  14  26  14  27  13  28  13  29  13  30  13  31  13  32  13
M  ISO  8  33  13  36  13  37  13  38  13  39  13  40  13  41  13  42  13
M  ISO  3  43  13  44  14  45  14
M  END
>  <minimizedAffinity>  (1) 
-5.37342978

>  <minimizedRMSD>  (1) 
3.23645711

$$$$
