
     RDKit          3D

 42 44  0  0  1  0  0  0  0  0999 V2000
   45.3980   34.1510   45.5330 C   0  0  0  0  0  0  0  0  0  0  0  0
   44.6600   35.3230   45.5070 C   0  0  0  0  0  0  0  0  0  0  0  0
   44.3830   35.9000   44.2540 C   0  0  0  0  0  0  0  0  0  0  0  0
   44.8600   35.2650   43.1360 N   0  0  0  0  0  0  0  0  0  0  0  0
   45.5720   34.1300   43.2180 C   0  0  0  0  0  0  0  0  0  0  0  0
   45.8270   33.5990   44.3780 N   0  0  0  0  0  0  0  0  0  0  0  0
   46.0100   33.5470   42.0020 N   0  0  0  0  0  0  0  0  0  0  0  0
   46.2240   32.1490   41.7180 C   0  0  0  0  0  0  0  0  0  0  0  0
   45.6500   31.9660   40.3330 C   0  0  0  0  0  0  0  0  0  0  0  0
   45.4680   33.3290   39.8370 C   0  0  0  0  0  0  0  0  0  0  0  0
   46.3480   34.1680   40.7090 C   0  0  2  0  0  0  0  0  0  0  0  0
   45.7450   33.4760   46.7130 N   0  0  0  0  0  0  0  0  0  0  0  0
   47.7530   34.0770   40.3610 C   0  0  0  0  0  0  0  0  0  0  0  0
   48.5710   34.3170   41.2420 O   0  0  0  0  0  0  0  0  0  0  0  0
   48.5470   33.7590   39.2090 C   0  0  2  0  0  0  0  0  0  0  0  0
   47.9240   34.2740   37.9640 C   0  0  0  0  0  0  0  0  0  0  0  0
   48.8810   33.6290   36.9930 C   0  0  0  0  0  0  0  0  0  0  0  0
   49.0240   32.2340   37.5040 C   0  0  0  0  0  0  0  0  0  0  0  0
   48.6440   32.2880   38.9930 C   0  0  1  0  0  0  0  0  0  0  0  0
   49.7580   31.7660   39.8290 C   0  0  0  0  0  0  0  0  0  0  0  0
   49.7310   31.0870   40.8880 O   0  0  0  0  0  0  0  0  0  0  0  0
   51.0550   32.0290   39.4470 O   0  0  0  0  0  0  0  0  0  0  0  0
   44.3016   35.7882   46.4372 H   0  0  0  0  0  0  0  0  0  0  0  0
   43.8023   36.8308   44.1737 H   0  0  0  0  0  0  0  0  0  0  0  0
   47.2969   31.9069   41.7318 H   0  0  0  0  0  0  0  0  0  0  0  0
   45.7540   31.4889   42.4619 H   0  0  0  0  0  0  0  0  0  0  0  0
   46.3481   31.4076   39.6921 H   0  0  0  0  0  0  0  0  0  0  0  0
   44.7123   31.3909   40.3382 H   0  0  0  0  0  0  0  0  0  0  0  0
   45.7789   33.4041   38.7845 H   0  0  0  0  0  0  0  0  0  0  0  0
   44.4164   33.6496   39.8737 H   0  0  0  0  0  0  0  0  0  0  0  0
   46.1906   35.2552   40.6521 H   0  0  0  0  0  0  0  0  0  0  0  0
   46.2964   32.6073   46.6662 H   0  0  0  0  0  0  0  0  0  0  0  0
   45.4483   33.8492   47.6260 H   0  0  0  0  0  0  0  0  0  0  0  0
   49.5300   34.2123   39.4047 H   0  0  0  0  0  0  0  0  0  0  0  0
   46.8909   33.9195   37.8336 H   0  0  0  0  0  0  0  0  0  0  0  0
   47.8095   35.3654   37.8880 H   0  0  0  0  0  0  0  0  0  0  0  0
   49.8507   34.1483   36.9958 H   0  0  0  0  0  0  0  0  0  0  0  0
   48.5208   33.6657   35.9543 H   0  0  0  0  0  0  0  0  0  0  0  0
   48.3481   31.5568   36.9612 H   0  0  0  0  0  0  0  0  0  0  0  0
   50.0471   31.8555   37.3624 H   0  0  0  0  0  0  0  0  0  0  0  0
   47.7446   31.7072   39.2455 H   0  0  0  0  0  0  0  0  0  0  0  0
   51.8096   31.6899   39.9908 H   0  0  0  0  0  0  0  0  0  0  0  0
  1 12  1  0
  2  1  2  0
  3  2  1  0
  4  5  1  0
  4  3  2  0
  5  6  2  0
  6  1  1  0
  7  5  1  0
  8  7  1  0
  9  8  1  0
 10  9  1  0
 10 11  1  0
 11  7  1  0
 13 11  1  0
 13 14  2  0
 15 13  1  0
 16 15  1  0
 17 18  1  0
 17 16  1  0
 18 19  1  0
 19 15  1  0
 19 20  1  0
 20 21  2  0
 22 20  1  0
  2 23  1  0
  3 24  1  0
  8 25  1  0
  8 26  1  0
  9 27  1  0
  9 28  1  0
 10 29  1  0
 10 30  1  0
 11 31  1  1
 12 32  1  0
 12 33  1  0
 15 34  1  1
 16 35  1  0
 16 36  1  0
 17 37  1  0
 17 38  1  0
 18 39  1  0
 18 40  1  0
 19 41  1  6
 22 42  1  0
M  ISO  8  23  14  24  14  25  13  26  13  27  13  28  13  29  13  30  13
M  ISO  8  31  13  34  13  35  13  36  13  37  13  38  13  39  13  40  13
M  ISO  2  41  13  42   3
M  END
>  <minimizedAffinity>  (1) 
-5.35135365

>  <minimizedRMSD>  (1) 
3.04978132

$$$$
