
     RDKit          3D

 44 47  0  0  1  0  0  0  0  0999 V2000
   45.2670   34.1250   45.5540 C   0  0  0  0  0  0  0  0  0  0  0  0
   44.6250   35.3620   45.5360 C   0  0  0  0  0  0  0  0  0  0  0  0
   44.4430   35.9930   44.2800 C   0  0  0  0  0  0  0  0  0  0  0  0
   44.9040   35.3510   43.1630 N   0  0  0  0  0  0  0  0  0  0  0  0
   45.5170   34.1550   43.2450 C   0  0  0  0  0  0  0  0  0  0  0  0
   45.6850   33.5770   44.4000 N   0  0  0  0  0  0  0  0  0  0  0  0
   45.9550   33.5580   42.0370 N   0  0  0  0  0  0  0  0  0  0  0  0
   46.0830   32.1510   41.7400 C   0  0  0  0  0  0  0  0  0  0  0  0
   45.5480   32.0220   40.3370 C   0  0  0  0  0  0  0  0  0  0  0  0
   45.4700   33.4030   39.8530 C   0  0  0  0  0  0  0  0  0  0  0  0
   46.3760   34.1680   40.7650 C   0  0  2  0  0  0  0  0  0  0  0  0
   45.4860   33.4130   46.7220 N   0  0  0  0  0  0  0  0  0  0  0  0
   47.7870   33.9820   40.4600 C   0  0  0  0  0  0  0  0  0  0  0  0
   48.5880   34.1240   41.3810 O   0  0  0  0  0  0  0  0  0  0  0  0
   48.5930   33.6520   39.3270 C   0  0  2  0  0  0  0  0  0  0  0  0
   48.0450   34.2460   38.0820 C   0  0  0  0  0  0  0  0  0  0  0  0
   48.9840   33.5630   37.1190 C   0  0  0  0  0  0  0  0  0  0  0  0
   49.0170   32.1470   37.5830 C   0  0  0  0  0  0  0  0  0  0  0  0
   48.6060   32.1880   39.0640 C   0  0  1  0  0  0  0  0  0  0  0  0
   49.7150   31.5730   39.8520 C   0  0  0  0  0  0  0  0  0  0  0  0
   49.6670   30.8580   41.0090 N   0  0  0  0  0  0  0  0  0  0  0  0
   50.8760   30.5060   41.3580 O   0  0  0  0  0  0  0  0  0  0  0  0
   51.7420   30.9510   40.4860 C   0  0  0  0  0  0  0  0  0  0  0  0
   51.0310   31.6170   39.5450 N   0  0  0  0  0  0  0  0  0  0  0  0
   44.2715   35.8327   46.4653 H   0  0  0  0  0  0  0  0  0  0  0  0
   43.9453   36.9711   44.2053 H   0  0  0  0  0  0  0  0  0  0  0  0
   47.1359   31.8361   41.7870 H   0  0  0  0  0  0  0  0  0  0  0  0
   45.5426   31.5168   42.4582 H   0  0  0  0  0  0  0  0  0  0  0  0
   46.2310   31.4277   39.7122 H   0  0  0  0  0  0  0  0  0  0  0  0
   44.5760   31.5082   40.3026 H   0  0  0  0  0  0  0  0  0  0  0  0
   45.8180   33.4709   38.8117 H   0  0  0  0  0  0  0  0  0  0  0  0
   44.4413   33.7925   39.8601 H   0  0  0  0  0  0  0  0  0  0  0  0
   46.2951   35.2640   40.7184 H   0  0  0  0  0  0  0  0  0  0  0  0
   45.9651   32.5019   46.6876 H   0  0  0  0  0  0  0  0  0  0  0  0
   45.1697   33.7948   47.6248 H   0  0  0  0  0  0  0  0  0  0  0  0
   49.5955   34.0349   39.5686 H   0  0  0  0  0  0  0  0  0  0  0  0
   46.9941   33.9694   37.9116 H   0  0  0  0  0  0  0  0  0  0  0  0
   48.0089   35.3445   38.0367 H   0  0  0  0  0  0  0  0  0  0  0  0
   49.9868   34.0127   37.1667 H   0  0  0  0  0  0  0  0  0  0  0  0
   48.6562   33.6562   36.0731 H   0  0  0  0  0  0  0  0  0  0  0  0
   48.3080   31.5366   37.0044 H   0  0  0  0  0  0  0  0  0  0  0  0
   50.0120   31.6976   37.4488 H   0  0  0  0  0  0  0  0  0  0  0  0
   47.6640   31.6747   39.3073 H   0  0  0  0  0  0  0  0  0  0  0  0
   52.8329   30.8121   40.5113 H   0  0  0  0  0  0  0  0  0  0  0  0
  1 12  1  0
  2  1  2  0
  3  2  1  0
  4  5  1  0
  4  3  2  0
  5  6  2  0
  6  1  1  0
  7  5  1  0
  8  7  1  0
  9  8  1  0
 10  9  1  0
 10 11  1  0
 11  7  1  0
 13 11  1  0
 13 14  2  0
 15 13  1  0
 16 15  1  0
 17 18  1  0
 17 16  1  0
 18 19  1  0
 19 15  1  0
 19 20  1  0
 20 21  2  0
 21 22  1  0
 23 22  1  0
 24 20  1  0
 24 23  2  0
  2 25  1  0
  3 26  1  0
  8 27  1  0
  8 28  1  0
  9 29  1  0
  9 30  1  0
 10 31  1  0
 10 32  1  0
 11 33  1  1
 12 34  1  0
 12 35  1  0
 15 36  1  1
 16 37  1  0
 16 38  1  0
 17 39  1  0
 17 40  1  0
 18 41  1  0
 18 42  1  0
 19 43  1  6
 23 44  1  0
M  ISO  8  25  14  26  14  27  13  28  13  29  13  30  13  31  13  32  13
M  ISO  8  33  13  36  13  37  13  38  13  39  13  40  13  41  13  42  13
M  ISO  2  43  13  44  14
M  END
>  <minimizedAffinity>  (1) 
-5.34694386

>  <minimizedRMSD>  (1) 
3.20862436

$$$$
