
     RDKit          3D

 45 48  0  0  1  0  0  0  0  0999 V2000
   45.5730   33.3630   46.3640 C   0  0  0  0  0  0  0  0  0  0  0  0
   46.7730   32.6740   46.3150 C   0  0  0  0  0  0  0  0  0  0  0  0
   47.2850   32.3350   45.0510 C   0  0  0  0  0  0  0  0  0  0  0  0
   46.5690   32.7030   43.9400 N   0  0  0  0  0  0  0  0  0  0  0  0
   45.4060   33.3730   44.0460 C   0  0  0  0  0  0  0  0  0  0  0  0
   44.9360   33.6860   45.2190 N   0  0  0  0  0  0  0  0  0  0  0  0
   44.7450   33.7190   42.8430 N   0  0  0  0  0  0  0  0  0  0  0  0
   43.8880   34.8560   42.5980 C   0  0  0  0  0  0  0  0  0  0  0  0
   44.3100   35.3360   41.2280 C   0  0  0  0  0  0  0  0  0  0  0  0
   45.1170   34.2400   40.6880 C   0  0  0  0  0  0  0  0  0  0  0  0
   44.7430   33.0600   41.5240 C   0  0  2  0  0  0  0  0  0  0  0  0
   44.9590   33.7580   47.5570 N   0  0  0  0  0  0  0  0  0  0  0  0
   43.4610   32.4780   41.1610 C   0  0  0  0  0  0  0  0  0  0  0  0
   43.3750   31.9180   40.0750 O   0  0  0  0  0  0  0  0  0  0  0  0
   42.1550   32.3370   41.7390 C   0  0  2  0  0  0  0  0  0  0  0  0
   41.9000   30.9380   42.1650 C   0  0  0  0  0  0  0  0  0  0  0  0
   40.4510   31.1170   42.5360 C   0  0  0  0  0  0  0  0  0  0  0  0
   39.8880   31.9010   41.4090 C   0  0  0  0  0  0  0  0  0  0  0  0
   41.0770   32.6020   40.7290 C   0  0  1  0  0  0  0  0  0  0  0  0
   40.8370   34.0150   40.5400 N   0  0  0  0  0  0  0  0  0  0  0  0
   40.9970   34.6620   39.3710 C   0  0  0  0  0  0  0  0  0  0  0  0
   40.6920   35.9710   39.5300 N   0  0  0  0  0  0  0  0  0  0  0  0
   40.3350   36.1290   40.8290 C   0  0  0  0  0  0  0  0  0  0  0  0
   40.4290   34.9320   41.4240 N   0  0  0  0  0  0  0  0  0  0  0  0
   47.3085   32.4007   47.2362 H   0  0  0  0  0  0  0  0  0  0  0  0
   48.2350   31.7889   44.9548 H   0  0  0  0  0  0  0  0  0  0  0  0
   42.8295   34.5567   42.5996 H   0  0  0  0  0  0  0  0  0  0  0  0
   43.9824   35.6343   43.3695 H   0  0  0  0  0  0  0  0  0  0  0  0
   43.4310   35.5211   40.5931 H   0  0  0  0  0  0  0  0  0  0  0  0
   44.8665   36.2839   41.2700 H   0  0  0  0  0  0  0  0  0  0  0  0
   44.8735   34.0612   39.6303 H   0  0  0  0  0  0  0  0  0  0  0  0
   46.1952   34.4551   40.7229 H   0  0  0  0  0  0  0  0  0  0  0  0
   45.4025   32.1842   41.4348 H   0  0  0  0  0  0  0  0  0  0  0  0
   44.0651   34.2690   47.5315 H   0  0  0  0  0  0  0  0  0  0  0  0
   45.4008   33.5379   48.4610 H   0  0  0  0  0  0  0  0  0  0  0  0
   42.1338   33.0475   42.5785 H   0  0  0  0  0  0  0  0  0  0  0  0
   42.0381   30.2173   41.3456 H   0  0  0  0  0  0  0  0  0  0  0  0
   42.5608   30.5342   42.9462 H   0  0  0  0  0  0  0  0  0  0  0  0
   39.9469   30.1434   42.6258 H   0  0  0  0  0  0  0  0  0  0  0  0
   40.3205   31.6167   43.5072 H   0  0  0  0  0  0  0  0  0  0  0  0
   39.3823   31.2329   40.6963 H   0  0  0  0  0  0  0  0  0  0  0  0
   39.1451   32.6307   41.7634 H   0  0  0  0  0  0  0  0  0  0  0  0
   41.3045   32.2457   39.7135 H   0  0  0  0  0  0  0  0  0  0  0  0
   41.3256   34.1977   38.4295 H   0  0  0  0  0  0  0  0  0  0  0  0
   40.0245   37.0696   41.3075 H   0  0  0  0  0  0  0  0  0  0  0  0
  1 12  1  0
  2  1  2  0
  3  2  1  0
  4  5  1  0
  4  3  2  0
  5  6  2  0
  6  1  1  0
  7  5  1  0
  8  7  1  0
  9  8  1  0
 10  9  1  0
 10 11  1  0
 11  7  1  0
 13 11  1  0
 13 15  1  0
 14 13  2  0
 15 16  1  0
 16 17  1  0
 18 17  1  0
 19 18  1  0
 19 15  1  0
 20 19  1  0
 20 24  1  0
 21 22  2  0
 21 20  1  0
 22 23  1  0
 23 24  2  0
  2 25  1  0
  3 26  1  0
  8 27  1  0
  8 28  1  0
  9 29  1  0
  9 30  1  0
 10 31  1  0
 10 32  1  0
 11 33  1  1
 12 34  1  0
 12 35  1  0
 15 36  1  1
 16 37  1  0
 16 38  1  0
 17 39  1  0
 17 40  1  0
 18 41  1  0
 18 42  1  0
 19 43  1  6
 21 44  1  0
 23 45  1  0
M  ISO  8  25  14  26  14  27  13  28  13  29  13  30  13  31  13  32  13
M  ISO  8  33  13  36  13  37  13  38  13  39  13  40  13  41  13  42  13
M  ISO  3  43  13  44  14  45  14
M  END
>  <minimizedAffinity>  (1) 
-5.34143734

>  <minimizedRMSD>  (1) 
8.11788654

$$$$
