
     RDKit          3D

 52 55  0  0  1  0  0  0  0  0999 V2000
   47.6810   33.1820   43.4930 C   0  0  0  0  0  0  0  0  0  0  0  0
   48.2840   32.1230   43.6240 O   0  0  0  0  0  0  0  0  0  0  0  0
   45.8800   30.0650   47.8950 C   0  0  0  0  0  0  0  0  0  0  0  0
   45.8860   30.9950   48.9270 C   0  0  0  0  0  0  0  0  0  0  0  0
   45.9260   32.3520   48.5960 C   0  0  0  0  0  0  0  0  0  0  0  0
   45.9580   32.6910   47.2660 N   0  0  0  0  0  0  0  0  0  0  0  0
   45.9510   31.7550   46.3000 C   0  0  0  0  0  0  0  0  0  0  0  0
   45.9140   30.4920   46.6130 N   0  0  0  0  0  0  0  0  0  0  0  0
   45.9750   32.2070   44.9590 N   0  0  0  0  0  0  0  0  0  0  0  0
   45.4040   31.5610   43.7970 C   0  0  0  0  0  0  0  0  0  0  0  0
   44.7750   32.7000   43.0250 C   0  0  0  0  0  0  0  0  0  0  0  0
   45.3340   33.9050   43.6370 C   0  0  0  0  0  0  0  0  0  0  0  0
   46.5490   33.4270   44.3660 C   0  0  2  0  0  0  0  0  0  0  0  0
   45.8430   28.6770   48.0910 N   0  0  0  0  0  0  0  0  0  0  0  0
   48.3690   33.8510   42.4230 C   0  0  2  0  0  0  0  0  0  0  0  0
   48.4040   35.3180   42.6370 C   0  0  0  0  0  0  0  0  0  0  0  0
   48.9930   35.6960   41.3030 C   0  0  0  0  0  0  0  0  0  0  0  0
   48.2370   34.8690   40.3310 C   0  0  0  0  0  0  0  0  0  0  0  0
   47.6270   33.7000   41.1230 C   0  0  1  0  0  0  0  0  0  0  0  0
   48.1290   29.8990   39.1750 C   0  0  0  0  0  0  0  0  0  0  0  0
   49.2310   30.6800   39.4450 C   0  0  0  0  0  0  0  0  0  0  0  0
   49.0720   31.8990   40.0690 C   0  0  0  0  0  0  0  0  0  0  0  0
   47.8510   32.4000   40.4520 C   0  0  0  0  0  0  0  0  0  0  0  0
   46.7860   31.5460   40.1420 C   0  0  0  0  0  0  0  0  0  0  0  0
   46.8650   30.3330   39.5290 C   0  0  0  0  0  0  0  0  0  0  0  0
   48.2540   28.3370   38.3840 S   0  0  0  0  0  0  0  0  0  0  0  0
   47.5670   28.4110   37.0320 O   0  0  0  0  0  0  0  0  0  0  0  0
   47.4420   27.3620   39.1940 O   0  0  0  0  0  0  0  0  0  0  0  0
   45.8599   30.6714   49.9780 H   0  0  0  0  0  0  0  0  0  0  0  0
   45.9317   33.1257   49.3779 H   0  0  0  0  0  0  0  0  0  0  0  0
   46.1846   31.0667   43.2000 H   0  0  0  0  0  0  0  0  0  0  0  0
   44.6815   30.7741   44.0592 H   0  0  0  0  0  0  0  0  0  0  0  0
   43.6800   32.6827   43.1284 H   0  0  0  0  0  0  0  0  0  0  0  0
   44.9833   32.6416   41.9465 H   0  0  0  0  0  0  0  0  0  0  0  0
   45.6075   34.6410   42.8666 H   0  0  0  0  0  0  0  0  0  0  0  0
   44.6169   34.4061   44.3038 H   0  0  0  0  0  0  0  0  0  0  0  0
   46.9896   34.1348   45.0835 H   0  0  0  0  0  0  0  0  0  0  0  0
   45.8406   28.0422   47.2799 H   0  0  0  0  0  0  0  0  0  0  0  0
   45.8182   28.2922   49.0461 H   0  0  0  0  0  0  0  0  0  0  0  0
   49.3731   33.4026   42.3969 H   0  0  0  0  0  0  0  0  0  0  0  0
   47.4009   35.7434   42.7877 H   0  0  0  0  0  0  0  0  0  0  0  0
   48.9469   35.6685   43.5271 H   0  0  0  0  0  0  0  0  0  0  0  0
   48.8482   36.7675   41.1009 H   0  0  0  0  0  0  0  0  0  0  0  0
   50.0780   35.5219   41.2541 H   0  0  0  0  0  0  0  0  0  0  0  0
   48.9132   34.4869   39.5521 H   0  0  0  0  0  0  0  0  0  0  0  0
   47.4540   35.4605   39.8339 H   0  0  0  0  0  0  0  0  0  0  0  0
   46.5326   33.7189   41.2325 H   0  0  0  0  0  0  0  0  0  0  0  0
   50.2357   30.3318   39.1634 H   0  0  0  0  0  0  0  0  0  0  0  0
   49.9694   32.5022   40.2709 H   0  0  0  0  0  0  0  0  0  0  0  0
   45.7801   31.8911   40.4231 H   0  0  0  0  0  0  0  0  0  0  0  0
   45.9686   29.7288   39.3257 H   0  0  0  0  0  0  0  0  0  0  0  0
   49.5702   27.9768   38.2623 H   0  0  0  0  0  0  0  0  0  0  0  0
  1  2  2  0
  1 13  1  0
  3 14  1  0
  3  4  2  0
  5  4  1  0
  6  5  2  0
  7  8  2  0
  7  6  1  0
  8  3  1  0
  9  7  1  0
 10  9  1  0
 11 12  1  0
 11 10  1  0
 12 13  1  0
 13  9  1  0
 15 16  1  0
 15  1  1  0
 17 16  1  0
 18 19  1  0
 18 17  1  0
 19 15  1  0
 20 21  2  0
 20 25  1  0
 21 22  1  0
 22 23  2  0
 23 19  1  0
 24 23  1  0
 25 24  2  0
 26 20  1  0
 26 28  2  0
 27 26  2  0
  4 29  1  0
  5 30  1  0
 10 31  1  0
 10 32  1  0
 11 33  1  0
 11 34  1  0
 12 35  1  0
 12 36  1  0
 13 37  1  1
 14 38  1  0
 14 39  1  0
 15 40  1  6
 16 41  1  0
 16 42  1  0
 17 43  1  0
 17 44  1  0
 18 45  1  0
 18 46  1  0
 19 47  1  1
 21 48  1  0
 22 49  1  0
 24 50  1  0
 25 51  1  0
 26 52  1  0
M  ISO  8  29  14  30  14  31  13  32  13  33  13  34  13  35  13  36  13
M  ISO  8  37  13  40  13  41  13  42  13  43  13  44  13  45  13  46  13
M  ISO  6  47  13  48  14  49  14  50  14  51  14  52  11
M  END
>  <minimizedAffinity>  (1) 
-5.33752632

>  <minimizedRMSD>  (1) 
6.38461876

$$$$
