
     RDKit          3D

 46 49  0  0  1  0  0  0  0  0999 V2000
   45.3670   34.1600   45.5460 C   0  0  0  0  0  0  0  0  0  0  0  0
   44.6700   35.3560   45.5110 C   0  0  0  0  0  0  0  0  0  0  0  0
   44.4250   35.9330   44.2600 C   0  0  0  0  0  0  0  0  0  0  0  0
   44.8860   35.2870   43.1410 N   0  0  0  0  0  0  0  0  0  0  0  0
   45.5580   34.1250   43.2290 C   0  0  0  0  0  0  0  0  0  0  0  0
   45.7840   33.5920   44.3940 N   0  0  0  0  0  0  0  0  0  0  0  0
   45.9910   33.5280   42.0230 N   0  0  0  0  0  0  0  0  0  0  0  0
   46.1730   32.1230   41.7440 C   0  0  0  0  0  0  0  0  0  0  0  0
   45.6050   31.9550   40.3540 C   0  0  0  0  0  0  0  0  0  0  0  0
   45.4710   33.3220   39.8470 C   0  0  0  0  0  0  0  0  0  0  0  0
   46.3620   34.1330   40.7310 C   0  0  2  0  0  0  0  0  0  0  0  0
   45.6830   33.4750   46.7280 N   0  0  0  0  0  0  0  0  0  0  0  0
   47.7710   34.0090   40.4000 C   0  0  0  0  0  0  0  0  0  0  0  0
   48.5840   34.1630   41.3030 O   0  0  0  0  0  0  0  0  0  0  0  0
   48.5730   33.7290   39.2420 C   0  0  2  0  0  0  0  0  0  0  0  0
   47.9290   34.2270   38.0030 C   0  0  0  0  0  0  0  0  0  0  0  0
   48.8890   33.6110   37.0170 C   0  0  0  0  0  0  0  0  0  0  0  0
   49.1000   32.2370   37.5310 C   0  0  0  0  0  0  0  0  0  0  0  0
   48.6810   32.2440   39.0090 C   0  0  1  0  0  0  0  0  0  0  0  0
   49.6490   31.5950   39.8580 N   0  0  0  0  0  0  0  0  0  0  0  0
   51.0000   31.7160   39.7170 C   0  0  0  0  0  0  0  0  0  0  0  0
   51.5880   30.9640   40.6950 C   0  0  0  0  0  0  0  0  0  0  0  0
   50.6330   30.3800   41.4390 N   0  0  0  0  0  0  0  0  0  0  0  0
   49.4550   30.7690   40.9230 C   0  0  0  0  0  0  0  0  0  0  0  0
   44.3203   35.8368   46.4365 H   0  0  0  0  0  0  0  0  0  0  0  0
   43.8757   36.8823   44.1758 H   0  0  0  0  0  0  0  0  0  0  0  0
   47.2393   31.8539   41.7667 H   0  0  0  0  0  0  0  0  0  0  0  0
   45.6823   31.4751   42.4852 H   0  0  0  0  0  0  0  0  0  0  0  0
   46.2899   31.3709   39.7218 H   0  0  0  0  0  0  0  0  0  0  0  0
   44.6479   31.4128   40.3552 H   0  0  0  0  0  0  0  0  0  0  0  0
   45.8012   33.3832   38.7995 H   0  0  0  0  0  0  0  0  0  0  0  0
   44.4295   33.6755   39.8622 H   0  0  0  0  0  0  0  0  0  0  0  0
   46.2338   35.2239   40.6711 H   0  0  0  0  0  0  0  0  0  0  0  0
   46.2048   32.5880   46.6854 H   0  0  0  0  0  0  0  0  0  0  0  0
   45.3933   33.8588   47.6388 H   0  0  0  0  0  0  0  0  0  0  0  0
   49.5440   34.2081   39.4360 H   0  0  0  0  0  0  0  0  0  0  0  0
   46.9040   33.8464   37.8824 H   0  0  0  0  0  0  0  0  0  0  0  0
   47.7899   35.3158   37.9310 H   0  0  0  0  0  0  0  0  0  0  0  0
   49.8366   34.1692   36.9932 H   0  0  0  0  0  0  0  0  0  0  0  0
   48.5029   33.6226   35.9871 H   0  0  0  0  0  0  0  0  0  0  0  0
   48.4826   31.5229   36.9662 H   0  0  0  0  0  0  0  0  0  0  0  0
   50.1514   31.9328   37.4213 H   0  0  0  0  0  0  0  0  0  0  0  0
   47.7621   31.6850   39.2393 H   0  0  0  0  0  0  0  0  0  0  0  0
   51.5223   32.3115   38.9537 H   0  0  0  0  0  0  0  0  0  0  0  0
   52.6716   30.8540   40.8490 H   0  0  0  0  0  0  0  0  0  0  0  0
   48.4709   30.4628   41.3074 H   0  0  0  0  0  0  0  0  0  0  0  0
  1 12  1  0
  2  1  2  0
  3  2  1  0
  4  5  1  0
  4  3  2  0
  5  6  2  0
  6  1  1  0
  7  5  1  0
  8  7  1  0
  9  8  1  0
 10  9  1  0
 10 11  1  0
 11  7  1  0
 13 11  1  0
 13 14  2  0
 15 13  1  0
 16 15  1  0
 17 18  1  0
 17 16  1  0
 18 19  1  0
 19 15  1  0
 19 20  1  0
 20 24  1  0
 21 20  1  0
 21 22  2  0
 22 23  1  0
 24 23  2  0
  2 25  1  0
  3 26  1  0
  8 27  1  0
  8 28  1  0
  9 29  1  0
  9 30  1  0
 10 31  1  0
 10 32  1  0
 11 33  1  1
 12 34  1  0
 12 35  1  0
 15 36  1  1
 16 37  1  0
 16 38  1  0
 17 39  1  0
 17 40  1  0
 18 41  1  0
 18 42  1  0
 19 43  1  6
 21 44  1  0
 22 45  1  0
 24 46  1  0
M  ISO  8  25  14  26  14  27  13  28  13  29  13  30  13  31  13  32  13
M  ISO  8  33  13  36  13  37  13  38  13  39  13  40  13  41  13  42  13
M  ISO  4  43  13  44  14  45  14  46  14
M  END
>  <minimizedAffinity>  (1) 
-5.27185726

>  <minimizedRMSD>  (1) 
3.22958827

$$$$
