
     RDKit          3D

 40 42  0  0  1  0  0  0  0  0999 V2000
   45.3710   34.1590   45.5480 C   0  0  0  0  0  0  0  0  0  0  0  0
   44.6630   35.3490   45.5140 C   0  0  0  0  0  0  0  0  0  0  0  0
   44.4090   35.9300   44.2600 C   0  0  0  0  0  0  0  0  0  0  0  0
   44.8770   35.2870   43.1430 N   0  0  0  0  0  0  0  0  0  0  0  0
   45.5600   34.1310   43.2320 C   0  0  0  0  0  0  0  0  0  0  0  0
   45.7940   33.5960   44.3960 N   0  0  0  0  0  0  0  0  0  0  0  0
   45.9920   33.5370   42.0200 N   0  0  0  0  0  0  0  0  0  0  0  0
   46.1780   32.1360   41.7430 C   0  0  0  0  0  0  0  0  0  0  0  0
   45.6110   31.9570   40.3530 C   0  0  0  0  0  0  0  0  0  0  0  0
   45.4590   33.3210   39.8520 C   0  0  0  0  0  0  0  0  0  0  0  0
   46.3490   34.1460   40.7260 C   0  0  2  0  0  0  0  0  0  0  0  0
   45.6900   33.4790   46.7310 N   0  0  0  0  0  0  0  0  0  0  0  0
   47.7530   34.0320   40.3850 C   0  0  0  0  0  0  0  0  0  0  0  0
   48.5700   34.2270   41.2770 O   0  0  0  0  0  0  0  0  0  0  0  0
   48.5490   33.7250   39.2320 C   0  0  2  0  0  0  0  0  0  0  0  0
   47.9540   34.2830   37.9940 C   0  0  0  0  0  0  0  0  0  0  0  0
   48.8670   33.6010   37.0010 C   0  0  0  0  0  0  0  0  0  0  0  0
   48.9870   32.1970   37.5020 C   0  0  0  0  0  0  0  0  0  0  0  0
   48.6190   32.2590   38.9910 C   0  0  1  0  0  0  0  0  0  0  0  0
   50.0510   31.5980   39.9100 S   0  0  0  0  0  0  0  0  0  0  0  0
   44.3102   35.8250   46.4408 H   0  0  0  0  0  0  0  0  0  0  0  0
   43.8505   36.8740   44.1768 H   0  0  0  0  0  0  0  0  0  0  0  0
   47.2455   31.8716   41.7664 H   0  0  0  0  0  0  0  0  0  0  0  0
   45.6873   31.4898   42.4858 H   0  0  0  0  0  0  0  0  0  0  0  0
   46.3036   31.3832   39.7196 H   0  0  0  0  0  0  0  0  0  0  0  0
   44.6632   31.3988   40.3522 H   0  0  0  0  0  0  0  0  0  0  0  0
   45.7779   33.3864   38.8013 H   0  0  0  0  0  0  0  0  0  0  0  0
   44.4136   33.6619   39.8815 H   0  0  0  0  0  0  0  0  0  0  0  0
   46.2117   35.2357   40.6653 H   0  0  0  0  0  0  0  0  0  0  0  0
   46.2198   32.5966   46.6910 H   0  0  0  0  0  0  0  0  0  0  0  0
   45.3947   33.8616   47.6406 H   0  0  0  0  0  0  0  0  0  0  0  0
   49.5392   34.1554   39.4424 H   0  0  0  0  0  0  0  0  0  0  0  0
   46.9024   33.9866   37.8660 H   0  0  0  0  0  0  0  0  0  0  0  0
   47.9046   35.3802   37.9323 H   0  0  0  0  0  0  0  0  0  0  0  0
   49.8516   34.0909   36.9786 H   0  0  0  0  0  0  0  0  0  0  0  0
   48.4746   33.6456   35.9743 H   0  0  0  0  0  0  0  0  0  0  0  0
   48.2934   31.5357   36.9620 H   0  0  0  0  0  0  0  0  0  0  0  0
   49.9991   31.7945   37.3486 H   0  0  0  0  0  0  0  0  0  0  0  0
   47.7065   31.7144   39.2754 H   0  0  0  0  0  0  0  0  0  0  0  0
   49.8188   31.7052   41.2559 H   0  0  0  0  0  0  0  0  0  0  0  0
  1 12  1  0
  2  1  2  0
  3  2  1  0
  4  5  1  0
  4  3  2  0
  5  6  2  0
  6  1  1  0
  7  5  1  0
  8  7  1  0
  9  8  1  0
 10  9  1  0
 10 11  1  0
 11  7  1  0
 13 11  1  0
 13 14  2  0
 15 13  1  0
 16 15  1  0
 17 18  1  0
 17 16  1  0
 18 19  1  0
 19 15  1  0
 19 20  1  0
  2 21  1  0
  3 22  1  0
  8 23  1  0
  8 24  1  0
  9 25  1  0
  9 26  1  0
 10 27  1  0
 10 28  1  0
 11 29  1  1
 12 30  1  0
 12 31  1  0
 15 32  1  1
 16 33  1  0
 16 34  1  0
 17 35  1  0
 17 36  1  0
 18 37  1  0
 18 38  1  0
 19 39  1  6
 20 40  1  0
M  ISO  8  21  14  22  14  23  13  24  13  25  13  26  13  27  13  28  13
M  ISO  8  29  13  32  13  33  13  34  13  35  13  36  13  37  13  38  13
M  ISO  2  39  13  40  11
M  END
>  <minimizedAffinity>  (1) 
-5.10904217

>  <minimizedRMSD>  (1) 
2.83425951

$$$$
