
     RDKit          3D

 46 49  0  0  1  0  0  0  0  0999 V2000
   45.4030   34.1570   45.5330 C   0  0  0  0  0  0  0  0  0  0  0  0
   44.6530   35.3200   45.5000 C   0  0  0  0  0  0  0  0  0  0  0  0
   44.3740   35.8910   44.2560 C   0  0  0  0  0  0  0  0  0  0  0  0
   44.8590   35.2680   43.1340 N   0  0  0  0  0  0  0  0  0  0  0  0
   45.5850   34.1370   43.2180 C   0  0  0  0  0  0  0  0  0  0  0  0
   45.8460   33.6050   44.3760 N   0  0  0  0  0  0  0  0  0  0  0  0
   46.0320   33.5570   42.0070 N   0  0  0  0  0  0  0  0  0  0  0  0
   46.2800   32.1600   41.7280 C   0  0  0  0  0  0  0  0  0  0  0  0
   45.7010   31.9590   40.3480 C   0  0  0  0  0  0  0  0  0  0  0  0
   45.4870   33.3150   39.8430 C   0  0  0  0  0  0  0  0  0  0  0  0
   46.3510   34.1740   40.7090 C   0  0  2  0  0  0  0  0  0  0  0  0
   45.7490   33.4840   46.7120 N   0  0  0  0  0  0  0  0  0  0  0  0
   47.7570   34.1160   40.3560 C   0  0  0  0  0  0  0  0  0  0  0  0
   48.5760   34.3880   41.2280 O   0  0  0  0  0  0  0  0  0  0  0  0
   48.5540   33.8040   39.2050 C   0  0  2  0  0  0  0  0  0  0  0  0
   47.9090   34.2790   37.9560 C   0  0  0  0  0  0  0  0  0  0  0  0
   48.8810   33.6530   36.9910 C   0  0  0  0  0  0  0  0  0  0  0  0
   49.0650   32.2730   37.5180 C   0  0  0  0  0  0  0  0  0  0  0  0
   48.6850   32.3270   39.0090 C   0  0  1  0  0  0  0  0  0  0  0  0
   49.8350   31.7250   39.7740 C   0  0  0  0  0  0  0  0  0  0  0  0
   49.6230   30.2230   40.1500 C   0  0  0  0  0  0  0  0  0  0  0  0
   49.7550   31.3010   41.1720 C   0  0  0  0  0  0  0  0  0  0  0  0
   44.2865   35.7822   46.4285 H   0  0  0  0  0  0  0  0  0  0  0  0
   43.7818   36.8147   44.1782 H   0  0  0  0  0  0  0  0  0  0  0  0
   47.3587   31.9446   41.7354 H   0  0  0  0  0  0  0  0  0  0  0  0
   45.8330   31.4909   42.4780 H   0  0  0  0  0  0  0  0  0  0  0  0
   46.4063   31.4111   39.7058 H   0  0  0  0  0  0  0  0  0  0  0  0
   44.7746   31.3661   40.3639 H   0  0  0  0  0  0  0  0  0  0  0  0
   45.7938   33.3911   38.7894 H   0  0  0  0  0  0  0  0  0  0  0  0
   44.4289   33.6137   39.8780 H   0  0  0  0  0  0  0  0  0  0  0  0
   46.1683   35.2570   40.6472 H   0  0  0  0  0  0  0  0  0  0  0  0
   46.3104   32.6216   46.6669 H   0  0  0  0  0  0  0  0  0  0  0  0
   45.4420   33.8516   47.6239 H   0  0  0  0  0  0  0  0  0  0  0  0
   49.5248   34.2878   39.3882 H   0  0  0  0  0  0  0  0  0  0  0  0
   46.8877   33.8883   37.8360 H   0  0  0  0  0  0  0  0  0  0  0  0
   47.7580   35.3647   37.8646 H   0  0  0  0  0  0  0  0  0  0  0  0
   49.8350   34.2007   36.9850 H   0  0  0  0  0  0  0  0  0  0  0  0
   48.5185   33.6671   35.9526 H   0  0  0  0  0  0  0  0  0  0  0  0
   48.4095   31.5702   36.9829 H   0  0  0  0  0  0  0  0  0  0  0  0
   50.1001   31.9268   37.3810 H   0  0  0  0  0  0  0  0  0  0  0  0
   47.7829   31.7863   39.3314 H   0  0  0  0  0  0  0  0  0  0  0  0
   50.5575   32.3700   39.2525 H   0  0  0  0  0  0  0  0  0  0  0  0
   48.6522   29.7361   39.9753 H   0  0  0  0  0  0  0  0  0  0  0  0
   50.1281   29.2707   39.9307 H   0  0  0  0  0  0  0  0  0  0  0  0
   50.6574   31.3409   41.7998 H   0  0  0  0  0  0  0  0  0  0  0  0
   49.1308   31.6159   42.0213 H   0  0  0  0  0  0  0  0  0  0  0  0
  1 12  1  0
  2  1  2  0
  3  2  1  0
  4  5  1  0
  4  3  2  0
  5  6  2  0
  6  1  1  0
  7  5  1  0
  8  7  1  0
  9  8  1  0
 10  9  1  0
 10 11  1  0
 11  7  1  0
 13 11  1  0
 13 14  2  0
 15 13  1  0
 16 15  1  0
 17 18  1  0
 17 16  1  0
 18 19  1  0
 19 15  1  0
 19 20  1  0
 20 21  1  0
 20 22  1  0
 21 22  1  0
  2 23  1  0
  3 24  1  0
  8 25  1  0
  8 26  1  0
  9 27  1  0
  9 28  1  0
 10 29  1  0
 10 30  1  0
 11 31  1  1
 12 32  1  0
 12 33  1  0
 15 34  1  1
 16 35  1  0
 16 36  1  0
 17 37  1  0
 17 38  1  0
 18 39  1  0
 18 40  1  0
 19 41  1  6
 20 42  1  0
 21 43  1  0
 21 44  1  0
 22 45  1  0
 22 46  1  0
M  ISO  8  23  14  24  14  25  13  26  13  27  13  28  13  29  13  30  13
M  ISO  8  31  13  34  13  35  13  36  13  37  13  38  13  39  13  40  13
M  ISO  6  41  13  42  13  43  13  44  13  45  13  46  13
M  END
>  <minimizedAffinity>  (1) 
-5.0505805

>  <minimizedRMSD>  (1) 
3.05455112

$$$$
