
     RDKit          3D

 55 58  0  0  1  0  0  0  0  0999 V2000
   45.0210   34.6720   45.3900 C   0  0  0  0  0  0  0  0  0  0  0  0
   44.6060   35.8670   44.8290 C   0  0  0  0  0  0  0  0  0  0  0  0
   44.9430   36.1170   43.4830 C   0  0  0  0  0  0  0  0  0  0  0  0
   45.6610   35.1610   42.8110 N   0  0  0  0  0  0  0  0  0  0  0  0
   46.0390   34.0160   43.4050 C   0  0  0  0  0  0  0  0  0  0  0  0
   45.7250   33.7910   44.6480 N   0  0  0  0  0  0  0  0  0  0  0  0
   46.7690   33.0880   42.6260 N   0  0  0  0  0  0  0  0  0  0  0  0
   46.7840   31.6470   42.7470 C   0  0  0  0  0  0  0  0  0  0  0  0
   46.7390   31.1650   41.3140 C   0  0  0  0  0  0  0  0  0  0  0  0
   47.0450   32.3560   40.5200 C   0  0  0  0  0  0  0  0  0  0  0  0
   47.6850   33.2960   41.4920 C   0  0  2  0  0  0  0  0  0  0  0  0
   44.7550   34.3030   46.7140 N   0  0  0  0  0  0  0  0  0  0  0  0
   49.0700   32.9730   41.7790 C   0  0  0  0  0  0  0  0  0  0  0  0
   49.5670   33.4580   42.7890 O   0  0  0  0  0  0  0  0  0  0  0  0
   50.1290   32.1900   41.2060 C   0  0  2  0  0  0  0  0  0  0  0  0
   49.9770   32.0840   39.7310 C   0  0  0  0  0  0  0  0  0  0  0  0
   51.0690   31.0760   39.4880 C   0  0  0  0  0  0  0  0  0  0  0  0
   50.8760   30.0660   40.5730 C   0  0  0  0  0  0  0  0  0  0  0  0
   50.0600   30.7640   41.6690 C   0  0  1  0  0  0  0  0  0  0  0  0
   50.6840   30.5190   43.0130 C   0  0  0  0  0  0  0  0  0  0  0  0
   49.7230   29.6000   43.7360 C   0  0  0  0  0  0  0  0  0  0  0  0
   50.2570   29.0450   45.0140 C   0  0  0  0  0  0  0  0  0  0  0  0
   51.4860   28.2190   44.6100 C   0  0  0  0  0  0  0  0  0  0  0  0
   52.5030   29.2160   44.1540 C   0  0  0  0  0  0  0  0  0  0  0  0
   52.0950   30.0640   42.9930 C   0  0  0  0  0  0  0  0  0  0  0  0
   44.0310   36.5991   45.4150 H   0  0  0  0  0  0  0  0  0  0  0  0
   44.6393   37.0506   42.9868 H   0  0  0  0  0  0  0  0  0  0  0  0
   47.7022   31.3051   43.2469 H   0  0  0  0  0  0  0  0  0  0  0  0
   45.9500   31.2619   43.3521 H   0  0  0  0  0  0  0  0  0  0  0  0
   47.4903   30.3799   41.1436 H   0  0  0  0  0  0  0  0  0  0  0  0
   45.7666   30.7235   41.0503 H   0  0  0  0  0  0  0  0  0  0  0  0
   47.7379   32.1109   39.7016 H   0  0  0  0  0  0  0  0  0  0  0  0
   46.1499   32.7865   40.0473 H   0  0  0  0  0  0  0  0  0  0  0  0
   47.7851   34.3391   41.1575 H   0  0  0  0  0  0  0  0  0  0  0  0
   45.0913   33.3984   47.0740 H   0  0  0  0  0  0  0  0  0  0  0  0
   44.2230   34.9361   47.3281 H   0  0  0  0  0  0  0  0  0  0  0  0
   51.0611   32.6913   41.5057 H   0  0  0  0  0  0  0  0  0  0  0  0
   48.9863   31.7055   39.4390 H   0  0  0  0  0  0  0  0  0  0  0  0
   50.0501   33.0251   39.1662 H   0  0  0  0  0  0  0  0  0  0  0  0
   50.9589   30.6114   38.4971 H   0  0  0  0  0  0  0  0  0  0  0  0
   52.0723   31.5267   39.5024 H   0  0  0  0  0  0  0  0  0  0  0  0
   50.3287   29.1929   40.1880 H   0  0  0  0  0  0  0  0  0  0  0  0
   51.8403   29.7052   40.9602 H   0  0  0  0  0  0  0  0  0  0  0  0
   49.0245   30.4178   41.8024 H   0  0  0  0  0  0  0  0  0  0  0  0
   50.8087   31.4671   43.5567 H   0  0  0  0  0  0  0  0  0  0  0  0
   48.8069   30.1658   43.9610 H   0  0  0  0  0  0  0  0  0  0  0  0
   49.5403   28.7440   43.0698 H   0  0  0  0  0  0  0  0  0  0  0  0
   50.5456   29.8576   45.6969 H   0  0  0  0  0  0  0  0  0  0  0  0
   49.5085   28.4373   45.5435 H   0  0  0  0  0  0  0  0  0  0  0  0
   51.8656   27.6482   45.4702 H   0  0  0  0  0  0  0  0  0  0  0  0
   51.2472   27.4892   43.8223 H   0  0  0  0  0  0  0  0  0  0  0  0
   52.7266   29.8833   44.9994 H   0  0  0  0  0  0  0  0  0  0  0  0
   53.3687   28.6302   43.8115 H   0  0  0  0  0  0  0  0  0  0  0  0
   52.2524   29.4815   42.0733 H   0  0  0  0  0  0  0  0  0  0  0  0
   52.7115   30.9735   43.0457 H   0  0  0  0  0  0  0  0  0  0  0  0
  1 12  1  0
  2  1  2  0
  3  2  1  0
  4  5  1  0
  4  3  2  0
  5  6  2  0
  6  1  1  0
  7  8  1  0
  7  5  1  0
  9  8  1  0
 10  9  1  0
 10 11  1  0
 11 13  1  0
 11  7  1  0
 13 14  2  0
 15 19  1  0
 15 13  1  0
 16 15  1  0
 17 16  1  0
 17 18  1  0
 18 19  1  0
 19 20  1  0
 20 21  1  0
 21 22  1  0
 23 22  1  0
 24 23  1  0
 25 20  1  0
 25 24  1  0
  2 26  1  0
  3 27  1  0
  8 28  1  0
  8 29  1  0
  9 30  1  0
  9 31  1  0
 10 32  1  0
 10 33  1  0
 11 34  1  6
 12 35  1  0
 12 36  1  0
 15 37  1  6
 16 38  1  0
 16 39  1  0
 17 40  1  0
 17 41  1  0
 18 42  1  0
 18 43  1  0
 19 44  1  1
 20 45  1  0
 21 46  1  0
 21 47  1  0
 22 48  1  0
 22 49  1  0
 23 50  1  0
 23 51  1  0
 24 52  1  0
 24 53  1  0
 25 54  1  0
 25 55  1  0
M  ISO  8  26  14  27  14  28  13  29  13  30  13  31  13  32  13  33  13
M  ISO  8  34  13  37  13  38  13  39  13  40  13  41  13  42  13  43  13
M  ISO  8  44  13  45  13  46  13  47  13  48  13  49  13  50  13  51  13
M  ISO  4  52  13  53  13  54  13  55  13
M  END
>  <minimizedAffinity>  (1) 
-4.93157959

>  <minimizedRMSD>  (1) 
1.39302266

$$$$
