
     RDKit          3D

 45 47  0  0  1  0  0  0  0  0999 V2000
   45.2710   34.1240   45.5480 C   0  0  0  0  0  0  0  0  0  0  0  0
   44.6250   35.3490   45.5250 C   0  0  0  0  0  0  0  0  0  0  0  0
   44.4360   35.9700   44.2780 C   0  0  0  0  0  0  0  0  0  0  0  0
   44.8990   35.3290   43.1570 N   0  0  0  0  0  0  0  0  0  0  0  0
   45.5210   34.1380   43.2360 C   0  0  0  0  0  0  0  0  0  0  0  0
   45.6950   33.5680   44.3940 N   0  0  0  0  0  0  0  0  0  0  0  0
   45.9540   33.5500   42.0240 N   0  0  0  0  0  0  0  0  0  0  0  0
   46.0830   32.1450   41.7170 C   0  0  0  0  0  0  0  0  0  0  0  0
   45.5400   32.0290   40.3130 C   0  0  0  0  0  0  0  0  0  0  0  0
   45.4670   33.4090   39.8350 C   0  0  0  0  0  0  0  0  0  0  0  0
   46.3710   34.1670   40.7510 C   0  0  2  0  0  0  0  0  0  0  0  0
   45.5210   33.4060   46.7210 N   0  0  0  0  0  0  0  0  0  0  0  0
   47.7800   33.9910   40.4470 C   0  0  0  0  0  0  0  0  0  0  0  0
   48.5780   34.0600   41.3750 O   0  0  0  0  0  0  0  0  0  0  0  0
   48.5950   33.7300   39.2950 C   0  0  2  0  0  0  0  0  0  0  0  0
   47.9680   34.2600   38.0580 C   0  0  0  0  0  0  0  0  0  0  0  0
   48.9570   33.6770   37.0850 C   0  0  0  0  0  0  0  0  0  0  0  0
   49.1360   32.2730   37.5520 C   0  0  0  0  0  0  0  0  0  0  0  0
   48.7270   32.2630   39.0360 C   0  0  1  0  0  0  0  0  0  0  0  0
   49.8410   31.6290   39.8350 C   0  0  0  0  0  0  0  0  0  0  0  0
   49.2360   30.4620   40.5890 C   0  0  0  0  0  0  0  0  0  0  0  0
   44.2710   35.8211   46.4533 H   0  0  0  0  0  0  0  0  0  0  0  0
   43.9303   36.9440   44.2031 H   0  0  0  0  0  0  0  0  0  0  0  0
   47.1365   31.8309   41.7564 H   0  0  0  0  0  0  0  0  0  0  0  0
   45.5485   31.5034   42.4330 H   0  0  0  0  0  0  0  0  0  0  0  0
   46.2167   31.4340   39.6821 H   0  0  0  0  0  0  0  0  0  0  0  0
   44.5639   31.5228   40.2819 H   0  0  0  0  0  0  0  0  0  0  0  0
   45.8181   33.4799   38.7950 H   0  0  0  0  0  0  0  0  0  0  0  0
   44.4393   33.8012   39.8406 H   0  0  0  0  0  0  0  0  0  0  0  0
   46.2849   35.2628   40.7086 H   0  0  0  0  0  0  0  0  0  0  0  0
   46.0064   32.4987   46.6759 H   0  0  0  0  0  0  0  0  0  0  0  0
   45.2198   33.7843   47.6305 H   0  0  0  0  0  0  0  0  0  0  0  0
   49.5631   34.2045   39.5135 H   0  0  0  0  0  0  0  0  0  0  0  0
   46.9494   33.8743   37.9043 H   0  0  0  0  0  0  0  0  0  0  0  0
   47.8154   35.3484   38.0114 H   0  0  0  0  0  0  0  0  0  0  0  0
   49.9099   34.2254   37.1200 H   0  0  0  0  0  0  0  0  0  0  0  0
   48.6109   33.7360   36.0425 H   0  0  0  0  0  0  0  0  0  0  0  0
   48.4929   31.5932   36.9739 H   0  0  0  0  0  0  0  0  0  0  0  0
   50.1737   31.9335   37.4182 H   0  0  0  0  0  0  0  0  0  0  0  0
   47.8188   31.6995   39.2959 H   0  0  0  0  0  0  0  0  0  0  0  0
   50.6341   31.2730   39.1610 H   0  0  0  0  0  0  0  0  0  0  0  0
   50.2890   32.3553   40.5291 H   0  0  0  0  0  0  0  0  0  0  0  0
   49.3271   30.6377   41.6710 H   0  0  0  0  0  0  0  0  0  0  0  0
   48.1735   30.3639   40.3216 H   0  0  0  0  0  0  0  0  0  0  0  0
   49.7682   29.5372   40.3216 H   0  0  0  0  0  0  0  0  0  0  0  0
  1 12  1  0
  2  1  2  0
  3  2  1  0
  4  5  1  0
  4  3  2  0
  5  6  2  0
  6  1  1  0
  7  5  1  0
  8  7  1  0
  9  8  1  0
 10  9  1  0
 10 11  1  0
 11  7  1  0
 13 11  1  0
 13 14  2  0
 15 13  1  0
 16 15  1  0
 17 18  1  0
 17 16  1  0
 18 19  1  0
 19 15  1  0
 19 20  1  0
 20 21  1  0
  2 22  1  0
  3 23  1  0
  8 24  1  0
  8 25  1  0
  9 26  1  0
  9 27  1  0
 10 28  1  0
 10 29  1  0
 11 30  1  1
 12 31  1  0
 12 32  1  0
 15 33  1  1
 16 34  1  0
 16 35  1  0
 17 36  1  0
 17 37  1  0
 18 38  1  0
 18 39  1  0
 19 40  1  6
 20 41  1  0
 20 42  1  0
 21 43  1  0
 21 44  1  0
 21 45  1  0
M  ISO  8  22  14  23  14  24  13  25  13  26  13  27  13  28  13  29  13
M  ISO  8  30  13  33  13  34  13  35  13  36  13  37  13  38  13  39  13
M  ISO  6  40  13  41   8  42   8  43   8  44   8  45   8
M  END
>  <minimizedAffinity>  (1) 
-4.91924286

>  <minimizedRMSD>  (1) 
2.92308903

$$$$
