
     RDKit          3D

 28 29  0  0  0  0  0  0  0  0999 V2000
   45.8510   33.5000   41.5630 C   0  0  0  0  0  0  0  0  0  0  0  0
   45.4600   34.3810   42.7070 C   0  0  0  0  0  0  0  0  0  0  0  0
   45.4790   33.7260   43.9500 C   0  0  0  0  0  0  0  0  0  0  0  0
   45.1270   34.4570   45.1040 C   0  0  0  0  0  0  0  0  0  0  0  0
   44.7890   35.7670   44.9390 N   0  0  0  0  0  0  0  0  0  0  0  0
   44.7840   36.3650   43.7250 C   0  0  0  0  0  0  0  0  0  0  0  0
   45.1150   35.6790   42.6310 N   0  0  0  0  0  0  0  0  0  0  0  0
   44.6830   33.1740   40.7030 C   0  0  0  0  0  0  0  0  0  0  0  0
   46.4600   32.1850   42.0420 C   0  0  0  0  0  0  0  0  0  0  0  0
   46.8950   34.2420   40.7660 C   0  0  0  0  0  0  0  0  0  0  0  0
   48.2010   34.1980   41.3930 N   0  0  0  0  0  0  0  0  0  0  0  0
   49.1810   33.2760   41.3380 C   0  0  0  0  0  0  0  0  0  0  0  0
   50.2240   33.6990   42.1120 N   0  0  0  0  0  0  0  0  0  0  0  0
   49.8720   34.8820   42.6340 C   0  0  0  0  0  0  0  0  0  0  0  0
   48.6450   35.1750   42.1920 N   0  0  0  0  0  0  0  0  0  0  0  0
   45.7624   32.6656   44.0217 H   0  0  0  0  0  0  0  0  0  0  0  0
   45.1254   33.9877   46.0989 H   0  0  0  0  0  0  0  0  0  0  0  0
   44.5046   37.4255   43.6403 H   0  0  0  0  0  0  0  0  0  0  0  0
   43.8171   32.9323   41.3368 H   0  0  0  0  0  0  0  0  0  0  0  0
   44.4424   34.0393   40.0679 H   0  0  0  0  0  0  0  0  0  0  0  0
   44.9253   32.3092   40.0679 H   0  0  0  0  0  0  0  0  0  0  0  0
   46.4695   32.1644   43.1418 H   0  0  0  0  0  0  0  0  0  0  0  0
   45.8597   31.3440   41.6647 H   0  0  0  0  0  0  0  0  0  0  0  0
   47.4897   32.0989   41.6647 H   0  0  0  0  0  0  0  0  0  0  0  0
   46.5847   35.2928   40.6687 H   0  0  0  0  0  0  0  0  0  0  0  0
   46.9773   33.7543   39.7835 H   0  0  0  0  0  0  0  0  0  0  0  0
   49.1472   32.3378   40.7648 H   0  0  0  0  0  0  0  0  0  0  0  0
   50.4837   35.5015   43.3063 H   0  0  0  0  0  0  0  0  0  0  0  0
  1  9  1  0
  1  2  1  0
  2  3  2  0
  3  4  1  0
  5  4  2  0
  6  5  1  0
  7  2  1  0
  7  6  2  0
  8  1  1  0
 10 11  1  0
 10  1  1  0
 11 15  1  0
 12 11  1  0
 12 13  2  0
 13 14  1  0
 15 14  2  0
  3 16  1  0
  4 17  1  0
  6 18  1  0
  8 19  1  0
  8 20  1  0
  8 21  1  0
  9 22  1  0
  9 23  1  0
  9 24  1  0
 10 25  1  0
 10 26  1  0
 12 27  1  0
 14 28  1  0
M  ISO  8  16  14  17  14  18  14  19   8  20   8  21   8  22   8  23   8
M  ISO  5  24   8  25   8  26   8  27  14  28  14
M  END
>  <minimizedAffinity>  (1) 
-3.84744358

>  <minimizedRMSD>  (1) 
2.808074

$$$$
