
     RDKit          3D

 43 46  0  0  0  0  0  0  0  0999 V2000
   48.0740   34.7940   41.1130 C   0  0  0  0  0  0  0  0  0  0  0  0
   46.8750   34.2180   40.5770 C   0  0  0  0  0  0  0  0  0  0  0  0
   46.5300   33.3400   39.5210 C   0  0  0  0  0  0  0  0  0  0  0  0
   45.2680   33.0010   39.2950 C   0  0  0  0  0  0  0  0  0  0  0  0
   44.2250   33.5120   40.1080 C   0  0  0  0  0  0  0  0  0  0  0  0
   45.2250   34.5570   41.2740 S   0  0  0  0  0  0  0  0  0  0  0  0
   42.8120   33.4290   40.3110 C   0  0  0  0  0  0  0  0  0  0  0  0
   42.3780   32.6110   41.2930 N   0  0  0  0  0  0  0  0  0  0  0  0
   41.0880   32.3590   41.5300 C   0  0  0  0  0  0  0  0  0  0  0  0
   40.1420   32.9330   40.7700 N   0  0  0  0  0  0  0  0  0  0  0  0
   40.4360   33.7720   39.7590 C   0  0  0  0  0  0  0  0  0  0  0  0
   39.5050   34.4080   38.9690 C   0  0  0  0  0  0  0  0  0  0  0  0
   39.8770   35.2870   37.9630 C   0  0  0  0  0  0  0  0  0  0  0  0
   41.2550   35.4880   37.8000 C   0  0  0  0  0  0  0  0  0  0  0  0
   42.1550   34.8340   38.6080 C   0  0  0  0  0  0  0  0  0  0  0  0
   41.7860   33.9690   39.5930 C   0  0  0  0  0  0  0  0  0  0  0  0
   48.7980   34.0180   42.1430 C   0  0  0  0  0  0  0  0  0  0  0  0
   49.1750   32.6860   41.5680 C   0  0  0  0  0  0  0  0  0  0  0  0
   48.6770   31.5970   42.2850 C   0  0  0  0  0  0  0  0  0  0  0  0
   48.9970   30.3080   41.7960 C   0  0  0  0  0  0  0  0  0  0  0  0
   49.7590   30.1990   40.6710 N   0  0  0  0  0  0  0  0  0  0  0  0
   50.2260   31.3030   40.0010 C   0  0  0  0  0  0  0  0  0  0  0  0
   49.9300   32.5170   40.4560 N   0  0  0  0  0  0  0  0  0  0  0  0
   49.9980   34.7730   42.6210 C   0  0  0  0  0  0  0  0  0  0  0  0
   47.8720   33.8500   43.3500 C   0  0  0  0  0  0  0  0  0  0  0  0
   47.8045   35.7631   41.5582 H   0  0  0  0  0  0  0  0  0  0  0  0
   48.7672   34.8471   40.2605 H   0  0  0  0  0  0  0  0  0  0  0  0
   47.3228   32.9319   38.8768 H   0  0  0  0  0  0  0  0  0  0  0  0
   45.0280   32.3163   38.4682 H   0  0  0  0  0  0  0  0  0  0  0  0
   40.8009   31.6814   42.3476 H   0  0  0  0  0  0  0  0  0  0  0  0
   38.4360   34.2135   39.1406 H   0  0  0  0  0  0  0  0  0  0  0  0
   39.1350   35.7963   37.3305 H   0  0  0  0  0  0  0  0  0  0  0  0
   41.6186   36.1736   37.0204 H   0  0  0  0  0  0  0  0  0  0  0  0
   43.2279   35.0189   38.4508 H   0  0  0  0  0  0  0  0  0  0  0  0
   48.0643   31.7342   43.1882 H   0  0  0  0  0  0  0  0  0  0  0  0
   48.6364   29.4081   42.3157 H   0  0  0  0  0  0  0  0  0  0  0  0
   50.8396   31.1842   39.0958 H   0  0  0  0  0  0  0  0  0  0  0  0
   50.0116   34.7816   43.7209 H   0  0  0  0  0  0  0  0  0  0  0  0
   50.9106   34.2861   42.2468 H   0  0  0  0  0  0  0  0  0  0  0  0
   49.9540   35.8065   42.2468 H   0  0  0  0  0  0  0  0  0  0  0  0
   48.4549   33.9558   44.2769 H   0  0  0  0  0  0  0  0  0  0  0  0
   47.0875   34.6205   43.3203 H   0  0  0  0  0  0  0  0  0  0  0  0
   47.4081   32.8530   43.3203 H   0  0  0  0  0  0  0  0  0  0  0  0
  1 17  1  0
  2  1  1  0
  2  6  1  0
  3  2  2  0
  4  3  1  0
  4  5  2  0
  5  7  1  0
  5  6  1  0
  7  8  2  0
  8  9  1  0
 10  9  2  0
 11 10  1  0
 12 11  2  0
 13 12  1  0
 14 13  2  0
 14 15  1  0
 15 16  2  0
 16 11  1  0
 16  7  1  0
 17 24  1  0
 17 25  1  0
 18 17  1  0
 18 19  2  0
 20 19  1  0
 21 20  2  0
 22 23  2  0
 22 21  1  0
 23 18  1  0
  1 26  1  0
  1 27  1  0
  3 28  1  0
  4 29  1  0
  9 30  1  0
 12 31  1  0
 13 32  1  0
 14 33  1  0
 15 34  1  0
 19 35  1  0
 20 36  1  0
 22 37  1  0
 24 38  1  0
 24 39  1  0
 24 40  1  0
 25 41  1  0
 25 42  1  0
 25 43  1  0
M  ISO  8  26   8  27   8  28  14  29  14  30  14  31  14  32  14  33  14
M  ISO  8  34  14  35  14  36  14  37  14  38   8  39   8  40   8  41   8
M  ISO  2  42   8  43   8
M  END
>  <minimizedAffinity>  (1) 
-5.61127901

>  <minimizedRMSD>  (1) 
9.02018833

$$$$
