
     RDKit          3D

 42 44  0  0  0  0  0  0  0  0999 V2000
   45.4520   33.8900   41.6250 C   0  0  0  0  0  0  0  0  0  0  0  0
   45.2010   34.4230   43.0130 C   0  0  0  0  0  0  0  0  0  0  0  0
   45.5310   33.5450   44.0430 C   0  0  0  0  0  0  0  0  0  0  0  0
   45.3180   33.9930   45.3740 C   0  0  0  0  0  0  0  0  0  0  0  0
   44.8080   35.2400   45.5610 N   0  0  0  0  0  0  0  0  0  0  0  0
   44.5000   36.0610   44.5290 C   0  0  0  0  0  0  0  0  0  0  0  0
   44.6970   35.6520   43.2720 N   0  0  0  0  0  0  0  0  0  0  0  0
   44.2550   34.0150   40.7610 C   0  0  0  0  0  0  0  0  0  0  0  0
   45.7940   32.4030   41.6830 C   0  0  0  0  0  0  0  0  0  0  0  0
   46.6120   34.6200   41.0690 C   0  0  0  0  0  0  0  0  0  0  0  0
   47.9250   34.2210   41.4950 C   0  0  0  0  0  0  0  0  0  0  0  0
   48.8180   34.6420   42.5080 C   0  0  0  0  0  0  0  0  0  0  0  0
   49.9990   34.0480   42.6440 C   0  0  0  0  0  0  0  0  0  0  0  0
   50.4000   32.9800   41.7860 C   0  0  0  0  0  0  0  0  0  0  0  0
   48.8750   32.8660   40.6910 S   0  0  0  0  0  0  0  0  0  0  0  0
   51.4430   32.1200   41.5570 C   0  0  0  0  0  0  0  0  0  0  0  0
   51.3650   30.8830   42.4030 C   0  0  0  0  0  0  0  0  0  0  0  0
   52.3090   29.9220   41.6980 C   0  0  0  0  0  0  0  0  0  0  0  0
   52.5470   30.4840   40.3090 C   0  0  0  0  0  0  0  0  0  0  0  0
   51.4530   31.5460   40.1460 C   0  0  0  0  0  0  0  0  0  0  0  0
   45.9399   32.5454   43.8341 H   0  0  0  0  0  0  0  0  0  0  0  0
   45.5593   33.3479   46.2317 H   0  0  0  0  0  0  0  0  0  0  0  0
   44.0886   37.0622   44.7249 H   0  0  0  0  0  0  0  0  0  0  0  0
   43.3572   34.1088   41.3896 H   0  0  0  0  0  0  0  0  0  0  0  0
   44.3528   34.9078   40.1259 H   0  0  0  0  0  0  0  0  0  0  0  0
   44.1662   33.1212   40.1259 H   0  0  0  0  0  0  0  0  0  0  0  0
   45.8673   32.0843   42.7333 H   0  0  0  0  0  0  0  0  0  0  0  0
   45.0052   31.8254   41.1788 H   0  0  0  0  0  0  0  0  0  0  0  0
   46.7558   32.2280   41.1788 H   0  0  0  0  0  0  0  0  0  0  0  0
   46.4896   35.6804   41.3347 H   0  0  0  0  0  0  0  0  0  0  0  0
   46.5905   34.3930   39.9929 H   0  0  0  0  0  0  0  0  0  0  0  0
   48.5345   35.4621   43.1841 H   0  0  0  0  0  0  0  0  0  0  0  0
   50.6831   34.3871   43.4358 H   0  0  0  0  0  0  0  0  0  0  0  0
   52.3221   32.7458   41.7702 H   0  0  0  0  0  0  0  0  0  0  0  0
   51.7024   31.0854   43.4302 H   0  0  0  0  0  0  0  0  0  0  0  0
   50.3422   30.4902   42.5007 H   0  0  0  0  0  0  0  0  0  0  0  0
   53.2597   29.8534   42.2471 H   0  0  0  0  0  0  0  0  0  0  0  0
   51.8786   28.9110   41.6471 H   0  0  0  0  0  0  0  0  0  0  0  0
   53.5464   30.9379   40.2368 H   0  0  0  0  0  0  0  0  0  0  0  0
   52.5068   29.7113   39.5271 H   0  0  0  0  0  0  0  0  0  0  0  0
   51.7260   32.3040   39.3971 H   0  0  0  0  0  0  0  0  0  0  0  0
   50.4839   31.1672   39.7891 H   0  0  0  0  0  0  0  0  0  0  0  0
  1  9  1  0
  1  2  1  0
  2  7  1  0
  2  3  2  0
  3  4  1  0
  4  5  2  0
  6  5  1  0
  7  6  2  0
  8  1  1  0
 10 11  1  0
 10  1  1  0
 11 12  2  0
 12 13  1  0
 14 13  2  0
 15 11  1  0
 15 14  1  0
 16 14  1  0
 16 17  1  0
 18 17  1  0
 19 18  1  0
 20 19  1  0
 20 16  1  0
  3 21  1  0
  4 22  1  0
  6 23  1  0
  8 24  1  0
  8 25  1  0
  8 26  1  0
  9 27  1  0
  9 28  1  0
  9 29  1  0
 10 30  1  0
 10 31  1  0
 12 32  1  0
 13 33  1  0
 16 34  1  0
 17 35  1  0
 17 36  1  0
 18 37  1  0
 18 38  1  0
 19 39  1  0
 19 40  1  0
 20 41  1  0
 20 42  1  0
M  ISO  8  21  14  22  14  23  14  24   8  25   8  26   8  27   8  28   8
M  ISO  8  29   8  30   8  31   8  32  14  33  14  34  13  35  13  36  13
M  ISO  6  37  13  38  13  39  13  40  13  41  13  42  13
M  END
>  <minimizedAffinity>  (1) 
-4.77096558

>  <minimizedRMSD>  (1) 
1.08505905

$$$$
