
     RDKit          3D

 32 33  0  0  0  0  0  0  0  0999 V2000
   45.6680   33.9120   41.7030 C   0  0  0  0  0  0  0  0  0  0  0  0
   45.3380   34.4260   43.0710 C   0  0  0  0  0  0  0  0  0  0  0  0
   45.6590   33.5570   44.1210 C   0  0  0  0  0  0  0  0  0  0  0  0
   45.3590   34.0100   45.4290 C   0  0  0  0  0  0  0  0  0  0  0  0
   44.7880   35.2400   45.5820 N   0  0  0  0  0  0  0  0  0  0  0  0
   44.4950   36.0490   44.5330 C   0  0  0  0  0  0  0  0  0  0  0  0
   44.7700   35.6380   43.2870 N   0  0  0  0  0  0  0  0  0  0  0  0
   44.5230   34.0440   40.7570 C   0  0  0  0  0  0  0  0  0  0  0  0
   46.0040   32.4190   41.7700 C   0  0  0  0  0  0  0  0  0  0  0  0
   46.8520   34.6410   41.2060 C   0  0  0  0  0  0  0  0  0  0  0  0
   48.1390   34.0800   41.4840 C   0  0  0  0  0  0  0  0  0  0  0  0
   49.1140   34.2580   42.4970 C   0  0  0  0  0  0  0  0  0  0  0  0
   50.2620   33.5640   42.4880 C   0  0  0  0  0  0  0  0  0  0  0  0
   50.5030   32.6300   41.4340 C   0  0  0  0  0  0  0  0  0  0  0  0
   48.9270   32.8050   40.4100 S   0  0  0  0  0  0  0  0  0  0  0  0
   51.5530   31.7930   41.1550 C   0  0  0  0  0  0  0  0  0  0  0  0
   46.1197   32.5747   43.9396 H   0  0  0  0  0  0  0  0  0  0  0  0
   45.5819   33.3825   46.3045 H   0  0  0  0  0  0  0  0  0  0  0  0
   44.0357   37.0339   44.7035 H   0  0  0  0  0  0  0  0  0  0  0  0
   43.5878   34.1518   41.3260 H   0  0  0  0  0  0  0  0  0  0  0  0
   44.6711   34.9310   40.1235 H   0  0  0  0  0  0  0  0  0  0  0  0
   44.4654   33.1465   40.1235 H   0  0  0  0  0  0  0  0  0  0  0  0
   46.0745   32.1059   42.8221 H   0  0  0  0  0  0  0  0  0  0  0  0
   45.2132   31.8423   41.2680 H   0  0  0  0  0  0  0  0  0  0  0  0
   46.9656   32.2367   41.2680 H   0  0  0  0  0  0  0  0  0  0  0  0
   46.8289   35.6476   41.6489 H   0  0  0  0  0  0  0  0  0  0  0  0
   46.7624   34.6065   40.1102 H   0  0  0  0  0  0  0  0  0  0  0  0
   48.9258   34.9790   43.3061 H   0  0  0  0  0  0  0  0  0  0  0  0
   51.0085   33.7122   43.2822 H   0  0  0  0  0  0  0  0  0  0  0  0
   51.9987   31.4377   42.0958 H   0  0  0  0  0  0  0  0  0  0  0  0
   51.1914   30.9327   40.5727 H   0  0  0  0  0  0  0  0  0  0  0  0
   52.3111   32.3373   40.5727 H   0  0  0  0  0  0  0  0  0  0  0  0
  1  9  1  0
  1  2  1  0
  2  7  1  0
  2  3  2  0
  3  4  1  0
  4  5  2  0
  6  5  1  0
  7  6  2  0
  8  1  1  0
 10 11  1  0
 10  1  1  0
 11 12  2  0
 13 12  1  0
 14 13  2  0
 15 14  1  0
 15 11  1  0
 16 14  1  0
  3 17  1  0
  4 18  1  0
  6 19  1  0
  8 20  1  0
  8 21  1  0
  8 22  1  0
  9 23  1  0
  9 24  1  0
  9 25  1  0
 10 26  1  0
 10 27  1  0
 12 28  1  0
 13 29  1  0
 16 30  1  0
 16 31  1  0
 16 32  1  0
M  ISO  8  17  14  18  14  19  14  20   8  21   8  22   8  23   8  24   8
M  ISO  8  25   8  26   8  27   8  28  14  29  14  30   8  31   8  32   8
M  END
>  <minimizedAffinity>  (1) 
-4.38393736

>  <minimizedRMSD>  (1) 
0.823757172

$$$$
