
     RDKit          3D

 39 40  0  0  0  0  0  0  0  0999 V2000
   43.8770   32.7410   39.3120 C   0  0  0  0  0  0  0  0  0  0  0  0
   45.0530   33.0180   40.0980 C   0  0  0  0  0  0  0  0  0  0  0  0
   45.5290   34.0990   40.8570 C   0  0  0  0  0  0  0  0  0  0  0  0
   46.6990   34.0310   41.4800 C   0  0  0  0  0  0  0  0  0  0  0  0
   47.4760   32.8500   41.3760 C   0  0  0  0  0  0  0  0  0  0  0  0
   46.3910   31.8120   40.2960 S   0  0  0  0  0  0  0  0  0  0  0  0
   48.6400   32.4110   41.8290 N   0  0  0  0  0  0  0  0  0  0  0  0
   49.8310   32.6210   41.1140 C   0  0  0  0  0  0  0  0  0  0  0  0
   49.7280   32.7640   39.8050 N   0  0  0  0  0  0  0  0  0  0  0  0
   51.1420   32.6870   41.7150 N   0  0  0  0  0  0  0  0  0  0  0  0
   50.5690   32.8950   39.2230 H   0  0  0  0  0  0  0  0  0  0  0  0
   47.3080   35.1020   42.3080 C   0  0  0  0  0  0  0  0  0  0  0  0
   47.8760   34.5970   43.4590 F   0  0  0  0  0  0  0  0  0  0  0  0
   48.2690   35.7730   41.6170 F   0  0  0  0  0  0  0  0  0  0  0  0
   46.2790   35.9860   42.5700 F   0  0  0  0  0  0  0  0  0  0  0  0
   42.5970   32.5480   40.0280 C   0  0  0  0  0  0  0  0  0  0  0  0
   41.8530   33.8320   40.0400 C   0  0  0  0  0  0  0  0  0  0  0  0
   41.6190   34.3500   41.2970 C   0  0  0  0  0  0  0  0  0  0  0  0
   40.9090   35.5800   41.3720 C   0  0  0  0  0  0  0  0  0  0  0  0
   40.5090   36.1660   40.2270 N   0  0  0  0  0  0  0  0  0  0  0  0
   40.7610   35.6200   39.0070 C   0  0  0  0  0  0  0  0  0  0  0  0
   41.4220   34.4770   38.9350 N   0  0  0  0  0  0  0  0  0  0  0  0
   41.8050   31.4540   39.3640 C   0  0  0  0  0  0  0  0  0  0  0  0
   42.9100   32.0500   41.4240 C   0  0  0  0  0  0  0  0  0  0  0  0
   44.0741   31.8226   38.7396 H   0  0  0  0  0  0  0  0  0  0  0  0
   43.7242   33.6509   38.7131 H   0  0  0  0  0  0  0  0  0  0  0  0
   44.9243   35.0144   40.9364 H   0  0  0  0  0  0  0  0  0  0  0  0
   48.6731   31.9044   42.7252 H   0  0  0  0  0  0  0  0  0  0  0  0
   51.9716   32.8442   41.1252 H   0  0  0  0  0  0  0  0  0  0  0  0
   51.2477   32.5769   42.7336 H   0  0  0  0  0  0  0  0  0  0  0  0
   41.9671   33.8332   42.2035 H   0  0  0  0  0  0  0  0  0  0  0  0
   40.6909   36.0435   42.3455 H   0  0  0  0  0  0  0  0  0  0  0  0
   40.4189   36.1235   38.0908 H   0  0  0  0  0  0  0  0  0  0  0  0
   41.3437   30.8168   40.1329 H   0  0  0  0  0  0  0  0  0  0  0  0
   41.0187   31.8995   38.7369 H   0  0  0  0  0  0  0  0  0  0  0  0
   42.4737   30.8461   38.7369 H   0  0  0  0  0  0  0  0  0  0  0  0
   42.4772   32.7386   42.1646 H   0  0  0  0  0  0  0  0  0  0  0  0
   42.4796   31.0469   41.5606 H   0  0  0  0  0  0  0  0  0  0  0  0
   44.0005   32.0028   41.5606 H   0  0  0  0  0  0  0  0  0  0  0  0
  1 16  1  0
  1  2  1  0
  2  6  1  0
  2  3  2  0
  3  4  1  0
  4 12  1  0
  5  4  2  0
  5  7  1  0
  6  5  1  0
  8 10  1  0
  8  7  1  0
  9  8  2  0
 11  9  1  0
 12 15  1  0
 12 13  1  0
 14 12  1  0
 16 17  1  0
 16 24  1  0
 17 18  2  0
 18 19  1  0
 20 19  2  0
 21 20  1  0
 22 21  2  0
 22 17  1  0
 23 16  1  0
  1 25  1  0
  1 26  1  0
  3 27  1  0
  7 28  1  0
 10 29  1  0
 10 30  1  0
 18 31  1  0
 19 32  1  0
 21 33  1  0
 23 34  1  0
 23 35  1  0
 23 36  1  0
 24 37  1  0
 24 38  1  0
 24 39  1  0
M  ISO  8  25   8  26   8  27  14  31  14  32  14  33  14  34   8  35   8
M  ISO  4  36   8  37   8  38   8  39   8
M  END
>  <minimizedAffinity>  (1) 
-5.16366625

>  <minimizedRMSD>  (1) 
4.46704006

$$$$
