
     RDKit          3D

 38 39  0  0  0  0  0  0  0  0999 V2000
   46.5730   34.2100   40.7240 C   0  0  0  0  0  0  0  0  0  0  0  0
   47.8850   33.7080   41.0440 C   0  0  0  0  0  0  0  0  0  0  0  0
   48.9600   34.1200   41.8590 C   0  0  0  0  0  0  0  0  0  0  0  0
   50.0690   33.4150   41.9420 C   0  0  0  0  0  0  0  0  0  0  0  0
   50.1970   32.2120   41.1980 C   0  0  0  0  0  0  0  0  0  0  0  0
   48.5570   32.1770   40.3530 S   0  0  0  0  0  0  0  0  0  0  0  0
   51.1080   31.2600   41.0170 N   0  0  0  0  0  0  0  0  0  0  0  0
   52.0880   31.3680   40.0000 C   0  0  0  0  0  0  0  0  0  0  0  0
   51.7780   32.0800   38.9580 N   0  0  0  0  0  0  0  0  0  0  0  0
   53.3800   30.7400   40.0680 N   0  0  0  0  0  0  0  0  0  0  0  0
   52.4670   32.2360   38.1920 H   0  0  0  0  0  0  0  0  0  0  0  0
   51.1990   33.7550   42.7360 N   0  0  0  0  0  0  0  0  0  0  0  0
   45.4200   33.5980   41.4210 C   0  0  0  0  0  0  0  0  0  0  0  0
   45.2200   34.3010   42.7150 C   0  0  0  0  0  0  0  0  0  0  0  0
   45.4720   33.5190   43.8300 C   0  0  0  0  0  0  0  0  0  0  0  0
   45.3060   34.1150   45.1040 C   0  0  0  0  0  0  0  0  0  0  0  0
   44.9080   35.4200   45.1550 N   0  0  0  0  0  0  0  0  0  0  0  0
   44.6690   36.1560   44.0350 C   0  0  0  0  0  0  0  0  0  0  0  0
   44.8310   35.5820   42.8470 N   0  0  0  0  0  0  0  0  0  0  0  0
   44.2000   33.6770   40.5460 C   0  0  0  0  0  0  0  0  0  0  0  0
   45.7090   32.1210   41.6020 C   0  0  0  0  0  0  0  0  0  0  0  0
   46.5657   35.2852   40.9560 H   0  0  0  0  0  0  0  0  0  0  0  0
   46.4265   33.9572   39.6635 H   0  0  0  0  0  0  0  0  0  0  0  0
   48.8699   35.0509   42.4381 H   0  0  0  0  0  0  0  0  0  0  0  0
   51.1007   30.4300   41.6268 H   0  0  0  0  0  0  0  0  0  0  0  0
   54.0505   30.8562   39.2948 H   0  0  0  0  0  0  0  0  0  0  0  0
   53.6349   30.1740   40.8899 H   0  0  0  0  0  0  0  0  0  0  0  0
   52.0277   33.1433   42.7411 H   0  0  0  0  0  0  0  0  0  0  0  0
   51.1886   34.6129   43.3059 H   0  0  0  0  0  0  0  0  0  0  0  0
   45.7902   32.4708   43.7295 H   0  0  0  0  0  0  0  0  0  0  0  0
   45.4922   33.5434   46.0252 H   0  0  0  0  0  0  0  0  0  0  0  0
   44.3480   37.2053   44.1116 H   0  0  0  0  0  0  0  0  0  0  0  0
   43.3001   33.7353   41.1759 H   0  0  0  0  0  0  0  0  0  0  0  0
   44.2617   34.5730   39.9109 H   0  0  0  0  0  0  0  0  0  0  0  0
   44.1456   32.7805   39.9109 H   0  0  0  0  0  0  0  0  0  0  0  0
   45.7551   31.8853   42.6755 H   0  0  0  0  0  0  0  0  0  0  0  0
   44.9094   31.5305   41.1309 H   0  0  0  0  0  0  0  0  0  0  0  0
   46.6722   31.8754   41.1309 H   0  0  0  0  0  0  0  0  0  0  0  0
  1  2  1  0
  1 13  1  0
  2  3  2  0
  3  4  1  0
  4 12  1  0
  5  4  2  0
  6  2  1  0
  6  5  1  0
  7  5  1  0
  8 10  1  0
  8  7  1  0
  9  8  2  0
 11  9  1  0
 13 21  1  0
 13 14  1  0
 14 19  1  0
 14 15  2  0
 15 16  1  0
 16 17  2  0
 18 17  1  0
 19 18  2  0
 20 13  1  0
  1 22  1  0
  1 23  1  0
  3 24  1  0
  7 25  1  0
 10 26  1  0
 10 27  1  0
 12 28  1  0
 12 29  1  0
 15 30  1  0
 16 31  1  0
 18 32  1  0
 20 33  1  0
 20 34  1  0
 20 35  1  0
 21 36  1  0
 21 37  1  0
 21 38  1  0
M  ISO  8  22   8  23   8  24  14  30  14  31  14  32  14  33   8  34   8
M  ISO  4  35   8  36   8  37   8  38   8
M  END
>  <minimizedAffinity>  (1) 
-4.98181915

>  <minimizedRMSD>  (1) 
0.631975591

$$$$
