
     RDKit          3D

 28 29  0  0  0  0  0  0  0  0999 V2000
   45.6730   34.5540   41.9180 C   0  0  0  0  0  0  0  0  0  0  0  0
   46.9500   34.9140   42.3320 C   0  0  0  0  0  0  0  0  0  0  0  0
   48.0280   34.7610   41.4280 C   0  0  0  0  0  0  0  0  0  0  0  0
   47.7350   34.2600   40.1850 N   0  0  0  0  0  0  0  0  0  0  0  0
   46.4640   33.9250   39.8370 C   0  0  0  0  0  0  0  0  0  0  0  0
   45.4730   34.0790   40.7060 N   0  0  0  0  0  0  0  0  0  0  0  0
   46.1490   33.3920   38.5130 C   0  0  0  0  0  0  0  0  0  0  0  0
   44.9860   32.9620   37.9440 N   0  0  0  0  0  0  0  0  0  0  0  0
   45.2300   32.5750   36.7250 O   0  0  0  0  0  0  0  0  0  0  0  0
   46.5000   32.7220   36.4430 C   0  0  0  0  0  0  0  0  0  0  0  0
   47.1210   33.2390   37.5540 N   0  0  0  0  0  0  0  0  0  0  0  0
   47.1440   32.4110   35.2160 N   0  0  0  0  0  0  0  0  0  0  0  0
   46.3240   32.1950   34.0730 C   0  0  0  0  0  0  0  0  0  0  0  0
   45.1320   32.6840   34.0060 N   0  0  0  0  0  0  0  0  0  0  0  0
   46.8300   31.4240   32.9820 N   0  0  0  0  0  0  0  0  0  0  0  0
   44.5250   32.5300   33.1710 H   0  0  0  0  0  0  0  0  0  0  0  0
   44.6040   34.7240   42.8700 C   0  0  0  0  0  0  0  0  0  0  0  0
   43.6010   35.4600   42.5480 O   0  0  0  0  0  0  0  0  0  0  0  0
   44.6770   34.0900   44.1180 O   0  0  0  0  0  0  0  0  0  0  0  0
   45.1080   34.8300   45.2180 C   0  0  0  0  0  0  0  0  0  0  0  0
   44.2250   34.6880   46.3010 F   0  0  0  0  0  0  0  0  0  0  0  0
   46.3460   34.3920   45.6260 F   0  0  0  0  0  0  0  0  0  0  0  0
   45.1310   36.1530   44.8320 F   0  0  0  0  0  0  0  0  0  0  0  0
   47.1197   35.3106   43.3439 H   0  0  0  0  0  0  0  0  0  0  0  0
   49.0562   35.0320   41.7098 H   0  0  0  0  0  0  0  0  0  0  0  0
   48.1700   32.3440   35.1554 H   0  0  0  0  0  0  0  0  0  0  0  0
   46.2442   31.2621   32.1504 H   0  0  0  0  0  0  0  0  0  0  0  0
   47.7806   31.0300   33.0270 H   0  0  0  0  0  0  0  0  0  0  0  0
  1  2  2  0
  1 17  1  0
  3  2  1  0
  4  3  2  0
  5  4  1  0
  5  6  2  0
  6  1  1  0
  7  5  1  0
  8  7  2  0
  9  8  1  0
 10  9  1  0
 10 11  2  0
 11  7  1  0
 12 10  1  0
 13 12  1  0
 14 13  2  0
 15 13  1  0
 16 14  1  0
 17 19  1  0
 18 17  2  0
 19 20  1  0
 20 22  1  0
 20 21  1  0
 23 20  1  0
  2 24  1  0
  3 25  1  0
 12 26  1  0
 15 27  1  0
 15 28  1  0
M  ISO  2  24  14  25  14
M  END
>  <minimizedAffinity>  (1) 
-5.7228446

>  <minimizedRMSD>  (1) 
1.39234626

$$$$
