
     RDKit          3D

 28 30  0  0  0  0  0  0  0  0999 V2000
   46.1030   34.3310   41.5780 C   0  0  0  0  0  0  0  0  0  0  0  0
   47.2670   35.0160   41.9050 C   0  0  0  0  0  0  0  0  0  0  0  0
   48.3290   35.0330   40.9730 C   0  0  0  0  0  0  0  0  0  0  0  0
   48.1380   34.3610   39.7910 N   0  0  0  0  0  0  0  0  0  0  0  0
   46.9810   33.7080   39.5260 C   0  0  0  0  0  0  0  0  0  0  0  0
   45.9930   33.7060   40.4200 N   0  0  0  0  0  0  0  0  0  0  0  0
   46.7710   32.9900   38.2680 C   0  0  0  0  0  0  0  0  0  0  0  0
   45.8660   32.0570   37.8840 N   0  0  0  0  0  0  0  0  0  0  0  0
   46.0860   31.7180   36.6520 O   0  0  0  0  0  0  0  0  0  0  0  0
   47.1240   32.3940   36.1740 C   0  0  0  0  0  0  0  0  0  0  0  0
   47.5560   33.1930   37.1810 N   0  0  0  0  0  0  0  0  0  0  0  0
   47.7710   32.4020   34.9060 N   0  0  0  0  0  0  0  0  0  0  0  0
   48.9960   32.8200   34.6290 N   0  0  0  0  0  0  0  0  0  0  0  0
   49.2650   32.6750   33.3260 C   0  0  0  0  0  0  0  0  0  0  0  0
   48.1510   32.1340   32.7350 C   0  0  0  0  0  0  0  0  0  0  0  0
   47.2200   31.9700   33.7420 C   0  0  0  0  0  0  0  0  0  0  0  0
   45.0410   34.3330   42.5510 C   0  0  0  0  0  0  0  0  0  0  0  0
   43.8710   33.9390   42.1910 O   0  0  0  0  0  0  0  0  0  0  0  0
   45.3000   34.7610   43.8600 O   0  0  0  0  0  0  0  0  0  0  0  0
   44.5940   35.8600   44.3570 C   0  0  0  0  0  0  0  0  0  0  0  0
   43.2480   35.8310   43.9780 F   0  0  0  0  0  0  0  0  0  0  0  0
   44.6450   35.8580   45.7330 F   0  0  0  0  0  0  0  0  0  0  0  0
   45.1810   36.9880   43.8240 F   0  0  0  0  0  0  0  0  0  0  0  0
   47.3599   35.5349   42.8705 H   0  0  0  0  0  0  0  0  0  0  0  0
   49.2695   35.5625   41.1856 H   0  0  0  0  0  0  0  0  0  0  0  0
   50.2058   32.9406   32.8217 H   0  0  0  0  0  0  0  0  0  0  0  0
   48.0247   31.8814   31.6719 H   0  0  0  0  0  0  0  0  0  0  0  0
   46.2064   31.5600   33.6220 H   0  0  0  0  0  0  0  0  0  0  0  0
  1  2  2  0
  1 17  1  0
  3  2  1  0
  4  3  2  0
  5  4  1  0
  5  6  2  0
  6  1  1  0
  7  5  1  0
  8  7  2  0
  9  8  1  0
 10  9  1  0
 10 11  2  0
 11  7  1  0
 12 10  1  0
 13 12  1  0
 14 13  2  0
 15 14  1  0
 15 16  2  0
 16 12  1  0
 17 19  1  0
 18 17  2  0
 19 20  1  0
 20 22  1  0
 21 20  1  0
 23 20  1  0
  2 24  1  0
  3 25  1  0
 14 26  1  0
 15 27  1  0
 16 28  1  0
M  ISO  5  24  14  25  14  26  14  27  14  28  14
M  END
>  <minimizedAffinity>  (1) 
-5.43265629

>  <minimizedRMSD>  (1) 
2.19061351

$$$$
