
     RDKit          3D

 34 36  0  0  0  0  0  0  0  0999 V2000
   48.3620   33.7790   40.4420 C   0  0  0  0  0  0  0  0  0  0  0  0
   49.2920   32.9540   41.0620 C   0  0  0  0  0  0  0  0  0  0  0  0
   49.9020   31.9240   40.3070 C   0  0  0  0  0  0  0  0  0  0  0  0
   49.5270   31.8080   38.9930 N   0  0  0  0  0  0  0  0  0  0  0  0
   48.6110   32.6430   38.4390 C   0  0  0  0  0  0  0  0  0  0  0  0
   48.0570   33.6000   39.1740 N   0  0  0  0  0  0  0  0  0  0  0  0
   48.2090   32.5230   37.0370 C   0  0  0  0  0  0  0  0  0  0  0  0
   46.9890   32.5090   36.4260 N   0  0  0  0  0  0  0  0  0  0  0  0
   47.1540   32.3800   35.1450 O   0  0  0  0  0  0  0  0  0  0  0  0
   48.4470   32.3030   34.8520 C   0  0  0  0  0  0  0  0  0  0  0  0
   49.1300   32.3910   36.0360 N   0  0  0  0  0  0  0  0  0  0  0  0
   49.0530   32.1560   33.5690 N   0  0  0  0  0  0  0  0  0  0  0  0
   49.1080   33.3080   32.6540 C   0  0  0  0  0  0  0  0  0  0  0  0
   49.0480   32.7780   31.2600 C   0  0  0  0  0  0  0  0  0  0  0  0
   49.9750   31.7680   31.0180 O   0  0  0  0  0  0  0  0  0  0  0  0
   49.7100   30.6240   31.7590 C   0  0  0  0  0  0  0  0  0  0  0  0
   49.5930   30.8460   33.2320 C   0  0  0  0  0  0  0  0  0  0  0  0
   47.7640   34.8130   41.2450 C   0  0  0  0  0  0  0  0  0  0  0  0
   48.5030   35.7730   41.6750 O   0  0  0  0  0  0  0  0  0  0  0  0
   46.3940   34.7570   41.5420 O   0  0  0  0  0  0  0  0  0  0  0  0
   45.9790   34.9260   42.8610 C   0  0  0  0  0  0  0  0  0  0  0  0
   45.7740   36.2710   43.1720 F   0  0  0  0  0  0  0  0  0  0  0  0
   44.8060   34.2510   43.0820 F   0  0  0  0  0  0  0  0  0  0  0  0
   47.0050   34.4300   43.6630 F   0  0  0  0  0  0  0  0  0  0  0  0
   49.5498   33.0988   42.1215 H   0  0  0  0  0  0  0  0  0  0  0  0
   50.6441   31.2464   40.7544 H   0  0  0  0  0  0  0  0  0  0  0  0
   48.2535   33.9755   32.8390 H   0  0  0  0  0  0  0  0  0  0  0  0
   50.0329   33.8826   32.8102 H   0  0  0  0  0  0  0  0  0  0  0  0
   48.0393   32.3772   31.0812 H   0  0  0  0  0  0  0  0  0  0  0  0
   49.2871   33.6110   30.5825 H   0  0  0  0  0  0  0  0  0  0  0  0
   48.7621   30.1960   31.4009 H   0  0  0  0  0  0  0  0  0  0  0  0
   50.5703   29.9541   31.6137 H   0  0  0  0  0  0  0  0  0  0  0  0
   48.9297   30.0750   33.6511 H   0  0  0  0  0  0  0  0  0  0  0  0
   50.6069   30.7894   33.6548 H   0  0  0  0  0  0  0  0  0  0  0  0
  1  2  2  0
  1 18  1  0
  3  2  1  0
  4  3  2  0
  5  4  1  0
  5  6  2  0
  6  1  1  0
  7  5  1  0
  8  7  2  0
  9  8  1  0
 10  9  1  0
 10 11  2  0
 11  7  1  0
 12 10  1  0
 13 12  1  0
 14 13  1  0
 15 14  1  0
 15 16  1  0
 16 17  1  0
 17 12  1  0
 18 20  1  0
 18 19  2  0
 20 21  1  0
 21 23  1  0
 21 22  1  0
 21 24  1  0
  2 25  1  0
  3 26  1  0
 13 27  1  0
 13 28  1  0
 14 29  1  0
 14 30  1  0
 16 31  1  0
 16 32  1  0
 17 33  1  0
 17 34  1  0
M  ISO  8  25  14  26  14  27  13  28  13  29  13  30  13  31  13  32  13
M  ISO  2  33  13  34  13
M  END
>  <minimizedAffinity>  (1) 
-5.40658236

>  <minimizedRMSD>  (1) 
3.61395001

$$$$
