
     RDKit          3D

 34 36  0  0  0  0  0  0  0  0999 V2000
   45.1980   33.6650   41.8410 C   0  0  0  0  0  0  0  0  0  0  0  0
   46.2360   34.3960   41.2890 C   0  0  0  0  0  0  0  0  0  0  0  0
   47.3340   34.7520   42.1070 C   0  0  0  0  0  0  0  0  0  0  0  0
   47.2940   34.3390   43.4160 N   0  0  0  0  0  0  0  0  0  0  0  0
   46.2540   33.6260   43.9010 C   0  0  0  0  0  0  0  0  0  0  0  0
   45.2380   33.3080   43.1090 N   0  0  0  0  0  0  0  0  0  0  0  0
   46.2000   33.1800   45.2970 C   0  0  0  0  0  0  0  0  0  0  0  0
   45.3980   33.5700   46.3450 N   0  0  0  0  0  0  0  0  0  0  0  0
   45.7300   32.8780   47.3970 O   0  0  0  0  0  0  0  0  0  0  0  0
   46.7160   32.0450   47.1090 C   0  0  0  0  0  0  0  0  0  0  0  0
   47.0220   32.2240   45.7880 N   0  0  0  0  0  0  0  0  0  0  0  0
   47.3770   31.0960   48.0100 C   0  0  0  0  0  0  0  0  0  0  0  0
   48.4220   31.7170   48.8730 C   0  0  0  0  0  0  0  0  0  0  0  0
   49.1550   30.4850   49.4200 C   0  0  0  0  0  0  0  0  0  0  0  0
   48.9450   29.3910   48.3750 C   0  0  0  0  0  0  0  0  0  0  0  0
   48.2100   30.0670   47.2410 C   0  0  0  0  0  0  0  0  0  0  0  0
   44.0980   33.3220   40.9740 C   0  0  0  0  0  0  0  0  0  0  0  0
   44.3410   32.7000   39.8770 O   0  0  0  0  0  0  0  0  0  0  0  0
   42.7910   33.6670   41.3360 O   0  0  0  0  0  0  0  0  0  0  0  0
   42.4200   35.0190   41.2940 C   0  0  0  0  0  0  0  0  0  0  0  0
   41.0340   35.1540   41.1190 F   0  0  0  0  0  0  0  0  0  0  0  0
   42.7570   35.6310   42.4720 F   0  0  0  0  0  0  0  0  0  0  0  0
   43.0610   35.5730   40.2120 F   0  0  0  0  0  0  0  0  0  0  0  0
   46.2075   34.6954   40.2309 H   0  0  0  0  0  0  0  0  0  0  0  0
   48.1808   35.3329   41.7126 H   0  0  0  0  0  0  0  0  0  0  0  0
   46.5339   30.6801   48.5811 H   0  0  0  0  0  0  0  0  0  0  0  0
   49.0976   32.3564   48.2858 H   0  0  0  0  0  0  0  0  0  0  0  0
   48.0179   32.3769   49.6548 H   0  0  0  0  0  0  0  0  0  0  0  0
   50.2270   30.6984   49.5437 H   0  0  0  0  0  0  0  0  0  0  0  0
   48.7728   30.1864   50.4073 H   0  0  0  0  0  0  0  0  0  0  0  0
   49.9118   28.9971   48.0284 H   0  0  0  0  0  0  0  0  0  0  0  0
   48.3828   28.5365   48.7796 H   0  0  0  0  0  0  0  0  0  0  0  0
   47.5720   29.3581   46.6929 H   0  0  0  0  0  0  0  0  0  0  0  0
   48.8635   30.4971   46.4678 H   0  0  0  0  0  0  0  0  0  0  0  0
  1  6  2  0
  2  1  1  0
  2  3  2  0
  3  4  1  0
  4  5  2  0
  5  7  1  0
  6  5  1  0
  7 11  1  0
  7  8  2  0
  8  9  1  0
 10  9  1  0
 10 12  1  0
 11 10  2  0
 12 13  1  0
 13 14  1  0
 15 14  1  0
 16 12  1  0
 16 15  1  0
 17 19  1  0
 17  1  1  0
 18 17  2  0
 20 19  1  0
 20 22  1  0
 21 20  1  0
 23 20  1  0
  2 24  1  0
  3 25  1  0
 12 26  1  0
 13 27  1  0
 13 28  1  0
 14 29  1  0
 14 30  1  0
 15 31  1  0
 15 32  1  0
 16 33  1  0
 16 34  1  0
M  ISO  8  24  14  25  14  26  13  27  13  28  13  29  13  30  13  31  13
M  ISO  3  32  13  33  13  34  13
M  END
>  <minimizedAffinity>  (1) 
-5.06577349

>  <minimizedRMSD>  (1) 
8.96343231

$$$$
