
     RDKit          3D

 28 30  0  0  0  0  0  0  0  0999 V2000
   45.9880   34.6350   41.4280 C   0  0  0  0  0  0  0  0  0  0  0  0
   47.1740   35.1930   41.8900 C   0  0  0  0  0  0  0  0  0  0  0  0
   48.3720   34.9450   41.1780 C   0  0  0  0  0  0  0  0  0  0  0  0
   48.2760   34.1560   40.0580 N   0  0  0  0  0  0  0  0  0  0  0  0
   47.0880   33.6390   39.6530 C   0  0  0  0  0  0  0  0  0  0  0  0
   45.9750   33.8900   40.3460 N   0  0  0  0  0  0  0  0  0  0  0  0
   46.9810   32.7980   38.4610 C   0  0  0  0  0  0  0  0  0  0  0  0
   46.4420   31.5660   38.2500 N   0  0  0  0  0  0  0  0  0  0  0  0
   46.5910   31.2320   37.0090 O   0  0  0  0  0  0  0  0  0  0  0  0
   47.2200   32.1990   36.3510 C   0  0  0  0  0  0  0  0  0  0  0  0
   47.4670   33.1840   37.2590 N   0  0  0  0  0  0  0  0  0  0  0  0
   47.6300   32.3290   34.9560 C   0  0  0  0  0  0  0  0  0  0  0  0
   48.8470   32.6990   34.4150 C   0  0  0  0  0  0  0  0  0  0  0  0
   48.7070   32.6620   33.0400 C   0  0  0  0  0  0  0  0  0  0  0  0
   47.4350   32.2790   32.7760 N   0  0  0  0  0  0  0  0  0  0  0  0
   46.8110   32.0860   33.9090 N   0  0  0  0  0  0  0  0  0  0  0  0
   44.7960   34.9160   42.1870 C   0  0  0  0  0  0  0  0  0  0  0  0
   43.9030   35.6830   41.6730 O   0  0  0  0  0  0  0  0  0  0  0  0
   44.6320   34.3510   43.4620 O   0  0  0  0  0  0  0  0  0  0  0  0
   45.1090   35.0540   44.5680 C   0  0  0  0  0  0  0  0  0  0  0  0
   44.2390   34.9730   45.6540 F   0  0  0  0  0  0  0  0  0  0  0  0
   46.3330   34.5480   44.9510 F   0  0  0  0  0  0  0  0  0  0  0  0
   45.2080   36.3780   44.1950 F   0  0  0  0  0  0  0  0  0  0  0  0
   47.1816   35.8179   42.7952 H   0  0  0  0  0  0  0  0  0  0  0  0
   49.3345   35.3644   41.5063 H   0  0  0  0  0  0  0  0  0  0  0  0
   49.7551   32.9714   34.9729 H   0  0  0  0  0  0  0  0  0  0  0  0
   49.4840   32.8994   32.2985 H   0  0  0  0  0  0  0  0  0  0  0  0
   47.0266   32.1595   31.8380 H   0  0  0  0  0  0  0  0  0  0  0  0
  1  2  2  0
  1 17  1  0
  3  2  1  0
  4  3  2  0
  5  4  1  0
  5  6  2  0
  6  1  1  0
  7  5  1  0
  8  7  2  0
  9  8  1  0
 10  9  1  0
 10 11  2  0
 11  7  1  0
 12 10  1  0
 13 12  1  0
 14 13  2  0
 15 14  1  0
 15 16  1  0
 16 12  2  0
 17 19  1  0
 18 17  2  0
 19 20  1  0
 20 22  1  0
 20 21  1  0
 23 20  1  0
  2 24  1  0
  3 25  1  0
 13 26  1  0
 14 27  1  0
 15 28  1  0
M  ISO  5  24  14  25  14  26  14  27  14  28   9
M  END
>  <minimizedAffinity>  (1) 
-5.05557585

>  <minimizedRMSD>  (1) 
1.85869145

$$$$
