
     RDKit          3D

 27 29  0  0  0  0  0  0  0  0999 V2000
   46.4390   34.5210   41.4800 C   0  0  0  0  0  0  0  0  0  0  0  0
   47.5520   35.1500   42.0210 C   0  0  0  0  0  0  0  0  0  0  0  0
   48.8210   34.8820   41.4600 C   0  0  0  0  0  0  0  0  0  0  0  0
   48.8770   34.0060   40.4050 N   0  0  0  0  0  0  0  0  0  0  0  0
   47.7740   33.4260   39.9200 C   0  0  0  0  0  0  0  0  0  0  0  0
   46.5710   33.6870   40.4620 N   0  0  0  0  0  0  0  0  0  0  0  0
   47.8110   32.4860   38.7920 C   0  0  0  0  0  0  0  0  0  0  0  0
   47.8230   31.1270   38.7320 N   0  0  0  0  0  0  0  0  0  0  0  0
   47.8570   30.7700   37.4730 O   0  0  0  0  0  0  0  0  0  0  0  0
   47.8660   31.8280   36.6830 C   0  0  0  0  0  0  0  0  0  0  0  0
   47.8370   32.9050   37.5040 N   0  0  0  0  0  0  0  0  0  0  0  0
   47.9010   31.8010   35.2030 C   0  0  0  0  0  0  0  0  0  0  0  0
   48.7280   32.7450   34.5420 C   0  0  0  0  0  0  0  0  0  0  0  0
   48.3980   32.2740   32.7770 S   0  0  0  0  0  0  0  0  0  0  0  0
   47.2010   30.8870   33.2890 C   0  0  0  0  0  0  0  0  0  0  0  0
   47.2080   30.9490   34.4540 N   0  0  0  0  0  0  0  0  0  0  0  0
   45.1580   34.8110   42.0720 C   0  0  0  0  0  0  0  0  0  0  0  0
   44.2010   35.1940   41.3050 O   0  0  0  0  0  0  0  0  0  0  0  0
   44.9960   34.6670   43.4600 O   0  0  0  0  0  0  0  0  0  0  0  0
   44.5330   35.7590   44.1900 C   0  0  0  0  0  0  0  0  0  0  0  0
   43.1570   35.9400   44.0550 F   0  0  0  0  0  0  0  0  0  0  0  0
   44.8160   35.5720   45.5340 F   0  0  0  0  0  0  0  0  0  0  0  0
   45.1740   36.8780   43.6990 F   0  0  0  0  0  0  0  0  0  0  0  0
   47.4482   35.8429   42.8690 H   0  0  0  0  0  0  0  0  0  0  0  0
   49.7308   35.3581   41.8545 H   0  0  0  0  0  0  0  0  0  0  0  0
   49.3778   33.5301   34.9560 H   0  0  0  0  0  0  0  0  0  0  0  0
   46.6393   30.1953   32.6440 H   0  0  0  0  0  0  0  0  0  0  0  0
  1  2  2  0
  1 17  1  0
  3  2  1  0
  4  3  2  0
  5  4  1  0
  5  6  2  0
  6  1  1  0
  7  5  1  0
  8  7  2  0
  9  8  1  0
 10  9  1  0
 10 11  2  0
 11  7  1  0
 12 10  1  0
 13 12  2  0
 14 15  1  0
 14 13  1  0
 15 16  2  0
 16 12  1  0
 17 19  1  0
 18 17  2  0
 19 20  1  0
 20 22  1  0
 21 20  1  0
 23 20  1  0
  2 24  1  0
  3 25  1  0
 13 26  1  0
 15 27  1  0
M  ISO  4  24  14  25  14  26  14  27  14
M  END
>  <minimizedAffinity>  (1) 
-4.6265254

>  <minimizedRMSD>  (1) 
2.14405537

$$$$
