
     RDKit          3D

 22 23  0  0  0  0  0  0  0  0999 V2000
   45.8520   34.4380   41.1420 C   0  0  0  0  0  0  0  0  0  0  0  0
   47.1190   34.7730   41.5690 C   0  0  0  0  0  0  0  0  0  0  0  0
   48.2310   34.4470   40.7610 C   0  0  0  0  0  0  0  0  0  0  0  0
   47.9660   33.8050   39.5770 N   0  0  0  0  0  0  0  0  0  0  0  0
   46.7040   33.4970   39.2010 C   0  0  0  0  0  0  0  0  0  0  0  0
   45.6670   33.8180   39.9870 N   0  0  0  0  0  0  0  0  0  0  0  0
   46.4150   32.8130   37.9430 C   0  0  0  0  0  0  0  0  0  0  0  0
   46.7520   31.5610   37.4940 N   0  0  0  0  0  0  0  0  0  0  0  0
   46.2560   31.4140   36.2920 O   0  0  0  0  0  0  0  0  0  0  0  0
   45.6130   32.4900   35.9190 C   0  0  0  0  0  0  0  0  0  0  0  0
   45.6980   33.3890   36.9430 N   0  0  0  0  0  0  0  0  0  0  0  0
   44.9670   32.6930   34.7240 O   0  0  0  0  0  0  0  0  0  0  0  0
   44.7410   34.7860   41.9940 C   0  0  0  0  0  0  0  0  0  0  0  0
   43.8550   35.6050   41.5550 O   0  0  0  0  0  0  0  0  0  0  0  0
   44.6560   34.2250   43.2740 O   0  0  0  0  0  0  0  0  0  0  0  0
   45.1730   34.9410   44.3510 C   0  0  0  0  0  0  0  0  0  0  0  0
   44.2930   34.9670   45.4310 F   0  0  0  0  0  0  0  0  0  0  0  0
   46.3510   34.3690   44.7750 F   0  0  0  0  0  0  0  0  0  0  0  0
   45.3690   36.2400   43.9160 F   0  0  0  0  0  0  0  0  0  0  0  0
   47.2629   35.2892   42.5296 H   0  0  0  0  0  0  0  0  0  0  0  0
   49.2584   34.6953   41.0656 H   0  0  0  0  0  0  0  0  0  0  0  0
   44.5100   33.5534   34.5483 H   0  0  0  0  0  0  0  0  0  0  0  0
  1  2  2  0
  1 13  1  0
  3  2  1  0
  4  3  2  0
  5  4  1  0
  5  6  2  0
  6  1  1  0
  7  5  1  0
  8  7  2  0
  9  8  1  0
 10  9  1  0
 10 11  2  0
 11  7  1  0
 12 10  1  0
 13 15  1  0
 14 13  2  0
 15 16  1  0
 16 18  1  0
 16 17  1  0
 19 16  1  0
  2 20  1  0
  3 21  1  0
 12 22  1  0
M  ISO  3  20  14  21  14  22   3
M  END
>  <minimizedAffinity>  (1) 
-4.58959961

>  <minimizedRMSD>  (1) 
0.0883929059

$$$$
