
     RDKit          3D

 33 34  0  0  0  0  0  0  0  0999 V2000
   46.0970   34.3590   41.0750 C   0  0  0  0  0  0  0  0  0  0  0  0
   47.2950   34.9200   41.4950 C   0  0  0  0  0  0  0  0  0  0  0  0
   48.4890   34.5730   40.8190 C   0  0  0  0  0  0  0  0  0  0  0  0
   48.3770   33.6890   39.7730 N   0  0  0  0  0  0  0  0  0  0  0  0
   47.1770   33.1740   39.4060 C   0  0  0  0  0  0  0  0  0  0  0  0
   46.0790   33.5230   40.0640 N   0  0  0  0  0  0  0  0  0  0  0  0
   47.0490   32.2320   38.2930 C   0  0  0  0  0  0  0  0  0  0  0  0
   47.0540   30.8670   38.2370 N   0  0  0  0  0  0  0  0  0  0  0  0
   46.9060   30.4990   36.9920 O   0  0  0  0  0  0  0  0  0  0  0  0
   46.8010   31.5430   36.2110 C   0  0  0  0  0  0  0  0  0  0  0  0
   46.8880   32.6610   37.0020 N   0  0  0  0  0  0  0  0  0  0  0  0
   46.6210   31.5770   34.7330 C   0  0  0  0  0  0  0  0  0  0  0  0
   46.5140   30.1380   34.2630 C   0  0  0  0  0  0  0  0  0  0  0  0
   47.7830   32.2760   34.0630 C   0  0  0  0  0  0  0  0  0  0  0  0
   45.3590   32.3120   34.3300 C   0  0  0  0  0  0  0  0  0  0  0  0
   44.9080   34.7420   41.7930 C   0  0  0  0  0  0  0  0  0  0  0  0
   43.9490   35.3060   41.1530 O   0  0  0  0  0  0  0  0  0  0  0  0
   44.8250   34.4880   43.1810 O   0  0  0  0  0  0  0  0  0  0  0  0
   44.6240   35.5630   44.0430 C   0  0  0  0  0  0  0  0  0  0  0  0
   43.2730   35.9190   44.1190 F   0  0  0  0  0  0  0  0  0  0  0  0
   45.0440   35.2340   45.3120 F   0  0  0  0  0  0  0  0  0  0  0  0
   45.3420   36.6290   43.5330 F   0  0  0  0  0  0  0  0  0  0  0  0
   47.3161   35.6235   42.3403 H   0  0  0  0  0  0  0  0  0  0  0  0
   49.4616   34.9916   41.1171 H   0  0  0  0  0  0  0  0  0  0  0  0
   46.4643   29.4700   35.1355 H   0  0  0  0  0  0  0  0  0  0  0  0
   45.6044   30.0171   33.6564 H   0  0  0  0  0  0  0  0  0  0  0  0
   47.3957   29.8839   33.6564 H   0  0  0  0  0  0  0  0  0  0  0  0
   48.4583   32.6823   34.8304 H   0  0  0  0  0  0  0  0  0  0  0  0
   48.3308   31.5574   33.4357 H   0  0  0  0  0  0  0  0  0  0  0  0
   47.4049   33.0967   33.4357 H   0  0  0  0  0  0  0  0  0  0  0  0
   44.8152   32.6287   35.2322 H   0  0  0  0  0  0  0  0  0  0  0  0
   45.6248   33.1966   33.7326 H   0  0  0  0  0  0  0  0  0  0  0  0
   44.7207   31.6444   33.7326 H   0  0  0  0  0  0  0  0  0  0  0  0
  1  2  2  0
  1 16  1  0
  3  2  1  0
  4  3  2  0
  5  4  1  0
  5  6  2  0
  6  1  1  0
  7  5  1  0
  8  7  2  0
  9  8  1  0
 10  9  1  0
 10 11  2  0
 11  7  1  0
 12 10  1  0
 13 12  1  0
 14 12  1  0
 15 12  1  0
 16 18  1  0
 17 16  2  0
 18 19  1  0
 19 20  1  0
 19 21  1  0
 22 19  1  0
  2 23  1  0
  3 24  1  0
 13 25  1  0
 13 26  1  0
 13 27  1  0
 14 28  1  0
 14 29  1  0
 14 30  1  0
 15 31  1  0
 15 32  1  0
 15 33  1  0
M  ISO  8  23  14  24  14  25   8  26   8  27   8  28   8  29   8  30   8
M  ISO  3  31   8  32   8  33   8
M  END
>  <minimizedAffinity>  (1) 
-4.41098547

>  <minimizedRMSD>  (1) 
1.27932537

$$$$
