
     RDKit          3D

 28 30  0  0  0  0  0  0  0  0999 V2000
   45.9400   34.5320   41.2320 C   0  0  0  0  0  0  0  0  0  0  0  0
   47.1630   35.0160   41.6750 C   0  0  0  0  0  0  0  0  0  0  0  0
   48.3290   34.6980   40.9420 C   0  0  0  0  0  0  0  0  0  0  0  0
   48.1720   33.9190   39.8250 N   0  0  0  0  0  0  0  0  0  0  0  0
   46.9560   33.4740   39.4380 C   0  0  0  0  0  0  0  0  0  0  0  0
   45.8650   33.7870   40.1470 N   0  0  0  0  0  0  0  0  0  0  0  0
   46.7710   32.6400   38.2450 C   0  0  0  0  0  0  0  0  0  0  0  0
   47.1490   31.3580   37.9570 N   0  0  0  0  0  0  0  0  0  0  0  0
   46.7520   31.0600   36.7560 O   0  0  0  0  0  0  0  0  0  0  0  0
   46.1180   32.0870   36.2140 C   0  0  0  0  0  0  0  0  0  0  0  0
   46.1180   33.0960   37.1380 N   0  0  0  0  0  0  0  0  0  0  0  0
   45.5090   32.1630   34.8630 C   0  0  0  0  0  0  0  0  0  0  0  0
   44.5720   31.1520   34.3750 C   0  0  0  0  0  0  0  0  0  0  0  0
   45.9840   31.0700   33.8580 C   0  0  0  0  0  0  0  0  0  0  0  0
   44.7770   34.8790   42.0090 C   0  0  0  0  0  0  0  0  0  0  0  0
   43.8950   35.6570   41.4930 O   0  0  0  0  0  0  0  0  0  0  0  0
   44.6270   34.3650   43.3070 O   0  0  0  0  0  0  0  0  0  0  0  0
   45.1170   35.1030   44.3830 C   0  0  0  0  0  0  0  0  0  0  0  0
   44.2040   35.1290   45.4420 F   0  0  0  0  0  0  0  0  0  0  0  0
   46.2890   34.5600   44.8390 F   0  0  0  0  0  0  0  0  0  0  0  0
   45.3020   36.4000   43.9260 F   0  0  0  0  0  0  0  0  0  0  0  0
   47.2239   35.6366   42.5812 H   0  0  0  0  0  0  0  0  0  0  0  0
   49.3196   35.0600   41.2544 H   0  0  0  0  0  0  0  0  0  0  0  0
   45.4525   33.2603   34.9146 H   0  0  0  0  0  0  0  0  0  0  0  0
   44.2033   30.3788   35.0651 H   0  0  0  0  0  0  0  0  0  0  0  0
   43.5880   31.2042   33.8861 H   0  0  0  0  0  0  0  0  0  0  0  0
   46.6531   30.2615   34.1876 H   0  0  0  0  0  0  0  0  0  0  0  0
   46.4699   31.0542   32.8713 H   0  0  0  0  0  0  0  0  0  0  0  0
  1  2  2  0
  1 15  1  0
  3  2  1  0
  4  3  2  0
  5  4  1  0
  5  6  2  0
  6  1  1  0
  7  5  1  0
  8  7  2  0
  9  8  1  0
 10  9  1  0
 10 11  2  0
 11  7  1  0
 12 10  1  0
 13 12  1  0
 14 13  1  0
 14 12  1  0
 15 17  1  0
 16 15  2  0
 17 18  1  0
 18 20  1  0
 18 19  1  0
 21 18  1  0
  2 22  1  0
  3 23  1  0
 12 24  1  0
 13 25  1  0
 13 26  1  0
 14 27  1  0
 14 28  1  0
M  ISO  7  22  14  23  14  24  13  25  13  26  13  27  13  28  13
M  END
>  <minimizedAffinity>  (1) 
-4.36625385

>  <minimizedRMSD>  (1) 
0.554380953

$$$$
