
     RDKit          3D

 27 28  0  0  0  0  0  0  0  0999 V2000
   45.8130   34.3900   40.9750 C   0  0  0  0  0  0  0  0  0  0  0  0
   47.0760   34.7770   41.3990 C   0  0  0  0  0  0  0  0  0  0  0  0
   48.2010   34.3760   40.6440 C   0  0  0  0  0  0  0  0  0  0  0  0
   47.9640   33.6170   39.5240 N   0  0  0  0  0  0  0  0  0  0  0  0
   46.7080   33.2680   39.1570 C   0  0  0  0  0  0  0  0  0  0  0  0
   45.6590   33.6600   39.8870 N   0  0  0  0  0  0  0  0  0  0  0  0
   46.4440   32.4600   37.9650 C   0  0  0  0  0  0  0  0  0  0  0  0
   46.5890   31.1130   37.7310 N   0  0  0  0  0  0  0  0  0  0  0  0
   46.2220   30.8610   36.5080 O   0  0  0  0  0  0  0  0  0  0  0  0
   45.8350   31.9770   35.9070 C   0  0  0  0  0  0  0  0  0  0  0  0
   45.9700   32.9940   36.8130 N   0  0  0  0  0  0  0  0  0  0  0  0
   45.3330   32.2150   34.5270 C   0  0  0  0  0  0  0  0  0  0  0  0
   44.7500   30.9360   33.9730 C   0  0  0  0  0  0  0  0  0  0  0  0
   44.6900   34.8190   41.7710 C   0  0  0  0  0  0  0  0  0  0  0  0
   43.8070   35.5850   41.2410 O   0  0  0  0  0  0  0  0  0  0  0  0
   44.5790   34.3970   43.0990 O   0  0  0  0  0  0  0  0  0  0  0  0
   45.0840   35.2110   44.1090 C   0  0  0  0  0  0  0  0  0  0  0  0
   44.1690   35.3480   45.1650 F   0  0  0  0  0  0  0  0  0  0  0  0
   46.2410   34.6780   44.6160 F   0  0  0  0  0  0  0  0  0  0  0  0
   45.3000   36.4590   43.5470 F   0  0  0  0  0  0  0  0  0  0  0  0
   47.1994   35.3854   42.3071 H   0  0  0  0  0  0  0  0  0  0  0  0
   49.2218   34.6592   40.9402 H   0  0  0  0  0  0  0  0  0  0  0  0
   44.5552   32.9925   34.5492 H   0  0  0  0  0  0  0  0  0  0  0  0
   46.1647   32.5449   33.8872 H   0  0  0  0  0  0  0  0  0  0  0  0
   44.4508   30.2796   34.8034 H   0  0  0  0  0  0  0  0  0  0  0  0
   43.8701   31.1711   33.3561 H   0  0  0  0  0  0  0  0  0  0  0  0
   45.5046   30.4261   33.3561 H   0  0  0  0  0  0  0  0  0  0  0  0
  1  2  2  0
  1 14  1  0
  3  2  1  0
  4  3  2  0
  5  4  1  0
  5  6  2  0
  6  1  1  0
  7  5  1  0
  8  7  2  0
  9  8  1  0
 10  9  1  0
 10 11  2  0
 11  7  1  0
 12 10  1  0
 13 12  1  0
 14 16  1  0
 15 14  2  0
 16 17  1  0
 17 19  1  0
 17 18  1  0
 20 17  1  0
  2 21  1  0
  3 22  1  0
 12 23  1  0
 12 24  1  0
 13 25  1  0
 13 26  1  0
 13 27  1  0
M  ISO  7  21  14  22  14  23   8  24   8  25   8  26   8  27   8
M  END
>  <minimizedAffinity>  (1) 
-4.2905302

>  <minimizedRMSD>  (1) 
0.332493693

$$$$
