
     RDKit          3D

 24 25  0  0  0  0  0  0  0  0999 V2000
   45.8770   34.3720   40.9440 C   0  0  0  0  0  0  0  0  0  0  0  0
   47.1320   34.7710   41.3840 C   0  0  0  0  0  0  0  0  0  0  0  0
   48.2700   34.3920   40.6350 C   0  0  0  0  0  0  0  0  0  0  0  0
   48.0510   33.6440   39.5070 N   0  0  0  0  0  0  0  0  0  0  0  0
   46.8020   33.2800   39.1210 C   0  0  0  0  0  0  0  0  0  0  0  0
   45.7470   33.6530   39.8480 N   0  0  0  0  0  0  0  0  0  0  0  0
   46.5670   32.4840   37.9200 C   0  0  0  0  0  0  0  0  0  0  0  0
   46.8000   31.1810   37.6170 N   0  0  0  0  0  0  0  0  0  0  0  0
   46.4070   30.9510   36.3960 O   0  0  0  0  0  0  0  0  0  0  0  0
   45.9190   32.0390   35.8570 C   0  0  0  0  0  0  0  0  0  0  0  0
   46.0040   33.0300   36.7920 N   0  0  0  0  0  0  0  0  0  0  0  0
   45.3510   32.2780   34.4980 C   0  0  0  0  0  0  0  0  0  0  0  0
   44.7420   34.7780   41.7340 C   0  0  0  0  0  0  0  0  0  0  0  0
   43.8460   35.5260   41.1970 O   0  0  0  0  0  0  0  0  0  0  0  0
   44.6360   34.3550   43.0640 O   0  0  0  0  0  0  0  0  0  0  0  0
   45.1060   35.1980   44.0730 C   0  0  0  0  0  0  0  0  0  0  0  0
   44.1680   35.3390   45.1080 F   0  0  0  0  0  0  0  0  0  0  0  0
   46.2560   34.6820   44.6190 F   0  0  0  0  0  0  0  0  0  0  0  0
   45.3220   36.4360   43.4980 F   0  0  0  0  0  0  0  0  0  0  0  0
   47.2392   35.3715   42.2994 H   0  0  0  0  0  0  0  0  0  0  0  0
   49.2847   34.6840   40.9433 H   0  0  0  0  0  0  0  0  0  0  0  0
   44.3408   32.7031   34.5924 H   0  0  0  0  0  0  0  0  0  0  0  0
   45.9951   32.9814   33.9499 H   0  0  0  0  0  0  0  0  0  0  0  0
   45.2984   31.3257   33.9499 H   0  0  0  0  0  0  0  0  0  0  0  0
  1  2  2  0
  1 13  1  0
  3  2  1  0
  4  3  2  0
  5  4  1  0
  5  6  2  0
  6  1  1  0
  7  5  1  0
  8  7  2  0
  9  8  1  0
 10  9  1  0
 10 11  2  0
 11  7  1  0
 12 10  1  0
 13 15  1  0
 14 13  2  0
 15 16  1  0
 16 18  1  0
 16 17  1  0
 19 16  1  0
  2 20  1  0
  3 21  1  0
 12 22  1  0
 12 23  1  0
 12 24  1  0
M  ISO  5  20  14  21  14  22   8  23   8  24   8
M  END
>  <minimizedAffinity>  (1) 
-4.26424551

>  <minimizedRMSD>  (1) 
0.324611157

$$$$
