
     RDKit          3D

 28 30  0  0  0  0  0  0  0  0999 V2000
   46.5160   34.0610   41.2230 C   0  0  0  0  0  0  0  0  0  0  0  0
   47.0920   34.9110   42.1610 C   0  0  0  0  0  0  0  0  0  0  0  0
   48.4990   34.9180   42.2840 C   0  0  0  0  0  0  0  0  0  0  0  0
   49.2110   34.0860   41.4690 N   0  0  0  0  0  0  0  0  0  0  0  0
   48.6050   33.2800   40.5760 C   0  0  0  0  0  0  0  0  0  0  0  0
   47.2740   33.2830   40.4700 N   0  0  0  0  0  0  0  0  0  0  0  0
   49.3610   32.3830   39.6960 C   0  0  0  0  0  0  0  0  0  0  0  0
   50.2310   31.3730   39.9490 N   0  0  0  0  0  0  0  0  0  0  0  0
   50.6410   30.8740   38.8110 O   0  0  0  0  0  0  0  0  0  0  0  0
   50.0820   31.5080   37.8150 C   0  0  0  0  0  0  0  0  0  0  0  0
   49.2700   32.4640   38.3270 N   0  0  0  0  0  0  0  0  0  0  0  0
   50.2610   31.2750   36.4100 C   0  0  0  0  0  0  0  0  0  0  0  0
   51.2500   30.6610   35.7340 C   0  0  0  0  0  0  0  0  0  0  0  0
   51.1990   30.5590   34.3780 C   0  0  0  0  0  0  0  0  0  0  0  0
   50.0640   31.1310   33.7440 C   0  0  0  0  0  0  0  0  0  0  0  0
   49.0850   31.8130   35.1940 S   0  0  0  0  0  0  0  0  0  0  0  0
   45.0800   34.0690   41.1160 C   0  0  0  0  0  0  0  0  0  0  0  0
   44.5480   33.9430   39.9540 O   0  0  0  0  0  0  0  0  0  0  0  0
   44.3010   34.2120   42.2680 O   0  0  0  0  0  0  0  0  0  0  0  0
   43.5740   35.3910   42.4480 C   0  0  0  0  0  0  0  0  0  0  0  0
   42.2350   35.2440   42.0870 F   0  0  0  0  0  0  0  0  0  0  0  0
   43.6200   35.7680   43.7740 F   0  0  0  0  0  0  0  0  0  0  0  0
   44.1530   36.3450   41.6350 F   0  0  0  0  0  0  0  0  0  0  0  0
   46.4676   35.5614   42.7912 H   0  0  0  0  0  0  0  0  0  0  0  0
   49.0035   35.5712   43.0112 H   0  0  0  0  0  0  0  0  0  0  0  0
   52.1055   30.2387   36.2816 H   0  0  0  0  0  0  0  0  0  0  0  0
   51.9939   30.0605   33.8039 H   0  0  0  0  0  0  0  0  0  0  0  0
   49.8197   31.1658   32.6720 H   0  0  0  0  0  0  0  0  0  0  0  0
  1  2  2  0
  2  3  1  0
  4  3  2  0
  5  4  1  0
  6  5  2  0
  6  1  1  0
  7  8  2  0
  7  5  1  0
  9  8  1  0
 10 11  2  0
 10  9  1  0
 11  7  1  0
 12 10  1  0
 13 12  2  0
 14 13  1  0
 15 14  2  0
 15 16  1  0
 16 12  1  0
 17  1  1  0
 17 19  1  0
 18 17  2  0
 19 20  1  0
 20 22  1  0
 21 20  1  0
 23 20  1  0
  2 24  1  0
  3 25  1  0
 13 26  1  0
 14 27  1  0
 15 28  1  0
M  ISO  5  24  14  25  14  26  14  27  14  28  14
M  END
>  <minimizedAffinity>  (1) 
-4.20371866

>  <minimizedRMSD>  (1) 
4.0292592

$$$$
