
     RDKit          3D

 28 29  0  0  0  0  0  0  0  0999 V2000
   46.6480   34.4660   41.7410 C   0  0  0  0  0  0  0  0  0  0  0  0
   47.5660   35.2820   42.3690 C   0  0  0  0  0  0  0  0  0  0  0  0
   48.7070   35.7190   41.6450 C   0  0  0  0  0  0  0  0  0  0  0  0
   48.8190   35.2900   40.3450 N   0  0  0  0  0  0  0  0  0  0  0  0
   47.8740   34.4810   39.7820 C   0  0  0  0  0  0  0  0  0  0  0  0
   46.8050   34.0830   40.4910 N   0  0  0  0  0  0  0  0  0  0  0  0
   47.9920   34.0230   38.4000 C   0  0  0  0  0  0  0  0  0  0  0  0
   48.7580   34.4460   37.3520 N   0  0  0  0  0  0  0  0  0  0  0  0
   48.4950   33.7020   36.3170 O   0  0  0  0  0  0  0  0  0  0  0  0
   47.5870   32.7990   36.6170 C   0  0  0  0  0  0  0  0  0  0  0  0
   47.2380   32.9680   37.9380 N   0  0  0  0  0  0  0  0  0  0  0  0
   47.0470   31.8070   35.7350 C   0  0  0  0  0  0  0  0  0  0  0  0
   47.7900   31.2640   34.8810 O   0  0  0  0  0  0  0  0  0  0  0  0
   45.7040   31.4340   35.8140 O   0  0  0  0  0  0  0  0  0  0  0  0
   44.8460   31.6900   34.7780 C   0  0  0  0  0  0  0  0  0  0  0  0
   45.0290   32.7740   33.8590 N   0  0  0  0  0  0  0  0  0  0  0  0
   43.8380   31.0070   34.5470 O   0  0  0  0  0  0  0  0  0  0  0  0
   45.5180   34.0550   42.5170 C   0  0  0  0  0  0  0  0  0  0  0  0
   44.4130   34.7200   42.4040 O   0  0  0  0  0  0  0  0  0  0  0  0
   45.6160   32.9450   43.3870 O   0  0  0  0  0  0  0  0  0  0  0  0
   46.0800   33.1480   44.6740 C   0  0  0  0  0  0  0  0  0  0  0  0
   45.5460   32.2270   45.5740 F   0  0  0  0  0  0  0  0  0  0  0  0
   47.4610   33.0320   44.7000 F   0  0  0  0  0  0  0  0  0  0  0  0
   45.6700   34.4050   45.0540 F   0  0  0  0  0  0  0  0  0  0  0  0
   47.4166   35.5895   43.4145 H   0  0  0  0  0  0  0  0  0  0  0  0
   49.4654   36.3704   42.1038 H   0  0  0  0  0  0  0  0  0  0  0  0
   44.3529   32.9222   33.0962 H   0  0  0  0  0  0  0  0  0  0  0  0
   45.8366   33.4050   33.9612 H   0  0  0  0  0  0  0  0  0  0  0  0
  1  2  2  0
  1 18  1  0
  3  2  1  0
  4  3  2  0
  5  4  1  0
  5  6  2  0
  6  1  1  0
  7  5  1  0
  8  7  2  0
  9 10  1  0
  9  8  1  0
 10 11  2  0
 11  7  1  0
 12 14  1  0
 12 10  1  0
 13 12  2  0
 15 14  1  0
 16 15  1  0
 17 15  2  0
 18 20  1  0
 19 18  2  0
 20 21  1  0
 21 23  1  0
 21 24  1  0
 21 22  1  0
  2 25  1  0
  3 26  1  0
 16 27  1  0
 16 28  1  0
M  ISO  2  25  14  26  14
M  END
>  <minimizedAffinity>  (1) 
-5.29579115

>  <minimizedRMSD>  (1) 
2.71677995

$$$$
