
     RDKit          3D

 27 28  0  0  0  0  0  0  0  0999 V2000
   46.0550   34.4180   41.1700 C   0  0  0  0  0  0  0  0  0  0  0  0
   47.2660   34.9030   41.6170 C   0  0  0  0  0  0  0  0  0  0  0  0
   48.4290   34.6980   40.8260 C   0  0  0  0  0  0  0  0  0  0  0  0
   48.2580   34.0170   39.6460 N   0  0  0  0  0  0  0  0  0  0  0  0
   47.0320   33.5610   39.2580 C   0  0  0  0  0  0  0  0  0  0  0  0
   45.9510   33.7720   40.0310 N   0  0  0  0  0  0  0  0  0  0  0  0
   46.8520   32.8380   38.0050 C   0  0  0  0  0  0  0  0  0  0  0  0
   45.9220   31.9270   37.5930 N   0  0  0  0  0  0  0  0  0  0  0  0
   46.1910   31.5660   36.3740 O   0  0  0  0  0  0  0  0  0  0  0  0
   47.2660   32.1970   35.9410 C   0  0  0  0  0  0  0  0  0  0  0  0
   47.7090   33.0100   36.9500 N   0  0  0  0  0  0  0  0  0  0  0  0
   47.8610   32.0520   34.6450 C   0  0  0  0  0  0  0  0  0  0  0  0
   47.4090   31.1880   33.8460 O   0  0  0  0  0  0  0  0  0  0  0  0
   48.9360   32.8650   34.2700 O   0  0  0  0  0  0  0  0  0  0  0  0
   49.2750   32.9500   32.8810 C   0  0  0  0  0  0  0  0  0  0  0  0
   50.1360   33.9890   32.6280 F   0  0  0  0  0  0  0  0  0  0  0  0
   48.0610   33.2490   32.2500 F   0  0  0  0  0  0  0  0  0  0  0  0
   49.6850   31.7490   32.3710 F   0  0  0  0  0  0  0  0  0  0  0  0
   44.9190   34.6540   42.0090 C   0  0  0  0  0  0  0  0  0  0  0  0
   43.7840   34.9380   41.4560 O   0  0  0  0  0  0  0  0  0  0  0  0
   45.0310   34.5780   43.4040 O   0  0  0  0  0  0  0  0  0  0  0  0
   44.6440   35.6570   44.1860 C   0  0  0  0  0  0  0  0  0  0  0  0
   43.2700   35.8740   44.1260 F   0  0  0  0  0  0  0  0  0  0  0  0
   45.0000   35.4730   45.4940 F   0  0  0  0  0  0  0  0  0  0  0  0
   45.2720   36.7700   43.6260 F   0  0  0  0  0  0  0  0  0  0  0  0
   47.3311   35.4418   42.5738 H   0  0  0  0  0  0  0  0  0  0  0  0
   49.4159   35.0662   41.1430 H   0  0  0  0  0  0  0  0  0  0  0  0
  1  2  2  0
  1 19  1  0
  3  2  1  0
  4  3  2  0
  5  4  1  0
  5  6  2  0
  6  1  1  0
  7  5  1  0
  8  7  2  0
  9  8  1  0
 10  9  1  0
 10 11  2  0
 11  7  1  0
 12 10  1  0
 13 12  2  0
 14 12  1  0
 15 14  1  0
 16 15  1  0
 17 15  1  0
 18 15  1  0
 19 21  1  0
 20 19  2  0
 21 22  1  0
 22 24  1  0
 23 22  1  0
 25 22  1  0
  2 26  1  0
  3 27  1  0
M  ISO  2  26  14  27  14
M  END
>  <minimizedAffinity>  (1) 
-5.12723064

>  <minimizedRMSD>  (1) 
2.43585587

$$$$
