
     RDKit          3D

 27 28  0  0  0  0  0  0  0  0999 V2000
   44.7090   36.0230   44.2640 C   0  0  0  0  0  0  0  0  0  0  0  0
   45.0400   35.7930   42.9020 C   0  0  0  0  0  0  0  0  0  0  0  0
   45.6430   34.5800   42.5960 C   0  0  0  0  0  0  0  0  0  0  0  0
   45.8930   33.6620   43.6070 N   0  0  0  0  0  0  0  0  0  0  0  0
   45.5610   33.9280   44.8770 C   0  0  0  0  0  0  0  0  0  0  0  0
   44.9740   35.0980   45.2140 N   0  0  0  0  0  0  0  0  0  0  0  0
   46.1040   34.1760   40.9230 S   0  0  0  0  0  0  0  0  0  0  0  0
   47.9260   34.3380   40.8350 C   0  0  0  0  0  0  0  0  0  0  0  0
   48.4850   32.9930   41.0850 C   0  0  0  0  0  0  0  0  0  0  0  0
   49.1130   32.8880   42.4440 C   0  0  0  0  0  0  0  0  0  0  0  0
   50.2500   33.9090   42.3970 C   0  0  0  0  0  0  0  0  0  0  0  0
   49.5560   35.2370   42.5750 C   0  0  0  0  0  0  0  0  0  0  0  0
   48.4030   35.4540   41.6720 C   0  0  0  0  0  0  0  0  0  0  0  0
   44.2287   36.9701   44.5509 H   0  0  0  0  0  0  0  0  0  0  0  0
   44.8283   36.5419   42.1246 H   0  0  0  0  0  0  0  0  0  0  0  0
   45.7694   33.1823   45.6584 H   0  0  0  0  0  0  0  0  0  0  0  0
   48.2958   34.6428   39.8448 H   0  0  0  0  0  0  0  0  0  0  0  0
   47.6751   32.2524   41.0100 H   0  0  0  0  0  0  0  0  0  0  0  0
   49.2669   32.8055   40.3344 H   0  0  0  0  0  0  0  0  0  0  0  0
   48.3888   33.1432   43.2317 H   0  0  0  0  0  0  0  0  0  0  0  0
   49.4624   31.8709   42.6750 H   0  0  0  0  0  0  0  0  0  0  0  0
   50.9688   33.7314   43.2105 H   0  0  0  0  0  0  0  0  0  0  0  0
   50.8285   33.8556   41.4629 H   0  0  0  0  0  0  0  0  0  0  0  0
   49.1962   35.3001   43.6126 H   0  0  0  0  0  0  0  0  0  0  0  0
   50.2965   36.0121   42.3281 H   0  0  0  0  0  0  0  0  0  0  0  0
   48.6779   36.2725   40.9904 H   0  0  0  0  0  0  0  0  0  0  0  0
   47.5646   35.6436   42.3585 H   0  0  0  0  0  0  0  0  0  0  0  0
  1  6  2  0
  2  1  1  0
  3  2  2  0
  3  4  1  0
  4  5  2  0
  5  6  1  0
  7  3  1  0
  8  7  1  0
  8  9  1  0
  8 13  1  0
  9 10  1  0
 11 10  1  0
 11 12  1  0
 13 12  1  0
  1 14  1  0
  2 15  1  0
  5 16  1  0
  8 17  1  0
  9 18  1  0
  9 19  1  0
 10 20  1  0
 10 21  1  0
 11 22  1  0
 11 23  1  0
 12 24  1  0
 12 25  1  0
 13 26  1  0
 13 27  1  0
M  ISO  8  14  14  15  14  16  14  17  13  18  13  19  13  20  13  21  13
M  ISO  6  22  13  23  13  24  13  25  13  26  13  27  13
M  END
>  <minimizedAffinity>  (1) 
-4.59437799

>  <minimizedRMSD>  (1) 
1.53942227

$$$$
