
     RDKit          3D

 16 17  0  0  0  0  0  0  0  0999 V2000
   44.5640   36.0440   44.5450 C   0  0  0  0  0  0  0  0  0  0  0  0
   45.1640   35.9040   43.2830 C   0  0  0  0  0  0  0  0  0  0  0  0
   45.9610   34.7820   43.0440 C   0  0  0  0  0  0  0  0  0  0  0  0
   46.1170   33.8670   44.0690 N   0  0  0  0  0  0  0  0  0  0  0  0
   45.5280   34.0340   45.2630 C   0  0  0  0  0  0  0  0  0  0  0  0
   44.7590   35.1120   45.5000 N   0  0  0  0  0  0  0  0  0  0  0  0
   46.7680   34.5120   41.4670 S   0  0  0  0  0  0  0  0  0  0  0  0
   48.4730   34.0850   41.8550 C   0  0  0  0  0  0  0  0  0  0  0  0
   49.1850   35.1590   42.2780 N   0  0  0  0  0  0  0  0  0  0  0  0
   50.4180   34.7730   42.5420 O   0  0  0  0  0  0  0  0  0  0  0  0
   50.5180   33.4860   42.3030 C   0  0  0  0  0  0  0  0  0  0  0  0
   49.3200   33.0380   41.8740 N   0  0  0  0  0  0  0  0  0  0  0  0
   43.9314   36.9189   44.7557 H   0  0  0  0  0  0  0  0  0  0  0  0
   45.0098   36.6611   42.5001 H   0  0  0  0  0  0  0  0  0  0  0  0
   45.6751   33.2838   46.0539 H   0  0  0  0  0  0  0  0  0  0  0  0
   51.4247   32.8764   42.4308 H   0  0  0  0  0  0  0  0  0  0  0  0
  1  6  2  0
  2  1  1  0
  3  2  2  0
  3  4  1  0
  4  5  2  0
  5  6  1  0
  7  8  1  0
  7  3  1  0
  8 12  1  0
  8  9  2  0
  9 10  1  0
 11 10  1  0
 12 11  2  0
  1 13  1  0
  2 14  1  0
  5 15  1  0
 11 16  1  0
M  ISO  4  13  14  14  14  15  14  16  14
M  END
>  <minimizedAffinity>  (1) 
-4.01143646

>  <minimizedRMSD>  (1) 
1.43629181

$$$$
