
     RDKit          3D

 23 23  0  0  0  0  0  0  0  0999 V2000
   44.5760   36.0580   44.5620 C   0  0  0  0  0  0  0  0  0  0  0  0
   44.9960   35.8460   43.2400 C   0  0  0  0  0  0  0  0  0  0  0  0
   45.6640   34.6750   42.9180 C   0  0  0  0  0  0  0  0  0  0  0  0
   45.8860   33.7590   43.9290 N   0  0  0  0  0  0  0  0  0  0  0  0
   45.4730   33.9900   45.1840 C   0  0  0  0  0  0  0  0  0  0  0  0
   44.8220   35.1280   45.5100 N   0  0  0  0  0  0  0  0  0  0  0  0
   46.2220   34.3350   41.2620 S   0  0  0  0  0  0  0  0  0  0  0  0
   47.9860   34.3930   41.0440 C   0  0  0  0  0  0  0  0  0  0  0  0
   48.7350   33.1950   41.5460 C   0  0  0  0  0  0  0  0  0  0  0  0
   48.6340   35.6300   41.6160 C   0  0  0  0  0  0  0  0  0  0  0  0
   48.2440   34.4700   39.5350 C   0  0  0  0  0  0  0  0  0  0  0  0
   44.0449   36.9842   44.8270 H   0  0  0  0  0  0  0  0  0  0  0  0
   44.7969   36.6022   42.4663 H   0  0  0  0  0  0  0  0  0  0  0  0
   45.6681   33.2382   45.9630 H   0  0  0  0  0  0  0  0  0  0  0  0
   48.7341   33.1965   42.6460 H   0  0  0  0  0  0  0  0  0  0  0  0
   48.2486   32.2787   41.1801 H   0  0  0  0  0  0  0  0  0  0  0  0
   49.7718   33.2310   41.1801 H   0  0  0  0  0  0  0  0  0  0  0  0
   48.6090   35.5823   42.7147 H   0  0  0  0  0  0  0  0  0  0  0  0
   49.6782   35.6879   41.2751 H   0  0  0  0  0  0  0  0  0  0  0  0
   48.0871   36.5214   41.2751 H   0  0  0  0  0  0  0  0  0  0  0  0
   49.2840   34.7804   39.3562 H   0  0  0  0  0  0  0  0  0  0  0  0
   48.0734   33.4818   39.0829 H   0  0  0  0  0  0  0  0  0  0  0  0
   47.5597   35.2031   39.0829 H   0  0  0  0  0  0  0  0  0  0  0  0
  1  6  2  0
  2  1  1  0
  3  2  2  0
  3  4  1  0
  4  5  2  0
  5  6  1  0
  7  3  1  0
  8  7  1  0
  8  9  1  0
  8 10  1  0
 11  8  1  0
  1 12  1  0
  2 13  1  0
  5 14  1  0
  9 15  1  0
  9 16  1  0
  9 17  1  0
 10 18  1  0
 10 19  1  0
 10 20  1  0
 11 21  1  0
 11 22  1  0
 11 23  1  0
M  ISO  8  12  14  13  14  14  14  15   8  16   8  17   8  18   8  19   8
M  ISO  4  20   8  21   8  22   8  23   8
M  END
>  <minimizedAffinity>  (1) 
-3.99182391

>  <minimizedRMSD>  (1) 
1.02194285

$$$$
