
     RDKit          3D

 17 18  0  0  0  0  0  0  0  0999 V2000
   44.5560   36.0410   44.5540 C   0  0  0  0  0  0  0  0  0  0  0  0
   45.1590   35.9220   43.2910 C   0  0  0  0  0  0  0  0  0  0  0  0
   45.9730   34.8060   43.0450 C   0  0  0  0  0  0  0  0  0  0  0  0
   46.1220   33.9030   44.0660 N   0  0  0  0  0  0  0  0  0  0  0  0
   45.5340   34.0450   45.2590 C   0  0  0  0  0  0  0  0  0  0  0  0
   44.7550   35.1110   45.4990 N   0  0  0  0  0  0  0  0  0  0  0  0
   46.7790   34.5690   41.4730 S   0  0  0  0  0  0  0  0  0  0  0  0
   48.4650   33.9860   41.7710 C   0  0  0  0  0  0  0  0  0  0  0  0
   48.7860   32.7230   41.3110 C   0  0  0  0  0  0  0  0  0  0  0  0
   50.5000   32.5520   41.8030 S   0  0  0  0  0  0  0  0  0  0  0  0
   50.5150   34.2960   42.5910 C   0  0  0  0  0  0  0  0  0  0  0  0
   49.4540   34.6170   42.3830 N   0  0  0  0  0  0  0  0  0  0  0  0
   43.9132   36.9071   44.7702 H   0  0  0  0  0  0  0  0  0  0  0  0
   44.9972   36.6843   42.5146 H   0  0  0  0  0  0  0  0  0  0  0  0
   45.6888   33.2887   46.0426 H   0  0  0  0  0  0  0  0  0  0  0  0
   48.1487   32.0031   40.7766 H   0  0  0  0  0  0  0  0  0  0  0  0
   51.3278   34.8330   43.1019 H   0  0  0  0  0  0  0  0  0  0  0  0
  1  6  2  0
  2  1  1  0
  3  2  2  0
  3  4  1  0
  4  5  2  0
  5  6  1  0
  7  8  1  0
  7  3  1  0
  8 12  1  0
  9  8  2  0
  9 10  1  0
 10 11  1  0
 12 11  2  0
  1 13  1  0
  2 14  1  0
  5 15  1  0
  9 16  1  0
 11 17  1  0
M  ISO  5  13  14  14  14  15  14  16  14  17  14
M  END
>  <minimizedAffinity>  (1) 
-3.83442187

>  <minimizedRMSD>  (1) 
1.35758889

$$$$
