
     RDKit          3D

 19 20  0  0  0  0  0  0  0  0999 V2000
   44.7620   35.5520   44.0340 C   0  0  0  0  0  0  0  0  0  0  0  0
   45.6950   35.6580   42.9870 C   0  0  0  0  0  0  0  0  0  0  0  0
   46.7800   34.7900   42.9680 C   0  0  0  0  0  0  0  0  0  0  0  0
   46.8740   33.8750   43.9820 N   0  0  0  0  0  0  0  0  0  0  0  0
   45.9800   33.7860   44.9690 C   0  0  0  0  0  0  0  0  0  0  0  0
   44.9310   34.6200   44.9950 N   0  0  0  0  0  0  0  0  0  0  0  0
   48.0060   34.8600   41.6770 S   0  0  0  0  0  0  0  0  0  0  0  0
   47.3410   34.1650   40.1480 C   0  0  0  0  0  0  0  0  0  0  0  0
   46.1700   33.4700   39.9790 C   0  0  0  0  0  0  0  0  0  0  0  0
   45.8590   33.0290   38.7090 C   0  0  0  0  0  0  0  0  0  0  0  0
   46.6720   33.2680   37.6740 N   0  0  0  0  0  0  0  0  0  0  0  0
   47.8190   33.9530   37.8670 C   0  0  0  0  0  0  0  0  0  0  0  0
   48.1730   34.4120   39.1030 N   0  0  0  0  0  0  0  0  0  0  0  0
   43.8952   36.2283   44.0695 H   0  0  0  0  0  0  0  0  0  0  0  0
   45.5682   36.4138   42.1979 H   0  0  0  0  0  0  0  0  0  0  0  0
   46.1037   33.0304   45.7588 H   0  0  0  0  0  0  0  0  0  0  0  0
   45.5006   33.2708   40.8288 H   0  0  0  0  0  0  0  0  0  0  0  0
   44.9255   32.4707   38.5447 H   0  0  0  0  0  0  0  0  0  0  0  0
   48.4821   34.1453   37.0107 H   0  0  0  0  0  0  0  0  0  0  0  0
  1  6  2  0
  2  1  1  0
  3  2  2  0
  3  4  1  0
  4  5  2  0
  5  6  1  0
  7  3  1  0
  8  7  1  0
  9  8  2  0
 10  9  1  0
 11 12  1  0
 11 10  2  0
 12 13  2  0
 13  8  1  0
  1 14  1  0
  2 15  1  0
  5 16  1  0
  9 17  1  0
 10 18  1  0
 12 19  1  0
M  ISO  6  14  14  15  14  16  14  17  14  18  14  19  14
M  END
>  <minimizedAffinity>  (1) 
-3.82040477

>  <minimizedRMSD>  (1) 
1.52100587

$$$$
