
     RDKit          3D

 18 19  0  0  0  0  0  0  0  0999 V2000
   44.7500   35.6740   43.9790 C   0  0  0  0  0  0  0  0  0  0  0  0
   45.7120   35.7510   42.9550 C   0  0  0  0  0  0  0  0  0  0  0  0
   46.7600   34.8360   42.9710 C   0  0  0  0  0  0  0  0  0  0  0  0
   46.8090   33.9060   43.9770 N   0  0  0  0  0  0  0  0  0  0  0  0
   45.8700   33.8550   44.9470 C   0  0  0  0  0  0  0  0  0  0  0  0
   44.8550   34.7370   44.9370 N   0  0  0  0  0  0  0  0  0  0  0  0
   48.0300   34.8620   41.7070 S   0  0  0  0  0  0  0  0  0  0  0  0
   45.9830   33.3430   38.7460 N   0  0  0  0  0  0  0  0  0  0  0  0
   46.1110   33.7350   39.9960 N   0  0  0  0  0  0  0  0  0  0  0  0
   47.3530   34.2120   40.2010 C   0  0  0  0  0  0  0  0  0  0  0  0
   48.0620   34.1160   39.0010 C   0  0  0  0  0  0  0  0  0  0  0  0
   47.1670   33.5630   38.1020 C   0  0  0  0  0  0  0  0  0  0  0  0
   43.9092   36.3830   43.9956 H   0  0  0  0  0  0  0  0  0  0  0  0
   45.6376   36.5125   42.1647 H   0  0  0  0  0  0  0  0  0  0  0  0
   45.9354   33.0961   45.7406 H   0  0  0  0  0  0  0  0  0  0  0  0
   45.1341   32.9390   38.3251 H   0  0  0  0  0  0  0  0  0  0  0  0
   49.1037   34.4146   38.8121 H   0  0  0  0  0  0  0  0  0  0  0  0
   47.3745   33.3382   37.0454 H   0  0  0  0  0  0  0  0  0  0  0  0
  1  6  2  0
  2  3  2  0
  2  1  1  0
  3  4  1  0
  4  5  2  0
  6  5  1  0
  7  3  1  0
  8  9  1  0
  9 10  2  0
 10  7  1  0
 11 10  1  0
 12  8  1  0
 12 11  2  0
  1 13  1  0
  2 14  1  0
  5 15  1  0
  8 16  1  0
 11 17  1  0
 12 18  1  0
M  ISO  6  13  14  14  14  15  14  16   9  17  14  18  14
M  END
>  <minimizedAffinity>  (1) 
-3.70818496

>  <minimizedRMSD>  (1) 
1.53869343

$$$$
