
     RDKit          3D

 37 40  0  0  0  0  0  0  0  0999 V2000
   48.3780   34.0910   41.7320 C   0  0  0  0  0  0  0  0  0  0  0  0
   49.3370   34.7710   42.4760 C   0  0  0  0  0  0  0  0  0  0  0  0
   50.5880   34.2150   42.6300 C   0  0  0  0  0  0  0  0  0  0  0  0
   50.9240   32.9810   42.0560 C   0  0  0  0  0  0  0  0  0  0  0  0
   49.9530   32.2990   41.3060 C   0  0  0  0  0  0  0  0  0  0  0  0
   48.7070   32.8650   41.1600 C   0  0  0  0  0  0  0  0  0  0  0  0
   47.5990   32.2830   40.4140 C   0  0  0  0  0  0  0  0  0  0  0  0
   46.7920   31.4740   41.1970 C   0  0  0  0  0  0  0  0  0  0  0  0
   45.6830   30.8370   40.6320 C   0  0  0  0  0  0  0  0  0  0  0  0
   45.4350   31.0500   39.2810 C   0  0  0  0  0  0  0  0  0  0  0  0
   46.2290   31.8500   38.5010 C   0  0  0  0  0  0  0  0  0  0  0  0
   45.9640   32.0420   37.1810 C   0  0  0  0  0  0  0  0  0  0  0  0
   46.8020   32.8660   36.4220 C   0  0  0  0  0  0  0  0  0  0  0  0
   47.8810   33.4660   37.0380 C   0  0  0  0  0  0  0  0  0  0  0  0
   48.1870   33.2960   38.3820 C   0  0  0  0  0  0  0  0  0  0  0  0
   47.3080   32.4610   39.0750 C   0  0  0  0  0  0  0  0  0  0  0  0
   46.7990   34.8820   41.5880 S   0  0  0  0  0  0  0  0  0  0  0  0
   44.5020   35.9520   44.7690 C   0  0  0  0  0  0  0  0  0  0  0  0
   45.1140   35.9620   43.5030 C   0  0  0  0  0  0  0  0  0  0  0  0
   45.9950   34.9300   43.1630 C   0  0  0  0  0  0  0  0  0  0  0  0
   46.2070   33.9560   44.1110 N   0  0  0  0  0  0  0  0  0  0  0  0
   45.6140   33.9670   45.3060 C   0  0  0  0  0  0  0  0  0  0  0  0
   44.7630   34.9540   45.6480 N   0  0  0  0  0  0  0  0  0  0  0  0
   49.0991   35.7415   42.9360 H   0  0  0  0  0  0  0  0  0  0  0  0
   51.3441   34.7542   43.2196 H   0  0  0  0  0  0  0  0  0  0  0  0
   51.9293   32.5553   42.1907 H   0  0  0  0  0  0  0  0  0  0  0  0
   50.1841   31.3284   40.8427 H   0  0  0  0  0  0  0  0  0  0  0  0
   47.0236   31.3328   42.2630 H   0  0  0  0  0  0  0  0  0  0  0  0
   45.0296   30.1899   41.2356 H   0  0  0  0  0  0  0  0  0  0  0  0
   44.5668   30.5568   38.8194 H   0  0  0  0  0  0  0  0  0  0  0  0
   45.0968   31.5528   36.7133 H   0  0  0  0  0  0  0  0  0  0  0  0
   46.6041   33.0326   35.3528 H   0  0  0  0  0  0  0  0  0  0  0  0
   48.5331   34.1130   36.4328 H   0  0  0  0  0  0  0  0  0  0  0  0
   49.0510   33.7795   38.8613 H   0  0  0  0  0  0  0  0  0  0  0  0
   43.8077   36.7585   45.0474 H   0  0  0  0  0  0  0  0  0  0  0  0
   44.9025   36.7714   42.7888 H   0  0  0  0  0  0  0  0  0  0  0  0
   45.8228   33.1587   46.0223 H   0  0  0  0  0  0  0  0  0  0  0  0
  1  2  2  0
  2  3  1  0
  4  3  2  0
  5  4  1  0
  6  5  2  0
  6  1  1  0
  7  6  1  0
  7  8  2  0
  9  8  1  0
 10  9  2  0
 11 16  2  0
 11 10  1  0
 12 11  1  0
 13 14  1  0
 13 12  2  0
 14 15  2  0
 15 16  1  0
 16  7  1  0
 17  1  1  0
 17 20  1  0
 18 23  2  0
 19 18  1  0
 20 19  2  0
 20 21  1  0
 21 22  2  0
 22 23  1  0
  2 24  1  0
  3 25  1  0
  4 26  1  0
  5 27  1  0
  8 28  1  0
  9 29  1  0
 10 30  1  0
 12 31  1  0
 13 32  1  0
 14 33  1  0
 15 34  1  0
 18 35  1  0
 19 36  1  0
 22 37  1  0
M  ISO  8  24  14  25  14  26  14  27  14  28  14  29  14  30  14  31  14
M  ISO  6  32  14  33  14  34  14  35  14  36  14  37  14
M  END
>  <minimizedAffinity>  (1) 
-5.45731544

>  <minimizedRMSD>  (1) 
1.25988591

$$$$
