
     RDKit          3D

 24 26  0  0  0  0  0  0  0  0999 V2000
   44.8050   35.1260   45.5980 C   0  0  0  0  0  0  0  0  0  0  0  0
   44.3200   35.5720   44.3700 C   0  0  0  0  0  0  0  0  0  0  0  0
   44.6750   34.8180   43.2380 C   0  0  0  0  0  0  0  0  0  0  0  0
   45.4530   33.7270   43.4090 N   0  0  0  0  0  0  0  0  0  0  0  0
   45.9080   33.3220   44.6210 C   0  0  0  0  0  0  0  0  0  0  0  0
   45.5810   34.0280   45.7150 N   0  0  0  0  0  0  0  0  0  0  0  0
   46.7240   32.1780   44.7960 N   0  0  0  0  0  0  0  0  0  0  0  0
   47.4300   31.7830   43.7160 C   0  0  0  0  0  0  0  0  0  0  0  0
   48.1510   30.6630   44.0940 C   0  0  0  0  0  0  0  0  0  0  0  0
   47.8700   30.4020   45.3850 N   0  0  0  0  0  0  0  0  0  0  0  0
   46.9980   31.3290   45.8090 C   0  0  0  0  0  0  0  0  0  0  0  0
   46.3580   31.5310   47.1050 C   0  0  0  0  0  0  0  0  0  0  0  0
   45.2190   30.8220   47.4580 C   0  0  0  0  0  0  0  0  0  0  0  0
   44.8460   31.2290   48.7440 C   0  0  0  0  0  0  0  0  0  0  0  0
   45.8030   32.1750   49.0900 C   0  0  0  0  0  0  0  0  0  0  0  0
   46.6710   32.3330   48.1220 O   0  0  0  0  0  0  0  0  0  0  0  0
   44.5456   35.6901   46.5060 H   0  0  0  0  0  0  0  0  0  0  0  0
   43.6901   36.4703   44.2904 H   0  0  0  0  0  0  0  0  0  0  0  0
   44.3273   35.1097   42.2360 H   0  0  0  0  0  0  0  0  0  0  0  0
   47.4323   32.2597   42.7247 H   0  0  0  0  0  0  0  0  0  0  0  0
   48.8339   30.0871   43.4521 H   0  0  0  0  0  0  0  0  0  0  0  0
   44.7020   30.0744   46.8385 H   0  0  0  0  0  0  0  0  0  0  0  0
   43.9918   30.8802   49.3430 H   0  0  0  0  0  0  0  0  0  0  0  0
   45.8282   32.7174   50.0466 H   0  0  0  0  0  0  0  0  0  0  0  0
  1  6  2  0
  2  1  1  0
  3  4  1  0
  3  2  2  0
  4  5  2  0
  5  7  1  0
  5  6  1  0
  7 11  1  0
  8  9  2  0
  8  7  1  0
  9 10  1  0
 10 11  2  0
 11 12  1  0
 12 13  2  0
 12 16  1  0
 13 14  1  0
 14 15  2  0
 16 15  1  0
  1 17  1  0
  2 18  1  0
  3 19  1  0
  8 20  1  0
  9 21  1  0
 13 22  1  0
 14 23  1  0
 15 24  1  0
M  ISO  8  17  14  18  14  19  14  20  14  21  14  22  14  23  14  24  14
M  END
>  <minimizedAffinity>  (1) 
-4.51987123

>  <minimizedRMSD>  (1) 
2.96968246

$$$$
