
     RDKit          3D

 31 33  0  0  0  0  0  0  0  0999 V2000
   48.7000   34.0420   41.5620 C   0  0  0  0  0  0  0  0  0  0  0  0
   49.7270   34.2200   42.4760 C   0  0  0  0  0  0  0  0  0  0  0  0
   50.8180   33.3790   42.4340 C   0  0  0  0  0  0  0  0  0  0  0  0
   50.9260   32.3500   41.5000 C   0  0  0  0  0  0  0  0  0  0  0  0
   49.8920   32.1730   40.5840 C   0  0  0  0  0  0  0  0  0  0  0  0
   48.8040   33.0280   40.6420 C   0  0  0  0  0  0  0  0  0  0  0  0
   47.7480   32.8310   39.6900 C   0  0  0  0  0  0  0  0  0  0  0  0
   46.6240   32.0450   39.8560 C   0  0  0  0  0  0  0  0  0  0  0  0
   45.6430   31.8980   38.8970 C   0  0  0  0  0  0  0  0  0  0  0  0
   45.8540   32.6100   37.7100 C   0  0  0  0  0  0  0  0  0  0  0  0
   46.9540   33.4080   37.4860 C   0  0  0  0  0  0  0  0  0  0  0  0
   47.9010   33.5150   38.4840 C   0  0  0  0  0  0  0  0  0  0  0  0
   47.3250   35.1490   41.6610 S   0  0  0  0  0  0  0  0  0  0  0  0
   44.6740   35.4050   44.7500 C   0  0  0  0  0  0  0  0  0  0  0  0
   45.3520   35.6670   43.5550 C   0  0  0  0  0  0  0  0  0  0  0  0
   46.4250   34.8740   43.1580 C   0  0  0  0  0  0  0  0  0  0  0  0
   46.7680   33.8310   44.0040 N   0  0  0  0  0  0  0  0  0  0  0  0
   46.1130   33.5860   45.1470 C   0  0  0  0  0  0  0  0  0  0  0  0
   45.0790   34.3520   45.5280 N   0  0  0  0  0  0  0  0  0  0  0  0
   49.6718   35.0229   43.2258 H   0  0  0  0  0  0  0  0  0  0  0  0
   51.6302   33.5246   43.1614 H   0  0  0  0  0  0  0  0  0  0  0  0
   51.8079   31.6927   41.4867 H   0  0  0  0  0  0  0  0  0  0  0  0
   49.9384   31.3721   39.8314 H   0  0  0  0  0  0  0  0  0  0  0  0
   46.5043   31.5055   40.8071 H   0  0  0  0  0  0  0  0  0  0  0  0
   44.7568   31.2655   39.0540 H   0  0  0  0  0  0  0  0  0  0  0  0
   45.1003   32.5276   36.9131 H   0  0  0  0  0  0  0  0  0  0  0  0
   47.0747   33.9469   36.5347 H   0  0  0  0  0  0  0  0  0  0  0  0
   48.7872   34.1473   38.3266 H   0  0  0  0  0  0  0  0  0  0  0  0
   43.8277   36.0352   45.0609 H   0  0  0  0  0  0  0  0  0  0  0  0
   45.0339   36.5086   42.9222 H   0  0  0  0  0  0  0  0  0  0  0  0
   46.4274   32.7448   45.7823 H   0  0  0  0  0  0  0  0  0  0  0  0
  1 13  1  0
  1  2  2  0
  3  2  1  0
  4  3  2  0
  5  6  2  0
  5  4  1  0
  6  1  1  0
  7  8  2  0
  7  6  1  0
  9  8  1  0
 10  9  2  0
 11 10  1  0
 11 12  2  0
 12  7  1  0
 13 16  1  0
 14 19  2  0
 15 14  1  0
 16 15  2  0
 16 17  1  0
 17 18  2  0
 18 19  1  0
  2 20  1  0
  3 21  1  0
  4 22  1  0
  5 23  1  0
  8 24  1  0
  9 25  1  0
 10 26  1  0
 11 27  1  0
 12 28  1  0
 14 29  1  0
 15 30  1  0
 18 31  1  0
M  ISO  8  20  14  21  14  22  14  23  14  24  14  25  14  26  14  27  14
M  ISO  4  28  14  29  14  30  14  31  14
M  END
>  <minimizedAffinity>  (1) 
-4.86002684

>  <minimizedRMSD>  (1) 
1.533324

$$$$
