
     RDKit          3D

 34 36  0  0  0  0  0  0  0  0999 V2000
   48.3410   34.0820   41.6690 C   0  0  0  0  0  0  0  0  0  0  0  0
   49.2760   34.6870   42.5070 C   0  0  0  0  0  0  0  0  0  0  0  0
   50.5170   34.1240   42.6540 C   0  0  0  0  0  0  0  0  0  0  0  0
   50.8730   32.9580   41.9870 C   0  0  0  0  0  0  0  0  0  0  0  0
   49.9470   32.3540   41.1530 C   0  0  0  0  0  0  0  0  0  0  0  0
   48.6970   32.9140   41.0000 C   0  0  0  0  0  0  0  0  0  0  0  0
   47.6210   32.3570   40.1340 C   0  0  0  0  0  0  0  0  0  0  0  0
   46.4090   31.9560   40.9510 C   0  0  0  0  0  0  0  0  0  0  0  0
   45.3620   31.7650   39.8720 C   0  0  0  0  0  0  0  0  0  0  0  0
   45.8020   32.5950   38.6880 C   0  0  0  0  0  0  0  0  0  0  0  0
   47.0450   33.3540   39.1730 C   0  0  0  0  0  0  0  0  0  0  0  0
   46.7640   34.8770   41.5390 S   0  0  0  0  0  0  0  0  0  0  0  0
   44.5260   35.9670   44.7620 C   0  0  0  0  0  0  0  0  0  0  0  0
   45.1190   35.9720   43.4920 C   0  0  0  0  0  0  0  0  0  0  0  0
   45.9800   34.9320   43.1290 C   0  0  0  0  0  0  0  0  0  0  0  0
   46.1880   33.9480   44.0780 N   0  0  0  0  0  0  0  0  0  0  0  0
   45.6100   33.9630   45.2860 C   0  0  0  0  0  0  0  0  0  0  0  0
   44.7830   34.9580   45.6400 N   0  0  0  0  0  0  0  0  0  0  0  0
   49.0196   35.6104   43.0470 H   0  0  0  0  0  0  0  0  0  0  0  0
   51.2498   34.6074   43.3168 H   0  0  0  0  0  0  0  0  0  0  0  0
   51.8741   32.5219   42.1193 H   0  0  0  0  0  0  0  0  0  0  0  0
   50.2081   31.4309   40.6148 H   0  0  0  0  0  0  0  0  0  0  0  0
   48.1179   31.5228   39.6171 H   0  0  0  0  0  0  0  0  0  0  0  0
   46.5893   31.0228   41.5047 H   0  0  0  0  0  0  0  0  0  0  0  0
   46.1277   32.6882   41.7222 H   0  0  0  0  0  0  0  0  0  0  0  0
   45.2988   30.7040   39.5887 H   0  0  0  0  0  0  0  0  0  0  0  0
   44.3680   32.0761   40.2257 H   0  0  0  0  0  0  0  0  0  0  0  0
   45.0097   33.2991   38.3939 H   0  0  0  0  0  0  0  0  0  0  0  0
   46.0159   31.9741   37.8055 H   0  0  0  0  0  0  0  0  0  0  0  0
   47.7382   33.5673   38.3460 H   0  0  0  0  0  0  0  0  0  0  0  0
   46.8358   34.3416   39.6099 H   0  0  0  0  0  0  0  0  0  0  0  0
   43.8483   36.7837   45.0516 H   0  0  0  0  0  0  0  0  0  0  0  0
   44.9084   36.7886   42.7857 H   0  0  0  0  0  0  0  0  0  0  0  0
   45.8160   33.1492   45.9968 H   0  0  0  0  0  0  0  0  0  0  0  0
  1  2  2  0
  2  3  1  0
  4  3  2  0
  5  4  1  0
  6  5  2  0
  6  1  1  0
  7  8  1  0
  7  6  1  0
  9  8  1  0
 10 11  1  0
 10  9  1  0
 11  7  1  0
 12  1  1  0
 12 15  1  0
 13 18  2  0
 14 13  1  0
 15 14  2  0
 15 16  1  0
 16 17  2  0
 17 18  1  0
  2 19  1  0
  3 20  1  0
  4 21  1  0
  5 22  1  0
  7 23  1  0
  8 24  1  0
  8 25  1  0
  9 26  1  0
  9 27  1  0
 10 28  1  0
 10 29  1  0
 11 30  1  0
 11 31  1  0
 13 32  1  0
 14 33  1  0
 17 34  1  0
M  ISO  8  19  14  20  14  21  14  22  14  23  13  24  13  25  13  26  13
M  ISO  8  27  13  28  13  29  13  30  13  31  13  32  14  33  14  34  14
M  END
>  <minimizedAffinity>  (1) 
-4.78693247

>  <minimizedRMSD>  (1) 
0.479250789

$$$$
