
     RDKit          3D

 28 30  0  0  0  0  0  0  0  0999 V2000
   48.3450   33.9820   41.7030 C   0  0  0  0  0  0  0  0  0  0  0  0
   49.2420   34.7550   42.4140 C   0  0  0  0  0  0  0  0  0  0  0  0
   50.5240   34.2740   42.6050 C   0  0  0  0  0  0  0  0  0  0  0  0
   50.9210   33.0320   42.0970 C   0  0  0  0  0  0  0  0  0  0  0  0
   50.0180   32.2600   41.3830 C   0  0  0  0  0  0  0  0  0  0  0  0
   48.7530   32.7510   41.2040 C   0  0  0  0  0  0  0  0  0  0  0  0
   47.6950   32.0770   40.4880 N   0  0  0  0  0  0  0  0  0  0  0  0
   46.7390   31.2700   40.9990 C   0  0  0  0  0  0  0  0  0  0  0  0
   45.9500   30.8580   39.9420 C   0  0  0  0  0  0  0  0  0  0  0  0
   46.4520   31.4290   38.8230 N   0  0  0  0  0  0  0  0  0  0  0  0
   47.5230   32.1760   39.1700 C   0  0  0  0  0  0  0  0  0  0  0  0
   46.7170   34.6620   41.4950 S   0  0  0  0  0  0  0  0  0  0  0  0
   44.5420   36.0710   44.6250 C   0  0  0  0  0  0  0  0  0  0  0  0
   45.1390   35.9660   43.3630 C   0  0  0  0  0  0  0  0  0  0  0  0
   45.9330   34.8560   43.0740 C   0  0  0  0  0  0  0  0  0  0  0  0
   46.0830   33.9120   44.0680 N   0  0  0  0  0  0  0  0  0  0  0  0
   45.5020   34.0370   45.2650 C   0  0  0  0  0  0  0  0  0  0  0  0
   44.7290   35.1090   45.5570 N   0  0  0  0  0  0  0  0  0  0  0  0
   48.9427   35.7327   42.8197 H   0  0  0  0  0  0  0  0  0  0  0  0
   51.2478   34.8809   43.1687 H   0  0  0  0  0  0  0  0  0  0  0  0
   51.9461   32.6696   42.2637 H   0  0  0  0  0  0  0  0  0  0  0  0
   50.3093   31.2819   40.9725 H   0  0  0  0  0  0  0  0  0  0  0  0
   46.6128   30.9935   42.0562 H   0  0  0  0  0  0  0  0  0  0  0  0
   45.0773   30.1908   39.9996 H   0  0  0  0  0  0  0  0  0  0  0  0
   48.1468   32.7655   38.4820 H   0  0  0  0  0  0  0  0  0  0  0  0
   43.9152   36.9437   44.8606 H   0  0  0  0  0  0  0  0  0  0  0  0
   44.9837   36.7503   42.6075 H   0  0  0  0  0  0  0  0  0  0  0  0
   45.6544   33.2564   46.0249 H   0  0  0  0  0  0  0  0  0  0  0  0
  1  2  2  0
  2  3  1  0
  4  3  2  0
  5  4  1  0
  6  5  2  0
  6  1  1  0
  7  8  1  0
  7  6  1  0
  9  8  2  0
 10 11  2  0
 10  9  1  0
 11  7  1  0
 12  1  1  0
 12 15  1  0
 13 18  2  0
 14 13  1  0
 15 14  2  0
 15 16  1  0
 16 17  2  0
 17 18  1  0
  2 19  1  0
  3 20  1  0
  4 21  1  0
  5 22  1  0
  8 23  1  0
  9 24  1  0
 11 25  1  0
 13 26  1  0
 14 27  1  0
 17 28  1  0
M  ISO  8  19  14  20  14  21  14  22  14  23  14  24  14  25  14  26  14
M  ISO  2  27  14  28  14
M  END
>  <minimizedAffinity>  (1) 
-4.70091391

>  <minimizedRMSD>  (1) 
0.150523454

$$$$
