
     RDKit          3D

 26 28  0  0  0  0  0  0  0  0999 V2000
   48.3450   33.9720   41.6590 C   0  0  0  0  0  0  0  0  0  0  0  0
   49.2260   34.7130   42.4320 C   0  0  0  0  0  0  0  0  0  0  0  0
   50.5070   34.2270   42.6210 C   0  0  0  0  0  0  0  0  0  0  0  0
   50.9190   33.0200   42.0550 C   0  0  0  0  0  0  0  0  0  0  0  0
   50.0200   32.2770   41.2750 C   0  0  0  0  0  0  0  0  0  0  0  0
   48.7630   32.7820   41.1050 C   0  0  0  0  0  0  0  0  0  0  0  0
   47.8140   32.0230   40.2970 C   0  0  0  0  0  0  0  0  0  0  0  0
   46.9670   31.0550   40.7170 N   0  0  0  0  0  0  0  0  0  0  0  0
   46.2920   30.6310   39.6860 O   0  0  0  0  0  0  0  0  0  0  0  0
   46.6400   31.2630   38.5900 C   0  0  0  0  0  0  0  0  0  0  0  0
   47.5940   32.1400   38.9570 N   0  0  0  0  0  0  0  0  0  0  0  0
   46.7140   34.6430   41.4490 S   0  0  0  0  0  0  0  0  0  0  0  0
   44.5560   36.0800   44.5930 C   0  0  0  0  0  0  0  0  0  0  0  0
   45.1430   35.9820   43.3200 C   0  0  0  0  0  0  0  0  0  0  0  0
   45.9350   34.8520   43.0250 C   0  0  0  0  0  0  0  0  0  0  0  0
   46.0810   33.9110   44.0160 N   0  0  0  0  0  0  0  0  0  0  0  0
   45.5080   34.0290   45.2270 C   0  0  0  0  0  0  0  0  0  0  0  0
   44.7460   35.1060   45.5240 N   0  0  0  0  0  0  0  0  0  0  0  0
   48.9132   35.6656   42.8845 H   0  0  0  0  0  0  0  0  0  0  0  0
   51.2168   34.8049   43.2311 H   0  0  0  0  0  0  0  0  0  0  0  0
   51.9429   32.6530   42.2194 H   0  0  0  0  0  0  0  0  0  0  0  0
   50.3172   31.3221   40.8170 H   0  0  0  0  0  0  0  0  0  0  0  0
   46.2355   31.1083   37.5788 H   0  0  0  0  0  0  0  0  0  0  0  0
   43.9357   36.9543   44.8397 H   0  0  0  0  0  0  0  0  0  0  0  0
   44.9882   36.7703   42.5686 H   0  0  0  0  0  0  0  0  0  0  0  0
   45.6603   33.2434   45.9817 H   0  0  0  0  0  0  0  0  0  0  0  0
  1  2  2  0
  2  3  1  0
  4  3  2  0
  5  4  1  0
  6  5  2  0
  6  1  1  0
  7  8  2  0
  7  6  1  0
  9  8  1  0
 10 11  2  0
 10  9  1  0
 11  7  1  0
 12  1  1  0
 12 15  1  0
 13 18  2  0
 14 13  1  0
 15 14  2  0
 15 16  1  0
 16 17  2  0
 17 18  1  0
  2 19  1  0
  3 20  1  0
  4 21  1  0
  5 22  1  0
 10 23  1  0
 13 24  1  0
 14 25  1  0
 17 26  1  0
M  ISO  8  19  14  20  14  21  14  22  14  23  14  24  14  25  14  26  14
M  END
>  <minimizedAffinity>  (1) 
-4.6946106

>  <minimizedRMSD>  (1) 
0.229360744

$$$$
