
     RDKit          3D

 27 29  0  0  0  0  0  0  0  0999 V2000
   48.3240   34.0110   41.7430 C   0  0  0  0  0  0  0  0  0  0  0  0
   49.2490   34.7740   42.4530 C   0  0  0  0  0  0  0  0  0  0  0  0
   50.5320   34.2970   42.6240 C   0  0  0  0  0  0  0  0  0  0  0  0
   50.9230   33.0570   42.0960 C   0  0  0  0  0  0  0  0  0  0  0  0
   49.9870   32.3020   41.3850 C   0  0  0  0  0  0  0  0  0  0  0  0
   48.7200   32.7880   41.2250 C   0  0  0  0  0  0  0  0  0  0  0  0
   47.6700   32.1210   40.5240 N   0  0  0  0  0  0  0  0  0  0  0  0
   46.7110   31.2620   40.9800 C   0  0  0  0  0  0  0  0  0  0  0  0
   45.9270   30.8780   39.9540 N   0  0  0  0  0  0  0  0  0  0  0  0
   46.3930   31.4970   38.8550 C   0  0  0  0  0  0  0  0  0  0  0  0
   47.4520   32.2470   39.2240 N   0  0  0  0  0  0  0  0  0  0  0  0
   46.6930   34.6920   41.5650 S   0  0  0  0  0  0  0  0  0  0  0  0
   44.5060   35.9770   44.7570 C   0  0  0  0  0  0  0  0  0  0  0  0
   45.0850   35.9160   43.4830 C   0  0  0  0  0  0  0  0  0  0  0  0
   45.9250   34.8260   43.1710 C   0  0  0  0  0  0  0  0  0  0  0  0
   46.1350   33.8680   44.1490 N   0  0  0  0  0  0  0  0  0  0  0  0
   45.5580   33.9650   45.3600 C   0  0  0  0  0  0  0  0  0  0  0  0
   44.7590   34.9990   45.6610 N   0  0  0  0  0  0  0  0  0  0  0  0
   48.9586   35.7481   42.8734 H   0  0  0  0  0  0  0  0  0  0  0  0
   51.2619   34.8996   43.1845 H   0  0  0  0  0  0  0  0  0  0  0  0
   51.9486   32.6860   42.2394 H   0  0  0  0  0  0  0  0  0  0  0  0
   50.2668   31.3273   40.9588 H   0  0  0  0  0  0  0  0  0  0  0  0
   46.5965   30.9343   42.0238 H   0  0  0  0  0  0  0  0  0  0  0  0
   45.9841   31.4079   37.8377 H   0  0  0  0  0  0  0  0  0  0  0  0
   43.8474   36.8168   45.0234 H   0  0  0  0  0  0  0  0  0  0  0  0
   44.8886   36.7029   42.7399 H   0  0  0  0  0  0  0  0  0  0  0  0
   45.7440   33.1857   46.1137 H   0  0  0  0  0  0  0  0  0  0  0  0
  1  2  2  0
  2  3  1  0
  4  3  2  0
  5  4  1  0
  6  5  2  0
  6  1  1  0
  7  8  1  0
  7  6  1  0
  9  8  2  0
 10 11  2  0
 10  9  1  0
 11  7  1  0
 12  1  1  0
 12 15  1  0
 13 18  2  0
 14 13  1  0
 15 14  2  0
 15 16  1  0
 16 17  2  0
 17 18  1  0
  2 19  1  0
  3 20  1  0
  4 21  1  0
  5 22  1  0
  8 23  1  0
 10 24  1  0
 13 25  1  0
 14 26  1  0
 17 27  1  0
M  ISO  8  19  14  20  14  21  14  22  14  23  14  24  14  25  14  26  14
M  ISO  1  27  14
M  END
>  <minimizedAffinity>  (1) 
-4.68520832

>  <minimizedRMSD>  (1) 
0.193644106

$$$$
