
     RDKit          3D

 28 29  0  0  0  0  0  0  0  0999 V2000
   48.3220   33.9690   41.6580 C   0  0  0  0  0  0  0  0  0  0  0  0
   49.2030   34.6900   42.4430 C   0  0  0  0  0  0  0  0  0  0  0  0
   50.4820   34.2250   42.6320 C   0  0  0  0  0  0  0  0  0  0  0  0
   50.9080   33.0390   42.0490 C   0  0  0  0  0  0  0  0  0  0  0  0
   50.0190   32.3240   41.2650 C   0  0  0  0  0  0  0  0  0  0  0  0
   48.7450   32.7760   41.0690 C   0  0  0  0  0  0  0  0  0  0  0  0
   47.7510   32.1170   40.2980 N   0  0  0  0  0  0  0  0  0  0  0  0
   47.8250   32.0410   38.8810 C   0  0  0  0  0  0  0  0  0  0  0  0
   48.0340   33.1250   38.2230 N   0  0  0  0  0  0  0  0  0  0  0  0
   47.6580   30.7940   38.1880 N   0  0  0  0  0  0  0  0  0  0  0  0
   48.1600   34.0720   38.5990 H   0  0  0  0  0  0  0  0  0  0  0  0
   46.6950   34.6620   41.4760 S   0  0  0  0  0  0  0  0  0  0  0  0
   44.5550   36.0800   44.6180 C   0  0  0  0  0  0  0  0  0  0  0  0
   45.1430   35.9850   43.3340 C   0  0  0  0  0  0  0  0  0  0  0  0
   45.9250   34.8580   43.0520 C   0  0  0  0  0  0  0  0  0  0  0  0
   46.0740   33.9070   44.0420 N   0  0  0  0  0  0  0  0  0  0  0  0
   45.5090   34.0170   45.2470 C   0  0  0  0  0  0  0  0  0  0  0  0
   44.7460   35.0970   45.5520 N   0  0  0  0  0  0  0  0  0  0  0  0
   48.8815   35.6308   42.9136 H   0  0  0  0  0  0  0  0  0  0  0  0
   51.1804   34.8021   43.2558 H   0  0  0  0  0  0  0  0  0  0  0  0
   51.9336   32.6741   42.2073 H   0  0  0  0  0  0  0  0  0  0  0  0
   50.3415   31.3830   40.7954 H   0  0  0  0  0  0  0  0  0  0  0  0
   46.9523   31.6809   40.7805 H   0  0  0  0  0  0  0  0  0  0  0  0
   47.7160   30.7643   37.1601 H   0  0  0  0  0  0  0  0  0  0  0  0
   47.4803   29.9295   38.7190 H   0  0  0  0  0  0  0  0  0  0  0  0
   43.9368   36.9546   44.8688 H   0  0  0  0  0  0  0  0  0  0  0  0
   44.9904   36.7721   42.5809 H   0  0  0  0  0  0  0  0  0  0  0  0
   45.6630   33.2272   45.9970 H   0  0  0  0  0  0  0  0  0  0  0  0
  1  2  2  0
  2  3  1  0
  4  3  2  0
  5  4  1  0
  6  5  2  0
  6  1  1  0
  7  6  1  0
  8  7  1  0
  9 11  1  0
  9  8  2  0
 10  8  1  0
 12  1  1  0
 12 15  1  0
 13 18  2  0
 14 13  1  0
 15 14  2  0
 15 16  1  0
 16 17  2  0
 17 18  1  0
  2 19  1  0
  3 20  1  0
  4 21  1  0
  5 22  1  0
  7 23  1  0
 10 24  1  0
 10 25  1  0
 13 26  1  0
 14 27  1  0
 17 28  1  0
M  ISO  7  19  14  20  14  21  14  22  14  26  14  27  14  28  14
M  END
>  <minimizedAffinity>  (1) 
-4.68495035

>  <minimizedRMSD>  (1) 
0.645128071

$$$$
