
     RDKit          3D

 28 30  0  0  0  0  0  0  0  0999 V2000
   48.3250   33.9850   41.6740 C   0  0  0  0  0  0  0  0  0  0  0  0
   49.2260   34.7220   42.4400 C   0  0  0  0  0  0  0  0  0  0  0  0
   50.5120   34.2380   42.6270 C   0  0  0  0  0  0  0  0  0  0  0  0
   50.9220   33.0380   42.0710 C   0  0  0  0  0  0  0  0  0  0  0  0
   50.0240   32.3170   41.3170 C   0  0  0  0  0  0  0  0  0  0  0  0
   48.7350   32.7980   41.1260 C   0  0  0  0  0  0  0  0  0  0  0  0
   47.8490   31.9790   40.3190 C   0  0  0  0  0  0  0  0  0  0  0  0
   47.7660   32.0260   38.9270 C   0  0  0  0  0  0  0  0  0  0  0  0
   46.8670   31.1640   38.4400 N   0  0  0  0  0  0  0  0  0  0  0  0
   46.3310   30.5220   39.5080 C   0  0  0  0  0  0  0  0  0  0  0  0
   46.9390   31.0360   40.5760 N   0  0  0  0  0  0  0  0  0  0  0  0
   46.7220   34.6790   41.4950 S   0  0  0  0  0  0  0  0  0  0  0  0
   44.5450   36.0770   44.6220 C   0  0  0  0  0  0  0  0  0  0  0  0
   45.1370   35.9870   43.3560 C   0  0  0  0  0  0  0  0  0  0  0  0
   45.9330   34.8750   43.0700 C   0  0  0  0  0  0  0  0  0  0  0  0
   46.0930   33.9170   44.0560 N   0  0  0  0  0  0  0  0  0  0  0  0
   45.5120   34.0290   45.2620 C   0  0  0  0  0  0  0  0  0  0  0  0
   44.7360   35.1040   45.5550 N   0  0  0  0  0  0  0  0  0  0  0  0
   48.9205   35.6774   42.8915 H   0  0  0  0  0  0  0  0  0  0  0  0
   51.2229   34.8209   43.2310 H   0  0  0  0  0  0  0  0  0  0  0  0
   51.9458   32.6679   42.2288 H   0  0  0  0  0  0  0  0  0  0  0  0
   50.3270   31.3605   40.8660 H   0  0  0  0  0  0  0  0  0  0  0  0
   48.3721   32.6969   38.3004 H   0  0  0  0  0  0  0  0  0  0  0  0
   45.5567   29.7408   39.4949 H   0  0  0  0  0  0  0  0  0  0  0  0
   46.7221   30.7273   41.5344 H   0  0  0  0  0  0  0  0  0  0  0  0
   43.9167   36.9463   44.8661 H   0  0  0  0  0  0  0  0  0  0  0  0
   44.9789   36.7740   42.6039 H   0  0  0  0  0  0  0  0  0  0  0  0
   45.6660   33.2444   46.0174 H   0  0  0  0  0  0  0  0  0  0  0  0
  1  2  2  0
  2  3  1  0
  4  3  2  0
  5  4  1  0
  6  5  2  0
  6  1  1  0
  7 11  1  0
  7  6  1  0
  8  7  2  0
  9  8  1  0
  9 10  2  0
 10 11  1  0
 12  1  1  0
 12 15  1  0
 13 18  2  0
 14 13  1  0
 15 14  2  0
 15 16  1  0
 16 17  2  0
 17 18  1  0
  2 19  1  0
  3 20  1  0
  4 21  1  0
  5 22  1  0
  8 23  1  0
 10 24  1  0
 11 25  1  0
 13 26  1  0
 14 27  1  0
 17 28  1  0
M  ISO  8  19  14  20  14  21  14  22  14  23  14  24  14  25   9  26  14
M  ISO  2  27  14  28  14
M  END
>  <minimizedAffinity>  (1) 
-4.68493128

>  <minimizedRMSD>  (1) 
0.398059756

$$$$
