
     RDKit          3D

 28 30  0  0  0  0  0  0  0  0999 V2000
   48.3150   33.9920   41.6650 C   0  0  0  0  0  0  0  0  0  0  0  0
   49.2320   34.7100   42.4440 C   0  0  0  0  0  0  0  0  0  0  0  0
   50.4960   34.2160   42.6190 C   0  0  0  0  0  0  0  0  0  0  0  0
   50.9000   33.0010   42.0360 C   0  0  0  0  0  0  0  0  0  0  0  0
   49.9930   32.2780   41.2580 C   0  0  0  0  0  0  0  0  0  0  0  0
   48.7440   32.8090   41.1100 C   0  0  0  0  0  0  0  0  0  0  0  0
   47.8090   32.0340   40.2910 C   0  0  0  0  0  0  0  0  0  0  0  0
   46.9500   31.0710   40.5790 C   0  0  0  0  0  0  0  0  0  0  0  0
   46.1820   30.5090   39.5960 C   0  0  0  0  0  0  0  0  0  0  0  0
   46.3630   31.0080   38.3140 C   0  0  0  0  0  0  0  0  0  0  0  0
   47.6900   32.3410   38.5100 S   0  0  0  0  0  0  0  0  0  0  0  0
   46.7020   34.6590   41.4630 S   0  0  0  0  0  0  0  0  0  0  0  0
   44.5530   36.0780   44.6150 C   0  0  0  0  0  0  0  0  0  0  0  0
   45.1370   35.9840   43.3430 C   0  0  0  0  0  0  0  0  0  0  0  0
   45.9260   34.8600   43.0460 C   0  0  0  0  0  0  0  0  0  0  0  0
   46.0860   33.8960   44.0420 N   0  0  0  0  0  0  0  0  0  0  0  0
   45.5120   34.0240   45.2420 C   0  0  0  0  0  0  0  0  0  0  0  0
   44.7450   35.1010   45.5500 N   0  0  0  0  0  0  0  0  0  0  0  0
   48.9385   35.6619   42.9105 H   0  0  0  0  0  0  0  0  0  0  0  0
   51.2137   34.7826   43.2304 H   0  0  0  0  0  0  0  0  0  0  0  0
   51.9215   32.6237   42.1916 H   0  0  0  0  0  0  0  0  0  0  0  0
   50.2722   31.3244   40.7861 H   0  0  0  0  0  0  0  0  0  0  0  0
   46.8521   30.7191   41.6166 H   0  0  0  0  0  0  0  0  0  0  0  0
   45.4611   29.7062   39.8101 H   0  0  0  0  0  0  0  0  0  0  0  0
   45.8502   30.6981   37.3915 H   0  0  0  0  0  0  0  0  0  0  0  0
   43.9315   36.9511   44.8630 H   0  0  0  0  0  0  0  0  0  0  0  0
   44.9805   36.7739   42.5936 H   0  0  0  0  0  0  0  0  0  0  0  0
   45.6644   33.2390   45.9973 H   0  0  0  0  0  0  0  0  0  0  0  0
  1  2  2  0
  2  3  1  0
  4  3  2  0
  5  4  1  0
  6  5  2  0
  6  1  1  0
  7  8  2  0
  7  6  1  0
  9  8  1  0
 10 11  1  0
 10  9  2  0
 11  7  1  0
 12  1  1  0
 12 15  1  0
 13 18  2  0
 14 13  1  0
 15 14  2  0
 15 16  1  0
 16 17  2  0
 17 18  1  0
  2 19  1  0
  3 20  1  0
  4 21  1  0
  5 22  1  0
  8 23  1  0
  9 24  1  0
 10 25  1  0
 13 26  1  0
 14 27  1  0
 17 28  1  0
M  ISO  8  19  14  20  14  21  14  22  14  23  14  24  14  25  14  26  14
M  ISO  2  27  14  28  14
M  END
>  <minimizedAffinity>  (1) 
-4.68312693

>  <minimizedRMSD>  (1) 
0.375231266

$$$$
