
     RDKit          3D

 22 23  0  0  0  0  0  0  0  0999 V2000
   48.3140   33.9380   41.7020 C   0  0  0  0  0  0  0  0  0  0  0  0
   49.1940   34.7470   42.4120 C   0  0  0  0  0  0  0  0  0  0  0  0
   50.4780   34.3070   42.6050 C   0  0  0  0  0  0  0  0  0  0  0  0
   50.9310   33.0800   42.1150 C   0  0  0  0  0  0  0  0  0  0  0  0
   50.0380   32.2700   41.4000 C   0  0  0  0  0  0  0  0  0  0  0  0
   48.7590   32.7150   41.2120 C   0  0  0  0  0  0  0  0  0  0  0  0
   47.5880   31.6960   40.2970 S   0  0  0  0  0  0  0  0  0  0  0  0
   46.6640   34.5500   41.4790 S   0  0  0  0  0  0  0  0  0  0  0  0
   44.5570   36.0900   44.5930 C   0  0  0  0  0  0  0  0  0  0  0  0
   45.1340   35.9590   43.3130 C   0  0  0  0  0  0  0  0  0  0  0  0
   45.8970   34.8070   43.0560 C   0  0  0  0  0  0  0  0  0  0  0  0
   46.0280   33.8850   44.0690 N   0  0  0  0  0  0  0  0  0  0  0  0
   45.4650   34.0470   45.2670 C   0  0  0  0  0  0  0  0  0  0  0  0
   44.7210   35.1470   45.5530 N   0  0  0  0  0  0  0  0  0  0  0  0
   48.8671   35.7189   42.8102 H   0  0  0  0  0  0  0  0  0  0  0  0
   51.1773   34.9439   43.1665 H   0  0  0  0  0  0  0  0  0  0  0  0
   51.9680   32.7558   42.2868 H   0  0  0  0  0  0  0  0  0  0  0  0
   50.3593   31.2974   40.9989 H   0  0  0  0  0  0  0  0  0  0  0  0
   46.7964   31.0072   41.1778 H   0  0  0  0  0  0  0  0  0  0  0  0
   43.9563   36.9834   44.8191 H   0  0  0  0  0  0  0  0  0  0  0  0
   44.9919   36.7313   42.5427 H   0  0  0  0  0  0  0  0  0  0  0  0
   45.6057   33.2753   46.0382 H   0  0  0  0  0  0  0  0  0  0  0  0
  1  2  2  0
  2  3  1  0
  4  3  2  0
  5  4  1  0
  6  5  2  0
  6  1  1  0
  7  6  1  0
  8  1  1  0
  8 11  1  0
  9 14  2  0
 10  9  1  0
 11 10  2  0
 11 12  1  0
 12 13  2  0
 13 14  1  0
  2 15  1  0
  3 16  1  0
  4 17  1  0
  5 18  1  0
  7 19  1  0
  9 20  1  0
 10 21  1  0
 13 22  1  0
M  ISO  8  15  14  16  14  17  14  18  14  19  11  20  14  21  14  22  14
M  END
>  <minimizedAffinity>  (1) 
-4.61352682

>  <minimizedRMSD>  (1) 
0.0299234428

$$$$
