
     RDKit          3D

 46 48  0  0  1  0  0  0  0  0999 V2000
   47.7140   33.4370   43.3500 C   0  0  0  0  0  0  0  0  0  0  0  0
   47.8880   34.6610   41.1750 C   0  0  2  0  0  0  0  0  0  0  0  0
   48.6980   35.7340   41.5920 C   0  0  0  0  0  0  0  0  0  0  0  0
   49.9560   35.1220   42.2600 C   0  0  0  0  0  0  0  0  0  0  0  0
   49.8360   33.6080   42.1650 C   0  0  0  0  0  0  0  0  0  0  0  0
   48.3960   33.4290   42.0170 C   0  0  1  0  0  0  0  0  0  0  0  0
   47.8840   34.1530   39.7750 C   0  0  0  0  0  0  0  0  0  0  0  0
   48.5430   34.9030   38.8300 C   0  0  0  0  0  0  0  0  0  0  0  0
   48.5850   34.4970   37.5170 C   0  0  0  0  0  0  0  0  0  0  0  0
   47.9370   33.3230   37.2400 N   0  0  0  0  0  0  0  0  0  0  0  0
   47.3070   32.6220   38.1780 C   0  0  0  0  0  0  0  0  0  0  0  0
   47.2680   33.0210   39.4580 N   0  0  0  0  0  0  0  0  0  0  0  0
   46.2550   33.1330   43.2250 C   0  0  0  0  0  0  0  0  0  0  0  0
   45.5460   34.0960   44.1140 C   0  0  0  0  0  0  0  0  0  0  0  0
   44.9270   35.2640   43.7930 C   0  0  0  0  0  0  0  0  0  0  0  0
   44.4180   35.8070   44.9280 N   0  0  0  0  0  0  0  0  0  0  0  0
   44.7220   34.9810   45.9320 C   0  0  0  0  0  0  0  0  0  0  0  0
   45.4000   33.9450   45.4590 N   0  0  0  0  0  0  0  0  0  0  0  0
   45.9050   32.8170   46.2450 C   0  0  0  0  0  0  0  0  0  0  0  0
   45.2920   32.8880   47.5560 N   0  0  0  0  0  0  0  0  0  0  0  0
   45.0570   31.7520   48.3680 C   0  0  0  0  0  0  0  0  0  0  0  0
   44.7130   30.6600   47.7300 N   0  0  0  0  0  0  0  0  0  0  0  0
   45.1980   31.8350   49.8000 N   0  0  0  0  0  0  0  0  0  0  0  0
   44.5180   29.7640   48.2410 H   0  0  0  0  0  0  0  0  0  0  0  0
   48.1824   32.6790   43.9950 H   0  0  0  0  0  0  0  0  0  0  0  0
   47.8196   34.4423   43.7839 H   0  0  0  0  0  0  0  0  0  0  0  0
   46.8741   35.0692   41.2992 H   0  0  0  0  0  0  0  0  0  0  0  0
   48.9904   36.3452   40.7254 H   0  0  0  0  0  0  0  0  0  0  0  0
   48.1568   36.3827   42.2965 H   0  0  0  0  0  0  0  0  0  0  0  0
   50.8616   35.4603   41.7352 H   0  0  0  0  0  0  0  0  0  0  0  0
   50.0286   35.4389   43.3109 H   0  0  0  0  0  0  0  0  0  0  0  0
   50.3795   33.2176   41.2920 H   0  0  0  0  0  0  0  0  0  0  0  0
   50.2642   33.0733   43.0257 H   0  0  0  0  0  0  0  0  0  0  0  0
   48.1743   32.4665   41.5328 H   0  0  0  0  0  0  0  0  0  0  0  0
   49.0417   35.8373   39.1272 H   0  0  0  0  0  0  0  0  0  0  0  0
   49.1049   35.0771   36.7403 H   0  0  0  0  0  0  0  0  0  0  0  0
   46.8024   31.6863   37.8956 H   0  0  0  0  0  0  0  0  0  0  0  0
   45.9270   33.2647   42.1833 H   0  0  0  0  0  0  0  0  0  0  0  0
   46.0388   32.0931   43.5112 H   0  0  0  0  0  0  0  0  0  0  0  0
   44.8517   35.6955   42.7840 H   0  0  0  0  0  0  0  0  0  0  0  0
   44.4519   35.1361   46.9870 H   0  0  0  0  0  0  0  0  0  0  0  0
   45.6365   31.8689   45.7561 H   0  0  0  0  0  0  0  0  0  0  0  0
   47.0009   32.8633   46.3277 H   0  0  0  0  0  0  0  0  0  0  0  0
   45.0129   33.8120   47.9156 H   0  0  0  0  0  0  0  0  0  0  0  0
   45.0252   31.0040   50.3835 H   0  0  0  0  0  0  0  0  0  0  0  0
   45.4715   32.7253   50.2398 H   0  0  0  0  0  0  0  0  0  0  0  0
  2  3  1  0
  2  6  1  0
  3  4  1  0
  5  4  1  0
  6  5  1  0
  6  1  1  0
  7  2  1  0
  8  7  2  0
  9  8  1  0
 10  9  2  0
 10 11  1  0
 11 12  2  0
 12  7  1  0
 13  1  1  0
 13 14  1  0
 14 18  1  0
 15 14  2  0
 15 16  1  0
 16 17  2  0
 18 17  1  0
 18 19  1  0
 19 20  1  0
 20 21  1  0
 21 23  1  0
 22 24  1  0
 22 21  2  0
  1 25  1  0
  1 26  1  0
  2 27  1  1
  3 28  1  0
  3 29  1  0
  4 30  1  0
  4 31  1  0
  5 32  1  0
  5 33  1  0
  6 34  1  6
  8 35  1  0
  9 36  1  0
 11 37  1  0
 13 38  1  0
 13 39  1  0
 15 40  1  0
 17 41  1  0
 19 42  1  0
 19 43  1  0
 20 44  1  0
 23 45  1  0
 23 46  1  0
M  ISO  8  25   8  26   8  27  13  28  13  29  13  30  13  31  13  32  13
M  ISO  8  33  13  34  13  35  14  36  14  37  14  38   8  39   8  40  14
M  ISO  3  41  14  42   8  43   8
M  END
>  <minimizedAffinity>  (1) 
-6.5816412

>  <minimizedRMSD>  (1) 
0.822185159

$$$$
