
     RDKit          3D

 23 24  0  0  0  0  0  0  0  0999 V2000
   48.3010   33.9130   41.6910 C   0  0  0  0  0  0  0  0  0  0  0  0
   49.1870   34.7250   42.3880 C   0  0  0  0  0  0  0  0  0  0  0  0
   50.4780   34.2940   42.5880 C   0  0  0  0  0  0  0  0  0  0  0  0
   50.9230   33.0570   42.1070 C   0  0  0  0  0  0  0  0  0  0  0  0
   50.0390   32.2500   41.4120 C   0  0  0  0  0  0  0  0  0  0  0  0
   48.7460   32.6910   41.2170 C   0  0  0  0  0  0  0  0  0  0  0  0
   47.7130   31.9710   40.5180 N   0  0  0  0  0  0  0  0  0  0  0  0
   46.6550   34.5440   41.4770 S   0  0  0  0  0  0  0  0  0  0  0  0
   44.5540   36.0960   44.5980 C   0  0  0  0  0  0  0  0  0  0  0  0
   45.1410   35.9330   43.3260 C   0  0  0  0  0  0  0  0  0  0  0  0
   45.8970   34.7940   43.0570 C   0  0  0  0  0  0  0  0  0  0  0  0
   46.0280   33.8740   44.0730 N   0  0  0  0  0  0  0  0  0  0  0  0
   45.4670   34.0400   45.2730 C   0  0  0  0  0  0  0  0  0  0  0  0
   44.7310   35.1350   45.5560 N   0  0  0  0  0  0  0  0  0  0  0  0
   48.8600   35.7012   42.7754 H   0  0  0  0  0  0  0  0  0  0  0  0
   51.1785   34.9379   43.1400 H   0  0  0  0  0  0  0  0  0  0  0  0
   51.9595   32.7313   42.2788 H   0  0  0  0  0  0  0  0  0  0  0  0
   50.3617   31.2735   41.0217 H   0  0  0  0  0  0  0  0  0  0  0  0
   46.7734   32.3820   40.4222 H   0  0  0  0  0  0  0  0  0  0  0  0
   47.9138   31.0451   40.1139 H   0  0  0  0  0  0  0  0  0  0  0  0
   43.9560   36.9924   44.8192 H   0  0  0  0  0  0  0  0  0  0  0  0
   45.0027   36.7009   42.5506 H   0  0  0  0  0  0  0  0  0  0  0  0
   45.6074   33.2697   46.0456 H   0  0  0  0  0  0  0  0  0  0  0  0
  1  2  2  0
  2  3  1  0
  4  3  2  0
  5  4  1  0
  6  5  2  0
  6  1  1  0
  7  6  1  0
  8  1  1  0
  8 11  1  0
  9 14  2  0
 10  9  1  0
 11 10  2  0
 11 12  1  0
 12 13  2  0
 13 14  1  0
  2 15  1  0
  3 16  1  0
  4 17  1  0
  5 18  1  0
  7 19  1  0
  7 20  1  0
  9 21  1  0
 10 22  1  0
 13 23  1  0
M  ISO  7  15  14  16  14  17  14  18  14  21  14  22  14  23  14
M  END
>  <minimizedAffinity>  (1) 
-4.60885763

>  <minimizedRMSD>  (1) 
0.0174869336

$$$$
