
     RDKit          3D

 30 31  0  0  0  0  0  0  0  0999 V2000
   48.2910   34.0110   41.7460 C   0  0  0  0  0  0  0  0  0  0  0  0
   49.2270   34.7600   42.4440 C   0  0  0  0  0  0  0  0  0  0  0  0
   50.5150   34.2780   42.6070 C   0  0  0  0  0  0  0  0  0  0  0  0
   50.8980   33.0370   42.0780 C   0  0  0  0  0  0  0  0  0  0  0  0
   49.9640   32.2890   41.3810 C   0  0  0  0  0  0  0  0  0  0  0  0
   48.7020   32.7980   41.2410 C   0  0  0  0  0  0  0  0  0  0  0  0
   47.7080   31.9860   40.4910 C   0  0  0  0  0  0  0  0  0  0  0  0
   46.6420   31.4750   41.4290 C   0  0  0  0  0  0  0  0  0  0  0  0
   47.1400   32.7260   39.2990 C   0  0  0  0  0  0  0  0  0  0  0  0
   46.6700   34.6810   41.5740 S   0  0  0  0  0  0  0  0  0  0  0  0
   44.4970   35.9680   44.7750 C   0  0  0  0  0  0  0  0  0  0  0  0
   45.0680   35.9090   43.4930 C   0  0  0  0  0  0  0  0  0  0  0  0
   45.9110   34.8260   43.1770 C   0  0  0  0  0  0  0  0  0  0  0  0
   46.1220   33.8800   44.1660 N   0  0  0  0  0  0  0  0  0  0  0  0
   45.5580   33.9750   45.3770 C   0  0  0  0  0  0  0  0  0  0  0  0
   44.7520   35.0020   45.6900 N   0  0  0  0  0  0  0  0  0  0  0  0
   48.9465   35.7357   42.8675 H   0  0  0  0  0  0  0  0  0  0  0  0
   51.2507   34.8793   43.1613 H   0  0  0  0  0  0  0  0  0  0  0  0
   51.9237   32.6638   42.2145 H   0  0  0  0  0  0  0  0  0  0  0  0
   50.2297   31.3118   40.9515 H   0  0  0  0  0  0  0  0  0  0  0  0
   48.2256   31.1131   40.0667 H   0  0  0  0  0  0  0  0  0  0  0  0
   46.9643   31.6295   42.4693 H   0  0  0  0  0  0  0  0  0  0  0  0
   45.7041   32.0214   41.2507 H   0  0  0  0  0  0  0  0  0  0  0  0
   46.4806   30.4016   41.2507 H   0  0  0  0  0  0  0  0  0  0  0  0
   46.5051   33.5531   39.6494 H   0  0  0  0  0  0  0  0  0  0  0  0
   47.9635   33.1282   38.6907 H   0  0  0  0  0  0  0  0  0  0  0  0
   46.5386   32.0345   38.6907 H   0  0  0  0  0  0  0  0  0  0  0  0
   43.8362   36.8069   45.0387 H   0  0  0  0  0  0  0  0  0  0  0  0
   44.8607   36.6935   42.7503 H   0  0  0  0  0  0  0  0  0  0  0  0
   45.7588   33.1975   46.1288 H   0  0  0  0  0  0  0  0  0  0  0  0
  1  2  2  0
  2  3  1  0
  4  3  2  0
  5  4  1  0
  6  5  2  0
  6  1  1  0
  7  6  1  0
  7  8  1  0
  9  7  1  0
 10  1  1  0
 10 13  1  0
 11 16  2  0
 12 11  1  0
 13 12  2  0
 13 14  1  0
 14 15  2  0
 15 16  1  0
  2 17  1  0
  3 18  1  0
  4 19  1  0
  5 20  1  0
  7 21  1  0
  8 22  1  0
  8 23  1  0
  8 24  1  0
  9 25  1  0
  9 26  1  0
  9 27  1  0
 11 28  1  0
 12 29  1  0
 15 30  1  0
M  ISO  8  17  14  18  14  19  14  20  14  21   8  22   8  23   8  24   8
M  ISO  6  25   8  26   8  27   8  28  14  29  14  30  14
M  END
>  <minimizedAffinity>  (1) 
-4.58870506

>  <minimizedRMSD>  (1) 
0.36299035

$$$$
