
     RDKit          3D

 24 25  0  0  0  0  0  0  0  0999 V2000
   48.2870   33.9510   41.6880 C   0  0  0  0  0  0  0  0  0  0  0  0
   49.2010   34.7420   42.3970 C   0  0  0  0  0  0  0  0  0  0  0  0
   50.4940   34.3060   42.6040 C   0  0  0  0  0  0  0  0  0  0  0  0
   50.9190   33.0760   42.1170 C   0  0  0  0  0  0  0  0  0  0  0  0
   50.0190   32.2770   41.4100 C   0  0  0  0  0  0  0  0  0  0  0  0
   48.7470   32.7430   41.2240 C   0  0  0  0  0  0  0  0  0  0  0  0
   47.7810   31.9300   40.4870 C   0  0  0  0  0  0  0  0  0  0  0  0
   47.0760   31.0600   41.0630 O   0  0  0  0  0  0  0  0  0  0  0  0
   47.5790   32.0640   39.1000 O   0  0  0  0  0  0  0  0  0  0  0  0
   46.6640   34.6080   41.4830 S   0  0  0  0  0  0  0  0  0  0  0  0
   44.5430   36.0890   44.6200 C   0  0  0  0  0  0  0  0  0  0  0  0
   45.1220   35.9720   43.3430 C   0  0  0  0  0  0  0  0  0  0  0  0
   45.8990   34.8340   43.0640 C   0  0  0  0  0  0  0  0  0  0  0  0
   46.0370   33.9040   44.0750 N   0  0  0  0  0  0  0  0  0  0  0  0
   45.4700   34.0460   45.2830 C   0  0  0  0  0  0  0  0  0  0  0  0
   44.7200   35.1360   45.5680 N   0  0  0  0  0  0  0  0  0  0  0  0
   48.8852   35.7189   42.7920 H   0  0  0  0  0  0  0  0  0  0  0  0
   51.1978   34.9410   43.1622 H   0  0  0  0  0  0  0  0  0  0  0  0
   51.9514   32.7363   42.2865 H   0  0  0  0  0  0  0  0  0  0  0  0
   50.3250   31.2979   41.0128 H   0  0  0  0  0  0  0  0  0  0  0  0
   48.1010   32.7298   38.5858 H   0  0  0  0  0  0  0  0  0  0  0  0
   43.9329   36.9737   44.8546 H   0  0  0  0  0  0  0  0  0  0  0  0
   44.9705   36.7515   42.5818 H   0  0  0  0  0  0  0  0  0  0  0  0
   45.6161   33.2696   46.0484 H   0  0  0  0  0  0  0  0  0  0  0  0
  1  2  2  0
  2  3  1  0
  4  3  2  0
  5  4  1  0
  6  5  2  0
  6  1  1  0
  7  8  2  0
  7  6  1  0
  9  7  1  0
 10  1  1  0
 10 13  1  0
 11 16  2  0
 12 11  1  0
 13 12  2  0
 13 14  1  0
 14 15  2  0
 15 16  1  0
  2 17  1  0
  3 18  1  0
  4 19  1  0
  5 20  1  0
  9 21  1  0
 11 22  1  0
 12 23  1  0
 15 24  1  0
M  ISO  8  17  14  18  14  19  14  20  14  21   3  22  14  23  14  24  14
M  END
>  <minimizedAffinity>  (1) 
-4.57427502

>  <minimizedRMSD>  (1) 
0.136641219

$$$$
