
     RDKit          3D

 27 28  0  0  0  0  0  0  0  0999 V2000
   48.2990   33.9230   41.6990 C   0  0  0  0  0  0  0  0  0  0  0  0
   49.1920   34.7400   42.4010 C   0  0  0  0  0  0  0  0  0  0  0  0
   50.4820   34.3120   42.6010 C   0  0  0  0  0  0  0  0  0  0  0  0
   50.9310   33.0780   42.1210 C   0  0  0  0  0  0  0  0  0  0  0  0
   50.0470   32.2670   41.4270 C   0  0  0  0  0  0  0  0  0  0  0  0
   48.7500   32.7100   41.2320 C   0  0  0  0  0  0  0  0  0  0  0  0
   46.6640   34.5520   41.4920 S   0  0  0  0  0  0  0  0  0  0  0  0
   44.5480   36.0970   44.6050 C   0  0  0  0  0  0  0  0  0  0  0  0
   45.1290   35.9680   43.3200 C   0  0  0  0  0  0  0  0  0  0  0  0
   45.8940   34.8180   43.0620 C   0  0  0  0  0  0  0  0  0  0  0  0
   46.0260   33.8950   44.0710 N   0  0  0  0  0  0  0  0  0  0  0  0
   45.4580   34.0500   45.2840 C   0  0  0  0  0  0  0  0  0  0  0  0
   44.7180   35.1470   45.5620 N   0  0  0  0  0  0  0  0  0  0  0  0
   47.7040   31.9290   40.5060 C   0  0  0  0  0  0  0  0  0  0  0  0
   48.1290   31.8330   39.0680 C   0  0  0  0  0  0  0  0  0  0  0  0
   48.8643   35.7157   42.7891 H   0  0  0  0  0  0  0  0  0  0  0  0
   51.1805   34.9575   43.1537 H   0  0  0  0  0  0  0  0  0  0  0  0
   51.9689   32.7561   42.2914 H   0  0  0  0  0  0  0  0  0  0  0  0
   50.3698   31.2898   41.0385 H   0  0  0  0  0  0  0  0  0  0  0  0
   43.9445   36.9877   44.8342 H   0  0  0  0  0  0  0  0  0  0  0  0
   44.9864   36.7411   42.5506 H   0  0  0  0  0  0  0  0  0  0  0  0
   45.5979   33.2772   46.0542 H   0  0  0  0  0  0  0  0  0  0  0  0
   47.6181   30.9220   40.9403 H   0  0  0  0  0  0  0  0  0  0  0  0
   46.7246   32.4230   40.5884 H   0  0  0  0  0  0  0  0  0  0  0  0
   49.2009   31.5909   39.0178 H   0  0  0  0  0  0  0  0  0  0  0  0
   47.5508   31.0428   38.5667 H   0  0  0  0  0  0  0  0  0  0  0  0
   47.9465   32.7950   38.5667 H   0  0  0  0  0  0  0  0  0  0  0  0
  1  2  2  0
  2  3  1  0
  4  3  2  0
  5  4  1  0
  6  5  2  0
  6  1  1  0
  7  1  1  0
  7 10  1  0
  8 13  2  0
  9  8  1  0
 10  9  2  0
 10 11  1  0
 11 12  2  0
 12 13  1  0
 14  6  1  0
 15 14  1  0
  2 16  1  0
  3 17  1  0
  4 18  1  0
  5 19  1  0
  8 20  1  0
  9 21  1  0
 12 22  1  0
 14 23  1  0
 14 24  1  0
 15 25  1  0
 15 26  1  0
 15 27  1  0
M  ISO  8  16  14  17  14  18  14  19  14  20  14  21  14  22  14  23   8
M  ISO  4  24   8  25   8  26   8  27   8
M  END
>  <minimizedAffinity>  (1) 
-4.50203705

>  <minimizedRMSD>  (1) 
0.320075601

$$$$
