
     RDKit          3D

 35 37  0  0  0  0  0  0  0  0999 V2000
   44.5140   35.8300   44.8660 C   0  0  0  0  0  0  0  0  0  0  0  0
   45.0890   35.9150   43.6050 C   0  0  0  0  0  0  0  0  0  0  0  0
   46.0090   34.9280   43.2190 C   0  0  0  0  0  0  0  0  0  0  0  0
   46.2770   33.9400   44.1220 N   0  0  0  0  0  0  0  0  0  0  0  0
   45.7080   33.8780   45.3390 C   0  0  0  0  0  0  0  0  0  0  0  0
   44.8240   34.8170   45.7230 N   0  0  0  0  0  0  0  0  0  0  0  0
   46.0660   32.7890   46.2130 N   0  0  0  0  0  0  0  0  0  0  0  0
   45.4050   32.7240   47.3840 C   0  0  0  0  0  0  0  0  0  0  0  0
   45.7540   31.6670   48.2330 C   0  0  0  0  0  0  0  0  0  0  0  0
   45.0990   31.4820   49.5550 C   0  0  0  0  0  0  0  0  0  0  0  0
   46.7330   30.8080   47.7770 C   0  0  0  0  0  0  0  0  0  0  0  0
   47.0340   29.8520   48.5670 O   0  0  0  0  0  0  0  0  0  0  0  0
   47.3850   30.8840   46.6070 N   0  0  0  0  0  0  0  0  0  0  0  0
   47.0180   31.9270   45.8090 C   0  0  0  0  0  0  0  0  0  0  0  0
   47.6020   32.0400   44.7000 O   0  0  0  0  0  0  0  0  0  0  0  0
   46.8040   34.9430   41.6240 S   0  0  0  0  0  0  0  0  0  0  0  0
   48.3700   34.1300   41.7300 C   0  0  0  0  0  0  0  0  0  0  0  0
   49.3750   34.7520   42.4420 C   0  0  0  0  0  0  0  0  0  0  0  0
   50.6050   34.1350   42.5370 C   0  0  0  0  0  0  0  0  0  0  0  0
   50.8730   32.9110   41.9440 C   0  0  0  0  0  0  0  0  0  0  0  0
   49.8710   32.2950   41.2350 C   0  0  0  0  0  0  0  0  0  0  0  0
   48.6330   32.9030   41.1320 C   0  0  0  0  0  0  0  0  0  0  0  0
   47.5340   32.3670   40.4360 O   0  0  0  0  0  0  0  0  0  0  0  0
   43.7918   36.5979   45.1803 H   0  0  0  0  0  0  0  0  0  0  0  0
   44.8290   36.7382   42.9233 H   0  0  0  0  0  0  0  0  0  0  0  0
   44.6345   33.4596   47.6581 H   0  0  0  0  0  0  0  0  0  0  0  0
   45.8248   31.6870   50.3557 H   0  0  0  0  0  0  0  0  0  0  0  0
   44.2497   32.1754   49.6436 H   0  0  0  0  0  0  0  0  0  0  0  0
   44.7379   30.4467   49.6436 H   0  0  0  0  0  0  0  0  0  0  0  0
   48.1090   30.2050   46.3319 H   0  0  0  0  0  0  0  0  0  0  0  0
   49.1982   35.7239   42.9259 H   0  0  0  0  0  0  0  0  0  0  0  0
   51.4041   34.6335   43.1053 H   0  0  0  0  0  0  0  0  0  0  0  0
   51.8645   32.4443   42.0390 H   0  0  0  0  0  0  0  0  0  0  0  0
   50.0520   31.3235   40.7518 H   0  0  0  0  0  0  0  0  0  0  0  0
   46.6773   32.8623   40.4066 H   0  0  0  0  0  0  0  0  0  0  0  0
  1  6  2  0
  2  1  1  0
  3  2  2  0
  3  4  1  0
  4  5  2  0
  5  6  1  0
  5  7  1  0
  7  8  1  0
  8  9  2  0
  9 10  1  0
 11  9  1  0
 11 12  2  0
 13 11  1  0
 14  7  1  0
 14 13  1  0
 15 14  2  0
 16 17  1  0
 16  3  1  0
 17 18  2  0
 18 19  1  0
 20 19  2  0
 21 20  1  0
 22 21  2  0
 22 17  1  0
 23 22  1  0
  1 24  1  0
  2 25  1  0
  8 26  1  0
 10 27  1  0
 10 28  1  0
 10 29  1  0
 13 30  1  0
 18 31  1  0
 19 32  1  0
 20 33  1  0
 21 34  1  0
 23 35  1  0
M  ISO  8  24  14  25  14  26  14  27   8  28   8  29   8  30   9  31  14
M  ISO  4  32  14  33  14  34  14  35   3
M  END
>  <minimizedAffinity>  (1) 
-6.76931381

>  <minimizedRMSD>  (1) 
0.512833655

$$$$
