
     RDKit          3D

 36 39  0  0  0  0  0  0  0  0999 V2000
   44.5060   35.7520   44.9310 C   0  0  0  0  0  0  0  0  0  0  0  0
   45.0940   35.8400   43.6750 C   0  0  0  0  0  0  0  0  0  0  0  0
   46.0260   34.8620   43.3310 C   0  0  0  0  0  0  0  0  0  0  0  0
   46.2900   33.9040   44.2430 N   0  0  0  0  0  0  0  0  0  0  0  0
   45.7210   33.8110   45.4690 C   0  0  0  0  0  0  0  0  0  0  0  0
   44.8150   34.7690   45.7900 N   0  0  0  0  0  0  0  0  0  0  0  0
   45.9260   32.8360   46.5160 C   0  0  0  0  0  0  0  0  0  0  0  0
   45.3780   32.9880   47.7500 N   0  0  0  0  0  0  0  0  0  0  0  0
   45.5340   32.1200   48.7550 C   0  0  0  0  0  0  0  0  0  0  0  0
   46.2540   31.0070   48.6280 N   0  0  0  0  0  0  0  0  0  0  0  0
   46.8290   30.7720   47.4550 C   0  0  0  0  0  0  0  0  0  0  0  0
   47.5730   29.6260   47.3140 C   0  0  0  0  0  0  0  0  0  0  0  0
   48.2030   29.3200   46.1080 C   0  0  0  0  0  0  0  0  0  0  0  0
   48.0270   30.2390   45.0750 C   0  0  0  0  0  0  0  0  0  0  0  0
   47.2740   31.3680   45.2650 C   0  0  0  0  0  0  0  0  0  0  0  0
   46.6590   31.6740   46.4330 C   0  0  0  0  0  0  0  0  0  0  0  0
   46.8450   34.8230   41.7540 S   0  0  0  0  0  0  0  0  0  0  0  0
   48.3900   33.9790   41.8650 C   0  0  0  0  0  0  0  0  0  0  0  0
   49.4670   34.6810   42.4070 C   0  0  0  0  0  0  0  0  0  0  0  0
   50.6750   34.0410   42.5080 C   0  0  0  0  0  0  0  0  0  0  0  0
   50.8610   32.7300   42.0940 C   0  0  0  0  0  0  0  0  0  0  0  0
   49.7860   32.0310   41.5530 C   0  0  0  0  0  0  0  0  0  0  0  0
   48.5630   32.6730   41.4480 C   0  0  0  0  0  0  0  0  0  0  0  0
   47.4200   32.0770   40.9240 O   0  0  0  0  0  0  0  0  0  0  0  0
   43.7664   36.5097   45.2293 H   0  0  0  0  0  0  0  0  0  0  0  0
   44.8339   36.6507   42.9785 H   0  0  0  0  0  0  0  0  0  0  0  0
   45.0509   32.3326   49.7201 H   0  0  0  0  0  0  0  0  0  0  0  0
   47.6736   28.9382   48.1665 H   0  0  0  0  0  0  0  0  0  0  0  0
   48.8034   28.4073   45.9796 H   0  0  0  0  0  0  0  0  0  0  0  0
   48.4972   30.0562   44.0975 H   0  0  0  0  0  0  0  0  0  0  0  0
   47.1625   32.0653   44.4216 H   0  0  0  0  0  0  0  0  0  0  0  0
   49.3498   35.7213   42.7446 H   0  0  0  0  0  0  0  0  0  0  0  0
   51.5294   34.5877   42.9335 H   0  0  0  0  0  0  0  0  0  0  0  0
   51.8455   32.2492   42.1921 H   0  0  0  0  0  0  0  0  0  0  0  0
   49.9050   30.9907   41.2159 H   0  0  0  0  0  0  0  0  0  0  0  0
   46.5734   32.5879   40.8750 H   0  0  0  0  0  0  0  0  0  0  0  0
  1  6  2  0
  2  1  1  0
  3  2  2  0
  3  4  1  0
  4  5  2  0
  5  6  1  0
  5  7  1  0
  7  8  2  0
  8  9  1  0
 10  9  2  0
 11 10  1  0
 12 11  2  0
 13 12  1  0
 14 15  1  0
 14 13  2  0
 15 16  2  0
 16  7  1  0
 16 11  1  0
 17 18  1  0
 17  3  1  0
 18 19  2  0
 19 20  1  0
 21 20  2  0
 22 21  1  0
 23 22  2  0
 23 18  1  0
 24 23  1  0
  1 25  1  0
  2 26  1  0
  9 27  1  0
 12 28  1  0
 13 29  1  0
 14 30  1  0
 15 31  1  0
 19 32  1  0
 20 33  1  0
 21 34  1  0
 22 35  1  0
 24 36  1  0
M  ISO  8  25  14  26  14  27  14  28  14  29  14  30  14  31  14  32  14
M  ISO  4  33  14  34  14  35  14  36   3
M  END
>  <minimizedAffinity>  (1) 
-6.5515132

>  <minimizedRMSD>  (1) 
0.494600534

$$$$
