
     RDKit          3D

 37 39  0  0  0  0  0  0  0  0999 V2000
   44.4390   35.9580   44.7410 C   0  0  0  0  0  0  0  0  0  0  0  0
   44.9870   35.8330   43.4680 C   0  0  0  0  0  0  0  0  0  0  0  0
   45.8480   34.7550   43.2320 C   0  0  0  0  0  0  0  0  0  0  0  0
   46.1030   33.8790   44.2700 N   0  0  0  0  0  0  0  0  0  0  0  0
   45.5460   34.0450   45.4840 C   0  0  0  0  0  0  0  0  0  0  0  0
   44.7210   35.0680   45.7360 N   0  0  0  0  0  0  0  0  0  0  0  0
   45.8510   33.1070   46.5110 N   0  0  0  0  0  0  0  0  0  0  0  0
   46.9630   32.1930   46.3830 C   0  0  0  0  0  0  0  0  0  0  0  0
   47.5040   31.9710   47.7990 C   0  0  0  0  0  0  0  0  0  0  0  0
   46.4710   31.1560   48.5510 C   0  0  0  0  0  0  0  0  0  0  0  0
   45.0700   31.6690   48.3410 C   0  0  0  0  0  0  0  0  0  0  0  0
   45.0460   33.0420   47.7190 C   0  0  0  0  0  0  0  0  0  0  0  0
   46.6140   34.4860   41.6430 S   0  0  0  0  0  0  0  0  0  0  0  0
   48.2860   33.9380   41.8510 C   0  0  0  0  0  0  0  0  0  0  0  0
   49.1830   34.8150   42.4300 C   0  0  0  0  0  0  0  0  0  0  0  0
   50.4840   34.4250   42.6060 C   0  0  0  0  0  0  0  0  0  0  0  0
   50.9400   33.1700   42.2220 C   0  0  0  0  0  0  0  0  0  0  0  0
   50.0360   32.2900   41.6410 C   0  0  0  0  0  0  0  0  0  0  0  0
   48.7210   32.6850   41.4620 C   0  0  0  0  0  0  0  0  0  0  0  0
   47.7310   31.8820   40.8890 O   0  0  0  0  0  0  0  0  0  0  0  0
   43.7598   36.7974   44.9509 H   0  0  0  0  0  0  0  0  0  0  0  0
   44.7515   36.5569   42.6740 H   0  0  0  0  0  0  0  0  0  0  0  0
   46.6244   31.2397   45.9511 H   0  0  0  0  0  0  0  0  0  0  0  0
   47.7394   32.5994   45.7181 H   0  0  0  0  0  0  0  0  0  0  0  0
   48.4575   31.4241   47.7567 H   0  0  0  0  0  0  0  0  0  0  0  0
   47.6853   32.9319   48.3027 H   0  0  0  0  0  0  0  0  0  0  0  0
   46.5214   30.1139   48.2026 H   0  0  0  0  0  0  0  0  0  0  0  0
   46.6991   31.2339   49.6243 H   0  0  0  0  0  0  0  0  0  0  0  0
   44.5346   30.9723   47.6792 H   0  0  0  0  0  0  0  0  0  0  0  0
   44.5884   31.7401   49.3274 H   0  0  0  0  0  0  0  0  0  0  0  0
   45.4379   33.7682   48.4463 H   0  0  0  0  0  0  0  0  0  0  0  0
   44.0056   33.2732   47.4466 H   0  0  0  0  0  0  0  0  0  0  0  0
   48.8555   35.8163   42.7464 H   0  0  0  0  0  0  0  0  0  0  0  0
   51.1920   35.1293   43.0671 H   0  0  0  0  0  0  0  0  0  0  0  0
   51.9903   32.8807   42.3742 H   0  0  0  0  0  0  0  0  0  0  0  0
   50.3619   31.2878   41.3258 H   0  0  0  0  0  0  0  0  0  0  0  0
   46.8086   32.2278   40.7908 H   0  0  0  0  0  0  0  0  0  0  0  0
  1  6  2  0
  2  1  1  0
  3  2  2  0
  3  4  1  0
  4  5  2  0
  5  6  1  0
  5  7  1  0
  7 12  1  0
  8  7  1  0
  8  9  1  0
  9 10  1  0
 11 10  1  0
 12 11  1  0
 13 14  1  0
 13  3  1  0
 14 15  2  0
 15 16  1  0
 17 16  2  0
 18 17  1  0
 19 18  2  0
 19 14  1  0
 20 19  1  0
  1 21  1  0
  2 22  1  0
  8 23  1  0
  8 24  1  0
  9 25  1  0
  9 26  1  0
 10 27  1  0
 10 28  1  0
 11 29  1  0
 11 30  1  0
 12 31  1  0
 12 32  1  0
 15 33  1  0
 16 34  1  0
 17 35  1  0
 18 36  1  0
 20 37  1  0
M  ISO  8  21  14  22  14  23  13  24  13  25  13  26  13  27  13  28  13
M  ISO  8  29  13  30  13  31  13  32  13  33  14  34  14  35  14  36  14
M  ISO  1  37   3
M  END
>  <minimizedAffinity>  (1) 
-6.48800135

>  <minimizedRMSD>  (1) 
0.323810697

$$$$
