
     RDKit          3D

 34 36  0  0  0  0  0  0  0  0999 V2000
   44.4500   35.9400   44.7500 C   0  0  0  0  0  0  0  0  0  0  0  0
   45.0030   35.8290   43.4780 C   0  0  0  0  0  0  0  0  0  0  0  0
   45.8750   34.7690   43.2030 C   0  0  0  0  0  0  0  0  0  0  0  0
   46.1250   33.8950   44.2400 N   0  0  0  0  0  0  0  0  0  0  0  0
   45.5800   34.0220   45.4620 C   0  0  0  0  0  0  0  0  0  0  0  0
   44.7380   35.0470   45.7210 N   0  0  0  0  0  0  0  0  0  0  0  0
   45.8770   33.0950   46.4710 N   0  0  0  0  0  0  0  0  0  0  0  0
   45.1620   32.9080   47.7210 C   0  0  0  0  0  0  0  0  0  0  0  0
   46.0820   32.1100   48.6220 C   0  0  0  0  0  0  0  0  0  0  0  0
   47.4180   32.3000   47.9350 C   0  0  0  0  0  0  0  0  0  0  0  0
   46.9680   32.1270   46.4780 C   0  0  0  0  0  0  0  0  0  0  0  0
   46.6350   34.5310   41.6220 S   0  0  0  0  0  0  0  0  0  0  0  0
   48.2950   33.9440   41.8150 C   0  0  0  0  0  0  0  0  0  0  0  0
   49.1940   34.7930   42.4290 C   0  0  0  0  0  0  0  0  0  0  0  0
   50.4960   34.3890   42.6040 C   0  0  0  0  0  0  0  0  0  0  0  0
   50.9400   33.1290   42.1750 C   0  0  0  0  0  0  0  0  0  0  0  0
   50.0400   32.2930   41.5650 C   0  0  0  0  0  0  0  0  0  0  0  0
   48.7250   32.6950   41.3840 C   0  0  0  0  0  0  0  0  0  0  0  0
   47.7160   31.9330   40.7780 O   0  0  0  0  0  0  0  0  0  0  0  0
   43.7645   36.7719   44.9689 H   0  0  0  0  0  0  0  0  0  0  0  0
   44.7580   36.5651   42.6982 H   0  0  0  0  0  0  0  0  0  0  0  0
   44.9323   33.8820   48.1778 H   0  0  0  0  0  0  0  0  0  0  0  0
   44.2072   32.3856   47.5611 H   0  0  0  0  0  0  0  0  0  0  0  0
   46.0946   32.5161   49.6442 H   0  0  0  0  0  0  0  0  0  0  0  0
   45.7868   31.0575   48.7448 H   0  0  0  0  0  0  0  0  0  0  0  0
   47.8384   33.2994   48.1206 H   0  0  0  0  0  0  0  0  0  0  0  0
   48.2194   31.6228   48.2653 H   0  0  0  0  0  0  0  0  0  0  0  0
   46.6166   31.1053   46.2715 H   0  0  0  0  0  0  0  0  0  0  0  0
   47.7469   32.2803   45.7166 H   0  0  0  0  0  0  0  0  0  0  0  0
   48.8706   35.7856   42.7756 H   0  0  0  0  0  0  0  0  0  0  0  0
   51.2078   35.0706   43.0926 H   0  0  0  0  0  0  0  0  0  0  0  0
   51.9848   32.8192   42.3243 H   0  0  0  0  0  0  0  0  0  0  0  0
   50.3623   31.3001   41.2181 H   0  0  0  0  0  0  0  0  0  0  0  0
   46.8015   32.3021   40.6912 H   0  0  0  0  0  0  0  0  0  0  0  0
  1  6  2  0
  2  1  1  0
  3  2  2  0
  3  4  1  0
  4  5  2  0
  5  6  1  0
  5  7  1  0
  7 11  1  0
  7  8  1  0
  8  9  1  0
 10  9  1  0
 11 10  1  0
 12 13  1  0
 12  3  1  0
 13 14  2  0
 14 15  1  0
 16 15  2  0
 17 16  1  0
 18 17  2  0
 18 13  1  0
 19 18  1  0
  1 20  1  0
  2 21  1  0
  8 22  1  0
  8 23  1  0
  9 24  1  0
  9 25  1  0
 10 26  1  0
 10 27  1  0
 11 28  1  0
 11 29  1  0
 14 30  1  0
 15 31  1  0
 16 32  1  0
 17 33  1  0
 19 34  1  0
M  ISO  8  20  14  21  14  22  13  23  13  24  13  25  13  26  13  27  13
M  ISO  7  28  13  29  13  30  14  31  14  32  14  33  14  34   3
M  END
>  <minimizedAffinity>  (1) 
-6.2656374

>  <minimizedRMSD>  (1) 
0.265063256

$$$$
