
     RDKit          3D

 32 34  0  0  0  0  0  0  0  0999 V2000
   44.4620   35.9060   44.7640 C   0  0  0  0  0  0  0  0  0  0  0  0
   45.0070   35.8340   43.4850 C   0  0  0  0  0  0  0  0  0  0  0  0
   45.8980   34.7830   43.2060 C   0  0  0  0  0  0  0  0  0  0  0  0
   46.1770   33.8910   44.2130 N   0  0  0  0  0  0  0  0  0  0  0  0
   45.6250   33.9980   45.4440 C   0  0  0  0  0  0  0  0  0  0  0  0
   44.7710   35.0030   45.7160 N   0  0  0  0  0  0  0  0  0  0  0  0
   45.9530   33.0240   46.4820 C   0  0  0  0  0  0  0  0  0  0  0  0
   47.0240   32.1720   46.3050 C   0  0  0  0  0  0  0  0  0  0  0  0
   47.3330   31.2420   47.3000 C   0  0  0  0  0  0  0  0  0  0  0  0
   46.5880   31.1540   48.4680 C   0  0  0  0  0  0  0  0  0  0  0  0
   45.5240   32.0220   48.6100 C   0  0  0  0  0  0  0  0  0  0  0  0
   45.1910   32.9600   47.6350 C   0  0  0  0  0  0  0  0  0  0  0  0
   46.6630   34.5780   41.6130 S   0  0  0  0  0  0  0  0  0  0  0  0
   48.2940   33.9470   41.7780 C   0  0  0  0  0  0  0  0  0  0  0  0
   49.2200   34.7350   42.4550 C   0  0  0  0  0  0  0  0  0  0  0  0
   50.5040   34.2960   42.6140 C   0  0  0  0  0  0  0  0  0  0  0  0
   50.9250   33.0560   42.1070 C   0  0  0  0  0  0  0  0  0  0  0  0
   50.0050   32.2720   41.4340 C   0  0  0  0  0  0  0  0  0  0  0  0
   48.7090   32.7300   41.2820 C   0  0  0  0  0  0  0  0  0  0  0  0
   47.6940   32.0260   40.6210 O   0  0  0  0  0  0  0  0  0  0  0  0
   43.7619   36.7199   45.0037 H   0  0  0  0  0  0  0  0  0  0  0  0
   44.7483   36.5769   42.7161 H   0  0  0  0  0  0  0  0  0  0  0  0
   47.6292   32.2249   45.3880 H   0  0  0  0  0  0  0  0  0  0  0  0
   48.1865   30.5635   47.1548 H   0  0  0  0  0  0  0  0  0  0  0  0
   46.8358   30.4211   49.2500 H   0  0  0  0  0  0  0  0  0  0  0  0
   44.9171   31.9713   49.5260 H   0  0  0  0  0  0  0  0  0  0  0  0
   44.3369   33.6380   47.7795 H   0  0  0  0  0  0  0  0  0  0  0  0
   48.9182   35.7113   42.8621 H   0  0  0  0  0  0  0  0  0  0  0  0
   51.2251   34.9289   43.1519 H   0  0  0  0  0  0  0  0  0  0  0  0
   51.9624   32.7159   42.2418 H   0  0  0  0  0  0  0  0  0  0  0  0
   50.3011   31.2950   41.0243 H   0  0  0  0  0  0  0  0  0  0  0  0
   46.7867   32.4158   40.5499 H   0  0  0  0  0  0  0  0  0  0  0  0
  1  6  2  0
  2  1  1  0
  3  2  2  0
  3  4  1  0
  4  5  2  0
  5  6  1  0
  5  7  1  0
  7 12  1  0
  8  7  2  0
  8  9  1  0
  9 10  2  0
 10 11  1  0
 12 11  2  0
 13 14  1  0
 13  3  1  0
 14 15  2  0
 15 16  1  0
 17 16  2  0
 18 17  1  0
 19 18  2  0
 19 14  1  0
 20 19  1  0
  1 21  1  0
  2 22  1  0
  8 23  1  0
  9 24  1  0
 10 25  1  0
 11 26  1  0
 12 27  1  0
 15 28  1  0
 16 29  1  0
 17 30  1  0
 18 31  1  0
 20 32  1  0
M  ISO  8  21  14  22  14  23  14  24  14  25  14  26  14  27  14  28  14
M  ISO  4  29  14  30  14  31  14  32   3
M  END
>  <minimizedAffinity>  (1) 
-6.25892353

>  <minimizedRMSD>  (1) 
0.39710322

$$$$
