
     RDKit          3D

 29 31  0  0  0  0  0  0  0  0999 V2000
   44.4220   36.1720   44.4680 C   0  0  0  0  0  0  0  0  0  0  0  0
   44.9880   35.9230   43.2060 C   0  0  0  0  0  0  0  0  0  0  0  0
   45.7950   34.7830   43.0650 C   0  0  0  0  0  0  0  0  0  0  0  0
   45.9770   33.9880   44.1680 N   0  0  0  0  0  0  0  0  0  0  0  0
   45.4130   34.2660   45.3670 C   0  0  0  0  0  0  0  0  0  0  0  0
   44.6430   35.3490   45.5120 N   0  0  0  0  0  0  0  0  0  0  0  0
   45.6700   33.3570   46.4790 C   0  0  0  0  0  0  0  0  0  0  0  0
   46.7250   32.4370   46.5120 C   0  0  0  0  0  0  0  0  0  0  0  0
   46.5950   31.8030   47.7140 N   0  0  0  0  0  0  0  0  0  0  0  0
   45.5240   32.3390   48.3250 C   0  0  0  0  0  0  0  0  0  0  0  0
   44.9320   33.2920   47.6030 N   0  0  0  0  0  0  0  0  0  0  0  0
   46.5590   34.3700   41.5190 S   0  0  0  0  0  0  0  0  0  0  0  0
   48.2290   33.8810   41.7710 C   0  0  0  0  0  0  0  0  0  0  0  0
   49.0790   34.8050   42.3750 C   0  0  0  0  0  0  0  0  0  0  0  0
   50.3960   34.4800   42.6000 C   0  0  0  0  0  0  0  0  0  0  0  0
   50.9140   33.2260   42.2310 C   0  0  0  0  0  0  0  0  0  0  0  0
   50.0630   32.3230   41.6350 C   0  0  0  0  0  0  0  0  0  0  0  0
   48.7390   32.6440   41.4080 C   0  0  0  0  0  0  0  0  0  0  0  0
   47.7990   31.8010   40.8120 O   0  0  0  0  0  0  0  0  0  0  0  0
   43.7848   37.0579   44.6066 H   0  0  0  0  0  0  0  0  0  0  0  0
   44.8049   36.5985   42.3574 H   0  0  0  0  0  0  0  0  0  0  0  0
   47.4894   32.2635   45.7402 H   0  0  0  0  0  0  0  0  0  0  0  0
   45.1719   32.0241   49.3184 H   0  0  0  0  0  0  0  0  0  0  0  0
   44.1016   33.8496   47.8489 H   0  0  0  0  0  0  0  0  0  0  0  0
   48.6971   35.7931   42.6714 H   0  0  0  0  0  0  0  0  0  0  0  0
   51.0582   35.2165   43.0787 H   0  0  0  0  0  0  0  0  0  0  0  0
   51.9691   32.9738   42.4134 H   0  0  0  0  0  0  0  0  0  0  0  0
   50.4418   31.3345   41.3361 H   0  0  0  0  0  0  0  0  0  0  0  0
   46.8669   32.1097   40.6858 H   0  0  0  0  0  0  0  0  0  0  0  0
  1  6  2  0
  2  1  1  0
  3  2  2  0
  3  4  1  0
  4  5  2  0
  5  6  1  0
  5  7  1  0
  7  8  2  0
  7 11  1  0
  8  9  1  0
  9 10  2  0
 11 10  1  0
 12 13  1  0
 12  3  1  0
 13 14  2  0
 14 15  1  0
 16 15  2  0
 17 16  1  0
 18 17  2  0
 18 13  1  0
 19 18  1  0
  1 20  1  0
  2 21  1  0
  8 22  1  0
 10 23  1  0
 11 24  1  0
 14 25  1  0
 15 26  1  0
 16 27  1  0
 17 28  1  0
 19 29  1  0
M  ISO  8  20  14  21  14  22  14  23  14  24   9  25  14  26  14  27  14
M  ISO  2  28  14  29   3
M  END
>  <minimizedAffinity>  (1) 
-6.23938465

>  <minimizedRMSD>  (1) 
0.557355821

$$$$
