
     RDKit          3D

 30 32  0  0  0  0  0  0  0  0999 V2000
   44.4710   35.9210   44.7460 C   0  0  0  0  0  0  0  0  0  0  0  0
   45.0140   35.8530   43.4670 C   0  0  0  0  0  0  0  0  0  0  0  0
   45.8940   34.7910   43.1900 C   0  0  0  0  0  0  0  0  0  0  0  0
   46.1580   33.8950   44.1990 N   0  0  0  0  0  0  0  0  0  0  0  0
   45.6080   34.0000   45.4240 C   0  0  0  0  0  0  0  0  0  0  0  0
   44.7690   35.0010   45.7090 N   0  0  0  0  0  0  0  0  0  0  0  0
   45.9550   32.9920   46.4250 C   0  0  0  0  0  0  0  0  0  0  0  0
   46.9880   32.1020   46.2190 C   0  0  0  0  0  0  0  0  0  0  0  0
   47.2170   31.1970   47.2410 C   0  0  0  0  0  0  0  0  0  0  0  0
   46.4670   31.1900   48.3800 N   0  0  0  0  0  0  0  0  0  0  0  0
   45.4660   32.0750   48.5460 C   0  0  0  0  0  0  0  0  0  0  0  0
   45.2180   32.9650   47.5720 N   0  0  0  0  0  0  0  0  0  0  0  0
   46.6590   34.5900   41.5920 S   0  0  0  0  0  0  0  0  0  0  0  0
   48.2910   33.9630   41.7680 C   0  0  0  0  0  0  0  0  0  0  0  0
   49.2070   34.7490   42.4470 C   0  0  0  0  0  0  0  0  0  0  0  0
   50.4990   34.3070   42.6140 C   0  0  0  0  0  0  0  0  0  0  0  0
   50.9170   33.0660   42.1090 C   0  0  0  0  0  0  0  0  0  0  0  0
   49.9990   32.2920   41.4360 C   0  0  0  0  0  0  0  0  0  0  0  0
   48.7070   32.7410   41.2730 C   0  0  0  0  0  0  0  0  0  0  0  0
   47.6960   32.0320   40.6050 O   0  0  0  0  0  0  0  0  0  0  0  0
   43.7800   36.7418   44.9887 H   0  0  0  0  0  0  0  0  0  0  0  0
   44.7645   36.6018   42.7008 H   0  0  0  0  0  0  0  0  0  0  0  0
   47.5923   32.1107   45.2999 H   0  0  0  0  0  0  0  0  0  0  0  0
   48.0278   30.4618   47.1312 H   0  0  0  0  0  0  0  0  0  0  0  0
   44.8612   32.0689   49.4648 H   0  0  0  0  0  0  0  0  0  0  0  0
   48.9020   35.7251   42.8521 H   0  0  0  0  0  0  0  0  0  0  0  0
   51.2191   34.9391   43.1543 H   0  0  0  0  0  0  0  0  0  0  0  0
   51.9521   32.7206   42.2475 H   0  0  0  0  0  0  0  0  0  0  0  0
   50.2972   31.3148   41.0283 H   0  0  0  0  0  0  0  0  0  0  0  0
   46.7883   32.4195   40.5272 H   0  0  0  0  0  0  0  0  0  0  0  0
  1  6  2  0
  2  1  1  0
  3  2  2  0
  3  4  1  0
  4  5  2  0
  5  6  1  0
  5  7  1  0
  7 12  1  0
  8  7  2  0
  8  9  1  0
  9 10  2  0
 10 11  1  0
 12 11  2  0
 13 14  1  0
 13  3  1  0
 14 15  2  0
 15 16  1  0
 17 16  2  0
 18 17  1  0
 19 18  2  0
 19 14  1  0
 20 19  1  0
  1 21  1  0
  2 22  1  0
  8 23  1  0
  9 24  1  0
 11 25  1  0
 15 26  1  0
 16 27  1  0
 17 28  1  0
 18 29  1  0
 20 30  1  0
M  ISO  8  21  14  22  14  23  14  24  14  25  14  26  14  27  14  28  14
M  ISO  2  29  14  30   3
M  END
>  <minimizedAffinity>  (1) 
-6.02558279

>  <minimizedRMSD>  (1) 
0.406044751

$$$$
