
     RDKit          3D

 29 31  0  0  0  0  0  0  0  0999 V2000
   46.6170   34.5140   41.5510 S   0  0  0  0  0  0  0  0  0  0  0  0
   44.4590   36.0930   44.6070 C   0  0  0  0  0  0  0  0  0  0  0  0
   45.0180   35.9360   43.3430 C   0  0  0  0  0  0  0  0  0  0  0  0
   45.8430   34.8250   43.1310 C   0  0  0  0  0  0  0  0  0  0  0  0
   46.0520   33.9550   44.1830 N   0  0  0  0  0  0  0  0  0  0  0  0
   45.4820   34.1520   45.4040 C   0  0  0  0  0  0  0  0  0  0  0  0
   44.6930   35.2160   45.6070 N   0  0  0  0  0  0  0  0  0  0  0  0
   45.8300   33.1380   46.3430 N   0  0  0  0  0  0  0  0  0  0  0  0
   46.8510   32.3500   45.9670 C   0  0  0  0  0  0  0  0  0  0  0  0
   47.0760   31.4120   46.9770 C   0  0  0  0  0  0  0  0  0  0  0  0
   46.1550   31.6810   47.9480 N   0  0  0  0  0  0  0  0  0  0  0  0
   45.4040   32.7270   47.5580 C   0  0  0  0  0  0  0  0  0  0  0  0
   48.2750   33.9520   41.7820 C   0  0  0  0  0  0  0  0  0  0  0  0
   49.1520   34.8230   42.4140 C   0  0  0  0  0  0  0  0  0  0  0  0
   50.4500   34.4390   42.6180 C   0  0  0  0  0  0  0  0  0  0  0  0
   50.9240   33.1990   42.2130 C   0  0  0  0  0  0  0  0  0  0  0  0
   50.0530   32.3330   41.5850 C   0  0  0  0  0  0  0  0  0  0  0  0
   48.7490   32.7180   41.3800 C   0  0  0  0  0  0  0  0  0  0  0  0
   47.7630   31.9270   40.7520 O   0  0  0  0  0  0  0  0  0  0  0  0
   43.8065   36.9578   44.7979 H   0  0  0  0  0  0  0  0  0  0  0  0
   44.8189   36.6592   42.5384 H   0  0  0  0  0  0  0  0  0  0  0  0
   47.4134   32.4299   45.0250 H   0  0  0  0  0  0  0  0  0  0  0  0
   47.8386   30.6194   46.9878 H   0  0  0  0  0  0  0  0  0  0  0  0
   44.5795   33.1738   48.1330 H   0  0  0  0  0  0  0  0  0  0  0  0
   48.8070   35.8127   42.7478 H   0  0  0  0  0  0  0  0  0  0  0  0
   51.1390   35.1351   43.1187 H   0  0  0  0  0  0  0  0  0  0  0  0
   51.9715   32.9130   42.3890 H   0  0  0  0  0  0  0  0  0  0  0  0
   50.3985   31.3434   41.2513 H   0  0  0  0  0  0  0  0  0  0  0  0
   46.8436   32.2772   40.6419 H   0  0  0  0  0  0  0  0  0  0  0  0
  1 13  1  0
  1  4  1  0
  2  7  2  0
  3  2  1  0
  4  3  2  0
  4  5  1  0
  5  6  2  0
  6  7  1  0
  6  8  1  0
  8 12  1  0
  9  8  1  0
  9 10  2  0
 10 11  1  0
 12 11  2  0
 13 14  2  0
 14 15  1  0
 16 15  2  0
 17 16  1  0
 18 17  2  0
 18 13  1  0
 19 18  1  0
  2 20  1  0
  3 21  1  0
  9 22  1  0
 10 23  1  0
 12 24  1  0
 14 25  1  0
 15 26  1  0
 16 27  1  0
 17 28  1  0
 19 29  1  0
M  ISO  8  20  14  21  14  22  14  23  14  24  14  25  14  26  14  27  14
M  ISO  2  28  14  29   3
M  END
>  <minimizedAffinity>  (1) 
-5.96589231

>  <minimizedRMSD>  (1) 
0.220317915

$$$$
