
     RDKit          3D

 29 31  0  0  0  0  0  0  0  0999 V2000
   44.4260   35.9530   44.7110 C   0  0  0  0  0  0  0  0  0  0  0  0
   44.9690   35.8340   43.4260 C   0  0  0  0  0  0  0  0  0  0  0  0
   45.8660   34.7670   43.1920 C   0  0  0  0  0  0  0  0  0  0  0  0
   46.1460   33.9220   44.2370 N   0  0  0  0  0  0  0  0  0  0  0  0
   45.5990   34.0700   45.4730 C   0  0  0  0  0  0  0  0  0  0  0  0
   44.7450   35.0850   45.6920 N   0  0  0  0  0  0  0  0  0  0  0  0
   45.9490   33.1280   46.5280 C   0  0  0  0  0  0  0  0  0  0  0  0
   46.9790   32.2590   46.7770 C   0  0  0  0  0  0  0  0  0  0  0  0
   46.7150   31.6390   47.9780 C   0  0  0  0  0  0  0  0  0  0  0  0
   45.5050   32.1730   48.4160 C   0  0  0  0  0  0  0  0  0  0  0  0
   45.1180   33.0370   47.5150 O   0  0  0  0  0  0  0  0  0  0  0  0
   46.6210   34.5120   41.6030 S   0  0  0  0  0  0  0  0  0  0  0  0
   48.2790   33.9260   41.8000 C   0  0  0  0  0  0  0  0  0  0  0  0
   49.1880   34.7930   42.4110 C   0  0  0  0  0  0  0  0  0  0  0  0
   50.4910   34.4010   42.5950 C   0  0  0  0  0  0  0  0  0  0  0  0
   50.9260   33.1310   42.1760 C   0  0  0  0  0  0  0  0  0  0  0  0
   50.0280   32.2810   41.5770 C   0  0  0  0  0  0  0  0  0  0  0  0
   48.7300   32.6920   41.4010 C   0  0  0  0  0  0  0  0  0  0  0  0
   47.7130   31.9200   40.8030 O   0  0  0  0  0  0  0  0  0  0  0  0
   43.7239   36.7724   44.9248 H   0  0  0  0  0  0  0  0  0  0  0  0
   44.7072   36.5445   42.6281 H   0  0  0  0  0  0  0  0  0  0  0  0
   47.8559   32.0881   46.1352 H   0  0  0  0  0  0  0  0  0  0  0  0
   47.3303   30.8812   48.4851 H   0  0  0  0  0  0  0  0  0  0  0  0
   44.9752   31.9159   49.3451 H   0  0  0  0  0  0  0  0  0  0  0  0
   48.8603   35.7887   42.7444 H   0  0  0  0  0  0  0  0  0  0  0  0
   51.2028   35.0882   43.0757 H   0  0  0  0  0  0  0  0  0  0  0  0
   51.9711   32.8223   42.3258 H   0  0  0  0  0  0  0  0  0  0  0  0
   50.3455   31.2824   41.2422 H   0  0  0  0  0  0  0  0  0  0  0  0
   46.7991   32.2898   40.7129 H   0  0  0  0  0  0  0  0  0  0  0  0
  1  6  2  0
  2  1  1  0
  3  2  2  0
  3  4  1  0
  4  5  2  0
  5  6  1  0
  5  7  1  0
  7  8  2  0
  7 11  1  0
  8  9  1  0
  9 10  2  0
 11 10  1  0
 12 13  1  0
 12  3  1  0
 13 14  2  0
 14 15  1  0
 16 15  2  0
 17 16  1  0
 18 17  2  0
 18 13  1  0
 19 18  1  0
  1 20  1  0
  2 21  1  0
  8 22  1  0
  9 23  1  0
 10 24  1  0
 14 25  1  0
 15 26  1  0
 16 27  1  0
 17 28  1  0
 19 29  1  0
M  ISO  8  20  14  21  14  22  14  23  14  24  14  25  14  26  14  27  14
M  ISO  2  28  14  29   3
M  END
>  <minimizedAffinity>  (1) 
-5.90291595

>  <minimizedRMSD>  (1) 
0.470106542

$$$$
