
     RDKit          3D

 29 31  0  0  0  0  0  0  0  0999 V2000
   44.4480   36.0930   44.5280 C   0  0  0  0  0  0  0  0  0  0  0  0
   45.0040   35.9060   43.2680 C   0  0  0  0  0  0  0  0  0  0  0  0
   45.8540   34.7840   43.0940 C   0  0  0  0  0  0  0  0  0  0  0  0
   46.0730   33.9620   44.1700 N   0  0  0  0  0  0  0  0  0  0  0  0
   45.5130   34.1840   45.3750 C   0  0  0  0  0  0  0  0  0  0  0  0
   44.7020   35.2460   45.5550 N   0  0  0  0  0  0  0  0  0  0  0  0
   45.7450   33.3190   46.5050 C   0  0  0  0  0  0  0  0  0  0  0  0
   46.7920   32.4420   46.6960 C   0  0  0  0  0  0  0  0  0  0  0  0
   46.5310   31.8670   47.9370 C   0  0  0  0  0  0  0  0  0  0  0  0
   45.3980   32.3870   48.4250 N   0  0  0  0  0  0  0  0  0  0  0  0
   44.9160   33.2620   47.5710 N   0  0  0  0  0  0  0  0  0  0  0  0
   46.6240   34.4410   41.5250 S   0  0  0  0  0  0  0  0  0  0  0  0
   48.2870   33.9080   41.7620 C   0  0  0  0  0  0  0  0  0  0  0  0
   49.1540   34.7890   42.4040 C   0  0  0  0  0  0  0  0  0  0  0  0
   50.4610   34.4110   42.6070 C   0  0  0  0  0  0  0  0  0  0  0  0
   50.9460   33.1700   42.1910 C   0  0  0  0  0  0  0  0  0  0  0  0
   50.0690   32.2990   41.5510 C   0  0  0  0  0  0  0  0  0  0  0  0
   48.7620   32.6760   41.3460 C   0  0  0  0  0  0  0  0  0  0  0  0
   47.8060   31.8790   40.7170 O   0  0  0  0  0  0  0  0  0  0  0  0
   43.7829   36.9528   44.6964 H   0  0  0  0  0  0  0  0  0  0  0  0
   44.7936   36.5992   42.4403 H   0  0  0  0  0  0  0  0  0  0  0  0
   47.6387   32.2426   46.0227 H   0  0  0  0  0  0  0  0  0  0  0  0
   47.1539   31.1094   48.4350 H   0  0  0  0  0  0  0  0  0  0  0  0
   44.9706   32.1398   49.3290 H   0  0  0  0  0  0  0  0  0  0  0  0
   48.7987   35.7730   42.7438 H   0  0  0  0  0  0  0  0  0  0  0  0
   51.1451   35.1083   43.1128 H   0  0  0  0  0  0  0  0  0  0  0  0
   51.9948   32.8875   42.3646 H   0  0  0  0  0  0  0  0  0  0  0  0
   50.4195   31.3135   41.2106 H   0  0  0  0  0  0  0  0  0  0  0  0
   46.8812   32.2130   40.6020 H   0  0  0  0  0  0  0  0  0  0  0  0
  1  6  2  0
  2  1  1  0
  3  2  2  0
  3  4  1  0
  4  5  2  0
  5  6  1  0
  5  7  1  0
  7  8  1  0
  7 11  2  0
  8  9  2  0
  9 10  1  0
 11 10  1  0
 12 13  1  0
 12  3  1  0
 13 14  2  0
 14 15  1  0
 16 15  2  0
 17 16  1  0
 18 17  2  0
 18 13  1  0
 19 18  1  0
  1 20  1  0
  2 21  1  0
  8 22  1  0
  9 23  1  0
 10 24  1  0
 14 25  1  0
 15 26  1  0
 16 27  1  0
 17 28  1  0
 19 29  1  0
M  ISO  8  20  14  21  14  22  14  23  14  24   9  25  14  26  14  27  14
M  ISO  2  28  14  29   3
M  END
>  <minimizedAffinity>  (1) 
-5.86266613

>  <minimizedRMSD>  (1) 
0.327529937

$$$$
