
     RDKit          3D

 28 30  0  0  0  0  0  0  0  0999 V2000
   44.4800   35.9420   44.7440 C   0  0  0  0  0  0  0  0  0  0  0  0
   45.0270   35.8650   43.4610 C   0  0  0  0  0  0  0  0  0  0  0  0
   45.8890   34.7900   43.1810 C   0  0  0  0  0  0  0  0  0  0  0  0
   46.1420   33.8840   44.1810 N   0  0  0  0  0  0  0  0  0  0  0  0
   45.5850   34.0040   45.4090 C   0  0  0  0  0  0  0  0  0  0  0  0
   44.7620   35.0220   45.6910 N   0  0  0  0  0  0  0  0  0  0  0  0
   45.9390   32.9620   46.3950 C   0  0  0  0  0  0  0  0  0  0  0  0
   46.9630   31.9680   46.2070 C   0  0  0  0  0  0  0  0  0  0  0  0
   46.8290   31.0760   47.7690 S   0  0  0  0  0  0  0  0  0  0  0  0
   45.4180   32.1830   48.4200 C   0  0  0  0  0  0  0  0  0  0  0  0
   45.2190   32.9940   47.5280 N   0  0  0  0  0  0  0  0  0  0  0  0
   46.6470   34.5870   41.5790 S   0  0  0  0  0  0  0  0  0  0  0  0
   48.2990   33.9670   41.7640 C   0  0  0  0  0  0  0  0  0  0  0  0
   49.2020   34.7630   42.4510 C   0  0  0  0  0  0  0  0  0  0  0  0
   50.4850   34.3200   42.6160 C   0  0  0  0  0  0  0  0  0  0  0  0
   50.9110   33.0800   42.1080 C   0  0  0  0  0  0  0  0  0  0  0  0
   49.9980   32.2900   41.4220 C   0  0  0  0  0  0  0  0  0  0  0  0
   48.7190   32.7420   41.2630 C   0  0  0  0  0  0  0  0  0  0  0  0
   47.7250   32.0420   40.5980 O   0  0  0  0  0  0  0  0  0  0  0  0
   43.8024   36.7732   44.9889 H   0  0  0  0  0  0  0  0  0  0  0  0
   44.7915   36.6195   42.6960 H   0  0  0  0  0  0  0  0  0  0  0  0
   47.6360   31.8001   45.3533 H   0  0  0  0  0  0  0  0  0  0  0  0
   44.8978   32.1077   49.3863 H   0  0  0  0  0  0  0  0  0  0  0  0
   48.8911   35.7367   42.8575 H   0  0  0  0  0  0  0  0  0  0  0  0
   51.2031   34.9505   43.1607 H   0  0  0  0  0  0  0  0  0  0  0  0
   51.9480   32.7421   42.2513 H   0  0  0  0  0  0  0  0  0  0  0  0
   50.3003   31.3147   41.0128 H   0  0  0  0  0  0  0  0  0  0  0  0
   46.8167   32.4276   40.5183 H   0  0  0  0  0  0  0  0  0  0  0  0
  1  6  2  0
  2  1  1  0
  3  2  2  0
  3  4  1  0
  4  5  2  0
  5  6  1  0
  5  7  1  0
  7 11  1  0
  8  7  2  0
  8  9  1  0
  9 10  1  0
 11 10  2  0
 12 13  1  0
 12  3  1  0
 13 14  2  0
 14 15  1  0
 16 15  2  0
 17 16  1  0
 18 17  2  0
 18 13  1  0
 19 18  1  0
  1 20  1  0
  2 21  1  0
  8 22  1  0
 10 23  1  0
 14 24  1  0
 15 25  1  0
 16 26  1  0
 17 27  1  0
 19 28  1  0
M  ISO  8  20  14  21  14  22  14  23  14  24  14  25  14  26  14  27  14
M  ISO  1  28   3
M  END
>  <minimizedAffinity>  (1) 
-5.75950193

>  <minimizedRMSD>  (1) 
0.226089433

$$$$
