
     RDKit          3D

 35 37  0  0  0  0  0  0  0  0999 V2000
   44.7420   34.9000   45.3470 C   0  0  0  0  0  0  0  0  0  0  0  0
   45.1990   35.1960   44.0560 C   0  0  0  0  0  0  0  0  0  0  0  0
   46.3270   34.4840   43.5930 C   0  0  0  0  0  0  0  0  0  0  0  0
   46.9000   33.5550   44.4320 N   0  0  0  0  0  0  0  0  0  0  0  0
   46.4150   33.3120   45.6700 C   0  0  0  0  0  0  0  0  0  0  0  0
   45.3500   33.9680   46.1370 N   0  0  0  0  0  0  0  0  0  0  0  0
   48.3300   30.4390   48.0960 C   0  0  0  0  0  0  0  0  0  0  0  0
   48.0290   31.6840   48.6460 C   0  0  0  0  0  0  0  0  0  0  0  0
   47.4060   32.5830   47.8130 C   0  0  0  0  0  0  0  0  0  0  0  0
   47.0780   32.3110   46.5010 C   0  0  0  0  0  0  0  0  0  0  0  0
   47.3990   31.0640   46.0090 C   0  0  0  0  0  0  0  0  0  0  0  0
   48.0340   30.0860   46.7830 C   0  0  0  0  0  0  0  0  0  0  0  0
   49.1240   29.3030   49.1670 S   0  0  0  0  0  0  0  0  0  0  0  0
   49.5410   30.0400   50.4160 O   0  0  0  0  0  0  0  0  0  0  0  0
   50.3990   28.7900   48.5350 O   0  0  0  0  0  0  0  0  0  0  0  0
   47.0100   34.7590   41.9780 S   0  0  0  0  0  0  0  0  0  0  0  0
   48.5100   33.8550   41.7730 C   0  0  0  0  0  0  0  0  0  0  0  0
   49.6140   34.2940   42.4890 C   0  0  0  0  0  0  0  0  0  0  0  0
   50.8090   33.6300   42.3690 C   0  0  0  0  0  0  0  0  0  0  0  0
   50.9440   32.5090   41.5350 C   0  0  0  0  0  0  0  0  0  0  0  0
   49.8410   32.0820   40.8290 C   0  0  0  0  0  0  0  0  0  0  0  0
   48.6300   32.7580   40.9520 C   0  0  0  0  0  0  0  0  0  0  0  0
   47.4550   32.4150   40.2890 O   0  0  0  0  0  0  0  0  0  0  0  0
   43.8643   35.4365   45.7366 H   0  0  0  0  0  0  0  0  0  0  0  0
   44.7004   35.9507   43.4300 H   0  0  0  0  0  0  0  0  0  0  0  0
   48.2762   31.9333   49.6885 H   0  0  0  0  0  0  0  0  0  0  0  0
   47.1549   33.5754   48.2155 H   0  0  0  0  0  0  0  0  0  0  0  0
   47.1456   30.8278   44.9650 H   0  0  0  0  0  0  0  0  0  0  0  0
   48.2847   29.0950   46.3766 H   0  0  0  0  0  0  0  0  0  0  0  0
   48.2622   28.2705   49.4278 H   0  0  0  0  0  0  0  0  0  0  0  0
   49.5320   35.1698   43.1495 H   0  0  0  0  0  0  0  0  0  0  0  0
   51.6805   33.9841   42.9391 H   0  0  0  0  0  0  0  0  0  0  0  0
   51.9069   31.9845   41.4474 H   0  0  0  0  0  0  0  0  0  0  0  0
   49.9170   31.2064   40.1676 H   0  0  0  0  0  0  0  0  0  0  0  0
   46.6330   32.9482   40.4307 H   0  0  0  0  0  0  0  0  0  0  0  0
  1  6  2  0
  2  1  1  0
  3  2  2  0
  3  4  1  0
  4  5  2  0
  5  6  1  0
  5 10  1  0
  7  8  2  0
  7 13  1  0
  9  8  1  0
 10  9  2  0
 11 10  1  0
 11 12  2  0
 12  7  1  0
 13 14  2  0
 15 13  2  0
 16  3  1  0
 17 16  1  0
 17 18  2  0
 19 18  1  0
 20 19  2  0
 21 22  2  0
 21 20  1  0
 22 17  1  0
 23 22  1  0
  1 24  1  0
  2 25  1  0
  8 26  1  0
  9 27  1  0
 11 28  1  0
 12 29  1  0
 13 30  1  0
 18 31  1  0
 19 32  1  0
 20 33  1  0
 21 34  1  0
 23 35  1  0
M  ISO  8  24  14  25  14  26  14  27  14  28  14  29  14  30  11  31  14
M  ISO  4  32  14  33  14  34  14  35   3
M  END
>  <minimizedAffinity>  (1) 
-5.58303022

>  <minimizedRMSD>  (1) 
1.69706416

$$$$
