
     RDKit          3D

 38 40  0  0  0  0  0  0  0  0999 V2000
   44.6510   34.7920   45.8680 C   0  0  0  0  0  0  0  0  0  0  0  0
   45.0120   35.0030   44.5400 C   0  0  0  0  0  0  0  0  0  0  0  0
   46.1050   34.2560   44.0420 C   0  0  0  0  0  0  0  0  0  0  0  0
   46.7300   33.3830   44.8830 N   0  0  0  0  0  0  0  0  0  0  0  0
   46.3430   33.2110   46.1680 C   0  0  0  0  0  0  0  0  0  0  0  0
   45.3120   33.9110   46.6550 N   0  0  0  0  0  0  0  0  0  0  0  0
   47.0340   32.2560   47.0790 C   0  0  0  0  0  0  0  0  0  0  0  0
   47.0060   30.8400   46.5600 C   0  0  0  0  0  0  0  0  0  0  0  0
   45.6230   30.2570   46.5030 C   0  0  0  0  0  0  0  0  0  0  0  0
   44.8560   30.4570   47.7770 C   0  0  0  0  0  0  0  0  0  0  0  0
   45.7620   31.0060   48.8520 C   0  0  0  0  0  0  0  0  0  0  0  0
   46.4350   32.2790   48.4610 C   0  0  0  0  0  0  0  0  0  0  0  0
   46.6560   34.4450   42.3520 S   0  0  0  0  0  0  0  0  0  0  0  0
   48.2870   33.7900   42.1850 C   0  0  0  0  0  0  0  0  0  0  0  0
   49.3540   34.5580   42.6120 C   0  0  0  0  0  0  0  0  0  0  0  0
   50.6350   34.0840   42.4990 C   0  0  0  0  0  0  0  0  0  0  0  0
   50.9030   32.8240   41.9560 C   0  0  0  0  0  0  0  0  0  0  0  0
   49.8380   32.0400   41.5230 C   0  0  0  0  0  0  0  0  0  0  0  0
   48.5500   32.5380   41.6460 C   0  0  0  0  0  0  0  0  0  0  0  0
   47.4060   31.8370   41.2440 O   0  0  0  0  0  0  0  0  0  0  0  0
   43.8059   35.3564   46.2890 H   0  0  0  0  0  0  0  0  0  0  0  0
   44.4704   35.7199   43.9053 H   0  0  0  0  0  0  0  0  0  0  0  0
   48.0805   32.5919   47.1244 H   0  0  0  0  0  0  0  0  0  0  0  0
   47.4310   30.8312   45.5455 H   0  0  0  0  0  0  0  0  0  0  0  0
   47.5912   30.2245   47.2590 H   0  0  0  0  0  0  0  0  0  0  0  0
   45.0720   30.7383   45.6816 H   0  0  0  0  0  0  0  0  0  0  0  0
   45.7261   29.1734   46.3445 H   0  0  0  0  0  0  0  0  0  0  0  0
   44.0338   31.1656   47.5984 H   0  0  0  0  0  0  0  0  0  0  0  0
   44.4529   29.4886   48.1083 H   0  0  0  0  0  0  0  0  0  0  0  0
   45.1610   31.1913   49.7545 H   0  0  0  0  0  0  0  0  0  0  0  0
   46.5511   30.2597   49.0266 H   0  0  0  0  0  0  0  0  0  0  0  0
   47.2396   32.4809   49.1834 H   0  0  0  0  0  0  0  0  0  0  0  0
   45.6611   33.0607   48.4594 H   0  0  0  0  0  0  0  0  0  0  0  0
   49.1743   35.5535   43.0442 H   0  0  0  0  0  0  0  0  0  0  0  0
   51.4717   34.7095   42.8436 H   0  0  0  0  0  0  0  0  0  0  0  0
   51.9373   32.4588   41.8725 H   0  0  0  0  0  0  0  0  0  0  0  0
   50.0147   31.0438   41.0912 H   0  0  0  0  0  0  0  0  0  0  0  0
   46.5107   32.2443   41.3568 H   0  0  0  0  0  0  0  0  0  0  0  0
  1  6  2  0
  2  1  1  0
  3  2  2  0
  3  4  1  0
  4  5  2  0
  5  6  1  0
  5  7  1  0
  7 12  1  0
  8  7  1  0
  9  8  1  0
  9 10  1  0
 10 11  1  0
 12 11  1  0
 13  3  1  0
 14 13  1  0
 14 15  2  0
 16 15  1  0
 17 16  2  0
 18 19  2  0
 18 17  1  0
 19 14  1  0
 20 19  1  0
  1 21  1  0
  2 22  1  0
  7 23  1  0
  8 24  1  0
  8 25  1  0
  9 26  1  0
  9 27  1  0
 10 28  1  0
 10 29  1  0
 11 30  1  0
 11 31  1  0
 12 32  1  0
 12 33  1  0
 15 34  1  0
 16 35  1  0
 17 36  1  0
 18 37  1  0
 20 38  1  0
M  ISO  8  21  14  22  14  23  13  24  13  25  13  26  13  27  13  28  13
M  ISO  8  29  13  30  13  31  13  32  13  33  13  34  14  35  14  36  14
M  ISO  2  37  14  38   3
M  END
>  <minimizedAffinity>  (1) 
-5.56723976

>  <minimizedRMSD>  (1) 
1.79433417

$$$$
