
     RDKit          3D

 29 31  0  0  0  0  0  0  0  0999 V2000
   48.3260   33.9980   41.7620 C   0  0  0  0  0  0  0  0  0  0  0  0
   49.2860   34.7120   42.4740 C   0  0  0  0  0  0  0  0  0  0  0  0
   50.5520   34.2090   42.5980 C   0  0  0  0  0  0  0  0  0  0  0  0
   50.9220   32.9830   42.0270 C   0  0  0  0  0  0  0  0  0  0  0  0
   49.9570   32.2860   41.3230 C   0  0  0  0  0  0  0  0  0  0  0  0
   48.6840   32.7890   41.1950 C   0  0  0  0  0  0  0  0  0  0  0  0
   47.6310   32.1730   40.5090 O   0  0  0  0  0  0  0  0  0  0  0  0
   46.7130   34.7110   41.6430 S   0  0  0  0  0  0  0  0  0  0  0  0
   44.5760   35.8240   44.9270 C   0  0  0  0  0  0  0  0  0  0  0  0
   45.1290   35.8560   43.6480 C   0  0  0  0  0  0  0  0  0  0  0  0
   45.9510   34.7810   43.2490 C   0  0  0  0  0  0  0  0  0  0  0  0
   46.1500   33.7680   44.1620 N   0  0  0  0  0  0  0  0  0  0  0  0
   45.5940   33.7810   45.3860 C   0  0  0  0  0  0  0  0  0  0  0  0
   44.8130   34.7900   45.7790 N   0  0  0  0  0  0  0  0  0  0  0  0
   45.8770   32.6340   46.2860 C   0  0  0  0  0  0  0  0  0  0  0  0
   46.9360   32.7470   47.3240 C   0  0  0  0  0  0  0  0  0  0  0  0
   45.4590   32.6150   47.7010 C   0  0  0  0  0  0  0  0  0  0  0  0
   49.0275   35.6767   42.9350 H   0  0  0  0  0  0  0  0  0  0  0  0
   51.3017   34.7831   43.1622 H   0  0  0  0  0  0  0  0  0  0  0  0
   51.9435   32.5895   42.1351 H   0  0  0  0  0  0  0  0  0  0  0  0
   50.2104   31.3203   40.8612 H   0  0  0  0  0  0  0  0  0  0  0  0
   46.7437   32.6102   40.4685 H   0  0  0  0  0  0  0  0  0  0  0  0
   43.9330   36.6540   45.2552 H   0  0  0  0  0  0  0  0  0  0  0  0
   44.9298   36.6971   42.9677 H   0  0  0  0  0  0  0  0  0  0  0  0
   45.6848   31.9600   45.4382 H   0  0  0  0  0  0  0  0  0  0  0  0
   47.6297   31.9119   47.5009 H   0  0  0  0  0  0  0  0  0  0  0  0
   47.7443   33.4585   47.5485 H   0  0  0  0  0  0  0  0  0  0  0  0
   44.9197   33.4730   48.1288 H   0  0  0  0  0  0  0  0  0  0  0  0
   44.8713   31.9337   48.3337 H   0  0  0  0  0  0  0  0  0  0  0  0
  1  2  2  0
  2  3  1  0
  4  3  2  0
  5  4  1  0
  6  5  2  0
  6  1  1  0
  7  6  1  0
  8  1  1  0
  8 11  1  0
  9 14  2  0
 10  9  1  0
 11 10  2  0
 11 12  1  0
 12 13  2  0
 13 14  1  0
 13 15  1  0
 15 16  1  0
 15 17  1  0
 16 17  1  0
  2 18  1  0
  3 19  1  0
  4 20  1  0
  5 21  1  0
  7 22  1  0
  9 23  1  0
 10 24  1  0
 15 25  1  0
 16 26  1  0
 16 27  1  0
 17 28  1  0
 17 29  1  0
M  ISO  8  18  14  19  14  20  14  21  14  22   3  23  14  24  14  25  13
M  ISO  4  26  13  27  13  28  13  29  13
M  END
>  <minimizedAffinity>  (1) 
-5.27072763

>  <minimizedRMSD>  (1) 
0.307300061

$$$$
