
     RDKit          3D

 23 24  0  0  0  0  0  0  0  0999 V2000
   48.2750   33.9380   41.7190 C   0  0  0  0  0  0  0  0  0  0  0  0
   49.1230   34.7910   42.3960 C   0  0  0  0  0  0  0  0  0  0  0  0
   50.4290   34.4210   42.6180 C   0  0  0  0  0  0  0  0  0  0  0  0
   50.9190   33.1850   42.1650 C   0  0  0  0  0  0  0  0  0  0  0  0
   50.0680   32.3340   41.4890 C   0  0  0  0  0  0  0  0  0  0  0  0
   48.7500   32.7230   41.2730 C   0  0  0  0  0  0  0  0  0  0  0  0
   47.8070   31.9460   40.6040 O   0  0  0  0  0  0  0  0  0  0  0  0
   46.6080   34.4780   41.4690 S   0  0  0  0  0  0  0  0  0  0  0  0
   44.5840   36.2440   44.5120 C   0  0  0  0  0  0  0  0  0  0  0  0
   45.1630   36.0490   43.2570 C   0  0  0  0  0  0  0  0  0  0  0  0
   45.8320   34.8340   43.0340 C   0  0  0  0  0  0  0  0  0  0  0  0
   45.8790   33.9200   44.0450 N   0  0  0  0  0  0  0  0  0  0  0  0
   45.3060   34.1400   45.2560 C   0  0  0  0  0  0  0  0  0  0  0  0
   44.6570   35.3050   45.4880 N   0  0  0  0  0  0  0  0  0  0  0  0
   45.4050   33.1610   46.2140 O   0  0  0  0  0  0  0  0  0  0  0  0
   48.7557   35.7631   42.7567 H   0  0  0  0  0  0  0  0  0  0  0  0
   51.1005   35.1040   43.1590 H   0  0  0  0  0  0  0  0  0  0  0  0
   51.9657   32.8994   42.3463 H   0  0  0  0  0  0  0  0  0  0  0  0
   50.4277   31.3601   41.1255 H   0  0  0  0  0  0  0  0  0  0  0  0
   46.8837   32.2825   40.4839 H   0  0  0  0  0  0  0  0  0  0  0  0
   44.0535   37.1859   44.7152 H   0  0  0  0  0  0  0  0  0  0  0  0
   45.0979   36.8174   42.4725 H   0  0  0  0  0  0  0  0  0  0  0  0
   44.9957   33.2972   47.1051 H   0  0  0  0  0  0  0  0  0  0  0  0
  1  2  2  0
  2  3  1  0
  4  3  2  0
  5  4  1  0
  6  5  2  0
  6  1  1  0
  7  6  1  0
  8  1  1  0
  8 11  1  0
  9 14  2  0
 10  9  1  0
 11 10  2  0
 11 12  1  0
 12 13  2  0
 13 14  1  0
 13 15  1  0
  2 16  1  0
  3 17  1  0
  4 18  1  0
  5 19  1  0
  7 20  1  0
  9 21  1  0
 10 22  1  0
 15 23  1  0
M  ISO  8  16  14  17  14  18  14  19  14  20   3  21  14  22  14  23   3
M  END
>  <minimizedAffinity>  (1) 
-5.04897499

>  <minimizedRMSD>  (1) 
0.142765105

$$$$
