
     RDKit          3D

 28 29  0  0  0  0  0  0  0  0999 V2000
   48.3050   33.9690   41.7760 C   0  0  0  0  0  0  0  0  0  0  0  0
   49.2340   34.7430   42.4670 C   0  0  0  0  0  0  0  0  0  0  0  0
   50.5190   34.2840   42.6150 C   0  0  0  0  0  0  0  0  0  0  0  0
   50.9140   33.0610   42.0880 C   0  0  0  0  0  0  0  0  0  0  0  0
   49.9910   32.2800   41.3960 C   0  0  0  0  0  0  0  0  0  0  0  0
   48.7070   32.7550   41.2560 C   0  0  0  0  0  0  0  0  0  0  0  0
   47.6760   32.0820   40.5890 O   0  0  0  0  0  0  0  0  0  0  0  0
   46.6690   34.6280   41.6280 S   0  0  0  0  0  0  0  0  0  0  0  0
   44.4990   35.8600   44.8330 C   0  0  0  0  0  0  0  0  0  0  0  0
   45.0410   35.8260   43.5540 C   0  0  0  0  0  0  0  0  0  0  0  0
   45.9150   34.7710   43.2390 C   0  0  0  0  0  0  0  0  0  0  0  0
   46.1790   33.8470   44.2070 N   0  0  0  0  0  0  0  0  0  0  0  0
   45.6290   33.9160   45.4450 C   0  0  0  0  0  0  0  0  0  0  0  0
   44.7960   34.9130   45.7580 N   0  0  0  0  0  0  0  0  0  0  0  0
   46.0570   32.8010   46.3440 C   0  0  0  0  0  0  0  0  0  0  0  0
   45.2750   32.8190   47.6210 C   0  0  0  0  0  0  0  0  0  0  0  0
   48.9402   35.7146   42.8909 H   0  0  0  0  0  0  0  0  0  0  0  0
   51.2507   34.8969   43.1619 H   0  0  0  0  0  0  0  0  0  0  0  0
   51.9490   32.7114   42.2163 H   0  0  0  0  0  0  0  0  0  0  0  0
   50.2814   31.3075   40.9719 H   0  0  0  0  0  0  0  0  0  0  0  0
   46.7757   32.4896   40.5301 H   0  0  0  0  0  0  0  0  0  0  0  0
   43.8117   36.6755   45.1024 H   0  0  0  0  0  0  0  0  0  0  0  0
   44.7941   36.5996   42.8120 H   0  0  0  0  0  0  0  0  0  0  0  0
   45.8910   31.8413   45.8327 H   0  0  0  0  0  0  0  0  0  0  0  0
   47.1235   32.9283   46.5813 H   0  0  0  0  0  0  0  0  0  0  0  0
   45.9677   32.8031   48.4754 H   0  0  0  0  0  0  0  0  0  0  0  0
   44.6621   33.7315   47.6628 H   0  0  0  0  0  0  0  0  0  0  0  0
   44.6208   31.9357   47.6628 H   0  0  0  0  0  0  0  0  0  0  0  0
  1  2  2  0
  2  3  1  0
  4  3  2  0
  5  4  1  0
  6  5  2  0
  6  1  1  0
  7  6  1  0
  8  1  1  0
  8 11  1  0
  9 14  2  0
 10  9  1  0
 11 10  2  0
 11 12  1  0
 12 13  2  0
 13 14  1  0
 13 15  1  0
 15 16  1  0
  2 17  1  0
  3 18  1  0
  4 19  1  0
  5 20  1  0
  7 21  1  0
  9 22  1  0
 10 23  1  0
 15 24  1  0
 15 25  1  0
 16 26  1  0
 16 27  1  0
 16 28  1  0
M  ISO  8  17  14  18  14  19  14  20  14  21   3  22  14  23  14  24   8
M  ISO  4  25   8  26   8  27   8  28   8
M  END
>  <minimizedAffinity>  (1) 
-5.04675722

>  <minimizedRMSD>  (1) 
0.398711324

$$$$
