
     RDKit          3D

 48 51  0  0  1  0  0  0  0  0999 V2000
   46.5280   31.4320   47.0950 C   0  0  2  0  0  0  0  0  0  0  0  0
   45.4060   30.3870   47.2120 C   0  0  0  0  0  0  0  0  0  0  0  0
   44.7410   30.7420   48.4990 C   0  0  0  0  0  0  0  0  0  0  0  0
   45.8770   31.0940   49.4060 C   0  0  0  0  0  0  0  0  0  0  0  0
   46.9020   31.7630   48.5160 C   0  0  1  0  0  0  0  0  0  0  0  0
   48.2400   31.2510   48.7420 N   0  0  0  0  0  0  0  0  0  0  0  0
   49.1640   32.0850   49.2730 C   0  0  0  0  0  0  0  0  0  0  0  0
   50.4350   31.5520   49.4730 C   0  0  0  0  0  0  0  0  0  0  0  0
   51.4430   32.4650   50.0530 C   0  0  0  0  0  0  0  0  0  0  0  0
   50.7560   30.2350   49.1490 C   0  0  0  0  0  0  0  0  0  0  0  0
   51.9450   29.8470   49.3700 O   0  0  0  0  0  0  0  0  0  0  0  0
   49.7990   29.4540   48.6240 N   0  0  0  0  0  0  0  0  0  0  0  0
   48.5710   29.9630   48.4300 C   0  0  0  0  0  0  0  0  0  0  0  0
   47.6830   29.1980   47.9320 O   0  0  0  0  0  0  0  0  0  0  0  0
   44.6620   34.5410   46.4850 C   0  0  0  0  0  0  0  0  0  0  0  0
   45.0360   34.9350   45.2040 C   0  0  0  0  0  0  0  0  0  0  0  0
   45.9590   34.1080   44.5270 C   0  0  0  0  0  0  0  0  0  0  0  0
   46.4170   32.9900   45.1650 N   0  0  0  0  0  0  0  0  0  0  0  0
   46.0190   32.6580   46.4090 C   0  0  0  0  0  0  0  0  0  0  0  0
   45.1490   33.4220   47.0670 N   0  0  0  0  0  0  0  0  0  0  0  0
   46.5120   34.5160   42.8760 S   0  0  0  0  0  0  0  0  0  0  0  0
   48.1510   33.9010   42.6090 C   0  0  0  0  0  0  0  0  0  0  0  0
   49.1700   34.8300   42.6710 C   0  0  0  0  0  0  0  0  0  0  0  0
   50.4690   34.4230   42.4740 C   0  0  0  0  0  0  0  0  0  0  0  0
   50.7800   33.0950   42.2150 C   0  0  0  0  0  0  0  0  0  0  0  0
   49.7560   32.1700   42.1550 C   0  0  0  0  0  0  0  0  0  0  0  0
   48.4560   32.5810   42.3530 C   0  0  0  0  0  0  0  0  0  0  0  0
   47.3370   31.7520   42.3190 O   0  0  0  0  0  0  0  0  0  0  0  0
   47.3824   31.0571   46.5125 H   0  0  0  0  0  0  0  0  0  0  0  0
   44.7031   30.4673   46.3697 H   0  0  0  0  0  0  0  0  0  0  0  0
   45.7773   29.3518   47.1900 H   0  0  0  0  0  0  0  0  0  0  0  0
   44.0655   31.6000   48.3668 H   0  0  0  0  0  0  0  0  0  0  0  0
   44.1197   29.9251   48.8948 H   0  0  0  0  0  0  0  0  0  0  0  0
   45.5417   31.7839   50.1945 H   0  0  0  0  0  0  0  0  0  0  0  0
   46.2879   30.2086   49.9132 H   0  0  0  0  0  0  0  0  0  0  0  0
   46.9052   32.8423   48.7282 H   0  0  0  0  0  0  0  0  0  0  0  0
   48.9243   33.1268   49.5324 H   0  0  0  0  0  0  0  0  0  0  0  0
   51.3914   32.4183   51.1508 H   0  0  0  0  0  0  0  0  0  0  0  0
   52.4467   32.1623   49.7199 H   0  0  0  0  0  0  0  0  0  0  0  0
   51.2408   33.4937   49.7199 H   0  0  0  0  0  0  0  0  0  0  0  0
   50.0036   28.4763   48.3729 H   0  0  0  0  0  0  0  0  0  0  0  0
   43.9455   35.1613   47.0434 H   0  0  0  0  0  0  0  0  0  0  0  0
   44.6319   35.8472   44.7407 H   0  0  0  0  0  0  0  0  0  0  0  0
   48.9451   35.8870   42.8762 H   0  0  0  0  0  0  0  0  0  0  0  0
   51.2789   35.1657   42.5227 H   0  0  0  0  0  0  0  0  0  0  0  0
   51.8239   32.7848   42.0602 H   0  0  0  0  0  0  0  0  0  0  0  0
   49.9770   31.1120   41.9505 H   0  0  0  0  0  0  0  0  0  0  0  0
   46.4354   32.1309   42.4726 H   0  0  0  0  0  0  0  0  0  0  0  0
  1  2  1  0
  1  5  1  0
  2  3  1  0
  3  4  1  0
  5  6  1  0
  5  4  1  0
  6  7  1  0
  7  8  2  0
  8  9  1  0
 10 11  2  0
 10  8  1  0
 12 10  1  0
 13 12  1  0
 13  6  1  0
 14 13  2  0
 15 20  2  0
 16 15  1  0
 17 18  1  0
 17 16  2  0
 18 19  2  0
 19 20  1  0
 19  1  1  0
 21 17  1  0
 22 23  2  0
 22 21  1  0
 24 23  1  0
 25 24  2  0
 26 25  1  0
 26 27  2  0
 27 22  1  0
 28 27  1  0
  1 29  1  6
  2 30  1  0
  2 31  1  0
  3 32  1  0
  3 33  1  0
  4 34  1  0
  4 35  1  0
  5 36  1  6
  7 37  1  0
  9 38  1  0
  9 39  1  0
  9 40  1  0
 12 41  1  0
 15 42  1  0
 16 43  1  0
 23 44  1  0
 24 45  1  0
 25 46  1  0
 26 47  1  0
 28 48  1  0
M  ISO  8  29  13  30  13  31  13  32  13  33  13  34  13  35  13  36  13
M  ISO  8  37  14  38   8  39   8  40   8  41   9  42  14  43  14  44  14
M  ISO  4  45  14  46  14  47  14  48   3
M  END
>  <minimizedAffinity>  (1) 
-6.46603537

>  <minimizedRMSD>  (1) 
1.15000057

$$$$
