
     RDKit          3D

 45 48  0  0  1  0  0  0  0  0999 V2000
   46.3420   31.3270   47.1230 C   0  0  2  0  0  0  0  0  0  0  0  0
   45.1140   30.4740   47.4980 C   0  0  0  0  0  0  0  0  0  0  0  0
   44.7220   31.0080   48.8460 C   0  0  0  0  0  0  0  0  0  0  0  0
   46.0480   31.2040   49.5290 C   0  0  0  0  0  0  0  0  0  0  0  0
   46.9750   31.6670   48.4430 C   0  0  1  0  0  0  0  0  0  0  0  0
   48.3580   31.1500   48.5590 C   0  0  0  0  0  0  0  0  0  0  0  0
   48.7710   30.0290   47.8670 C   0  0  0  0  0  0  0  0  0  0  0  0
   50.0710   29.5610   47.9870 C   0  0  0  0  0  0  0  0  0  0  0  0
   50.9960   30.2060   48.8080 C   0  0  0  0  0  0  0  0  0  0  0  0
   50.6070   31.3340   49.5140 C   0  0  0  0  0  0  0  0  0  0  0  0
   49.3200   31.7550   49.3630 C   0  0  0  0  0  0  0  0  0  0  0  0
   44.6940   34.5530   46.4990 C   0  0  0  0  0  0  0  0  0  0  0  0
   45.0630   34.8930   45.2000 C   0  0  0  0  0  0  0  0  0  0  0  0
   45.9030   33.9840   44.5210 C   0  0  0  0  0  0  0  0  0  0  0  0
   46.2970   32.8510   45.1620 N   0  0  0  0  0  0  0  0  0  0  0  0
   45.9080   32.5700   46.4260 C   0  0  0  0  0  0  0  0  0  0  0  0
   45.1160   33.4100   47.0880 N   0  0  0  0  0  0  0  0  0  0  0  0
   46.4380   34.3220   42.8440 S   0  0  0  0  0  0  0  0  0  0  0  0
   48.1210   33.7970   42.6260 C   0  0  0  0  0  0  0  0  0  0  0  0
   49.0830   34.7780   42.6420 C   0  0  0  0  0  0  0  0  0  0  0  0
   50.4070   34.4420   42.4800 C   0  0  0  0  0  0  0  0  0  0  0  0
   50.7890   33.1190   42.2990 C   0  0  0  0  0  0  0  0  0  0  0  0
   49.8110   32.1250   42.2830 C   0  0  0  0  0  0  0  0  0  0  0  0
   48.4990   32.4810   42.4460 C   0  0  0  0  0  0  0  0  0  0  0  0
   47.4260   31.5850   42.4500 O   0  0  0  0  0  0  0  0  0  0  0  0
   47.0322   30.8019   46.4463 H   0  0  0  0  0  0  0  0  0  0  0  0
   44.3019   30.6102   46.7687 H   0  0  0  0  0  0  0  0  0  0  0  0
   45.3258   29.3946   47.5072 H   0  0  0  0  0  0  0  0  0  0  0  0
   44.1807   31.9610   48.7519 H   0  0  0  0  0  0  0  0  0  0  0  0
   44.0442   30.3398   49.3974 H   0  0  0  0  0  0  0  0  0  0  0  0
   45.9677   31.9643   50.3199 H   0  0  0  0  0  0  0  0  0  0  0  0
   46.4047   30.2836   50.0144 H   0  0  0  0  0  0  0  0  0  0  0  0
   47.1042   32.7553   48.5372 H   0  0  0  0  0  0  0  0  0  0  0  0
   48.0611   29.5012   47.2132 H   0  0  0  0  0  0  0  0  0  0  0  0
   50.3777   28.6663   47.4254 H   0  0  0  0  0  0  0  0  0  0  0  0
   52.0237   29.8235   48.8944 H   0  0  0  0  0  0  0  0  0  0  0  0
   51.3098   31.8681   50.1703 H   0  0  0  0  0  0  0  0  0  0  0  0
   49.0148   32.6501   49.9248 H   0  0  0  0  0  0  0  0  0  0  0  0
   44.0399   35.2339   47.0633 H   0  0  0  0  0  0  0  0  0  0  0  0
   44.7171   35.8237   44.7265 H   0  0  0  0  0  0  0  0  0  0  0  0
   48.7949   35.8300   42.7841 H   0  0  0  0  0  0  0  0  0  0  0  0
   51.1731   35.2313   42.4940 H   0  0  0  0  0  0  0  0  0  0  0  0
   51.8499   32.8585   42.1699 H   0  0  0  0  0  0  0  0  0  0  0  0
   50.0896   31.0703   42.1415 H   0  0  0  0  0  0  0  0  0  0  0  0
   46.5024   31.9193   42.5739 H   0  0  0  0  0  0  0  0  0  0  0  0
  1  2  1  0
  1  5  1  0
  2  3  1  0
  3  4  1  0
  5  6  1  0
  5  4  1  0
  6 11  2  0
  7  8  2  0
  7  6  1  0
  8  9  1  0
  9 10  2  0
 11 10  1  0
 12 17  2  0
 13 12  1  0
 14 15  1  0
 14 13  2  0
 15 16  2  0
 16 17  1  0
 16  1  1  0
 18 14  1  0
 19 20  2  0
 19 18  1  0
 21 20  1  0
 22 21  2  0
 23 22  1  0
 23 24  2  0
 24 25  1  0
 24 19  1  0
  1 26  1  6
  2 27  1  0
  2 28  1  0
  3 29  1  0
  3 30  1  0
  4 31  1  0
  4 32  1  0
  5 33  1  6
  7 34  1  0
  8 35  1  0
  9 36  1  0
 10 37  1  0
 11 38  1  0
 12 39  1  0
 13 40  1  0
 20 41  1  0
 21 42  1  0
 22 43  1  0
 23 44  1  0
 25 45  1  0
M  ISO  8  26  13  27  13  28  13  29  13  30  13  31  13  32  13  33  13
M  ISO  8  34  14  35  14  36  14  37  14  38  14  39  14  40  14  41  14
M  ISO  4  42  14  43  14  44  14  45   3
M  END
>  <minimizedAffinity>  (1) 
-6.22228909

>  <minimizedRMSD>  (1) 
1.2401123

$$$$
