
     RDKit          3D

 42 45  0  0  1  0  0  0  0  0999 V2000
   44.6340   34.6730   46.3860 C   0  0  0  0  0  0  0  0  0  0  0  0
   45.0200   34.9910   45.0840 C   0  0  0  0  0  0  0  0  0  0  0  0
   45.9140   34.0970   44.4490 C   0  0  0  0  0  0  0  0  0  0  0  0
   46.3330   33.0030   45.1370 N   0  0  0  0  0  0  0  0  0  0  0  0
   45.9260   32.7430   46.4000 C   0  0  0  0  0  0  0  0  0  0  0  0
   45.0870   33.5690   47.0140 N   0  0  0  0  0  0  0  0  0  0  0  0
   46.3990   31.5350   47.1360 C   0  0  2  0  0  0  0  0  0  0  0  0
   45.2240   30.5690   47.3600 C   0  0  0  0  0  0  0  0  0  0  0  0
   44.6340   31.0450   48.6540 C   0  0  0  0  0  0  0  0  0  0  0  0
   45.8300   31.3800   49.4860 C   0  0  0  0  0  0  0  0  0  0  0  0
   46.8460   31.9220   48.5220 C   0  0  1  0  0  0  0  0  0  0  0  0
   48.1790   31.2610   48.7160 C   0  0  0  0  0  0  0  0  0  0  0  0
   48.7160   30.1960   48.0100 C   0  0  0  0  0  0  0  0  0  0  0  0
   49.9480   29.9480   48.5450 N   0  0  0  0  0  0  0  0  0  0  0  0
   50.1780   30.8300   49.5570 C   0  0  0  0  0  0  0  0  0  0  0  0
   49.0960   31.6300   49.6570 N   0  0  0  0  0  0  0  0  0  0  0  0
   46.4750   34.4060   42.7820 S   0  0  0  0  0  0  0  0  0  0  0  0
   48.1310   33.8420   42.5780 C   0  0  0  0  0  0  0  0  0  0  0  0
   49.1170   34.7910   42.6150 C   0  0  0  0  0  0  0  0  0  0  0  0
   50.4360   34.4350   42.4640 C   0  0  0  0  0  0  0  0  0  0  0  0
   50.8030   33.1090   42.2720 C   0  0  0  0  0  0  0  0  0  0  0  0
   49.8080   32.1570   42.2350 C   0  0  0  0  0  0  0  0  0  0  0  0
   48.4760   32.5180   42.3870 C   0  0  0  0  0  0  0  0  0  0  0  0
   47.3900   31.6420   42.3680 O   0  0  0  0  0  0  0  0  0  0  0  0
   43.9400   35.3421   46.9159 H   0  0  0  0  0  0  0  0  0  0  0  0
   44.6476   35.8927   44.5758 H   0  0  0  0  0  0  0  0  0  0  0  0
   47.2091   31.0823   46.5454 H   0  0  0  0  0  0  0  0  0  0  0  0
   44.4920   30.6412   46.5421 H   0  0  0  0  0  0  0  0  0  0  0  0
   45.5316   29.5132   47.3876 H   0  0  0  0  0  0  0  0  0  0  0  0
   44.0052   31.9335   48.4952 H   0  0  0  0  0  0  0  0  0  0  0  0
   43.9819   30.2958   49.1266 H   0  0  0  0  0  0  0  0  0  0  0  0
   45.5736   32.1374   50.2414 H   0  0  0  0  0  0  0  0  0  0  0  0
   46.2092   30.5024   50.0301 H   0  0  0  0  0  0  0  0  0  0  0  0
   46.9330   33.0079   48.6745 H   0  0  0  0  0  0  0  0  0  0  0  0
   48.2412   29.6545   47.1785 H   0  0  0  0  0  0  0  0  0  0  0  0
   51.0828   30.8810   50.1805 H   0  0  0  0  0  0  0  0  0  0  0  0
   48.9806   32.3966   50.3351 H   0  0  0  0  0  0  0  0  0  0  0  0
   48.8514   35.8476   42.7669 H   0  0  0  0  0  0  0  0  0  0  0  0
   51.2134   35.2125   42.4957 H   0  0  0  0  0  0  0  0  0  0  0  0
   51.8595   32.8269   42.1527 H   0  0  0  0  0  0  0  0  0  0  0  0
   50.0715   31.0998   42.0835 H   0  0  0  0  0  0  0  0  0  0  0  0
   46.4708   31.9905   42.4850 H   0  0  0  0  0  0  0  0  0  0  0  0
  1  6  2  0
  2  1  1  0
  3  2  2  0
  3  4  1  0
  4  5  2  0
  5  6  1  0
  5  7  1  0
  7  8  1  0
  7 11  1  0
  8  9  1  0
  9 10  1  0
 11 12  1  0
 11 10  1  0
 12 16  1  0
 13 14  1  0
 13 12  2  0
 14 15  2  0
 15 16  1  0
 17  3  1  0
 18 19  2  0
 18 17  1  0
 20 19  1  0
 21 20  2  0
 22 21  1  0
 22 23  2  0
 23 18  1  0
 24 23  1  0
  1 25  1  0
  2 26  1  0
  7 27  1  6
  8 28  1  0
  8 29  1  0
  9 30  1  0
  9 31  1  0
 10 32  1  0
 10 33  1  0
 11 34  1  6
 13 35  1  0
 15 36  1  0
 16 37  1  0
 19 38  1  0
 20 39  1  0
 21 40  1  0
 22 41  1  0
 24 42  1  0
M  ISO  8  25  14  26  14  27  13  28  13  29  13  30  13  31  13  32  13
M  ISO  8  33  13  34  13  35  14  36  14  37   9  38  14  39  14  40  14
M  ISO  2  41  14  42   3
M  END
>  <minimizedAffinity>  (1) 
-6.10067272

>  <minimizedRMSD>  (1) 
1.06096077

$$$$
