
     RDKit          3D

 41 44  0  0  1  0  0  0  0  0999 V2000
   44.7090   34.7390   46.1140 C   0  0  0  0  0  0  0  0  0  0  0  0
   45.1040   35.0450   44.8140 C   0  0  0  0  0  0  0  0  0  0  0  0
   46.0250   34.1450   44.2020 C   0  0  0  0  0  0  0  0  0  0  0  0
   46.4490   33.0650   44.9170 N   0  0  0  0  0  0  0  0  0  0  0  0
   46.0330   32.8180   46.1740 C   0  0  0  0  0  0  0  0  0  0  0  0
   45.1640   33.6550   46.7710 N   0  0  0  0  0  0  0  0  0  0  0  0
   46.5070   31.6270   46.9500 C   0  0  2  0  0  0  0  0  0  0  0  0
   45.3190   30.6880   47.2220 C   0  0  0  0  0  0  0  0  0  0  0  0
   44.7540   31.1940   48.5110 C   0  0  0  0  0  0  0  0  0  0  0  0
   45.9580   31.5480   49.3090 C   0  0  0  0  0  0  0  0  0  0  0  0
   46.9580   32.0800   48.3230 C   0  0  1  0  0  0  0  0  0  0  0  0
   48.2750   31.4210   48.6010 C   0  0  0  0  0  0  0  0  0  0  0  0
   48.5340   30.1130   48.1110 C   0  0  0  0  0  0  0  0  0  0  0  0
   50.2650   29.8330   48.7430 S   0  0  0  0  0  0  0  0  0  0  0  0
   50.3090   31.5510   49.5550 C   0  0  0  0  0  0  0  0  0  0  0  0
   49.1940   32.0760   49.3070 N   0  0  0  0  0  0  0  0  0  0  0  0
   46.6010   34.4340   42.5410 S   0  0  0  0  0  0  0  0  0  0  0  0
   48.2400   33.7960   42.3450 C   0  0  0  0  0  0  0  0  0  0  0  0
   49.2690   34.6530   42.6360 C   0  0  0  0  0  0  0  0  0  0  0  0
   50.5700   34.2410   42.5110 C   0  0  0  0  0  0  0  0  0  0  0  0
   50.8790   32.9420   42.0870 C   0  0  0  0  0  0  0  0  0  0  0  0
   49.8280   32.0840   41.7940 C   0  0  0  0  0  0  0  0  0  0  0  0
   48.5220   32.5040   41.9220 C   0  0  0  0  0  0  0  0  0  0  0  0
   47.3890   31.7400   41.6600 O   0  0  0  0  0  0  0  0  0  0  0  0
   43.9991   35.4075   46.6230 H   0  0  0  0  0  0  0  0  0  0  0  0
   44.7256   35.9336   44.2875 H   0  0  0  0  0  0  0  0  0  0  0  0
   47.3081   31.1371   46.3771 H   0  0  0  0  0  0  0  0  0  0  0  0
   44.5745   30.7537   46.4149 H   0  0  0  0  0  0  0  0  0  0  0  0
   45.6154   29.6299   47.2730 H   0  0  0  0  0  0  0  0  0  0  0  0
   44.1217   32.0781   48.3419 H   0  0  0  0  0  0  0  0  0  0  0  0
   44.1114   30.4561   49.0135 H   0  0  0  0  0  0  0  0  0  0  0  0
   45.7104   32.3162   50.0563 H   0  0  0  0  0  0  0  0  0  0  0  0
   46.3514   30.6791   49.8570 H   0  0  0  0  0  0  0  0  0  0  0  0
   47.0430   33.1748   48.3876 H   0  0  0  0  0  0  0  0  0  0  0  0
   47.8887   29.4468   47.5196 H   0  0  0  0  0  0  0  0  0  0  0  0
   51.1390   31.9945   50.1245 H   0  0  0  0  0  0  0  0  0  0  0  0
   49.0495   35.6772   42.9718 H   0  0  0  0  0  0  0  0  0  0  0  0
   51.3846   34.9414   42.7473 H   0  0  0  0  0  0  0  0  0  0  0  0
   51.9237   32.6118   41.9892 H   0  0  0  0  0  0  0  0  0  0  0  0
   50.0398   31.0588   41.4563 H   0  0  0  0  0  0  0  0  0  0  0  0
   46.4883   32.1323   41.7822 H   0  0  0  0  0  0  0  0  0  0  0  0
  1  6  2  0
  2  1  1  0
  3  2  2  0
  3  4  1  0
  4  5  2  0
  5  6  1  0
  5  7  1  0
  7  8  1  0
  7 11  1  0
  8  9  1  0
  9 10  1  0
 11 12  1  0
 11 10  1  0
 12 16  1  0
 13 12  2  0
 13 14  1  0
 14 15  1  0
 16 15  2  0
 17  3  1  0
 18 17  1  0
 18 19  2  0
 20 19  1  0
 21 20  2  0
 22 23  2  0
 22 21  1  0
 23 18  1  0
 24 23  1  0
  1 25  1  0
  2 26  1  0
  7 27  1  6
  8 28  1  0
  8 29  1  0
  9 30  1  0
  9 31  1  0
 10 32  1  0
 10 33  1  0
 11 34  1  6
 13 35  1  0
 15 36  1  0
 19 37  1  0
 20 38  1  0
 21 39  1  0
 22 40  1  0
 24 41  1  0
M  ISO  8  25  14  26  14  27  13  28  13  29  13  30  13  31  13  32  13
M  ISO  8  33  13  34  13  35  14  36  14  37  14  38  14  39  14  40  14
M  ISO  1  41   3
M  END
>  <minimizedAffinity>  (1) 
-6.04685068

>  <minimizedRMSD>  (1) 
0.874021113

$$$$
