
     RDKit          3D

 48 51  0  0  1  0  0  0  0  0999 V2000
   44.7150   34.8590   45.8690 C   0  0  0  0  0  0  0  0  0  0  0  0
   45.1490   35.1780   44.5840 C   0  0  0  0  0  0  0  0  0  0  0  0
   46.0670   34.2850   43.9860 C   0  0  0  0  0  0  0  0  0  0  0  0
   46.4560   33.1890   44.6980 N   0  0  0  0  0  0  0  0  0  0  0  0
   46.0070   32.9250   45.9400 C   0  0  0  0  0  0  0  0  0  0  0  0
   45.1360   33.7640   46.5180 N   0  0  0  0  0  0  0  0  0  0  0  0
   46.4410   31.7240   46.7060 C   0  0  2  0  0  0  0  0  0  0  0  0
   45.2120   30.9070   47.1500 C   0  0  0  0  0  0  0  0  0  0  0  0
   44.8400   31.5270   48.4650 C   0  0  0  0  0  0  0  0  0  0  0  0
   46.1740   31.7840   49.1170 C   0  0  0  0  0  0  0  0  0  0  0  0
   47.1050   32.1540   47.9830 C   0  0  1  0  0  0  0  0  0  0  0  0
   48.4070   31.4550   48.2400 C   0  0  0  0  0  0  0  0  0  0  0  0
   48.5310   30.8740   49.6250 C   0  0  0  0  0  0  0  0  0  0  0  0
   49.7400   29.9480   49.4320 C   0  0  0  0  0  0  0  0  0  0  0  0
   49.7390   29.5560   47.9880 C   0  0  0  0  0  0  0  0  0  0  0  0
   48.4930   30.1910   47.4070 C   0  0  0  0  0  0  0  0  0  0  0  0
   46.6950   34.5900   42.3430 S   0  0  0  0  0  0  0  0  0  0  0  0
   48.2930   33.8490   42.1480 C   0  0  0  0  0  0  0  0  0  0  0  0
   49.3620   34.5860   42.6240 C   0  0  0  0  0  0  0  0  0  0  0  0
   50.6310   34.0690   42.5050 C   0  0  0  0  0  0  0  0  0  0  0  0
   50.8710   32.8280   41.9190 C   0  0  0  0  0  0  0  0  0  0  0  0
   49.7830   32.1060   41.4470 C   0  0  0  0  0  0  0  0  0  0  0  0
   48.5170   32.6210   41.5660 C   0  0  0  0  0  0  0  0  0  0  0  0
   47.3550   31.9910   41.1320 O   0  0  0  0  0  0  0  0  0  0  0  0
   44.0010   35.5299   46.3691 H   0  0  0  0  0  0  0  0  0  0  0  0
   44.7952   36.0790   44.0615 H   0  0  0  0  0  0  0  0  0  0  0  0
   47.1121   31.1403   46.0588 H   0  0  0  0  0  0  0  0  0  0  0  0
   44.3918   31.0031   46.4233 H   0  0  0  0  0  0  0  0  0  0  0  0
   45.4171   29.8289   47.2258 H   0  0  0  0  0  0  0  0  0  0  0  0
   44.2871   32.4661   48.3155 H   0  0  0  0  0  0  0  0  0  0  0  0
   44.1808   30.8880   49.0709 H   0  0  0  0  0  0  0  0  0  0  0  0
   46.0977   32.6106   49.8388 H   0  0  0  0  0  0  0  0  0  0  0  0
   46.5343   30.9075   49.6755 H   0  0  0  0  0  0  0  0  0  0  0  0
   47.3097   33.2321   47.9066 H   0  0  0  0  0  0  0  0  0  0  0  0
   49.1587   32.2316   48.0355 H   0  0  0  0  0  0  0  0  0  0  0  0
   48.7315   31.6526   50.3757 H   0  0  0  0  0  0  0  0  0  0  0  0
   47.6242   30.3732   49.9952 H   0  0  0  0  0  0  0  0  0  0  0  0
   50.6705   30.4785   49.6825 H   0  0  0  0  0  0  0  0  0  0  0  0
   49.6783   29.0663   50.0868 H   0  0  0  0  0  0  0  0  0  0  0  0
   50.6385   29.9386   47.4835 H   0  0  0  0  0  0  0  0  0  0  0  0
   49.7437   28.4638   47.8577 H   0  0  0  0  0  0  0  0  0  0  0  0
   48.6147   30.4179   46.3376 H   0  0  0  0  0  0  0  0  0  0  0  0
   47.5958   29.5559   47.4471 H   0  0  0  0  0  0  0  0  0  0  0  0
   49.2001   35.5692   43.0900 H   0  0  0  0  0  0  0  0  0  0  0  0
   51.4825   34.6532   42.8841 H   0  0  0  0  0  0  0  0  0  0  0  0
   51.8934   32.4315   41.8327 H   0  0  0  0  0  0  0  0  0  0  0  0
   49.9359   31.1226   40.9784 H   0  0  0  0  0  0  0  0  0  0  0  0
   46.4772   32.4317   41.2557 H   0  0  0  0  0  0  0  0  0  0  0  0
  1  6  2  0
  2  1  1  0
  3  2  2  0
  3  4  1  0
  4  5  2  0
  5  6  1  0
  5  7  1  0
  7  8  1  0
  7 11  1  0
  8  9  1  0
  9 10  1  0
 11 12  1  0
 11 10  1  0
 12 13  1  0
 14 13  1  0
 15 14  1  0
 16 15  1  0
 16 12  1  0
 17  3  1  0
 18 17  1  0
 18 19  2  0
 20 19  1  0
 21 20  2  0
 22 23  2  0
 22 21  1  0
 23 18  1  0
 24 23  1  0
  1 25  1  0
  2 26  1  0
  7 27  1  6
  8 28  1  0
  8 29  1  0
  9 30  1  0
  9 31  1  0
 10 32  1  0
 10 33  1  0
 11 34  1  6
 12 35  1  0
 13 36  1  0
 13 37  1  0
 14 38  1  0
 14 39  1  0
 15 40  1  0
 15 41  1  0
 16 42  1  0
 16 43  1  0
 19 44  1  0
 20 45  1  0
 21 46  1  0
 22 47  1  0
 24 48  1  0
M  ISO  8  25  14  26  14  27  13  28  13  29  13  30  13  31  13  32  13
M  ISO  8  33  13  34  13  35  13  36  13  37  13  38  13  39  13  40  13
M  ISO  8  41  13  42  13  43  13  44  14  45  14  46  14  47  14  48   3
M  END
>  <minimizedAffinity>  (1) 
-6.0361681

>  <minimizedRMSD>  (1) 
0.705900609

$$$$
