
     RDKit          3D

 38 40  0  0  1  0  0  0  0  0999 V2000
   44.6490   34.6410   46.4270 C   0  0  0  0  0  0  0  0  0  0  0  0
   45.0290   34.9670   45.1270 C   0  0  0  0  0  0  0  0  0  0  0  0
   45.8970   34.0620   44.4710 C   0  0  0  0  0  0  0  0  0  0  0  0
   46.3020   32.9390   45.1490 N   0  0  0  0  0  0  0  0  0  0  0  0
   45.9030   32.6710   46.4100 C   0  0  0  0  0  0  0  0  0  0  0  0
   45.0840   33.5200   47.0370 N   0  0  0  0  0  0  0  0  0  0  0  0
   46.3470   31.4640   47.1370 C   0  0  2  0  0  0  0  0  0  0  0  0
   45.1410   30.5650   47.4730 C   0  0  0  0  0  0  0  0  0  0  0  0
   44.6640   31.0890   48.7860 C   0  0  0  0  0  0  0  0  0  0  0  0
   45.9390   31.3780   49.5340 C   0  0  0  0  0  0  0  0  0  0  0  0
   46.8980   31.8520   48.4830 C   0  0  1  0  0  0  0  0  0  0  0  0
   48.3100   31.3740   48.7250 C   0  0  0  0  0  0  0  0  0  0  0  0
   48.3210   30.6050   49.8960 F   0  0  0  0  0  0  0  0  0  0  0  0
   48.7900   30.5890   47.7220 F   0  0  0  0  0  0  0  0  0  0  0  0
   49.1550   32.4320   48.9930 F   0  0  0  0  0  0  0  0  0  0  0  0
   46.4520   34.3700   42.8070 S   0  0  0  0  0  0  0  0  0  0  0  0
   48.1240   33.8210   42.6000 C   0  0  0  0  0  0  0  0  0  0  0  0
   49.0880   34.8100   42.6180 C   0  0  0  0  0  0  0  0  0  0  0  0
   50.4100   34.4590   42.4630 C   0  0  0  0  0  0  0  0  0  0  0  0
   50.8020   33.1290   42.2890 C   0  0  0  0  0  0  0  0  0  0  0  0
   49.8110   32.1520   42.2760 C   0  0  0  0  0  0  0  0  0  0  0  0
   48.4830   32.5040   42.4310 C   0  0  0  0  0  0  0  0  0  0  0  0
   47.4220   31.6170   42.4330 O   0  0  0  0  0  0  0  0  0  0  0  0
   43.9744   35.3179   46.9717 H   0  0  0  0  0  0  0  0  0  0  0  0
   44.6717   35.8833   44.6343 H   0  0  0  0  0  0  0  0  0  0  0  0
   47.0856   30.9577   46.4982 H   0  0  0  0  0  0  0  0  0  0  0  0
   44.3577   30.6567   46.7061 H   0  0  0  0  0  0  0  0  0  0  0  0
   45.4025   29.4972   47.5098 H   0  0  0  0  0  0  0  0  0  0  0  0
   44.0708   32.0055   48.6514 H   0  0  0  0  0  0  0  0  0  0  0  0
   44.0073   30.3832   49.3157 H   0  0  0  0  0  0  0  0  0  0  0  0
   45.7760   32.1592   50.2911 H   0  0  0  0  0  0  0  0  0  0  0  0
   46.3147   30.4955   50.0726 H   0  0  0  0  0  0  0  0  0  0  0  0
   46.9849   32.9478   48.5238 H   0  0  0  0  0  0  0  0  0  0  0  0
   48.8032   35.8637   42.7543 H   0  0  0  0  0  0  0  0  0  0  0  0
   51.1782   35.2462   42.4765 H   0  0  0  0  0  0  0  0  0  0  0  0
   51.8621   32.8623   42.1660 H   0  0  0  0  0  0  0  0  0  0  0  0
   50.0854   31.0953   42.1418 H   0  0  0  0  0  0  0  0  0  0  0  0
   46.4976   31.9513   42.5502 H   0  0  0  0  0  0  0  0  0  0  0  0
  1  6  2  0
  2  1  1  0
  3  2  2  0
  3  4  1  0
  4  5  2  0
  5  6  1  0
  5  7  1  0
  7  8  1  0
  7 11  1  0
  8  9  1  0
  9 10  1  0
 11 12  1  0
 11 10  1  0
 12 15  1  0
 12 13  1  0
 14 12  1  0
 16  3  1  0
 17 18  2  0
 17 16  1  0
 19 18  1  0
 20 19  2  0
 21 20  1  0
 21 22  2  0
 22 23  1  0
 22 17  1  0
  1 24  1  0
  2 25  1  0
  7 26  1  6
  8 27  1  0
  8 28  1  0
  9 29  1  0
  9 30  1  0
 10 31  1  0
 10 32  1  0
 11 33  1  6
 18 34  1  0
 19 35  1  0
 20 36  1  0
 21 37  1  0
 23 38  1  0
M  ISO  8  24  14  25  14  26  13  27  13  28  13  29  13  30  13  31  13
M  ISO  7  32  13  33  13  34  14  35  14  36  14  37  14  38   3
M  END
>  <minimizedAffinity>  (1) 
-5.95471048

>  <minimizedRMSD>  (1) 
1.13872135

$$$$
