
     RDKit          3D

 49 52  0  0  1  0  0  0  0  0999 V2000
   44.6700   34.5410   46.4910 C   0  0  0  0  0  0  0  0  0  0  0  0
   45.0490   34.9150   45.1980 C   0  0  0  0  0  0  0  0  0  0  0  0
   45.9170   34.0320   44.5040 C   0  0  0  0  0  0  0  0  0  0  0  0
   46.3210   32.8890   45.1350 N   0  0  0  0  0  0  0  0  0  0  0  0
   45.9290   32.5730   46.3830 C   0  0  0  0  0  0  0  0  0  0  0  0
   45.1060   33.3970   47.0580 N   0  0  0  0  0  0  0  0  0  0  0  0
   46.3790   31.3210   47.0710 C   0  0  2  0  0  0  0  0  0  0  0  0
   45.1500   30.5110   47.5220 C   0  0  0  0  0  0  0  0  0  0  0  0
   44.8500   31.0440   48.8800 C   0  0  0  0  0  0  0  0  0  0  0  0
   46.1900   31.2580   49.4870 C   0  0  0  0  0  0  0  0  0  0  0  0
   47.0930   31.6820   48.3460 C   0  0  1  0  0  0  0  0  0  0  0  0
   48.3780   31.0940   48.3420 N   0  0  0  0  0  0  0  0  0  0  0  0
   49.0320   31.0480   49.6240 C   0  0  0  0  0  0  0  0  0  0  0  0
   50.5320   30.9980   49.3500 C   0  0  0  0  0  0  0  0  0  0  0  0
   50.8610   29.8800   48.4980 N   0  0  0  0  0  0  0  0  0  0  0  0
   49.7070   29.0900   48.1320 C   0  0  0  0  0  0  0  0  0  0  0  0
   48.6130   29.9740   47.5180 C   0  0  0  0  0  0  0  0  0  0  0  0
   46.4610   34.4100   42.8480 S   0  0  0  0  0  0  0  0  0  0  0  0
   48.1180   33.8440   42.6050 C   0  0  0  0  0  0  0  0  0  0  0  0
   49.1020   34.8210   42.6540 C   0  0  0  0  0  0  0  0  0  0  0  0
   50.4170   34.4510   42.4740 C   0  0  0  0  0  0  0  0  0  0  0  0
   50.7840   33.1180   42.2450 C   0  0  0  0  0  0  0  0  0  0  0  0
   49.7730   32.1620   42.2010 C   0  0  0  0  0  0  0  0  0  0  0  0
   48.4670   32.5300   42.3800 C   0  0  0  0  0  0  0  0  0  0  0  0
   47.3860   31.6610   42.3570 O   0  0  0  0  0  0  0  0  0  0  0  0
   43.9974   35.1980   47.0619 H   0  0  0  0  0  0  0  0  0  0  0  0
   44.6914   35.8492   44.7404 H   0  0  0  0  0  0  0  0  0  0  0  0
   47.0181   30.7586   46.3744 H   0  0  0  0  0  0  0  0  0  0  0  0
   44.3018   30.6745   46.8410 H   0  0  0  0  0  0  0  0  0  0  0  0
   45.3330   29.4263   47.5223 H   0  0  0  0  0  0  0  0  0  0  0  0
   44.2948   31.9913   48.8143 H   0  0  0  0  0  0  0  0  0  0  0  0
   44.2210   30.3632   49.4723 H   0  0  0  0  0  0  0  0  0  0  0  0
   46.1430   32.0465   50.2525 H   0  0  0  0  0  0  0  0  0  0  0  0
   46.5613   30.3491   49.9830 H   0  0  0  0  0  0  0  0  0  0  0  0
   47.2784   32.7605   48.4578 H   0  0  0  0  0  0  0  0  0  0  0  0
   48.7833   31.9459   50.2088 H   0  0  0  0  0  0  0  0  0  0  0  0
   48.7063   30.1712   50.2029 H   0  0  0  0  0  0  0  0  0  0  0  0
   50.8394   31.9311   48.8552 H   0  0  0  0  0  0  0  0  0  0  0  0
   51.0612   30.8794   50.3070 H   0  0  0  0  0  0  0  0  0  0  0  0
   51.2983   30.2403   47.6379 H   0  0  0  0  0  0  0  0  0  0  0  0
   50.0094   28.3286   47.3980 H   0  0  0  0  0  0  0  0  0  0  0  0
   49.3061   28.6114   49.0377 H   0  0  0  0  0  0  0  0  0  0  0  0
   48.9360   30.3151   46.5233 H   0  0  0  0  0  0  0  0  0  0  0  0
   47.6849   29.3902   47.4294 H   0  0  0  0  0  0  0  0  0  0  0  0
   48.8367   35.8733   42.8335 H   0  0  0  0  0  0  0  0  0  0  0  0
   51.1999   35.2228   42.5110 H   0  0  0  0  0  0  0  0  0  0  0  0
   51.8379   32.8359   42.1044 H   0  0  0  0  0  0  0  0  0  0  0  0
   50.0249   31.1064   42.0216 H   0  0  0  0  0  0  0  0  0  0  0  0
   46.4691   32.0077   42.4956 H   0  0  0  0  0  0  0  0  0  0  0  0
  1  6  2  0
  2  1  1  0
  3  4  1  0
  3  2  2  0
  4  5  2  0
  5  6  1  0
  5  7  1  0
  7  8  1  0
  7 11  1  0
  8  9  1  0
  9 10  1  0
 11 10  1  0
 12 11  1  0
 12 13  1  0
 14 13  1  0
 15 14  1  0
 16 15  1  0
 17 16  1  0
 17 12  1  0
 18  3  1  0
 19 20  2  0
 19 18  1  0
 21 20  1  0
 22 21  2  0
 23 22  1  0
 23 24  2  0
 24 19  1  0
 25 24  1  0
  1 26  1  0
  2 27  1  0
  7 28  1  6
  8 29  1  0
  8 30  1  0
  9 31  1  0
  9 32  1  0
 10 33  1  0
 10 34  1  0
 11 35  1  6
 13 36  1  0
 13 37  1  0
 14 38  1  0
 14 39  1  0
 15 40  1  0
 16 41  1  0
 16 42  1  0
 17 43  1  0
 17 44  1  0
 20 45  1  0
 21 46  1  0
 22 47  1  0
 23 48  1  0
 25 49  1  0
M  ISO  8  26  14  27  14  28  13  29  13  30  13  31  13  32  13  33  13
M  ISO  8  34  13  35  13  36  13  37  13  38  13  39  13  40   5  41  13
M  ISO  8  42  13  43  13  44  13  45  14  46  14  47  14  48  14  49   3
M  END
>  <minimizedAffinity>  (1) 
-5.87259007

>  <minimizedRMSD>  (1) 
1.22429705

$$$$
