
     RDKit          3D

 42 45  0  0  1  0  0  0  0  0999 V2000
   44.7060   34.5190   46.4970 C   0  0  0  0  0  0  0  0  0  0  0  0
   45.0690   34.8830   45.1960 C   0  0  0  0  0  0  0  0  0  0  0  0
   45.9380   33.9960   44.5140 C   0  0  0  0  0  0  0  0  0  0  0  0
   46.3580   32.8680   45.1510 N   0  0  0  0  0  0  0  0  0  0  0  0
   45.9790   32.5610   46.4070 C   0  0  0  0  0  0  0  0  0  0  0  0
   45.1580   33.3860   47.0710 N   0  0  0  0  0  0  0  0  0  0  0  0
   46.4380   31.3360   47.1060 C   0  0  2  0  0  0  0  0  0  0  0  0
   45.2460   30.4030   47.3800 C   0  0  0  0  0  0  0  0  0  0  0  0
   44.7410   30.8750   48.7120 C   0  0  0  0  0  0  0  0  0  0  0  0
   45.9970   31.1370   49.4770 C   0  0  0  0  0  0  0  0  0  0  0  0
   46.9750   31.7040   48.4620 C   0  0  1  0  0  0  0  0  0  0  0  0
   48.3260   31.3220   48.7060 N   0  0  0  0  0  0  0  0  0  0  0  0
   49.2600   32.0200   49.3580 N   0  0  0  0  0  0  0  0  0  0  0  0
   50.4210   31.3740   49.4080 C   0  0  0  0  0  0  0  0  0  0  0  0
   50.2020   30.1930   48.7430 C   0  0  0  0  0  0  0  0  0  0  0  0
   48.8940   30.1500   48.3000 C   0  0  0  0  0  0  0  0  0  0  0  0
   46.4720   34.3550   42.8420 S   0  0  0  0  0  0  0  0  0  0  0  0
   48.1480   33.8240   42.6080 C   0  0  0  0  0  0  0  0  0  0  0  0
   49.1170   34.8090   42.6460 C   0  0  0  0  0  0  0  0  0  0  0  0
   50.4360   34.4500   42.4700 C   0  0  0  0  0  0  0  0  0  0  0  0
   50.8120   33.1210   42.2550 C   0  0  0  0  0  0  0  0  0  0  0  0
   49.8220   32.1580   42.2220 C   0  0  0  0  0  0  0  0  0  0  0  0
   48.5070   32.5160   42.3980 C   0  0  0  0  0  0  0  0  0  0  0  0
   47.4310   31.6330   42.3850 O   0  0  0  0  0  0  0  0  0  0  0  0
   44.0329   35.1757   47.0677 H   0  0  0  0  0  0  0  0  0  0  0  0
   44.6998   35.8075   44.7280 H   0  0  0  0  0  0  0  0  0  0  0  0
   47.1959   30.8525   46.4721 H   0  0  0  0  0  0  0  0  0  0  0  0
   44.4737   30.5114   46.6043 H   0  0  0  0  0  0  0  0  0  0  0  0
   45.5215   29.3381   47.3755 H   0  0  0  0  0  0  0  0  0  0  0  0
   44.1447   31.7932   48.6055 H   0  0  0  0  0  0  0  0  0  0  0  0
   44.0779   30.1489   49.2050 H   0  0  0  0  0  0  0  0  0  0  0  0
   45.8131   31.8636   50.2821 H   0  0  0  0  0  0  0  0  0  0  0  0
   46.3843   30.2244   49.9536 H   0  0  0  0  0  0  0  0  0  0  0  0
   47.0401   32.7994   48.5389 H   0  0  0  0  0  0  0  0  0  0  0  0
   51.3551   31.7126   49.8801 H   0  0  0  0  0  0  0  0  0  0  0  0
   50.9517   29.4033   48.5871 H   0  0  0  0  0  0  0  0  0  0  0  0
   48.4105   29.3384   47.7364 H   0  0  0  0  0  0  0  0  0  0  0  0
   48.8404   35.8604   42.8137 H   0  0  0  0  0  0  0  0  0  0  0  0
   51.2122   35.2288   42.4995 H   0  0  0  0  0  0  0  0  0  0  0  0
   51.8687   32.8490   42.1157 H   0  0  0  0  0  0  0  0  0  0  0  0
   50.0866   31.1035   42.0547 H   0  0  0  0  0  0  0  0  0  0  0  0
   46.5107   31.9721   42.5200 H   0  0  0  0  0  0  0  0  0  0  0  0
  1  6  2  0
  2  1  1  0
  3  4  1  0
  3  2  2  0
  4  5  2  0
  5  6  1  0
  5  7  1  0
  7  8  1  0
  7 11  1  0
  8  9  1  0
  9 10  1  0
 11 12  1  0
 11 10  1  0
 12 13  1  0
 13 14  2  0
 15 14  1  0
 16 12  1  0
 16 15  2  0
 17  3  1  0
 18 19  2  0
 18 17  1  0
 20 19  1  0
 21 20  2  0
 22 21  1  0
 22 23  2  0
 23 18  1  0
 24 23  1  0
  1 25  1  0
  2 26  1  0
  7 27  1  6
  8 28  1  0
  8 29  1  0
  9 30  1  0
  9 31  1  0
 10 32  1  0
 10 33  1  0
 11 34  1  6
 14 35  1  0
 15 36  1  0
 16 37  1  0
 19 38  1  0
 20 39  1  0
 21 40  1  0
 22 41  1  0
 24 42  1  0
M  ISO  8  25  14  26  14  27  13  28  13  29  13  30  13  31  13  32  13
M  ISO  8  33  13  34  13  35  14  36  14  37  14  38  14  39  14  40  14
M  ISO  2  41  14  42   3
M  END
>  <minimizedAffinity>  (1) 
-5.81100941

>  <minimizedRMSD>  (1) 
1.14601862

$$$$
