
     RDKit          3D

 32 35  0  0  0  0  0  0  0  0999 V2000
   46.7260   34.6800   42.0290 C   0  0  0  0  0  0  0  0  0  0  0  0
   47.9960   35.1750   41.9170 C   0  0  0  0  0  0  0  0  0  0  0  0
   48.6050   35.0560   40.7120 C   0  0  0  0  0  0  0  0  0  0  0  0
   47.9650   34.4700   39.6770 N   0  0  0  0  0  0  0  0  0  0  0  0
   46.7050   33.9820   39.7960 C   0  0  0  0  0  0  0  0  0  0  0  0
   46.1160   34.1100   41.0020 N   0  0  0  0  0  0  0  0  0  0  0  0
   46.0160   33.3620   38.7150 N   0  0  0  0  0  0  0  0  0  0  0  0
   44.7170   33.0270   38.6170 C   0  0  0  0  0  0  0  0  0  0  0  0
   44.4450   32.4610   37.4440 N   0  0  0  0  0  0  0  0  0  0  0  0
   45.6170   32.4310   36.7610 C   0  0  0  0  0  0  0  0  0  0  0  0
   45.9020   31.9480   35.4900 C   0  0  0  0  0  0  0  0  0  0  0  0
   44.9670   31.4340   34.7870 O   0  0  0  0  0  0  0  0  0  0  0  0
   47.1690   32.0260   35.0090 N   0  0  0  0  0  0  0  0  0  0  0  0
   48.0680   32.5850   35.8380 C   0  0  0  0  0  0  0  0  0  0  0  0
   49.3970   32.6610   35.3180 N   0  0  0  0  0  0  0  0  0  0  0  0
   47.8530   33.0690   37.0750 N   0  0  0  0  0  0  0  0  0  0  0  0
   46.6040   33.0010   37.5700 C   0  0  0  0  0  0  0  0  0  0  0  0
   44.5050   35.9040   44.7810 C   0  0  0  0  0  0  0  0  0  0  0  0
   45.1500   35.8510   43.5150 C   0  0  0  0  0  0  0  0  0  0  0  0
   46.0380   34.7860   43.3010 C   0  0  0  0  0  0  0  0  0  0  0  0
   46.2250   33.8910   44.2910 N   0  0  0  0  0  0  0  0  0  0  0  0
   45.5850   33.9830   45.4880 C   0  0  0  0  0  0  0  0  0  0  0  0
   44.7330   34.9870   45.7180 N   0  0  0  0  0  0  0  0  0  0  0  0
   48.5025   35.6503   42.7700 H   0  0  0  0  0  0  0  0  0  0  0  0
   49.6271   35.4392   40.5761 H   0  0  0  0  0  0  0  0  0  0  0  0
   43.9724   33.1995   39.4080 H   0  0  0  0  0  0  0  0  0  0  0  0
   47.4243   31.6805   34.0728 H   0  0  0  0  0  0  0  0  0  0  0  0
   50.1496   33.0750   35.8865 H   0  0  0  0  0  0  0  0  0  0  0  0
   49.6023   32.3018   34.3748 H   0  0  0  0  0  0  0  0  0  0  0  0
   43.8007   36.7225   44.9909 H   0  0  0  0  0  0  0  0  0  0  0  0
   44.9618   36.6088   42.7402 H   0  0  0  0  0  0  0  0  0  0  0  0
   45.7690   33.2297   46.2681 H   0  0  0  0  0  0  0  0  0  0  0  0
  1 20  1  0
  2  1  2  0
  3  2  1  0
  4  5  1  0
  4  3  2  0
  5  6  2  0
  6  1  1  0
  7  5  1  0
  8  7  1  0
  9  8  2  0
 10  9  1  0
 10 17  2  0
 11 10  1  0
 12 11  2  0
 13 11  1  0
 13 14  1  0
 14 16  2  0
 15 14  1  0
 16 17  1  0
 17  7  1  0
 18 23  2  0
 19 18  1  0
 20 19  2  0
 20 21  1  0
 21 22  2  0
 22 23  1  0
  2 24  1  0
  3 25  1  0
  8 26  1  0
 13 27  1  0
 15 28  1  0
 15 29  1  0
 18 30  1  0
 19 31  1  0
 22 32  1  0
M  ISO  7  24  14  25  14  26  14  27   9  30  14  31  14  32  14
M  END
>  <minimizedAffinity>  (1) 
-6.52452326

>  <minimizedRMSD>  (1) 
0.462583661

$$$$
