
     RDKit          3D

 31 34  0  0  0  0  0  0  0  0999 V2000
   46.7330   34.7240   41.9800 C   0  0  0  0  0  0  0  0  0  0  0  0
   47.9920   35.2570   41.8800 C   0  0  0  0  0  0  0  0  0  0  0  0
   48.6400   35.0800   40.7020 C   0  0  0  0  0  0  0  0  0  0  0  0
   48.0600   34.4120   39.6950 N   0  0  0  0  0  0  0  0  0  0  0  0
   46.8160   33.8910   39.8110 C   0  0  0  0  0  0  0  0  0  0  0  0
   46.1690   34.0680   40.9860 N   0  0  0  0  0  0  0  0  0  0  0  0
   46.2500   33.1910   38.7090 N   0  0  0  0  0  0  0  0  0  0  0  0
   45.0550   32.5900   38.5600 C   0  0  0  0  0  0  0  0  0  0  0  0
   44.9640   32.0600   37.3450 N   0  0  0  0  0  0  0  0  0  0  0  0
   46.0910   32.3030   36.6740 C   0  0  0  0  0  0  0  0  0  0  0  0
   46.4720   31.9550   35.3760 C   0  0  0  0  0  0  0  0  0  0  0  0
   47.6970   32.3560   34.9880 N   0  0  0  0  0  0  0  0  0  0  0  0
   48.5140   33.0520   35.7980 C   0  0  0  0  0  0  0  0  0  0  0  0
   48.1200   33.3800   37.0600 N   0  0  0  0  0  0  0  0  0  0  0  0
   46.9050   33.0150   37.5270 C   0  0  0  0  0  0  0  0  0  0  0  0
   44.4890   36.0910   44.6500 C   0  0  0  0  0  0  0  0  0  0  0  0
   45.1680   35.9820   43.4140 C   0  0  0  0  0  0  0  0  0  0  0  0
   46.0070   34.8930   43.2270 C   0  0  0  0  0  0  0  0  0  0  0  0
   46.1320   33.9870   44.2440 N   0  0  0  0  0  0  0  0  0  0  0  0
   45.4590   34.1300   45.4210 C   0  0  0  0  0  0  0  0  0  0  0  0
   44.6480   35.1710   45.6180 N   0  0  0  0  0  0  0  0  0  0  0  0
   45.5960   31.2120   34.5160 N   0  0  0  0  0  0  0  0  0  0  0  0
   48.4547   35.8024   42.7157 H   0  0  0  0  0  0  0  0  0  0  0  0
   49.6527   35.4891   40.5714 H   0  0  0  0  0  0  0  0  0  0  0  0
   44.2704   32.5444   39.3296 H   0  0  0  0  0  0  0  0  0  0  0  0
   49.5075   33.3587   35.4390 H   0  0  0  0  0  0  0  0  0  0  0  0
   43.8177   36.9451   44.8229 H   0  0  0  0  0  0  0  0  0  0  0  0
   45.0350   36.7373   42.6254 H   0  0  0  0  0  0  0  0  0  0  0  0
   45.5858   33.3801   46.2157 H   0  0  0  0  0  0  0  0  0  0  0  0
   45.8973   30.9660   33.5623 H   0  0  0  0  0  0  0  0  0  0  0  0
   44.6659   30.9247   34.8524 H   0  0  0  0  0  0  0  0  0  0  0  0
  1 18  1  0
  2  1  2  0
  3  2  1  0
  4  5  1  0
  4  3  2  0
  5  6  2  0
  6  1  1  0
  7  5  1  0
  8  7  1  0
  9  8  2  0
 10  9  1  0
 10 15  2  0
 11 10  1  0
 12 11  2  0
 12 13  1  0
 13 14  2  0
 14 15  1  0
 15  7  1  0
 16 21  2  0
 17 16  1  0
 18 17  2  0
 18 19  1  0
 19 20  2  0
 20 21  1  0
 22 11  1  0
  2 23  1  0
  3 24  1  0
  8 25  1  0
 13 26  1  0
 16 27  1  0
 17 28  1  0
 20 29  1  0
 22 30  1  0
 22 31  1  0
M  ISO  7  23  14  24  14  25  14  26  14  27  14  28  14  29  14
M  END
>  <minimizedAffinity>  (1) 
-6.26785851

>  <minimizedRMSD>  (1) 
0.188009381

$$$$
