
     RDKit          3D

 29 32  0  0  0  0  0  0  0  0999 V2000
   46.8750   34.7820   41.9540 C   0  0  0  0  0  0  0  0  0  0  0  0
   48.1180   35.3930   41.9060 C   0  0  0  0  0  0  0  0  0  0  0  0
   48.7860   35.2590   40.7200 C   0  0  0  0  0  0  0  0  0  0  0  0
   48.2670   34.5860   39.6900 N   0  0  0  0  0  0  0  0  0  0  0  0
   47.0460   33.9970   39.7630 C   0  0  0  0  0  0  0  0  0  0  0  0
   46.3850   34.1260   40.9280 N   0  0  0  0  0  0  0  0  0  0  0  0
   46.3890   33.2600   38.7470 N   0  0  0  0  0  0  0  0  0  0  0  0
   45.1570   32.6940   38.7990 C   0  0  0  0  0  0  0  0  0  0  0  0
   44.9010   32.0830   37.6290 N   0  0  0  0  0  0  0  0  0  0  0  0
   45.9720   32.2670   36.8480 C   0  0  0  0  0  0  0  0  0  0  0  0
   46.3210   31.8950   35.5580 C   0  0  0  0  0  0  0  0  0  0  0  0
   47.5070   32.2290   35.0050 N   0  0  0  0  0  0  0  0  0  0  0  0
   48.4000   32.9560   35.7270 C   0  0  0  0  0  0  0  0  0  0  0  0
   48.0980   33.3350   36.9810 N   0  0  0  0  0  0  0  0  0  0  0  0
   46.9120   33.0020   37.5350 C   0  0  0  0  0  0  0  0  0  0  0  0
   44.4930   35.9930   44.5760 C   0  0  0  0  0  0  0  0  0  0  0  0
   45.2050   35.9470   43.3490 C   0  0  0  0  0  0  0  0  0  0  0  0
   46.1080   34.8880   43.1970 C   0  0  0  0  0  0  0  0  0  0  0  0
   46.2560   33.9850   44.1910 N   0  0  0  0  0  0  0  0  0  0  0  0
   45.5500   34.0700   45.3520 C   0  0  0  0  0  0  0  0  0  0  0  0
   44.6740   35.0810   45.5250 N   0  0  0  0  0  0  0  0  0  0  0  0
   48.5370   35.9457   42.7598 H   0  0  0  0  0  0  0  0  0  0  0  0
   49.7794   35.7189   40.6115 H   0  0  0  0  0  0  0  0  0  0  0  0
   44.4755   32.7294   39.6618 H   0  0  0  0  0  0  0  0  0  0  0  0
   45.6060   31.3068   34.9641 H   0  0  0  0  0  0  0  0  0  0  0  0
   49.3686   33.2339   35.2859 H   0  0  0  0  0  0  0  0  0  0  0  0
   43.7717   36.8059   44.7458 H   0  0  0  0  0  0  0  0  0  0  0  0
   45.0557   36.7008   42.5620 H   0  0  0  0  0  0  0  0  0  0  0  0
   45.6930   33.3195   46.1434 H   0  0  0  0  0  0  0  0  0  0  0  0
  1 18  1  0
  2  1  2  0
  3  2  1  0
  4  5  1  0
  4  3  2  0
  5  6  2  0
  6  1  1  0
  7  8  1  0
  7  5  1  0
  9  8  2  0
 10 15  2  0
 10  9  1  0
 11 10  1  0
 12 11  2  0
 12 13  1  0
 13 14  2  0
 14 15  1  0
 15  7  1  0
 16 21  2  0
 17 16  1  0
 18 17  2  0
 18 19  1  0
 19 20  2  0
 20 21  1  0
  2 22  1  0
  3 23  1  0
  8 24  1  0
 11 25  1  0
 13 26  1  0
 16 27  1  0
 17 28  1  0
 20 29  1  0
M  ISO  8  22  14  23  14  24  14  25  14  26  14  27  14  28  14  29  14
M  END
>  <minimizedAffinity>  (1) 
-6.0446701

>  <minimizedRMSD>  (1) 
0.302156925

$$$$
