
     RDKit          3D

 34 37  0  0  0  0  0  0  0  0999 V2000
   46.9290   34.8030   41.9850 C   0  0  0  0  0  0  0  0  0  0  0  0
   48.1530   35.3920   41.9230 C   0  0  0  0  0  0  0  0  0  0  0  0
   48.7890   35.2650   40.7270 C   0  0  0  0  0  0  0  0  0  0  0  0
   48.2510   34.6130   39.6960 N   0  0  0  0  0  0  0  0  0  0  0  0
   47.0370   34.0320   39.7670 C   0  0  0  0  0  0  0  0  0  0  0  0
   46.4430   34.1730   40.9480 N   0  0  0  0  0  0  0  0  0  0  0  0
   46.2580   33.2790   38.7880 C   0  0  0  0  0  0  0  0  0  0  0  0
   44.9580   32.8350   39.0500 C   0  0  0  0  0  0  0  0  0  0  0  0
   44.2060   32.1290   38.1540 C   0  0  0  0  0  0  0  0  0  0  0  0
   44.7060   31.8140   36.9190 C   0  0  0  0  0  0  0  0  0  0  0  0
   45.9820   32.2240   36.6010 C   0  0  0  0  0  0  0  0  0  0  0  0
   46.4540   31.8930   35.3560 C   0  0  0  0  0  0  0  0  0  0  0  0
   47.7110   32.2640   34.9670 C   0  0  0  0  0  0  0  0  0  0  0  0
   48.4690   32.9870   35.8940 C   0  0  0  0  0  0  0  0  0  0  0  0
   47.9440   33.2920   37.1310 C   0  0  0  0  0  0  0  0  0  0  0  0
   46.6990   32.9330   37.5370 C   0  0  0  0  0  0  0  0  0  0  0  0
   44.5020   35.9230   44.6080 C   0  0  0  0  0  0  0  0  0  0  0  0
   45.2240   35.9210   43.3770 C   0  0  0  0  0  0  0  0  0  0  0  0
   46.1540   34.8770   43.2230 C   0  0  0  0  0  0  0  0  0  0  0  0
   46.3070   33.9730   44.2090 N   0  0  0  0  0  0  0  0  0  0  0  0
   45.5870   34.0260   45.3690 C   0  0  0  0  0  0  0  0  0  0  0  0
   44.6920   35.0050   45.5500 N   0  0  0  0  0  0  0  0  0  0  0  0
   48.5951   35.9299   42.7746 H   0  0  0  0  0  0  0  0  0  0  0  0
   49.7844   35.7172   40.6061 H   0  0  0  0  0  0  0  0  0  0  0  0
   44.5170   33.0668   40.0307 H   0  0  0  0  0  0  0  0  0  0  0  0
   43.1892   31.8107   38.4275 H   0  0  0  0  0  0  0  0  0  0  0  0
   44.1019   31.2458   36.1964 H   0  0  0  0  0  0  0  0  0  0  0  0
   45.8152   31.3239   34.6645 H   0  0  0  0  0  0  0  0  0  0  0  0
   48.1070   32.0065   33.9736 H   0  0  0  0  0  0  0  0  0  0  0  0
   49.4871   33.3130   35.6348 H   0  0  0  0  0  0  0  0  0  0  0  0
   48.5718   33.8611   37.8324 H   0  0  0  0  0  0  0  0  0  0  0  0
   43.7594   36.7152   44.7840 H   0  0  0  0  0  0  0  0  0  0  0  0
   45.0641   36.6842   42.6011 H   0  0  0  0  0  0  0  0  0  0  0  0
   45.7420   33.2677   46.1506 H   0  0  0  0  0  0  0  0  0  0  0  0
  1 19  1  0
  2  1  2  0
  3  2  1  0
  4  5  1  0
  4  3  2  0
  5  6  2  0
  6  1  1  0
  7  8  2  0
  7  5  1  0
  9  8  1  0
 10  9  2  0
 11 10  1  0
 11 16  2  0
 12 11  1  0
 13 12  2  0
 13 14  1  0
 14 15  2  0
 15 16  1  0
 16  7  1  0
 17 22  2  0
 18 17  1  0
 19 18  2  0
 19 20  1  0
 20 21  2  0
 21 22  1  0
  2 23  1  0
  3 24  1  0
  8 25  1  0
  9 26  1  0
 10 27  1  0
 12 28  1  0
 13 29  1  0
 14 30  1  0
 15 31  1  0
 17 32  1  0
 18 33  1  0
 21 34  1  0
M  ISO  8  23  14  24  14  25  14  26  14  27  14  28  14  29  14  30  14
M  ISO  4  31  14  32  14  33  14  34  14
M  END
>  <minimizedAffinity>  (1) 
-5.90433073

>  <minimizedRMSD>  (1) 
0.34651953

$$$$
