
     RDKit          3D

 32 35  0  0  0  0  0  0  0  0999 V2000
   46.9340   34.7880   41.9970 C   0  0  0  0  0  0  0  0  0  0  0  0
   48.1460   35.4010   41.9370 C   0  0  0  0  0  0  0  0  0  0  0  0
   48.7900   35.2950   40.7430 C   0  0  0  0  0  0  0  0  0  0  0  0
   48.2640   34.6360   39.7120 N   0  0  0  0  0  0  0  0  0  0  0  0
   47.0620   34.0300   39.7750 C   0  0  0  0  0  0  0  0  0  0  0  0
   46.4610   34.1550   40.9580 N   0  0  0  0  0  0  0  0  0  0  0  0
   46.2720   33.2600   38.8090 C   0  0  0  0  0  0  0  0  0  0  0  0
   45.0200   32.8020   39.0530 N   0  0  0  0  0  0  0  0  0  0  0  0
   44.2890   32.1090   38.2070 C   0  0  0  0  0  0  0  0  0  0  0  0
   44.7600   31.7920   36.9820 N   0  0  0  0  0  0  0  0  0  0  0  0
   46.0050   32.1940   36.6150 C   0  0  0  0  0  0  0  0  0  0  0  0
   46.4880   31.8740   35.3700 C   0  0  0  0  0  0  0  0  0  0  0  0
   47.7360   32.2690   34.9870 C   0  0  0  0  0  0  0  0  0  0  0  0
   48.4810   32.9970   35.8980 C   0  0  0  0  0  0  0  0  0  0  0  0
   47.9540   33.2940   37.1340 C   0  0  0  0  0  0  0  0  0  0  0  0
   46.7040   32.9130   37.5550 C   0  0  0  0  0  0  0  0  0  0  0  0
   44.5240   35.8650   44.6620 C   0  0  0  0  0  0  0  0  0  0  0  0
   45.2380   35.8610   43.4370 C   0  0  0  0  0  0  0  0  0  0  0  0
   46.1660   34.8460   43.2410 C   0  0  0  0  0  0  0  0  0  0  0  0
   46.3330   33.9290   44.2200 N   0  0  0  0  0  0  0  0  0  0  0  0
   45.6280   33.9660   45.3830 C   0  0  0  0  0  0  0  0  0  0  0  0
   44.7350   34.9320   45.5870 N   0  0  0  0  0  0  0  0  0  0  0  0
   48.5752   35.9437   42.7922 H   0  0  0  0  0  0  0  0  0  0  0  0
   49.7759   35.7684   40.6256 H   0  0  0  0  0  0  0  0  0  0  0  0
   43.2804   31.7834   38.5015 H   0  0  0  0  0  0  0  0  0  0  0  0
   45.8628   31.2939   34.6754 H   0  0  0  0  0  0  0  0  0  0  0  0
   48.1347   32.0187   33.9928 H   0  0  0  0  0  0  0  0  0  0  0  0
   49.4931   33.3378   35.6345 H   0  0  0  0  0  0  0  0  0  0  0  0
   48.5755   33.8753   37.8310 H   0  0  0  0  0  0  0  0  0  0  0  0
   43.7816   36.6543   44.8513 H   0  0  0  0  0  0  0  0  0  0  0  0
   45.0639   36.6316   42.6716 H   0  0  0  0  0  0  0  0  0  0  0  0
   45.7956   33.1990   46.1535 H   0  0  0  0  0  0  0  0  0  0  0  0
  1 19  1  0
  2  1  2  0
  3  2  1  0
  4  5  1  0
  4  3  2  0
  5  6  2  0
  6  1  1  0
  7  8  2  0
  7  5  1  0
  9  8  1  0
 10  9  2  0
 11 10  1  0
 11 16  2  0
 12 11  1  0
 13 12  2  0
 13 14  1  0
 14 15  2  0
 15 16  1  0
 16  7  1  0
 17 22  2  0
 18 17  1  0
 19 18  2  0
 19 20  1  0
 20 21  2  0
 21 22  1  0
  2 23  1  0
  3 24  1  0
  9 25  1  0
 12 26  1  0
 13 27  1  0
 14 28  1  0
 15 29  1  0
 17 30  1  0
 18 31  1  0
 21 32  1  0
M  ISO  8  23  14  24  14  25  14  26  14  27  14  28  14  29  14  30  14
M  ISO  2  31  14  32  14
M  END
>  <minimizedAffinity>  (1) 
-5.85729456

>  <minimizedRMSD>  (1) 
0.351370633

$$$$
