
     RDKit          3D

 25 26  0  0  0  0  0  0  0  0999 V2000
   46.8410   34.7620   41.8960 C   0  0  0  0  0  0  0  0  0  0  0  0
   48.0850   35.3390   41.8100 C   0  0  0  0  0  0  0  0  0  0  0  0
   48.7600   35.2160   40.6460 C   0  0  0  0  0  0  0  0  0  0  0  0
   48.2130   34.5480   39.6200 N   0  0  0  0  0  0  0  0  0  0  0  0
   46.9710   33.9740   39.7140 C   0  0  0  0  0  0  0  0  0  0  0  0
   46.3130   34.1050   40.8760 N   0  0  0  0  0  0  0  0  0  0  0  0
   46.3930   33.2670   38.6300 N   0  0  0  0  0  0  0  0  0  0  0  0
   46.9180   33.3800   37.2960 C   0  0  0  0  0  0  0  0  0  0  0  0
   47.3990   34.5540   36.9670 N   0  0  0  0  0  0  0  0  0  0  0  0
   46.8790   32.2310   36.4500 N   0  0  0  0  0  0  0  0  0  0  0  0
   47.7740   34.5850   35.9760 H   0  0  0  0  0  0  0  0  0  0  0  0
   44.5070   36.0490   44.5340 C   0  0  0  0  0  0  0  0  0  0  0  0
   45.2120   35.9590   43.3120 C   0  0  0  0  0  0  0  0  0  0  0  0
   46.1020   34.8840   43.1400 C   0  0  0  0  0  0  0  0  0  0  0  0
   46.2380   33.9950   44.1420 N   0  0  0  0  0  0  0  0  0  0  0  0
   45.5390   34.1150   45.3110 C   0  0  0  0  0  0  0  0  0  0  0  0
   44.6920   35.1240   45.4960 N   0  0  0  0  0  0  0  0  0  0  0  0
   48.5178   35.8839   42.6619 H   0  0  0  0  0  0  0  0  0  0  0  0
   49.7590   35.6642   40.5399 H   0  0  0  0  0  0  0  0  0  0  0  0
   45.5794   32.6592   38.8015 H   0  0  0  0  0  0  0  0  0  0  0  0
   47.2486   32.2854   35.4901 H   0  0  0  0  0  0  0  0  0  0  0  0
   46.4813   31.3475   36.7994 H   0  0  0  0  0  0  0  0  0  0  0  0
   43.8038   36.8784   44.7003 H   0  0  0  0  0  0  0  0  0  0  0  0
   45.0686   36.7078   42.5191 H   0  0  0  0  0  0  0  0  0  0  0  0
   45.6786   33.3690   46.1072 H   0  0  0  0  0  0  0  0  0  0  0  0
  1 14  1  0
  2  1  2  0
  3  2  1  0
  4  5  1  0
  4  3  2  0
  5  6  2  0
  6  1  1  0
  7  5  1  0
  8  7  1  0
  9  8  2  0
 10  8  1  0
 11  9  1  0
 12 17  2  0
 13 12  1  0
 14 13  2  0
 14 15  1  0
 15 16  2  0
 16 17  1  0
  2 18  1  0
  3 19  1  0
  7 20  1  0
 10 21  1  0
 10 22  1  0
 12 23  1  0
 13 24  1  0
 16 25  1  0
M  ISO  5  18  14  19  14  23  14  24  14  25  14
M  END
>  <minimizedAffinity>  (1) 
-5.77128363

>  <minimizedRMSD>  (1) 
0.221614301

$$$$
