
     RDKit          3D

 49 52  0  0  1  0  0  0  0  0999 V2000
   47.7190   33.4540   43.1460 C   0  0  0  0  0  0  0  0  0  0  0  0
   48.1350   34.4810   40.8930 C   0  0  2  0  0  0  0  0  0  0  0  0
   48.7330   35.6860   41.3010 C   0  0  0  0  0  0  0  0  0  0  0  0
   49.9170   35.3130   42.2360 C   0  0  0  0  0  0  0  0  0  0  0  0
   49.9800   33.8030   42.3130 C   0  0  0  0  0  0  0  0  0  0  0  0
   48.6220   33.4190   41.9510 C   0  0  1  0  0  0  0  0  0  0  0  0
   48.4390   33.8330   39.5870 C   0  0  0  0  0  0  0  0  0  0  0  0
   48.3890   34.6190   38.4650 C   0  0  0  0  0  0  0  0  0  0  0  0
   48.6600   34.0860   37.2240 C   0  0  0  0  0  0  0  0  0  0  0  0
   48.9740   32.7420   37.2030 N   0  0  0  0  0  0  0  0  0  0  0  0
   49.0130   32.0090   38.3120 C   0  0  0  0  0  0  0  0  0  0  0  0
   48.7490   32.5290   39.5210 N   0  0  0  0  0  0  0  0  0  0  0  0
   46.3020   33.6930   42.7690 C   0  0  0  0  0  0  0  0  0  0  0  0
   45.6320   34.3120   43.9520 C   0  0  0  0  0  0  0  0  0  0  0  0
   45.1960   35.5890   44.1250 C   0  0  0  0  0  0  0  0  0  0  0  0
   44.6480   35.6910   45.3570 N   0  0  0  0  0  0  0  0  0  0  0  0
   44.7470   34.4870   45.9340 C   0  0  0  0  0  0  0  0  0  0  0  0
   45.3390   33.6380   45.0990 N   0  0  0  0  0  0  0  0  0  0  0  0
   45.6190   32.2410   45.3790 C   0  0  0  0  0  0  0  0  0  0  0  0
   46.2140   31.9690   46.6840 C   0  0  0  0  0  0  0  0  0  0  0  0
   47.3670   32.3970   47.3040 C   0  0  0  0  0  0  0  0  0  0  0  0
   47.6990   32.0030   48.5820 C   0  0  0  0  0  0  0  0  0  0  0  0
   46.9020   31.1580   49.3220 C   0  0  0  0  0  0  0  0  0  0  0  0
   45.7400   30.7110   48.7300 C   0  0  0  0  0  0  0  0  0  0  0  0
   45.4080   31.1070   47.4460 C   0  0  0  0  0  0  0  0  0  0  0  0
   47.7885   32.4901   43.6714 H   0  0  0  0  0  0  0  0  0  0  0  0
   48.0426   34.2843   43.7908 H   0  0  0  0  0  0  0  0  0  0  0  0
   47.0765   34.7649   40.7976 H   0  0  0  0  0  0  0  0  0  0  0  0
   49.1032   36.2393   40.4253 H   0  0  0  0  0  0  0  0  0  0  0  0
   48.0074   36.3267   41.8236 H   0  0  0  0  0  0  0  0  0  0  0  0
   50.8581   35.7074   41.8252 H   0  0  0  0  0  0  0  0  0  0  0  0
   49.7704   35.7454   43.2368 H   0  0  0  0  0  0  0  0  0  0  0  0
   50.7126   33.3976   41.5996 H   0  0  0  0  0  0  0  0  0  0  0  0
   50.2989   33.4241   43.2952 H   0  0  0  0  0  0  0  0  0  0  0  0
   48.6002   32.3944   41.5512 H   0  0  0  0  0  0  0  0  0  0  0  0
   48.1303   35.6842   38.5564 H   0  0  0  0  0  0  0  0  0  0  0  0
   48.6282   34.6933   36.3074 H   0  0  0  0  0  0  0  0  0  0  0  0
   49.2699   30.9421   38.2361 H   0  0  0  0  0  0  0  0  0  0  0  0
   46.2505   34.3741   41.9068 H   0  0  0  0  0  0  0  0  0  0  0  0
   45.8076   32.7518   42.4866 H   0  0  0  0  0  0  0  0  0  0  0  0
   45.2758   36.4012   43.3874 H   0  0  0  0  0  0  0  0  0  0  0  0
   44.3925   34.2379   46.9451 H   0  0  0  0  0  0  0  0  0  0  0  0
   44.6713   31.6861   45.3163 H   0  0  0  0  0  0  0  0  0  0  0  0
   46.3661   31.9276   44.6350 H   0  0  0  0  0  0  0  0  0  0  0  0
   48.0437   33.0742   46.7623 H   0  0  0  0  0  0  0  0  0  0  0  0
   48.6332   32.3764   49.0267 H   0  0  0  0  0  0  0  0  0  0  0  0
   47.1806   30.8529   50.3415 H   0  0  0  0  0  0  0  0  0  0  0  0
   45.0715   30.0343   49.2824 H   0  0  0  0  0  0  0  0  0  0  0  0
   44.4737   30.7309   47.0036 H   0  0  0  0  0  0  0  0  0  0  0  0
  2  3  1  0
  2  6  1  0
  3  4  1  0
  4  5  1  0
  6  5  1  0
  6  1  1  0
  7  2  1  0
  8  7  2  0
  9  8  1  0
 10  9  2  0
 10 11  1  0
 11 12  2  0
 12  7  1  0
 13  1  1  0
 13 14  1  0
 14 15  2  0
 14 18  1  0
 15 16  1  0
 16 17  2  0
 18 19  1  0
 18 17  1  0
 19 20  1  0
 20 21  2  0
 20 25  1  0
 21 22  1  0
 22 23  2  0
 24 23  1  0
 25 24  2  0
  1 26  1  0
  1 27  1  0
  2 28  1  6
  3 29  1  0
  3 30  1  0
  4 31  1  0
  4 32  1  0
  5 33  1  0
  5 34  1  0
  6 35  1  6
  8 36  1  0
  9 37  1  0
 11 38  1  0
 13 39  1  0
 13 40  1  0
 15 41  1  0
 17 42  1  0
 19 43  1  0
 19 44  1  0
 21 45  1  0
 22 46  1  0
 23 47  1  0
 24 48  1  0
 25 49  1  0
M  ISO  8  26   8  27   8  28  13  29  13  30  13  31  13  32  13  33  13
M  ISO  8  34  13  35  13  36  14  37  14  38  14  39   8  40   8  41  14
M  ISO  8  42  14  43   8  44   8  45  14  46  14  47  14  48  14  49  14
M  END
>  <minimizedAffinity>  (1) 
-5.90175819

>  <minimizedRMSD>  (1) 
1.63974309

$$$$
