
     RDKit          3D

 31 33  0  0  0  0  0  0  0  0999 V2000
   46.9190   34.8030   42.0860 C   0  0  0  0  0  0  0  0  0  0  0  0
   48.1130   35.4980   42.0020 C   0  0  0  0  0  0  0  0  0  0  0  0
   48.7990   35.4100   40.8330 C   0  0  0  0  0  0  0  0  0  0  0  0
   48.3230   34.6740   39.8120 N   0  0  0  0  0  0  0  0  0  0  0  0
   47.1430   33.9900   39.9010 C   0  0  0  0  0  0  0  0  0  0  0  0
   46.4880   34.0940   41.0640 N   0  0  0  0  0  0  0  0  0  0  0  0
   46.6540   33.2170   38.8120 N   0  0  0  0  0  0  0  0  0  0  0  0
   45.4110   32.4810   38.8710 C   0  0  0  0  0  0  0  0  0  0  0  0
   44.5370   32.9620   37.7390 C   0  0  0  0  0  0  0  0  0  0  0  0
   45.2350   33.4040   36.6360 O   0  0  0  0  0  0  0  0  0  0  0  0
   46.4740   32.7880   36.4790 C   0  0  0  0  0  0  0  0  0  0  0  0
   47.4290   33.1610   37.5930 C   0  0  0  0  0  0  0  0  0  0  0  0
   44.5020   35.9090   44.7080 C   0  0  0  0  0  0  0  0  0  0  0  0
   45.2260   35.8960   43.4890 C   0  0  0  0  0  0  0  0  0  0  0  0
   46.1490   34.8650   43.3140 C   0  0  0  0  0  0  0  0  0  0  0  0
   46.3100   33.9410   44.2950 N   0  0  0  0  0  0  0  0  0  0  0  0
   45.5860   34.0030   45.4490 C   0  0  0  0  0  0  0  0  0  0  0  0
   44.6920   34.9790   45.6480 N   0  0  0  0  0  0  0  0  0  0  0  0
   48.4899   36.0955   42.8451 H   0  0  0  0  0  0  0  0  0  0  0  0
   49.7531   35.9457   40.7198 H   0  0  0  0  0  0  0  0  0  0  0  0
   45.6078   31.4044   38.7606 H   0  0  0  0  0  0  0  0  0  0  0  0
   44.9127   32.6446   39.8379 H   0  0  0  0  0  0  0  0  0  0  0  0
   43.8883   32.1304   37.4265 H   0  0  0  0  0  0  0  0  0  0  0  0
   43.9701   33.8238   38.1210 H   0  0  0  0  0  0  0  0  0  0  0  0
   46.3327   31.6971   36.4807 H   0  0  0  0  0  0  0  0  0  0  0  0
   46.9079   33.1274   35.5269 H   0  0  0  0  0  0  0  0  0  0  0  0
   48.2200   32.4019   37.6826 H   0  0  0  0  0  0  0  0  0  0  0  0
   47.9115   34.1283   37.3894 H   0  0  0  0  0  0  0  0  0  0  0  0
   43.7645   36.7058   44.8843 H   0  0  0  0  0  0  0  0  0  0  0  0
   45.0672   36.6634   42.7171 H   0  0  0  0  0  0  0  0  0  0  0  0
   45.7388   33.2405   46.2269 H   0  0  0  0  0  0  0  0  0  0  0  0
  1 15  1  0
  2  1  2  0
  3  2  1  0
  4  5  1  0
  4  3  2  0
  5  6  2  0
  6  1  1  0
  7  8  1  0
  7  5  1  0
  9  8  1  0
 10  9  1  0
 11 10  1  0
 11 12  1  0
 12  7  1  0
 13 18  2  0
 14 13  1  0
 15 14  2  0
 15 16  1  0
 16 17  2  0
 17 18  1  0
  2 19  1  0
  3 20  1  0
  8 21  1  0
  8 22  1  0
  9 23  1  0
  9 24  1  0
 11 25  1  0
 11 26  1  0
 12 27  1  0
 12 28  1  0
 13 29  1  0
 14 30  1  0
 17 31  1  0
M  ISO  8  19  14  20  14  21  13  22  13  23  13  24  13  25  13  26  13
M  ISO  5  27  13  28  13  29  14  30  14  31  14
M  END
>  <minimizedAffinity>  (1) 
-5.49465132

>  <minimizedRMSD>  (1) 
0.309350312

$$$$
