
     RDKit          3D

 25 27  0  0  0  0  0  0  0  0999 V2000
   46.8220   34.7190   41.9870 C   0  0  0  0  0  0  0  0  0  0  0  0
   48.0430   35.3300   41.8880 C   0  0  0  0  0  0  0  0  0  0  0  0
   48.6750   35.1950   40.6820 C   0  0  0  0  0  0  0  0  0  0  0  0
   48.1290   34.5080   39.6740 N   0  0  0  0  0  0  0  0  0  0  0  0
   46.9140   33.9100   39.7980 C   0  0  0  0  0  0  0  0  0  0  0  0
   46.2810   34.0350   40.9810 N   0  0  0  0  0  0  0  0  0  0  0  0
   46.2450   33.1570   38.7910 N   0  0  0  0  0  0  0  0  0  0  0  0
   46.6750   33.3110   37.5080 C   0  0  0  0  0  0  0  0  0  0  0  0
   45.8720   32.4800   36.7190 C   0  0  0  0  0  0  0  0  0  0  0  0
   44.9920   31.8580   37.5410 N   0  0  0  0  0  0  0  0  0  0  0  0
   45.2160   32.2720   38.8200 C   0  0  0  0  0  0  0  0  0  0  0  0
   44.5060   35.9280   44.6780 C   0  0  0  0  0  0  0  0  0  0  0  0
   45.1890   35.8710   43.4450 C   0  0  0  0  0  0  0  0  0  0  0  0
   46.0870   34.8240   43.2530 C   0  0  0  0  0  0  0  0  0  0  0  0
   46.2690   33.9100   44.2450 N   0  0  0  0  0  0  0  0  0  0  0  0
   45.5800   34.0130   45.4240 C   0  0  0  0  0  0  0  0  0  0  0  0
   44.7060   35.0190   45.6280 N   0  0  0  0  0  0  0  0  0  0  0  0
   48.4867   35.8923   42.7228 H   0  0  0  0  0  0  0  0  0  0  0  0
   49.6592   35.6647   40.5382 H   0  0  0  0  0  0  0  0  0  0  0  0
   47.4921   33.9603   37.1606 H   0  0  0  0  0  0  0  0  0  0  0  0
   45.9423   32.3542   35.6285 H   0  0  0  0  0  0  0  0  0  0  0  0
   44.6631   31.9477   39.7140 H   0  0  0  0  0  0  0  0  0  0  0  0
   43.7907   36.7440   44.8581 H   0  0  0  0  0  0  0  0  0  0  0  0
   45.0185   36.6261   42.6635 H   0  0  0  0  0  0  0  0  0  0  0  0
   45.7417   33.2655   46.2146 H   0  0  0  0  0  0  0  0  0  0  0  0
  1 14  1  0
  2  1  2  0
  3  2  1  0
  4  5  1  0
  4  3  2  0
  5  6  2  0
  6  1  1  0
  7 11  1  0
  7  5  1  0
  8  7  1  0
  9  8  2  0
  9 10  1  0
 10 11  2  0
 12 17  2  0
 13 12  1  0
 14 13  2  0
 14 15  1  0
 15 16  2  0
 16 17  1  0
  2 18  1  0
  3 19  1  0
  8 20  1  0
  9 21  1  0
 11 22  1  0
 12 23  1  0
 13 24  1  0
 16 25  1  0
M  ISO  8  18  14  19  14  20  14  21  14  22  14  23  14  24  14  25  14
M  END
>  <minimizedAffinity>  (1) 
-5.2238369

>  <minimizedRMSD>  (1) 
0.119127408

$$$$
