
     RDKit          3D

 25 27  0  0  0  0  0  0  0  0999 V2000
   46.7780   34.7080   41.9470 C   0  0  0  0  0  0  0  0  0  0  0  0
   48.0120   35.3290   41.8330 C   0  0  0  0  0  0  0  0  0  0  0  0
   48.6580   35.1790   40.6470 C   0  0  0  0  0  0  0  0  0  0  0  0
   48.1160   34.4610   39.6460 N   0  0  0  0  0  0  0  0  0  0  0  0
   46.9070   33.8660   39.7890 C   0  0  0  0  0  0  0  0  0  0  0  0
   46.2540   34.0070   40.9610 N   0  0  0  0  0  0  0  0  0  0  0  0
   44.5080   36.0190   44.6200 C   0  0  0  0  0  0  0  0  0  0  0  0
   45.1870   35.9270   43.3840 C   0  0  0  0  0  0  0  0  0  0  0  0
   46.0590   34.8470   43.1980 C   0  0  0  0  0  0  0  0  0  0  0  0
   46.2110   33.9410   44.2050 N   0  0  0  0  0  0  0  0  0  0  0  0
   45.5300   34.0720   45.3890 C   0  0  0  0  0  0  0  0  0  0  0  0
   44.6940   35.1020   45.5800 N   0  0  0  0  0  0  0  0  0  0  0  0
   46.3820   33.1040   38.6620 C   0  0  0  0  0  0  0  0  0  0  0  0
   46.8750   33.4150   37.3900 C   0  0  0  0  0  0  0  0  0  0  0  0
   46.2370   32.5700   36.4780 C   0  0  0  0  0  0  0  0  0  0  0  0
   45.4030   31.7970   37.2180 N   0  0  0  0  0  0  0  0  0  0  0  0
   45.4800   32.1060   38.5150 N   0  0  0  0  0  0  0  0  0  0  0  0
   48.4453   35.9123   42.6588 H   0  0  0  0  0  0  0  0  0  0  0  0
   49.6404   35.6523   40.5026 H   0  0  0  0  0  0  0  0  0  0  0  0
   43.8163   36.8558   44.7970 H   0  0  0  0  0  0  0  0  0  0  0  0
   45.0357   36.6782   42.5948 H   0  0  0  0  0  0  0  0  0  0  0  0
   45.6710   33.3272   46.1861 H   0  0  0  0  0  0  0  0  0  0  0  0
   47.6260   34.1827   37.1519 H   0  0  0  0  0  0  0  0  0  0  0  0
   46.3809   32.5382   35.3879 H   0  0  0  0  0  0  0  0  0  0  0  0
   44.7897   31.0663   36.8297 H   0  0  0  0  0  0  0  0  0  0  0  0
  1  9  1  0
  2  1  2  0
  3  2  1  0
  4  5  1  0
  4  3  2  0
  5  6  2  0
  6  1  1  0
  7 12  2  0
  8  7  1  0
  9  8  2  0
  9 10  1  0
 10 11  2  0
 11 12  1  0
 13  5  1  0
 14 13  1  0
 15 16  1  0
 15 14  2  0
 16 17  1  0
 17 13  2  0
  2 18  1  0
  3 19  1  0
  7 20  1  0
  8 21  1  0
 11 22  1  0
 14 23  1  0
 15 24  1  0
 16 25  1  0
M  ISO  8  18  14  19  14  20  14  21  14  22  14  23  14  24  14  25   9
M  END
>  <minimizedAffinity>  (1) 
-5.01213121

>  <minimizedRMSD>  (1) 
0.358112812

$$$$
