
     RDKit          3D

 25 27  0  0  0  0  0  0  0  0999 V2000
   46.7630   34.6830   42.0030 C   0  0  0  0  0  0  0  0  0  0  0  0
   47.9880   35.3180   41.8770 C   0  0  0  0  0  0  0  0  0  0  0  0
   48.6180   35.1740   40.6800 C   0  0  0  0  0  0  0  0  0  0  0  0
   48.0710   34.4520   39.6870 N   0  0  0  0  0  0  0  0  0  0  0  0
   46.8740   33.8440   39.8410 C   0  0  0  0  0  0  0  0  0  0  0  0
   46.2380   33.9760   41.0160 N   0  0  0  0  0  0  0  0  0  0  0  0
   44.5000   35.9490   44.7030 C   0  0  0  0  0  0  0  0  0  0  0  0
   45.1720   35.8670   43.4580 C   0  0  0  0  0  0  0  0  0  0  0  0
   46.0520   34.8080   43.2630 C   0  0  0  0  0  0  0  0  0  0  0  0
   46.2230   33.9120   44.2660 N   0  0  0  0  0  0  0  0  0  0  0  0
   45.5620   34.0160   45.4540 C   0  0  0  0  0  0  0  0  0  0  0  0
   44.7100   35.0310   45.6590 N   0  0  0  0  0  0  0  0  0  0  0  0
   46.3330   33.0780   38.7350 C   0  0  0  0  0  0  0  0  0  0  0  0
   46.7660   33.3580   37.3390 C   0  0  0  0  0  0  0  0  0  0  0  0
   46.2260   32.6110   36.3450 C   0  0  0  0  0  0  0  0  0  0  0  0
   45.2360   31.5570   36.6940 C   0  0  0  0  0  0  0  0  0  0  0  0
   45.1600   31.7470   38.5790 S   0  0  0  0  0  0  0  0  0  0  0  0
   48.4260   35.9049   42.6978 H   0  0  0  0  0  0  0  0  0  0  0  0
   49.5933   35.6575   40.5218 H   0  0  0  0  0  0  0  0  0  0  0  0
   43.7977   36.7752   44.8880 H   0  0  0  0  0  0  0  0  0  0  0  0
   45.0030   36.6169   42.6712 H   0  0  0  0  0  0  0  0  0  0  0  0
   45.7275   33.2681   46.2434 H   0  0  0  0  0  0  0  0  0  0  0  0
   47.5013   34.1465   37.1206 H   0  0  0  0  0  0  0  0  0  0  0  0
   46.5152   32.7815   35.2975 H   0  0  0  0  0  0  0  0  0  0  0  0
   44.6958   30.8585   36.0380 H   0  0  0  0  0  0  0  0  0  0  0  0
  1  9  1  0
  2  1  2  0
  3  2  1  0
  4  5  1  0
  4  3  2  0
  5  6  2  0
  6  1  1  0
  7 12  2  0
  8  7  1  0
  9  8  2  0
  9 10  1  0
 10 11  2  0
 11 12  1  0
 13  5  1  0
 14 13  2  0
 15 16  2  0
 15 14  1  0
 16 17  1  0
 17 13  1  0
  2 18  1  0
  3 19  1  0
  7 20  1  0
  8 21  1  0
 11 22  1  0
 14 23  1  0
 15 24  1  0
 16 25  1  0
M  ISO  8  18  14  19  14  20  14  21  14  22  14  23  14  24  14  25  14
M  END
>  <minimizedAffinity>  (1) 
-5.01207638

>  <minimizedRMSD>  (1) 
0.551260889

$$$$
