
     RDKit          3D

 23 25  0  0  0  0  0  0  0  0999 V2000
   46.7860   34.7220   41.9440 C   0  0  0  0  0  0  0  0  0  0  0  0
   48.0240   35.3390   41.8290 C   0  0  0  0  0  0  0  0  0  0  0  0
   48.6720   35.1860   40.6420 C   0  0  0  0  0  0  0  0  0  0  0  0
   48.1200   34.4650   39.6410 N   0  0  0  0  0  0  0  0  0  0  0  0
   46.8990   33.8670   39.7780 C   0  0  0  0  0  0  0  0  0  0  0  0
   46.2720   34.0270   40.9550 N   0  0  0  0  0  0  0  0  0  0  0  0
   44.5070   36.0160   44.6160 C   0  0  0  0  0  0  0  0  0  0  0  0
   45.1950   35.9190   43.3830 C   0  0  0  0  0  0  0  0  0  0  0  0
   46.0630   34.8570   43.1910 C   0  0  0  0  0  0  0  0  0  0  0  0
   46.2210   33.9460   44.1990 N   0  0  0  0  0  0  0  0  0  0  0  0
   45.5420   34.0700   45.3720 C   0  0  0  0  0  0  0  0  0  0  0  0
   44.6940   35.1030   45.5680 N   0  0  0  0  0  0  0  0  0  0  0  0
   46.3590   33.1010   38.6560 C   0  0  0  0  0  0  0  0  0  0  0  0
   46.7710   33.4030   37.4170 N   0  0  0  0  0  0  0  0  0  0  0  0
   46.2010   32.6360   36.5460 O   0  0  0  0  0  0  0  0  0  0  0  0
   45.4050   31.8150   37.1800 C   0  0  0  0  0  0  0  0  0  0  0  0
   45.4830   32.0820   38.5020 N   0  0  0  0  0  0  0  0  0  0  0  0
   48.4589   35.9215   42.6546 H   0  0  0  0  0  0  0  0  0  0  0  0
   49.6564   35.6546   40.4957 H   0  0  0  0  0  0  0  0  0  0  0  0
   43.8127   36.8514   44.7896 H   0  0  0  0  0  0  0  0  0  0  0  0
   45.0436   36.6707   42.5943 H   0  0  0  0  0  0  0  0  0  0  0  0
   45.6849   33.3231   46.1668 H   0  0  0  0  0  0  0  0  0  0  0  0
   44.7785   31.0390   36.7160 H   0  0  0  0  0  0  0  0  0  0  0  0
  1  9  1  0
  2  1  2  0
  3  2  1  0
  4  5  1  0
  4  3  2  0
  5  6  2  0
  6  1  1  0
  7 12  2  0
  8  7  1  0
  9  8  2  0
  9 10  1  0
 10 11  2  0
 11 12  1  0
 13  5  1  0
 14 13  2  0
 15 16  1  0
 15 14  1  0
 16 17  2  0
 17 13  1  0
  2 18  1  0
  3 19  1  0
  7 20  1  0
  8 21  1  0
 11 22  1  0
 16 23  1  0
M  ISO  6  18  14  19  14  20  14  21  14  22  14  23  14
M  END
>  <minimizedAffinity>  (1) 
-4.97234774

>  <minimizedRMSD>  (1) 
0.140338972

$$$$
