
     RDKit          3D

 41 43  0  0  1  0  0  0  0  0999 V2000
   47.9430   34.5500   41.2360 C   0  0  2  0  0  0  0  0  0  0  0  0
   48.7000   35.6770   41.6020 C   0  0  0  0  0  0  0  0  0  0  0  0
   49.9770   35.1620   42.3100 C   0  0  0  0  0  0  0  0  0  0  0  0
   49.9280   33.6430   42.2970 C   0  0  0  0  0  0  0  0  0  0  0  0
   48.5000   33.3890   42.1480 C   0  0  1  0  0  0  0  0  0  0  0  0
   47.9750   33.9640   39.8680 C   0  0  0  0  0  0  0  0  0  0  0  0
   48.4370   34.7630   38.8510 C   0  0  0  0  0  0  0  0  0  0  0  0
   48.5010   34.2930   37.5540 C   0  0  0  0  0  0  0  0  0  0  0  0
   48.0740   32.9940   37.3740 N   0  0  0  0  0  0  0  0  0  0  0  0
   47.6340   32.2530   38.3820 C   0  0  0  0  0  0  0  0  0  0  0  0
   47.5740   32.7130   39.6400 N   0  0  0  0  0  0  0  0  0  0  0  0
   47.8050   33.4320   43.4760 C   0  0  0  0  0  0  0  0  0  0  0  0
   46.3500   33.1060   43.3440 C   0  0  0  0  0  0  0  0  0  0  0  0
   45.6080   34.1910   44.0430 C   0  0  0  0  0  0  0  0  0  0  0  0
   45.1030   35.3470   43.5360 C   0  0  0  0  0  0  0  0  0  0  0  0
   44.5040   36.0370   44.5400 N   0  0  0  0  0  0  0  0  0  0  0  0
   44.6410   35.3050   45.6530 C   0  0  0  0  0  0  0  0  0  0  0  0
   45.3030   34.1910   45.3720 N   0  0  0  0  0  0  0  0  0  0  0  0
   45.6450   33.1300   46.3210 C   0  0  0  0  0  0  0  0  0  0  0  0
   46.9060   33.3540   46.9790 N   0  0  0  0  0  0  0  0  0  0  0  0
   46.9113   34.9206   41.3273 H   0  0  0  0  0  0  0  0  0  0  0  0
   48.9728   36.2546   40.7065 H   0  0  0  0  0  0  0  0  0  0  0  0
   48.1229   36.3348   42.2685 H   0  0  0  0  0  0  0  0  0  0  0  0
   50.8709   35.5132   41.7737 H   0  0  0  0  0  0  0  0  0  0  0  0
   50.0251   35.5384   43.3425 H   0  0  0  0  0  0  0  0  0  0  0  0
   50.4979   33.2316   41.4508 H   0  0  0  0  0  0  0  0  0  0  0  0
   50.3715   33.1765   43.1890 H   0  0  0  0  0  0  0  0  0  0  0  0
   48.3272   32.3934   41.7133 H   0  0  0  0  0  0  0  0  0  0  0  0
   48.7603   35.7908   39.0724 H   0  0  0  0  0  0  0  0  0  0  0  0
   48.8673   34.9121   36.7218 H   0  0  0  0  0  0  0  0  0  0  0  0
   47.3061   31.2229   38.1785 H   0  0  0  0  0  0  0  0  0  0  0  0
   48.2756   32.7007   44.1496 H   0  0  0  0  0  0  0  0  0  0  0  0
   47.8953   34.4511   43.8802 H   0  0  0  0  0  0  0  0  0  0  0  0
   46.0630   33.0722   42.2826 H   0  0  0  0  0  0  0  0  0  0  0  0
   46.1217   32.1228   43.7811 H   0  0  0  0  0  0  0  0  0  0  0  0
   45.1688   35.6697   42.4864 H   0  0  0  0  0  0  0  0  0  0  0  0
   44.2626   35.5848   46.6473 H   0  0  0  0  0  0  0  0  0  0  0  0
   44.8553   33.0738   47.0847 H   0  0  0  0  0  0  0  0  0  0  0  0
   45.7306   32.1924   45.7522 H   0  0  0  0  0  0  0  0  0  0  0  0
   46.7697   33.3298   47.9997 H   0  0  0  0  0  0  0  0  0  0  0  0
   47.5722   32.6182   46.7040 H   0  0  0  0  0  0  0  0  0  0  0  0
  1  2  1  0
  1  5  1  0
  2  3  1  0
  4  3  1  0
  5  4  1  0
  5 12  1  0
  6  1  1  0
  7  6  2  0
  8  7  1  0
  9  8  2  0
  9 10  1  0
 10 11  2  0
 11  6  1  0
 13 12  1  0
 13 14  1  0
 14 18  1  0
 15 14  2  0
 15 16  1  0
 16 17  2  0
 18 17  1  0
 18 19  1  0
 19 20  1  0
  1 21  1  1
  2 22  1  0
  2 23  1  0
  3 24  1  0
  3 25  1  0
  4 26  1  0
  4 27  1  0
  5 28  1  6
  7 29  1  0
  8 30  1  0
 10 31  1  0
 12 32  1  0
 12 33  1  0
 13 34  1  0
 13 35  1  0
 15 36  1  0
 17 37  1  0
 19 38  1  0
 19 39  1  0
 20 40  1  0
 20 41  1  0
M  ISO  8  21  13  22  13  23  13  24  13  25  13  26  13  27  13  28  13
M  ISO  8  29  14  30  14  31  14  32   8  33   8  34   8  35   8  36  14
M  ISO  5  37  14  38   8  39   8  40   5  41   5
M  END
>  <minimizedAffinity>  (1) 
-5.80114031

>  <minimizedRMSD>  (1) 
0.0442814939

$$$$
