
     RDKit          3D

 30 31  0  0  0  0  0  0  0  0999 V2000
   46.8030   34.7140   41.9340 C   0  0  0  0  0  0  0  0  0  0  0  0
   48.0100   35.3580   41.8060 C   0  0  0  0  0  0  0  0  0  0  0  0
   48.6600   35.2050   40.6210 C   0  0  0  0  0  0  0  0  0  0  0  0
   48.1390   34.4620   39.6420 N   0  0  0  0  0  0  0  0  0  0  0  0
   46.9410   33.8290   39.7830 C   0  0  0  0  0  0  0  0  0  0  0  0
   46.3000   33.9850   40.9610 N   0  0  0  0  0  0  0  0  0  0  0  0
   44.5110   36.0120   44.5910 C   0  0  0  0  0  0  0  0  0  0  0  0
   45.1910   35.9440   43.3380 C   0  0  0  0  0  0  0  0  0  0  0  0
   46.0700   34.8520   43.1910 C   0  0  0  0  0  0  0  0  0  0  0  0
   46.2120   33.9720   44.1990 N   0  0  0  0  0  0  0  0  0  0  0  0
   45.5400   34.0850   45.3710 C   0  0  0  0  0  0  0  0  0  0  0  0
   44.6890   35.1140   45.5550 N   0  0  0  0  0  0  0  0  0  0  0  0
   46.2830   32.9840   38.7510 C   0  0  0  0  0  0  0  0  0  0  0  0
   46.7190   31.5470   39.0530 C   0  0  0  0  0  0  0  0  0  0  0  0
   44.7820   33.1270   38.8970 C   0  0  0  0  0  0  0  0  0  0  0  0
   46.7030   33.3720   37.3410 C   0  0  0  0  0  0  0  0  0  0  0  0
   48.4294   35.9666   42.6207 H   0  0  0  0  0  0  0  0  0  0  0  0
   49.6297   35.7010   40.4671 H   0  0  0  0  0  0  0  0  0  0  0  0
   43.8106   36.8419   44.7663 H   0  0  0  0  0  0  0  0  0  0  0  0
   45.0400   36.6902   42.5440 H   0  0  0  0  0  0  0  0  0  0  0  0
   45.6884   33.3410   46.1675 H   0  0  0  0  0  0  0  0  0  0  0  0
   46.7640   31.3987   40.1420 H   0  0  0  0  0  0  0  0  0  0  0  0
   45.9936   30.8444   38.6169 H   0  0  0  0  0  0  0  0  0  0  0  0
   47.7125   31.3659   38.6169 H   0  0  0  0  0  0  0  0  0  0  0  0
   44.5182   33.1521   39.9646 H   0  0  0  0  0  0  0  0  0  0  0  0
   44.4541   34.0604   38.4162 H   0  0  0  0  0  0  0  0  0  0  0  0
   44.2838   32.2723   38.4162 H   0  0  0  0  0  0  0  0  0  0  0  0
   47.5102   34.1177   37.3910 H   0  0  0  0  0  0  0  0  0  0  0  0
   47.0607   32.4797   36.8063 H   0  0  0  0  0  0  0  0  0  0  0  0
   45.8418   33.7991   36.8063 H   0  0  0  0  0  0  0  0  0  0  0  0
  1  9  1  0
  2  1  2  0
  3  2  1  0
  4  5  1  0
  4  3  2  0
  5  6  2  0
  6  1  1  0
  7 12  2  0
  8  7  1  0
  9  8  2  0
  9 10  1  0
 10 11  2  0
 11 12  1  0
 13 15  1  0
 13 14  1  0
 13  5  1  0
 16 13  1  0
  2 17  1  0
  3 18  1  0
  7 19  1  0
  8 20  1  0
 11 21  1  0
 14 22  1  0
 14 23  1  0
 14 24  1  0
 15 25  1  0
 15 26  1  0
 15 27  1  0
 16 28  1  0
 16 29  1  0
 16 30  1  0
M  ISO  8  17  14  18  14  19  14  20  14  21  14  22   8  23   8  24   8
M  ISO  6  25   8  26   8  27   8  28   8  29   8  30   8
M  END
>  <minimizedAffinity>  (1) 
-4.84996414

>  <minimizedRMSD>  (1) 
0.379740238

$$$$
