
     RDKit          3D

 21 22  0  0  0  0  0  0  0  0999 V2000
   46.8030   34.7100   42.0060 C   0  0  0  0  0  0  0  0  0  0  0  0
   48.0140   35.3290   41.8920 C   0  0  0  0  0  0  0  0  0  0  0  0
   48.6570   35.2050   40.6960 C   0  0  0  0  0  0  0  0  0  0  0  0
   48.1010   34.4950   39.6870 N   0  0  0  0  0  0  0  0  0  0  0  0
   46.9000   33.8920   39.8280 C   0  0  0  0  0  0  0  0  0  0  0  0
   46.2550   34.0100   41.0120 N   0  0  0  0  0  0  0  0  0  0  0  0
   44.5050   35.9330   44.7000 C   0  0  0  0  0  0  0  0  0  0  0  0
   45.1760   35.8810   43.4620 C   0  0  0  0  0  0  0  0  0  0  0  0
   46.0770   34.8170   43.2710 C   0  0  0  0  0  0  0  0  0  0  0  0
   46.2510   33.9170   44.2580 N   0  0  0  0  0  0  0  0  0  0  0  0
   45.5680   34.0200   45.4410 C   0  0  0  0  0  0  0  0  0  0  0  0
   44.7060   35.0200   45.6530 N   0  0  0  0  0  0  0  0  0  0  0  0
   46.3420   33.1380   38.7120 C   0  0  0  0  0  0  0  0  0  0  0  0
   45.9700   31.9670   38.9050 O   0  0  0  0  0  0  0  0  0  0  0  0
   46.2310   33.7250   37.4600 O   0  0  0  0  0  0  0  0  0  0  0  0
   48.4502   35.9003   42.7247 H   0  0  0  0  0  0  0  0  0  0  0  0
   49.6355   35.6859   40.5502 H   0  0  0  0  0  0  0  0  0  0  0  0
   43.7937   36.7510   44.8869 H   0  0  0  0  0  0  0  0  0  0  0  0
   45.0036   36.6367   42.6815 H   0  0  0  0  0  0  0  0  0  0  0  0
   45.7311   33.2691   46.2281 H   0  0  0  0  0  0  0  0  0  0  0  0
   46.5316   34.6582   37.3224 H   0  0  0  0  0  0  0  0  0  0  0  0
  1  9  1  0
  2  1  2  0
  3  2  1  0
  4  5  1  0
  4  3  2  0
  5  6  2  0
  6  1  1  0
  7 12  2  0
  8  7  1  0
  9  8  2  0
  9 10  1  0
 10 11  2  0
 11 12  1  0
 13 14  2  0
 13  5  1  0
 15 13  1  0
  2 16  1  0
  3 17  1  0
  7 18  1  0
  8 19  1  0
 11 20  1  0
 15 21  1  0
M  ISO  6  16  14  17  14  18  14  19  14  20  14  21   3
M  END
>  <minimizedAffinity>  (1) 
-4.84850454

>  <minimizedRMSD>  (1) 
0.274889946

$$$$
