
     RDKit          3D

 25 27  0  0  0  0  0  0  0  0999 V2000
   46.8010   34.7130   42.0100 C   0  0  0  0  0  0  0  0  0  0  0  0
   48.0260   35.3380   41.8980 C   0  0  0  0  0  0  0  0  0  0  0  0
   48.6490   35.2050   40.6910 C   0  0  0  0  0  0  0  0  0  0  0  0
   48.0960   34.5060   39.6830 N   0  0  0  0  0  0  0  0  0  0  0  0
   46.8930   33.9040   39.8230 C   0  0  0  0  0  0  0  0  0  0  0  0
   46.2760   34.0340   41.0110 N   0  0  0  0  0  0  0  0  0  0  0  0
   44.5060   35.9260   44.7100 C   0  0  0  0  0  0  0  0  0  0  0  0
   45.1830   35.8780   43.4570 C   0  0  0  0  0  0  0  0  0  0  0  0
   46.0780   34.8140   43.2750 C   0  0  0  0  0  0  0  0  0  0  0  0
   46.2570   33.9060   44.2640 N   0  0  0  0  0  0  0  0  0  0  0  0
   45.5770   34.0080   45.4430 C   0  0  0  0  0  0  0  0  0  0  0  0
   44.7160   35.0090   45.6520 N   0  0  0  0  0  0  0  0  0  0  0  0
   46.1930   33.1130   38.7810 C   0  0  0  0  0  0  0  0  0  0  0  0
   46.7280   33.2300   37.3900 C   0  0  0  0  0  0  0  0  0  0  0  0
   46.8870   31.9520   38.1410 C   0  0  0  0  0  0  0  0  0  0  0  0
   48.4715   35.9065   42.7276 H   0  0  0  0  0  0  0  0  0  0  0  0
   49.6286   35.6816   40.5383 H   0  0  0  0  0  0  0  0  0  0  0  0
   43.7925   36.7405   44.9036 H   0  0  0  0  0  0  0  0  0  0  0  0
   45.0129   36.6337   42.6759 H   0  0  0  0  0  0  0  0  0  0  0  0
   45.7394   33.2575   46.2307 H   0  0  0  0  0  0  0  0  0  0  0  0
   45.2182   33.2370   39.2753 H   0  0  0  0  0  0  0  0  0  0  0  0
   47.6053   33.8627   37.1900 H   0  0  0  0  0  0  0  0  0  0  0  0
   46.3027   33.5105   36.4151 H   0  0  0  0  0  0  0  0  0  0  0  0
   46.3111   31.0636   37.8426 H   0  0  0  0  0  0  0  0  0  0  0  0
   47.7382   31.3098   38.4112 H   0  0  0  0  0  0  0  0  0  0  0  0
  1  9  1  0
  2  1  2  0
  3  2  1  0
  4  5  1  0
  4  3  2  0
  5  6  2  0
  6  1  1  0
  7 12  2  0
  8  7  1  0
  9  8  2  0
  9 10  1  0
 10 11  2  0
 11 12  1  0
 13  5  1  0
 14 15  1  0
 14 13  1  0
 15 13  1  0
  2 16  1  0
  3 17  1  0
  7 18  1  0
  8 19  1  0
 11 20  1  0
 13 21  1  0
 14 22  1  0
 14 23  1  0
 15 24  1  0
 15 25  1  0
M  ISO  8  16  14  17  14  18  14  19  14  20  14  21  13  22  13  23  13
M  ISO  2  24  13  25  13
M  END
>  <minimizedAffinity>  (1) 
-4.71824217

>  <minimizedRMSD>  (1) 
0.268578142

$$$$
