
     RDKit          3D

 24 25  0  0  0  0  0  0  0  0999 V2000
   46.8140   34.7290   42.0180 C   0  0  0  0  0  0  0  0  0  0  0  0
   48.0180   35.3650   41.8900 C   0  0  0  0  0  0  0  0  0  0  0  0
   48.6800   35.2410   40.7120 C   0  0  0  0  0  0  0  0  0  0  0  0
   48.1560   34.5150   39.7190 N   0  0  0  0  0  0  0  0  0  0  0  0
   46.9620   33.8840   39.8450 C   0  0  0  0  0  0  0  0  0  0  0  0
   46.3170   34.0170   41.0180 N   0  0  0  0  0  0  0  0  0  0  0  0
   44.5040   35.9310   44.6990 C   0  0  0  0  0  0  0  0  0  0  0  0
   45.1850   35.8930   43.4480 C   0  0  0  0  0  0  0  0  0  0  0  0
   46.0750   34.8410   43.2690 C   0  0  0  0  0  0  0  0  0  0  0  0
   46.2490   33.9270   44.2620 N   0  0  0  0  0  0  0  0  0  0  0  0
   45.5690   34.0140   45.4380 C   0  0  0  0  0  0  0  0  0  0  0  0
   44.7090   35.0130   45.6390 N   0  0  0  0  0  0  0  0  0  0  0  0
   46.2990   33.0580   38.8020 C   0  0  0  0  0  0  0  0  0  0  0  0
   46.8200   33.3660   37.4310 C   0  0  0  0  0  0  0  0  0  0  0  0
   48.4366   35.9585   42.7161 H   0  0  0  0  0  0  0  0  0  0  0  0
   49.6508   35.7393   40.5736 H   0  0  0  0  0  0  0  0  0  0  0  0
   43.7880   36.7432   44.8928 H   0  0  0  0  0  0  0  0  0  0  0  0
   45.0161   36.6518   42.6697 H   0  0  0  0  0  0  0  0  0  0  0  0
   45.7290   33.2600   46.2227 H   0  0  0  0  0  0  0  0  0  0  0  0
   46.4806   31.9954   39.0211 H   0  0  0  0  0  0  0  0  0  0  0  0
   45.2234   33.2877   38.8177 H   0  0  0  0  0  0  0  0  0  0  0  0
   47.7642   33.9242   37.5144 H   0  0  0  0  0  0  0  0  0  0  0  0
   46.9962   32.4268   36.8861 H   0  0  0  0  0  0  0  0  0  0  0  0
   46.0821   33.9731   36.8861 H   0  0  0  0  0  0  0  0  0  0  0  0
  1  9  1  0
  2  1  2  0
  3  2  1  0
  4  5  1  0
  4  3  2  0
  5  6  2  0
  6  1  1  0
  7 12  2  0
  8  7  1  0
  9  8  2  0
  9 10  1  0
 10 11  2  0
 11 12  1  0
 13  5  1  0
 14 13  1  0
  2 15  1  0
  3 16  1  0
  7 17  1  0
  8 18  1  0
 11 19  1  0
 13 20  1  0
 13 21  1  0
 14 22  1  0
 14 23  1  0
 14 24  1  0
M  ISO  8  15  14  16  14  17  14  18  14  19  14  20   8  21   8  22   8
M  ISO  2  23   8  24   8
M  END
>  <minimizedAffinity>  (1) 
-4.6031208

>  <minimizedRMSD>  (1) 
0.0827363953

$$$$
