
     RDKit          3D

 19 20  0  0  0  0  0  0  0  0999 V2000
   46.7640   34.6950   42.0120 C   0  0  0  0  0  0  0  0  0  0  0  0
   47.9840   35.3330   41.8880 C   0  0  0  0  0  0  0  0  0  0  0  0
   48.6270   35.1960   40.6970 C   0  0  0  0  0  0  0  0  0  0  0  0
   48.0950   34.4750   39.7020 N   0  0  0  0  0  0  0  0  0  0  0  0
   46.8860   33.8480   39.8400 C   0  0  0  0  0  0  0  0  0  0  0  0
   46.2560   33.9890   41.0230 N   0  0  0  0  0  0  0  0  0  0  0  0
   44.5010   35.9510   44.7040 C   0  0  0  0  0  0  0  0  0  0  0  0
   45.1690   35.8800   43.4620 C   0  0  0  0  0  0  0  0  0  0  0  0
   46.0490   34.8190   43.2680 C   0  0  0  0  0  0  0  0  0  0  0  0
   46.2240   33.9120   44.2690 N   0  0  0  0  0  0  0  0  0  0  0  0
   45.5500   34.0300   45.4530 C   0  0  0  0  0  0  0  0  0  0  0  0
   44.7030   35.0390   45.6570 N   0  0  0  0  0  0  0  0  0  0  0  0
   46.3220   33.0950   38.8140 O   0  0  0  0  0  0  0  0  0  0  0  0
   48.4136   35.9223   42.7115 H   0  0  0  0  0  0  0  0  0  0  0  0
   49.6007   35.6859   40.5488 H   0  0  0  0  0  0  0  0  0  0  0  0
   43.7983   36.7766   44.8902 H   0  0  0  0  0  0  0  0  0  0  0  0
   45.0006   36.6335   42.6785 H   0  0  0  0  0  0  0  0  0  0  0  0
   45.7085   33.2841   46.2458 H   0  0  0  0  0  0  0  0  0  0  0  0
   45.4455   32.6545   38.9475 H   0  0  0  0  0  0  0  0  0  0  0  0
  1  9  1  0
  2  1  2  0
  3  2  1  0
  4  5  1  0
  4  3  2  0
  5  6  2  0
  6  1  1  0
  7 12  2  0
  8  7  1  0
  9  8  2  0
  9 10  1  0
 10 11  2  0
 11 12  1  0
 13  5  1  0
  2 14  1  0
  3 15  1  0
  7 16  1  0
  8 17  1  0
 11 18  1  0
 13 19  1  0
M  ISO  6  14  14  15  14  16  14  17  14  18  14  19   3
M  END
>  <minimizedAffinity>  (1) 
-4.58051348

>  <minimizedRMSD>  (1) 
0.0197067596

$$$$
