
     RDKit          3D

 19 20  0  0  0  0  0  0  0  0999 V2000
   46.7530   34.6880   42.0050 C   0  0  0  0  0  0  0  0  0  0  0  0
   47.9790   35.3260   41.8950 C   0  0  0  0  0  0  0  0  0  0  0  0
   48.6110   35.1700   40.6930 C   0  0  0  0  0  0  0  0  0  0  0  0
   48.0650   34.4440   39.7040 N   0  0  0  0  0  0  0  0  0  0  0  0
   46.8660   33.8360   39.8480 C   0  0  0  0  0  0  0  0  0  0  0  0
   46.2220   33.9800   41.0350 N   0  0  0  0  0  0  0  0  0  0  0  0
   44.5000   35.9570   44.7160 C   0  0  0  0  0  0  0  0  0  0  0  0
   45.1630   35.8890   43.4630 C   0  0  0  0  0  0  0  0  0  0  0  0
   46.0370   34.8240   43.2690 C   0  0  0  0  0  0  0  0  0  0  0  0
   46.2090   33.9180   44.2760 N   0  0  0  0  0  0  0  0  0  0  0  0
   45.5500   34.0240   45.4650 C   0  0  0  0  0  0  0  0  0  0  0  0
   44.6980   35.0480   45.6700 N   0  0  0  0  0  0  0  0  0  0  0  0
   46.0520   32.8510   38.6000 S   0  0  0  0  0  0  0  0  0  0  0  0
   48.4122   35.9156   42.7164 H   0  0  0  0  0  0  0  0  0  0  0  0
   49.5879   35.6495   40.5324 H   0  0  0  0  0  0  0  0  0  0  0  0
   43.8014   36.7853   44.9054 H   0  0  0  0  0  0  0  0  0  0  0  0
   44.9936   36.6438   42.6810 H   0  0  0  0  0  0  0  0  0  0  0  0
   45.7133   33.2758   46.2547 H   0  0  0  0  0  0  0  0  0  0  0  0
   45.2690   31.9035   39.2050 H   0  0  0  0  0  0  0  0  0  0  0  0
  1  9  1  0
  2  1  2  0
  3  2  1  0
  4  5  1  0
  4  3  2  0
  5  6  2  0
  6  1  1  0
  7 12  2  0
  8  7  1  0
  9  8  2  0
  9 10  1  0
 10 11  2  0
 11 12  1  0
 13  5  1  0
  2 14  1  0
  3 15  1  0
  7 16  1  0
  8 17  1  0
 11 18  1  0
 13 19  1  0
M  ISO  6  14  14  15  14  16  14  17  14  18  14  19  11
M  END
>  <minimizedAffinity>  (1) 
-4.57673168

>  <minimizedRMSD>  (1) 
0.0178305805

$$$$
