
     RDKit          3D

 45 48  0  0  1  0  0  0  0  0999 V2000
   48.1020   34.4500   40.9840 C   0  0  2  0  0  0  0  0  0  0  0  0
   48.6810   35.6690   41.3780 C   0  0  0  0  0  0  0  0  0  0  0  0
   49.9040   35.3380   42.2620 C   0  0  0  0  0  0  0  0  0  0  0  0
   50.0280   33.8230   42.3260 C   0  0  0  0  0  0  0  0  0  0  0  0
   48.6660   33.4070   42.0150 C   0  0  1  0  0  0  0  0  0  0  0  0
   48.3780   33.8160   39.6640 C   0  0  0  0  0  0  0  0  0  0  0  0
   48.3880   34.6350   38.5610 C   0  0  0  0  0  0  0  0  0  0  0  0
   48.6410   34.1180   37.3080 C   0  0  0  0  0  0  0  0  0  0  0  0
   48.8740   32.7560   37.2580 N   0  0  0  0  0  0  0  0  0  0  0  0
   48.8550   31.9940   38.3510 C   0  0  0  0  0  0  0  0  0  0  0  0
   48.6100   32.4940   39.5700 N   0  0  0  0  0  0  0  0  0  0  0  0
   47.8140   33.3970   43.2510 C   0  0  0  0  0  0  0  0  0  0  0  0
   46.3660   33.4840   42.9270 C   0  0  0  0  0  0  0  0  0  0  0  0
   45.6930   34.1290   44.0910 C   0  0  0  0  0  0  0  0  0  0  0  0
   45.1520   35.3730   44.1950 C   0  0  0  0  0  0  0  0  0  0  0  0
   44.6340   35.5110   45.4370 N   0  0  0  0  0  0  0  0  0  0  0  0
   44.8560   34.3620   46.0880 C   0  0  0  0  0  0  0  0  0  0  0  0
   45.4950   33.5150   45.2900 N   0  0  0  0  0  0  0  0  0  0  0  0
   45.9110   32.1750   45.6580 C   0  0  0  0  0  0  0  0  0  0  0  0
   46.2700   32.0070   47.0300 N   0  0  0  0  0  0  0  0  0  0  0  0
   47.2720   32.2400   47.8570 C   0  0  0  0  0  0  0  0  0  0  0  0
   47.0160   31.8710   49.1190 N   0  0  0  0  0  0  0  0  0  0  0  0
   45.7780   31.3760   49.0840 C   0  0  0  0  0  0  0  0  0  0  0  0
   45.3420   31.4600   47.8380 N   0  0  0  0  0  0  0  0  0  0  0  0
   47.0320   34.6987   40.9274 H   0  0  0  0  0  0  0  0  0  0  0  0
   49.0008   36.2367   40.4917 H   0  0  0  0  0  0  0  0  0  0  0  0
   47.9553   36.2808   41.9340 H   0  0  0  0  0  0  0  0  0  0  0  0
   50.8140   35.7706   41.8207 H   0  0  0  0  0  0  0  0  0  0  0  0
   49.7771   35.7584   43.2705 H   0  0  0  0  0  0  0  0  0  0  0  0
   50.7435   33.4464   41.5801 H   0  0  0  0  0  0  0  0  0  0  0  0
   50.4044   33.4439   43.2875 H   0  0  0  0  0  0  0  0  0  0  0  0
   48.6575   32.3870   41.6032 H   0  0  0  0  0  0  0  0  0  0  0  0
   48.1927   35.7112   38.6783 H   0  0  0  0  0  0  0  0  0  0  0  0
   48.6565   34.7483   36.4066 H   0  0  0  0  0  0  0  0  0  0  0  0
   49.0473   30.9158   38.2490 H   0  0  0  0  0  0  0  0  0  0  0  0
   47.9994   32.4638   43.8031 H   0  0  0  0  0  0  0  0  0  0  0  0
   48.0812   34.2758   43.8563 H   0  0  0  0  0  0  0  0  0  0  0  0
   46.2179   34.0912   42.0218 H   0  0  0  0  0  0  0  0  0  0  0  0
   45.9470   32.4847   42.7375 H   0  0  0  0  0  0  0  0  0  0  0  0
   45.1382   36.1368   43.4036 H   0  0  0  0  0  0  0  0  0  0  0  0
   44.5550   34.1521   47.1250 H   0  0  0  0  0  0  0  0  0  0  0  0
   45.0812   31.4877   45.4364 H   0  0  0  0  0  0  0  0  0  0  0  0
   46.8206   31.9661   45.0758 H   0  0  0  0  0  0  0  0  0  0  0  0
   48.2235   32.6926   47.5410 H   0  0  0  0  0  0  0  0  0  0  0  0
   45.2187   30.9699   49.9397 H   0  0  0  0  0  0  0  0  0  0  0  0
  1  2  1  0
  1  5  1  0
  2  3  1  0
  3  4  1  0
  5  4  1  0
  5 12  1  0
  6  1  1  0
  7  6  2  0
  8  7  1  0
  9  8  2  0
  9 10  1  0
 10 11  2  0
 11  6  1  0
 13 12  1  0
 13 14  1  0
 14 15  2  0
 14 18  1  0
 15 16  1  0
 16 17  2  0
 18 19  1  0
 18 17  1  0
 19 20  1  0
 20 24  1  0
 20 21  1  0
 21 22  2  0
 23 22  1  0
 24 23  2  0
  1 25  1  1
  2 26  1  0
  2 27  1  0
  3 28  1  0
  3 29  1  0
  4 30  1  0
  4 31  1  0
  5 32  1  6
  7 33  1  0
  8 34  1  0
 10 35  1  0
 12 36  1  0
 12 37  1  0
 13 38  1  0
 13 39  1  0
 15 40  1  0
 17 41  1  0
 19 42  1  0
 19 43  1  0
 21 44  1  0
 23 45  1  0
M  ISO  8  25  13  26  13  27  13  28  13  29  13  30  13  31  13  32  13
M  ISO  8  33  14  34  14  35  14  36   8  37   8  38   8  39   8  40  14
M  ISO  5  41  14  42   8  43   8  44  14  45  14
M  END
>  <minimizedAffinity>  (1) 
-5.77239609

>  <minimizedRMSD>  (1) 
1.31406307

$$$$
