
     RDKit          3D

 41 44  0  0  0  0  0  0  0  0999 V2000
   47.0680   34.8160   41.9000 C   0  0  0  0  0  0  0  0  0  0  0  0
   48.2620   35.5120   41.8670 C   0  0  0  0  0  0  0  0  0  0  0  0
   48.9640   35.4800   40.7000 C   0  0  0  0  0  0  0  0  0  0  0  0
   48.5020   34.7970   39.6420 N   0  0  0  0  0  0  0  0  0  0  0  0
   47.3260   34.1170   39.6910 C   0  0  0  0  0  0  0  0  0  0  0  0
   46.6190   34.1460   40.8550 N   0  0  0  0  0  0  0  0  0  0  0  0
   46.9040   33.4200   38.5340 N   0  0  0  0  0  0  0  0  0  0  0  0
   46.0450   32.3890   38.7730 C   0  0  0  0  0  0  0  0  0  0  0  0
   45.5510   31.6180   37.7240 C   0  0  0  0  0  0  0  0  0  0  0  0
   45.9930   31.9820   36.4690 C   0  0  0  0  0  0  0  0  0  0  0  0
   45.5360   31.2720   35.5150 O   0  0  0  0  0  0  0  0  0  0  0  0
   46.8390   32.9980   36.2200 N   0  0  0  0  0  0  0  0  0  0  0  0
   47.2860   33.7100   37.2810 C   0  0  0  0  0  0  0  0  0  0  0  0
   48.0750   34.6650   37.1020 O   0  0  0  0  0  0  0  0  0  0  0  0
   44.5790   35.7840   44.5110 C   0  0  0  0  0  0  0  0  0  0  0  0
   45.3090   35.8010   43.3030 C   0  0  0  0  0  0  0  0  0  0  0  0
   46.3020   34.8300   43.1190 C   0  0  0  0  0  0  0  0  0  0  0  0
   46.5180   33.9200   44.1080 N   0  0  0  0  0  0  0  0  0  0  0  0
   45.7720   33.9580   45.2620 C   0  0  0  0  0  0  0  0  0  0  0  0
   44.8180   34.8770   45.4580 N   0  0  0  0  0  0  0  0  0  0  0  0
   45.9770   33.0200   46.3140 N   0  0  0  0  0  0  0  0  0  0  0  0
   46.8180   31.9990   46.3770 C   0  0  0  0  0  0  0  0  0  0  0  0
   46.8730   31.1890   47.4920 C   0  0  0  0  0  0  0  0  0  0  0  0
   47.8190   30.0590   47.5380 C   0  0  0  0  0  0  0  0  0  0  0  0
   46.0170   31.4920   48.5300 C   0  0  0  0  0  0  0  0  0  0  0  0
   46.0500   30.7680   49.5610 O   0  0  0  0  0  0  0  0  0  0  0  0
   45.1500   32.5300   48.4880 N   0  0  0  0  0  0  0  0  0  0  0  0
   45.1490   33.2820   47.3620 C   0  0  0  0  0  0  0  0  0  0  0  0
   44.2990   34.2310   47.4240 O   0  0  0  0  0  0  0  0  0  0  0  0
   48.6286   36.0665   42.7434 H   0  0  0  0  0  0  0  0  0  0  0  0
   49.9195   36.0198   40.6245 H   0  0  0  0  0  0  0  0  0  0  0  0
   45.7389   32.1637   39.8052 H   0  0  0  0  0  0  0  0  0  0  0  0
   44.8581   30.7789   37.8845 H   0  0  0  0  0  0  0  0  0  0  0  0
   47.1349   33.2251   35.2599 H   0  0  0  0  0  0  0  0  0  0  0  0
   43.7942   36.5372   44.6747 H   0  0  0  0  0  0  0  0  0  0  0  0
   45.1041   36.5548   42.5285 H   0  0  0  0  0  0  0  0  0  0  0  0
   47.4838   31.7935   45.5259 H   0  0  0  0  0  0  0  0  0  0  0  0
   48.0335   29.8028   48.5860 H   0  0  0  0  0  0  0  0  0  0  0  0
   47.3760   29.1890   47.0311 H   0  0  0  0  0  0  0  0  0  0  0  0
   48.7533   30.3421   47.0311 H   0  0  0  0  0  0  0  0  0  0  0  0
   44.5201   32.7384   49.2759 H   0  0  0  0  0  0  0  0  0  0  0  0
  1 17  1  0
  2  1  2  0
  3  2  1  0
  4  5  1  0
  4  3  2  0
  5  6  2  0
  6  1  1  0
  7  8  1  0
  7  5  1  0
  9  8  2  0
 10  9  1  0
 11 10  2  0
 12 10  1  0
 12 13  1  0
 13  7  1  0
 14 13  2  0
 15 20  2  0
 16 15  1  0
 17 16  2  0
 17 18  1  0
 18 19  2  0
 19 20  1  0
 19 21  1  0
 21 22  1  0
 21 28  1  0
 22 23  2  0
 23 24  1  0
 23 25  1  0
 25 26  2  0
 27 25  1  0
 28 29  2  0
 28 27  1  0
  2 30  1  0
  3 31  1  0
  8 32  1  0
  9 33  1  0
 12 34  1  0
 15 35  1  0
 16 36  1  0
 22 37  1  0
 24 38  1  0
 24 39  1  0
 24 40  1  0
 27 41  1  0
M  ISO  8  30  14  31  14  32  14  33  14  34   9  35  14  36  14  37  14
M  ISO  4  38   8  39   8  40   8  41   9
M  END
>  <minimizedAffinity>  (1) 
-8.48946667

>  <minimizedRMSD>  (1) 
0.171853438

$$$$
