
     RDKit          3D

 35 37  0  0  0  0  0  0  0  0999 V2000
   47.0160   34.8340   41.8980 C   0  0  0  0  0  0  0  0  0  0  0  0
   48.2320   35.4960   41.9060 C   0  0  0  0  0  0  0  0  0  0  0  0
   48.9580   35.4390   40.7670 C   0  0  0  0  0  0  0  0  0  0  0  0
   48.5050   34.7700   39.6940 N   0  0  0  0  0  0  0  0  0  0  0  0
   47.3210   34.1330   39.7050 C   0  0  0  0  0  0  0  0  0  0  0  0
   46.5860   34.1830   40.8400 N   0  0  0  0  0  0  0  0  0  0  0  0
   46.8960   33.4400   38.5290 N   0  0  0  0  0  0  0  0  0  0  0  0
   45.9990   32.4390   38.7470 C   0  0  0  0  0  0  0  0  0  0  0  0
   45.5140   31.6930   37.6690 C   0  0  0  0  0  0  0  0  0  0  0  0
   46.0050   32.0470   36.4400 C   0  0  0  0  0  0  0  0  0  0  0  0
   45.5330   31.3370   35.4870 O   0  0  0  0  0  0  0  0  0  0  0  0
   46.8860   33.0290   36.2270 N   0  0  0  0  0  0  0  0  0  0  0  0
   47.3230   33.7180   37.2920 C   0  0  0  0  0  0  0  0  0  0  0  0
   48.1540   34.6520   37.1410 O   0  0  0  0  0  0  0  0  0  0  0  0
   44.5260   35.8930   44.4830 C   0  0  0  0  0  0  0  0  0  0  0  0
   45.2870   35.9000   43.2880 C   0  0  0  0  0  0  0  0  0  0  0  0
   46.2140   34.8740   43.0980 C   0  0  0  0  0  0  0  0  0  0  0  0
   46.3320   33.9300   44.0740 N   0  0  0  0  0  0  0  0  0  0  0  0
   45.5810   33.9650   45.2030 C   0  0  0  0  0  0  0  0  0  0  0  0
   44.6790   34.9480   45.4040 N   0  0  0  0  0  0  0  0  0  0  0  0
   45.7450   32.9550   46.1840 N   0  0  0  0  0  0  0  0  0  0  0  0
   44.9710   32.9690   47.3740 C   0  0  0  0  0  0  0  0  0  0  0  0
   44.5630   34.1140   47.8520 N   0  0  0  0  0  0  0  0  0  0  0  0
   44.6280   31.7670   48.0620 N   0  0  0  0  0  0  0  0  0  0  0  0
   43.9920   34.1710   48.7240 H   0  0  0  0  0  0  0  0  0  0  0  0
   48.5888   36.0400   42.7930 H   0  0  0  0  0  0  0  0  0  0  0  0
   49.9324   35.9471   40.7183 H   0  0  0  0  0  0  0  0  0  0  0  0
   45.6569   32.2180   39.7688 H   0  0  0  0  0  0  0  0  0  0  0  0
   44.7876   30.8772   37.7986 H   0  0  0  0  0  0  0  0  0  0  0  0
   47.2183   33.2494   35.2773 H   0  0  0  0  0  0  0  0  0  0  0  0
   43.7887   36.6915   44.6527 H   0  0  0  0  0  0  0  0  0  0  0  0
   45.1516   36.6891   42.5337 H   0  0  0  0  0  0  0  0  0  0  0  0
   46.4326   32.2034   46.0319 H   0  0  0  0  0  0  0  0  0  0  0  0
   44.0649   31.8094   48.9234 H   0  0  0  0  0  0  0  0  0  0  0  0
   44.9435   30.8569   47.6972 H   0  0  0  0  0  0  0  0  0  0  0  0
  1  2  2  0
  1 17  1  0
  3  2  1  0
  4  5  1  0
  4  3  2  0
  5  6  2  0
  6  1  1  0
  7  8  1  0
  7  5  1  0
  9  8  2  0
 10  9  1  0
 11 10  2  0
 12 10  1  0
 12 13  1  0
 13  7  1  0
 14 13  2  0
 15 20  2  0
 16 15  1  0
 17 16  2  0
 17 18  1  0
 18 19  2  0
 19 20  1  0
 19 21  1  0
 21 22  1  0
 22 23  2  0
 22 24  1  0
 23 25  1  0
  2 26  1  0
  3 27  1  0
  8 28  1  0
  9 29  1  0
 12 30  1  0
 15 31  1  0
 16 32  1  0
 21 33  1  0
 24 34  1  0
 24 35  1  0
M  ISO  7  26  14  27  14  28  14  29  14  30   9  31  14  32  14
M  END
>  <minimizedAffinity>  (1) 
-7.9200902

>  <minimizedRMSD>  (1) 
0.110605054

$$$$
