
     RDKit          3D

 24 26  0  0  0  0  0  0  0  0999 V2000
   44.7350   35.2540   45.5500 C   0  0  0  0  0  0  0  0  0  0  0  0
   44.2810   35.7080   44.2880 C   0  0  0  0  0  0  0  0  0  0  0  0
   44.6300   34.9330   43.1510 C   0  0  0  0  0  0  0  0  0  0  0  0
   45.3750   33.8020   43.3170 N   0  0  0  0  0  0  0  0  0  0  0  0
   45.7940   33.3980   44.5690 C   0  0  0  0  0  0  0  0  0  0  0  0
   45.4620   34.1280   45.6070 N   0  0  0  0  0  0  0  0  0  0  0  0
   46.5870   32.2360   44.7200 N   0  0  0  0  0  0  0  0  0  0  0  0
   47.4140   31.9220   43.6680 C   0  0  0  0  0  0  0  0  0  0  0  0
   48.0870   30.7700   44.1240 C   0  0  0  0  0  0  0  0  0  0  0  0
   47.6720   30.4390   45.3630 N   0  0  0  0  0  0  0  0  0  0  0  0
   46.7390   31.3430   45.7440 C   0  0  0  0  0  0  0  0  0  0  0  0
   46.0550   31.2890   47.0010 C   0  0  0  0  0  0  0  0  0  0  0  0
   45.1360   30.5530   47.6770 C   0  0  0  0  0  0  0  0  0  0  0  0
   44.9030   30.9860   48.9290 N   0  0  0  0  0  0  0  0  0  0  0  0
   45.7080   32.0670   49.0990 C   0  0  0  0  0  0  0  0  0  0  0  0
   46.3690   32.2140   47.9470 N   0  0  0  0  0  0  0  0  0  0  0  0
   44.4961   35.8139   46.4662 H   0  0  0  0  0  0  0  0  0  0  0  0
   43.6814   36.6252   44.1924 H   0  0  0  0  0  0  0  0  0  0  0  0
   44.3033   35.2410   42.1468 H   0  0  0  0  0  0  0  0  0  0  0  0
   47.5240   32.4425   42.7052 H   0  0  0  0  0  0  0  0  0  0  0  0
   48.8451   30.2182   43.5488 H   0  0  0  0  0  0  0  0  0  0  0  0
   44.6276   29.6809   47.2401 H   0  0  0  0  0  0  0  0  0  0  0  0
   45.7973   32.6925   49.9995 H   0  0  0  0  0  0  0  0  0  0  0  0
   47.0574   32.9637   47.7891 H   0  0  0  0  0  0  0  0  0  0  0  0
  1  6  2  0
  2  1  1  0
  3  4  1  0
  3  2  2  0
  4  5  2  0
  5  7  1  0
  5  6  1  0
  7 11  1  0
  8  9  2  0
  8  7  1  0
  9 10  1  0
 10 11  2  0
 11 12  1  0
 12 13  2  0
 12 16  1  0
 13 14  1  0
 14 15  2  0
 16 15  1  0
  1 17  1  0
  2 18  1  0
  3 19  1  0
  8 20  1  0
  9 21  1  0
 13 22  1  0
 15 23  1  0
 16 24  1  0
M  ISO  8  17  14  18  14  19  14  20  14  21  14  22  14  23  14  24   9
M  END
>  <minimizedAffinity>  (1) 
-4.47662926

>  <minimizedRMSD>  (1) 
2.95905972

$$$$
