
     RDKit          3D

 35 38  0  0  0  0  0  0  0  0999 V2000
   47.0160   34.8040   42.0300 C   0  0  0  0  0  0  0  0  0  0  0  0
   48.2160   35.4860   42.0110 C   0  0  0  0  0  0  0  0  0  0  0  0
   48.9160   35.4450   40.8480 C   0  0  0  0  0  0  0  0  0  0  0  0
   48.4530   34.7730   39.7830 N   0  0  0  0  0  0  0  0  0  0  0  0
   47.2640   34.1060   39.8250 C   0  0  0  0  0  0  0  0  0  0  0  0
   46.5760   34.1520   40.9820 N   0  0  0  0  0  0  0  0  0  0  0  0
   46.8500   33.4230   38.6580 N   0  0  0  0  0  0  0  0  0  0  0  0
   45.9670   32.4020   38.9090 C   0  0  0  0  0  0  0  0  0  0  0  0
   45.4740   31.6390   37.8370 C   0  0  0  0  0  0  0  0  0  0  0  0
   45.9320   31.9940   36.5940 C   0  0  0  0  0  0  0  0  0  0  0  0
   45.4670   31.2850   35.6440 O   0  0  0  0  0  0  0  0  0  0  0  0
   46.8010   32.9990   36.3450 N   0  0  0  0  0  0  0  0  0  0  0  0
   47.2460   33.7020   37.4110 C   0  0  0  0  0  0  0  0  0  0  0  0
   48.0460   34.6400   37.2520 O   0  0  0  0  0  0  0  0  0  0  0  0
   44.5490   35.7640   44.6760 C   0  0  0  0  0  0  0  0  0  0  0  0
   45.2760   35.8010   43.4570 C   0  0  0  0  0  0  0  0  0  0  0  0
   46.2370   34.8230   43.2550 C   0  0  0  0  0  0  0  0  0  0  0  0
   46.4380   33.8810   44.2250 N   0  0  0  0  0  0  0  0  0  0  0  0
   45.7030   33.8980   45.3810 C   0  0  0  0  0  0  0  0  0  0  0  0
   44.7730   34.8280   45.6010 N   0  0  0  0  0  0  0  0  0  0  0  0
   46.0000   32.8500   46.3440 C   0  0  0  0  0  0  0  0  0  0  0  0
   45.3230   32.9090   47.5030 C   0  0  0  0  0  0  0  0  0  0  0  0
   45.3810   32.0830   48.5860 C   0  0  0  0  0  0  0  0  0  0  0  0
   46.4060   31.0200   48.2310 C   0  0  0  0  0  0  0  0  0  0  0  0
   47.0280   31.4480   46.4710 S   0  0  0  0  0  0  0  0  0  0  0  0
   48.5854   36.0333   42.8907 H   0  0  0  0  0  0  0  0  0  0  0  0
   49.8791   35.9718   40.7779 H   0  0  0  0  0  0  0  0  0  0  0  0
   45.6487   32.1835   39.9390 H   0  0  0  0  0  0  0  0  0  0  0  0
   44.7662   30.8102   37.9853 H   0  0  0  0  0  0  0  0  0  0  0  0
   47.1100   33.2192   35.3874 H   0  0  0  0  0  0  0  0  0  0  0  0
   43.7799   36.5278   44.8634 H   0  0  0  0  0  0  0  0  0  0  0  0
   45.0837   36.5768   42.7012 H   0  0  0  0  0  0  0  0  0  0  0  0
   44.6173   33.7482   47.5911 H   0  0  0  0  0  0  0  0  0  0  0  0
   44.8065   32.1684   49.5201 H   0  0  0  0  0  0  0  0  0  0  0  0
   46.7264   30.1750   48.8581 H   0  0  0  0  0  0  0  0  0  0  0  0
  1 17  1  0
  2  1  2  0
  3  2  1  0
  4  5  1  0
  4  3  2  0
  5  6  2  0
  6  1  1  0
  7  8  1  0
  7  5  1  0
  9  8  2  0
 10  9  1  0
 11 10  2  0
 12 10  1  0
 12 13  1  0
 13  7  1  0
 14 13  2  0
 15 20  2  0
 16 15  1  0
 17 16  2  0
 17 18  1  0
 18 19  2  0
 19 20  1  0
 19 21  1  0
 21 25  1  0
 21 22  2  0
 22 23  1  0
 24 23  2  0
 25 24  1  0
  2 26  1  0
  3 27  1  0
  8 28  1  0
  9 29  1  0
 12 30  1  0
 15 31  1  0
 16 32  1  0
 22 33  1  0
 23 34  1  0
 24 35  1  0
M  ISO  8  26  14  27  14  28  14  29  14  30   9  31  14  32  14  33  14
M  ISO  2  34  14  35  14
M  END
>  <minimizedAffinity>  (1) 
-7.20773125

>  <minimizedRMSD>  (1) 
0.383724153

$$$$
