
     RDKit          3D

 41 44  0  0  0  0  0  0  0  0999 V2000
   47.2140   34.6210   42.0260 C   0  0  0  0  0  0  0  0  0  0  0  0
   48.3080   35.4730   41.9770 C   0  0  0  0  0  0  0  0  0  0  0  0
   48.9470   35.5720   40.7800 C   0  0  0  0  0  0  0  0  0  0  0  0
   48.5210   34.8740   39.7180 N   0  0  0  0  0  0  0  0  0  0  0  0
   47.4520   34.0520   39.7940 C   0  0  0  0  0  0  0  0  0  0  0  0
   46.8020   33.9400   40.9800 N   0  0  0  0  0  0  0  0  0  0  0  0
   47.0610   33.3420   38.6150 N   0  0  0  0  0  0  0  0  0  0  0  0
   46.3510   32.2090   38.8580 C   0  0  0  0  0  0  0  0  0  0  0  0
   45.9050   31.4170   37.7970 C   0  0  0  0  0  0  0  0  0  0  0  0
   46.2380   31.8730   36.5400 C   0  0  0  0  0  0  0  0  0  0  0  0
   45.8260   31.1440   35.5910 O   0  0  0  0  0  0  0  0  0  0  0  0
   46.9440   32.9990   36.2910 N   0  0  0  0  0  0  0  0  0  0  0  0
   47.3500   33.7260   37.3570 C   0  0  0  0  0  0  0  0  0  0  0  0
   48.0050   34.7750   37.2020 O   0  0  0  0  0  0  0  0  0  0  0  0
   44.8110   35.1880   44.8350 C   0  0  0  0  0  0  0  0  0  0  0  0
   45.4680   35.3490   43.5910 C   0  0  0  0  0  0  0  0  0  0  0  0
   46.5150   34.4940   43.2840 C   0  0  0  0  0  0  0  0  0  0  0  0
   46.8410   33.5550   44.2020 N   0  0  0  0  0  0  0  0  0  0  0  0
   46.1960   33.4200   45.3890 C   0  0  0  0  0  0  0  0  0  0  0  0
   45.1760   34.2450   45.7010 N   0  0  0  0  0  0  0  0  0  0  0  0
   46.7700   32.2990   46.2030 C   0  0  0  0  0  0  0  0  0  0  0  0
   45.8870   31.0970   46.2670 C   0  0  0  0  0  0  0  0  0  0  0  0
   45.4290   30.9200   47.6960 C   0  0  0  0  0  0  0  0  0  0  0  0
   45.7700   32.2060   48.4040 C   0  0  0  0  0  0  0  0  0  0  0  0
   46.9730   32.7260   47.6420 C   0  0  0  0  0  0  0  0  0  0  0  0
   48.6412   36.0387   42.8596 H   0  0  0  0  0  0  0  0  0  0  0  0
   49.8220   36.2315   40.6828 H   0  0  0  0  0  0  0  0  0  0  0  0
   46.1266   31.9144   39.8938 H   0  0  0  0  0  0  0  0  0  0  0  0
   45.3282   30.4937   37.9541 H   0  0  0  0  0  0  0  0  0  0  0  0
   47.1638   33.2914   35.3282 H   0  0  0  0  0  0  0  0  0  0  0  0
   43.9781   35.8589   45.0923 H   0  0  0  0  0  0  0  0  0  0  0  0
   45.1553   36.1331   42.8857 H   0  0  0  0  0  0  0  0  0  0  0  0
   47.7139   32.0471   45.6974 H   0  0  0  0  0  0  0  0  0  0  0  0
   45.0150   31.2408   45.6121 H   0  0  0  0  0  0  0  0  0  0  0  0
   46.4365   30.2049   45.9320 H   0  0  0  0  0  0  0  0  0  0  0  0
   44.3442   30.7409   47.7302 H   0  0  0  0  0  0  0  0  0  0  0  0
   45.9173   30.0566   48.1715 H   0  0  0  0  0  0  0  0  0  0  0  0
   44.9332   32.9179   48.3495 H   0  0  0  0  0  0  0  0  0  0  0  0
   45.9729   32.0625   49.4756 H   0  0  0  0  0  0  0  0  0  0  0  0
   47.8987   32.2884   48.0439 H   0  0  0  0  0  0  0  0  0  0  0  0
   47.0649   33.8186   47.7297 H   0  0  0  0  0  0  0  0  0  0  0  0
  1 17  1  0
  2  1  2  0
  3  2  1  0
  4  5  1  0
  4  3  2  0
  5  6  2  0
  6  1  1  0
  7  8  1  0
  7  5  1  0
  9  8  2  0
 10  9  1  0
 11 10  2  0
 12 10  1  0
 12 13  1  0
 13  7  1  0
 14 13  2  0
 15 20  2  0
 16 15  1  0
 17 16  2  0
 17 18  1  0
 18 19  2  0
 19 20  1  0
 19 21  1  0
 21 22  1  0
 21 25  1  0
 22 23  1  0
 23 24  1  0
 25 24  1  0
  2 26  1  0
  3 27  1  0
  8 28  1  0
  9 29  1  0
 12 30  1  0
 15 31  1  0
 16 32  1  0
 21 33  1  0
 22 34  1  0
 22 35  1  0
 23 36  1  0
 23 37  1  0
 24 38  1  0
 24 39  1  0
 25 40  1  0
 25 41  1  0
M  ISO  8  26  14  27  14  28  14  29  14  30   9  31  14  32  14  33  13
M  ISO  8  34  13  35  13  36  13  37  13  38  13  39  13  40  13  41  13
M  END
>  <minimizedAffinity>  (1) 
-6.88252783

>  <minimizedRMSD>  (1) 
0.643096924

$$$$
