
     RDKit          3D

 47 50  0  0  1  0  0  0  0  0999 V2000
   48.2430   33.0070   43.4820 C   0  0  0  0  0  0  0  0  0  0  0  0
   47.9840   34.1740   41.2810 C   0  0  2  0  0  0  0  0  0  0  0  0
   48.4360   35.4480   41.6690 C   0  0  0  0  0  0  0  0  0  0  0  0
   49.8370   35.2670   42.3140 C   0  0  0  0  0  0  0  0  0  0  0  0
   50.1830   33.7930   42.2440 C   0  0  0  0  0  0  0  0  0  0  0  0
   48.8670   33.1780   42.1300 C   0  0  1  0  0  0  0  0  0  0  0  0
   48.1160   33.6610   39.8880 C   0  0  0  0  0  0  0  0  0  0  0  0
   48.2900   34.5870   38.8920 C   0  0  0  0  0  0  0  0  0  0  0  0
   48.4240   34.1780   37.5790 C   0  0  0  0  0  0  0  0  0  0  0  0
   48.3710   32.8220   37.3610 N   0  0  0  0  0  0  0  0  0  0  0  0
   48.2010   31.9570   38.3560 C   0  0  0  0  0  0  0  0  0  0  0  0
   48.0700   32.3470   39.6320 N   0  0  0  0  0  0  0  0  0  0  0  0
   46.8380   32.4750   43.3670 C   0  0  0  0  0  0  0  0  0  0  0  0
   45.9770   33.4120   44.1430 C   0  0  0  0  0  0  0  0  0  0  0  0
   44.9800   34.2270   43.7040 C   0  0  0  0  0  0  0  0  0  0  0  0
   44.4840   34.9080   44.7720 N   0  0  0  0  0  0  0  0  0  0  0  0
   45.1730   34.5130   45.8530 C   0  0  0  0  0  0  0  0  0  0  0  0
   46.0750   33.6110   45.4910 N   0  0  0  0  0  0  0  0  0  0  0  0
   46.9990   32.9420   46.3970 C   0  0  0  0  0  0  0  0  0  0  0  0
   46.2300   31.8950   47.1130 C   0  0  0  0  0  0  0  0  0  0  0  0
   45.6060   30.7330   46.7220 C   0  0  0  0  0  0  0  0  0  0  0  0
   44.9450   29.9620   47.6510 C   0  0  0  0  0  0  0  0  0  0  0  0
   44.8680   30.2860   48.9540 N   0  0  0  0  0  0  0  0  0  0  0  0
   45.4800   31.4240   49.3230 C   0  0  0  0  0  0  0  0  0  0  0  0
   46.1370   32.2030   48.4450 N   0  0  0  0  0  0  0  0  0  0  0  0
   48.8476   32.3009   44.0701 H   0  0  0  0  0  0  0  0  0  0  0  0
   48.2057   33.9889   43.9765 H   0  0  0  0  0  0  0  0  0  0  0  0
   46.8952   34.2518   41.4170 H   0  0  0  0  0  0  0  0  0  0  0  0
   48.5089   36.1050   40.7898 H   0  0  0  0  0  0  0  0  0  0  0  0
   47.7363   35.9077   42.3825 H   0  0  0  0  0  0  0  0  0  0  0  0
   50.5841   35.8550   41.7607 H   0  0  0  0  0  0  0  0  0  0  0  0
   49.8313   35.6148   43.3576 H   0  0  0  0  0  0  0  0  0  0  0  0
   50.8059   33.5700   41.3652 H   0  0  0  0  0  0  0  0  0  0  0  0
   50.7677   33.4334   43.1036 H   0  0  0  0  0  0  0  0  0  0  0  0
   48.9436   32.1854   41.6622 H   0  0  0  0  0  0  0  0  0  0  0  0
   48.3230   35.6584   39.1388 H   0  0  0  0  0  0  0  0  0  0  0  0
   48.5648   34.8952   36.7569 H   0  0  0  0  0  0  0  0  0  0  0  0
   48.1666   30.8823   38.1240 H   0  0  0  0  0  0  0  0  0  0  0  0
   46.5236   32.4515   42.3131 H   0  0  0  0  0  0  0  0  0  0  0  0
   46.7642   31.4477   43.7532 H   0  0  0  0  0  0  0  0  0  0  0  0
   44.6343   34.3194   42.6638 H   0  0  0  0  0  0  0  0  0  0  0  0
   45.0147   34.8795   46.8780 H   0  0  0  0  0  0  0  0  0  0  0  0
   47.8200   32.4830   45.8268 H   0  0  0  0  0  0  0  0  0  0  0  0
   47.4376   33.6587   47.1069 H   0  0  0  0  0  0  0  0  0  0  0  0
   45.6353   30.4203   45.6678 H   0  0  0  0  0  0  0  0  0  0  0  0
   44.4564   29.0368   47.3116 H   0  0  0  0  0  0  0  0  0  0  0  0
   45.4424   31.7290   50.3792 H   0  0  0  0  0  0  0  0  0  0  0  0
  2  3  1  0
  2  6  1  0
  3  4  1  0
  5  4  1  0
  6  5  1  0
  6  1  1  0
  7  2  1  0
  8  7  2  0
  9  8  1  0
 10  9  2  0
 10 11  1  0
 11 12  2  0
 12  7  1  0
 13  1  1  0
 13 14  1  0
 14 18  1  0
 15 14  2  0
 15 16  1  0
 16 17  2  0
 18 17  1  0
 18 19  1  0
 19 20  1  0
 20 25  1  0
 21 20  2  0
 21 22  1  0
 22 23  2  0
 23 24  1  0
 25 24  2  0
  1 26  1  0
  1 27  1  0
  2 28  1  1
  3 29  1  0
  3 30  1  0
  4 31  1  0
  4 32  1  0
  5 33  1  0
  5 34  1  0
  6 35  1  6
  8 36  1  0
  9 37  1  0
 11 38  1  0
 13 39  1  0
 13 40  1  0
 15 41  1  0
 17 42  1  0
 19 43  1  0
 19 44  1  0
 21 45  1  0
 22 46  1  0
 24 47  1  0
M  ISO  8  26   8  27   8  28  13  29  13  30  13  31  13  32  13  33  13
M  ISO  8  34  13  35  13  36  14  37  14  38  14  39   8  40   8  41  14
M  ISO  6  42  14  43   8  44   8  45  14  46  14  47  14
M  END
>  <minimizedAffinity>  (1) 
-5.62004519

>  <minimizedRMSD>  (1) 
1.50949323

$$$$
