
     RDKit          3D

 41 44  0  0  0  0  0  0  0  0999 V2000
   47.0480   34.7930   42.0120 C   0  0  0  0  0  0  0  0  0  0  0  0
   48.2270   35.4920   41.9810 C   0  0  0  0  0  0  0  0  0  0  0  0
   48.9220   35.4730   40.8160 C   0  0  0  0  0  0  0  0  0  0  0  0
   48.4620   34.7920   39.7470 N   0  0  0  0  0  0  0  0  0  0  0  0
   47.3010   34.1140   39.8040 C   0  0  0  0  0  0  0  0  0  0  0  0
   46.6050   34.1300   40.9610 N   0  0  0  0  0  0  0  0  0  0  0  0
   46.8580   33.4070   38.6350 N   0  0  0  0  0  0  0  0  0  0  0  0
   46.0040   32.3880   38.8810 C   0  0  0  0  0  0  0  0  0  0  0  0
   45.5090   31.6320   37.8080 C   0  0  0  0  0  0  0  0  0  0  0  0
   45.9500   32.0080   36.5550 C   0  0  0  0  0  0  0  0  0  0  0  0
   45.4700   31.2890   35.6340 O   0  0  0  0  0  0  0  0  0  0  0  0
   46.7950   33.0180   36.3220 N   0  0  0  0  0  0  0  0  0  0  0  0
   47.2420   33.7120   37.3820 C   0  0  0  0  0  0  0  0  0  0  0  0
   48.0360   34.6710   37.2150 O   0  0  0  0  0  0  0  0  0  0  0  0
   44.5690   35.6730   44.6730 C   0  0  0  0  0  0  0  0  0  0  0  0
   45.2890   35.7240   43.4510 C   0  0  0  0  0  0  0  0  0  0  0  0
   46.2780   34.7910   43.2420 C   0  0  0  0  0  0  0  0  0  0  0  0
   46.5160   33.8740   44.2140 N   0  0  0  0  0  0  0  0  0  0  0  0
   45.8210   33.8360   45.3790 C   0  0  0  0  0  0  0  0  0  0  0  0
   44.8510   34.7380   45.6000 N   0  0  0  0  0  0  0  0  0  0  0  0
   46.1320   32.8110   46.3930 C   0  0  0  0  0  0  0  0  0  0  0  0
   45.2600   32.9020   47.6220 C   0  0  0  0  0  0  0  0  0  0  0  0
   44.8160   31.5970   48.1800 C   0  0  0  0  0  0  0  0  0  0  0  0
   45.2570   31.3780   49.6170 C   0  0  0  0  0  0  0  0  0  0  0  0
   45.7380   30.4900   48.4940 C   0  0  0  0  0  0  0  0  0  0  0  0
   48.5926   36.0428   42.8602 H   0  0  0  0  0  0  0  0  0  0  0  0
   49.8733   36.0204   40.7425 H   0  0  0  0  0  0  0  0  0  0  0  0
   45.7004   32.1542   39.9121 H   0  0  0  0  0  0  0  0  0  0  0  0
   44.8135   30.7927   37.9557 H   0  0  0  0  0  0  0  0  0  0  0  0
   47.0923   33.2552   35.3648 H   0  0  0  0  0  0  0  0  0  0  0  0
   43.7714   36.4058   44.8650 H   0  0  0  0  0  0  0  0  0  0  0  0
   45.0626   36.4879   42.6926 H   0  0  0  0  0  0  0  0  0  0  0  0
   45.9937   31.8183   45.9397 H   0  0  0  0  0  0  0  0  0  0  0  0
   47.1698   32.9781   46.7171 H   0  0  0  0  0  0  0  0  0  0  0  0
   45.8260   33.4313   48.4027 H   0  0  0  0  0  0  0  0  0  0  0  0
   44.3457   33.4281   47.3100 H   0  0  0  0  0  0  0  0  0  0  0  0
   43.8919   31.6102   47.5835 H   0  0  0  0  0  0  0  0  0  0  0  0
   45.9474   32.0855   50.0994 H   0  0  0  0  0  0  0  0  0  0  0  0
   44.7513   31.2242   50.5817 H   0  0  0  0  0  0  0  0  0  0  0  0
   45.3854   29.4500   48.4301 H   0  0  0  0  0  0  0  0  0  0  0  0
   46.7273   30.1823   48.1243 H   0  0  0  0  0  0  0  0  0  0  0  0
  1 17  1  0
  2  1  2  0
  3  2  1  0
  4  5  1  0
  4  3  2  0
  5  6  2  0
  6  1  1  0
  7  8  1  0
  7  5  1  0
  9  8  2  0
 10  9  1  0
 11 10  2  0
 12 10  1  0
 12 13  1  0
 13  7  1  0
 14 13  2  0
 15 20  2  0
 16 15  1  0
 17 16  2  0
 17 18  1  0
 18 19  2  0
 19 20  1  0
 19 21  1  0
 21 22  1  0
 22 23  1  0
 23 25  1  0
 23 24  1  0
 25 24  1  0
  2 26  1  0
  3 27  1  0
  8 28  1  0
  9 29  1  0
 12 30  1  0
 15 31  1  0
 16 32  1  0
 21 33  1  0
 21 34  1  0
 22 35  1  0
 22 36  1  0
 23 37  1  0
 24 38  1  0
 24 39  1  0
 25 40  1  0
 25 41  1  0
M  ISO  8  26  14  27  14  28  14  29  14  30   9  31  14  32  14  33   8
M  ISO  8  34   8  35   8  36   8  37  13  38  13  39  13  40  13  41  13
M  END
>  <minimizedAffinity>  (1) 
-6.94698381

>  <minimizedRMSD>  (1) 
1.41619527

$$$$
