
     RDKit          3D

 41 44  0  0  0  0  0  0  0  0999 V2000
   47.0640   34.8130   41.9150 C   0  0  0  0  0  0  0  0  0  0  0  0
   48.2650   35.5140   41.8780 C   0  0  0  0  0  0  0  0  0  0  0  0
   48.9470   35.4730   40.7090 C   0  0  0  0  0  0  0  0  0  0  0  0
   48.4810   34.7920   39.6490 N   0  0  0  0  0  0  0  0  0  0  0  0
   47.3140   34.1170   39.7040 C   0  0  0  0  0  0  0  0  0  0  0  0
   46.6110   34.1430   40.8670 N   0  0  0  0  0  0  0  0  0  0  0  0
   46.8800   33.4150   38.5410 N   0  0  0  0  0  0  0  0  0  0  0  0
   46.0270   32.3920   38.7980 C   0  0  0  0  0  0  0  0  0  0  0  0
   45.5250   31.6180   37.7380 C   0  0  0  0  0  0  0  0  0  0  0  0
   45.9670   31.9890   36.4850 C   0  0  0  0  0  0  0  0  0  0  0  0
   45.4860   31.2590   35.5540 O   0  0  0  0  0  0  0  0  0  0  0  0
   46.8150   33.0070   36.2390 N   0  0  0  0  0  0  0  0  0  0  0  0
   47.2540   33.7010   37.2940 C   0  0  0  0  0  0  0  0  0  0  0  0
   48.0490   34.6610   37.1150 O   0  0  0  0  0  0  0  0  0  0  0  0
   44.5220   35.6640   44.5030 C   0  0  0  0  0  0  0  0  0  0  0  0
   45.2380   35.6880   43.2810 C   0  0  0  0  0  0  0  0  0  0  0  0
   46.3040   34.8270   43.1360 C   0  0  0  0  0  0  0  0  0  0  0  0
   46.5930   34.0190   44.1700 N   0  0  0  0  0  0  0  0  0  0  0  0
   45.9070   33.9930   45.3450 C   0  0  0  0  0  0  0  0  0  0  0  0
   44.8580   34.8340   45.5010 N   0  0  0  0  0  0  0  0  0  0  0  0
   46.3310   33.0460   46.4170 C   0  0  0  0  0  0  0  0  0  0  0  0
   45.2410   32.9840   47.5040 C   0  0  0  0  0  0  0  0  0  0  0  0
   45.1950   31.6140   47.9880 N   0  0  0  0  0  0  0  0  0  0  0  0
   45.3540   30.5210   47.1880 C   0  0  0  0  0  0  0  0  0  0  0  0
   45.2560   29.3660   47.9410 C   0  0  0  0  0  0  0  0  0  0  0  0
   45.0370   29.7700   49.2050 N   0  0  0  0  0  0  0  0  0  0  0  0
   45.0020   31.1280   49.2180 C   0  0  0  0  0  0  0  0  0  0  0  0
   48.6397   36.0705   42.7497 H   0  0  0  0  0  0  0  0  0  0  0  0
   49.9038   36.0092   40.6255 H   0  0  0  0  0  0  0  0  0  0  0  0
   45.7291   32.1690   39.8332 H   0  0  0  0  0  0  0  0  0  0  0  0
   44.8314   30.7789   37.8956 H   0  0  0  0  0  0  0  0  0  0  0  0
   47.1118   33.2401   35.2806 H   0  0  0  0  0  0  0  0  0  0  0  0
   43.6679   36.3442   44.6367 H   0  0  0  0  0  0  0  0  0  0  0  0
   44.9512   36.3745   42.4708 H   0  0  0  0  0  0  0  0  0  0  0  0
   46.4769   32.0446   45.9857 H   0  0  0  0  0  0  0  0  0  0  0  0
   47.2751   33.3931   46.8621 H   0  0  0  0  0  0  0  0  0  0  0  0
   45.4919   33.6670   48.3289 H   0  0  0  0  0  0  0  0  0  0  0  0
   44.2653   33.2875   47.0968 H   0  0  0  0  0  0  0  0  0  0  0  0
   45.5338   30.5537   46.1033 H   0  0  0  0  0  0  0  0  0  0  0  0
   45.3398   28.3301   47.5807 H   0  0  0  0  0  0  0  0  0  0  0  0
   44.8377   31.7420   50.1158 H   0  0  0  0  0  0  0  0  0  0  0  0
  1 17  1  0
  2  1  2  0
  3  2  1  0
  4  5  1  0
  4  3  2  0
  5  6  2  0
  6  1  1  0
  7  8  1  0
  7  5  1  0
  9  8  2  0
 10  9  1  0
 11 10  2  0
 12 10  1  0
 12 13  1  0
 13  7  1  0
 14 13  2  0
 15 20  2  0
 16 15  1  0
 17 16  2  0
 17 18  1  0
 18 19  2  0
 19 20  1  0
 19 21  1  0
 21 22  1  0
 22 23  1  0
 23 27  1  0
 24 25  2  0
 24 23  1  0
 25 26  1  0
 26 27  2  0
  2 28  1  0
  3 29  1  0
  8 30  1  0
  9 31  1  0
 12 32  1  0
 15 33  1  0
 16 34  1  0
 21 35  1  0
 21 36  1  0
 22 37  1  0
 22 38  1  0
 24 39  1  0
 25 40  1  0
 27 41  1  0
M  ISO  8  28  14  29  14  30  14  31  14  32   9  33  14  34  14  35   8
M  ISO  6  36   8  37   8  38   8  39  14  40  14  41  14
M  END
>  <minimizedAffinity>  (1) 
-6.80069733

>  <minimizedRMSD>  (1) 
0.710397601

$$$$
