
     RDKit          3D

 41 44  0  0  0  0  0  0  0  0999 V2000
   44.5050   35.6370   44.5020 C   0  0  0  0  0  0  0  0  0  0  0  0
   45.2140   35.6640   43.2760 C   0  0  0  0  0  0  0  0  0  0  0  0
   46.3080   34.8290   43.1460 C   0  0  0  0  0  0  0  0  0  0  0  0
   46.6370   34.0320   44.1970 N   0  0  0  0  0  0  0  0  0  0  0  0
   45.9370   34.0240   45.3660 C   0  0  0  0  0  0  0  0  0  0  0  0
   44.8540   34.8420   45.5160 N   0  0  0  0  0  0  0  0  0  0  0  0
   47.0670   34.8150   41.9170 C   0  0  0  0  0  0  0  0  0  0  0  0
   48.2630   35.5060   41.8850 C   0  0  0  0  0  0  0  0  0  0  0  0
   48.9470   35.4700   40.7150 C   0  0  0  0  0  0  0  0  0  0  0  0
   48.4730   34.7920   39.6520 N   0  0  0  0  0  0  0  0  0  0  0  0
   47.2940   34.1240   39.7200 C   0  0  0  0  0  0  0  0  0  0  0  0
   46.6080   34.1540   40.8780 N   0  0  0  0  0  0  0  0  0  0  0  0
   46.8720   33.4350   38.5460 N   0  0  0  0  0  0  0  0  0  0  0  0
   45.9970   32.4170   38.8060 C   0  0  0  0  0  0  0  0  0  0  0  0
   45.4900   31.6430   37.7530 C   0  0  0  0  0  0  0  0  0  0  0  0
   45.9370   31.9910   36.4960 C   0  0  0  0  0  0  0  0  0  0  0  0
   45.4650   31.2770   35.5620 O   0  0  0  0  0  0  0  0  0  0  0  0
   46.7950   32.9880   36.2500 N   0  0  0  0  0  0  0  0  0  0  0  0
   47.2490   33.6970   37.2990 C   0  0  0  0  0  0  0  0  0  0  0  0
   48.0510   34.6400   37.1290 O   0  0  0  0  0  0  0  0  0  0  0  0
   46.3870   33.1100   46.4570 C   0  0  0  0  0  0  0  0  0  0  0  0
   45.2700   32.9070   47.4790 C   0  0  0  0  0  0  0  0  0  0  0  0
   45.2160   31.5260   47.8800 N   0  0  0  0  0  0  0  0  0  0  0  0
   45.2640   30.4210   47.1300 N   0  0  0  0  0  0  0  0  0  0  0  0
   45.1780   29.3400   47.9590 C   0  0  0  0  0  0  0  0  0  0  0  0
   45.0730   29.8090   49.2530 C   0  0  0  0  0  0  0  0  0  0  0  0
   45.0980   31.2060   49.2020 C   0  0  0  0  0  0  0  0  0  0  0  0
   43.6331   36.2966   44.6232 H   0  0  0  0  0  0  0  0  0  0  0  0
   44.9044   36.3272   42.4548 H   0  0  0  0  0  0  0  0  0  0  0  0
   48.6395   36.0551   42.7606 H   0  0  0  0  0  0  0  0  0  0  0  0
   49.9054   36.0036   40.6324 H   0  0  0  0  0  0  0  0  0  0  0  0
   45.6910   32.2055   39.8412 H   0  0  0  0  0  0  0  0  0  0  0  0
   44.7845   30.8154   37.9181 H   0  0  0  0  0  0  0  0  0  0  0  0
   47.0976   33.2052   35.2897 H   0  0  0  0  0  0  0  0  0  0  0  0
   46.6625   32.1372   46.0238 H   0  0  0  0  0  0  0  0  0  0  0  0
   47.2546   33.5592   46.9625 H   0  0  0  0  0  0  0  0  0  0  0  0
   45.4643   33.5352   48.3608 H   0  0  0  0  0  0  0  0  0  0  0  0
   44.3088   33.1894   47.0248 H   0  0  0  0  0  0  0  0  0  0  0  0
   45.1902   28.2841   47.6510 H   0  0  0  0  0  0  0  0  0  0  0  0
   44.9854   29.1942   50.1610 H   0  0  0  0  0  0  0  0  0  0  0  0
   45.0356   31.9027   50.0509 H   0  0  0  0  0  0  0  0  0  0  0  0
  1  6  2  0
  2  1  1  0
  3  2  2  0
  3  4  1  0
  4  5  2  0
  5  6  1  0
  5 21  1  0
  7  3  1  0
  8  7  2  0
  9  8  1  0
 10 11  1  0
 10  9  2  0
 11 12  2  0
 12  7  1  0
 13 14  1  0
 13 11  1  0
 15 14  2  0
 16 15  1  0
 17 16  2  0
 18 16  1  0
 18 19  1  0
 19 13  1  0
 20 19  2  0
 21 22  1  0
 22 23  1  0
 23 27  1  0
 24 23  1  0
 24 25  2  0
 25 26  1  0
 27 26  2  0
  1 28  1  0
  2 29  1  0
  8 30  1  0
  9 31  1  0
 14 32  1  0
 15 33  1  0
 18 34  1  0
 21 35  1  0
 21 36  1  0
 22 37  1  0
 22 38  1  0
 25 39  1  0
 26 40  1  0
 27 41  1  0
M  ISO  8  28  14  29  14  30  14  31  14  32  14  33  14  34   9  35   8
M  ISO  6  36   8  37   8  38   8  39  14  40  14  41  14
M  END
>  <minimizedAffinity>  (1) 
-6.7367053

>  <minimizedRMSD>  (1) 
0.691486776

$$$$
