
     RDKit          3D

 41 44  0  0  0  0  0  0  0  0999 V2000
   47.0670   34.5660   42.2360 C   0  0  0  0  0  0  0  0  0  0  0  0
   48.4320   34.7380   42.4140 C   0  0  0  0  0  0  0  0  0  0  0  0
   49.2160   34.5130   41.3270 C   0  0  0  0  0  0  0  0  0  0  0  0
   48.6750   34.1430   40.1400 N   0  0  0  0  0  0  0  0  0  0  0  0
   47.3480   33.9830   39.9950 C   0  0  0  0  0  0  0  0  0  0  0  0
   46.5600   34.2050   41.0750 N   0  0  0  0  0  0  0  0  0  0  0  0
   46.8510   33.5910   38.7220 N   0  0  0  0  0  0  0  0  0  0  0  0
   45.6340   32.9800   38.7560 C   0  0  0  0  0  0  0  0  0  0  0  0
   45.0300   32.5450   37.5730 C   0  0  0  0  0  0  0  0  0  0  0  0
   45.7510   32.7840   36.4220 C   0  0  0  0  0  0  0  0  0  0  0  0
   45.1740   32.3770   35.3690 O   0  0  0  0  0  0  0  0  0  0  0  0
   46.9540   33.3890   36.3900 N   0  0  0  0  0  0  0  0  0  0  0  0
   47.4820   33.7830   37.5540 C   0  0  0  0  0  0  0  0  0  0  0  0
   48.5970   34.3500   37.5770 O   0  0  0  0  0  0  0  0  0  0  0  0
   44.4830   36.0150   44.4960 C   0  0  0  0  0  0  0  0  0  0  0  0
   45.3100   35.8460   43.3560 C   0  0  0  0  0  0  0  0  0  0  0  0
   46.1950   34.7950   43.3650 C   0  0  0  0  0  0  0  0  0  0  0  0
   46.2170   34.0000   44.4530 N   0  0  0  0  0  0  0  0  0  0  0  0
   45.4210   34.1700   45.5390 C   0  0  0  0  0  0  0  0  0  0  0  0
   44.5410   35.1940   45.5580 N   0  0  0  0  0  0  0  0  0  0  0  0
   45.5450   33.2200   46.6780 C   0  0  0  0  0  0  0  0  0  0  0  0
   46.3860   32.0150   46.2610 C   0  0  0  0  0  0  0  0  0  0  0  0
   47.2910   31.5170   47.2330 C   0  0  0  0  0  0  0  0  0  0  0  0
   47.8360   32.0290   48.3650 C   0  0  0  0  0  0  0  0  0  0  0  0
   48.7060   31.3390   49.1570 C   0  0  0  0  0  0  0  0  0  0  0  0
   49.0050   29.9550   48.6560 C   0  0  0  0  0  0  0  0  0  0  0  0
   47.9840   29.7930   47.0710 S   0  0  0  0  0  0  0  0  0  0  0  0
   48.8568   35.0402   43.3826 H   0  0  0  0  0  0  0  0  0  0  0  0
   50.3062   34.6329   41.4114 H   0  0  0  0  0  0  0  0  0  0  0  0
   45.1243   32.8283   39.7189 H   0  0  0  0  0  0  0  0  0  0  0  0
   44.0491   32.0473   37.5609 H   0  0  0  0  0  0  0  0  0  0  0  0
   47.4499   33.5428   35.5004 H   0  0  0  0  0  0  0  0  0  0  0  0
   43.7670   36.8499   44.5112 H   0  0  0  0  0  0  0  0  0  0  0  0
   45.2453   36.5304   42.4973 H   0  0  0  0  0  0  0  0  0  0  0  0
   46.0297   33.7275   47.5251 H   0  0  0  0  0  0  0  0  0  0  0  0
   44.5427   32.8769   46.9741 H   0  0  0  0  0  0  0  0  0  0  0  0
   45.6965   31.2001   45.9956 H   0  0  0  0  0  0  0  0  0  0  0  0
   47.0125   32.3670   45.4282 H   0  0  0  0  0  0  0  0  0  0  0  0
   47.5622   33.0530   48.6591 H   0  0  0  0  0  0  0  0  0  0  0  0
   49.1464   31.7561   50.0746 H   0  0  0  0  0  0  0  0  0  0  0  0
   49.6688   29.2038   49.1090 H   0  0  0  0  0  0  0  0  0  0  0  0
  1  2  2  0
  1 17  1  0
  3  2  1  0
  4  3  2  0
  5  4  1  0
  5  6  2  0
  6  1  1  0
  7  8  1  0
  7  5  1  0
  9  8  2  0
 10  9  1  0
 11 10  2  0
 12 10  1  0
 12 13  1  0
 13 14  2  0
 13  7  1  0
 15 20  2  0
 16 17  2  0
 16 15  1  0
 17 18  1  0
 18 19  2  0
 19 20  1  0
 19 21  1  0
 22 21  1  0
 22 23  1  0
 23 24  2  0
 24 25  1  0
 26 25  2  0
 27 23  1  0
 27 26  1  0
  2 28  1  0
  3 29  1  0
  8 30  1  0
  9 31  1  0
 12 32  1  0
 15 33  1  0
 16 34  1  0
 21 35  1  0
 21 36  1  0
 22 37  1  0
 22 38  1  0
 24 39  1  0
 25 40  1  0
 26 41  1  0
M  ISO  8  28  14  29  14  30  14  31  14  32   9  33  14  34  14  35   8
M  ISO  6  36   8  37   8  38   8  39  14  40  14  41  14
M  END
>  <minimizedAffinity>  (1) 
-6.72481441

>  <minimizedRMSD>  (1) 
1.65290368

$$$$
