
     RDKit          3D

 13 13  0  0  0  0  0  0  0  0999 V2000
   45.2000   34.2330   45.7930 C   0  0  0  0  0  0  0  0  0  0  0  0
   45.4460   34.6950   44.4930 C   0  0  0  0  0  0  0  0  0  0  0  0
   46.4380   34.0920   43.7190 C   0  0  0  0  0  0  0  0  0  0  0  0
   47.1460   33.0520   44.2720 N   0  0  0  0  0  0  0  0  0  0  0  0
   46.8700   32.6410   45.5380 C   0  0  0  0  0  0  0  0  0  0  0  0
   45.9190   33.2180   46.2820 N   0  0  0  0  0  0  0  0  0  0  0  0
   44.7100   35.8070   43.8620 C   0  0  0  0  0  0  0  0  0  0  0  0
   45.1920   36.7220   43.1880 O   0  0  0  0  0  0  0  0  0  0  0  0
   43.3190   35.7810   44.0760 O   0  0  0  0  0  0  0  0  0  0  0  0
   44.4188   34.7035   46.4081 H   0  0  0  0  0  0  0  0  0  0  0  0
   46.6472   34.4388   42.6963 H   0  0  0  0  0  0  0  0  0  0  0  0
   47.4470   31.8073   45.9646 H   0  0  0  0  0  0  0  0  0  0  0  0
   42.7453   36.4890   43.6891 H   0  0  0  0  0  0  0  0  0  0  0  0
  1  6  2  0
  2  1  1  0
  3  4  1  0
  3  2  2  0
  4  5  2  0
  5  6  1  0
  7  9  1  0
  7  2  1  0
  8  7  2  0
  1 10  1  0
  3 11  1  0
  5 12  1  0
  9 13  1  0
M  ISO  4  10  14  11  14  12  14  13   3
M  END
>  <minimizedAffinity>  (1) 
-3.59657502

>  <minimizedRMSD>  (1) 
2.16243696

$$$$
