
     RDKit          3D

 22 23  0  0  0  0  0  0  0  0999 V2000
   45.8070   33.9710   45.5940 C   0  0  0  0  0  0  0  0  0  0  0  0
   44.8050   34.4920   46.0890 O   0  0  0  0  0  0  0  0  0  0  0  0
   45.6660   34.9210   43.2400 C   0  0  0  0  0  0  0  0  0  0  0  0
   46.2520   34.0650   44.1880 C   0  0  0  0  0  0  0  0  0  0  0  0
   47.3100   33.2530   43.8140 C   0  0  0  0  0  0  0  0  0  0  0  0
   47.7610   33.3040   42.5200 N   0  0  0  0  0  0  0  0  0  0  0  0
   47.1470   34.1580   41.6410 C   0  0  0  0  0  0  0  0  0  0  0  0
   46.1330   34.9400   41.9950 N   0  0  0  0  0  0  0  0  0  0  0  0
   46.6330   33.2020   46.4160 O   0  0  0  0  0  0  0  0  0  0  0  0
   46.1170   32.2450   47.2820 C   0  0  0  0  0  0  0  0  0  0  0  0
   45.7840   30.9990   46.7680 C   0  0  0  0  0  0  0  0  0  0  0  0
   45.2640   29.9780   47.5450 C   0  0  0  0  0  0  0  0  0  0  0  0
   45.0660   30.2100   48.9050 C   0  0  0  0  0  0  0  0  0  0  0  0
   45.4060   31.4600   49.3900 C   0  0  0  0  0  0  0  0  0  0  0  0
   45.9080   32.4250   48.6020 N   0  0  0  0  0  0  0  0  0  0  0  0
   44.8262   35.5713   43.5260 H   0  0  0  0  0  0  0  0  0  0  0  0
   47.7811   32.5778   44.5436 H   0  0  0  0  0  0  0  0  0  0  0  0
   47.5077   34.1974   40.6026 H   0  0  0  0  0  0  0  0  0  0  0  0
   45.9404   30.8147   45.6949 H   0  0  0  0  0  0  0  0  0  0  0  0
   45.0125   29.0046   47.0986 H   0  0  0  0  0  0  0  0  0  0  0  0
   44.6564   29.4314   49.5652 H   0  0  0  0  0  0  0  0  0  0  0  0
   45.2600   31.6714   50.4596 H   0  0  0  0  0  0  0  0  0  0  0  0
  1  2  2  0
  1  9  1  0
  3  4  2  0
  4  1  1  0
  5  4  1  0
  6  5  2  0
  7  8  2  0
  7  6  1  0
  8  3  1  0
  9 10  1  0
 10 15  1  0
 11 10  2  0
 11 12  1  0
 12 13  2  0
 13 14  1  0
 15 14  2  0
  3 16  1  0
  5 17  1  0
  7 18  1  0
 11 19  1  0
 12 20  1  0
 13 21  1  0
 14 22  1  0
M  ISO  7  16  14  17  14  18  14  19  14  20  14  21  14  22  14
M  END
>  <minimizedAffinity>  (1) 
-4.38733387

>  <minimizedRMSD>  (1) 
6.49017

$$$$
