
     RDKit          3D

 46 49  0  0  1  0  0  0  0  0999 V2000
   48.0790   34.2890   41.1230 C   0  0  2  0  0  0  0  0  0  0  0  0
   48.5430   35.5520   41.5330 C   0  0  0  0  0  0  0  0  0  0  0  0
   49.8500   35.3160   42.3380 C   0  0  0  0  0  0  0  0  0  0  0  0
   50.1260   33.8240   42.3360 C   0  0  0  0  0  0  0  0  0  0  0  0
   48.8030   33.2660   42.0790 C   0  0  1  0  0  0  0  0  0  0  0  0
   48.3390   33.7380   39.7630 C   0  0  0  0  0  0  0  0  0  0  0  0
   48.3290   34.6190   38.7110 C   0  0  0  0  0  0  0  0  0  0  0  0
   48.5630   34.1800   37.4280 C   0  0  0  0  0  0  0  0  0  0  0  0
   48.8000   32.8250   37.2940 N   0  0  0  0  0  0  0  0  0  0  0  0
   48.8020   31.9990   38.3380 C   0  0  0  0  0  0  0  0  0  0  0  0
   48.5740   32.4290   39.5870 N   0  0  0  0  0  0  0  0  0  0  0  0
   48.0270   33.1400   43.3550 C   0  0  0  0  0  0  0  0  0  0  0  0
   46.5620   33.0240   43.0990 C   0  0  0  0  0  0  0  0  0  0  0  0
   45.8660   33.7330   44.2090 C   0  0  0  0  0  0  0  0  0  0  0  0
   45.3740   35.0040   44.2400 C   0  0  0  0  0  0  0  0  0  0  0  0
   44.8220   35.2210   45.4580 N   0  0  0  0  0  0  0  0  0  0  0  0
   44.9720   34.0950   46.1660 C   0  0  0  0  0  0  0  0  0  0  0  0
   45.6000   33.1870   45.4300 N   0  0  0  0  0  0  0  0  0  0  0  0
   45.9450   31.8410   45.8600 C   0  0  0  0  0  0  0  0  0  0  0  0
   46.7850   31.7830   47.0590 C   0  0  0  0  0  0  0  0  0  0  0  0
   46.8690   30.6580   47.8540 C   0  0  0  0  0  0  0  0  0  0  0  0
   47.7200   30.8370   48.9250 C   0  0  0  0  0  0  0  0  0  0  0  0
   48.1410   32.1330   48.7270 C   0  0  0  0  0  0  0  0  0  0  0  0
   47.5870   32.6240   47.6660 O   0  0  0  0  0  0  0  0  0  0  0  0
   46.9877   34.4258   41.1396 H   0  0  0  0  0  0  0  0  0  0  0  0
   48.7485   36.1822   40.6552 H   0  0  0  0  0  0  0  0  0  0  0  0
   47.7901   36.0660   42.1486 H   0  0  0  0  0  0  0  0  0  0  0  0
   50.6849   35.8527   41.8637 H   0  0  0  0  0  0  0  0  0  0  0  0
   49.7424   35.6879   43.3676 H   0  0  0  0  0  0  0  0  0  0  0  0
   50.8354   33.5507   41.5410 H   0  0  0  0  0  0  0  0  0  0  0  0
   50.5860   33.4589   43.2661 H   0  0  0  0  0  0  0  0  0  0  0  0
   48.8772   32.2631   41.6333 H   0  0  0  0  0  0  0  0  0  0  0  0
   48.1322   35.6855   38.8949 H   0  0  0  0  0  0  0  0  0  0  0  0
   48.5615   34.8628   36.5656 H   0  0  0  0  0  0  0  0  0  0  0  0
   48.9970   30.9295   38.1704 H   0  0  0  0  0  0  0  0  0  0  0  0
   48.3674   32.2426   43.8924 H   0  0  0  0  0  0  0  0  0  0  0  0
   48.2004   34.0465   43.9535 H   0  0  0  0  0  0  0  0  0  0  0  0
   46.3091   33.4910   42.1357 H   0  0  0  0  0  0  0  0  0  0  0  0
   46.2546   31.9688   43.0548 H   0  0  0  0  0  0  0  0  0  0  0  0
   45.4178   35.7306   43.4153 H   0  0  0  0  0  0  0  0  0  0  0  0
   44.6274   33.9453   47.1998 H   0  0  0  0  0  0  0  0  0  0  0  0
   45.0118   31.2968   46.0676 H   0  0  0  0  0  0  0  0  0  0  0  0
   46.5319   31.3928   45.0447 H   0  0  0  0  0  0  0  0  0  0  0  0
   46.3202   29.7254   47.6563 H   0  0  0  0  0  0  0  0  0  0  0  0
   47.9904   30.1317   49.7247 H   0  0  0  0  0  0  0  0  0  0  0  0
   48.8460   32.6725   49.3766 H   0  0  0  0  0  0  0  0  0  0  0  0
  1  2  1  0
  1  5  1  0
  2  3  1  0
  4  3  1  0
  5  4  1  0
  5 12  1  0
  6  1  1  0
  7  6  2  0
  8  7  1  0
  9  8  2  0
  9 10  1  0
 10 11  2  0
 11  6  1  0
 13 12  1  0
 13 14  1  0
 14 15  2  0
 14 18  1  0
 15 16  1  0
 16 17  2  0
 18 19  1  0
 18 17  1  0
 19 20  1  0
 20 24  1  0
 20 21  2  0
 21 22  1  0
 23 22  2  0
 24 23  1  0
  1 25  1  1
  2 26  1  0
  2 27  1  0
  3 28  1  0
  3 29  1  0
  4 30  1  0
  4 31  1  0
  5 32  1  6
  7 33  1  0
  8 34  1  0
 10 35  1  0
 12 36  1  0
 12 37  1  0
 13 38  1  0
 13 39  1  0
 15 40  1  0
 17 41  1  0
 19 42  1  0
 19 43  1  0
 21 44  1  0
 22 45  1  0
 23 46  1  0
M  ISO  8  25  13  26  13  27  13  28  13  29  13  30  13  31  13  32  13
M  ISO  8  33  14  34  14  35  14  36   8  37   8  38   8  39   8  40  14
M  ISO  6  41  14  42   8  43   8  44  14  45  14  46  14
M  END
>  <minimizedAffinity>  (1) 
-5.58196592

>  <minimizedRMSD>  (1) 
1.31111431

$$$$
