
     RDKit          3D

 23 24  0  0  0  0  0  0  0  0999 V2000
   48.6510   34.1270   42.4330 C   0  0  0  0  0  0  0  0  0  0  0  0
   49.1810   35.2430   42.5490 O   0  0  0  0  0  0  0  0  0  0  0  0
   48.7610   31.6180   42.8570 C   0  0  0  0  0  0  0  0  0  0  0  0
   49.3580   32.8240   42.4340 C   0  0  0  0  0  0  0  0  0  0  0  0
   50.6720   32.8180   41.9920 C   0  0  0  0  0  0  0  0  0  0  0  0
   51.3390   31.6210   41.9870 N   0  0  0  0  0  0  0  0  0  0  0  0
   50.7270   30.4910   42.4010 C   0  0  0  0  0  0  0  0  0  0  0  0
   49.4580   30.4840   42.8290 N   0  0  0  0  0  0  0  0  0  0  0  0
   47.2670   34.0310   42.2850 O   0  0  0  0  0  0  0  0  0  0  0  0
   46.3700   34.5390   43.2140 C   0  0  0  0  0  0  0  0  0  0  0  0
   45.6070   35.6720   43.0570 C   0  0  0  0  0  0  0  0  0  0  0  0
   44.7430   36.0920   44.0470 C   0  0  0  0  0  0  0  0  0  0  0  0
   44.6050   35.4000   45.2320 C   0  0  0  0  0  0  0  0  0  0  0  0
   45.3830   34.2530   45.3820 C   0  0  0  0  0  0  0  0  0  0  0  0
   46.2470   33.8290   44.3990 C   0  0  0  0  0  0  0  0  0  0  0  0
   47.7192   31.6145   43.2101 H   0  0  0  0  0  0  0  0  0  0  0  0
   51.1629   33.7434   41.6564 H   0  0  0  0  0  0  0  0  0  0  0  0
   51.2889   29.5455   42.3863 H   0  0  0  0  0  0  0  0  0  0  0  0
   45.6869   36.2532   42.1265 H   0  0  0  0  0  0  0  0  0  0  0  0
   44.1481   37.0033   43.8870 H   0  0  0  0  0  0  0  0  0  0  0  0
   43.9151   35.7365   46.0199 H   0  0  0  0  0  0  0  0  0  0  0  0
   45.3039   33.6709   46.3120 H   0  0  0  0  0  0  0  0  0  0  0  0
   46.8454   32.9191   44.5542 H   0  0  0  0  0  0  0  0  0  0  0  0
  1  4  1  0
  1  2  2  0
  4  3  2  0
  5  4  1  0
  6  5  2  0
  6  7  1  0
  7  8  2  0
  8  3  1  0
  9  1  1  0
  9 10  1  0
 10 15  1  0
 11 10  2  0
 11 12  1  0
 12 13  2  0
 13 14  1  0
 15 14  2  0
  3 16  1  0
  5 17  1  0
  7 18  1  0
 11 19  1  0
 12 20  1  0
 13 21  1  0
 14 22  1  0
 15 23  1  0
M  ISO  8  16  14  17  14  18  14  19  14  20  14  21  14  22  14  23  14
M  END
>  <minimizedAffinity>  (1) 
-3.98670602

>  <minimizedRMSD>  (1) 
5.03287601

$$$$
