
     RDKit          3D

 21 22  0  0  0  0  0  0  0  0999 V2000
   44.1430   34.9040   41.0690 C   0  0  0  0  0  0  0  0  0  0  0  0
   43.3760   35.6700   41.6790 O   0  0  0  0  0  0  0  0  0  0  0  0
   46.4920   34.1030   40.5160 C   0  0  0  0  0  0  0  0  0  0  0  0
   45.5520   34.6250   41.4220 C   0  0  0  0  0  0  0  0  0  0  0  0
   45.9410   34.9040   42.7270 C   0  0  0  0  0  0  0  0  0  0  0  0
   47.2430   34.6550   43.0840 N   0  0  0  0  0  0  0  0  0  0  0  0
   48.1110   34.1480   42.1660 C   0  0  0  0  0  0  0  0  0  0  0  0
   47.7480   33.8760   40.9030 N   0  0  0  0  0  0  0  0  0  0  0  0
   43.6850   34.2180   39.9420 O   0  0  0  0  0  0  0  0  0  0  0  0
   42.3940   34.3880   39.4480 C   0  0  0  0  0  0  0  0  0  0  0  0
   42.1980   35.3030   38.4330 C   0  0  0  0  0  0  0  0  0  0  0  0
   40.9350   35.4890   37.9300 C   0  0  0  0  0  0  0  0  0  0  0  0
   39.9320   34.7620   38.4560 N   0  0  0  0  0  0  0  0  0  0  0  0
   40.1520   33.8920   39.4310 C   0  0  0  0  0  0  0  0  0  0  0  0
   41.3870   33.6660   39.9690 N   0  0  0  0  0  0  0  0  0  0  0  0
   46.1898   33.8805   39.4820 H   0  0  0  0  0  0  0  0  0  0  0  0
   45.2246   35.3135   43.4544 H   0  0  0  0  0  0  0  0  0  0  0  0
   49.1498   33.9538   42.4712 H   0  0  0  0  0  0  0  0  0  0  0  0
   43.0459   35.8773   38.0315 H   0  0  0  0  0  0  0  0  0  0  0  0
   40.7479   36.2106   37.1211 H   0  0  0  0  0  0  0  0  0  0  0  0
   39.2975   33.3235   39.8268 H   0  0  0  0  0  0  0  0  0  0  0  0
  1  4  1  0
  1  2  2  0
  3  8  2  0
  3  4  1  0
  4  5  2  0
  5  6  1  0
  7  6  2  0
  8  7  1  0
  9  1  1  0
 10  9  1  0
 10 15  1  0
 11 10  2  0
 12 11  1  0
 12 13  2  0
 13 14  1  0
 14 15  2  0
  3 16  1  0
  5 17  1  0
  7 18  1  0
 11 19  1  0
 12 20  1  0
 14 21  1  0
M  ISO  6  16  14  17  14  18  14  19  14  20  14  21  14
M  END
>  <minimizedAffinity>  (1) 
-3.83123016

>  <minimizedRMSD>  (1) 
4.4197526

$$$$
