
     RDKit          3D

 26 26  0  0  0  0  0  0  0  0999 V2000
   44.9310   36.0180   42.9610 C   0  0  0  0  0  0  0  0  0  0  0  0
   44.5290   35.7610   44.3980 C   0  0  0  0  0  0  0  0  0  0  0  0
   44.9620   34.5070   44.9170 N   0  0  0  0  0  0  0  0  0  0  0  0
   45.0660   34.2390   46.3220 C   0  0  0  0  0  0  0  0  0  0  0  0
   44.2290   34.8500   47.0850 N   0  0  0  0  0  0  0  0  0  0  0  0
   46.0870   33.3210   46.7490 N   0  0  0  0  0  0  0  0  0  0  0  0
   44.2500   34.7010   48.1170 H   0  0  0  0  0  0  0  0  0  0  0  0
   46.2560   35.6070   42.7810 O   0  0  0  0  0  0  0  0  0  0  0  0
   46.6440   34.7050   41.7990 C   0  0  0  0  0  0  0  0  0  0  0  0
   45.8470   34.4100   40.8840 O   0  0  0  0  0  0  0  0  0  0  0  0
   48.3840   32.8400   41.7910 C   0  0  0  0  0  0  0  0  0  0  0  0
   48.0170   34.1780   41.9640 C   0  0  0  0  0  0  0  0  0  0  0  0
   48.9860   35.1170   42.3190 C   0  0  0  0  0  0  0  0  0  0  0  0
   50.2830   34.6800   42.4860 N   0  0  0  0  0  0  0  0  0  0  0  0
   50.5750   33.3630   42.3010 C   0  0  0  0  0  0  0  0  0  0  0  0
   49.6410   32.4770   41.9640 N   0  0  0  0  0  0  0  0  0  0  0  0
   44.2733   35.4503   42.2864 H   0  0  0  0  0  0  0  0  0  0  0  0
   44.8393   37.0905   42.7343 H   0  0  0  0  0  0  0  0  0  0  0  0
   44.9583   36.5581   45.0227 H   0  0  0  0  0  0  0  0  0  0  0  0
   43.4293   35.7448   44.4172 H   0  0  0  0  0  0  0  0  0  0  0  0
   45.2115   33.7596   44.2537 H   0  0  0  0  0  0  0  0  0  0  0  0
   46.1959   33.1007   47.7493 H   0  0  0  0  0  0  0  0  0  0  0  0
   46.7095   32.8837   46.0546 H   0  0  0  0  0  0  0  0  0  0  0  0
   47.6273   32.0921   41.5115 H   0  0  0  0  0  0  0  0  0  0  0  0
   48.7228   36.1755   42.4615 H   0  0  0  0  0  0  0  0  0  0  0  0
   51.6123   33.0218   42.4339 H   0  0  0  0  0  0  0  0  0  0  0  0
  1  2  1  0
  2  3  1  0
  3  4  1  0
  4  6  1  0
  4  5  2  0
  5  7  1  0
  8  1  1  0
  9 12  1  0
  9  8  1  0
 10  9  2  0
 11 16  2  0
 11 12  1  0
 12 13  2  0
 13 14  1  0
 15 14  2  0
 16 15  1  0
  1 17  1  0
  1 18  1  0
  2 19  1  0
  2 20  1  0
  3 21  1  0
  6 22  1  0
  6 23  1  0
 11 24  1  0
 13 25  1  0
 15 26  1  0
M  ISO  7  17   8  18   8  19   8  20   8  24  14  25  14  26  14
M  END
>  <minimizedAffinity>  (1) 
-4.62747002

>  <minimizedRMSD>  (1) 
0.264362752

$$$$
