
     RDKit          3D

 20 20  0  0  0  0  0  0  0  0999 V2000
   46.9570   34.5190   41.7200 C   0  0  0  0  0  0  0  0  0  0  0  0
   46.1920   34.4260   40.7470 O   0  0  0  0  0  0  0  0  0  0  0  0
   48.7370   32.7520   41.2270 C   0  0  0  0  0  0  0  0  0  0  0  0
   48.3290   33.9670   41.8110 C   0  0  0  0  0  0  0  0  0  0  0  0
   49.2540   34.7270   42.5290 C   0  0  0  0  0  0  0  0  0  0  0  0
   50.5410   34.2300   42.6250 N   0  0  0  0  0  0  0  0  0  0  0  0
   50.8700   33.0470   42.0360 C   0  0  0  0  0  0  0  0  0  0  0  0
   49.9830   32.3410   41.3600 N   0  0  0  0  0  0  0  0  0  0  0  0
   46.5580   35.1880   42.8710 O   0  0  0  0  0  0  0  0  0  0  0  0
   45.3900   35.9860   42.9100 C   0  0  0  0  0  0  0  0  0  0  0  0
   44.7180   35.7140   44.2300 C   0  0  0  0  0  0  0  0  0  0  0  0
   43.3280   35.7820   44.1640 O   0  0  0  0  0  0  0  0  0  0  0  0
   48.0158   32.1455   40.6595 H   0  0  0  0  0  0  0  0  0  0  0  0
   48.9712   35.6807   42.9985 H   0  0  0  0  0  0  0  0  0  0  0  0
   51.8998   32.6708   42.1258 H   0  0  0  0  0  0  0  0  0  0  0  0
   45.6565   37.0505   42.8335 H   0  0  0  0  0  0  0  0  0  0  0  0
   44.7208   35.7456   42.0707 H   0  0  0  0  0  0  0  0  0  0  0  0
   45.0029   34.7060   44.5659 H   0  0  0  0  0  0  0  0  0  0  0  0
   45.0498   36.4934   44.9318 H   0  0  0  0  0  0  0  0  0  0  0  0
   42.9546   35.8003   45.0807 H   0  0  0  0  0  0  0  0  0  0  0  0
  1  4  1  0
  1  9  1  0
  2  1  2  0
  3  8  2  0
  3  4  1  0
  4  5  2  0
  5  6  1  0
  7  6  2  0
  8  7  1  0
  9 10  1  0
 10 11  1  0
 12 11  1  0
  3 13  1  0
  5 14  1  0
  7 15  1  0
 10 16  1  0
 10 17  1  0
 11 18  1  0
 11 19  1  0
 12 20  1  0
M  ISO  8  13  14  14  14  15  14  16   8  17   8  18   8  19   8  20   3
M  END
>  <minimizedAffinity>  (1) 
-3.71636105

>  <minimizedRMSD>  (1) 
0.601044476

$$$$
