
     RDKit          3D

 40 42  0  0  1  0  0  0  0  0999 V2000
   47.8560   34.5910   41.3300 C   0  0  2  0  0  0  0  0  0  0  0  0
   48.6880   35.6610   41.7010 C   0  0  0  0  0  0  0  0  0  0  0  0
   49.9920   35.0610   42.2840 C   0  0  0  0  0  0  0  0  0  0  0  0
   49.8740   33.5450   42.2030 C   0  0  0  0  0  0  0  0  0  0  0  0
   48.4300   33.3670   42.1500 C   0  0  1  0  0  0  0  0  0  0  0  0
   47.7710   34.0820   39.9450 C   0  0  0  0  0  0  0  0  0  0  0  0
   48.4300   34.7750   38.9620 C   0  0  0  0  0  0  0  0  0  0  0  0
   48.3890   34.3510   37.6500 C   0  0  0  0  0  0  0  0  0  0  0  0
   47.6570   33.2120   37.4130 N   0  0  0  0  0  0  0  0  0  0  0  0
   47.0290   32.5630   38.3860 C   0  0  0  0  0  0  0  0  0  0  0  0
   47.0720   32.9810   39.6630 N   0  0  0  0  0  0  0  0  0  0  0  0
   47.8200   33.3850   43.5230 C   0  0  0  0  0  0  0  0  0  0  0  0
   46.4130   32.9080   43.5090 C   0  0  0  0  0  0  0  0  0  0  0  0
   45.6100   33.9520   44.2080 C   0  0  0  0  0  0  0  0  0  0  0  0
   44.9030   34.9890   43.6670 C   0  0  0  0  0  0  0  0  0  0  0  0
   44.3320   35.6830   44.6850 N   0  0  0  0  0  0  0  0  0  0  0  0
   44.6800   35.0850   45.8230 C   0  0  0  0  0  0  0  0  0  0  0  0
   45.4440   34.0480   45.5610 N   0  0  0  0  0  0  0  0  0  0  0  0
   46.0450   33.1150   46.5390 C   0  0  0  0  0  0  0  0  0  0  0  0
   45.1510   32.0590   46.6900 O   0  0  0  0  0  0  0  0  0  0  0  0
   46.8467   34.9925   41.5037 H   0  0  0  0  0  0  0  0  0  0  0  0
   48.9201   36.2782   40.8206 H   0  0  0  0  0  0  0  0  0  0  0  0
   48.1890   36.2976   42.4465 H   0  0  0  0  0  0  0  0  0  0  0  0
   50.8576   35.4023   41.6973 H   0  0  0  0  0  0  0  0  0  0  0  0
   50.1351   35.3835   43.3259 H   0  0  0  0  0  0  0  0  0  0  0  0
   50.3605   33.1522   41.2980 H   0  0  0  0  0  0  0  0  0  0  0  0
   50.3606   33.0129   43.0337 H   0  0  0  0  0  0  0  0  0  0  0  0
   48.1921   32.3970   41.6891 H   0  0  0  0  0  0  0  0  0  0  0  0
   48.9982   35.6800   39.2230 H   0  0  0  0  0  0  0  0  0  0  0  0
   48.9091   34.8902   36.8445 H   0  0  0  0  0  0  0  0  0  0  0  0
   46.4566   31.6565   38.1401 H   0  0  0  0  0  0  0  0  0  0  0  0
   48.4104   32.7327   44.1833 H   0  0  0  0  0  0  0  0  0  0  0  0
   47.8249   34.4236   43.8852 H   0  0  0  0  0  0  0  0  0  0  0  0
   46.0620   32.7874   42.4735 H   0  0  0  0  0  0  0  0  0  0  0  0
   46.3172   31.9310   44.0054 H   0  0  0  0  0  0  0  0  0  0  0  0
   44.8124   35.2207   42.5955 H   0  0  0  0  0  0  0  0  0  0  0  0
   44.3746   35.4094   46.8287 H   0  0  0  0  0  0  0  0  0  0  0  0
   47.0100   32.7434   46.1640 H   0  0  0  0  0  0  0  0  0  0  0  0
   46.2294   33.6163   47.5006 H   0  0  0  0  0  0  0  0  0  0  0  0
   45.0045   31.8859   47.6537 H   0  0  0  0  0  0  0  0  0  0  0  0
  1  2  1  0
  1  5  1  0
  2  3  1  0
  4  3  1  0
  5  4  1  0
  5 12  1  0
  6  1  1  0
  7  6  2  0
  8  7  1  0
  9  8  2  0
  9 10  1  0
 10 11  2  0
 11  6  1  0
 13 12  1  0
 13 14  1  0
 14 18  1  0
 15 14  2  0
 15 16  1  0
 16 17  2  0
 18 17  1  0
 18 19  1  0
 19 20  1  0
  1 21  1  1
  2 22  1  0
  2 23  1  0
  3 24  1  0
  3 25  1  0
  4 26  1  0
  4 27  1  0
  5 28  1  6
  7 29  1  0
  8 30  1  0
 10 31  1  0
 12 32  1  0
 12 33  1  0
 13 34  1  0
 13 35  1  0
 15 36  1  0
 17 37  1  0
 19 38  1  0
 19 39  1  0
 20 40  1  0
M  ISO  8  21  13  22  13  23  13  24  13  25  13  26  13  27  13  28  13
M  ISO  8  29  14  30  14  31  14  32   8  33   8  34   8  35   8  36  14
M  ISO  4  37  14  38   8  39   8  40   3
M  END
>  <minimizedAffinity>  (1) 
-5.46797323

>  <minimizedRMSD>  (1) 
0.35923332

$$$$
