
     RDKit          3D

 46 49  0  0  0  0  0  0  0  0999 V2000
   47.8810   34.0450   37.7660 C   0  0  0  0  0  0  0  0  0  0  0  0
   48.7330   34.9180   37.4960 O   0  0  0  0  0  0  0  0  0  0  0  0
   45.8770   32.9300   36.6600 C   0  0  0  0  0  0  0  0  0  0  0  0
   47.2670   33.0970   36.8070 C   0  0  0  0  0  0  0  0  0  0  0  0
   48.1380   32.3460   36.0230 C   0  0  0  0  0  0  0  0  0  0  0  0
   47.5970   31.4580   35.1250 N   0  0  0  0  0  0  0  0  0  0  0  0
   46.2340   31.3490   35.0370 C   0  0  0  0  0  0  0  0  0  0  0  0
   45.4080   32.0550   35.7730 N   0  0  0  0  0  0  0  0  0  0  0  0
   45.6770   30.4290   34.1070 N   0  0  0  0  0  0  0  0  0  0  0  0
   44.4320   29.9470   34.3800 C   0  0  0  0  0  0  0  0  0  0  0  0
   44.0970   29.0960   33.3730 N   0  0  0  0  0  0  0  0  0  0  0  0
   45.1130   29.0430   32.4830 C   0  0  0  0  0  0  0  0  0  0  0  0
   45.3900   28.3940   31.2920 C   0  0  0  0  0  0  0  0  0  0  0  0
   44.5350   27.6280   30.8290 O   0  0  0  0  0  0  0  0  0  0  0  0
   46.5760   28.6320   30.7030 N   0  0  0  0  0  0  0  0  0  0  0  0
   47.5380   29.4600   31.1720 C   0  0  0  0  0  0  0  0  0  0  0  0
   48.7160   29.5680   30.3940 N   0  0  0  0  0  0  0  0  0  0  0  0
   47.2900   30.1130   32.3460 N   0  0  0  0  0  0  0  0  0  0  0  0
   46.1050   29.8860   32.9530 C   0  0  0  0  0  0  0  0  0  0  0  0
   47.4100   33.8840   39.0810 O   0  0  0  0  0  0  0  0  0  0  0  0
   48.1630   34.3610   40.1940 C   0  0  0  0  0  0  0  0  0  0  0  0
   47.1880   34.6650   41.3090 C   0  0  0  0  0  0  0  0  0  0  0  0
   46.9360   33.5660   42.1860 N   0  0  0  0  0  0  0  0  0  0  0  0
   47.3290   34.0070   43.5060 C   0  0  0  0  0  0  0  0  0  0  0  0
   46.7620   33.2120   44.6190 C   0  0  0  0  0  0  0  0  0  0  0  0
   46.0970   32.0550   44.1690 O   0  0  0  0  0  0  0  0  0  0  0  0
   45.0550   32.5470   43.3870 C   0  0  0  0  0  0  0  0  0  0  0  0
   45.6390   32.9890   42.0730 C   0  0  0  0  0  0  0  0  0  0  0  0
   45.1815   33.5198   37.2752 H   0  0  0  0  0  0  0  0  0  0  0  0
   49.2278   32.4601   36.1196 H   0  0  0  0  0  0  0  0  0  0  0  0
   43.8125   30.1994   35.2532 H   0  0  0  0  0  0  0  0  0  0  0  0
   46.7684   28.1412   29.8181 H   0  0  0  0  0  0  0  0  0  0  0  0
   49.4821   30.1836   30.7022 H   0  0  0  0  0  0  0  0  0  0  0  0
   48.8069   29.0309   29.5198 H   0  0  0  0  0  0  0  0  0  0  0  0
   48.8782   33.5916   40.5205 H   0  0  0  0  0  0  0  0  0  0  0  0
   48.7292   35.2632   39.9192 H   0  0  0  0  0  0  0  0  0  0  0  0
   47.5946   35.4952   41.9052 H   0  0  0  0  0  0  0  0  0  0  0  0
   46.2290   34.9118   40.8300 H   0  0  0  0  0  0  0  0  0  0  0  0
   48.4258   33.9551   43.5720 H   0  0  0  0  0  0  0  0  0  0  0  0
   46.9359   35.0278   43.6220 H   0  0  0  0  0  0  0  0  0  0  0  0
   47.5798   32.9107   45.2902 H   0  0  0  0  0  0  0  0  0  0  0  0
   46.0247   33.8415   45.1387 H   0  0  0  0  0  0  0  0  0  0  0  0
   44.3080   31.7574   43.2183 H   0  0  0  0  0  0  0  0  0  0  0  0
   44.5593   33.3896   43.8913 H   0  0  0  0  0  0  0  0  0  0  0  0
   44.9649   33.7353   41.6273 H   0  0  0  0  0  0  0  0  0  0  0  0
   45.7418   32.0890   41.4490 H   0  0  0  0  0  0  0  0  0  0  0  0
  1 20  1  0
  2  1  2  0
  3  4  2  0
  4  1  1  0
  5  4  1  0
  6  5  2  0
  7  6  1  0
  7  8  2  0
  8  3  1  0
  9 10  1  0
  9  7  1  0
 11 10  2  0
 12 19  2  0
 12 11  1  0
 13 12  1  0
 14 13  2  0
 15 16  1  0
 15 13  1  0
 16 18  2  0
 17 16  1  0
 18 19  1  0
 19  9  1  0
 20 21  1  0
 21 22  1  0
 22 23  1  0
 23 24  1  0
 24 25  1  0
 26 25  1  0
 27 26  1  0
 28 23  1  0
 28 27  1  0
  3 29  1  0
  5 30  1  0
 10 31  1  0
 15 32  1  0
 17 33  1  0
 17 34  1  0
 21 35  1  0
 21 36  1  0
 22 37  1  0
 22 38  1  0
 24 39  1  0
 24 40  1  0
 25 41  1  0
 25 42  1  0
 27 43  1  0
 27 44  1  0
 28 45  1  0
 28 46  1  0
M  ISO  8  29  14  30  14  31  14  32   9  35   8  36   8  37   8  38   8
M  ISO  8  39  13  40  13  41  13  42  13  43  13  44  13  45  13  46  13
M  END
>  <minimizedAffinity>  (1) 
-5.26868868

>  <minimizedRMSD>  (1) 
2.64700603

$$$$
