
     RDKit          3D

 40 42  0  0  0  0  0  0  0  0999 V2000
   47.5710   34.3310   40.1430 C   0  0  0  0  0  0  0  0  0  0  0  0
   46.2290   34.2380   40.8350 C   0  0  0  0  0  0  0  0  0  0  0  0
   46.2660   34.4360   42.2560 N   0  0  0  0  0  0  0  0  0  0  0  0
   45.2270   35.3900   42.5620 C   0  0  0  0  0  0  0  0  0  0  0  0
   44.7860   35.3960   43.9680 C   0  0  0  0  0  0  0  0  0  0  0  0
   45.6290   34.6160   44.7960 O   0  0  0  0  0  0  0  0  0  0  0  0
   45.5110   33.3340   44.3060 C   0  0  0  0  0  0  0  0  0  0  0  0
   46.2770   33.2450   43.0190 C   0  0  0  0  0  0  0  0  0  0  0  0
   47.5070   33.5080   38.9960 O   0  0  0  0  0  0  0  0  0  0  0  0
   47.9780   33.9360   37.7460 C   0  0  0  0  0  0  0  0  0  0  0  0
   48.6290   34.9770   37.6620 O   0  0  0  0  0  0  0  0  0  0  0  0
   46.3420   32.4030   36.5370 C   0  0  0  0  0  0  0  0  0  0  0  0
   47.5980   33.0120   36.6400 C   0  0  0  0  0  0  0  0  0  0  0  0
   48.5930   32.7740   35.6780 C   0  0  0  0  0  0  0  0  0  0  0  0
   48.2720   31.9210   34.6380 N   0  0  0  0  0  0  0  0  0  0  0  0
   47.0220   31.3620   34.6030 C   0  0  0  0  0  0  0  0  0  0  0  0
   46.0870   31.5890   35.5150 N   0  0  0  0  0  0  0  0  0  0  0  0
   46.7400   30.4690   33.4840 C   0  0  0  0  0  0  0  0  0  0  0  0
   45.5580   29.7570   33.4330 C   0  0  0  0  0  0  0  0  0  0  0  0
   45.2300   28.8930   32.3980 C   0  0  0  0  0  0  0  0  0  0  0  0
   46.1390   28.7730   31.4140 N   0  0  0  0  0  0  0  0  0  0  0  0
   47.3010   29.4510   31.4310 C   0  0  0  0  0  0  0  0  0  0  0  0
   47.5970   30.2950   32.4620 N   0  0  0  0  0  0  0  0  0  0  0  0
   47.7724   35.3718   39.8494 H   0  0  0  0  0  0  0  0  0  0  0  0
   48.3798   34.0047   40.8134 H   0  0  0  0  0  0  0  0  0  0  0  0
   45.5672   35.0019   40.4008 H   0  0  0  0  0  0  0  0  0  0  0  0
   45.8711   33.2100   40.6763 H   0  0  0  0  0  0  0  0  0  0  0  0
   45.6023   36.3946   42.3171 H   0  0  0  0  0  0  0  0  0  0  0  0
   44.3514   35.0954   41.9649 H   0  0  0  0  0  0  0  0  0  0  0  0
   44.7889   36.4327   44.3358 H   0  0  0  0  0  0  0  0  0  0  0  0
   43.7768   34.9602   44.0073 H   0  0  0  0  0  0  0  0  0  0  0  0
   45.9230   32.6191   45.0335 H   0  0  0  0  0  0  0  0  0  0  0  0
   44.4520   33.0924   44.1323 H   0  0  0  0  0  0  0  0  0  0  0  0
   45.8374   32.4410   42.4104 H   0  0  0  0  0  0  0  0  0  0  0  0
   47.3258   33.0503   43.2873 H   0  0  0  0  0  0  0  0  0  0  0  0
   45.5699   32.5959   37.2963 H   0  0  0  0  0  0  0  0  0  0  0  0
   49.5843   33.2455   35.7487 H   0  0  0  0  0  0  0  0  0  0  0  0
   44.8388   29.8813   34.2560 H   0  0  0  0  0  0  0  0  0  0  0  0
   44.2805   28.3378   32.3831 H   0  0  0  0  0  0  0  0  0  0  0  0
   48.0186   29.3240   30.6070 H   0  0  0  0  0  0  0  0  0  0  0  0
  1  2  1  0
  2  3  1  0
  3  4  1  0
  3  8  1  0
  4  5  1  0
  5  6  1  0
  7  6  1  0
  8  7  1  0
  9  1  1  0
 10  9  1  0
 11 10  2  0
 12 13  2  0
 13 10  1  0
 14 13  1  0
 15 14  2  0
 16 15  1  0
 16 17  2  0
 17 12  1  0
 18 16  1  0
 19 18  2  0
 20 19  1  0
 21 22  1  0
 21 20  2  0
 22 23  2  0
 23 18  1  0
  1 24  1  0
  1 25  1  0
  2 26  1  0
  2 27  1  0
  4 28  1  0
  4 29  1  0
  5 30  1  0
  5 31  1  0
  7 32  1  0
  7 33  1  0
  8 34  1  0
  8 35  1  0
 12 36  1  0
 14 37  1  0
 19 38  1  0
 20 39  1  0
 22 40  1  0
M  ISO  8  24   8  25   8  26   8  27   8  28  13  29  13  30  13  31  13
M  ISO  8  32  13  33  13  34  13  35  13  36  14  37  14  38  14  39  14
M  ISO  1  40  14
M  END
>  <minimizedAffinity>  (1) 
-4.50326538

>  <minimizedRMSD>  (1) 
2.87722301

$$$$
