
     RDKit          3D

 39 41  0  0  0  0  0  0  0  0999 V2000
   48.0100   34.5680   40.4820 C   0  0  0  0  0  0  0  0  0  0  0  0
   46.6000   34.4690   41.0160 C   0  0  0  0  0  0  0  0  0  0  0  0
   46.5080   34.4770   42.4450 N   0  0  0  0  0  0  0  0  0  0  0  0
   45.5000   35.4470   42.7960 C   0  0  0  0  0  0  0  0  0  0  0  0
   44.9450   35.3000   44.1620 C   0  0  0  0  0  0  0  0  0  0  0  0
   45.6610   34.3690   44.9390 O   0  0  0  0  0  0  0  0  0  0  0  0
   45.4950   33.1680   44.2540 C   0  0  0  0  0  0  0  0  0  0  0  0
   46.3780   33.2030   43.0390 C   0  0  0  0  0  0  0  0  0  0  0  0
   48.1250   33.6210   39.4180 O   0  0  0  0  0  0  0  0  0  0  0  0
   48.0200   34.0270   38.0720 C   0  0  0  0  0  0  0  0  0  0  0  0
   48.7010   34.9630   37.6420 O   0  0  0  0  0  0  0  0  0  0  0  0
   45.7020   33.0500   37.6640 C   0  0  0  0  0  0  0  0  0  0  0  0
   47.0430   33.2210   37.3010 C   0  0  0  0  0  0  0  0  0  0  0  0
   47.5410   32.6060   36.1350 C   0  0  0  0  0  0  0  0  0  0  0  0
   46.6560   31.8470   35.3930 N   0  0  0  0  0  0  0  0  0  0  0  0
   45.3700   31.7240   35.8030 C   0  0  0  0  0  0  0  0  0  0  0  0
   44.9050   32.2980   36.8910 N   0  0  0  0  0  0  0  0  0  0  0  0
   44.4750   30.9380   35.0260 N   0  0  0  0  0  0  0  0  0  0  0  0
   43.1850   30.6450   35.1290 N   0  0  0  0  0  0  0  0  0  0  0  0
   42.8230   29.8370   34.0990 C   0  0  0  0  0  0  0  0  0  0  0  0
   43.9640   29.6240   33.3170 C   0  0  0  0  0  0  0  0  0  0  0  0
   44.9910   30.3340   33.9320 C   0  0  0  0  0  0  0  0  0  0  0  0
   48.2000   35.5837   40.1050 H   0  0  0  0  0  0  0  0  0  0  0  0
   48.7438   34.3574   41.2740 H   0  0  0  0  0  0  0  0  0  0  0  0
   46.0246   35.3230   40.6292 H   0  0  0  0  0  0  0  0  0  0  0  0
   46.2041   33.4990   40.6808 H   0  0  0  0  0  0  0  0  0  0  0  0
   45.9462   36.4491   42.7139 H   0  0  0  0  0  0  0  0  0  0  0  0
   44.6615   35.2870   42.1022 H   0  0  0  0  0  0  0  0  0  0  0  0
   44.9794   36.2783   44.6636 H   0  0  0  0  0  0  0  0  0  0  0  0
   43.9135   34.9305   44.0651 H   0  0  0  0  0  0  0  0  0  0  0  0
   45.7826   32.3261   44.9008 H   0  0  0  0  0  0  0  0  0  0  0  0
   44.4433   33.0373   43.9595 H   0  0  0  0  0  0  0  0  0  0  0  0
   45.9582   32.5160   42.2895 H   0  0  0  0  0  0  0  0  0  0  0  0
   47.3838   32.9111   43.3754 H   0  0  0  0  0  0  0  0  0  0  0  0
   45.3065   33.5270   38.5729 H   0  0  0  0  0  0  0  0  0  0  0  0
   48.5906   32.7251   35.8282 H   0  0  0  0  0  0  0  0  0  0  0  0
   41.8195   29.4263   33.9138 H   0  0  0  0  0  0  0  0  0  0  0  0
   44.0348   29.0181   32.4016 H   0  0  0  0  0  0  0  0  0  0  0  0
   46.0347   30.3931   33.5896 H   0  0  0  0  0  0  0  0  0  0  0  0
  1  2  1  0
  2  3  1  0
  3  4  1  0
  3  8  1  0
  4  5  1  0
  5  6  1  0
  7  6  1  0
  8  7  1  0
  9  1  1  0
 10  9  1  0
 11 10  2  0
 13 12  2  0
 13 10  1  0
 14 13  1  0
 15 16  1  0
 15 14  2  0
 16 17  2  0
 17 12  1  0
 18 19  1  0
 18 16  1  0
 20 19  2  0
 21 22  2  0
 21 20  1  0
 22 18  1  0
  1 23  1  0
  1 24  1  0
  2 25  1  0
  2 26  1  0
  4 27  1  0
  4 28  1  0
  5 29  1  0
  5 30  1  0
  7 31  1  0
  7 32  1  0
  8 33  1  0
  8 34  1  0
 12 35  1  0
 14 36  1  0
 20 37  1  0
 21 38  1  0
 22 39  1  0
M  ISO  8  23   8  24   8  25   8  26   8  27  13  28  13  29  13  30  13
M  ISO  8  31  13  32  13  33  13  34  13  35  14  36  14  37  14  38  14
M  ISO  1  39  14
M  END
>  <minimizedAffinity>  (1) 
-4.36213446

>  <minimizedRMSD>  (1) 
1.65037215

$$$$
