
     RDKit          3D

 45 47  0  0  0  0  0  0  0  0999 V2000
   48.1390   34.5970   40.3300 C   0  0  0  0  0  0  0  0  0  0  0  0
   46.8520   34.5770   41.1250 C   0  0  0  0  0  0  0  0  0  0  0  0
   46.7760   33.5400   42.1160 N   0  0  0  0  0  0  0  0  0  0  0  0
   47.1660   34.1480   43.3740 C   0  0  0  0  0  0  0  0  0  0  0  0
   46.7580   33.4000   44.5810 C   0  0  0  0  0  0  0  0  0  0  0  0
   46.2730   32.1130   44.2710 O   0  0  0  0  0  0  0  0  0  0  0  0
   45.1470   32.3660   43.4980 C   0  0  0  0  0  0  0  0  0  0  0  0
   45.5880   32.7830   42.1200 C   0  0  0  0  0  0  0  0  0  0  0  0
   48.0190   33.6140   39.3010 O   0  0  0  0  0  0  0  0  0  0  0  0
   48.0280   33.9960   37.9410 C   0  0  0  0  0  0  0  0  0  0  0  0
   48.6830   34.9730   37.5520 O   0  0  0  0  0  0  0  0  0  0  0  0
   45.8060   32.9520   37.2300 C   0  0  0  0  0  0  0  0  0  0  0  0
   47.1820   33.1040   37.0950 C   0  0  0  0  0  0  0  0  0  0  0  0
   47.8680   32.3890   36.1090 C   0  0  0  0  0  0  0  0  0  0  0  0
   47.1080   31.5540   35.3100 N   0  0  0  0  0  0  0  0  0  0  0  0
   45.7720   31.4510   35.4930 C   0  0  0  0  0  0  0  0  0  0  0  0
   45.1320   32.1350   36.4320 N   0  0  0  0  0  0  0  0  0  0  0  0
   45.1220   30.5550   34.5990 N   0  0  0  0  0  0  0  0  0  0  0  0
   43.6910   30.5820   34.4550 C   0  0  0  0  0  0  0  0  0  0  0  0
   43.3020   29.1770   33.9770 C   0  0  0  0  0  0  0  0  0  0  0  0
   43.8880   29.0480   32.7280 O   0  0  0  0  0  0  0  0  0  0  0  0
   45.2560   28.9290   32.7450 C   0  0  0  0  0  0  0  0  0  0  0  0
   45.9580   29.6340   33.8560 C   0  0  0  0  0  0  0  0  0  0  0  0
   48.2907   35.5913   39.8846 H   0  0  0  0  0  0  0  0  0  0  0  0
   49.0002   34.3783   40.9784 H   0  0  0  0  0  0  0  0  0  0  0  0
   46.7486   35.5464   41.6345 H   0  0  0  0  0  0  0  0  0  0  0  0
   46.0444   34.3790   40.4048 H   0  0  0  0  0  0  0  0  0  0  0  0
   48.2621   34.2398   43.3835 H   0  0  0  0  0  0  0  0  0  0  0  0
   46.6467   35.1165   43.4219 H   0  0  0  0  0  0  0  0  0  0  0  0
   47.6279   33.2999   45.2467 H   0  0  0  0  0  0  0  0  0  0  0  0
   45.9448   33.9596   45.0664 H   0  0  0  0  0  0  0  0  0  0  0  0
   44.5331   31.4558   43.4300 H   0  0  0  0  0  0  0  0  0  0  0  0
   44.5503   33.1675   43.9579 H   0  0  0  0  0  0  0  0  0  0  0  0
   44.7885   33.3871   41.6664 H   0  0  0  0  0  0  0  0  0  0  0  0
   45.7885   31.8627   41.5518 H   0  0  0  0  0  0  0  0  0  0  0  0
   45.2706   33.5161   38.0079 H   0  0  0  0  0  0  0  0  0  0  0  0
   48.9556   32.4854   35.9755 H   0  0  0  0  0  0  0  0  0  0  0  0
   43.2115   30.8068   35.4191 H   0  0  0  0  0  0  0  0  0  0  0  0
   43.3661   31.3590   33.7474 H   0  0  0  0  0  0  0  0  0  0  0  0
   43.6897   28.4128   34.6667 H   0  0  0  0  0  0  0  0  0  0  0  0
   42.2111   29.0413   33.9375 H   0  0  0  0  0  0  0  0  0  0  0  0
   45.5002   27.8589   32.8175 H   0  0  0  0  0  0  0  0  0  0  0  0
   45.6077   29.4082   31.8195 H   0  0  0  0  0  0  0  0  0  0  0  0
   46.3433   28.8774   34.5553 H   0  0  0  0  0  0  0  0  0  0  0  0
   46.7557   30.2344   33.3943 H   0  0  0  0  0  0  0  0  0  0  0  0
  1  2  1  0
  2  3  1  0
  3  8  1  0
  3  4  1  0
  4  5  1  0
  6  5  1  0
  7  6  1  0
  8  7  1  0
  9  1  1  0
 10  9  1  0
 11 10  2  0
 13 12  2  0
 13 10  1  0
 14 13  1  0
 15 16  1  0
 15 14  2  0
 16 17  2  0
 17 12  1  0
 18 16  1  0
 19 18  1  0
 20 19  1  0
 21 22  1  0
 21 20  1  0
 22 23  1  0
 23 18  1  0
  1 24  1  0
  1 25  1  0
  2 26  1  0
  2 27  1  0
  4 28  1  0
  4 29  1  0
  5 30  1  0
  5 31  1  0
  7 32  1  0
  7 33  1  0
  8 34  1  0
  8 35  1  0
 12 36  1  0
 14 37  1  0
 19 38  1  0
 19 39  1  0
 20 40  1  0
 20 41  1  0
 22 42  1  0
 22 43  1  0
 23 44  1  0
 23 45  1  0
M  ISO  8  24   8  25   8  26   8  27   8  28  13  29  13  30  13  31  13
M  ISO  8  32  13  33  13  34  13  35  13  36  14  37  14  38  13  39  13
M  ISO  6  40  13  41  13  42  13  43  13  44  13  45  13
M  END
>  <minimizedAffinity>  (1) 
-4.1261487

>  <minimizedRMSD>  (1) 
1.51675951

$$$$
