
     RDKit          3D

 38 40  0  0  0  0  0  0  0  0999 V2000
   48.1550   34.6060   40.3840 C   0  0  0  0  0  0  0  0  0  0  0  0
   46.8230   34.4990   41.0810 C   0  0  0  0  0  0  0  0  0  0  0  0
   46.7670   33.5000   42.1110 N   0  0  0  0  0  0  0  0  0  0  0  0
   47.1250   34.1550   43.3440 C   0  0  0  0  0  0  0  0  0  0  0  0
   46.7170   33.4370   44.5780 C   0  0  0  0  0  0  0  0  0  0  0  0
   46.2320   32.1390   44.3070 O   0  0  0  0  0  0  0  0  0  0  0  0
   45.1160   32.3700   43.5160 C   0  0  0  0  0  0  0  0  0  0  0  0
   45.5700   32.7320   42.1390 C   0  0  0  0  0  0  0  0  0  0  0  0
   48.1590   33.6520   39.3270 O   0  0  0  0  0  0  0  0  0  0  0  0
   48.0780   34.0480   37.9930 C   0  0  0  0  0  0  0  0  0  0  0  0
   48.7520   34.9870   37.5640 O   0  0  0  0  0  0  0  0  0  0  0  0
   45.7580   33.0840   37.5380 C   0  0  0  0  0  0  0  0  0  0  0  0
   47.1170   33.2260   37.2020 C   0  0  0  0  0  0  0  0  0  0  0  0
   47.6380   32.5830   36.0790 C   0  0  0  0  0  0  0  0  0  0  0  0
   46.7740   31.8160   35.3280 N   0  0  0  0  0  0  0  0  0  0  0  0
   45.4760   31.7110   35.6950 C   0  0  0  0  0  0  0  0  0  0  0  0
   44.9740   32.3200   36.7620 N   0  0  0  0  0  0  0  0  0  0  0  0
   44.5270   30.9360   34.9640 N   0  0  0  0  0  0  0  0  0  0  0  0
   44.5500   30.3130   33.7710 C   0  0  0  0  0  0  0  0  0  0  0  0
   43.3350   29.7210   33.5940 N   0  0  0  0  0  0  0  0  0  0  0  0
   42.5720   29.9850   34.6860 C   0  0  0  0  0  0  0  0  0  0  0  0
   43.3450   30.7430   35.5160 N   0  0  0  0  0  0  0  0  0  0  0  0
   48.2861   35.6194   39.9767 H   0  0  0  0  0  0  0  0  0  0  0  0
   48.9785   34.4112   41.0868 H   0  0  0  0  0  0  0  0  0  0  0  0
   46.5942   35.4741   41.5357 H   0  0  0  0  0  0  0  0  0  0  0  0
   46.0929   34.1989   40.3149 H   0  0  0  0  0  0  0  0  0  0  0  0
   48.2186   34.2719   43.3631 H   0  0  0  0  0  0  0  0  0  0  0  0
   46.5829   35.1121   43.3520 H   0  0  0  0  0  0  0  0  0  0  0  0
   47.5879   33.3571   45.2451 H   0  0  0  0  0  0  0  0  0  0  0  0
   45.9030   34.0094   45.0469 H   0  0  0  0  0  0  0  0  0  0  0  0
   44.4973   31.4614   43.4747 H   0  0  0  0  0  0  0  0  0  0  0  0
   44.5192   33.1904   43.9411 H   0  0  0  0  0  0  0  0  0  0  0  0
   44.7732   33.3144   41.6533 H   0  0  0  0  0  0  0  0  0  0  0  0
   45.7829   31.7889   41.6143 H   0  0  0  0  0  0  0  0  0  0  0  0
   45.3450   33.5911   38.4225 H   0  0  0  0  0  0  0  0  0  0  0  0
   48.6981   32.6844   35.8035 H   0  0  0  0  0  0  0  0  0  0  0  0
   45.3951   30.2865   33.0673 H   0  0  0  0  0  0  0  0  0  0  0  0
   41.5384   29.6541   34.8652 H   0  0  0  0  0  0  0  0  0  0  0  0
  1  2  1  0
  2  3  1  0
  3  8  1  0
  3  4  1  0
  4  5  1  0
  6  5  1  0
  7  6  1  0
  8  7  1  0
  9  1  1  0
 10  9  1  0
 11 10  2  0
 13 12  2  0
 13 10  1  0
 14 13  1  0
 15 16  1  0
 15 14  2  0
 16 17  2  0
 17 12  1  0
 18 22  1  0
 18 16  1  0
 19 18  1  0
 20 19  2  0
 20 21  1  0
 21 22  2  0
  1 23  1  0
  1 24  1  0
  2 25  1  0
  2 26  1  0
  4 27  1  0
  4 28  1  0
  5 29  1  0
  5 30  1  0
  7 31  1  0
  7 32  1  0
  8 33  1  0
  8 34  1  0
 12 35  1  0
 14 36  1  0
 19 37  1  0
 21 38  1  0
M  ISO  8  23   8  24   8  25   8  26   8  27  13  28  13  29  13  30  13
M  ISO  8  31  13  32  13  33  13  34  13  35  14  36  14  37  14  38  14
M  END
>  <minimizedAffinity>  (1) 
-4.08500767

>  <minimizedRMSD>  (1) 
1.17043614

$$$$
