
     RDKit          3D

 41 42  0  0  0  0  0  0  0  0999 V2000
   48.1590   34.5410   40.3140 C   0  0  0  0  0  0  0  0  0  0  0  0
   46.8200   34.4580   41.0300 C   0  0  0  0  0  0  0  0  0  0  0  0
   46.7580   33.4800   42.0740 N   0  0  0  0  0  0  0  0  0  0  0  0
   47.1090   34.1590   43.2940 C   0  0  0  0  0  0  0  0  0  0  0  0
   46.7160   33.4620   44.5340 C   0  0  0  0  0  0  0  0  0  0  0  0
   46.2230   32.1600   44.2800 O   0  0  0  0  0  0  0  0  0  0  0  0
   45.1040   32.3730   43.4890 C   0  0  0  0  0  0  0  0  0  0  0  0
   45.5650   32.7210   42.1080 C   0  0  0  0  0  0  0  0  0  0  0  0
   48.1320   33.5780   39.2770 O   0  0  0  0  0  0  0  0  0  0  0  0
   47.9970   33.9560   37.9290 C   0  0  0  0  0  0  0  0  0  0  0  0
   48.7200   34.8470   37.4620 O   0  0  0  0  0  0  0  0  0  0  0  0
   45.6390   33.0280   37.6630 C   0  0  0  0  0  0  0  0  0  0  0  0
   46.9450   33.1880   37.2110 C   0  0  0  0  0  0  0  0  0  0  0  0
   47.3470   32.6100   36.0090 C   0  0  0  0  0  0  0  0  0  0  0  0
   46.3950   31.8870   35.3150 N   0  0  0  0  0  0  0  0  0  0  0  0
   45.1380   31.7680   35.8090 C   0  0  0  0  0  0  0  0  0  0  0  0
   44.7710   32.3220   36.9500 N   0  0  0  0  0  0  0  0  0  0  0  0
   44.1500   30.9730   35.0110 C   0  0  0  0  0  0  0  0  0  0  0  0
   43.8180   29.7310   35.7980 C   0  0  0  0  0  0  0  0  0  0  0  0
   44.9020   30.5050   33.7750 C   0  0  0  0  0  0  0  0  0  0  0  0
   48.3005   35.5470   39.8922 H   0  0  0  0  0  0  0  0  0  0  0  0
   48.9894   34.3475   41.0090 H   0  0  0  0  0  0  0  0  0  0  0  0
   46.6056   35.4429   41.4703 H   0  0  0  0  0  0  0  0  0  0  0  0
   46.0824   34.1514   40.2737 H   0  0  0  0  0  0  0  0  0  0  0  0
   48.2010   34.2907   43.3086 H   0  0  0  0  0  0  0  0  0  0  0  0
   46.5532   35.1082   43.2870 H   0  0  0  0  0  0  0  0  0  0  0  0
   47.5943   33.3865   45.1920 H   0  0  0  0  0  0  0  0  0  0  0  0
   45.9107   34.0424   45.0079 H   0  0  0  0  0  0  0  0  0  0  0  0
   44.4912   31.4601   43.4577 H   0  0  0  0  0  0  0  0  0  0  0  0
   44.4965   33.1910   43.9035 H   0  0  0  0  0  0  0  0  0  0  0  0
   44.7716   33.3014   41.6145 H   0  0  0  0  0  0  0  0  0  0  0  0
   45.7771   31.7716   41.5945 H   0  0  0  0  0  0  0  0  0  0  0  0
   45.3258   33.4872   38.6122 H   0  0  0  0  0  0  0  0  0  0  0  0
   48.3734   32.7236   35.6301 H   0  0  0  0  0  0  0  0  0  0  0  0
   43.2463   31.5548   34.7769 H   0  0  0  0  0  0  0  0  0  0  0  0
   43.8771   29.9520   36.8740 H   0  0  0  0  0  0  0  0  0  0  0  0
   42.7996   29.3993   35.5472 H   0  0  0  0  0  0  0  0  0  0  0  0
   44.5350   28.9354   35.5472 H   0  0  0  0  0  0  0  0  0  0  0  0
   45.7990   29.9467   34.0811 H   0  0  0  0  0  0  0  0  0  0  0  0
   44.2509   29.8523   33.1749 H   0  0  0  0  0  0  0  0  0  0  0  0
   45.2000   31.3774   33.1749 H   0  0  0  0  0  0  0  0  0  0  0  0
  1  2  1  0
  2  3  1  0
  3  8  1  0
  3  4  1  0
  4  5  1  0
  6  5  1  0
  7  6  1  0
  8  7  1  0
  9  1  1  0
 10  9  1  0
 11 10  2  0
 13 12  2  0
 13 10  1  0
 14 13  1  0
 15 16  1  0
 15 14  2  0
 16 17  2  0
 17 12  1  0
 18 19  1  0
 18 16  1  0
 20 18  1  0
  1 21  1  0
  1 22  1  0
  2 23  1  0
  2 24  1  0
  4 25  1  0
  4 26  1  0
  5 27  1  0
  5 28  1  0
  7 29  1  0
  7 30  1  0
  8 31  1  0
  8 32  1  0
 12 33  1  0
 14 34  1  0
 18 35  1  0
 19 36  1  0
 19 37  1  0
 19 38  1  0
 20 39  1  0
 20 40  1  0
 20 41  1  0
M  ISO  8  21   8  22   8  23   8  24   8  25  13  26  13  27  13  28  13
M  ISO  8  29  13  30  13  31  13  32  13  33  14  34  14  35   8  36   8
M  ISO  5  37   8  38   8  39   8  40   8  41   8
M  END
>  <minimizedAffinity>  (1) 
-3.5705874

>  <minimizedRMSD>  (1) 
1.05373883

$$$$
