
     RDKit          3D

 33 34  0  0  0  0  0  0  0  0999 V2000
   46.8100   34.4460   40.9560 C   0  0  0  0  0  0  0  0  0  0  0  0
   46.7550   33.4720   42.0100 N   0  0  0  0  0  0  0  0  0  0  0  0
   47.1430   34.1610   43.2200 C   0  0  0  0  0  0  0  0  0  0  0  0
   46.7310   33.4890   44.4730 C   0  0  0  0  0  0  0  0  0  0  0  0
   46.2620   32.1750   44.2440 O   0  0  0  0  0  0  0  0  0  0  0  0
   45.1200   32.3820   43.4650 C   0  0  0  0  0  0  0  0  0  0  0  0
   45.5630   32.7190   42.0730 C   0  0  0  0  0  0  0  0  0  0  0  0
   48.1880   34.6390   40.3670 C   0  0  0  0  0  0  0  0  0  0  0  0
   48.3710   33.6650   39.3630 O   0  0  0  0  0  0  0  0  0  0  0  0
   48.0550   33.9100   38.0240 C   0  0  0  0  0  0  0  0  0  0  0  0
   48.5590   34.8690   37.4300 O   0  0  0  0  0  0  0  0  0  0  0  0
   45.8190   33.2390   37.0180 C   0  0  0  0  0  0  0  0  0  0  0  0
   47.1000   32.9250   37.4600 C   0  0  0  0  0  0  0  0  0  0  0  0
   47.5580   31.6000   37.3850 C   0  0  0  0  0  0  0  0  0  0  0  0
   46.7040   30.6550   36.8680 N   0  0  0  0  0  0  0  0  0  0  0  0
   45.4570   31.0430   36.4540 C   0  0  0  0  0  0  0  0  0  0  0  0
   45.0300   32.2820   36.5250 N   0  0  0  0  0  0  0  0  0  0  0  0
   44.6420   30.0410   35.9430 O   0  0  0  0  0  0  0  0  0  0  0  0
   46.1324   34.1236   40.1517 H   0  0  0  0  0  0  0  0  0  0  0  0
   46.5157   35.4093   41.3980 H   0  0  0  0  0  0  0  0  0  0  0  0
   48.2391   34.2537   43.2252 H   0  0  0  0  0  0  0  0  0  0  0  0
   46.6269   35.1323   43.2039 H   0  0  0  0  0  0  0  0  0  0  0  0
   47.5955   33.4435   45.1516 H   0  0  0  0  0  0  0  0  0  0  0  0
   45.9073   34.0701   44.9132 H   0  0  0  0  0  0  0  0  0  0  0  0
   44.5073   31.4685   43.4508 H   0  0  0  0  0  0  0  0  0  0  0  0
   44.5162   33.2012   43.8825 H   0  0  0  0  0  0  0  0  0  0  0  0
   44.7635   33.2980   41.5875 H   0  0  0  0  0  0  0  0  0  0  0  0
   45.7663   31.7638   41.5668 H   0  0  0  0  0  0  0  0  0  0  0  0
   48.2703   35.6454   39.9307 H   0  0  0  0  0  0  0  0  0  0  0  0
   48.9562   34.5339   41.1472 H   0  0  0  0  0  0  0  0  0  0  0  0
   45.4563   34.2759   37.0748 H   0  0  0  0  0  0  0  0  0  0  0  0
   48.5667   31.3271   37.7285 H   0  0  0  0  0  0  0  0  0  0  0  0
   44.9741   29.1097   35.8940 H   0  0  0  0  0  0  0  0  0  0  0  0
  1  2  1  0
  2  7  1  0
  2  3  1  0
  3  4  1  0
  5  4  1  0
  6  5  1  0
  7  6  1  0
  8  1  1  0
  9  8  1  0
 10  9  1  0
 11 10  2  0
 12 13  2  0
 13 10  1  0
 14 13  1  0
 15 14  2  0
 16 17  2  0
 16 15  1  0
 17 12  1  0
 18 16  1  0
  1 19  1  0
  1 20  1  0
  3 21  1  0
  3 22  1  0
  4 23  1  0
  4 24  1  0
  6 25  1  0
  6 26  1  0
  7 27  1  0
  7 28  1  0
  8 29  1  0
  8 30  1  0
 12 31  1  0
 14 32  1  0
 18 33  1  0
M  ISO  8  19   8  20   8  21  13  22  13  23  13  24  13  25  13  26  13
M  ISO  7  27  13  28  13  29   8  30   8  31  14  32  14  33   3
M  END
>  <minimizedAffinity>  (1) 
-3.23548913

>  <minimizedRMSD>  (1) 
0.280405313

$$$$
