
     RDKit          3D

 34 35  0  0  0  0  0  0  0  0999 V2000
   48.1830   34.6520   40.3580 C   0  0  0  0  0  0  0  0  0  0  0  0
   46.8240   34.4350   40.9490 C   0  0  0  0  0  0  0  0  0  0  0  0
   46.7630   33.4720   42.0060 N   0  0  0  0  0  0  0  0  0  0  0  0
   47.1370   34.1520   43.2160 C   0  0  0  0  0  0  0  0  0  0  0  0
   46.7180   33.4980   44.4740 C   0  0  0  0  0  0  0  0  0  0  0  0
   46.2250   32.2030   44.2510 O   0  0  0  0  0  0  0  0  0  0  0  0
   45.1070   32.3900   43.4560 C   0  0  0  0  0  0  0  0  0  0  0  0
   45.5510   32.7290   42.0660 C   0  0  0  0  0  0  0  0  0  0  0  0
   48.3840   33.6590   39.3630 O   0  0  0  0  0  0  0  0  0  0  0  0
   48.0480   33.9010   38.0130 C   0  0  0  0  0  0  0  0  0  0  0  0
   48.5560   34.8670   37.4280 O   0  0  0  0  0  0  0  0  0  0  0  0
   45.8100   33.2280   37.0170 C   0  0  0  0  0  0  0  0  0  0  0  0
   47.0940   32.9210   37.4590 C   0  0  0  0  0  0  0  0  0  0  0  0
   47.5540   31.6030   37.3930 C   0  0  0  0  0  0  0  0  0  0  0  0
   46.6950   30.6460   36.8800 N   0  0  0  0  0  0  0  0  0  0  0  0
   45.4530   31.0240   36.4670 C   0  0  0  0  0  0  0  0  0  0  0  0
   45.0240   32.2620   36.5310 N   0  0  0  0  0  0  0  0  0  0  0  0
   44.5270   30.0770   35.9300 N   0  0  0  0  0  0  0  0  0  0  0  0
   48.2393   35.6529   39.9053 H   0  0  0  0  0  0  0  0  0  0  0  0
   48.9575   34.5807   41.1358 H   0  0  0  0  0  0  0  0  0  0  0  0
   46.4682   35.3975   41.3453 H   0  0  0  0  0  0  0  0  0  0  0  0
   46.1996   34.0347   40.1367 H   0  0  0  0  0  0  0  0  0  0  0  0
   48.2334   34.2397   43.2295 H   0  0  0  0  0  0  0  0  0  0  0  0
   46.6128   35.1187   43.1913 H   0  0  0  0  0  0  0  0  0  0  0  0
   47.5843   33.4375   45.1491 H   0  0  0  0  0  0  0  0  0  0  0  0
   45.9106   34.0986   44.9183 H   0  0  0  0  0  0  0  0  0  0  0  0
   44.5084   31.4673   43.4377 H   0  0  0  0  0  0  0  0  0  0  0  0
   44.4941   33.2085   43.8615 H   0  0  0  0  0  0  0  0  0  0  0  0
   44.7587   33.3219   41.5857 H   0  0  0  0  0  0  0  0  0  0  0  0
   45.7395   31.7746   41.5527 H   0  0  0  0  0  0  0  0  0  0  0  0
   45.4429   34.2637   37.0676 H   0  0  0  0  0  0  0  0  0  0  0  0
   48.5640   31.3351   37.7369 H   0  0  0  0  0  0  0  0  0  0  0  0
   44.7934   29.0854   35.8487 H   0  0  0  0  0  0  0  0  0  0  0  0
   43.5933   30.3861   35.6243 H   0  0  0  0  0  0  0  0  0  0  0  0
  1  2  1  0
  2  3  1  0
  3  8  1  0
  3  4  1  0
  4  5  1  0
  6  5  1  0
  7  6  1  0
  8  7  1  0
  9  1  1  0
 10  9  1  0
 11 10  2  0
 12 13  2  0
 13 10  1  0
 14 13  1  0
 15 14  2  0
 16 17  2  0
 16 15  1  0
 17 12  1  0
 18 16  1  0
  1 19  1  0
  1 20  1  0
  2 21  1  0
  2 22  1  0
  4 23  1  0
  4 24  1  0
  5 25  1  0
  5 26  1  0
  7 27  1  0
  7 28  1  0
  8 29  1  0
  8 30  1  0
 12 31  1  0
 14 32  1  0
 18 33  1  0
 18 34  1  0
M  ISO  8  19   8  20   8  21   8  22   8  23  13  24  13  25  13  26  13
M  ISO  6  27  13  28  13  29  13  30  13  31  14  32  14
M  END
>  <minimizedAffinity>  (1) 
-3.23413849

>  <minimizedRMSD>  (1) 
0.280939966

$$$$
