
     RDKit          3D

 46 49  0  0  1  0  0  0  0  0999 V2000
   48.1140   34.0480   38.4240 C   0  0  0  0  0  0  0  0  0  0  0  0
   48.7160   35.0820   38.1580 O   0  0  0  0  0  0  0  0  0  0  0  0
   46.2470   33.2470   36.8760 C   0  0  0  0  0  0  0  0  0  0  0  0
   47.5190   33.0800   37.4660 C   0  0  0  0  0  0  0  0  0  0  0  0
   48.3130   31.9520   37.1660 C   0  0  0  0  0  0  0  0  0  0  0  0
   47.7940   31.0180   36.2730 N   0  0  0  0  0  0  0  0  0  0  0  0
   46.5610   31.2560   35.7520 C   0  0  0  0  0  0  0  0  0  0  0  0
   45.8010   32.3270   36.0310 N   0  0  0  0  0  0  0  0  0  0  0  0
   46.0080   30.2320   34.8030 C   0  0  1  0  0  0  0  0  0  0  0  0
   45.1800   30.6290   33.6680 C   0  0  0  0  0  0  0  0  0  0  0  0
   46.5730   30.2870   33.3700 C   0  0  1  0  0  0  0  0  0  0  0  0
   47.6360   31.2720   33.1470 C   0  0  0  0  0  0  0  0  0  0  0  0
   48.9830   31.1980   32.8810 C   0  0  0  0  0  0  0  0  0  0  0  0
   49.5320   32.4110   32.7450 N   0  0  0  0  0  0  0  0  0  0  0  0
   48.5290   33.2760   32.9240 C   0  0  0  0  0  0  0  0  0  0  0  0
   47.3920   32.6150   33.1650 N   0  0  0  0  0  0  0  0  0  0  0  0
   47.9280   33.6720   39.7590 O   0  0  0  0  0  0  0  0  0  0  0  0
   47.8100   34.6100   40.8000 C   0  0  0  0  0  0  0  0  0  0  0  0
   46.3780   34.5760   41.2990 C   0  0  0  0  0  0  0  0  0  0  0  0
   46.2300   34.8590   42.6950 N   0  0  0  0  0  0  0  0  0  0  0  0
   45.0690   35.7020   42.8460 C   0  0  0  0  0  0  0  0  0  0  0  0
   44.4790   35.7280   44.1910 C   0  0  0  0  0  0  0  0  0  0  0  0
   45.3160   35.1030   45.1480 O   0  0  0  0  0  0  0  0  0  0  0  0
   45.3910   33.7930   44.7370 C   0  0  0  0  0  0  0  0  0  0  0  0
   46.3030   33.7310   43.5490 C   0  0  0  0  0  0  0  0  0  0  0  0
   45.6339   34.1287   37.1141 H   0  0  0  0  0  0  0  0  0  0  0  0
   49.3052   31.8158   37.6209 H   0  0  0  0  0  0  0  0  0  0  0  0
   45.8826   29.4919   35.6071 H   0  0  0  0  0  0  0  0  0  0  0  0
   44.3754   29.9609   33.3270 H   0  0  0  0  0  0  0  0  0  0  0  0
   44.5567   31.5108   33.4587 H   0  0  0  0  0  0  0  0  0  0  0  0
   47.0260   29.6221   32.6199 H   0  0  0  0  0  0  0  0  0  0  0  0
   49.5422   30.2551   32.7908 H   0  0  0  0  0  0  0  0  0  0  0  0
   48.6248   34.3709   32.8796 H   0  0  0  0  0  0  0  0  0  0  0  0
   46.4750   33.0511   33.3374 H   0  0  0  0  0  0  0  0  0  0  0  0
   48.4971   34.3485   41.6182 H   0  0  0  0  0  0  0  0  0  0  0  0
   48.0658   35.6170   40.4388 H   0  0  0  0  0  0  0  0  0  0  0  0
   45.7992   35.3214   40.7338 H   0  0  0  0  0  0  0  0  0  0  0  0
   46.0177   33.5477   41.1477 H   0  0  0  0  0  0  0  0  0  0  0  0
   45.3596   36.7298   42.5831 H   0  0  0  0  0  0  0  0  0  0  0  0
   44.2986   35.2774   42.1856 H   0  0  0  0  0  0  0  0  0  0  0  0
   44.3186   36.7747   44.4886 H   0  0  0  0  0  0  0  0  0  0  0  0
   43.5287   35.1750   44.1568 H   0  0  0  0  0  0  0  0  0  0  0  0
   45.7932   33.1695   45.5491 H   0  0  0  0  0  0  0  0  0  0  0  0
   44.3915   33.4184   44.4710 H   0  0  0  0  0  0  0  0  0  0  0  0
   46.0429   32.8378   42.9620 H   0  0  0  0  0  0  0  0  0  0  0  0
   47.3296   33.7017   43.9429 H   0  0  0  0  0  0  0  0  0  0  0  0
  1 17  1  0
  2  1  2  0
  3  4  2  0
  4  1  1  0
  5  4  1  0
  6  5  2  0
  7  8  2  0
  7  6  1  0
  8  3  1  0
  9  7  1  0
 10  9  1  0
 11 10  1  0
 11  9  1  0
 12 16  1  0
 12 11  1  0
 13 12  2  0
 14 13  1  0
 14 15  2  0
 15 16  1  0
 17 18  1  0
 18 19  1  0
 19 20  1  0
 20 21  1  0
 20 25  1  0
 21 22  1  0
 22 23  1  0
 24 23  1  0
 25 24  1  0
  3 26  1  0
  5 27  1  0
  9 28  1  1
 10 29  1  0
 10 30  1  0
 11 31  1  6
 13 32  1  0
 15 33  1  0
 16 34  1  0
 18 35  1  0
 18 36  1  0
 19 37  1  0
 19 38  1  0
 21 39  1  0
 21 40  1  0
 22 41  1  0
 22 42  1  0
 24 43  1  0
 24 44  1  0
 25 45  1  0
 25 46  1  0
M  ISO  8  26  14  27  14  28  13  29  13  30  13  31  13  32  14  33  14
M  ISO  8  34   9  35   8  36   8  37   8  38   8  39  13  40  13  41  13
M  ISO  5  42  13  43  13  44  13  45  13  46  13
M  END
>  <minimizedAffinity>  (1) 
-4.8890605

>  <minimizedRMSD>  (1) 
1.43226171

$$$$
