
     RDKit          3D

 48 51  0  0  1  0  0  0  0  0999 V2000
   48.0920   33.9890   38.0920 C   0  0  0  0  0  0  0  0  0  0  0  0
   48.6590   34.9710   37.6190 O   0  0  0  0  0  0  0  0  0  0  0  0
   45.7850   33.1050   37.4330 C   0  0  0  0  0  0  0  0  0  0  0  0
   47.1960   33.0360   37.3790 C   0  0  0  0  0  0  0  0  0  0  0  0
   47.8510   32.0370   36.6270 C   0  0  0  0  0  0  0  0  0  0  0  0
   47.0560   31.1240   35.9410 N   0  0  0  0  0  0  0  0  0  0  0  0
   45.7020   31.2640   36.0470 C   0  0  0  0  0  0  0  0  0  0  0  0
   45.0700   32.2130   36.7620 N   0  0  0  0  0  0  0  0  0  0  0  0
   44.8620   30.2520   35.3120 C   0  0  1  0  0  0  0  0  0  0  0  0
   43.5340   30.6010   34.8190 C   0  0  0  0  0  0  0  0  0  0  0  0
   44.6130   30.5730   33.8220 C   0  0  2  0  0  0  0  0  0  0  0  0
   44.8650   29.4260   32.9450 C   0  0  0  0  0  0  0  0  0  0  0  0
   46.1350   29.2410   32.3890 C   0  0  0  0  0  0  0  0  0  0  0  0
   46.3650   28.1450   31.5540 C   0  0  0  0  0  0  0  0  0  0  0  0
   45.3380   27.2790   31.3010 C   0  0  0  0  0  0  0  0  0  0  0  0
   44.0870   27.4670   31.8520 C   0  0  0  0  0  0  0  0  0  0  0  0
   43.9170   28.5220   32.6390 N   0  0  0  0  0  0  0  0  0  0  0  0
   48.2620   33.6700   39.4390 O   0  0  0  0  0  0  0  0  0  0  0  0
   47.9510   34.5890   40.4690 C   0  0  0  0  0  0  0  0  0  0  0  0
   46.5700   34.2570   40.9830 C   0  0  0  0  0  0  0  0  0  0  0  0
   46.2370   34.8660   42.2370 N   0  0  0  0  0  0  0  0  0  0  0  0
   44.8780   35.3610   42.1280 C   0  0  0  0  0  0  0  0  0  0  0  0
   44.2040   35.6020   43.4140 C   0  0  0  0  0  0  0  0  0  0  0  0
   45.0950   35.5250   44.5060 O   0  0  0  0  0  0  0  0  0  0  0  0
   45.5340   34.2270   44.4890 C   0  0  0  0  0  0  0  0  0  0  0  0
   46.5190   34.0790   43.3730 C   0  0  0  0  0  0  0  0  0  0  0  0
   45.2873   33.8881   38.0237 H   0  0  0  0  0  0  0  0  0  0  0  0
   48.9488   31.9823   36.5849 H   0  0  0  0  0  0  0  0  0  0  0  0
   45.2449   29.4185   35.9191 H   0  0  0  0  0  0  0  0  0  0  0  0
   42.7502   29.8298   34.7876 H   0  0  0  0  0  0  0  0  0  0  0  0
   42.7951   31.3615   35.1116 H   0  0  0  0  0  0  0  0  0  0  0  0
   44.9108   31.2940   33.0464 H   0  0  0  0  0  0  0  0  0  0  0  0
   46.9454   29.9521   32.6073 H   0  0  0  0  0  0  0  0  0  0  0  0
   47.3568   27.9814   31.1072 H   0  0  0  0  0  0  0  0  0  0  0  0
   45.5126   26.4140   30.6443 H   0  0  0  0  0  0  0  0  0  0  0  0
   43.2620   26.7690   31.6468 H   0  0  0  0  0  0  0  0  0  0  0  0
   48.6848   34.5003   41.2837 H   0  0  0  0  0  0  0  0  0  0  0  0
   47.9808   35.6197   40.0860 H   0  0  0  0  0  0  0  0  0  0  0  0
   45.8361   34.5901   40.2343 H   0  0  0  0  0  0  0  0  0  0  0  0
   46.5530   33.1700   41.1505 H   0  0  0  0  0  0  0  0  0  0  0  0
   44.9029   36.3096   41.5716 H   0  0  0  0  0  0  0  0  0  0  0  0
   44.3018   34.5743   41.6190 H   0  0  0  0  0  0  0  0  0  0  0  0
   43.7529   36.6051   43.3950 H   0  0  0  0  0  0  0  0  0  0  0  0
   43.4400   34.8217   43.5461 H   0  0  0  0  0  0  0  0  0  0  0  0
   46.0180   33.9855   45.4468 H   0  0  0  0  0  0  0  0  0  0  0  0
   44.6863   33.5421   44.3397 H   0  0  0  0  0  0  0  0  0  0  0  0
   46.5332   33.0232   43.0648 H   0  0  0  0  0  0  0  0  0  0  0  0
   47.4876   34.4261   43.7620 H   0  0  0  0  0  0  0  0  0  0  0  0
  1 18  1  0
  2  1  2  0
  4  3  2  0
  4  1  1  0
  5  4  1  0
  6  7  1  0
  6  5  2  0
  7  8  2  0
  8  3  1  0
  9  7  1  0
 10  9  1  0
 11 10  1  0
 11  9  1  0
 12 11  1  0
 13 12  2  0
 14 13  1  0
 15 14  2  0
 15 16  1  0
 16 17  2  0
 17 12  1  0
 18 19  1  0
 19 20  1  0
 20 21  1  0
 21 26  1  0
 22 21  1  0
 22 23  1  0
 23 24  1  0
 25 24  1  0
 26 25  1  0
  3 27  1  0
  5 28  1  0
  9 29  1  6
 10 30  1  0
 10 31  1  0
 11 32  1  6
 13 33  1  0
 14 34  1  0
 15 35  1  0
 16 36  1  0
 19 37  1  0
 19 38  1  0
 20 39  1  0
 20 40  1  0
 22 41  1  0
 22 42  1  0
 23 43  1  0
 23 44  1  0
 25 45  1  0
 25 46  1  0
 26 47  1  0
 26 48  1  0
M  ISO  8  27  14  28  14  29  13  30  13  31  13  32  13  33  14  34  14
M  ISO  8  35  14  36  14  37   8  38   8  39   8  40   8  41  13  42  13
M  ISO  6  43  13  44  13  45  13  46  13  47  13  48  13
M  END
>  <minimizedAffinity>  (1) 
-4.66367292

>  <minimizedRMSD>  (1) 
0.804590702

$$$$
