
     RDKit          3D

 46 49  0  0  1  0  0  0  0  0999 V2000
   48.0990   34.0000   38.4870 C   0  0  0  0  0  0  0  0  0  0  0  0
   48.6990   35.0420   38.2260 O   0  0  0  0  0  0  0  0  0  0  0  0
   46.3030   33.2670   36.8240 C   0  0  0  0  0  0  0  0  0  0  0  0
   47.5110   33.0360   37.5210 C   0  0  0  0  0  0  0  0  0  0  0  0
   48.2410   31.8460   37.3280 C   0  0  0  0  0  0  0  0  0  0  0  0
   47.7310   30.9110   36.4310 N   0  0  0  0  0  0  0  0  0  0  0  0
   46.5620   31.2120   35.8020 C   0  0  0  0  0  0  0  0  0  0  0  0
   45.8610   32.3440   35.9800 N   0  0  0  0  0  0  0  0  0  0  0  0
   46.0140   30.1860   34.8510 C   0  0  1  0  0  0  0  0  0  0  0  0
   45.1620   30.5810   33.7330 C   0  0  0  0  0  0  0  0  0  0  0  0
   46.5600   30.2640   33.4110 C   0  0  1  0  0  0  0  0  0  0  0  0
   47.5980   31.2060   33.1830 C   0  0  0  0  0  0  0  0  0  0  0  0
   47.7100   32.5370   32.9680 C   0  0  0  0  0  0  0  0  0  0  0  0
   48.8980   33.1550   32.7940 C   0  0  0  0  0  0  0  0  0  0  0  0
   50.0700   32.3300   32.8450 C   0  0  0  0  0  0  0  0  0  0  0  0
   49.3710   30.5950   33.1600 S   0  0  0  0  0  0  0  0  0  0  0  0
   47.9130   33.6170   39.8140 O   0  0  0  0  0  0  0  0  0  0  0  0
   47.8070   34.5670   40.8600 C   0  0  0  0  0  0  0  0  0  0  0  0
   46.3610   34.5610   41.3470 C   0  0  0  0  0  0  0  0  0  0  0  0
   46.2260   34.8690   42.7400 N   0  0  0  0  0  0  0  0  0  0  0  0
   45.0580   35.7180   42.8660 C   0  0  0  0  0  0  0  0  0  0  0  0
   44.4580   35.7510   44.2160 C   0  0  0  0  0  0  0  0  0  0  0  0
   45.2810   35.1490   45.1800 O   0  0  0  0  0  0  0  0  0  0  0  0
   45.3880   33.8330   44.7910 C   0  0  0  0  0  0  0  0  0  0  0  0
   46.2980   33.7660   43.6080 C   0  0  0  0  0  0  0  0  0  0  0  0
   45.7381   34.1980   36.9792 H   0  0  0  0  0  0  0  0  0  0  0  0
   49.1817   31.6621   37.8676 H   0  0  0  0  0  0  0  0  0  0  0  0
   45.9128   29.4352   35.6486 H   0  0  0  0  0  0  0  0  0  0  0  0
   44.3634   29.9033   33.3969 H   0  0  0  0  0  0  0  0  0  0  0  0
   44.5210   31.4543   33.5421 H   0  0  0  0  0  0  0  0  0  0  0  0
   47.0068   29.6199   32.6394 H   0  0  0  0  0  0  0  0  0  0  0  0
   46.7925   33.1428   32.9334 H   0  0  0  0  0  0  0  0  0  0  0  0
   48.9637   34.2394   32.6214 H   0  0  0  0  0  0  0  0  0  0  0  0
   51.1217   32.6310   32.7293 H   0  0  0  0  0  0  0  0  0  0  0  0
   48.4813   34.2930   41.6848 H   0  0  0  0  0  0  0  0  0  0  0  0
   48.0887   35.5680   40.5014 H   0  0  0  0  0  0  0  0  0  0  0  0
   45.7958   35.3070   40.7690 H   0  0  0  0  0  0  0  0  0  0  0  0
   45.9749   33.5412   41.2021 H   0  0  0  0  0  0  0  0  0  0  0  0
   45.3499   36.7437   42.5962 H   0  0  0  0  0  0  0  0  0  0  0  0
   44.2938   35.2940   42.1980 H   0  0  0  0  0  0  0  0  0  0  0  0
   44.2874   36.7995   44.5016 H   0  0  0  0  0  0  0  0  0  0  0  0
   43.5150   35.1859   44.1788 H   0  0  0  0  0  0  0  0  0  0  0  0
   45.8041   33.2343   45.6147 H   0  0  0  0  0  0  0  0  0  0  0  0
   44.3970   33.4332   44.5300 H   0  0  0  0  0  0  0  0  0  0  0  0
   46.0450   32.8627   43.0336 H   0  0  0  0  0  0  0  0  0  0  0  0
   47.3225   33.7563   44.0084 H   0  0  0  0  0  0  0  0  0  0  0  0
  1 17  1  0
  2  1  2  0
  3  4  2  0
  4  1  1  0
  5  4  1  0
  6  5  2  0
  7  8  2  0
  7  6  1  0
  8  3  1  0
  9  7  1  0
 10  9  1  0
 11 10  1  0
 11  9  1  0
 12 11  1  0
 13 12  2  0
 14 15  2  0
 14 13  1  0
 15 16  1  0
 16 12  1  0
 17 18  1  0
 18 19  1  0
 19 20  1  0
 20 21  1  0
 20 25  1  0
 21 22  1  0
 22 23  1  0
 24 23  1  0
 25 24  1  0
  3 26  1  0
  5 27  1  0
  9 28  1  1
 10 29  1  0
 10 30  1  0
 11 31  1  6
 13 32  1  0
 14 33  1  0
 15 34  1  0
 18 35  1  0
 18 36  1  0
 19 37  1  0
 19 38  1  0
 21 39  1  0
 21 40  1  0
 22 41  1  0
 22 42  1  0
 24 43  1  0
 24 44  1  0
 25 45  1  0
 25 46  1  0
M  ISO  8  26  14  27  14  28  13  29  13  30  13  31  13  32  14  33  14
M  ISO  8  34  14  35   8  36   8  37   8  38   8  39  13  40  13  41  13
M  ISO  5  42  13  43  13  44  13  45  13  46  13
M  END
>  <minimizedAffinity>  (1) 
-4.58211565

>  <minimizedRMSD>  (1) 
1.45834589

$$$$
