
     RDKit          3D

 51 53  0  0  1  0  0  0  0  0999 V2000
   47.8400   33.4060   39.3170 O   0  0  0  0  0  0  0  0  0  0  0  0
   48.0150   34.1560   40.5160 C   0  0  0  0  0  0  0  0  0  0  0  0
   46.6450   34.5030   41.0500 C   0  0  0  0  0  0  0  0  0  0  0  0
   46.5340   34.4770   42.4790 N   0  0  0  0  0  0  0  0  0  0  0  0
   45.5620   35.4750   42.8530 C   0  0  0  0  0  0  0  0  0  0  0  0
   44.9360   35.2710   44.1740 C   0  0  0  0  0  0  0  0  0  0  0  0
   45.6420   34.3090   44.9420 O   0  0  0  0  0  0  0  0  0  0  0  0
   45.4840   33.1490   44.2370 C   0  0  0  0  0  0  0  0  0  0  0  0
   46.3750   33.1960   43.0350 C   0  0  0  0  0  0  0  0  0  0  0  0
   48.2720   33.9080   38.0850 C   0  0  0  0  0  0  0  0  0  0  0  0
   48.6850   35.0660   37.9990 O   0  0  0  0  0  0  0  0  0  0  0  0
   46.9980   32.7370   36.2050 C   0  0  0  0  0  0  0  0  0  0  0  0
   48.1630   32.9080   36.9860 C   0  0  0  0  0  0  0  0  0  0  0  0
   49.3100   32.1310   36.7550 C   0  0  0  0  0  0  0  0  0  0  0  0
   49.2570   31.1930   35.7340 N   0  0  0  0  0  0  0  0  0  0  0  0
   48.0820   31.0980   35.0260 C   0  0  0  0  0  0  0  0  0  0  0  0
   46.9770   31.8360   35.2400 N   0  0  0  0  0  0  0  0  0  0  0  0
   48.0370   30.0790   33.9250 C   0  0  1  0  0  0  0  0  0  0  0  0
   47.1400   30.2750   32.7820 C   0  0  0  0  0  0  0  0  0  0  0  0
   48.5700   30.4810   32.5740 C   0  0  1  0  0  0  0  0  0  0  0  0
   49.2680   31.7270   32.2570 C   0  0  0  0  0  0  0  0  0  0  0  0
   50.6450   31.7260   32.8800 C   0  0  0  0  0  0  0  0  0  0  0  0
   48.5230   32.9950   32.5780 C   0  0  0  0  0  0  0  0  0  0  0  0
   49.4870   31.7700   30.7370 C   0  0  0  0  0  0  0  0  0  0  0  0
   48.5636   33.5550   41.2562 H   0  0  0  0  0  0  0  0  0  0  0  0
   48.5914   35.0711   40.3152 H   0  0  0  0  0  0  0  0  0  0  0  0
   46.3894   35.5157   40.7050 H   0  0  0  0  0  0  0  0  0  0  0  0
   45.9596   33.7305   40.6714 H   0  0  0  0  0  0  0  0  0  0  0  0
   46.0635   36.4540   42.8604 H   0  0  0  0  0  0  0  0  0  0  0  0
   44.7502   35.4061   42.1139 H   0  0  0  0  0  0  0  0  0  0  0  0
   44.9294   36.2272   44.7177 H   0  0  0  0  0  0  0  0  0  0  0  0
   43.9116   34.9023   44.0168 H   0  0  0  0  0  0  0  0  0  0  0  0
   45.7584   32.2912   44.8685 H   0  0  0  0  0  0  0  0  0  0  0  0
   44.4353   33.0394   43.9236 H   0  0  0  0  0  0  0  0  0  0  0  0
   45.9480   32.5373   42.2645 H   0  0  0  0  0  0  0  0  0  0  0  0
   47.3718   32.8739   43.3707 H   0  0  0  0  0  0  0  0  0  0  0  0
   46.1088   33.3543   36.4008 H   0  0  0  0  0  0  0  0  0  0  0  0
   50.2181   32.2615   37.3620 H   0  0  0  0  0  0  0  0  0  0  0  0
   48.2100   29.2607   34.6395 H   0  0  0  0  0  0  0  0  0  0  0  0
   46.6429   29.4067   32.3249 H   0  0  0  0  0  0  0  0  0  0  0  0
   46.2444   30.8895   32.6079 H   0  0  0  0  0  0  0  0  0  0  0  0
   49.3131   30.0958   31.8603 H   0  0  0  0  0  0  0  0  0  0  0  0
   50.5516   31.7261   33.9760 H   0  0  0  0  0  0  0  0  0  0  0  0
   51.1922   30.8275   32.5587 H   0  0  0  0  0  0  0  0  0  0  0  0
   51.1935   32.6237   32.5587 H   0  0  0  0  0  0  0  0  0  0  0  0
   48.4536   33.1132   33.6694 H   0  0  0  0  0  0  0  0  0  0  0  0
   49.0599   33.8542   32.1496 H   0  0  0  0  0  0  0  0  0  0  0  0
   47.5111   32.9442   32.1496 H   0  0  0  0  0  0  0  0  0  0  0  0
   50.5461   31.9780   30.5249 H   0  0  0  0  0  0  0  0  0  0  0  0
   49.2089   30.8001   30.2989 H   0  0  0  0  0  0  0  0  0  0  0  0
   48.8628   32.5627   30.2989 H   0  0  0  0  0  0  0  0  0  0  0  0
  1  2  1  0
  2  3  1  0
  3  4  1  0
  4  5  1  0
  4  9  1  0
  5  6  1  0
  6  7  1  0
  8  7  1  0
  9  8  1  0
 10  1  1  0
 11 10  2  0
 12 13  2  0
 13 10  1  0
 14 13  1  0
 15 14  2  0
 16 17  2  0
 16 15  1  0
 17 12  1  0
 18 16  1  0
 19 18  1  0
 20 19  1  0
 20 18  1  0
 21 20  1  0
 21 23  1  0
 21 22  1  0
 24 21  1  0
  2 25  1  0
  2 26  1  0
  3 27  1  0
  3 28  1  0
  5 29  1  0
  5 30  1  0
  6 31  1  0
  6 32  1  0
  8 33  1  0
  8 34  1  0
  9 35  1  0
  9 36  1  0
 12 37  1  0
 14 38  1  0
 18 39  1  1
 19 40  1  0
 19 41  1  0
 20 42  1  6
 22 43  1  0
 22 44  1  0
 22 45  1  0
 23 46  1  0
 23 47  1  0
 23 48  1  0
 24 49  1  0
 24 50  1  0
 24 51  1  0
M  ISO  8  25   8  26   8  27   8  28   8  29  13  30  13  31  13  32  13
M  ISO  8  33  13  34  13  35  13  36  13  37  14  38  14  39  13  40  13
M  ISO  8  41  13  42  13  43   8  44   8  45   8  46   8  47   8  48   8
M  ISO  3  49   8  50   8  51   8
M  END
>  <minimizedAffinity>  (1) 
-4.53568888

>  <minimizedRMSD>  (1) 
2.39583397

$$$$
