
     RDKit          3D

 23 25  0  0  0  0  0  0  0  0999 V2000
   44.8140   35.0710   45.6190 C   0  0  0  0  0  0  0  0  0  0  0  0
   44.3370   35.7160   44.4550 C   0  0  0  0  0  0  0  0  0  0  0  0
   44.7630   35.2060   43.2030 C   0  0  0  0  0  0  0  0  0  0  0  0
   45.5920   34.1420   43.1870 N   0  0  0  0  0  0  0  0  0  0  0  0
   46.0360   33.5410   44.3380 C   0  0  0  0  0  0  0  0  0  0  0  0
   45.6330   34.0250   45.5020 N   0  0  0  0  0  0  0  0  0  0  0  0
   46.9090   32.4290   44.3130 N   0  0  0  0  0  0  0  0  0  0  0  0
   47.6580   32.2720   43.1850 C   0  0  0  0  0  0  0  0  0  0  0  0
   48.4220   31.1320   43.4140 C   0  0  0  0  0  0  0  0  0  0  0  0
   48.1380   30.6390   44.6170 N   0  0  0  0  0  0  0  0  0  0  0  0
   47.2000   31.4280   45.1950 C   0  0  0  0  0  0  0  0  0  0  0  0
   46.5480   31.3050   46.5190 C   0  0  0  0  0  0  0  0  0  0  0  0
   47.2500   31.9550   47.5830 C   0  0  0  0  0  0  0  0  0  0  0  0
   46.1400   31.5820   49.0460 S   0  0  0  0  0  0  0  0  0  0  0  0
   44.9380   30.6180   47.9360 C   0  0  0  0  0  0  0  0  0  0  0  0
   45.4530   30.7160   46.8980 N   0  0  0  0  0  0  0  0  0  0  0  0
   44.5118   35.4293   46.6141 H   0  0  0  0  0  0  0  0  0  0  0  0
   43.6606   36.5812   44.5185 H   0  0  0  0  0  0  0  0  0  0  0  0
   44.4246   35.6683   42.2639 H   0  0  0  0  0  0  0  0  0  0  0  0
   47.6583   32.9087   42.2880 H   0  0  0  0  0  0  0  0  0  0  0  0
   49.1494   30.7038   42.7087 H   0  0  0  0  0  0  0  0  0  0  0  0
   48.1915   32.5230   47.5507 H   0  0  0  0  0  0  0  0  0  0  0  0
   44.0032   30.1037   48.2037 H   0  0  0  0  0  0  0  0  0  0  0  0
  2  1  2  0
  3  2  1  0
  4  3  2  0
  4  5  1  0
  5  6  2  0
  6  1  1  0
  7  5  1  0
  7 11  1  0
  8  9  2  0
  8  7  1  0
  9 10  1  0
 10 11  2  0
 11 12  1  0
 12 16  1  0
 12 13  2  0
 13 14  1  0
 15 14  1  0
 16 15  2  0
  1 17  1  0
  2 18  1  0
  3 19  1  0
  8 20  1  0
  9 21  1  0
 13 22  1  0
 15 23  1  0
M  ISO  7  17  14  18  14  19  14  20  14  21  14  22  14  23  14
M  END
>  <minimizedAffinity>  (1) 
-4.28391838

>  <minimizedRMSD>  (1) 
3.43937445

$$$$
