
     RDKit          3D

 17 18  0  0  0  0  0  0  0  0999 V2000
   44.6070   35.9220   44.3530 C   0  0  0  0  0  0  0  0  0  0  0  0
   45.3520   35.8680   43.1510 C   0  0  0  0  0  0  0  0  0  0  0  0
   46.2920   34.8510   43.0010 C   0  0  0  0  0  0  0  0  0  0  0  0
   46.4380   33.9610   44.0310 N   0  0  0  0  0  0  0  0  0  0  0  0
   45.7120   34.0430   45.1620 C   0  0  0  0  0  0  0  0  0  0  0  0
   44.8040   35.0140   45.3200 N   0  0  0  0  0  0  0  0  0  0  0  0
   47.0780   34.7830   41.7470 C   0  0  0  0  0  0  0  0  0  0  0  0
   48.4230   35.4840   41.7910 C   0  0  0  0  0  0  0  0  0  0  0  0
   48.3430   34.0020   41.7150 C   0  0  0  0  0  0  0  0  0  0  0  0
   43.8594   36.7162   44.4954 H   0  0  0  0  0  0  0  0  0  0  0  0
   45.1928   36.6105   42.3551 H   0  0  0  0  0  0  0  0  0  0  0  0
   45.8664   33.3055   45.9634 H   0  0  0  0  0  0  0  0  0  0  0  0
   46.1802   34.7959   41.1116 H   0  0  0  0  0  0  0  0  0  0  0  0
   48.7721   36.0630   40.9233 H   0  0  0  0  0  0  0  0  0  0  0  0
   48.9059   36.2072   42.4646 H   0  0  0  0  0  0  0  0  0  0  0  0
   48.6317   33.3941   42.5851 H   0  0  0  0  0  0  0  0  0  0  0  0
   48.7616   33.2423   41.0385 H   0  0  0  0  0  0  0  0  0  0  0  0
  1  6  2  0
  2  1  1  0
  3  2  2  0
  3  4  1  0
  4  5  2  0
  5  6  1  0
  7  8  1  0
  7  3  1  0
  9  7  1  0
  9  8  1  0
  1 10  1  0
  2 11  1  0
  5 12  1  0
  7 13  1  0
  8 14  1  0
  8 15  1  0
  9 16  1  0
  9 17  1  0
M  ISO  8  10  14  11  14  12  14  13  13  14  13  15  13  16  13  17  13
M  END
>  <minimizedAffinity>  (1) 
-3.70100546

>  <minimizedRMSD>  (1) 
0.657089651

$$$$
