
     RDKit          3D

 44 47  0  0  1  0  0  0  0  0999 V2000
   48.1080   33.9850   38.0930 C   0  0  0  0  0  0  0  0  0  0  0  0
   48.6660   34.9720   37.6150 O   0  0  0  0  0  0  0  0  0  0  0  0
   45.8020   33.1240   37.4120 C   0  0  0  0  0  0  0  0  0  0  0  0
   47.2110   33.0300   37.3890 C   0  0  0  0  0  0  0  0  0  0  0  0
   47.8600   32.0020   36.6780 C   0  0  0  0  0  0  0  0  0  0  0  0
   47.0620   31.0860   36.0010 N   0  0  0  0  0  0  0  0  0  0  0  0
   45.7040   31.2510   36.0750 C   0  0  0  0  0  0  0  0  0  0  0  0
   45.0790   32.2310   36.7520 N   0  0  0  0  0  0  0  0  0  0  0  0
   44.8700   30.2300   35.3460 C   0  0  1  0  0  0  0  0  0  0  0  0
   43.5100   30.5630   34.9270 C   0  0  0  0  0  0  0  0  0  0  0  0
   44.5520   30.5800   33.8790 C   0  0  2  0  0  0  0  0  0  0  0  0
   44.5750   29.4000   32.9800 C   0  0  0  0  0  0  0  0  0  0  0  0
   43.6370   28.4670   32.7350 N   0  0  0  0  0  0  0  0  0  0  0  0
   44.0960   27.6040   31.8630 O   0  0  0  0  0  0  0  0  0  0  0  0
   45.3050   27.9220   31.5130 C   0  0  0  0  0  0  0  0  0  0  0  0
   45.6220   29.0360   32.1980 N   0  0  0  0  0  0  0  0  0  0  0  0
   48.2860   33.6550   39.4470 O   0  0  0  0  0  0  0  0  0  0  0  0
   47.9670   34.5910   40.4700 C   0  0  0  0  0  0  0  0  0  0  0  0
   46.5760   34.2530   40.9770 C   0  0  0  0  0  0  0  0  0  0  0  0
   46.2380   34.8650   42.2270 N   0  0  0  0  0  0  0  0  0  0  0  0
   44.8880   35.3650   42.1120 C   0  0  0  0  0  0  0  0  0  0  0  0
   44.1800   35.5700   43.3870 C   0  0  0  0  0  0  0  0  0  0  0  0
   45.0740   35.5320   44.4880 O   0  0  0  0  0  0  0  0  0  0  0  0
   45.5400   34.2450   44.4840 C   0  0  0  0  0  0  0  0  0  0  0  0
   46.5330   34.1030   43.3730 C   0  0  0  0  0  0  0  0  0  0  0  0
   45.3090   33.9316   37.9730 H   0  0  0  0  0  0  0  0  0  0  0  0
   48.9572   31.9264   36.6589 H   0  0  0  0  0  0  0  0  0  0  0  0
   45.3033   29.3885   35.9066 H   0  0  0  0  0  0  0  0  0  0  0  0
   42.7409   29.7767   34.9122 H   0  0  0  0  0  0  0  0  0  0  0  0
   42.7693   31.2996   35.2718 H   0  0  0  0  0  0  0  0  0  0  0  0
   44.8940   31.3118   33.1323 H   0  0  0  0  0  0  0  0  0  0  0  0
   45.9449   27.3858   30.7968 H   0  0  0  0  0  0  0  0  0  0  0  0
   48.6954   34.5138   41.2907 H   0  0  0  0  0  0  0  0  0  0  0  0
   47.9990   35.6189   40.0797 H   0  0  0  0  0  0  0  0  0  0  0  0
   45.8455   34.5827   40.2236 H   0  0  0  0  0  0  0  0  0  0  0  0
   46.5578   33.1659   41.1441 H   0  0  0  0  0  0  0  0  0  0  0  0
   44.9272   36.3305   41.5865 H   0  0  0  0  0  0  0  0  0  0  0  0
   44.3228   34.5909   41.5723 H   0  0  0  0  0  0  0  0  0  0  0  0
   43.6805   36.5498   43.3654 H   0  0  0  0  0  0  0  0  0  0  0  0
   43.4459   34.7599   43.5093 H   0  0  0  0  0  0  0  0  0  0  0  0
   46.0252   34.0230   45.4459 H   0  0  0  0  0  0  0  0  0  0  0  0
   44.7063   33.5427   44.3365 H   0  0  0  0  0  0  0  0  0  0  0  0
   46.5724   33.0433   43.0805 H   0  0  0  0  0  0  0  0  0  0  0  0
   47.4920   34.4777   43.7601 H   0  0  0  0  0  0  0  0  0  0  0  0
  1 17  1  0
  2  1  2  0
  4  3  2  0
  4  1  1  0
  5  4  1  0
  6  7  1  0
  6  5  2  0
  7  8  2  0
  8  3  1  0
  9  7  1  0
 10  9  1  0
 11 10  1  0
 11  9  1  0
 12 11  1  0
 13 12  2  0
 14 13  1  0
 15 14  1  0
 15 16  2  0
 16 12  1  0
 17 18  1  0
 18 19  1  0
 19 20  1  0
 20 25  1  0
 21 20  1  0
 21 22  1  0
 22 23  1  0
 24 23  1  0
 25 24  1  0
  3 26  1  0
  5 27  1  0
  9 28  1  6
 10 29  1  0
 10 30  1  0
 11 31  1  6
 15 32  1  0
 18 33  1  0
 18 34  1  0
 19 35  1  0
 19 36  1  0
 21 37  1  0
 21 38  1  0
 22 39  1  0
 22 40  1  0
 24 41  1  0
 24 42  1  0
 25 43  1  0
 25 44  1  0
M  ISO  8  26  14  27  14  28  13  29  13  30  13  31  13  32  14  33   8
M  ISO  8  34   8  35   8  36   8  37  13  38  13  39  13  40  13  41  13
M  ISO  3  42  13  43  13  44  13
M  END
>  <minimizedAffinity>  (1) 
-4.48904467

>  <minimizedRMSD>  (1) 
0.653890252

$$$$
