
     RDKit          3D

 46 49  0  0  1  0  0  0  0  0999 V2000
   48.2750   33.5560   39.2220 O   0  0  0  0  0  0  0  0  0  0  0  0
   47.9850   34.4610   40.2780 C   0  0  0  0  0  0  0  0  0  0  0  0
   46.5920   34.1500   40.7840 C   0  0  0  0  0  0  0  0  0  0  0  0
   46.2320   34.8590   41.9760 N   0  0  0  0  0  0  0  0  0  0  0  0
   44.8270   35.1910   41.8540 C   0  0  0  0  0  0  0  0  0  0  0  0
   44.1410   35.4700   43.1360 C   0  0  0  0  0  0  0  0  0  0  0  0
   45.0590   35.6170   44.2020 O   0  0  0  0  0  0  0  0  0  0  0  0
   45.6540   34.3910   44.3040 C   0  0  0  0  0  0  0  0  0  0  0  0
   46.6220   34.2330   43.1740 C   0  0  0  0  0  0  0  0  0  0  0  0
   48.0940   33.9100   37.8860 C   0  0  0  0  0  0  0  0  0  0  0  0
   48.6100   34.9380   37.4480 O   0  0  0  0  0  0  0  0  0  0  0  0
   45.8920   33.1610   36.8270 C   0  0  0  0  0  0  0  0  0  0  0  0
   47.2520   32.9370   37.1380 C   0  0  0  0  0  0  0  0  0  0  0  0
   47.9070   31.7490   36.7460 C   0  0  0  0  0  0  0  0  0  0  0  0
   47.1650   30.8060   36.0410 N   0  0  0  0  0  0  0  0  0  0  0  0
   45.8480   31.1080   35.7820 C   0  0  0  0  0  0  0  0  0  0  0  0
   45.2200   32.2380   36.1530 N   0  0  0  0  0  0  0  0  0  0  0  0
   45.0670   30.0580   35.0350 C   0  0  1  0  0  0  0  0  0  0  0  0
   43.9890   30.4530   34.1320 C   0  0  0  0  0  0  0  0  0  0  0  0
   45.2660   30.0690   33.5040 C   0  0  2  0  0  0  0  0  0  0  0  0
   45.3520   28.6840   32.9030 C   0  0  0  0  0  0  0  0  0  0  0  0
   45.9250   28.6010   31.4810 C   0  0  0  0  0  0  0  0  0  0  0  0
   44.5140   28.2780   31.7510 C   0  0  0  0  0  0  0  0  0  0  0  0
   48.7154   34.3343   41.0907 H   0  0  0  0  0  0  0  0  0  0  0  0
   48.0411   35.4997   39.9204 H   0  0  0  0  0  0  0  0  0  0  0  0
   45.8713   34.4116   39.9952 H   0  0  0  0  0  0  0  0  0  0  0  0
   46.5766   33.0790   41.0344 H   0  0  0  0  0  0  0  0  0  0  0  0
   44.7405   36.0845   41.2182 H   0  0  0  0  0  0  0  0  0  0  0  0
   44.3355   34.3046   41.4265 H   0  0  0  0  0  0  0  0  0  0  0  0
   43.5613   36.3993   43.0347 H   0  0  0  0  0  0  0  0  0  0  0  0
   43.4847   34.6175   43.3651 H   0  0  0  0  0  0  0  0  0  0  0  0
   46.1886   34.3174   45.2626 H   0  0  0  0  0  0  0  0  0  0  0  0
   44.8918   33.5992   44.2586 H   0  0  0  0  0  0  0  0  0  0  0  0
   46.7446   33.1581   42.9752 H   0  0  0  0  0  0  0  0  0  0  0  0
   47.5544   34.7224   43.4919 H   0  0  0  0  0  0  0  0  0  0  0  0
   45.3960   34.0914   37.1408 H   0  0  0  0  0  0  0  0  0  0  0  0
   48.9656   31.5752   36.9891 H   0  0  0  0  0  0  0  0  0  0  0  0
   45.1344   29.3352   35.8614 H   0  0  0  0  0  0  0  0  0  0  0  0
   43.1126   29.7980   34.0181 H   0  0  0  0  0  0  0  0  0  0  0  0
   43.3493   31.3451   34.0618 H   0  0  0  0  0  0  0  0  0  0  0  0
   45.9379   30.5433   32.7735 H   0  0  0  0  0  0  0  0  0  0  0  0
   45.5407   28.2394   33.8913 H   0  0  0  0  0  0  0  0  0  0  0  0
   46.6340   27.8027   31.2164 H   0  0  0  0  0  0  0  0  0  0  0  0
   46.4565   29.2905   30.8086 H   0  0  0  0  0  0  0  0  0  0  0  0
   43.7242   28.9532   31.3900 H   0  0  0  0  0  0  0  0  0  0  0  0
   43.8785   27.4050   31.5412 H   0  0  0  0  0  0  0  0  0  0  0  0
  1  2  1  0
  2  3  1  0
  3  4  1  0
  4  9  1  0
  5  4  1  0
  5  6  1  0
  6  7  1  0
  7  8  1  0
  9  8  1  0
 10  1  1  0
 11 10  2  0
 12 13  2  0
 13 10  1  0
 14 13  1  0
 15 14  2  0
 16 15  1  0
 16 17  2  0
 17 12  1  0
 18 16  1  0
 19 18  1  0
 20 19  1  0
 20 18  1  0
 21 20  1  0
 22 23  1  0
 22 21  1  0
 23 21  1  0
  2 24  1  0
  2 25  1  0
  3 26  1  0
  3 27  1  0
  5 28  1  0
  5 29  1  0
  6 30  1  0
  6 31  1  0
  8 32  1  0
  8 33  1  0
  9 34  1  0
  9 35  1  0
 12 36  1  0
 14 37  1  0
 18 38  1  1
 19 39  1  0
 19 40  1  0
 20 41  1  1
 21 42  1  0
 22 43  1  0
 22 44  1  0
 23 45  1  0
 23 46  1  0
M  ISO  8  24   8  25   8  26   8  27   8  28  13  29  13  30  13  31  13
M  ISO  8  32  13  33  13  34  13  35  13  36  14  37  14  38  13  39  13
M  ISO  7  40  13  41  13  42  13  43  13  44  13  45  13  46  13
M  END
>  <minimizedAffinity>  (1) 
-4.24191666

>  <minimizedRMSD>  (1) 
1.01157463

$$$$
