
     RDKit          3D

 45 47  0  0  1  0  0  0  0  0999 V2000
   48.2870   33.6270   39.3630 O   0  0  0  0  0  0  0  0  0  0  0  0
   47.9740   34.5550   40.3980 C   0  0  0  0  0  0  0  0  0  0  0  0
   46.5800   34.2250   40.8940 C   0  0  0  0  0  0  0  0  0  0  0  0
   46.2090   34.8960   42.1030 N   0  0  0  0  0  0  0  0  0  0  0  0
   44.8210   35.2710   41.9880 C   0  0  0  0  0  0  0  0  0  0  0  0
   44.1330   35.5210   43.2690 C   0  0  0  0  0  0  0  0  0  0  0  0
   45.0410   35.5880   44.3510 O   0  0  0  0  0  0  0  0  0  0  0  0
   45.5900   34.3340   44.4030 C   0  0  0  0  0  0  0  0  0  0  0  0
   46.5760   34.2110   43.2870 C   0  0  0  0  0  0  0  0  0  0  0  0
   48.1210   33.9670   38.0180 C   0  0  0  0  0  0  0  0  0  0  0  0
   48.6820   34.9590   37.5570 O   0  0  0  0  0  0  0  0  0  0  0  0
   45.8570   33.2410   37.0790 C   0  0  0  0  0  0  0  0  0  0  0  0
   47.2350   33.0150   37.2920 C   0  0  0  0  0  0  0  0  0  0  0  0
   47.8650   31.8470   36.8130 C   0  0  0  0  0  0  0  0  0  0  0  0
   47.0790   30.9290   36.1240 N   0  0  0  0  0  0  0  0  0  0  0  0
   45.7540   31.2260   35.9630 C   0  0  0  0  0  0  0  0  0  0  0  0
   45.1490   32.3370   36.4170 N   0  0  0  0  0  0  0  0  0  0  0  0
   44.9210   30.2080   35.2290 C   0  0  1  0  0  0  0  0  0  0  0  0
   43.7030   30.6210   34.5360 C   0  0  0  0  0  0  0  0  0  0  0  0
   44.8930   30.3750   33.6970 C   0  0  2  0  0  0  0  0  0  0  0  0
   45.1160   29.0750   32.9600 C   0  0  0  0  0  0  0  0  0  0  0  0
   46.3460   29.1440   32.0770 C   0  0  0  0  0  0  0  0  0  0  0  0
   48.6983   34.4599   41.2204 H   0  0  0  0  0  0  0  0  0  0  0  0
   48.0187   35.5876   40.0214 H   0  0  0  0  0  0  0  0  0  0  0  0
   45.8606   34.5049   40.1103 H   0  0  0  0  0  0  0  0  0  0  0  0
   46.5727   33.1479   41.1174 H   0  0  0  0  0  0  0  0  0  0  0  0
   44.7648   36.1898   41.3858 H   0  0  0  0  0  0  0  0  0  0  0  0
   44.3088   34.4137   41.5269 H   0  0  0  0  0  0  0  0  0  0  0  0
   43.5901   36.4752   43.2008 H   0  0  0  0  0  0  0  0  0  0  0  0
   43.4431   34.6845   43.4543 H   0  0  0  0  0  0  0  0  0  0  0  0
   46.0989   34.1897   45.3675 H   0  0  0  0  0  0  0  0  0  0  0  0
   44.8047   33.5703   44.3029 H   0  0  0  0  0  0  0  0  0  0  0  0
   46.6907   33.1440   43.0455 H   0  0  0  0  0  0  0  0  0  0  0  0
   47.5092   34.6738   43.6406 H   0  0  0  0  0  0  0  0  0  0  0  0
   45.3776   34.1557   37.4578 H   0  0  0  0  0  0  0  0  0  0  0  0
   48.9378   31.6689   36.9782 H   0  0  0  0  0  0  0  0  0  0  0  0
   45.1432   29.4150   35.9582 H   0  0  0  0  0  0  0  0  0  0  0  0
   42.8505   29.9280   34.4816 H   0  0  0  0  0  0  0  0  0  0  0  0
   43.0189   31.4749   34.6494 H   0  0  0  0  0  0  0  0  0  0  0  0
   45.3669   30.9689   32.9016 H   0  0  0  0  0  0  0  0  0  0  0  0
   45.2468   28.2657   33.6934 H   0  0  0  0  0  0  0  0  0  0  0  0
   44.2412   28.8848   32.3209 H   0  0  0  0  0  0  0  0  0  0  0  0
   47.2468   29.1945   32.7063 H   0  0  0  0  0  0  0  0  0  0  0  0
   46.3922   28.2470   31.4419 H   0  0  0  0  0  0  0  0  0  0  0  0
   46.2916   30.0405   31.4419 H   0  0  0  0  0  0  0  0  0  0  0  0
  1  2  1  0
  2  3  1  0
  3  4  1  0
  4  9  1  0
  5  4  1  0
  5  6  1  0
  6  7  1  0
  7  8  1  0
  9  8  1  0
 10  1  1  0
 11 10  2  0
 12 13  2  0
 13 10  1  0
 14 13  1  0
 15 14  2  0
 16 15  1  0
 16 17  2  0
 17 12  1  0
 18 16  1  0
 19 18  1  0
 20 19  1  0
 20 18  1  0
 21 20  1  0
 22 21  1  0
  2 23  1  0
  2 24  1  0
  3 25  1  0
  3 26  1  0
  5 27  1  0
  5 28  1  0
  6 29  1  0
  6 30  1  0
  8 31  1  0
  8 32  1  0
  9 33  1  0
  9 34  1  0
 12 35  1  0
 14 36  1  0
 18 37  1  6
 19 38  1  0
 19 39  1  0
 20 40  1  1
 21 41  1  0
 21 42  1  0
 22 43  1  0
 22 44  1  0
 22 45  1  0
M  ISO  8  23   8  24   8  25   8  26   8  27  13  28  13  29  13  30  13
M  ISO  8  31  13  32  13  33  13  34  13  35  14  36  14  37  13  38  13
M  ISO  7  39  13  40  13  41   8  42   8  43   8  44   8  45   8
M  END
>  <minimizedAffinity>  (1) 
-4.09497786

>  <minimizedRMSD>  (1) 
0.786274493

$$$$
