
     RDKit          3D

 41 43  0  0  1  0  0  0  0  0999 V2000
   48.2080   33.6290   39.4340 O   0  0  0  0  0  0  0  0  0  0  0  0
   47.9990   34.5970   40.4560 C   0  0  0  0  0  0  0  0  0  0  0  0
   46.6010   34.4000   40.9970 C   0  0  0  0  0  0  0  0  0  0  0  0
   46.5080   34.4290   42.4260 N   0  0  0  0  0  0  0  0  0  0  0  0
   45.5210   35.4280   42.7690 C   0  0  0  0  0  0  0  0  0  0  0  0
   44.9350   35.2880   44.1140 C   0  0  0  0  0  0  0  0  0  0  0  0
   45.6640   34.3670   44.9110 O   0  0  0  0  0  0  0  0  0  0  0  0
   45.5030   33.1710   44.2640 C   0  0  0  0  0  0  0  0  0  0  0  0
   46.3670   33.1720   43.0450 C   0  0  0  0  0  0  0  0  0  0  0  0
   48.0580   33.9490   38.0860 C   0  0  0  0  0  0  0  0  0  0  0  0
   48.6400   34.9290   37.6180 O   0  0  0  0  0  0  0  0  0  0  0  0
   45.7790   33.2230   37.1870 C   0  0  0  0  0  0  0  0  0  0  0  0
   47.1630   33.0040   37.3630 C   0  0  0  0  0  0  0  0  0  0  0  0
   47.7890   31.8510   36.8490 C   0  0  0  0  0  0  0  0  0  0  0  0
   46.9940   30.9400   36.1610 N   0  0  0  0  0  0  0  0  0  0  0  0
   45.6610   31.2310   36.0360 C   0  0  0  0  0  0  0  0  0  0  0  0
   45.0590   32.3290   36.5250 N   0  0  0  0  0  0  0  0  0  0  0  0
   44.8260   30.2170   35.2980 C   0  0  1  0  0  0  0  0  0  0  0  0
   43.5490   30.6140   34.7070 C   0  0  0  0  0  0  0  0  0  0  0  0
   44.6920   30.4640   33.7820 C   0  0  2  0  0  0  0  0  0  0  0  0
   44.7560   29.2730   32.9930 N   0  0  0  0  0  0  0  0  0  0  0  0
   48.7354   34.4568   41.2610 H   0  0  0  0  0  0  0  0  0  0  0  0
   48.1164   35.6139   40.0533 H   0  0  0  0  0  0  0  0  0  0  0  0
   45.9610   35.1991   40.5947 H   0  0  0  0  0  0  0  0  0  0  0  0
   46.2825   33.3951   40.6829 H   0  0  0  0  0  0  0  0  0  0  0  0
   45.9998   36.4164   42.7065 H   0  0  0  0  0  0  0  0  0  0  0  0
   44.6922   35.2986   42.0574 H   0  0  0  0  0  0  0  0  0  0  0  0
   44.9404   36.2702   44.6092 H   0  0  0  0  0  0  0  0  0  0  0  0
   43.9087   34.9081   44.0030 H   0  0  0  0  0  0  0  0  0  0  0  0
   45.8000   32.3465   44.9288 H   0  0  0  0  0  0  0  0  0  0  0  0
   44.4492   33.0351   43.9792 H   0  0  0  0  0  0  0  0  0  0  0  0
   45.9289   32.4769   42.3137 H   0  0  0  0  0  0  0  0  0  0  0  0
   47.3727   32.8736   43.3761 H   0  0  0  0  0  0  0  0  0  0  0  0
   45.3034   34.1268   37.5954 H   0  0  0  0  0  0  0  0  0  0  0  0
   48.8665   31.6776   36.9867 H   0  0  0  0  0  0  0  0  0  0  0  0
   45.1278   29.3961   35.9651 H   0  0  0  0  0  0  0  0  0  0  0  0
   42.7227   29.8890   34.6676 H   0  0  0  0  0  0  0  0  0  0  0  0
   42.8406   31.4305   34.9106 H   0  0  0  0  0  0  0  0  0  0  0  0
   45.1549   31.1072   33.0191 H   0  0  0  0  0  0  0  0  0  0  0  0
   44.8001   28.4521   33.6135 H   0  0  0  0  0  0  0  0  0  0  0  0
   43.9172   29.2094   32.3986 H   0  0  0  0  0  0  0  0  0  0  0  0
  1  2  1  0
  2  3  1  0
  3  4  1  0
  4  5  1  0
  4  9  1  0
  5  6  1  0
  6  7  1  0
  8  7  1  0
  9  8  1  0
 10  1  1  0
 11 10  2  0
 12 13  2  0
 13 10  1  0
 14 13  1  0
 15 14  2  0
 16 15  1  0
 16 17  2  0
 17 12  1  0
 18 16  1  0
 19 18  1  0
 20 19  1  0
 20 18  1  0
 21 20  1  0
  2 22  1  0
  2 23  1  0
  3 24  1  0
  3 25  1  0
  5 26  1  0
  5 27  1  0
  6 28  1  0
  6 29  1  0
  8 30  1  0
  8 31  1  0
  9 32  1  0
  9 33  1  0
 12 34  1  0
 14 35  1  0
 18 36  1  6
 19 37  1  0
 19 38  1  0
 20 39  1  6
 21 40  1  0
 21 41  1  0
M  ISO  8  22   8  23   8  24   8  25   8  26  13  27  13  28  13  29  13
M  ISO  8  30  13  31  13  32  13  33  13  34  14  35  14  36  13  37  13
M  ISO  4  38  13  39  13  40   5  41   5
M  END
>  <minimizedAffinity>  (1) 
-3.9740479

>  <minimizedRMSD>  (1) 
0.0310721006

$$$$
