
     RDKit          3D

 48 50  0  0  1  0  0  0  0  0999 V2000
   47.7730   33.2450   40.2360 O   0  0  0  0  0  0  0  0  0  0  0  0
   47.9690   34.1110   41.3480 C   0  0  0  0  0  0  0  0  0  0  0  0
   46.6430   34.7940   41.6340 C   0  0  0  0  0  0  0  0  0  0  0  0
   46.3660   34.9950   43.0260 N   0  0  0  0  0  0  0  0  0  0  0  0
   45.1490   35.7620   43.1160 C   0  0  0  0  0  0  0  0  0  0  0  0
   44.4470   35.6660   44.4140 C   0  0  0  0  0  0  0  0  0  0  0  0
   45.2470   35.0510   45.3990 O   0  0  0  0  0  0  0  0  0  0  0  0
   45.4410   33.7790   44.9310 C   0  0  0  0  0  0  0  0  0  0  0  0
   46.4380   33.8290   43.8170 C   0  0  0  0  0  0  0  0  0  0  0  0
   47.8440   33.7430   38.9210 C   0  0  0  0  0  0  0  0  0  0  0  0
   48.4490   34.7940   38.6710 O   0  0  0  0  0  0  0  0  0  0  0  0
   46.3750   33.3740   36.8630 C   0  0  0  0  0  0  0  0  0  0  0  0
   47.1280   32.8700   37.9480 C   0  0  0  0  0  0  0  0  0  0  0  0
   47.2510   31.4980   38.1630 C   0  0  0  0  0  0  0  0  0  0  0  0
   46.6100   30.6570   37.2730 N   0  0  0  0  0  0  0  0  0  0  0  0
   45.8980   31.2280   36.2390 C   0  0  0  0  0  0  0  0  0  0  0  0
   45.7740   32.5510   36.0280 N   0  0  0  0  0  0  0  0  0  0  0  0
   45.2190   30.2900   35.2770 C   0  0  1  0  0  0  0  0  0  0  0  0
   44.8750   30.7470   33.9320 C   0  0  0  0  0  0  0  0  0  0  0  0
   46.0120   29.8340   34.0760 C   0  0  1  0  0  0  0  0  0  0  0  0
   47.4360   30.1680   33.8470 C   0  0  0  0  0  0  0  0  0  0  0  0
   47.7690   31.2180   32.8640 C   0  0  0  0  0  0  0  0  0  0  0  0
   48.1570   28.8980   33.4350 C   0  0  0  0  0  0  0  0  0  0  0  0
   48.2888   33.5294   42.2252 H   0  0  0  0  0  0  0  0  0  0  0  0
   48.7483   34.8551   41.1269 H   0  0  0  0  0  0  0  0  0  0  0  0
   46.6489   35.7766   41.1395 H   0  0  0  0  0  0  0  0  0  0  0  0
   45.8577   34.1250   41.2521 H   0  0  0  0  0  0  0  0  0  0  0  0
   45.3974   36.8189   42.9392 H   0  0  0  0  0  0  0  0  0  0  0  0
   44.4644   35.3438   42.3634 H   0  0  0  0  0  0  0  0  0  0  0  0
   44.1830   36.6791   44.7515 H   0  0  0  0  0  0  0  0  0  0  0  0
   43.5474   35.0493   44.2708 H   0  0  0  0  0  0  0  0  0  0  0  0
   45.8219   33.1398   45.7412 H   0  0  0  0  0  0  0  0  0  0  0  0
   44.4902   33.3627   44.5669 H   0  0  0  0  0  0  0  0  0  0  0  0
   46.2700   32.9593   43.1648 H   0  0  0  0  0  0  0  0  0  0  0  0
   47.4336   33.8263   44.2847 H   0  0  0  0  0  0  0  0  0  0  0  0
   46.2903   34.4607   36.7149 H   0  0  0  0  0  0  0  0  0  0  0  0
   47.8345   31.1009   39.0067 H   0  0  0  0  0  0  0  0  0  0  0  0
   44.6579   29.8101   36.0924 H   0  0  0  0  0  0  0  0  0  0  0  0
   45.0516   31.7960   33.6520 H   0  0  0  0  0  0  0  0  0  0  0  0
   43.9536   30.7329   33.3313 H   0  0  0  0  0  0  0  0  0  0  0  0
   46.2955   28.8727   33.6227 H   0  0  0  0  0  0  0  0  0  0  0  0
   47.7563   30.5990   34.8070 H   0  0  0  0  0  0  0  0  0  0  0  0
   48.0604   32.1370   33.3937 H   0  0  0  0  0  0  0  0  0  0  0  0
   48.6035   30.8782   32.2330 H   0  0  0  0  0  0  0  0  0  0  0  0
   46.8912   31.4212   32.2330 H   0  0  0  0  0  0  0  0  0  0  0  0
   48.4702   28.3462   34.3336 H   0  0  0  0  0  0  0  0  0  0  0  0
   47.4807   28.2701   32.8364 H   0  0  0  0  0  0  0  0  0  0  0  0
   49.0428   29.1570   32.8364 H   0  0  0  0  0  0  0  0  0  0  0  0
  1  2  1  0
  2  3  1  0
  3  4  1  0
  4  5  1  0
  4  9  1  0
  5  6  1  0
  6  7  1  0
  8  7  1  0
  9  8  1  0
 10  1  1  0
 11 10  2  0
 12 13  2  0
 13 14  1  0
 13 10  1  0
 15 14  2  0
 16 15  1  0
 17 16  2  0
 17 12  1  0
 18 16  1  0
 19 20  1  0
 19 18  1  0
 20 18  1  0
 21 20  1  0
 22 21  1  0
 23 21  1  0
  2 24  1  0
  2 25  1  0
  3 26  1  0
  3 27  1  0
  5 28  1  0
  5 29  1  0
  6 30  1  0
  6 31  1  0
  8 32  1  0
  8 33  1  0
  9 34  1  0
  9 35  1  0
 12 36  1  0
 14 37  1  0
 18 38  1  1
 19 39  1  0
 19 40  1  0
 20 41  1  6
 21 42  1  0
 22 43  1  0
 22 44  1  0
 22 45  1  0
 23 46  1  0
 23 47  1  0
 23 48  1  0
M  ISO  8  24   8  25   8  26   8  27   8  28  13  29  13  30  13  31  13
M  ISO  8  32  13  33  13  34  13  35  13  36  14  37  14  38  13  39  13
M  ISO  8  40  13  41  13  42   8  43   8  44   8  45   8  46   8  47   8
M  ISO  1  48   8
M  END
>  <minimizedAffinity>  (1) 
-3.88510466

>  <minimizedRMSD>  (1) 
1.53824079

$$$$
