
     RDKit          3D

 34 36  0  0  0  0  0  0  0  0999 V2000
   44.5390   35.8660   44.5470 C   0  0  0  0  0  0  0  0  0  0  0  0
   45.2100   35.9020   43.3150 C   0  0  0  0  0  0  0  0  0  0  0  0
   46.1580   34.9100   43.0460 C   0  0  0  0  0  0  0  0  0  0  0  0
   46.3810   33.9580   43.9990 N   0  0  0  0  0  0  0  0  0  0  0  0
   45.7190   33.9510   45.1720 C   0  0  0  0  0  0  0  0  0  0  0  0
   44.8030   34.9040   45.4390 N   0  0  0  0  0  0  0  0  0  0  0  0
   45.9810   32.9380   46.1430 N   0  0  0  0  0  0  0  0  0  0  0  0
   46.8500   31.9970   45.7050 C   0  0  0  0  0  0  0  0  0  0  0  0
   47.1960   30.9460   46.5550 C   0  0  0  0  0  0  0  0  0  0  0  0
   48.1420   29.8690   46.1590 C   0  0  0  0  0  0  0  0  0  0  0  0
   46.5810   30.9970   47.7890 C   0  0  0  0  0  0  0  0  0  0  0  0
   46.8830   30.0430   48.5830 O   0  0  0  0  0  0  0  0  0  0  0  0
   45.7310   31.9070   48.2340 N   0  0  0  0  0  0  0  0  0  0  0  0
   45.4300   32.9030   47.3710 C   0  0  0  0  0  0  0  0  0  0  0  0
   44.6290   33.8270   47.6880 O   0  0  0  0  0  0  0  0  0  0  0  0
   46.9090   34.8330   41.8350 N   0  0  0  0  0  0  0  0  0  0  0  0
   48.1150   35.4450   41.7340 C   0  0  0  0  0  0  0  0  0  0  0  0
   48.7990   35.3350   40.5270 C   0  0  0  0  0  0  0  0  0  0  0  0
   48.2100   34.6130   39.5200 C   0  0  0  0  0  0  0  0  0  0  0  0
   48.8480   34.4560   38.2590 N   0  0  0  0  0  0  0  0  0  0  0  0
   47.0010   34.0110   39.6530 N   0  0  0  0  0  0  0  0  0  0  0  0
   46.3350   34.1220   40.8330 C   0  0  0  0  0  0  0  0  0  0  0  0
   45.2030   33.5710   40.9890 O   0  0  0  0  0  0  0  0  0  0  0  0
   43.7890   36.6357   44.7817 H   0  0  0  0  0  0  0  0  0  0  0  0
   44.9955   36.6910   42.5792 H   0  0  0  0  0  0  0  0  0  0  0  0
   47.2773   32.0600   44.6933 H   0  0  0  0  0  0  0  0  0  0  0  0
   48.5575   29.3960   47.0610 H   0  0  0  0  0  0  0  0  0  0  0  0
   47.6093   29.1145   45.5615 H   0  0  0  0  0  0  0  0  0  0  0  0
   48.9589   30.2999   45.5615 H   0  0  0  0  0  0  0  0  0  0  0  0
   45.3238   31.8599   49.1789 H   0  0  0  0  0  0  0  0  0  0  0  0
   48.5384   36.0095   42.5779 H   0  0  0  0  0  0  0  0  0  0  0  0
   49.7802   35.8115   40.3850 H   0  0  0  0  0  0  0  0  0  0  0  0
   49.7680   34.8871   38.0901 H   0  0  0  0  0  0  0  0  0  0  0  0
   48.3901   33.9111   37.5145 H   0  0  0  0  0  0  0  0  0  0  0  0
  1  6  2  0
  2  1  1  0
  3  2  2  0
  3  4  1  0
  4  5  2  0
  5  6  1  0
  5  7  1  0
  7 14  1  0
  8  7  1  0
  8  9  2  0
  9 11  1  0
 10  9  1  0
 11 13  1  0
 11 12  2  0
 14 15  2  0
 14 13  1  0
 16  3  1  0
 17 16  1  0
 18 17  2  0
 19 21  2  0
 19 18  1  0
 20 19  1  0
 21 22  1  0
 22 23  2  0
 22 16  1  0
  1 24  1  0
  2 25  1  0
  8 26  1  0
 10 27  1  0
 10 28  1  0
 10 29  1  0
 13 30  1  0
 17 31  1  0
 18 32  1  0
 20 33  1  0
 20 34  1  0
M  ISO  8  24  14  25  14  26  14  27   8  28   8  29   8  30   9  31  14
M  ISO  1  32  14
M  END
>  <minimizedAffinity>  (1) 
-7.07991457

>  <minimizedRMSD>  (1) 
0.31918177

$$$$
