
     RDKit          3D

 37 39  0  0  0  0  0  0  0  0999 V2000
   44.4940   35.9500   44.9030 C   0  0  0  0  0  0  0  0  0  0  0  0
   45.1640   35.9580   43.6750 C   0  0  0  0  0  0  0  0  0  0  0  0
   46.0130   34.9110   43.3550 C   0  0  0  0  0  0  0  0  0  0  0  0
   46.1600   33.9020   44.2700 N   0  0  0  0  0  0  0  0  0  0  0  0
   45.5030   33.9150   45.4530 C   0  0  0  0  0  0  0  0  0  0  0  0
   44.6700   34.9480   45.7590 N   0  0  0  0  0  0  0  0  0  0  0  0
   46.7510   34.7990   42.1420 N   0  0  0  0  0  0  0  0  0  0  0  0
   47.9930   35.3200   42.0420 C   0  0  0  0  0  0  0  0  0  0  0  0
   48.6730   35.1820   40.8290 C   0  0  0  0  0  0  0  0  0  0  0  0
   48.0220   34.5140   39.7990 C   0  0  0  0  0  0  0  0  0  0  0  0
   48.6270   34.3240   38.5370 N   0  0  0  0  0  0  0  0  0  0  0  0
   46.7820   34.0110   39.9470 N   0  0  0  0  0  0  0  0  0  0  0  0
   46.1180   34.1430   41.1210 C   0  0  0  0  0  0  0  0  0  0  0  0
   44.9490   33.6740   41.2770 O   0  0  0  0  0  0  0  0  0  0  0  0
   45.7220   32.7790   46.3860 C   0  0  0  0  0  0  0  0  0  0  0  0
   45.0770   33.0430   47.7470 C   0  0  0  0  0  0  0  0  0  0  0  0
   45.0920   31.6770   48.4480 C   0  0  0  0  0  0  0  0  0  0  0  0
   46.5260   31.3940   48.8050 C   0  0  0  0  0  0  0  0  0  0  0  0
   47.4990   32.2880   48.0860 C   0  0  0  0  0  0  0  0  0  0  0  0
   47.1720   32.4670   46.6210 C   0  0  0  0  0  0  0  0  0  0  0  0
   43.8174   36.7778   45.1620 H   0  0  0  0  0  0  0  0  0  0  0  0
   45.0179   36.7889   42.9691 H   0  0  0  0  0  0  0  0  0  0  0  0
   48.4572   35.8395   42.8932 H   0  0  0  0  0  0  0  0  0  0  0  0
   49.6867   35.5874   40.6944 H   0  0  0  0  0  0  0  0  0  0  0  0
   49.5752   34.6856   38.3608 H   0  0  0  0  0  0  0  0  0  0  0  0
   48.1200   33.8239   37.7929 H   0  0  0  0  0  0  0  0  0  0  0  0
   45.2530   31.9162   45.8905 H   0  0  0  0  0  0  0  0  0  0  0  0
   45.6608   33.7800   48.3180 H   0  0  0  0  0  0  0  0  0  0  0  0
   44.0618   33.4569   47.6567 H   0  0  0  0  0  0  0  0  0  0  0  0
   44.4737   31.7100   49.3572 H   0  0  0  0  0  0  0  0  0  0  0  0
   44.6826   30.8914   47.7959 H   0  0  0  0  0  0  0  0  0  0  0  0
   46.6524   31.5380   49.8882 H   0  0  0  0  0  0  0  0  0  0  0  0
   46.7427   30.3596   48.4998 H   0  0  0  0  0  0  0  0  0  0  0  0
   47.4894   33.2759   48.5697 H   0  0  0  0  0  0  0  0  0  0  0  0
   48.4876   31.8093   48.1443 H   0  0  0  0  0  0  0  0  0  0  0  0
   47.4232   31.5381   46.0881 H   0  0  0  0  0  0  0  0  0  0  0  0
   47.7601   33.3195   46.2505 H   0  0  0  0  0  0  0  0  0  0  0  0
  1  6  2  0
  2  1  1  0
  3  2  2  0
  3  4  1  0
  4  5  2  0
  5  6  1  0
  5 15  1  0
  7  3  1  0
  8  7  1  0
  9  8  2  0
 10 12  2  0
 10  9  1  0
 11 10  1  0
 12 13  1  0
 13 14  2  0
 13  7  1  0
 15 20  1  0
 15 16  1  0
 16 17  1  0
 17 18  1  0
 19 18  1  0
 20 19  1  0
  1 21  1  0
  2 22  1  0
  8 23  1  0
  9 24  1  0
 11 25  1  0
 11 26  1  0
 15 27  1  0
 16 28  1  0
 16 29  1  0
 17 30  1  0
 17 31  1  0
 18 32  1  0
 18 33  1  0
 19 34  1  0
 19 35  1  0
 20 36  1  0
 20 37  1  0
M  ISO  8  21  14  22  14  23  14  24  14  27  13  28  13  29  13  30  13
M  ISO  7  31  13  32  13  33  13  34  13  35  13  36  13  37  13
M  END
>  <minimizedAffinity>  (1) 
-6.8039093

>  <minimizedRMSD>  (1) 
0.442708403

$$$$
