
     RDKit          3D

 31 33  0  0  0  0  0  0  0  0999 V2000
   44.4360   35.9110   44.8270 C   0  0  0  0  0  0  0  0  0  0  0  0
   45.0800   35.8920   43.5900 C   0  0  0  0  0  0  0  0  0  0  0  0
   46.0340   34.8930   43.3350 C   0  0  0  0  0  0  0  0  0  0  0  0
   46.2910   33.9740   44.3230 N   0  0  0  0  0  0  0  0  0  0  0  0
   45.6360   34.0380   45.5090 C   0  0  0  0  0  0  0  0  0  0  0  0
   44.7210   34.9930   45.7570 N   0  0  0  0  0  0  0  0  0  0  0  0
   46.7610   34.7640   42.1150 N   0  0  0  0  0  0  0  0  0  0  0  0
   47.9940   35.3350   41.9880 C   0  0  0  0  0  0  0  0  0  0  0  0
   48.6550   35.1790   40.7830 C   0  0  0  0  0  0  0  0  0  0  0  0
   48.0350   34.4630   39.7890 C   0  0  0  0  0  0  0  0  0  0  0  0
   48.6360   34.2530   38.5240 N   0  0  0  0  0  0  0  0  0  0  0  0
   46.8230   33.9190   39.9570 N   0  0  0  0  0  0  0  0  0  0  0  0
   46.1480   34.0580   41.1370 C   0  0  0  0  0  0  0  0  0  0  0  0
   45.0100   33.5570   41.3180 O   0  0  0  0  0  0  0  0  0  0  0  0
   45.9710   33.0170   46.5070 C   0  0  0  0  0  0  0  0  0  0  0  0
   47.0240   32.1480   46.3160 C   0  0  0  0  0  0  0  0  0  0  0  0
   47.2870   31.2040   47.3040 C   0  0  0  0  0  0  0  0  0  0  0  0
   46.5420   31.0890   48.4770 C   0  0  0  0  0  0  0  0  0  0  0  0
   45.5000   31.9890   48.6090 C   0  0  0  0  0  0  0  0  0  0  0  0
   45.1940   32.9560   47.6470 C   0  0  0  0  0  0  0  0  0  0  0  0
   43.6869   36.6880   45.0396 H   0  0  0  0  0  0  0  0  0  0  0  0
   44.8445   36.6475   42.8260 H   0  0  0  0  0  0  0  0  0  0  0  0
   48.4469   35.9002   42.8159 H   0  0  0  0  0  0  0  0  0  0  0  0
   49.6515   35.6172   40.6252 H   0  0  0  0  0  0  0  0  0  0  0  0
   49.5683   34.6434   38.3256 H   0  0  0  0  0  0  0  0  0  0  0  0
   48.1408   33.7099   37.8024 H   0  0  0  0  0  0  0  0  0  0  0  0
   47.6403   32.1995   45.4063 H   0  0  0  0  0  0  0  0  0  0  0  0
   48.1278   30.5113   47.1514 H   0  0  0  0  0  0  0  0  0  0  0  0
   46.7675   30.3343   49.2448 H   0  0  0  0  0  0  0  0  0  0  0  0
   44.8808   31.9414   49.5169 H   0  0  0  0  0  0  0  0  0  0  0  0
   44.3546   33.6515   47.7945 H   0  0  0  0  0  0  0  0  0  0  0  0
  1  6  2  0
  2  1  1  0
  3  2  2  0
  3  4  1  0
  4  5  2  0
  5  6  1  0
  5 15  1  0
  7  3  1  0
  8  7  1  0
  9  8  2  0
 10 12  2  0
 10  9  1  0
 11 10  1  0
 12 13  1  0
 13 14  2  0
 13  7  1  0
 15 20  1  0
 16 15  2  0
 16 17  1  0
 17 18  2  0
 18 19  1  0
 20 19  2  0
  1 21  1  0
  2 22  1  0
  8 23  1  0
  9 24  1  0
 11 25  1  0
 11 26  1  0
 16 27  1  0
 17 28  1  0
 18 29  1  0
 19 30  1  0
 20 31  1  0
M  ISO  8  21  14  22  14  23  14  24  14  27  14  28  14  29  14  30  14
M  ISO  1  31  14
M  END
>  <minimizedAffinity>  (1) 
-6.77883148

>  <minimizedRMSD>  (1) 
0.51734215

$$$$
