
     RDKit          3D

 33 35  0  0  0  0  0  0  0  0999 V2000
   44.4350   35.9280   44.8030 C   0  0  0  0  0  0  0  0  0  0  0  0
   45.0890   35.9070   43.5590 C   0  0  0  0  0  0  0  0  0  0  0  0
   46.0450   34.9070   43.3150 C   0  0  0  0  0  0  0  0  0  0  0  0
   46.2840   34.0080   44.3090 N   0  0  0  0  0  0  0  0  0  0  0  0
   45.6450   34.0440   45.4990 C   0  0  0  0  0  0  0  0  0  0  0  0
   44.7260   35.0060   45.7330 N   0  0  0  0  0  0  0  0  0  0  0  0
   45.9340   33.0790   46.5040 N   0  0  0  0  0  0  0  0  0  0  0  0
   45.1470   32.7970   47.6840 C   0  0  0  0  0  0  0  0  0  0  0  0
   46.0840   32.1690   48.6860 C   0  0  0  0  0  0  0  0  0  0  0  0
   47.2680   31.7070   47.9070 C   0  0  0  0  0  0  0  0  0  0  0  0
   47.0870   32.1990   46.5150 C   0  0  0  0  0  0  0  0  0  0  0  0
   46.7700   34.7790   42.1070 N   0  0  0  0  0  0  0  0  0  0  0  0
   47.9910   35.3340   41.9640 C   0  0  0  0  0  0  0  0  0  0  0  0
   48.6660   35.1830   40.7600 C   0  0  0  0  0  0  0  0  0  0  0  0
   48.0360   34.4650   39.7750 C   0  0  0  0  0  0  0  0  0  0  0  0
   48.6210   34.2400   38.4980 N   0  0  0  0  0  0  0  0  0  0  0  0
   46.8240   33.9240   39.9400 N   0  0  0  0  0  0  0  0  0  0  0  0
   46.1550   34.0680   41.1200 C   0  0  0  0  0  0  0  0  0  0  0  0
   45.0110   33.5670   41.3030 O   0  0  0  0  0  0  0  0  0  0  0  0
   43.6828   36.7023   45.0145 H   0  0  0  0  0  0  0  0  0  0  0  0
   44.8566   36.6594   42.7910 H   0  0  0  0  0  0  0  0  0  0  0  0
   44.7250   33.7280   48.0904 H   0  0  0  0  0  0  0  0  0  0  0  0
   44.3076   32.1256   47.4503 H   0  0  0  0  0  0  0  0  0  0  0  0
   46.3881   32.9089   49.4410 H   0  0  0  0  0  0  0  0  0  0  0  0
   45.6034   31.3365   49.2207 H   0  0  0  0  0  0  0  0  0  0  0  0
   48.1905   32.1228   48.3384 H   0  0  0  0  0  0  0  0  0  0  0  0
   47.3512   30.6104   47.9297 H   0  0  0  0  0  0  0  0  0  0  0  0
   46.9165   31.3499   45.8368 H   0  0  0  0  0  0  0  0  0  0  0  0
   47.9850   32.7369   46.1770 H   0  0  0  0  0  0  0  0  0  0  0  0
   48.4463   35.8991   42.7907 H   0  0  0  0  0  0  0  0  0  0  0  0
   49.6630   35.6202   40.6026 H   0  0  0  0  0  0  0  0  0  0  0  0
   49.5537   34.6212   38.2844 H   0  0  0  0  0  0  0  0  0  0  0  0
   48.1118   33.6959   37.7869 H   0  0  0  0  0  0  0  0  0  0  0  0
  1  6  2  0
  2  1  1  0
  3  2  2  0
  3  4  1  0
  4  5  2  0
  5  6  1  0
  5  7  1  0
  7 11  1  0
  7  8  1  0
  8  9  1  0
 10  9  1  0
 11 10  1  0
 12  3  1  0
 13 12  1  0
 14 13  2  0
 15 17  2  0
 15 14  1  0
 16 15  1  0
 17 18  1  0
 18 19  2  0
 18 12  1  0
  1 20  1  0
  2 21  1  0
  8 22  1  0
  8 23  1  0
  9 24  1  0
  9 25  1  0
 10 26  1  0
 10 27  1  0
 11 28  1  0
 11 29  1  0
 13 30  1  0
 14 31  1  0
 16 32  1  0
 16 33  1  0
M  ISO  8  20  14  21  14  22  13  23  13  24  13  25  13  26  13  27  13
M  ISO  4  28  13  29  13  30  14  31  14
M  END
>  <minimizedAffinity>  (1) 
-6.7515111

>  <minimizedRMSD>  (1) 
0.145086914

$$$$
