
     RDKit          3D

 28 30  0  0  0  0  0  0  0  0999 V2000
   44.4130   36.2230   44.6390 C   0  0  0  0  0  0  0  0  0  0  0  0
   45.0990   36.1160   43.4240 C   0  0  0  0  0  0  0  0  0  0  0  0
   45.9670   35.0570   43.2150 C   0  0  0  0  0  0  0  0  0  0  0  0
   46.1110   34.1540   44.2220 N   0  0  0  0  0  0  0  0  0  0  0  0
   45.4430   34.2660   45.3950 C   0  0  0  0  0  0  0  0  0  0  0  0
   44.6000   35.2960   45.5960 N   0  0  0  0  0  0  0  0  0  0  0  0
   46.7110   34.8480   42.0300 N   0  0  0  0  0  0  0  0  0  0  0  0
   47.9700   35.3490   41.9070 C   0  0  0  0  0  0  0  0  0  0  0  0
   48.6630   35.1190   40.7280 C   0  0  0  0  0  0  0  0  0  0  0  0
   48.0280   34.3900   39.7450 C   0  0  0  0  0  0  0  0  0  0  0  0
   48.6670   34.1130   38.5120 N   0  0  0  0  0  0  0  0  0  0  0  0
   46.7750   33.9030   39.8920 N   0  0  0  0  0  0  0  0  0  0  0  0
   46.0910   34.1290   41.0530 C   0  0  0  0  0  0  0  0  0  0  0  0
   44.9300   33.6910   41.2200 O   0  0  0  0  0  0  0  0  0  0  0  0
   45.6320   33.2660   46.4530 C   0  0  0  0  0  0  0  0  0  0  0  0
   46.5370   32.2230   46.4020 C   0  0  0  0  0  0  0  0  0  0  0  0
   46.4010   31.5310   47.5720 N   0  0  0  0  0  0  0  0  0  0  0  0
   45.4450   32.1530   48.2850 C   0  0  0  0  0  0  0  0  0  0  0  0
   44.9630   33.2160   47.6180 N   0  0  0  0  0  0  0  0  0  0  0  0
   43.7231   37.0623   44.8111 H   0  0  0  0  0  0  0  0  0  0  0  0
   44.9494   36.8704   42.6375 H   0  0  0  0  0  0  0  0  0  0  0  0
   48.4283   35.9241   42.7251 H   0  0  0  0  0  0  0  0  0  0  0  0
   49.6829   35.5044   40.5823 H   0  0  0  0  0  0  0  0  0  0  0  0
   49.6224   34.4565   38.3385 H   0  0  0  0  0  0  0  0  0  0  0  0
   48.1764   33.5680   37.7887 H   0  0  0  0  0  0  0  0  0  0  0  0
   47.2313   31.9946   45.5799 H   0  0  0  0  0  0  0  0  0  0  0  0
   45.1032   31.8344   49.2808 H   0  0  0  0  0  0  0  0  0  0  0  0
   44.2276   33.8632   47.9362 H   0  0  0  0  0  0  0  0  0  0  0  0
  1  6  2  0
  2  1  1  0
  3  2  2  0
  3  4  1  0
  4  5  2  0
  5  6  1  0
  5 15  1  0
  7  3  1  0
  8  7  1  0
  9  8  2  0
 10 12  2  0
 10  9  1  0
 11 10  1  0
 12 13  1  0
 13 14  2  0
 13  7  1  0
 15 19  1  0
 16 15  2  0
 16 17  1  0
 17 18  2  0
 19 18  1  0
  1 20  1  0
  2 21  1  0
  8 22  1  0
  9 23  1  0
 11 24  1  0
 11 25  1  0
 16 26  1  0
 18 27  1  0
 19 28  1  0
M  ISO  7  20  14  21  14  22  14  23  14  26  14  27  14  28   9
M  END
>  <minimizedAffinity>  (1) 
-6.6796937

>  <minimizedRMSD>  (1) 
0.38735348

$$$$
