
     RDKit          3D

 28 30  0  0  0  0  0  0  0  0999 V2000
   44.4460   35.8730   44.7770 C   0  0  0  0  0  0  0  0  0  0  0  0
   45.0870   35.8560   43.5390 C   0  0  0  0  0  0  0  0  0  0  0  0
   46.0550   34.8980   43.2810 C   0  0  0  0  0  0  0  0  0  0  0  0
   46.3500   33.9890   44.2680 N   0  0  0  0  0  0  0  0  0  0  0  0
   45.7050   34.0400   45.4590 C   0  0  0  0  0  0  0  0  0  0  0  0
   44.7570   34.9790   45.7090 N   0  0  0  0  0  0  0  0  0  0  0  0
   46.7800   34.7740   42.0590 N   0  0  0  0  0  0  0  0  0  0  0  0
   48.0020   35.3470   41.9170 C   0  0  0  0  0  0  0  0  0  0  0  0
   48.6670   35.1980   40.7080 C   0  0  0  0  0  0  0  0  0  0  0  0
   48.0360   34.4710   39.7200 C   0  0  0  0  0  0  0  0  0  0  0  0
   48.6340   34.2630   38.4530 N   0  0  0  0  0  0  0  0  0  0  0  0
   46.8240   33.9150   39.8910 N   0  0  0  0  0  0  0  0  0  0  0  0
   46.1620   34.0570   41.0760 C   0  0  0  0  0  0  0  0  0  0  0  0
   45.0200   33.5440   41.2670 O   0  0  0  0  0  0  0  0  0  0  0  0
   45.9780   33.1020   46.5430 C   0  0  0  0  0  0  0  0  0  0  0  0
   46.9900   32.1920   46.8370 C   0  0  0  0  0  0  0  0  0  0  0  0
   46.6430   31.6010   48.0490 C   0  0  0  0  0  0  0  0  0  0  0  0
   45.4460   32.1800   48.4210 C   0  0  0  0  0  0  0  0  0  0  0  0
   45.0910   33.0530   47.5140 O   0  0  0  0  0  0  0  0  0  0  0  0
   43.6772   36.6322   44.9835 H   0  0  0  0  0  0  0  0  0  0  0  0
   44.8259   36.5990   42.7710 H   0  0  0  0  0  0  0  0  0  0  0  0
   48.4552   35.9167   42.7416 H   0  0  0  0  0  0  0  0  0  0  0  0
   49.6596   35.6428   40.5438 H   0  0  0  0  0  0  0  0  0  0  0  0
   49.5626   34.6598   38.2504 H   0  0  0  0  0  0  0  0  0  0  0  0
   48.1402   33.7149   37.7342 H   0  0  0  0  0  0  0  0  0  0  0  0
   47.8848   31.9820   46.2326 H   0  0  0  0  0  0  0  0  0  0  0  0
   47.2063   30.8315   48.5971 H   0  0  0  0  0  0  0  0  0  0  0  0
   44.8808   31.9445   49.3348 H   0  0  0  0  0  0  0  0  0  0  0  0
  1  6  2  0
  2  1  1  0
  3  2  2  0
  3  4  1  0
  4  5  2  0
  5  6  1  0
  5 15  1  0
  7  3  1  0
  8  7  1  0
  9  8  2  0
 10 12  2  0
 10  9  1  0
 11 10  1  0
 12 13  1  0
 13 14  2  0
 13  7  1  0
 15 16  2  0
 15 19  1  0
 16 17  1  0
 17 18  2  0
 19 18  1  0
  1 20  1  0
  2 21  1  0
  8 22  1  0
  9 23  1  0
 11 24  1  0
 11 25  1  0
 16 26  1  0
 17 27  1  0
 18 28  1  0
M  ISO  7  20  14  21  14  22  14  23  14  26  14  27  14  28  14
M  END
>  <minimizedAffinity>  (1) 
-6.42225504

>  <minimizedRMSD>  (1) 
0.445561349

$$$$
