
     RDKit          3D

 24 25  0  0  0  0  0  0  0  0999 V2000
   46.8440   34.7160   42.0590 N   0  0  0  0  0  0  0  0  0  0  0  0
   48.0360   35.3590   41.8990 C   0  0  0  0  0  0  0  0  0  0  0  0
   48.6860   35.2810   40.6800 C   0  0  0  0  0  0  0  0  0  0  0  0
   48.0690   34.5400   39.6920 C   0  0  0  0  0  0  0  0  0  0  0  0
   48.6350   34.3810   38.3920 N   0  0  0  0  0  0  0  0  0  0  0  0
   46.8970   33.9170   39.8770 N   0  0  0  0  0  0  0  0  0  0  0  0
   46.2510   33.9910   41.0750 C   0  0  0  0  0  0  0  0  0  0  0  0
   45.1480   33.4140   41.2780 O   0  0  0  0  0  0  0  0  0  0  0  0
   44.5260   35.6520   44.8470 C   0  0  0  0  0  0  0  0  0  0  0  0
   45.1320   35.6960   43.5820 C   0  0  0  0  0  0  0  0  0  0  0  0
   46.1520   34.7760   43.2970 C   0  0  0  0  0  0  0  0  0  0  0  0
   46.5080   33.8820   44.2590 N   0  0  0  0  0  0  0  0  0  0  0  0
   45.8930   33.8750   45.4710 C   0  0  0  0  0  0  0  0  0  0  0  0
   44.9150   34.7510   45.7560 N   0  0  0  0  0  0  0  0  0  0  0  0
   46.2810   32.9120   46.4980 C   0  0  0  0  0  0  0  0  0  0  0  0
   45.7300   31.8020   46.6050 O   0  0  0  0  0  0  0  0  0  0  0  0
   47.2890   33.1840   47.4120 O   0  0  0  0  0  0  0  0  0  0  0  0
   48.4752   35.9324   42.7286 H   0  0  0  0  0  0  0  0  0  0  0  0
   49.6481   35.7852   40.5065 H   0  0  0  0  0  0  0  0  0  0  0  0
   49.5351   34.8269   38.1641 H   0  0  0  0  0  0  0  0  0  0  0  0
   48.1435   33.8203   37.6814 H   0  0  0  0  0  0  0  0  0  0  0  0
   43.7246   36.3642   45.0931 H   0  0  0  0  0  0  0  0  0  0  0  0
   44.8146   36.4347   42.8313 H   0  0  0  0  0  0  0  0  0  0  0  0
   47.5304   32.5116   48.0973 H   0  0  0  0  0  0  0  0  0  0  0  0
  1 11  1  0
  2  1  1  0
  3  2  2  0
  4  6  2  0
  4  3  1  0
  5  4  1  0
  6  7  1  0
  7  8  2  0
  7  1  1  0
  9 14  2  0
 10  9  1  0
 11 10  2  0
 11 12  1  0
 12 13  2  0
 13 14  1  0
 13 15  1  0
 15 16  2  0
 15 17  1  0
  2 18  1  0
  3 19  1  0
  5 20  1  0
  5 21  1  0
  9 22  1  0
 10 23  1  0
 17 24  1  0
M  ISO  5  18  14  19  14  22  14  23  14  24   3
M  END
>  <minimizedAffinity>  (1) 
-6.08124018

>  <minimizedRMSD>  (1) 
0.317529976

$$$$
