
     RDKit          3D

 28 30  0  0  0  0  0  0  0  0999 V2000
   46.8310   34.7060   42.0750 N   0  0  0  0  0  0  0  0  0  0  0  0
   48.0180   35.3530   41.9140 C   0  0  0  0  0  0  0  0  0  0  0  0
   48.6620   35.2600   40.6900 C   0  0  0  0  0  0  0  0  0  0  0  0
   48.0400   34.5020   39.7040 C   0  0  0  0  0  0  0  0  0  0  0  0
   48.6260   34.3510   38.4250 N   0  0  0  0  0  0  0  0  0  0  0  0
   46.8640   33.8740   39.9000 N   0  0  0  0  0  0  0  0  0  0  0  0
   46.2410   33.9730   41.1060 C   0  0  0  0  0  0  0  0  0  0  0  0
   45.1360   33.3930   41.3140 O   0  0  0  0  0  0  0  0  0  0  0  0
   44.5200   35.6010   44.8760 C   0  0  0  0  0  0  0  0  0  0  0  0
   45.1020   35.6580   43.5970 C   0  0  0  0  0  0  0  0  0  0  0  0
   46.1350   34.7760   43.3220 C   0  0  0  0  0  0  0  0  0  0  0  0
   46.5360   33.8980   44.3090 N   0  0  0  0  0  0  0  0  0  0  0  0
   45.9440   33.8850   45.5210 C   0  0  0  0  0  0  0  0  0  0  0  0
   44.9360   34.7350   45.8070 N   0  0  0  0  0  0  0  0  0  0  0  0
   46.4400   32.9040   46.5250 C   0  0  0  0  0  0  0  0  0  0  0  0
   45.9330   31.5320   46.6070 C   0  0  0  0  0  0  0  0  0  0  0  0
   45.4020   32.5560   47.5870 C   0  0  0  0  0  0  0  0  0  0  0  0
   48.4563   35.9366   42.7370 H   0  0  0  0  0  0  0  0  0  0  0  0
   49.6226   35.7636   40.5068 H   0  0  0  0  0  0  0  0  0  0  0  0
   49.5251   34.8068   38.2134 H   0  0  0  0  0  0  0  0  0  0  0  0
   48.1535   33.7852   37.7056 H   0  0  0  0  0  0  0  0  0  0  0  0
   43.6973   36.2898   45.1184 H   0  0  0  0  0  0  0  0  0  0  0  0
   44.7500   36.3766   42.8422 H   0  0  0  0  0  0  0  0  0  0  0  0
   47.4695   33.2869   46.4660 H   0  0  0  0  0  0  0  0  0  0  0  0
   45.2768   31.1445   45.8137 H   0  0  0  0  0  0  0  0  0  0  0  0
   46.4045   30.5434   46.7087 H   0  0  0  0  0  0  0  0  0  0  0  0
   45.6861   32.5097   48.6487 H   0  0  0  0  0  0  0  0  0  0  0  0
   44.4105   32.9331   47.8781 H   0  0  0  0  0  0  0  0  0  0  0  0
  1 11  1  0
  2  1  1  0
  3  2  2  0
  4  6  2  0
  4  3  1  0
  5  4  1  0
  6  7  1  0
  7  8  2  0
  7  1  1  0
  9 14  2  0
 10  9  1  0
 11 10  2  0
 11 12  1  0
 12 13  2  0
 13 14  1  0
 13 15  1  0
 15 16  1  0
 15 17  1  0
 16 17  1  0
  2 18  1  0
  3 19  1  0
  5 20  1  0
  5 21  1  0
  9 22  1  0
 10 23  1  0
 15 24  1  0
 16 25  1  0
 16 26  1  0
 17 27  1  0
 17 28  1  0
M  ISO  8  18  14  19  14  22  14  23  14  24  13  25  13  26  13  27  13
M  ISO  1  28  13
M  END
>  <minimizedAffinity>  (1) 
-5.71711826

>  <minimizedRMSD>  (1) 
0.456177771

$$$$
