
     RDKit          3D

 30 32  0  0  1  0  0  0  0  0999 V2000
   46.0480   34.8750   41.7760 C   0  0  1  0  0  0  0  0  0  0  0  0
   46.3080   33.4510   41.2560 C   0  0  0  0  0  0  0  0  0  0  0  0
   45.2000   34.2950   40.7310 C   0  0  1  0  0  0  0  0  0  0  0  0
   43.8260   34.0540   41.0470 N   0  0  0  0  0  0  0  0  0  0  0  0
   43.0340   35.1410   40.8140 C   0  0  0  0  0  0  0  0  0  0  0  0
   41.6660   35.0700   41.0710 C   0  0  0  0  0  0  0  0  0  0  0  0
   40.7850   36.2580   40.8200 C   0  0  0  0  0  0  0  0  0  0  0  0
   41.0750   33.9210   41.5590 C   0  0  0  0  0  0  0  0  0  0  0  0
   39.8430   33.8390   41.7960 O   0  0  0  0  0  0  0  0  0  0  0  0
   41.9160   32.8890   41.7630 N   0  0  0  0  0  0  0  0  0  0  0  0
   43.2280   32.9450   41.5220 C   0  0  0  0  0  0  0  0  0  0  0  0
   44.0270   31.9920   41.7070 O   0  0  0  0  0  0  0  0  0  0  0  0
   45.5010   33.9500   45.3650 C   0  0  0  0  0  0  0  0  0  0  0  0
   45.9410   33.8730   44.0320 C   0  0  0  0  0  0  0  0  0  0  0  0
   45.5850   34.9130   43.1940 C   0  0  0  0  0  0  0  0  0  0  0  0
   44.8300   35.9500   43.7110 N   0  0  0  0  0  0  0  0  0  0  0  0
   44.4330   35.9790   44.9930 C   0  0  0  0  0  0  0  0  0  0  0  0
   44.7720   34.9810   45.8070 N   0  0  0  0  0  0  0  0  0  0  0  0
   46.5809   35.8344   41.8507 H   0  0  0  0  0  0  0  0  0  0  0  0
   47.1890   33.2394   40.6322 H   0  0  0  0  0  0  0  0  0  0  0  0
   46.3946   32.4500   41.7038 H   0  0  0  0  0  0  0  0  0  0  0  0
   44.9110   34.5659   39.7048 H   0  0  0  0  0  0  0  0  0  0  0  0
   43.4743   36.0707   40.4244 H   0  0  0  0  0  0  0  0  0  0  0  0
   40.4663   36.6877   41.7811 H   0  0  0  0  0  0  0  0  0  0  0  0
   41.3428   37.0137   40.2474 H   0  0  0  0  0  0  0  0  0  0  0  0
   39.8999   35.9437   40.2474 H   0  0  0  0  0  0  0  0  0  0  0  0
   41.5252   32.0075   42.1251 H   0  0  0  0  0  0  0  0  0  0  0  0
   45.7630   33.1412   46.0630 H   0  0  0  0  0  0  0  0  0  0  0  0
   46.5410   33.0241   43.6724 H   0  0  0  0  0  0  0  0  0  0  0  0
   43.8323   36.8206   45.3683 H   0  0  0  0  0  0  0  0  0  0  0  0
  1 15  1  0
  2  1  1  0
  3  4  1  0
  3  2  1  0
  3  1  1  0
  4 11  1  0
  5  4  1  0
  5  6  2  0
  6  8  1  0
  7  6  1  0
  8 10  1  0
  8  9  2  0
 11 12  2  0
 11 10  1  0
 13 18  2  0
 14 13  1  0
 15 16  1  0
 15 14  2  0
 16 17  2  0
 17 18  1  0
  1 19  1  6
  2 20  1  0
  2 21  1  0
  3 22  1  6
  5 23  1  0
  7 24  1  0
  7 25  1  0
  7 26  1  0
 10 27  1  0
 13 28  1  0
 14 29  1  0
 17 30  1  0
M  ISO  8  19  13  20  13  21  13  22  13  23  14  24   8  25   8  26   8
M  ISO  4  27   9  28  14  29  14  30  14
M  END
>  <minimizedAffinity>  (1) 
-5.30291462

>  <minimizedRMSD>  (1) 
6.03225136

$$$$
