
     RDKit          3D

 27 28  0  0  0  0  0  0  0  0999 V2000
   46.8500   34.7140   42.0940 N   0  0  0  0  0  0  0  0  0  0  0  0
   48.0290   35.3480   41.9270 C   0  0  0  0  0  0  0  0  0  0  0  0
   48.6740   35.2780   40.7050 C   0  0  0  0  0  0  0  0  0  0  0  0
   48.0540   34.5470   39.7150 C   0  0  0  0  0  0  0  0  0  0  0  0
   48.6100   34.3970   38.4170 N   0  0  0  0  0  0  0  0  0  0  0  0
   46.8860   33.9270   39.9030 N   0  0  0  0  0  0  0  0  0  0  0  0
   46.2420   33.9910   41.1050 C   0  0  0  0  0  0  0  0  0  0  0  0
   45.1350   33.4120   41.3050 O   0  0  0  0  0  0  0  0  0  0  0  0
   44.5430   35.6470   44.8940 C   0  0  0  0  0  0  0  0  0  0  0  0
   45.1570   35.7020   43.6380 C   0  0  0  0  0  0  0  0  0  0  0  0
   46.1530   34.7610   43.3340 C   0  0  0  0  0  0  0  0  0  0  0  0
   46.4810   33.8350   44.2760 N   0  0  0  0  0  0  0  0  0  0  0  0
   45.8660   33.8110   45.4820 C   0  0  0  0  0  0  0  0  0  0  0  0
   44.9030   34.7160   45.7810 N   0  0  0  0  0  0  0  0  0  0  0  0
   46.2280   32.7970   46.5080 C   0  0  0  0  0  0  0  0  0  0  0  0
   45.2130   32.8640   47.6430 C   0  0  0  0  0  0  0  0  0  0  0  0
   48.4744   35.9166   42.7566 H   0  0  0  0  0  0  0  0  0  0  0  0
   49.6363   35.7821   40.5319 H   0  0  0  0  0  0  0  0  0  0  0  0
   49.5095   34.8432   38.1873 H   0  0  0  0  0  0  0  0  0  0  0  0
   48.1138   33.8420   37.7052 H   0  0  0  0  0  0  0  0  0  0  0  0
   43.7595   36.3746   45.1522 H   0  0  0  0  0  0  0  0  0  0  0  0
   44.8651   36.4672   42.9037 H   0  0  0  0  0  0  0  0  0  0  0  0
   46.2135   31.7936   46.0576 H   0  0  0  0  0  0  0  0  0  0  0  0
   47.2370   33.0009   46.8959 H   0  0  0  0  0  0  0  0  0  0  0  0
   45.7395   32.8292   48.6082 H   0  0  0  0  0  0  0  0  0  0  0  0
   44.6427   33.8017   47.5700 H   0  0  0  0  0  0  0  0  0  0  0  0
   44.5243   32.0094   47.5700 H   0  0  0  0  0  0  0  0  0  0  0  0
  1 11  1  0
  2  1  1  0
  3  2  2  0
  4  6  2  0
  4  3  1  0
  5  4  1  0
  6  7  1  0
  7  8  2  0
  7  1  1  0
  9 14  2  0
 10  9  1  0
 11 10  2  0
 11 12  1  0
 12 13  2  0
 13 14  1  0
 13 15  1  0
 15 16  1  0
  2 17  1  0
  3 18  1  0
  5 19  1  0
  5 20  1  0
  9 21  1  0
 10 22  1  0
 15 23  1  0
 15 24  1  0
 16 25  1  0
 16 26  1  0
 16 27  1  0
M  ISO  8  17  14  18  14  21  14  22  14  23   8  24   8  25   8  26   8
M  ISO  1  27   8
M  END
>  <minimizedAffinity>  (1) 
-5.48150921

>  <minimizedRMSD>  (1) 
0.279541403

$$$$
