
     RDKit          3D

 31 33  0  0  0  0  0  0  0  0999 V2000
   44.4120   35.9690   44.8530 C   0  0  0  0  0  0  0  0  0  0  0  0
   44.6580   35.6390   43.5170 C   0  0  0  0  0  0  0  0  0  0  0  0
   45.2410   34.4250   43.1970 C   0  0  0  0  0  0  0  0  0  0  0  0
   45.5530   33.5930   44.2330 N   0  0  0  0  0  0  0  0  0  0  0  0
   45.3110   33.9240   45.5130 C   0  0  0  0  0  0  0  0  0  0  0  0
   44.7450   35.1020   45.8230 N   0  0  0  0  0  0  0  0  0  0  0  0
   45.6370   33.0520   46.6010 N   0  0  0  0  0  0  0  0  0  0  0  0
   45.3740   32.9700   47.8870 N   0  0  0  0  0  0  0  0  0  0  0  0
   45.9630   31.9080   48.4270 C   0  0  0  0  0  0  0  0  0  0  0  0
   46.6600   31.2590   47.4060 C   0  0  0  0  0  0  0  0  0  0  0  0
   46.4330   32.0090   46.2560 C   0  0  0  0  0  0  0  0  0  0  0  0
   45.5340   33.9900   41.8750 N   0  0  0  0  0  0  0  0  0  0  0  0
   46.6810   34.3810   41.2680 C   0  0  0  0  0  0  0  0  0  0  0  0
   46.9430   33.9400   39.9740 C   0  0  0  0  0  0  0  0  0  0  0  0
   45.9940   33.1230   39.4000 C   0  0  0  0  0  0  0  0  0  0  0  0
   46.1330   32.5960   38.0740 N   0  0  0  0  0  0  0  0  0  0  0  0
   44.8500   32.7410   40.0210 N   0  0  0  0  0  0  0  0  0  0  0  0
   44.6110   33.1860   41.2960 C   0  0  0  0  0  0  0  0  0  0  0  0
   43.5590   32.8530   41.9070 O   0  0  0  0  0  0  0  0  0  0  0  0
   48.1480   34.2970   39.2200 C   0  0  0  0  0  0  0  0  0  0  0  0
   48.7550   35.4200   39.7500 F   0  0  0  0  0  0  0  0  0  0  0  0
   47.7840   34.5240   37.8920 F   0  0  0  0  0  0  0  0  0  0  0  0
   48.9900   33.1990   39.1910 F   0  0  0  0  0  0  0  0  0  0  0  0
   43.9483   36.9333   45.1082 H   0  0  0  0  0  0  0  0  0  0  0  0
   44.3877   36.3455   42.7184 H   0  0  0  0  0  0  0  0  0  0  0  0
   45.9111   31.5982   49.4812 H   0  0  0  0  0  0  0  0  0  0  0  0
   47.2639   30.3437   47.4927 H   0  0  0  0  0  0  0  0  0  0  0  0
   46.8268   31.7953   45.2514 H   0  0  0  0  0  0  0  0  0  0  0  0
   47.3937   35.0366   41.7898 H   0  0  0  0  0  0  0  0  0  0  0  0
   45.3997   31.9883   37.6819 H   0  0  0  0  0  0  0  0  0  0  0  0
   46.9662   32.8251   37.5135 H   0  0  0  0  0  0  0  0  0  0  0  0
  1  6  2  0
  2  1  1  0
  3  2  2  0
  3  4  1  0
  4  5  2  0
  5  6  1  0
  5  7  1  0
  7  8  1  0
  8  9  2  0
 10  9  1  0
 11  7  1  0
 11 10  2  0
 12  3  1  0
 13 12  1  0
 14 13  2  0
 15 14  1  0
 15 17  2  0
 16 15  1  0
 17 18  1  0
 18 12  1  0
 18 19  2  0
 20 21  1  0
 20 14  1  0
 22 20  1  0
 23 20  1  0
  1 24  1  0
  2 25  1  0
  9 26  1  0
 10 27  1  0
 11 28  1  0
 13 29  1  0
 16 30  1  0
 16 31  1  0
M  ISO  6  24  14  25  14  26  14  27  14  28  14  29  14
M  END
>  <minimizedAffinity>  (1) 
-6.21546793

>  <minimizedRMSD>  (1) 
1.76500237

$$$$
