
     RDKit          3D

 34 36  0  0  0  0  0  0  0  0999 V2000
   44.5600   35.7020   44.8160 C   0  0  0  0  0  0  0  0  0  0  0  0
   45.3200   35.4780   43.6630 C   0  0  0  0  0  0  0  0  0  0  0  0
   46.2160   34.4160   43.6070 C   0  0  0  0  0  0  0  0  0  0  0  0
   46.3000   33.6340   44.7210 N   0  0  0  0  0  0  0  0  0  0  0  0
   45.5650   33.8610   45.8220 C   0  0  0  0  0  0  0  0  0  0  0  0
   44.6990   34.8850   45.8760 N   0  0  0  0  0  0  0  0  0  0  0  0
   45.6630   33.0290   46.9830 N   0  0  0  0  0  0  0  0  0  0  0  0
   44.9970   32.8600   48.1040 N   0  0  0  0  0  0  0  0  0  0  0  0
   45.5570   31.9090   48.8480 C   0  0  0  0  0  0  0  0  0  0  0  0
   46.6610   31.4370   48.1540 C   0  0  0  0  0  0  0  0  0  0  0  0
   46.7090   32.1640   46.9690 C   0  0  0  0  0  0  0  0  0  0  0  0
   47.0300   34.1040   42.4880 N   0  0  0  0  0  0  0  0  0  0  0  0
   48.3190   33.7060   42.6820 C   0  0  0  0  0  0  0  0  0  0  0  0
   49.1010   33.4050   41.5840 C   0  0  0  0  0  0  0  0  0  0  0  0
   48.5070   33.5310   40.3410 C   0  0  0  0  0  0  0  0  0  0  0  0
   49.1800   33.2580   39.1260 N   0  0  0  0  0  0  0  0  0  0  0  0
   47.2350   33.9250   40.1900 N   0  0  0  0  0  0  0  0  0  0  0  0
   46.4580   34.2250   41.2820 C   0  0  0  0  0  0  0  0  0  0  0  0
   45.2540   34.6000   41.1730 O   0  0  0  0  0  0  0  0  0  0  0  0
   50.5150   32.9620   41.6650 C   0  0  0  0  0  0  0  0  0  0  0  0
   50.7070   31.6460   42.3330 C   0  0  0  0  0  0  0  0  0  0  0  0
   43.8517   36.5426   44.8558 H   0  0  0  0  0  0  0  0  0  0  0  0
   45.2082   36.1456   42.7959 H   0  0  0  0  0  0  0  0  0  0  0  0
   45.2085   31.5616   49.8318 H   0  0  0  0  0  0  0  0  0  0  0  0
   47.3571   30.6482   48.4752 H   0  0  0  0  0  0  0  0  0  0  0  0
   47.4562   32.0576   46.1688 H   0  0  0  0  0  0  0  0  0  0  0  0
   48.7308   33.6256   43.6988 H   0  0  0  0  0  0  0  0  0  0  0  0
   48.6875   33.3691   38.2282 H   0  0  0  0  0  0  0  0  0  0  0  0
   50.1622   32.9483   39.1397 H   0  0  0  0  0  0  0  0  0  0  0  0
   50.9127   32.8904   40.6419 H   0  0  0  0  0  0  0  0  0  0  0  0
   51.0439   33.7067   42.2780 H   0  0  0  0  0  0  0  0  0  0  0  0
   50.6871   31.7824   43.4243 H   0  0  0  0  0  0  0  0  0  0  0  0
   49.8992   30.9618   42.0342 H   0  0  0  0  0  0  0  0  0  0  0  0
   51.6766   31.2211   42.0342 H   0  0  0  0  0  0  0  0  0  0  0  0
  1  6  2  0
  2  1  1  0
  3  2  2  0
  3  4  1  0
  4  5  2  0
  5  6  1  0
  5  7  1  0
  7  8  1  0
  8  9  2  0
 10  9  1  0
 11  7  1  0
 11 10  2  0
 12 13  1  0
 12  3  1  0
 14 20  1  0
 14 13  2  0
 15 14  1  0
 16 15  1  0
 17 15  2  0
 17 18  1  0
 18 12  1  0
 19 18  2  0
 20 21  1  0
  1 22  1  0
  2 23  1  0
  9 24  1  0
 10 25  1  0
 11 26  1  0
 13 27  1  0
 16 28  1  0
 16 29  1  0
 20 30  1  0
 20 31  1  0
 21 32  1  0
 21 33  1  0
 21 34  1  0
M  ISO  8  22  14  23  14  24  14  25  14  26  14  27  14  30   8  31   8
M  ISO  3  32   8  33   8  34   8
M  END
>  <minimizedAffinity>  (1) 
-6.19498348

>  <minimizedRMSD>  (1) 
1.40696573

$$$$
