
     RDKit          3D

 39 42  0  0  0  0  0  0  0  0999 V2000
   44.8290   33.6980   40.2960 N   0  0  0  0  0  0  0  0  0  0  0  0
   45.7430   34.2740   41.1140 C   0  0  0  0  0  0  0  0  0  0  0  0
   47.0640   34.3760   40.6910 C   0  0  0  0  0  0  0  0  0  0  0  0
   47.3430   33.8710   39.4500 C   0  0  0  0  0  0  0  0  0  0  0  0
   48.6690   33.9120   38.8910 N   0  0  0  0  0  0  0  0  0  0  0  0
   46.4250   33.3000   38.6450 N   0  0  0  0  0  0  0  0  0  0  0  0
   45.1290   33.2050   39.0700 C   0  0  0  0  0  0  0  0  0  0  0  0
   44.2410   32.6770   38.3480 O   0  0  0  0  0  0  0  0  0  0  0  0
   41.1970   34.3470   40.9580 C   0  0  0  0  0  0  0  0  0  0  0  0
   42.5080   34.5540   40.5200 C   0  0  0  0  0  0  0  0  0  0  0  0
   43.4760   33.5820   40.7030 C   0  0  0  0  0  0  0  0  0  0  0  0
   43.0700   32.4420   41.3250 N   0  0  0  0  0  0  0  0  0  0  0  0
   41.8120   32.2520   41.7410 C   0  0  0  0  0  0  0  0  0  0  0  0
   40.8810   33.1970   41.5590 N   0  0  0  0  0  0  0  0  0  0  0  0
   41.4130   31.0350   42.3960 N   0  0  0  0  0  0  0  0  0  0  0  0
   40.2820   30.4580   42.7320 N   0  0  0  0  0  0  0  0  0  0  0  0
   40.4910   29.2990   43.3380 C   0  0  0  0  0  0  0  0  0  0  0  0
   41.8770   29.1190   43.3920 C   0  0  0  0  0  0  0  0  0  0  0  0
   42.4350   30.2390   42.7850 C   0  0  0  0  0  0  0  0  0  0  0  0
   45.3610   34.7870   42.4250 C   0  0  0  0  0  0  0  0  0  0  0  0
   45.5790   33.8220   43.4150 C   0  0  0  0  0  0  0  0  0  0  0  0
   45.2720   34.1260   44.7470 C   0  0  0  0  0  0  0  0  0  0  0  0
   44.7700   35.3480   45.0480 N   0  0  0  0  0  0  0  0  0  0  0  0
   44.5800   36.2390   44.0570 C   0  0  0  0  0  0  0  0  0  0  0  0
   44.8580   35.9980   42.7620 N   0  0  0  0  0  0  0  0  0  0  0  0
   48.1170   34.9860   41.5130 C   0  0  0  0  0  0  0  0  0  0  0  0
   47.6140   35.9040   42.3980 F   0  0  0  0  0  0  0  0  0  0  0  0
   49.0250   35.6140   40.6430 F   0  0  0  0  0  0  0  0  0  0  0  0
   48.8390   33.9700   42.1130 F   0  0  0  0  0  0  0  0  0  0  0  0
   48.8450   33.5228   37.9537 H   0  0  0  0  0  0  0  0  0  0  0  0
   49.4417   34.3305   39.4283 H   0  0  0  0  0  0  0  0  0  0  0  0
   40.4327   35.1240   40.8091 H   0  0  0  0  0  0  0  0  0  0  0  0
   42.7732   35.4996   40.0245 H   0  0  0  0  0  0  0  0  0  0  0  0
   39.7237   28.6116   43.7238 H   0  0  0  0  0  0  0  0  0  0  0  0
   42.4165   28.2645   43.8266 H   0  0  0  0  0  0  0  0  0  0  0  0
   43.5076   30.4400   42.6470 H   0  0  0  0  0  0  0  0  0  0  0  0
   45.9870   32.8355   43.1497 H   0  0  0  0  0  0  0  0  0  0  0  0
   45.4365   33.3814   45.5398 H   0  0  0  0  0  0  0  0  0  0  0  0
   44.1721   37.2256   44.3219 H   0  0  0  0  0  0  0  0  0  0  0  0
  1 11  1  0
  1  2  1  0
  2 20  1  0
  3  2  2  0
  3 26  1  0
  4  3  1  0
  5  4  1  0
  6  7  1  0
  6  4  2  0
  7  1  1  0
  8  7  2  0
  9 14  2  0
 10 11  2  0
 10  9  1  0
 11 12  1  0
 12 13  2  0
 13 15  1  0
 14 13  1  0
 15 16  1  0
 15 19  1  0
 16 17  2  0
 17 18  1  0
 19 18  2  0
 20 25  1  0
 20 21  2  0
 21 22  1  0
 22 23  2  0
 24 23  1  0
 25 24  2  0
 26 29  1  0
 26 27  1  0
 28 26  1  0
  5 30  1  0
  5 31  1  0
  9 32  1  0
 10 33  1  0
 17 34  1  0
 18 35  1  0
 19 36  1  0
 21 37  1  0
 22 38  1  0
 24 39  1  0
M  ISO  8  32  14  33  14  34  14  35  14  36  14  37  14  38  14  39  14
M  END
>  <minimizedAffinity>  (1) 
-6.96611786

>  <minimizedRMSD>  (1) 
4.31558228

$$$$
