
     RDKit          3D

 38 41  0  0  0  0  0  0  0  0999 V2000
   45.4830   34.0750   41.2200 N   0  0  0  0  0  0  0  0  0  0  0  0
   46.7090   34.0990   40.6480 C   0  0  0  0  0  0  0  0  0  0  0  0
   46.8520   33.6600   39.3350 C   0  0  0  0  0  0  0  0  0  0  0  0
   45.7140   33.2240   38.7010 C   0  0  0  0  0  0  0  0  0  0  0  0
   45.7120   32.7450   37.3520 N   0  0  0  0  0  0  0  0  0  0  0  0
   44.5010   33.2080   39.2880 N   0  0  0  0  0  0  0  0  0  0  0  0
   44.3720   33.6420   40.5780 C   0  0  0  0  0  0  0  0  0  0  0  0
   43.2450   33.6410   41.1630 O   0  0  0  0  0  0  0  0  0  0  0  0
   44.7610   36.1190   44.2760 C   0  0  0  0  0  0  0  0  0  0  0  0
   44.9050   35.7870   42.9220 C   0  0  0  0  0  0  0  0  0  0  0  0
   45.3060   34.5150   42.5520 C   0  0  0  0  0  0  0  0  0  0  0  0
   45.5410   33.6440   43.5630 N   0  0  0  0  0  0  0  0  0  0  0  0
   45.4080   33.9500   44.8540 C   0  0  0  0  0  0  0  0  0  0  0  0
   45.0150   35.1910   45.2110 N   0  0  0  0  0  0  0  0  0  0  0  0
   45.6620   33.0320   45.9090 N   0  0  0  0  0  0  0  0  0  0  0  0
   45.4570   32.9680   47.2060 N   0  0  0  0  0  0  0  0  0  0  0  0
   45.9460   31.8310   47.7120 C   0  0  0  0  0  0  0  0  0  0  0  0
   46.5050   31.1150   46.6540 C   0  0  0  0  0  0  0  0  0  0  0  0
   46.3060   31.9080   45.5190 C   0  0  0  0  0  0  0  0  0  0  0  0
   47.8580   34.5620   41.3530 N   0  0  0  0  0  0  0  0  0  0  0  0
   48.4350   33.5830   42.0430 N   0  0  0  0  0  0  0  0  0  0  0  0
   49.5200   34.0400   42.7030 C   0  0  0  0  0  0  0  0  0  0  0  0
   49.6100   35.3820   42.3960 C   0  0  0  0  0  0  0  0  0  0  0  0
   48.5520   35.6850   41.5440 C   0  0  0  0  0  0  0  0  0  0  0  0
   48.1390   33.6430   38.6230 C   0  0  0  0  0  0  0  0  0  0  0  0
   48.6100   34.9140   38.3890 F   0  0  0  0  0  0  0  0  0  0  0  0
   47.9660   32.9440   37.4240 F   0  0  0  0  0  0  0  0  0  0  0  0
   49.0340   32.8800   39.3570 F   0  0  0  0  0  0  0  0  0  0  0  0
   46.5900   32.7166   36.8143 H   0  0  0  0  0  0  0  0  0  0  0  0
   44.8325   32.4288   36.9191 H   0  0  0  0  0  0  0  0  0  0  0  0
   44.4429   37.1304   44.5692 H   0  0  0  0  0  0  0  0  0  0  0  0
   44.6981   36.5417   42.1489 H   0  0  0  0  0  0  0  0  0  0  0  0
   45.9134   31.5187   48.7662 H   0  0  0  0  0  0  0  0  0  0  0  0
   46.9986   30.1331   46.7019 H   0  0  0  0  0  0  0  0  0  0  0  0
   46.6174   31.6618   44.4931 H   0  0  0  0  0  0  0  0  0  0  0  0
   50.1938   33.4615   43.3521 H   0  0  0  0  0  0  0  0  0  0  0  0
   50.3765   36.0831   42.7578 H   0  0  0  0  0  0  0  0  0  0  0  0
   48.3290   36.6700   41.1081 H   0  0  0  0  0  0  0  0  0  0  0  0
  1 11  1  0
  2  1  1  0
  2 20  1  0
  3  2  2  0
  4  6  2  0
  4  3  1  0
  5  4  1  0
  6  7  1  0
  7  8  2  0
  7  1  1  0
  9 14  2  0
 10  9  1  0
 11 10  2  0
 11 12  1  0
 12 13  2  0
 13 14  1  0
 13 15  1  0
 15 16  1  0
 16 17  2  0
 18 17  1  0
 19 15  1  0
 19 18  2  0
 20 24  1  0
 20 21  1  0
 21 22  2  0
 23 22  1  0
 24 23  2  0
 25  3  1  0
 25 28  1  0
 26 25  1  0
 27 25  1  0
  5 29  1  0
  5 30  1  0
  9 31  1  0
 10 32  1  0
 17 33  1  0
 18 34  1  0
 19 35  1  0
 22 36  1  0
 23 37  1  0
 24 38  1  0
M  ISO  8  31  14  32  14  33  14  34  14  35  14  36  14  37  14  38  14
M  END
>  <minimizedAffinity>  (1) 
-6.92126179

>  <minimizedRMSD>  (1) 
0.936522305

$$$$
