
     RDKit          3D

 38 41  0  0  0  0  0  0  0  0999 V2000
   45.0250   34.0640   41.1300 N   0  0  0  0  0  0  0  0  0  0  0  0
   46.1950   33.7660   40.5010 C   0  0  0  0  0  0  0  0  0  0  0  0
   46.1310   33.3370   39.1760 C   0  0  0  0  0  0  0  0  0  0  0  0
   44.8780   33.2480   38.5980 C   0  0  0  0  0  0  0  0  0  0  0  0
   44.6810   32.8210   37.2450 N   0  0  0  0  0  0  0  0  0  0  0  0
   43.7220   33.5510   39.2360 N   0  0  0  0  0  0  0  0  0  0  0  0
   43.7980   33.9710   40.5420 C   0  0  0  0  0  0  0  0  0  0  0  0
   42.7430   34.2670   41.1710 O   0  0  0  0  0  0  0  0  0  0  0  0
   44.8220   36.1190   44.2440 C   0  0  0  0  0  0  0  0  0  0  0  0
   44.7810   35.7840   42.8890 C   0  0  0  0  0  0  0  0  0  0  0  0
   45.0200   34.4930   42.4750 C   0  0  0  0  0  0  0  0  0  0  0  0
   45.2950   33.5680   43.4540 N   0  0  0  0  0  0  0  0  0  0  0  0
   45.3300   33.9120   44.7550 C   0  0  0  0  0  0  0  0  0  0  0  0
   45.0970   35.1670   45.1470 N   0  0  0  0  0  0  0  0  0  0  0  0
   45.6390   32.9370   45.7750 N   0  0  0  0  0  0  0  0  0  0  0  0
   45.5620   32.8670   47.0840 N   0  0  0  0  0  0  0  0  0  0  0  0
   45.9800   31.6960   47.5280 C   0  0  0  0  0  0  0  0  0  0  0  0
   46.3540   30.9600   46.4140 C   0  0  0  0  0  0  0  0  0  0  0  0
   46.1330   31.7610   45.3070 C   0  0  0  0  0  0  0  0  0  0  0  0
   47.4240   34.1170   41.1910 C   0  0  0  0  0  0  0  0  0  0  0  0
   47.9910   35.2850   41.0270 C   0  0  0  0  0  0  0  0  0  0  0  0
   49.0770   35.8040   41.6520 C   0  0  0  0  0  0  0  0  0  0  0  0
   49.6150   34.8090   42.6480 C   0  0  0  0  0  0  0  0  0  0  0  0
   48.4940   33.3990   42.4820 S   0  0  0  0  0  0  0  0  0  0  0  0
   47.3040   32.9560   38.3970 C   0  0  0  0  0  0  0  0  0  0  0  0
   48.2400   32.3320   39.1680 F   0  0  0  0  0  0  0  0  0  0  0  0
   47.8230   34.0920   37.7860 F   0  0  0  0  0  0  0  0  0  0  0  0
   46.9000   32.1440   37.3280 F   0  0  0  0  0  0  0  0  0  0  0  0
   43.7292   32.7693   36.8547 H   0  0  0  0  0  0  0  0  0  0  0  0
   45.4911   32.5656   36.6624 H   0  0  0  0  0  0  0  0  0  0  0  0
   44.6307   37.1530   44.5670 H   0  0  0  0  0  0  0  0  0  0  0  0
   44.5551   36.5608   42.1436 H   0  0  0  0  0  0  0  0  0  0  0  0
   46.0231   31.3682   48.5771 H   0  0  0  0  0  0  0  0  0  0  0  0
   46.7510   29.9342   46.4106 H   0  0  0  0  0  0  0  0  0  0  0  0
   46.3204   31.4974   44.2556 H   0  0  0  0  0  0  0  0  0  0  0  0
   47.5206   35.9376   40.2767 H   0  0  0  0  0  0  0  0  0  0  0  0
   49.5012   36.8008   41.4608 H   0  0  0  0  0  0  0  0  0  0  0  0
   50.4823   34.9149   43.3163 H   0  0  0  0  0  0  0  0  0  0  0  0
  1 11  1  0
  2  1  1  0
  2 20  1  0
  3  2  2  0
  4  3  1  0
  4  6  2  0
  5  4  1  0
  6  7  1  0
  7  1  1  0
  7  8  2  0
  9 14  2  0
 10  9  1  0
 11 10  2  0
 11 12  1  0
 12 13  2  0
 13 14  1  0
 13 15  1  0
 15 16  1  0
 16 17  2  0
 18 17  1  0
 19 15  1  0
 19 18  2  0
 20 24  1  0
 21 20  2  0
 21 22  1  0
 22 23  2  0
 24 23  1  0
 25 26  1  0
 25  3  1  0
 27 25  1  0
 28 25  1  0
  5 29  1  0
  5 30  1  0
  9 31  1  0
 10 32  1  0
 17 33  1  0
 18 34  1  0
 19 35  1  0
 21 36  1  0
 22 37  1  0
 23 38  1  0
M  ISO  8  31  14  32  14  33  14  34  14  35  14  36  14  37  14  38  14
M  END
>  <minimizedAffinity>  (1) 
-6.90130854

>  <minimizedRMSD>  (1) 
1.62905264

$$$$
