
     RDKit          3D

 43 46  0  0  0  0  0  0  0  0999 V2000
   45.3210   34.0820   41.5000 N   0  0  0  0  0  0  0  0  0  0  0  0
   46.5620   34.0800   40.9260 C   0  0  0  0  0  0  0  0  0  0  0  0
   46.6580   33.6510   39.6030 C   0  0  0  0  0  0  0  0  0  0  0  0
   45.4950   33.2610   38.9740 C   0  0  0  0  0  0  0  0  0  0  0  0
   45.4720   32.8040   37.6250 N   0  0  0  0  0  0  0  0  0  0  0  0
   44.2910   33.2780   39.5750 N   0  0  0  0  0  0  0  0  0  0  0  0
   44.1820   33.6970   40.8750 C   0  0  0  0  0  0  0  0  0  0  0  0
   43.0750   33.7220   41.4590 O   0  0  0  0  0  0  0  0  0  0  0  0
   44.6470   36.1270   44.5730 C   0  0  0  0  0  0  0  0  0  0  0  0
   44.7720   35.7960   43.2270 C   0  0  0  0  0  0  0  0  0  0  0  0
   45.1640   34.5160   42.8450 C   0  0  0  0  0  0  0  0  0  0  0  0
   45.4070   33.6370   43.8460 N   0  0  0  0  0  0  0  0  0  0  0  0
   45.2850   33.9590   45.1510 C   0  0  0  0  0  0  0  0  0  0  0  0
   44.9070   35.1970   45.5140 N   0  0  0  0  0  0  0  0  0  0  0  0
   45.5430   33.0100   46.1950 N   0  0  0  0  0  0  0  0  0  0  0  0
   45.3280   32.9350   47.4910 N   0  0  0  0  0  0  0  0  0  0  0  0
   45.7760   31.7930   47.9760 C   0  0  0  0  0  0  0  0  0  0  0  0
   46.3210   31.0800   46.9030 C   0  0  0  0  0  0  0  0  0  0  0  0
   46.1620   31.8760   45.7810 C   0  0  0  0  0  0  0  0  0  0  0  0
   47.6920   34.5080   41.7210 N   0  0  0  0  0  0  0  0  0  0  0  0
   48.3270   33.4810   42.5190 C   0  0  0  0  0  0  0  0  0  0  0  0
   49.7390   33.9960   42.6280 C   0  0  0  0  0  0  0  0  0  0  0  0
   49.7380   35.4490   42.2410 C   0  0  0  0  0  0  0  0  0  0  0  0
   48.3150   35.8010   41.8950 C   0  0  0  0  0  0  0  0  0  0  0  0
   47.9360   33.6070   38.8920 C   0  0  0  0  0  0  0  0  0  0  0  0
   48.4910   34.8450   38.7360 F   0  0  0  0  0  0  0  0  0  0  0  0
   47.7100   33.0210   37.6340 F   0  0  0  0  0  0  0  0  0  0  0  0
   48.7750   32.7230   39.5510 F   0  0  0  0  0  0  0  0  0  0  0  0
   46.3463   32.7560   37.0825 H   0  0  0  0  0  0  0  0  0  0  0  0
   44.5811   32.5216   37.1921 H   0  0  0  0  0  0  0  0  0  0  0  0
   44.3381   37.1409   44.8673 H   0  0  0  0  0  0  0  0  0  0  0  0
   44.5591   36.5529   42.4578 H   0  0  0  0  0  0  0  0  0  0  0  0
   45.7298   31.4640   49.0246 H   0  0  0  0  0  0  0  0  0  0  0  0
   46.7846   30.0833   46.9426 H   0  0  0  0  0  0  0  0  0  0  0  0
   46.4762   31.6357   44.7546 H   0  0  0  0  0  0  0  0  0  0  0  0
   47.8553   33.3956   43.5091 H   0  0  0  0  0  0  0  0  0  0  0  0
   48.2551   32.4735   42.0834 H   0  0  0  0  0  0  0  0  0  0  0  0
   50.0971   33.8860   43.6622 H   0  0  0  0  0  0  0  0  0  0  0  0
   50.4049   33.4254   41.9639 H   0  0  0  0  0  0  0  0  0  0  0  0
   50.0879   36.0660   43.0818 H   0  0  0  0  0  0  0  0  0  0  0  0
   50.4104   35.6335   41.3902 H   0  0  0  0  0  0  0  0  0  0  0  0
   48.2681   36.3903   40.9673 H   0  0  0  0  0  0  0  0  0  0  0  0
   47.8234   36.4190   42.6608 H   0  0  0  0  0  0  0  0  0  0  0  0
  1 11  1  0
  2  1  1  0
  2 20  1  0
  3  2  2  0
  4  6  2  0
  4  3  1  0
  5  4  1  0
  6  7  1  0
  7  8  2  0
  7  1  1  0
  9 14  2  0
 10  9  1  0
 11 10  2  0
 11 12  1  0
 12 13  2  0
 13 14  1  0
 13 15  1  0
 15 16  1  0
 16 17  2  0
 18 17  1  0
 19 15  1  0
 19 18  2  0
 20 24  1  0
 20 21  1  0
 21 22  1  0
 23 22  1  0
 24 23  1  0
 25 28  1  0
 25  3  1  0
 26 25  1  0
 27 25  1  0
  5 29  1  0
  5 30  1  0
  9 31  1  0
 10 32  1  0
 17 33  1  0
 18 34  1  0
 19 35  1  0
 21 36  1  0
 21 37  1  0
 22 38  1  0
 22 39  1  0
 23 40  1  0
 23 41  1  0
 24 42  1  0
 24 43  1  0
M  ISO  8  31  14  32  14  33  14  34  14  35  14  36  13  37  13  38  13
M  ISO  5  39  13  40  13  41  13  42  13  43  13
M  END
>  <minimizedAffinity>  (1) 
-6.84365797

>  <minimizedRMSD>  (1) 
0.877093315

$$$$
