
     RDKit          3D

 42 46  0  0  0  0  0  0  0  0999 V2000
   44.5800   34.0090   41.3980 N   0  0  0  0  0  0  0  0  0  0  0  0
   45.5790   33.3930   40.7360 C   0  0  0  0  0  0  0  0  0  0  0  0
   45.4090   33.0160   39.4130 C   0  0  0  0  0  0  0  0  0  0  0  0
   44.1790   33.3140   38.8500 C   0  0  0  0  0  0  0  0  0  0  0  0
   43.8570   32.9880   37.4990 N   0  0  0  0  0  0  0  0  0  0  0  0
   43.1790   33.9320   39.5150 N   0  0  0  0  0  0  0  0  0  0  0  0
   43.3830   34.2920   40.8270 C   0  0  0  0  0  0  0  0  0  0  0  0
   42.4670   34.8730   41.4820 O   0  0  0  0  0  0  0  0  0  0  0  0
   44.7200   35.9650   44.5800 C   0  0  0  0  0  0  0  0  0  0  0  0
   44.5440   35.6850   43.2270 C   0  0  0  0  0  0  0  0  0  0  0  0
   44.7320   34.4040   42.7540 C   0  0  0  0  0  0  0  0  0  0  0  0
   45.0880   33.4670   43.6610 N   0  0  0  0  0  0  0  0  0  0  0  0
   45.2600   33.7230   44.9590 C   0  0  0  0  0  0  0  0  0  0  0  0
   45.0760   34.9800   45.4220 N   0  0  0  0  0  0  0  0  0  0  0  0
   45.6390   32.7430   45.9170 N   0  0  0  0  0  0  0  0  0  0  0  0
   45.7070   32.6380   47.2190 N   0  0  0  0  0  0  0  0  0  0  0  0
   46.1660   31.4330   47.5830 C   0  0  0  0  0  0  0  0  0  0  0  0
   46.4090   30.7150   46.4110 C   0  0  0  0  0  0  0  0  0  0  0  0
   46.0630   31.5770   45.3640 C   0  0  0  0  0  0  0  0  0  0  0  0
   46.8100   33.1190   41.3700 N   0  0  0  0  0  0  0  0  0  0  0  0
   47.2580   31.9370   41.8860 C   0  0  0  0  0  0  0  0  0  0  0  0
   48.4900   32.0690   42.4140 N   0  0  0  0  0  0  0  0  0  0  0  0
   48.8800   33.3490   42.2580 C   0  0  0  0  0  0  0  0  0  0  0  0
   50.0280   34.0340   42.6050 C   0  0  0  0  0  0  0  0  0  0  0  0
   50.0780   35.3450   42.2860 N   0  0  0  0  0  0  0  0  0  0  0  0
   49.0610   35.9690   41.6560 C   0  0  0  0  0  0  0  0  0  0  0  0
   47.9290   35.2960   41.3140 N   0  0  0  0  0  0  0  0  0  0  0  0
   47.8360   33.9810   41.6150 C   0  0  0  0  0  0  0  0  0  0  0  0
   46.4390   32.3390   38.6090 C   0  0  0  0  0  0  0  0  0  0  0  0
   47.6550   32.9690   38.7210 F   0  0  0  0  0  0  0  0  0  0  0  0
   46.0020   32.3330   37.2800 F   0  0  0  0  0  0  0  0  0  0  0  0
   46.4720   31.0040   38.9970 F   0  0  0  0  0  0  0  0  0  0  0  0
   42.9303   33.2271   37.1184 H   0  0  0  0  0  0  0  0  0  0  0  0
   44.5512   32.5135   36.9042 H   0  0  0  0  0  0  0  0  0  0  0  0
   44.5684   36.9871   44.9574 H   0  0  0  0  0  0  0  0  0  0  0  0
   44.2541   36.4885   42.5339 H   0  0  0  0  0  0  0  0  0  0  0  0
   46.3220   31.0766   48.6119 H   0  0  0  0  0  0  0  0  0  0  0  0
   46.7921   29.6872   46.3277 H   0  0  0  0  0  0  0  0  0  0  0  0
   46.1234   31.3513   44.2891 H   0  0  0  0  0  0  0  0  0  0  0  0
   46.6861   30.9974   41.8723 H   0  0  0  0  0  0  0  0  0  0  0  0
   50.8632   33.5344   43.1177 H   0  0  0  0  0  0  0  0  0  0  0  0
   49.1484   37.0387   41.4151 H   0  0  0  0  0  0  0  0  0  0  0  0
  1 11  1  0
  2 20  1  0
  2  1  1  0
  3  2  2  0
  4  3  1  0
  4  6  2  0
  5  4  1  0
  6  7  1  0
  7  1  1  0
  7  8  2  0
  9 14  2  0
 10  9  1  0
 11 10  2  0
 11 12  1  0
 12 13  2  0
 13 14  1  0
 13 15  1  0
 15 16  1  0
 16 17  2  0
 18 17  1  0
 19 15  1  0
 19 18  2  0
 20 28  1  0
 20 21  1  0
 21 22  2  0
 23 22  1  0
 23 24  2  0
 25 24  1  0
 26 25  2  0
 27 28  2  0
 27 26  1  0
 28 23  1  0
 29 30  1  0
 29 32  1  0
 29  3  1  0
 31 29  1  0
  5 33  1  0
  5 34  1  0
  9 35  1  0
 10 36  1  0
 17 37  1  0
 18 38  1  0
 19 39  1  0
 21 40  1  0
 24 41  1  0
 26 42  1  0
M  ISO  8  35  14  36  14  37  14  38  14  39  14  40  14  41  14  42  14
M  END
>  <minimizedAffinity>  (1) 
-6.83870268

>  <minimizedRMSD>  (1) 
2.41988325

$$$$
