
     RDKit          3D

 37 39  0  0  0  0  0  0  0  0999 V2000
   45.4900   34.0350   41.8710 N   0  0  0  0  0  0  0  0  0  0  0  0
   46.6630   34.3740   41.2790 C   0  0  0  0  0  0  0  0  0  0  0  0
   46.8920   33.9570   39.9840 C   0  0  0  0  0  0  0  0  0  0  0  0
   45.8950   33.2100   39.3750 C   0  0  0  0  0  0  0  0  0  0  0  0
   46.0040   32.7130   38.0430 N   0  0  0  0  0  0  0  0  0  0  0  0
   44.7250   32.8820   39.9910 N   0  0  0  0  0  0  0  0  0  0  0  0
   44.5250   33.3100   41.2740 C   0  0  0  0  0  0  0  0  0  0  0  0
   43.4440   33.0210   41.8760 O   0  0  0  0  0  0  0  0  0  0  0  0
   44.4160   35.9910   44.8890 C   0  0  0  0  0  0  0  0  0  0  0  0
   44.6460   35.6710   43.5460 C   0  0  0  0  0  0  0  0  0  0  0  0
   45.2170   34.4520   43.2040 C   0  0  0  0  0  0  0  0  0  0  0  0
   45.5260   33.6200   44.2270 N   0  0  0  0  0  0  0  0  0  0  0  0
   45.3040   33.9280   45.5160 C   0  0  0  0  0  0  0  0  0  0  0  0
   44.7480   35.1170   45.8400 N   0  0  0  0  0  0  0  0  0  0  0  0
   45.6400   33.0290   46.5790 N   0  0  0  0  0  0  0  0  0  0  0  0
   45.3820   32.9540   47.8670 N   0  0  0  0  0  0  0  0  0  0  0  0
   45.9600   31.8770   48.3920 C   0  0  0  0  0  0  0  0  0  0  0  0
   46.6320   31.2290   47.3590 C   0  0  0  0  0  0  0  0  0  0  0  0
   46.4100   31.9880   46.2130 C   0  0  0  0  0  0  0  0  0  0  0  0
   48.1170   34.2630   39.2450 C   0  0  0  0  0  0  0  0  0  0  0  0
   48.6870   35.4300   39.6570 F   0  0  0  0  0  0  0  0  0  0  0  0
   47.8160   34.3280   37.8820 F   0  0  0  0  0  0  0  0  0  0  0  0
   48.9770   33.1750   39.3500 F   0  0  0  0  0  0  0  0  0  0  0  0
   47.5960   35.1980   42.0780 C   0  0  0  0  0  0  0  0  0  0  0  0
   48.7020   34.4260   42.7370 C   0  0  0  0  0  0  0  0  0  0  0  0
   45.2355   32.1623   37.6343 H   0  0  0  0  0  0  0  0  0  0  0  0
   46.8512   32.9047   37.4895 H   0  0  0  0  0  0  0  0  0  0  0  0
   43.9643   36.9571   45.1583 H   0  0  0  0  0  0  0  0  0  0  0  0
   44.3733   36.3882   42.7578 H   0  0  0  0  0  0  0  0  0  0  0  0
   45.9154   31.5584   49.4439 H   0  0  0  0  0  0  0  0  0  0  0  0
   47.2206   30.3027   47.4334 H   0  0  0  0  0  0  0  0  0  0  0  0
   46.7908   31.7772   45.2028 H   0  0  0  0  0  0  0  0  0  0  0  0
   48.0495   35.9468   41.4119 H   0  0  0  0  0  0  0  0  0  0  0  0
   47.0019   35.6458   42.8882 H   0  0  0  0  0  0  0  0  0  0  0  0
   48.5988   34.4980   43.8298 H   0  0  0  0  0  0  0  0  0  0  0  0
   48.6447   33.3707   42.4321 H   0  0  0  0  0  0  0  0  0  0  0  0
   49.6729   34.8436   42.4321 H   0  0  0  0  0  0  0  0  0  0  0  0
  1 11  1  0
  2  1  1  0
  2 24  1  0
  3  2  2  0
  4  3  1  0
  4  6  2  0
  5  4  1  0
  6  7  1  0
  7  1  1  0
  7  8  2  0
  9 14  2  0
 10  9  1  0
 11 10  2  0
 11 12  1  0
 12 13  2  0
 13 14  1  0
 13 15  1  0
 15 16  1  0
 16 17  2  0
 18 17  1  0
 19 15  1  0
 19 18  2  0
 20 23  1  0
 20 21  1  0
 20  3  1  0
 22 20  1  0
 24 25  1  0
  5 26  1  0
  5 27  1  0
  9 28  1  0
 10 29  1  0
 17 30  1  0
 18 31  1  0
 19 32  1  0
 24 33  1  0
 24 34  1  0
 25 35  1  0
 25 36  1  0
 25 37  1  0
M  ISO  8  28  14  29  14  30  14  31  14  32  14  33   8  34   8  35   8
M  ISO  2  36   8  37   8
M  END
>  <minimizedAffinity>  (1) 
-6.70163393

>  <minimizedRMSD>  (1) 
0.179467931

$$$$
