
     RDKit          3D

 33 35  0  0  0  0  0  0  0  0999 V2000
   45.4720   34.0860   41.9880 N   0  0  0  0  0  0  0  0  0  0  0  0
   46.6580   34.4140   41.4230 C   0  0  0  0  0  0  0  0  0  0  0  0
   46.9080   34.0370   40.1110 C   0  0  0  0  0  0  0  0  0  0  0  0
   45.9030   33.3400   39.4710 C   0  0  0  0  0  0  0  0  0  0  0  0
   46.0120   32.8860   38.1210 N   0  0  0  0  0  0  0  0  0  0  0  0
   44.7260   33.0240   40.0550 N   0  0  0  0  0  0  0  0  0  0  0  0
   44.4940   33.4040   41.3550 C   0  0  0  0  0  0  0  0  0  0  0  0
   43.4080   33.1260   41.9320 O   0  0  0  0  0  0  0  0  0  0  0  0
   44.3510   35.9140   45.0640 C   0  0  0  0  0  0  0  0  0  0  0  0
   44.5770   35.6340   43.7080 C   0  0  0  0  0  0  0  0  0  0  0  0
   45.1980   34.4630   43.3320 C   0  0  0  0  0  0  0  0  0  0  0  0
   45.5630   33.6260   44.3380 N   0  0  0  0  0  0  0  0  0  0  0  0
   45.3460   33.8980   45.6260 C   0  0  0  0  0  0  0  0  0  0  0  0
   44.7460   35.0280   45.9940 N   0  0  0  0  0  0  0  0  0  0  0  0
   45.7460   32.9900   46.6670 N   0  0  0  0  0  0  0  0  0  0  0  0
   45.5130   32.8390   47.9570 N   0  0  0  0  0  0  0  0  0  0  0  0
   46.1610   31.7970   48.4440 C   0  0  0  0  0  0  0  0  0  0  0  0
   46.8650   31.2320   47.3910 C   0  0  0  0  0  0  0  0  0  0  0  0
   46.5920   32.0000   46.2720 C   0  0  0  0  0  0  0  0  0  0  0  0
   48.1470   34.3310   39.3880 C   0  0  0  0  0  0  0  0  0  0  0  0
   48.7300   35.4970   39.8500 F   0  0  0  0  0  0  0  0  0  0  0  0
   47.8650   34.4300   38.0310 F   0  0  0  0  0  0  0  0  0  0  0  0
   48.9980   33.2440   39.5110 F   0  0  0  0  0  0  0  0  0  0  0  0
   47.6510   35.1240   42.1130 N   0  0  0  0  0  0  0  0  0  0  0  0
   46.8694   33.0739   37.5821 H   0  0  0  0  0  0  0  0  0  0  0  0
   45.2332   32.3707   37.6865 H   0  0  0  0  0  0  0  0  0  0  0  0
   43.8554   36.8494   45.3630 H   0  0  0  0  0  0  0  0  0  0  0  0
   44.2565   36.3537   42.9404 H   0  0  0  0  0  0  0  0  0  0  0  0
   46.1455   31.4443   49.4858 H   0  0  0  0  0  0  0  0  0  0  0  0
   47.5145   30.3454   47.4362 H   0  0  0  0  0  0  0  0  0  0  0  0
   46.9843   31.8404   45.2568 H   0  0  0  0  0  0  0  0  0  0  0  0
   48.5396   35.3531   41.6451 H   0  0  0  0  0  0  0  0  0  0  0  0
   47.4918   35.4165   43.0877 H   0  0  0  0  0  0  0  0  0  0  0  0
  1 11  1  0
  2  1  1  0
  2 24  1  0
  3  2  2  0
  4  6  2  0
  4  3  1  0
  5  4  1  0
  6  7  1  0
  7  8  2  0
  7  1  1  0
  9 14  2  0
 10  9  1  0
 11 10  2  0
 11 12  1  0
 12 13  2  0
 13 14  1  0
 13 15  1  0
 15 16  1  0
 16 17  2  0
 18 17  1  0
 19 15  1  0
 19 18  2  0
 20 23  1  0
 20 21  1  0
 20  3  1  0
 22 20  1  0
  5 25  1  0
  5 26  1  0
  9 27  1  0
 10 28  1  0
 17 29  1  0
 18 30  1  0
 19 31  1  0
 24 32  1  0
 24 33  1  0
M  ISO  5  27  14  28  14  29  14  30  14  31  14
M  END
>  <minimizedAffinity>  (1) 
-6.58133793

>  <minimizedRMSD>  (1) 
0.214298576

$$$$
