
     RDKit          3D

 32 34  0  0  0  0  0  0  0  0999 V2000
   44.4380   35.9200   44.8630 C   0  0  0  0  0  0  0  0  0  0  0  0
   44.6410   35.6320   43.5170 C   0  0  0  0  0  0  0  0  0  0  0  0
   45.2280   34.4290   43.1350 C   0  0  0  0  0  0  0  0  0  0  0  0
   45.5730   33.5930   44.1410 N   0  0  0  0  0  0  0  0  0  0  0  0
   45.3830   33.8590   45.4360 C   0  0  0  0  0  0  0  0  0  0  0  0
   44.8130   35.0300   45.7980 N   0  0  0  0  0  0  0  0  0  0  0  0
   45.7530   32.9800   46.4900 N   0  0  0  0  0  0  0  0  0  0  0  0
   45.5520   32.8700   47.7760 N   0  0  0  0  0  0  0  0  0  0  0  0
   46.1940   31.8060   48.2750 C   0  0  0  0  0  0  0  0  0  0  0  0
   46.8570   31.1870   47.2140 C   0  0  0  0  0  0  0  0  0  0  0  0
   46.5570   31.9590   46.0850 C   0  0  0  0  0  0  0  0  0  0  0  0
   45.4800   34.0360   41.8000 N   0  0  0  0  0  0  0  0  0  0  0  0
   46.6550   34.3270   41.2100 C   0  0  0  0  0  0  0  0  0  0  0  0
   46.8680   33.9240   39.8900 C   0  0  0  0  0  0  0  0  0  0  0  0
   45.8430   33.2490   39.2820 C   0  0  0  0  0  0  0  0  0  0  0  0
   45.9240   32.7750   37.9280 N   0  0  0  0  0  0  0  0  0  0  0  0
   44.6740   32.9670   39.8860 N   0  0  0  0  0  0  0  0  0  0  0  0
   44.4780   33.3690   41.1840 C   0  0  0  0  0  0  0  0  0  0  0  0
   43.3850   33.1180   41.7840 O   0  0  0  0  0  0  0  0  0  0  0  0
   48.1150   34.1910   39.1570 C   0  0  0  0  0  0  0  0  0  0  0  0
   48.6960   35.3790   39.5490 F   0  0  0  0  0  0  0  0  0  0  0  0
   47.8230   34.2090   37.7910 F   0  0  0  0  0  0  0  0  0  0  0  0
   48.9650   33.1120   39.3310 F   0  0  0  0  0  0  0  0  0  0  0  0
   47.9460   35.2100   42.0650 S   0  0  0  0  0  0  0  0  0  0  0  0
   43.9729   36.8714   45.1606 H   0  0  0  0  0  0  0  0  0  0  0  0
   44.3358   36.3592   42.7502 H   0  0  0  0  0  0  0  0  0  0  0  0
   46.1981   31.4803   49.3257 H   0  0  0  0  0  0  0  0  0  0  0  0
   47.4830   30.2835   47.2560 H   0  0  0  0  0  0  0  0  0  0  0  0
   46.9070   31.7742   45.0587 H   0  0  0  0  0  0  0  0  0  0  0  0
   46.7775   32.9388   37.3752 H   0  0  0  0  0  0  0  0  0  0  0  0
   45.1286   32.2714   37.5102 H   0  0  0  0  0  0  0  0  0  0  0  0
   47.7654   35.0865   43.4174 H   0  0  0  0  0  0  0  0  0  0  0  0
  1  6  2  0
  2  1  1  0
  3  2  2  0
  3  4  1  0
  4  5  2  0
  5  6  1  0
  5  7  1  0
  7  8  1  0
  8  9  2  0
 10  9  1  0
 11  7  1  0
 11 10  2  0
 12  3  1  0
 13 12  1  0
 13 24  1  0
 14 13  2  0
 15 17  2  0
 15 14  1  0
 16 15  1  0
 17 18  1  0
 18 19  2  0
 18 12  1  0
 20 23  1  0
 20 21  1  0
 20 14  1  0
 22 20  1  0
  1 25  1  0
  2 26  1  0
  9 27  1  0
 10 28  1  0
 11 29  1  0
 16 30  1  0
 16 31  1  0
 24 32  1  0
M  ISO  6  25  14  26  14  27  14  28  14  29  14  32  11
M  END
>  <minimizedAffinity>  (1) 
-6.4157424

>  <minimizedRMSD>  (1) 
0.209961355

$$$$
