
     RDKit          3D

 33 35  0  0  0  0  0  0  0  0999 V2000
   45.4470   34.0660   41.8140 N   0  0  0  0  0  0  0  0  0  0  0  0
   46.6190   34.3160   41.2100 C   0  0  0  0  0  0  0  0  0  0  0  0
   46.8560   33.9520   39.9020 C   0  0  0  0  0  0  0  0  0  0  0  0
   45.8090   33.3200   39.2740 C   0  0  0  0  0  0  0  0  0  0  0  0
   45.8810   32.8660   37.9120 N   0  0  0  0  0  0  0  0  0  0  0  0
   44.6330   33.0680   39.8800 N   0  0  0  0  0  0  0  0  0  0  0  0
   44.4400   33.4480   41.1820 C   0  0  0  0  0  0  0  0  0  0  0  0
   43.3300   33.2120   41.7670 O   0  0  0  0  0  0  0  0  0  0  0  0
   44.4400   35.9210   44.9060 C   0  0  0  0  0  0  0  0  0  0  0  0
   44.6320   35.6430   43.5510 C   0  0  0  0  0  0  0  0  0  0  0  0
   45.2070   34.4460   43.1600 C   0  0  0  0  0  0  0  0  0  0  0  0
   45.5580   33.5910   44.1460 N   0  0  0  0  0  0  0  0  0  0  0  0
   45.3770   33.8510   45.4440 C   0  0  0  0  0  0  0  0  0  0  0  0
   44.8160   35.0180   45.8240 N   0  0  0  0  0  0  0  0  0  0  0  0
   45.7510   32.9470   46.4760 N   0  0  0  0  0  0  0  0  0  0  0  0
   45.5380   32.8260   47.7700 N   0  0  0  0  0  0  0  0  0  0  0  0
   46.1680   31.7480   48.2530 C   0  0  0  0  0  0  0  0  0  0  0  0
   46.8220   31.1490   47.1880 C   0  0  0  0  0  0  0  0  0  0  0  0
   46.5420   31.9290   46.0660 C   0  0  0  0  0  0  0  0  0  0  0  0
   48.1080   34.2000   39.1880 C   0  0  0  0  0  0  0  0  0  0  0  0
   48.6890   35.3880   39.5580 F   0  0  0  0  0  0  0  0  0  0  0  0
   47.8320   34.1940   37.8160 F   0  0  0  0  0  0  0  0  0  0  0  0
   48.9470   33.1110   39.3910 F   0  0  0  0  0  0  0  0  0  0  0  0
   47.6080   34.9770   41.9960 C   0  0  0  0  0  0  0  0  0  0  0  0
   48.6430   35.1700   42.6430 O   0  0  0  0  0  0  0  0  0  0  0  0
   46.7411   33.0134   37.3648 H   0  0  0  0  0  0  0  0  0  0  0  0
   45.0725   32.3933   37.4833 H   0  0  0  0  0  0  0  0  0  0  0  0
   43.9843   36.8724   45.2179 H   0  0  0  0  0  0  0  0  0  0  0  0
   44.3253   36.3776   42.7919 H   0  0  0  0  0  0  0  0  0  0  0  0
   46.1668   31.4030   49.2975 H   0  0  0  0  0  0  0  0  0  0  0  0
   47.4393   30.2391   47.2210 H   0  0  0  0  0  0  0  0  0  0  0  0
   46.8975   31.7500   45.0406 H   0  0  0  0  0  0  0  0  0  0  0  0
   47.1432   35.9700   42.0855 H   0  0  0  0  0  0  0  0  0  0  0  0
  1 11  1  0
  2  1  1  0
  2 24  1  0
  3  2  2  0
  4  6  2  0
  4  3  1  0
  5  4  1  0
  6  7  1  0
  7  8  2  0
  7  1  1  0
  9 14  2  0
 10  9  1  0
 11 10  2  0
 11 12  1  0
 12 13  2  0
 13 14  1  0
 13 15  1  0
 15 16  1  0
 16 17  2  0
 18 17  1  0
 19 15  1  0
 19 18  2  0
 20 23  1  0
 20 21  1  0
 20  3  1  0
 22 20  1  0
 24 25  2  0
  5 26  1  0
  5 27  1  0
  9 28  1  0
 10 29  1  0
 17 30  1  0
 18 31  1  0
 19 32  1  0
 24 33  1  0
M  ISO  6  28  14  29  14  30  14  31  14  32  14  33   6
M  END
>  <minimizedAffinity>  (1) 
-6.34123564

>  <minimizedRMSD>  (1) 
0.30155763

$$$$
