
     RDKit          3D

 32 34  0  0  1  0  0  0  0  0999 V2000
   47.3400   35.0080   41.4730 C   0  0  1  0  0  0  0  0  0  0  0  0
   48.6830   35.7320   41.5950 C   0  0  0  0  0  0  0  0  0  0  0  0
   48.5900   34.2970   41.2020 C   0  0  1  0  0  0  0  0  0  0  0  0
   44.8300   35.4910   44.2150 C   0  0  0  0  0  0  0  0  0  0  0  0
   45.5200   35.6860   42.9900 C   0  0  0  0  0  0  0  0  0  0  0  0
   46.5980   34.8560   42.7440 C   0  0  0  0  0  0  0  0  0  0  0  0
   46.9240   33.9240   43.6700 N   0  0  0  0  0  0  0  0  0  0  0  0
   46.2650   33.7530   44.8200 C   0  0  0  0  0  0  0  0  0  0  0  0
   45.2130   34.5400   45.0930 N   0  0  0  0  0  0  0  0  0  0  0  0
   49.1700   33.2720   41.9710 N   0  0  0  0  0  0  0  0  0  0  0  0
   50.5330   33.3300   42.3270 C   0  0  0  0  0  0  0  0  0  0  0  0
   51.3700   32.2410   41.6590 C   0  0  0  0  0  0  0  0  0  0  0  0
   50.9330   30.8820   42.1620 C   0  0  0  0  0  0  0  0  0  0  0  0
   49.4530   30.8680   42.3610 C   0  0  0  0  0  0  0  0  0  0  0  0
   48.8390   31.9440   41.5200 C   0  0  0  0  0  0  0  0  0  0  0  0
   46.4050   35.0958   40.9002 H   0  0  0  0  0  0  0  0  0  0  0  0
   48.9732   36.4929   40.8556 H   0  0  0  0  0  0  0  0  0  0  0  0
   49.2034   36.3047   42.3768 H   0  0  0  0  0  0  0  0  0  0  0  0
   48.9146   33.6812   40.3503 H   0  0  0  0  0  0  0  0  0  0  0  0
   43.9655   36.1279   44.4537 H   0  0  0  0  0  0  0  0  0  0  0  0
   45.2120   36.4598   42.2714 H   0  0  0  0  0  0  0  0  0  0  0  0
   46.5808   32.9774   45.5333 H   0  0  0  0  0  0  0  0  0  0  0  0
   50.9318   34.3110   42.0294 H   0  0  0  0  0  0  0  0  0  0  0  0
   50.5966   33.1742   43.4141 H   0  0  0  0  0  0  0  0  0  0  0  0
   52.4319   32.3962   41.9003 H   0  0  0  0  0  0  0  0  0  0  0  0
   51.2283   32.2892   40.5692 H   0  0  0  0  0  0  0  0  0  0  0  0
   51.2096   30.1136   41.4251 H   0  0  0  0  0  0  0  0  0  0  0  0
   51.4303   30.6725   43.1205 H   0  0  0  0  0  0  0  0  0  0  0  0
   49.0496   29.8897   42.0608 H   0  0  0  0  0  0  0  0  0  0  0  0
   49.2184   31.0448   43.4210 H   0  0  0  0  0  0  0  0  0  0  0  0
   47.7455   31.8277   41.5463 H   0  0  0  0  0  0  0  0  0  0  0  0
   49.2405   31.8338   40.5018 H   0  0  0  0  0  0  0  0  0  0  0  0
  1  2  1  0
  1  6  1  0
  3  1  1  0
  3  2  1  0
  3 10  1  0
  4  9  2  0
  5  4  1  0
  6  5  2  0
  6  7  1  0
  7  8  2  0
  8  9  1  0
 10 11  1  0
 12 13  1  0
 12 11  1  0
 13 14  1  0
 15 10  1  0
 15 14  1  0
  1 16  1  6
  2 17  1  0
  2 18  1  0
  3 19  1  6
  4 20  1  0
  5 21  1  0
  8 22  1  0
 11 23  1  0
 11 24  1  0
 12 25  1  0
 12 26  1  0
 13 27  1  0
 13 28  1  0
 14 29  1  0
 14 30  1  0
 15 31  1  0
 15 32  1  0
M  ISO  8  16  13  17  13  18  13  19  13  20  14  21  14  22  14  23  13
M  ISO  8  24  13  25  13  26  13  27  13  28  13  29  13  30  13  31  13
M  ISO  1  32  13
M  END
>  <minimizedAffinity>  (1) 
-4.56788731

>  <minimizedRMSD>  (1) 
1.46569097

$$$$
