
     RDKit          3D

 32 34  0  0  1  0  0  0  0  0999 V2000
   45.7650   34.3070   41.2430 N   0  0  0  0  0  0  0  0  0  0  0  0
   46.6280   33.5580   40.3520 C   0  0  0  0  0  0  0  0  0  0  0  0
   47.8250   34.3280   39.8910 C   0  0  0  0  0  0  0  0  0  0  0  0
   48.3980   35.2550   40.9150 C   0  0  0  0  0  0  0  0  0  0  0  0
   47.8110   35.1150   42.2720 C   0  0  0  0  0  0  0  0  0  0  0  0
   46.3070   35.1080   42.2790 C   0  0  2  0  0  0  0  0  0  0  0  0
   42.1830   35.2640   40.7520 C   0  0  0  0  0  0  0  0  0  0  0  0
   43.5650   35.4000   40.8380 C   0  0  0  0  0  0  0  0  0  0  0  0
   44.3600   34.2770   41.1240 C   0  0  0  0  0  0  0  0  0  0  0  0
   43.7190   33.0700   41.3110 N   0  0  0  0  0  0  0  0  0  0  0  0
   42.3650   32.9920   41.2150 C   0  0  0  0  0  0  0  0  0  0  0  0
   41.6130   34.0820   40.9390 N   0  0  0  0  0  0  0  0  0  0  0  0
   45.8120   34.8750   43.6350 C   0  0  0  0  0  0  0  0  0  0  0  0
   44.8990   35.6900   44.3200 C   0  0  0  0  0  0  0  0  0  0  0  0
   44.6520   35.1970   45.5320 N   0  0  0  0  0  0  0  0  0  0  0  0
   45.3710   34.0750   45.6830 C   0  0  0  0  0  0  0  0  0  0  0  0
   46.0540   33.9070   44.5360 N   0  0  0  0  0  0  0  0  0  0  0  0
   46.9756   32.6577   40.8798 H   0  0  0  0  0  0  0  0  0  0  0  0
   46.0359   33.3156   39.4572 H   0  0  0  0  0  0  0  0  0  0  0  0
   48.6061   33.6090   39.6031 H   0  0  0  0  0  0  0  0  0  0  0  0
   47.4890   34.9565   39.0531 H   0  0  0  0  0  0  0  0  0  0  0  0
   49.4785   35.0616   40.9868 H   0  0  0  0  0  0  0  0  0  0  0  0
   48.1643   36.2756   40.5776 H   0  0  0  0  0  0  0  0  0  0  0  0
   48.1653   34.1695   42.7084 H   0  0  0  0  0  0  0  0  0  0  0  0
   48.1325   35.9908   42.8548 H   0  0  0  0  0  0  0  0  0  0  0  0
   45.9212   36.1034   42.0139 H   0  0  0  0  0  0  0  0  0  0  0  0
   41.5599   36.1423   40.5276 H   0  0  0  0  0  0  0  0  0  0  0  0
   44.0336   36.3830   40.6827 H   0  0  0  0  0  0  0  0  0  0  0  0
   41.8702   32.0211   41.3651 H   0  0  0  0  0  0  0  0  0  0  0  0
   44.4499   36.6079   43.9130 H   0  0  0  0  0  0  0  0  0  0  0  0
   45.3971   33.4223   46.5680 H   0  0  0  0  0  0  0  0  0  0  0  0
   46.6953   33.1191   44.3660 H   0  0  0  0  0  0  0  0  0  0  0  0
  1  6  1  0
  2  1  1  0
  3  2  1  0
  3  4  1  0
  4  5  1  0
  5  6  1  0
  6 13  1  0
  7  8  2  0
  7 12  1  0
  8  9  1  0
  9  1  1  0
  9 10  2  0
 11 10  1  0
 12 11  2  0
 13 14  2  0
 13 17  1  0
 14 15  1  0
 15 16  2  0
 17 16  1  0
  2 18  1  0
  2 19  1  0
  3 20  1  0
  3 21  1  0
  4 22  1  0
  4 23  1  0
  5 24  1  0
  5 25  1  0
  6 26  1  6
  7 27  1  0
  8 28  1  0
 11 29  1  0
 14 30  1  0
 16 31  1  0
 17 32  1  0
M  ISO  8  18  13  19  13  20  13  21  13  22  13  23  13  24  13  25  13
M  ISO  7  26  13  27  14  28  14  29  14  30  14  31  14  32   9
M  END
>  <minimizedAffinity>  (1) 
-5.41220999

>  <minimizedRMSD>  (1) 
3.77947068

$$$$
