
     RDKit          3D

 30 32  0  0  1  0  0  0  0  0999 V2000
   45.7400   34.3310   41.2360 N   0  0  0  0  0  0  0  0  0  0  0  0
   46.5670   33.4950   40.3950 C   0  0  0  0  0  0  0  0  0  0  0  0
   47.7670   34.2070   39.8640 C   0  0  0  0  0  0  0  0  0  0  0  0
   48.3800   35.2010   40.8110 C   0  0  0  0  0  0  0  0  0  0  0  0
   47.8130   35.1920   42.1810 C   0  0  0  0  0  0  0  0  0  0  0  0
   46.3070   35.2120   42.1990 C   0  0  2  0  0  0  0  0  0  0  0  0
   42.1400   35.2980   40.8760 C   0  0  0  0  0  0  0  0  0  0  0  0
   43.5330   35.4460   40.9280 C   0  0  0  0  0  0  0  0  0  0  0  0
   44.3180   34.3300   41.1590 C   0  0  0  0  0  0  0  0  0  0  0  0
   43.6790   33.1380   41.3240 N   0  0  0  0  0  0  0  0  0  0  0  0
   42.3320   33.0260   41.2690 C   0  0  0  0  0  0  0  0  0  0  0  0
   41.5670   34.1080   41.0460 N   0  0  0  0  0  0  0  0  0  0  0  0
   45.7960   34.9500   43.5650 C   0  0  0  0  0  0  0  0  0  0  0  0
   44.9180   35.6670   44.2970 N   0  0  0  0  0  0  0  0  0  0  0  0
   44.7460   35.0900   45.4340 O   0  0  0  0  0  0  0  0  0  0  0  0
   45.4640   34.0010   45.5320 C   0  0  0  0  0  0  0  0  0  0  0  0
   46.1200   33.9170   44.3610 N   0  0  0  0  0  0  0  0  0  0  0  0
   46.9051   32.6301   40.9847 H   0  0  0  0  0  0  0  0  0  0  0  0
   45.9566   33.1905   39.5320 H   0  0  0  0  0  0  0  0  0  0  0  0
   48.5300   33.4543   39.6167 H   0  0  0  0  0  0  0  0  0  0  0  0
   47.4252   34.7814   38.9903 H   0  0  0  0  0  0  0  0  0  0  0  0
   49.4557   34.9833   40.8853 H   0  0  0  0  0  0  0  0  0  0  0  0
   48.1640   36.1961   40.3950 H   0  0  0  0  0  0  0  0  0  0  0  0
   48.1569   34.2828   42.6959 H   0  0  0  0  0  0  0  0  0  0  0  0
   48.1585   36.1071   42.6843 H   0  0  0  0  0  0  0  0  0  0  0  0
   45.9864   36.2231   41.9076 H   0  0  0  0  0  0  0  0  0  0  0  0
   41.5093   36.1801   40.6916 H   0  0  0  0  0  0  0  0  0  0  0  0
   43.9951   36.4343   40.7873 H   0  0  0  0  0  0  0  0  0  0  0  0
   41.8596   32.0423   41.4078 H   0  0  0  0  0  0  0  0  0  0  0  0
   45.5191   33.3073   46.3839 H   0  0  0  0  0  0  0  0  0  0  0  0
  1  6  1  0
  2  1  1  0
  3  2  1  0
  3  4  1  0
  4  5  1  0
  5  6  1  0
  6 13  1  0
  7  8  2  0
  7 12  1  0
  8  9  1  0
  9  1  1  0
  9 10  2  0
 11 10  1  0
 12 11  2  0
 13 14  2  0
 13 17  1  0
 14 15  1  0
 15 16  1  0
 17 16  2  0
  2 18  1  0
  2 19  1  0
  3 20  1  0
  3 21  1  0
  4 22  1  0
  4 23  1  0
  5 24  1  0
  5 25  1  0
  6 26  1  6
  7 27  1  0
  8 28  1  0
 11 29  1  0
 16 30  1  0
M  ISO  8  18  13  19  13  20  13  21  13  22  13  23  13  24  13  25  13
M  ISO  5  26  13  27  14  28  14  29  14  30  14
M  END
>  <minimizedAffinity>  (1) 
-5.35285854

>  <minimizedRMSD>  (1) 
3.69749022

$$$$
