
     RDKit          3D

 32 34  0  0  1  0  0  0  0  0999 V2000
   45.6640   34.3040   41.2430 N   0  0  0  0  0  0  0  0  0  0  0  0
   46.5060   33.4580   40.4560 C   0  0  0  0  0  0  0  0  0  0  0  0
   47.7230   34.1370   39.9330 C   0  0  0  0  0  0  0  0  0  0  0  0
   48.3180   35.1630   40.8510 C   0  0  0  0  0  0  0  0  0  0  0  0
   47.7240   35.1900   42.2310 C   0  0  0  0  0  0  0  0  0  0  0  0
   46.2230   35.2040   42.2190 C   0  0  2  0  0  0  0  0  0  0  0  0
   42.0920   35.3150   40.8030 C   0  0  0  0  0  0  0  0  0  0  0  0
   43.4830   35.4620   40.8720 C   0  0  0  0  0  0  0  0  0  0  0  0
   44.2440   34.3340   41.1380 C   0  0  0  0  0  0  0  0  0  0  0  0
   43.5880   33.1470   41.3140 N   0  0  0  0  0  0  0  0  0  0  0  0
   42.2490   33.0320   41.2420 C   0  0  0  0  0  0  0  0  0  0  0  0
   41.5040   34.1290   40.9840 N   0  0  0  0  0  0  0  0  0  0  0  0
   45.7220   34.8900   43.5800 C   0  0  0  0  0  0  0  0  0  0  0  0
   44.9320   35.7630   44.3260 C   0  0  0  0  0  0  0  0  0  0  0  0
   44.6850   35.1110   45.5050 C   0  0  0  0  0  0  0  0  0  0  0  0
   45.2870   33.8990   45.4960 N   0  0  0  0  0  0  0  0  0  0  0  0
   45.8980   33.7800   44.3500 N   0  0  0  0  0  0  0  0  0  0  0  0
   46.8238   32.6091   41.0792 H   0  0  0  0  0  0  0  0  0  0  0  0
   45.9158   33.1430   39.5828 H   0  0  0  0  0  0  0  0  0  0  0  0
   48.4860   33.3688   39.7389 H   0  0  0  0  0  0  0  0  0  0  0  0
   47.4093   34.6780   39.0280 H   0  0  0  0  0  0  0  0  0  0  0  0
   49.3942   34.9557   40.9451 H   0  0  0  0  0  0  0  0  0  0  0  0
   48.1042   36.1438   40.4013 H   0  0  0  0  0  0  0  0  0  0  0  0
   48.0626   34.2970   42.7767 H   0  0  0  0  0  0  0  0  0  0  0  0
   48.0596   36.1177   42.7175 H   0  0  0  0  0  0  0  0  0  0  0  0
   45.8961   36.2120   41.9238 H   0  0  0  0  0  0  0  0  0  0  0  0
   41.4686   36.1971   40.5948 H   0  0  0  0  0  0  0  0  0  0  0  0
   43.9574   36.4427   40.7198 H   0  0  0  0  0  0  0  0  0  0  0  0
   41.7663   32.0550   41.3917 H   0  0  0  0  0  0  0  0  0  0  0  0
   44.5814   36.7630   44.0307 H   0  0  0  0  0  0  0  0  0  0  0  0
   44.0863   35.5128   46.3357 H   0  0  0  0  0  0  0  0  0  0  0  0
   45.2665   33.2008   46.2530 H   0  0  0  0  0  0  0  0  0  0  0  0
  1  6  1  0
  2  1  1  0
  3  2  1  0
  3  4  1  0
  4  5  1  0
  6  5  1  0
  6 13  1  0
  7  8  2  0
  7 12  1  0
  8  9  1  0
  9  1  1  0
  9 10  2  0
 11 10  1  0
 12 11  2  0
 13 14  1  0
 13 17  2  0
 14 15  2  0
 16 15  1  0
 17 16  1  0
  2 18  1  0
  2 19  1  0
  3 20  1  0
  3 21  1  0
  4 22  1  0
  4 23  1  0
  5 24  1  0
  5 25  1  0
  6 26  1  6
  7 27  1  0
  8 28  1  0
 11 29  1  0
 14 30  1  0
 15 31  1  0
 16 32  1  0
M  ISO  8  18  13  19  13  20  13  21  13  22  13  23  13  24  13  25  13
M  ISO  7  26  13  27  14  28  14  29  14  30  14  31  14  32   9
M  END
>  <minimizedAffinity>  (1) 
-5.33259344

>  <minimizedRMSD>  (1) 
3.75279522

$$$$
