
     RDKit          3D

 31 33  0  0  1  0  0  0  0  0999 V2000
   46.0560   34.3450   41.2230 N   0  0  0  0  0  0  0  0  0  0  0  0
   46.8390   33.7590   40.1600 C   0  0  0  0  0  0  0  0  0  0  0  0
   48.0000   34.5630   39.7060 C   0  0  0  0  0  0  0  0  0  0  0  0
   48.6650   35.3640   40.7840 C   0  0  0  0  0  0  0  0  0  0  0  0
   48.1900   35.1070   42.1520 C   0  0  0  0  0  0  0  0  0  0  0  0
   46.7090   34.9270   42.3310 C   0  0  2  0  0  0  0  0  0  0  0  0
   42.4640   35.3680   41.2280 C   0  0  0  0  0  0  0  0  0  0  0  0
   43.8510   35.5280   41.2070 C   0  0  0  0  0  0  0  0  0  0  0  0
   44.6390   34.3610   41.2090 C   0  0  0  0  0  0  0  0  0  0  0  0
   44.0240   33.1200   41.2280 N   0  0  0  0  0  0  0  0  0  0  0  0
   42.6600   33.0470   41.2470 C   0  0  0  0  0  0  0  0  0  0  0  0
   41.9010   34.1690   41.2470 N   0  0  0  0  0  0  0  0  0  0  0  0
   46.4650   34.2910   43.6580 C   0  0  0  0  0  0  0  0  0  0  0  0
   45.4580   34.8050   44.5150 C   0  0  0  0  0  0  0  0  0  0  0  0
   45.5220   33.6810   46.0220 S   0  0  0  0  0  0  0  0  0  0  0  0
   46.9030   32.7200   45.2140 C   0  0  0  0  0  0  0  0  0  0  0  0
   47.0350   33.2570   44.2370 N   0  0  0  0  0  0  0  0  0  0  0  0
   47.2162   32.7876   40.5124 H   0  0  0  0  0  0  0  0  0  0  0  0
   46.1653   33.6844   39.2937 H   0  0  0  0  0  0  0  0  0  0  0  0
   48.7462   33.8770   39.2787 H   0  0  0  0  0  0  0  0  0  0  0  0
   47.6106   35.2872   38.9753 H   0  0  0  0  0  0  0  0  0  0  0  0
   49.7424   35.1442   40.7530 H   0  0  0  0  0  0  0  0  0  0  0  0
   48.4190   36.4151   40.5728 H   0  0  0  0  0  0  0  0  0  0  0  0
   48.6824   34.1904   42.5088 H   0  0  0  0  0  0  0  0  0  0  0  0
   48.4409   36.0151   42.7198 H   0  0  0  0  0  0  0  0  0  0  0  0
   46.2171   35.9107   42.3507 H   0  0  0  0  0  0  0  0  0  0  0  0
   41.8219   36.2611   41.2288 H   0  0  0  0  0  0  0  0  0  0  0  0
   44.3104   36.5273   41.1896 H   0  0  0  0  0  0  0  0  0  0  0  0
   42.1705   32.0620   41.2625 H   0  0  0  0  0  0  0  0  0  0  0  0
   44.7929   35.6632   44.3388 H   0  0  0  0  0  0  0  0  0  0  0  0
   47.4502   31.8467   45.5986 H   0  0  0  0  0  0  0  0  0  0  0  0
  1  6  1  0
  2  1  1  0
  3  2  1  0
  3  4  1  0
  4  5  1  0
  5  6  1  0
  6 13  1  0
  7 12  2  0
  8  9  2  0
  8  7  1  0
  9  1  1  0
  9 10  1  0
 10 11  2  0
 11 12  1  0
 13 17  1  0
 13 14  2  0
 14 15  1  0
 16 15  1  0
 17 16  2  0
  2 18  1  0
  2 19  1  0
  3 20  1  0
  3 21  1  0
  4 22  1  0
  4 23  1  0
  5 24  1  0
  5 25  1  0
  6 26  1  1
  7 27  1  0
  8 28  1  0
 11 29  1  0
 14 30  1  0
 16 31  1  0
M  ISO  8  18  13  19  13  20  13  21  13  22  13  23  13  24  13  25  13
M  ISO  6  26  13  27  14  28  14  29  14  30  14  31  14
M  END
>  <minimizedAffinity>  (1) 
-5.05435371

>  <minimizedRMSD>  (1) 
3.4976244

$$$$
