
     RDKit          3D

 24 25  0  0  1  0  0  0  0  0999 V2000
   47.3480   34.9780   41.4210 C   0  0  1  0  0  0  0  0  0  0  0  0
   48.7170   35.6420   41.5760 C   0  0  0  0  0  0  0  0  0  0  0  0
   48.5600   34.2160   41.1350 C   0  0  1  0  0  0  0  0  0  0  0  0
   44.8950   35.4970   44.2050 C   0  0  0  0  0  0  0  0  0  0  0  0
   45.5740   35.6970   42.9890 C   0  0  0  0  0  0  0  0  0  0  0  0
   46.6050   34.8260   42.6990 C   0  0  0  0  0  0  0  0  0  0  0  0
   46.9060   33.8270   43.6030 N   0  0  0  0  0  0  0  0  0  0  0  0
   46.2350   33.6710   44.7520 C   0  0  0  0  0  0  0  0  0  0  0  0
   45.2310   34.5050   45.0510 N   0  0  0  0  0  0  0  0  0  0  0  0
   49.2120   33.3130   42.0640 N   0  0  0  0  0  0  0  0  0  0  0  0
   50.4040   32.6230   41.6180 C   0  0  0  0  0  0  0  0  0  0  0  0
   50.5660   32.2460   40.3960 N   0  0  0  0  0  0  0  0  0  0  0  0
   51.4730   32.3240   42.5350 N   0  0  0  0  0  0  0  0  0  0  0  0
   49.9130   32.3770   39.6250 H   0  0  0  0  0  0  0  0  0  0  0  0
   46.4230   35.1215   40.8432 H   0  0  0  0  0  0  0  0  0  0  0  0
   49.0460   36.4121   40.8628 H   0  0  0  0  0  0  0  0  0  0  0  0
   49.2556   36.1679   42.3781 H   0  0  0  0  0  0  0  0  0  0  0  0
   48.7708   33.5674   40.2720 H   0  0  0  0  0  0  0  0  0  0  0  0
   44.0667   36.1698   44.4719 H   0  0  0  0  0  0  0  0  0  0  0  0
   45.2963   36.5095   42.3015 H   0  0  0  0  0  0  0  0  0  0  0  0
   46.5074   32.8622   45.4460 H   0  0  0  0  0  0  0  0  0  0  0  0
   48.8382   33.1670   43.0126 H   0  0  0  0  0  0  0  0  0  0  0  0
   52.3147   31.8324   42.2021 H   0  0  0  0  0  0  0  0  0  0  0  0
   51.3960   32.6017   43.5239 H   0  0  0  0  0  0  0  0  0  0  0  0
  1  2  1  0
  1  6  1  0
  3  1  1  0
  3  2  1  0
  3 10  1  0
  4  9  2  0
  5  4  1  0
  6  5  2  0
  6  7  1  0
  7  8  2  0
  8  9  1  0
 11 10  1  0
 11 13  1  0
 12 11  2  0
 14 12  1  0
  1 15  1  6
  2 16  1  0
  2 17  1  0
  3 18  1  6
  4 19  1  0
  5 20  1  0
  8 21  1  0
 10 22  1  0
 13 23  1  0
 13 24  1  0
M  ISO  7  15  13  16  13  17  13  18  13  19  14  20  14  21  14
M  END
>  <minimizedAffinity>  (1) 
-4.56664562

>  <minimizedRMSD>  (1) 
1.88483942

$$$$
