
     RDKit          3D

 26 27  0  0  1  0  0  0  0  0999 V2000
   46.8820   34.2740   42.3440 N   0  0  0  0  0  0  0  0  0  0  0  0
   46.4760   33.3200   41.3510 C   0  0  0  0  0  0  0  0  0  0  0  0
   46.7580   33.7440   39.9520 C   0  0  0  0  0  0  0  0  0  0  0  0
   48.0140   34.5340   39.7760 C   0  0  0  0  0  0  0  0  0  0  0  0
   48.8770   34.6350   40.9800 C   0  0  0  0  0  0  0  0  0  0  0  0
   48.1430   34.9270   42.2640 C   0  0  2  0  0  0  0  0  0  0  0  0
   44.4850   35.9270   44.7030 C   0  0  0  0  0  0  0  0  0  0  0  0
   45.2020   35.7220   43.5190 C   0  0  0  0  0  0  0  0  0  0  0  0
   46.0790   34.6330   43.4550 C   0  0  0  0  0  0  0  0  0  0  0  0
   46.1650   33.8450   44.5710 N   0  0  0  0  0  0  0  0  0  0  0  0
   45.4600   34.0700   45.6980 C   0  0  0  0  0  0  0  0  0  0  0  0
   44.6200   35.1160   45.7540 N   0  0  0  0  0  0  0  0  0  0  0  0
   48.9650   34.4530   43.3090 O   0  0  0  0  0  0  0  0  0  0  0  0
   47.0083   32.3762   41.5402 H   0  0  0  0  0  0  0  0  0  0  0  0
   45.3844   33.2158   41.4377 H   0  0  0  0  0  0  0  0  0  0  0  0
   46.8325   32.8403   39.3293 H   0  0  0  0  0  0  0  0  0  0  0  0
   45.9317   34.4079   39.6580 H   0  0  0  0  0  0  0  0  0  0  0  0
   48.6024   34.0620   38.9754 H   0  0  0  0  0  0  0  0  0  0  0  0
   47.6959   35.5612   39.5441 H   0  0  0  0  0  0  0  0  0  0  0  0
   49.4091   33.6798   41.1002 H   0  0  0  0  0  0  0  0  0  0  0  0
   49.5488   35.4888   40.8075 H   0  0  0  0  0  0  0  0  0  0  0  0
   47.9435   36.0071   42.3242 H   0  0  0  0  0  0  0  0  0  0  0  0
   43.7921   36.7788   44.7691 H   0  0  0  0  0  0  0  0  0  0  0  0
   45.0796   36.3991   42.6608 H   0  0  0  0  0  0  0  0  0  0  0  0
   45.5721   33.4020   46.5647 H   0  0  0  0  0  0  0  0  0  0  0  0
   48.5586   34.6874   44.1808 H   0  0  0  0  0  0  0  0  0  0  0  0
  1  9  1  0
  2  1  1  0
  3  2  1  0
  4  3  1  0
  4  5  1  0
  5  6  1  0
  6  1  1  0
  6 13  1  0
  7 12  2  0
  8  7  1  0
  9  8  2  0
  9 10  1  0
 10 11  2  0
 11 12  1  0
  2 14  1  0
  2 15  1  0
  3 16  1  0
  3 17  1  0
  4 18  1  0
  4 19  1  0
  5 20  1  0
  5 21  1  0
  6 22  1  1
  7 23  1  0
  8 24  1  0
 11 25  1  0
 13 26  1  0
M  ISO  8  14  13  15  13  16  13  17  13  18  13  19  13  20  13  21  13
M  ISO  5  22  13  23  14  24  14  25  14  26   3
M  END
>  <minimizedAffinity>  (1) 
-4.78258514

>  <minimizedRMSD>  (1) 
0.38519454

$$$$
