
     RDKit          3D

 28 29  0  0  1  0  0  0  0  0999 V2000
   45.9870   34.3820   41.2260 N   0  0  0  0  0  0  0  0  0  0  0  0
   46.8220   33.9040   40.1530 C   0  0  0  0  0  0  0  0  0  0  0  0
   48.0820   34.6650   39.9720 C   0  0  0  0  0  0  0  0  0  0  0  0
   48.6380   35.3130   41.2200 C   0  0  0  0  0  0  0  0  0  0  0  0
   48.0220   34.8210   42.4820 C   0  0  0  0  0  0  0  0  0  0  0  0
   46.5240   34.8200   42.4710 C   0  0  2  0  0  0  0  0  0  0  0  0
   42.4040   35.4720   41.1920 C   0  0  0  0  0  0  0  0  0  0  0  0
   43.7900   35.5560   41.3620 C   0  0  0  0  0  0  0  0  0  0  0  0
   44.5710   34.4420   41.0980 C   0  0  0  0  0  0  0  0  0  0  0  0
   43.9120   33.3170   40.6790 N   0  0  0  0  0  0  0  0  0  0  0  0
   42.5780   33.2590   40.5220 C   0  0  0  0  0  0  0  0  0  0  0  0
   41.8360   34.3390   40.7810 N   0  0  0  0  0  0  0  0  0  0  0  0
   46.0180   33.9950   43.6470 C   0  0  0  0  0  0  0  0  0  0  0  0
   44.9110   34.6150   44.1550 F   0  0  0  0  0  0  0  0  0  0  0  0
   45.7050   32.7560   43.1490 F   0  0  0  0  0  0  0  0  0  0  0  0
   46.9670   33.8900   44.6340 F   0  0  0  0  0  0  0  0  0  0  0  0
   47.0803   32.8548   40.3592 H   0  0  0  0  0  0  0  0  0  0  0  0
   46.2438   34.0288   39.2256 H   0  0  0  0  0  0  0  0  0  0  0  0
   48.8427   33.9726   39.5824 H   0  0  0  0  0  0  0  0  0  0  0  0
   47.8396   35.4904   39.2864 H   0  0  0  0  0  0  0  0  0  0  0  0
   49.7189   35.1131   41.2616 H   0  0  0  0  0  0  0  0  0  0  0  0
   48.4087   36.3866   41.1509 H   0  0  0  0  0  0  0  0  0  0  0  0
   48.3670   33.7911   42.6563 H   0  0  0  0  0  0  0  0  0  0  0  0
   48.3331   35.5134   43.2781 H   0  0  0  0  0  0  0  0  0  0  0  0
   46.1692   35.8548   42.5860 H   0  0  0  0  0  0  0  0  0  0  0  0
   41.7762   36.3510   41.3999 H   0  0  0  0  0  0  0  0  0  0  0  0
   44.2539   36.4941   41.7008 H   0  0  0  0  0  0  0  0  0  0  0  0
   42.1006   32.3280   40.1824 H   0  0  0  0  0  0  0  0  0  0  0  0
  1  6  1  0
  2  1  1  0
  3  2  1  0
  3  4  1  0
  4  5  1  0
  6  5  1  0
  6 13  1  0
  7  8  2  0
  9  1  1  0
  9  8  1  0
 10  9  2  0
 11 10  1  0
 11 12  2  0
 12  7  1  0
 13 14  1  0
 13 16  1  0
 15 13  1  0
  2 17  1  0
  2 18  1  0
  3 19  1  0
  3 20  1  0
  4 21  1  0
  4 22  1  0
  5 23  1  0
  5 24  1  0
  6 25  1  1
  7 26  1  0
  8 27  1  0
 11 28  1  0
M  ISO  8  17  13  18  13  19  13  20  13  21  13  22  13  23  13  24  13
M  ISO  4  25  13  26  14  27  14  28  14
M  END
>  <minimizedAffinity>  (1) 
-4.72556829

>  <minimizedRMSD>  (1) 
3.49765038

$$$$
