
     RDKit          3D

 27 28  0  0  1  0  0  0  0  0999 V2000
   46.8690   34.2630   42.2950 N   0  0  0  0  0  0  0  0  0  0  0  0
   46.4240   33.3300   41.2940 C   0  0  0  0  0  0  0  0  0  0  0  0
   46.7400   33.7280   39.8960 C   0  0  0  0  0  0  0  0  0  0  0  0
   47.9910   34.5460   39.7320 C   0  0  0  0  0  0  0  0  0  0  0  0
   48.8720   34.5440   40.9340 C   0  0  0  0  0  0  0  0  0  0  0  0
   48.1600   34.8730   42.2110 C   0  0  2  0  0  0  0  0  0  0  0  0
   44.5020   35.9740   44.6290 C   0  0  0  0  0  0  0  0  0  0  0  0
   45.2180   35.7440   43.4520 C   0  0  0  0  0  0  0  0  0  0  0  0
   46.0700   34.6370   43.4140 C   0  0  0  0  0  0  0  0  0  0  0  0
   46.1520   33.8450   44.5330 N   0  0  0  0  0  0  0  0  0  0  0  0
   45.4380   34.1100   45.6460 C   0  0  0  0  0  0  0  0  0  0  0  0
   44.6230   35.1630   45.6940 N   0  0  0  0  0  0  0  0  0  0  0  0
   49.0340   34.4750   43.3080 N   0  0  0  0  0  0  0  0  0  0  0  0
   46.9029   32.3597   41.4916 H   0  0  0  0  0  0  0  0  0  0  0  0
   45.3272   33.2912   41.3680 H   0  0  0  0  0  0  0  0  0  0  0  0
   46.8515   32.8116   39.2979 H   0  0  0  0  0  0  0  0  0  0  0  0
   45.9097   34.3692   39.5654 H   0  0  0  0  0  0  0  0  0  0  0  0
   48.5614   34.1412   38.8831 H   0  0  0  0  0  0  0  0  0  0  0  0
   47.6745   35.5867   39.5681 H   0  0  0  0  0  0  0  0  0  0  0  0
   49.3182   33.5436   41.0344 H   0  0  0  0  0  0  0  0  0  0  0  0
   49.6258   35.3297   40.7779 H   0  0  0  0  0  0  0  0  0  0  0  0
   47.9579   35.9532   42.2592 H   0  0  0  0  0  0  0  0  0  0  0  0
   43.8239   36.8383   44.6856 H   0  0  0  0  0  0  0  0  0  0  0  0
   45.1147   36.4119   42.5841 H   0  0  0  0  0  0  0  0  0  0  0  0
   45.5293   33.4510   46.5220 H   0  0  0  0  0  0  0  0  0  0  0  0
   48.5748   34.6841   44.2060 H   0  0  0  0  0  0  0  0  0  0  0  0
   49.2238   33.4645   43.2465 H   0  0  0  0  0  0  0  0  0  0  0  0
  1  9  1  0
  2  1  1  0
  3  2  1  0
  4  3  1  0
  4  5  1  0
  5  6  1  0
  6  1  1  0
  6 13  1  0
  7 12  2  0
  8  7  1  0
  9  8  2  0
  9 10  1  0
 10 11  2  0
 11 12  1  0
  2 14  1  0
  2 15  1  0
  3 16  1  0
  3 17  1  0
  4 18  1  0
  4 19  1  0
  5 20  1  0
  5 21  1  0
  6 22  1  6
  7 23  1  0
  8 24  1  0
 11 25  1  0
 13 26  1  0
 13 27  1  0
M  ISO  8  14  13  15  13  16  13  17  13  18  13  19  13  20  13  21  13
M  ISO  6  22  13  23  14  24  14  25  14  26   5  27   5
M  END
>  <minimizedAffinity>  (1) 
-4.7062149

>  <minimizedRMSD>  (1) 
0.40861249

$$$$
