
     RDKit          3D

 33 35  0  0  1  0  0  0  0  0999 V2000
   45.5780   33.5210   41.5230 N   0  0  0  0  0  0  0  0  0  0  0  0
   44.9900   32.2400   41.2230 C   0  0  0  0  0  0  0  0  0  0  0  0
   44.5320   32.1090   39.8150 C   0  0  0  0  0  0  0  0  0  0  0  0
   45.3410   32.8470   38.7960 C   0  0  0  0  0  0  0  0  0  0  0  0
   46.5970   33.4550   39.3070 C   0  0  0  0  0  0  0  0  0  0  0  0
   46.4870   34.1750   40.6200 C   0  0  2  0  0  0  0  0  0  0  0  0
   44.6390   36.0990   44.0760 C   0  0  0  0  0  0  0  0  0  0  0  0
   44.8520   35.5470   42.8090 C   0  0  0  0  0  0  0  0  0  0  0  0
   45.3090   34.2330   42.7220 C   0  0  0  0  0  0  0  0  0  0  0  0
   45.5170   33.5730   43.8980 N   0  0  0  0  0  0  0  0  0  0  0  0
   45.3080   34.1170   45.1090 C   0  0  0  0  0  0  0  0  0  0  0  0
   44.8650   35.3900   45.1900 N   0  0  0  0  0  0  0  0  0  0  0  0
   47.8170   34.2520   41.2790 C   0  0  0  0  0  0  0  0  0  0  0  0
   48.5820   33.1360   41.5630 C   0  0  0  0  0  0  0  0  0  0  0  0
   49.8140   33.1550   42.1680 C   0  0  0  0  0  0  0  0  0  0  0  0
   50.3150   34.3720   42.5130 N   0  0  0  0  0  0  0  0  0  0  0  0
   49.5990   35.4870   42.2520 C   0  0  0  0  0  0  0  0  0  0  0  0
   48.3950   35.4120   41.6550 N   0  0  0  0  0  0  0  0  0  0  0  0
   45.7397   31.4592   41.4186 H   0  0  0  0  0  0  0  0  0  0  0  0
   44.1005   32.1365   41.8618 H   0  0  0  0  0  0  0  0  0  0  0  0
   44.5508   31.0411   39.5519 H   0  0  0  0  0  0  0  0  0  0  0  0
   43.5291   32.5598   39.7839 H   0  0  0  0  0  0  0  0  0  0  0  0
   44.7160   33.6526   38.3832 H   0  0  0  0  0  0  0  0  0  0  0  0
   45.6449   32.1005   38.0475 H   0  0  0  0  0  0  0  0  0  0  0  0
   47.3381   32.6506   39.4242 H   0  0  0  0  0  0  0  0  0  0  0  0
   46.8804   34.2202   38.5693 H   0  0  0  0  0  0  0  0  0  0  0  0
   46.1036   35.1813   40.3957 H   0  0  0  0  0  0  0  0  0  0  0  0
   44.2790   37.1351   44.1596 H   0  0  0  0  0  0  0  0  0  0  0  0
   44.6629   36.1372   41.9002 H   0  0  0  0  0  0  0  0  0  0  0  0
   45.4953   33.5330   46.0221 H   0  0  0  0  0  0  0  0  0  0  0  0
   48.1709   32.1552   41.2819 H   0  0  0  0  0  0  0  0  0  0  0  0
   50.3715   32.2275   42.3651 H   0  0  0  0  0  0  0  0  0  0  0  0
   50.0055   36.4702   42.5312 H   0  0  0  0  0  0  0  0  0  0  0  0
  1  9  1  0
  2  1  1  0
  3  2  1  0
  4  5  1  0
  4  3  1  0
  5  6  1  0
  6 13  1  0
  6  1  1  0
  7 12  2  0
  8  7  1  0
  9  8  2  0
  9 10  1  0
 10 11  2  0
 11 12  1  0
 13 14  2  0
 13 18  1  0
 14 15  1  0
 15 16  2  0
 17 16  1  0
 18 17  2  0
  2 19  1  0
  2 20  1  0
  3 21  1  0
  3 22  1  0
  4 23  1  0
  4 24  1  0
  5 25  1  0
  5 26  1  0
  6 27  1  6
  7 28  1  0
  8 29  1  0
 11 30  1  0
 14 31  1  0
 15 32  1  0
 17 33  1  0
M  ISO  8  19  13  20  13  21  13  22  13  23  13  24  13  25  13  26  13
M  ISO  7  27  13  28  14  29  14  30  14  31  14  32  14  33  14
M  END
>  <minimizedAffinity>  (1) 
-4.67512417

>  <minimizedRMSD>  (1) 
2.25864196

$$$$
