
     RDKit          3D

 30 32  0  0  1  0  0  0  0  0999 V2000
   46.8040   34.9090   41.6890 C   0  0  1  0  0  0  0  0  0  0  0  0
   48.2510   35.4080   41.7500 C   0  0  0  0  0  0  0  0  0  0  0  0
   47.9360   33.9930   41.4840 C   0  0  2  0  0  0  0  0  0  0  0  0
   44.5670   35.9830   44.4930 C   0  0  0  0  0  0  0  0  0  0  0  0
   45.2130   35.9870   43.2440 C   0  0  0  0  0  0  0  0  0  0  0  0
   46.1080   34.9420   43.0130 C   0  0  0  0  0  0  0  0  0  0  0  0
   46.3000   33.9900   43.9980 N   0  0  0  0  0  0  0  0  0  0  0  0
   45.6480   34.0480   45.1680 C   0  0  0  0  0  0  0  0  0  0  0  0
   44.7860   35.0380   45.4180 N   0  0  0  0  0  0  0  0  0  0  0  0
   48.2710   33.3950   40.1780 C   0  0  0  0  0  0  0  0  0  0  0  0
   47.2550   32.3450   39.7850 C   0  0  0  0  0  0  0  0  0  0  0  0
   47.4990   32.2150   38.2650 C   0  0  0  0  0  0  0  0  0  0  0  0
   47.4810   33.6880   37.8910 C   0  0  0  0  0  0  0  0  0  0  0  0
   48.2270   34.3520   39.0030 C   0  0  0  0  0  0  0  0  0  0  0  0
   45.8885   35.1106   41.1135 H   0  0  0  0  0  0  0  0  0  0  0  0
   48.6510   36.0466   40.9487 H   0  0  0  0  0  0  0  0  0  0  0  0
   48.8647   35.9526   42.4827 H   0  0  0  0  0  0  0  0  0  0  0  0
   48.2046   33.0315   41.9458 H   0  0  0  0  0  0  0  0  0  0  0  0
   43.8528   36.7882   44.7202 H   0  0  0  0  0  0  0  0  0  0  0  0
   45.0238   36.7683   42.4931 H   0  0  0  0  0  0  0  0  0  0  0  0
   45.8242   33.2736   45.9291 H   0  0  0  0  0  0  0  0  0  0  0  0
   49.2913   33.0181   40.3422 H   0  0  0  0  0  0  0  0  0  0  0  0
   47.4433   31.3930   40.3029 H   0  0  0  0  0  0  0  0  0  0  0  0
   46.2199   32.6094   40.0470 H   0  0  0  0  0  0  0  0  0  0  0  0
   48.4684   31.7452   38.0421 H   0  0  0  0  0  0  0  0  0  0  0  0
   46.7800   31.5821   37.7242 H   0  0  0  0  0  0  0  0  0  0  0  0
   47.9861   33.8532   36.9279 H   0  0  0  0  0  0  0  0  0  0  0  0
   46.4611   34.0820   37.7706 H   0  0  0  0  0  0  0  0  0  0  0  0
   49.2504   34.5886   38.6763 H   0  0  0  0  0  0  0  0  0  0  0  0
   47.7264   35.2878   39.2922 H   0  0  0  0  0  0  0  0  0  0  0  0
  1  2  1  0
  1  6  1  0
  3  1  1  0
  3  2  1  0
  4  9  2  0
  5  4  1  0
  6  5  2  0
  6  7  1  0
  7  8  2  0
  8  9  1  0
 10  3  1  0
 11 10  1  0
 12 11  1  0
 13 12  1  0
 13 14  1  0
 14 10  1  0
  1 15  1  6
  2 16  1  0
  2 17  1  0
  3 18  1  1
  4 19  1  0
  5 20  1  0
  8 21  1  0
 10 22  1  0
 11 23  1  0
 11 24  1  0
 12 25  1  0
 12 26  1  0
 13 27  1  0
 13 28  1  0
 14 29  1  0
 14 30  1  0
M  ISO  8  15  13  16  13  17  13  18  13  19  14  20  14  21  14  22  13
M  ISO  8  23  13  24  13  25  13  26  13  27  13  28  13  29  13  30  13
M  END
>  <minimizedAffinity>  (1) 
-4.56472826

>  <minimizedRMSD>  (1) 
0.763978601

$$$$
