
     RDKit          3D

 38 40  0  0  1  0  0  0  0  0999 V2000
   47.0390   33.7460   42.9750 N   0  0  0  0  0  0  0  0  0  0  0  0
   48.0820   34.7360   42.7800 C   0  0  0  0  0  0  0  0  0  0  0  0
   48.7190   34.7240   41.4440 C   0  0  0  0  0  0  0  0  0  0  0  0
   47.8090   34.3470   40.3220 C   0  0  0  0  0  0  0  0  0  0  0  0
   46.3740   34.2260   40.6710 C   0  0  0  0  0  0  0  0  0  0  0  0
   46.0800   33.5230   41.9580 C   0  0  2  0  0  0  0  0  0  0  0  0
   47.1080   31.0100   45.5110 C   0  0  0  0  0  0  0  0  0  0  0  0
   47.2790   31.6560   44.2950 C   0  0  0  0  0  0  0  0  0  0  0  0
   46.9370   32.9910   44.1590 C   0  0  0  0  0  0  0  0  0  0  0  0
   46.4290   33.6530   45.2640 N   0  0  0  0  0  0  0  0  0  0  0  0
   46.2780   32.9800   46.4420 C   0  0  0  0  0  0  0  0  0  0  0  0
   46.6140   31.6750   46.5600 N   0  0  0  0  0  0  0  0  0  0  0  0
   44.6370   33.7440   42.3560 C   0  0  0  0  0  0  0  0  0  0  0  0
   44.2820   35.1620   42.6680 C   0  0  0  0  0  0  0  0  0  0  0  0
   43.5260   35.6750   41.4810 C   0  0  0  0  0  0  0  0  0  0  0  0
   42.6060   34.4590   41.2490 C   0  0  0  0  0  0  0  0  0  0  0  0
   43.7280   33.3960   41.1680 C   0  0  0  0  0  0  0  0  0  0  0  0
   47.6407   35.7312   42.9379 H   0  0  0  0  0  0  0  0  0  0  0  0
   48.8764   34.4890   43.4997 H   0  0  0  0  0  0  0  0  0  0  0  0
   49.1118   35.7316   41.2427 H   0  0  0  0  0  0  0  0  0  0  0  0
   49.5028   33.9531   41.4806 H   0  0  0  0  0  0  0  0  0  0  0  0
   48.1437   33.3764   39.9271 H   0  0  0  0  0  0  0  0  0  0  0  0
   47.8723   35.1703   39.5953 H   0  0  0  0  0  0  0  0  0  0  0  0
   45.9546   35.2408   40.7360 H   0  0  0  0  0  0  0  0  0  0  0  0
   45.9226   33.6086   39.8804 H   0  0  0  0  0  0  0  0  0  0  0  0
   46.1913   32.4418   41.7889 H   0  0  0  0  0  0  0  0  0  0  0  0
   47.3794   29.9488   45.6119 H   0  0  0  0  0  0  0  0  0  0  0  0
   47.6881   31.1052   43.4352 H   0  0  0  0  0  0  0  0  0  0  0  0
   45.8735   33.5115   47.3160 H   0  0  0  0  0  0  0  0  0  0  0  0
   44.5025   33.1204   43.2521 H   0  0  0  0  0  0  0  0  0  0  0  0
   43.6533   35.2081   43.5694 H   0  0  0  0  0  0  0  0  0  0  0  0
   45.1803   35.7663   42.8626 H   0  0  0  0  0  0  0  0  0  0  0  0
   42.9563   36.5864   41.7153 H   0  0  0  0  0  0  0  0  0  0  0  0
   44.1397   35.9794   40.6203 H   0  0  0  0  0  0  0  0  0  0  0  0
   41.9184   34.2836   42.0895 H   0  0  0  0  0  0  0  0  0  0  0  0
   41.9158   34.5164   40.3944 H   0  0  0  0  0  0  0  0  0  0  0  0
   43.3165   32.3811   41.2717 H   0  0  0  0  0  0  0  0  0  0  0  0
   44.2590   33.4056   40.2047 H   0  0  0  0  0  0  0  0  0  0  0  0
  1  9  1  0
  2  1  1  0
  3  2  1  0
  4  5  1  0
  4  3  1  0
  5  6  1  0
  6 13  1  0
  6  1  1  0
  7 12  2  0
  8  7  1  0
  9  8  2  0
  9 10  1  0
 10 11  2  0
 11 12  1  0
 13 14  1  0
 15 14  1  0
 16 15  1  0
 17 16  1  0
 17 13  1  0
  2 18  1  0
  2 19  1  0
  3 20  1  0
  3 21  1  0
  4 22  1  0
  4 23  1  0
  5 24  1  0
  5 25  1  0
  6 26  1  6
  7 27  1  0
  8 28  1  0
 11 29  1  0
 13 30  1  0
 14 31  1  0
 14 32  1  0
 15 33  1  0
 15 34  1  0
 16 35  1  0
 16 36  1  0
 17 37  1  0
 17 38  1  0
M  ISO  8  18  13  19  13  20  13  21  13  22  13  23  13  24  13  25  13
M  ISO  8  26  13  27  14  28  14  29  14  30  13  31  13  32  13  33  13
M  ISO  5  34  13  35  13  36  13  37  13  38  13
M  END
>  <minimizedAffinity>  (1) 
-4.51267862

>  <minimizedRMSD>  (1) 
4.60833359

$$$$
