
     RDKit          3D

 26 27  0  0  1  0  0  0  0  0999 V2000
   46.6780   34.0590   41.8810 N   0  0  0  0  0  0  0  0  0  0  0  0
   46.3620   32.8240   41.2340 C   0  0  0  0  0  0  0  0  0  0  0  0
   46.3100   32.8930   39.7470 C   0  0  0  0  0  0  0  0  0  0  0  0
   47.2800   33.8570   39.1240 C   0  0  0  0  0  0  0  0  0  0  0  0
   48.2770   34.4300   40.0650 C   0  0  0  0  0  0  0  0  0  0  0  0
   47.7370   34.8860   41.3860 C   0  0  2  0  0  0  0  0  0  0  0  0
   44.6910   36.0850   44.3280 C   0  0  0  0  0  0  0  0  0  0  0  0
   45.3130   35.7550   43.1200 C   0  0  0  0  0  0  0  0  0  0  0  0
   45.9940   34.5480   43.0270 C   0  0  0  0  0  0  0  0  0  0  0  0
   46.0180   33.7350   44.1450 N   0  0  0  0  0  0  0  0  0  0  0  0
   45.4070   34.0900   45.2890 C   0  0  0  0  0  0  0  0  0  0  0  0
   44.7510   35.2510   45.3820 N   0  0  0  0  0  0  0  0  0  0  0  0
   49.1410   34.8520   42.5670 S   0  0  0  0  0  0  0  0  0  0  0  0
   47.1263   32.0848   41.5157 H   0  0  0  0  0  0  0  0  0  0  0  0
   45.3499   32.5503   41.5668 H   0  0  0  0  0  0  0  0  0  0  0  0
   46.5235   31.8893   39.3507 H   0  0  0  0  0  0  0  0  0  0  0  0
   45.3045   33.2578   39.4901 H   0  0  0  0  0  0  0  0  0  0  0  0
   47.8247   33.3285   38.3278 H   0  0  0  0  0  0  0  0  0  0  0  0
   46.6823   34.7023   38.7521 H   0  0  0  0  0  0  0  0  0  0  0  0
   49.0394   33.6612   40.2589 H   0  0  0  0  0  0  0  0  0  0  0  0
   48.6685   35.3329   39.5735 H   0  0  0  0  0  0  0  0  0  0  0  0
   47.3062   35.8910   41.2660 H   0  0  0  0  0  0  0  0  0  0  0  0
   44.1468   37.0367   44.4175 H   0  0  0  0  0  0  0  0  0  0  0  0
   45.2639   36.4384   42.2595 H   0  0  0  0  0  0  0  0  0  0  0  0
   45.4474   33.4173   46.1584 H   0  0  0  0  0  0  0  0  0  0  0  0
   48.6593   34.8637   43.8495 H   0  0  0  0  0  0  0  0  0  0  0  0
  1  9  1  0
  2  1  1  0
  3  2  1  0
  4  3  1  0
  4  5  1  0
  5  6  1  0
  6  1  1  0
  6 13  1  0
  7 12  2  0
  8  7  1  0
  9  8  2  0
  9 10  1  0
 10 11  2  0
 11 12  1  0
  2 14  1  0
  2 15  1  0
  3 16  1  0
  3 17  1  0
  4 18  1  0
  4 19  1  0
  5 20  1  0
  5 21  1  0
  6 22  1  6
  7 23  1  0
  8 24  1  0
 11 25  1  0
 13 26  1  0
M  ISO  8  14  13  15  13  16  13  17  13  18  13  19  13  20  13  21  13
M  ISO  5  22  13  23  14  24  14  25  14  26  11
M  END
>  <minimizedAffinity>  (1) 
-4.221138

>  <minimizedRMSD>  (1) 
0.698898137

$$$$
