
     RDKit          3D

 29 31  0  0  1  0  0  0  0  0999 V2000
   47.2130   35.0650   41.4620 C   0  0  1  0  0  0  0  0  0  0  0  0
   48.6350   35.6250   41.6000 C   0  0  0  0  0  0  0  0  0  0  0  0
   48.3640   34.2700   41.0780 C   0  0  1  0  0  0  0  0  0  0  0  0
   44.7970   35.5200   44.2900 C   0  0  0  0  0  0  0  0  0  0  0  0
   45.4590   35.7480   43.0480 C   0  0  0  0  0  0  0  0  0  0  0  0
   46.5000   34.8950   42.7480 C   0  0  0  0  0  0  0  0  0  0  0  0
   46.8200   33.9170   43.6280 N   0  0  0  0  0  0  0  0  0  0  0  0
   46.1780   33.7180   44.7980 C   0  0  0  0  0  0  0  0  0  0  0  0
   45.1660   34.5230   45.1250 N   0  0  0  0  0  0  0  0  0  0  0  0
   48.9670   33.1970   41.7890 N   0  0  0  0  0  0  0  0  0  0  0  0
   50.2270   33.7550   42.3130 C   0  0  0  0  0  0  0  0  0  0  0  0
   51.1530   32.5890   42.3290 C   0  0  0  0  0  0  0  0  0  0  0  0
   50.8410   31.9460   40.9830 C   0  0  0  0  0  0  0  0  0  0  0  0
   49.3280   32.0690   40.9650 C   0  0  0  0  0  0  0  0  0  0  0  0
   46.2739   35.2909   40.9357 H   0  0  0  0  0  0  0  0  0  0  0  0
   48.9877   36.4205   40.9271 H   0  0  0  0  0  0  0  0  0  0  0  0
   49.2417   36.0546   42.4108 H   0  0  0  0  0  0  0  0  0  0  0  0
   48.5167   33.6858   40.1585 H   0  0  0  0  0  0  0  0  0  0  0  0
   43.9612   36.1748   44.5773 H   0  0  0  0  0  0  0  0  0  0  0  0
   45.1566   36.5580   42.3680 H   0  0  0  0  0  0  0  0  0  0  0  0
   46.4845   32.9044   45.4718 H   0  0  0  0  0  0  0  0  0  0  0  0
   50.6080   34.5489   41.6537 H   0  0  0  0  0  0  0  0  0  0  0  0
   50.1077   34.2168   43.3042 H   0  0  0  0  0  0  0  0  0  0  0  0
   52.2036   32.9092   42.3891 H   0  0  0  0  0  0  0  0  0  0  0  0
   51.0209   31.9189   43.1913 H   0  0  0  0  0  0  0  0  0  0  0  0
   51.3037   32.4981   40.1517 H   0  0  0  0  0  0  0  0  0  0  0  0
   51.2200   30.9201   40.8650 H   0  0  0  0  0  0  0  0  0  0  0  0
   48.9780   32.2310   39.9348 H   0  0  0  0  0  0  0  0  0  0  0  0
   48.8633   31.1488   41.3487 H   0  0  0  0  0  0  0  0  0  0  0  0
  1  2  1  0
  1  6  1  0
  3  1  1  0
  3  2  1  0
  3 10  1  0
  4  9  2  0
  5  4  1  0
  6  5  2  0
  6  7  1  0
  7  8  2  0
  8  9  1  0
 10 11  1  0
 11 12  1  0
 13 12  1  0
 14 13  1  0
 14 10  1  0
  1 15  1  6
  2 16  1  0
  2 17  1  0
  3 18  1  6
  4 19  1  0
  5 20  1  0
  8 21  1  0
 11 22  1  0
 11 23  1  0
 12 24  1  0
 12 25  1  0
 13 26  1  0
 13 27  1  0
 14 28  1  0
 14 29  1  0
M  ISO  8  15  13  16  13  17  13  18  13  19  14  20  14  21  14  22  13
M  ISO  7  23  13  24  13  25  13  26  13  27  13  28  13  29  13
M  END
>  <minimizedAffinity>  (1) 
-4.50647449

>  <minimizedRMSD>  (1) 
1.44101799

$$$$
