
     RDKit          3D

 32 33  0  0  1  0  0  0  0  0999 V2000
   45.8890   34.3000   41.3520 N   0  0  0  0  0  0  0  0  0  0  0  0
   46.7390   33.7340   40.3600 C   0  0  0  0  0  0  0  0  0  0  0  0
   47.9330   34.5600   40.0040 C   0  0  0  0  0  0  0  0  0  0  0  0
   48.5320   35.3080   41.1670 C   0  0  0  0  0  0  0  0  0  0  0  0
   47.9530   34.9620   42.4960 C   0  0  0  0  0  0  0  0  0  0  0  0
   46.4680   34.8410   42.5370 C   0  0  2  0  0  0  0  0  0  0  0  0
   42.3210   35.3840   41.0740 C   0  0  0  0  0  0  0  0  0  0  0  0
   43.7100   35.5180   41.1630 C   0  0  0  0  0  0  0  0  0  0  0  0
   44.4740   34.3700   41.2540 C   0  0  0  0  0  0  0  0  0  0  0  0
   43.8200   33.1510   41.2530 N   0  0  0  0  0  0  0  0  0  0  0  0
   42.4790   33.0720   41.1650 C   0  0  0  0  0  0  0  0  0  0  0  0
   41.7390   34.1720   41.0770 N   0  0  0  0  0  0  0  0  0  0  0  0
   46.0550   33.7690   43.9600 S   0  0  0  0  0  0  0  0  0  0  0  0
   45.0970   34.6630   45.1980 C   0  0  0  0  0  0  0  0  0  0  0  0
   44.6840   35.9740   44.5480 C   0  0  0  0  0  0  0  0  0  0  0  0
   47.0952   32.7615   40.7306 H   0  0  0  0  0  0  0  0  0  0  0  0
   46.1341   33.6580   39.4444 H   0  0  0  0  0  0  0  0  0  0  0  0
   48.7030   33.8933   39.5885 H   0  0  0  0  0  0  0  0  0  0  0  0
   47.5918   35.3164   39.2819 H   0  0  0  0  0  0  0  0  0  0  0  0
   49.6098   35.0900   41.1958 H   0  0  0  0  0  0  0  0  0  0  0  0
   48.3094   36.3721   40.9992 H   0  0  0  0  0  0  0  0  0  0  0  0
   48.3804   33.9988   42.8115 H   0  0  0  0  0  0  0  0  0  0  0  0
   48.2064   35.7992   43.1630 H   0  0  0  0  0  0  0  0  0  0  0  0
   46.0505   35.8545   42.6295 H   0  0  0  0  0  0  0  0  0  0  0  0
   41.6942   36.2849   41.0003 H   0  0  0  0  0  0  0  0  0  0  0  0
   44.1823   36.5114   41.1606 H   0  0  0  0  0  0  0  0  0  0  0  0
   41.9907   32.0863   41.1660 H   0  0  0  0  0  0  0  0  0  0  0  0
   44.2077   34.0825   45.4845 H   0  0  0  0  0  0  0  0  0  0  0  0
   45.6843   34.8358   46.1119 H   0  0  0  0  0  0  0  0  0  0  0  0
   44.4512   36.7130   45.3288 H   0  0  0  0  0  0  0  0  0  0  0  0
   45.5077   36.3486   43.9225 H   0  0  0  0  0  0  0  0  0  0  0  0
   43.7944   35.8089   43.9225 H   0  0  0  0  0  0  0  0  0  0  0  0
  1  6  1  0
  2  1  1  0
  3  2  1  0
  3  4  1  0
  4  5  1  0
  5  6  1  0
  6 13  1  0
  7 12  2  0
  7  8  1  0
  8  9  2  0
  9  1  1  0
 10  9  1  0
 11 10  2  0
 12 11  1  0
 13 14  1  0
 15 14  1  0
  2 16  1  0
  2 17  1  0
  3 18  1  0
  3 19  1  0
  4 20  1  0
  4 21  1  0
  5 22  1  0
  5 23  1  0
  6 24  1  1
  7 25  1  0
  8 26  1  0
 11 27  1  0
 14 28  1  0
 14 29  1  0
 15 30  1  0
 15 31  1  0
 15 32  1  0
M  ISO  8  16  13  17  13  18  13  19  13  20  13  21  13  22  13  23  13
M  ISO  8  24  13  25  14  26  14  27  14  28   8  29   8  30   8  31   8
M  ISO  1  32   8
M  END
>  <minimizedAffinity>  (1) 
-4.59854746

>  <minimizedRMSD>  (1) 
3.79508638

$$$$
