
     RDKit          3D

 29 30  0  0  1  0  0  0  0  0999 V2000
   46.2140   33.9330   41.9910 N   0  0  0  0  0  0  0  0  0  0  0  0
   45.5260   32.9710   41.1910 C   0  0  0  0  0  0  0  0  0  0  0  0
   45.6300   33.1820   39.7290 C   0  0  0  0  0  0  0  0  0  0  0  0
   46.9280   33.7900   39.2680 C   0  0  0  0  0  0  0  0  0  0  0  0
   47.9860   33.8250   40.3150 C   0  0  0  0  0  0  0  0  0  0  0  0
   47.5400   34.3620   41.6470 C   0  0  2  0  0  0  0  0  0  0  0  0
   44.6040   36.2610   44.4500 C   0  0  0  0  0  0  0  0  0  0  0  0
   45.1150   35.8090   43.2400 C   0  0  0  0  0  0  0  0  0  0  0  0
   45.6560   34.5270   43.1580 C   0  0  0  0  0  0  0  0  0  0  0  0
   45.6540   33.7630   44.2990 N   0  0  0  0  0  0  0  0  0  0  0  0
   45.1470   34.2360   45.4570 C   0  0  0  0  0  0  0  0  0  0  0  0
   44.6280   35.4740   45.5280 N   0  0  0  0  0  0  0  0  0  0  0  0
   48.7290   33.6930   42.8790 S   0  0  0  0  0  0  0  0  0  0  0  0
   50.3560   34.4340   42.5020 C   0  0  0  0  0  0  0  0  0  0  0  0
   45.9381   31.9777   41.4224 H   0  0  0  0  0  0  0  0  0  0  0  0
   44.4593   33.0709   41.4404 H   0  0  0  0  0  0  0  0  0  0  0  0
   45.5144   32.2066   39.2337 H   0  0  0  0  0  0  0  0  0  0  0  0
   44.8407   33.9008   39.4637 H   0  0  0  0  0  0  0  0  0  0  0  0
   47.3026   33.2018   38.4173 H   0  0  0  0  0  0  0  0  0  0  0  0
   46.7122   34.8344   38.9986 H   0  0  0  0  0  0  0  0  0  0  0  0
   48.3522   32.7987   40.4654 H   0  0  0  0  0  0  0  0  0  0  0  0
   48.7610   34.5140   39.9480 H   0  0  0  0  0  0  0  0  0  0  0  0
   47.5188   35.4615   41.6210 H   0  0  0  0  0  0  0  0  0  0  0  0
   44.1774   37.2725   44.5203 H   0  0  0  0  0  0  0  0  0  0  0  0
   45.0929   36.4584   42.3524 H   0  0  0  0  0  0  0  0  0  0  0  0
   45.1586   33.6001   46.3545 H   0  0  0  0  0  0  0  0  0  0  0  0
   50.8772   34.6714   43.4411 H   0  0  0  0  0  0  0  0  0  0  0  0
   50.9574   33.7210   41.9190 H   0  0  0  0  0  0  0  0  0  0  0  0
   50.2129   35.3557   41.9190 H   0  0  0  0  0  0  0  0  0  0  0  0
  1  9  1  0
  2  1  1  0
  3  2  1  0
  4  3  1  0
  4  5  1  0
  5  6  1  0
  6  1  1  0
  6 13  1  0
  7 12  2  0
  8  7  1  0
  9  8  2  0
  9 10  1  0
 10 11  2  0
 11 12  1  0
 14 13  1  0
  2 15  1  0
  2 16  1  0
  3 17  1  0
  3 18  1  0
  4 19  1  0
  4 20  1  0
  5 21  1  0
  5 22  1  0
  6 23  1  6
  7 24  1  0
  8 25  1  0
 11 26  1  0
 14 27  1  0
 14 28  1  0
 14 29  1  0
M  ISO  8  15  13  16  13  17  13  18  13  19  13  20  13  21  13  22  13
M  ISO  7  23  13  24  14  25  14  26  14  27   8  28   8  29   8
M  END
>  <minimizedAffinity>  (1) 
-3.87864494

>  <minimizedRMSD>  (1) 
0.729979634

$$$$
