
     RDKit          3D

 27 29  0  0  1  0  0  0  0  0999 V2000
   48.7040   34.5390   42.7390 C   0  0  1  0  0  0  0  0  0  0  0  0
   49.3510   35.6570   41.9180 C   0  0  0  0  0  0  0  0  0  0  0  0
   47.9830   35.2030   41.6390 C   0  0  1  0  0  0  0  0  0  0  0  0
   51.2210   31.8440   42.0630 C   0  0  0  0  0  0  0  0  0  0  0  0
   50.6550   33.1430   42.2000 C   0  0  0  0  0  0  0  0  0  0  0  0
   49.3260   33.2090   42.5670 C   0  0  0  0  0  0  0  0  0  0  0  0
   48.6470   32.0510   42.7730 N   0  0  0  0  0  0  0  0  0  0  0  0
   49.1990   30.8310   42.6390 C   0  0  0  0  0  0  0  0  0  0  0  0
   50.4850   30.7330   42.2840 N   0  0  0  0  0  0  0  0  0  0  0  0
   47.6250   34.5510   40.3680 C   0  0  0  0  0  0  0  0  0  0  0  0
   48.3560   34.6060   39.1980 C   0  0  0  0  0  0  0  0  0  0  0  0
   47.9950   33.9730   38.0270 C   0  0  0  0  0  0  0  0  0  0  0  0
   46.8330   33.2290   37.9910 C   0  0  0  0  0  0  0  0  0  0  0  0
   46.0540   33.1320   39.1250 C   0  0  0  0  0  0  0  0  0  0  0  0
   46.4720   33.7900   40.2630 C   0  0  0  0  0  0  0  0  0  0  0  0
   48.4391   34.3285   43.7857 H   0  0  0  0  0  0  0  0  0  0  0  0
   49.5248   36.6451   42.3691 H   0  0  0  0  0  0  0  0  0  0  0  0
   50.2762   35.7664   41.3331 H   0  0  0  0  0  0  0  0  0  0  0  0
   46.9990   35.6909   41.5776 H   0  0  0  0  0  0  0  0  0  0  0  0
   52.2770   31.7431   41.7719 H   0  0  0  0  0  0  0  0  0  0  0  0
   51.2489   34.0516   42.0217 H   0  0  0  0  0  0  0  0  0  0  0  0
   48.6003   29.9259   42.8191 H   0  0  0  0  0  0  0  0  0  0  0  0
   49.2865   35.1926   39.1999 H   0  0  0  0  0  0  0  0  0  0  0  0
   48.6268   34.0602   37.1308 H   0  0  0  0  0  0  0  0  0  0  0  0
   46.5306   32.7175   37.0653 H   0  0  0  0  0  0  0  0  0  0  0  0
   45.1236   32.5452   39.1220 H   0  0  0  0  0  0  0  0  0  0  0  0
   45.8394   33.7036   41.1587 H   0  0  0  0  0  0  0  0  0  0  0  0
  2  1  1  0
  3  2  1  0
  3  1  1  0
  4  5  2  0
  4  9  1  0
  5  6  1  0
  6  1  1  0
  6  7  2  0
  8  7  1  0
  9  8  2  0
 10  3  1  0
 11 10  2  0
 12 11  1  0
 13 12  2  0
 13 14  1  0
 14 15  2  0
 15 10  1  0
  1 16  1  1
  2 17  1  0
  2 18  1  0
  3 19  1  1
  4 20  1  0
  5 21  1  0
  8 22  1  0
 11 23  1  0
 12 24  1  0
 13 25  1  0
 14 26  1  0
 15 27  1  0
M  ISO  8  16  13  17  13  18  13  19  13  20  14  21  14  22  14  23  14
M  ISO  4  24  14  25  14  26  14  27  14
M  END
>  <minimizedAffinity>  (1) 
-4.36164284

>  <minimizedRMSD>  (1) 
5.2164259

$$$$
