
     RDKit          3D

 41 43  0  0  1  0  0  0  0  0999 V2000
   41.7470   33.1950   40.1130 N   0  0  0  0  0  0  0  0  0  0  0  0
   41.3150   33.0570   38.7660 C   0  0  0  0  0  0  0  0  0  0  0  0
   40.5710   34.2160   38.2150 C   0  0  0  0  0  0  0  0  0  0  0  0
   41.0170   35.5390   38.7340 C   0  0  0  0  0  0  0  0  0  0  0  0
   42.2420   35.5320   39.5820 C   0  0  0  0  0  0  0  0  0  0  0  0
   42.3460   34.4150   40.5820 C   0  0  2  0  0  0  0  0  0  0  0  0
   40.6180   30.8890   42.8410 C   0  0  0  0  0  0  0  0  0  0  0  0
   40.5740   31.9390   41.9310 C   0  0  0  0  0  0  0  0  0  0  0  0
   41.6310   32.1770   41.0850 C   0  0  0  0  0  0  0  0  0  0  0  0
   42.6940   31.3200   41.2120 N   0  0  0  0  0  0  0  0  0  0  0  0
   42.7290   30.3140   42.0880 C   0  0  0  0  0  0  0  0  0  0  0  0
   41.6950   30.0980   42.9000 N   0  0  0  0  0  0  0  0  0  0  0  0
   44.1470   34.1470   40.8020 S   0  0  0  0  0  0  0  0  0  0  0  0
   44.2670   33.3110   43.2810 N   0  0  0  0  0  0  0  0  0  0  0  0
   45.4650   32.6860   43.8160 C   0  0  0  0  0  0  0  0  0  0  0  0
   46.5200   33.0100   42.7910 C   0  0  0  0  0  0  0  0  0  0  0  0
   46.2190   34.4410   42.4520 C   0  0  0  0  0  0  0  0  0  0  0  0
   44.6700   34.4140   42.5060 C   0  0  1  0  0  0  0  0  0  0  0  0
   44.2990   35.6760   43.1420 C   0  0  0  0  0  0  0  0  0  0  0  0
   45.1880   36.5830   43.0660 O   0  0  0  0  0  0  0  0  0  0  0  0
   43.0420   35.7950   43.7670 O   0  0  0  0  0  0  0  0  0  0  0  0
   42.2044   32.8954   38.1391 H   0  0  0  0  0  0  0  0  0  0  0  0
   40.6099   32.2127   38.7586 H   0  0  0  0  0  0  0  0  0  0  0  0
   39.5067   34.0906   38.4631 H   0  0  0  0  0  0  0  0  0  0  0  0
   40.7618   34.2242   37.1317 H   0  0  0  0  0  0  0  0  0  0  0  0
   41.2105   36.1911   37.8695 H   0  0  0  0  0  0  0  0  0  0  0  0
   40.2058   35.8874   39.3901 H   0  0  0  0  0  0  0  0  0  0  0  0
   43.1133   35.4673   38.9137 H   0  0  0  0  0  0  0  0  0  0  0  0
   42.1966   36.4572   40.1753 H   0  0  0  0  0  0  0  0  0  0  0  0
   41.8182   34.6824   41.5093 H   0  0  0  0  0  0  0  0  0  0  0  0
   39.7662   30.7085   43.5132 H   0  0  0  0  0  0  0  0  0  0  0  0
   39.6850   32.5854   41.8875 H   0  0  0  0  0  0  0  0  0  0  0  0
   43.6133   29.6618   42.1398 H   0  0  0  0  0  0  0  0  0  0  0  0
   43.7529   32.6388   42.6939 H   0  0  0  0  0  0  0  0  0  0  0  0
   45.7258   33.1114   44.7963 H   0  0  0  0  0  0  0  0  0  0  0  0
   45.3464   31.6049   43.9810 H   0  0  0  0  0  0  0  0  0  0  0  0
   47.5300   32.9062   43.2143 H   0  0  0  0  0  0  0  0  0  0  0  0
   46.5021   32.3407   41.9183 H   0  0  0  0  0  0  0  0  0  0  0  0
   46.5874   34.7089   41.4508 H   0  0  0  0  0  0  0  0  0  0  0  0
   46.6915   35.1818   43.1138 H   0  0  0  0  0  0  0  0  0  0  0  0
   42.7832   36.6468   44.2001 H   0  0  0  0  0  0  0  0  0  0  0  0
  1  6  1  0
  1  9  1  0
  2  1  1  0
  3  4  1  0
  3  2  1  0
  4  5  1  0
  5  6  1  0
  6 13  1  0
  7 12  2  0
  8  7  1  0
  9 10  1  0
  9  8  2  0
 10 11  2  0
 11 12  1  0
 14 15  1  0
 16 15  1  0
 17 18  1  0
 17 16  1  0
 18 13  1  6
 18 19  1  0
 18 14  1  0
 19 21  1  0
 20 19  2  0
  2 22  1  0
  2 23  1  0
  3 24  1  0
  3 25  1  0
  4 26  1  0
  4 27  1  0
  5 28  1  0
  5 29  1  0
  6 30  1  1
  7 31  1  0
  8 32  1  0
 11 33  1  0
 14 34  1  0
 15 35  1  0
 15 36  1  0
 16 37  1  0
 16 38  1  0
 17 39  1  0
 17 40  1  0
 21 41  1  0
M  ISO  8  22  13  23  13  24  13  25  13  26  13  27  13  28  13  29  13
M  ISO  8  30  13  31  14  32  14  33  14  34   5  35  13  36  13  37  13
M  ISO  4  38  13  39  13  40  13  41   3
M  END
>  <minimizedAffinity>  (1) 
-5.29140091

>  <minimizedRMSD>  (1) 
8.137393

$$$$
