
     RDKit          3D

 51 55  0  0  1  0  0  0  0  0999 V2000
   46.8190   32.4210   41.2300 S   0  0  0  0  0  0  0  0  0  0  0  0
   44.4350   33.6060   41.4160 N   0  0  0  0  0  0  0  0  0  0  0  0
   43.2120   32.9910   41.0120 C   0  0  0  0  0  0  0  0  0  0  0  0
   42.8030   33.2990   39.6120 C   0  0  0  0  0  0  0  0  0  0  0  0
   43.9270   33.4050   38.6500 C   0  0  0  0  0  0  0  0  0  0  0  0
   45.2880   33.0910   39.1880 C   0  0  0  0  0  0  0  0  0  0  0  0
   45.5960   33.6100   40.5610 C   0  0  2  0  0  0  0  0  0  0  0  0
   44.6320   36.0680   44.2280 C   0  0  0  0  0  0  0  0  0  0  0  0
   44.4200   35.5800   42.9420 C   0  0  0  0  0  0  0  0  0  0  0  0
   44.6090   34.2480   42.6650 C   0  0  0  0  0  0  0  0  0  0  0  0
   45.0090   33.4670   43.7180 N   0  0  0  0  0  0  0  0  0  0  0  0
   45.2120   33.9460   44.9490 C   0  0  0  0  0  0  0  0  0  0  0  0
   45.0230   35.2410   45.2010 N   0  0  0  0  0  0  0  0  0  0  0  0
   48.7000   33.9910   40.3280 N   0  0  0  0  0  0  0  0  0  0  0  0
   48.9130   35.3270   40.8100 C   0  0  0  0  0  0  0  0  0  0  0  0
   48.0150   35.3980   42.0200 C   0  0  0  0  0  0  0  0  0  0  0  0
   48.2990   34.0760   42.6910 C   0  0  0  0  0  0  0  0  0  0  0  0
   48.4340   33.1580   41.4320 C   0  0  1  0  0  0  0  0  0  0  0  0
   49.5590   32.2880   41.7130 N   0  0  0  0  0  0  0  0  0  0  0  0
   50.7540   32.3270   41.0460 C   0  0  0  0  0  0  0  0  0  0  0  0
   51.5000   31.3320   41.5910 N   0  0  0  0  0  0  0  0  0  0  0  0
   50.7710   30.7280   42.5440 C   0  0  0  0  0  0  0  0  0  0  0  0
   50.9830   29.6660   43.4320 C   0  0  0  0  0  0  0  0  0  0  0  0
   50.0320   29.2660   44.3090 N   0  0  0  0  0  0  0  0  0  0  0  0
   48.8230   29.8990   44.3500 C   0  0  0  0  0  0  0  0  0  0  0  0
   48.5650   30.9260   43.5180 N   0  0  0  0  0  0  0  0  0  0  0  0
   49.5230   31.3020   42.6610 C   0  0  0  0  0  0  0  0  0  0  0  0
   52.2470   29.0130   43.3790 N   0  0  0  0  0  0  0  0  0  0  0  0
   43.3274   31.9010   41.1052 H   0  0  0  0  0  0  0  0  0  0  0  0
   42.4253   33.3954   41.6659 H   0  0  0  0  0  0  0  0  0  0  0  0
   42.1304   32.4998   39.2672 H   0  0  0  0  0  0  0  0  0  0  0  0
   42.3205   34.2872   39.6382 H   0  0  0  0  0  0  0  0  0  0  0  0
   43.9465   34.4366   38.2687 H   0  0  0  0  0  0  0  0  0  0  0  0
   43.7305   32.6425   37.8819 H   0  0  0  0  0  0  0  0  0  0  0  0
   45.3946   31.9964   39.2118 H   0  0  0  0  0  0  0  0  0  0  0  0
   45.9938   33.6017   38.5164 H   0  0  0  0  0  0  0  0  0  0  0  0
   45.9534   34.6494   40.5166 H   0  0  0  0  0  0  0  0  0  0  0  0
   44.4774   37.1356   44.4432 H   0  0  0  0  0  0  0  0  0  0  0  0
   44.0993   36.2647   42.1430 H   0  0  0  0  0  0  0  0  0  0  0  0
   45.5354   33.2708   45.7550 H   0  0  0  0  0  0  0  0  0  0  0  0
   47.8985   33.9781   39.6812 H   0  0  0  0  0  0  0  0  0  0  0  0
   49.9655   35.4836   41.0889 H   0  0  0  0  0  0  0  0  0  0  0  0
   48.6907   36.0995   40.0591 H   0  0  0  0  0  0  0  0  0  0  0  0
   48.2844   36.2435   42.6700 H   0  0  0  0  0  0  0  0  0  0  0  0
   46.9536   35.5572   41.7792 H   0  0  0  0  0  0  0  0  0  0  0  0
   49.2300   34.1065   43.2761 H   0  0  0  0  0  0  0  0  0  0  0  0
   47.5417   33.7540   43.4209 H   0  0  0  0  0  0  0  0  0  0  0  0
   51.0470   33.0168   40.2409 H   0  0  0  0  0  0  0  0  0  0  0  0
   48.0561   29.5686   45.0660 H   0  0  0  0  0  0  0  0  0  0  0  0
   52.4475   28.2267   44.0134 H   0  0  0  0  0  0  0  0  0  0  0  0
   52.9610   29.3268   42.7062 H   0  0  0  0  0  0  0  0  0  0  0  0
  2 10  1  0
  3  2  1  0
  4  3  1  0
  5  6  1  0
  5  4  1  0
  6  7  1  0
  7  1  1  0
  7  2  1  0
  8 13  2  0
  9  8  1  0
 10  9  2  0
 10 11  1  0
 11 12  2  0
 12 13  1  0
 14 15  1  0
 14 18  1  0
 15 16  1  0
 16 17  1  0
 18  1  1  6
 18 19  1  0
 18 17  1  0
 19 27  1  0
 20 21  2  0
 20 19  1  0
 21 22  1  0
 22 27  2  0
 22 23  1  0
 23 24  2  0
 24 25  1  0
 26 25  2  0
 27 26  1  0
 28 23  1  0
  3 29  1  0
  3 30  1  0
  4 31  1  0
  4 32  1  0
  5 33  1  0
  5 34  1  0
  6 35  1  0
  6 36  1  0
  7 37  1  6
  8 38  1  0
  9 39  1  0
 12 40  1  0
 14 41  1  0
 15 42  1  0
 15 43  1  0
 16 44  1  0
 16 45  1  0
 17 46  1  0
 17 47  1  0
 20 48  1  0
 25 49  1  0
 28 50  1  0
 28 51  1  0
M  ISO  8  29  13  30  13  31  13  32  13  33  13  34  13  35  13  36  13
M  ISO  8  37  13  38  14  39  14  40  14  41   5  42  13  43  13  44  13
M  ISO  5  45  13  46  13  47  13  48  14  49  14
M  END
>  <minimizedAffinity>  (1) 
-5.25878906

>  <minimizedRMSD>  (1) 
6.78284359

$$$$
