
     RDKit          3D

 49 52  0  0  1  0  0  0  0  0999 V2000
   43.3830   33.6380   40.8930 N   0  0  0  0  0  0  0  0  0  0  0  0
   42.0260   33.3000   41.1560 C   0  0  0  0  0  0  0  0  0  0  0  0
   41.0320   34.0040   40.3020 C   0  0  0  0  0  0  0  0  0  0  0  0
   41.4770   34.2380   38.9040 C   0  0  0  0  0  0  0  0  0  0  0  0
   42.7820   33.6140   38.5280 C   0  0  0  0  0  0  0  0  0  0  0  0
   43.8830   33.7240   39.5440 C   0  0  2  0  0  0  0  0  0  0  0  0
   45.9910   35.1730   43.0990 C   0  0  0  0  0  0  0  0  0  0  0  0
   45.0880   35.0550   42.0480 C   0  0  0  0  0  0  0  0  0  0  0  0
   44.3380   33.9130   41.9010 C   0  0  0  0  0  0  0  0  0  0  0  0
   44.5450   32.9370   42.8390 N   0  0  0  0  0  0  0  0  0  0  0  0
   45.4140   33.0590   43.8450 C   0  0  0  0  0  0  0  0  0  0  0  0
   46.1380   34.1780   43.9760 N   0  0  0  0  0  0  0  0  0  0  0  0
   44.9530   32.2770   39.2130 S   0  0  0  0  0  0  0  0  0  0  0  0
   46.8130   34.0990   38.9810 N   0  0  0  0  0  0  0  0  0  0  0  0
   47.9580   34.1490   39.8480 C   0  0  0  0  0  0  0  0  0  0  0  0
   47.9020   32.8040   40.5740 C   0  0  0  0  0  0  0  0  0  0  0  0
   47.5800   31.8840   39.4190 C   0  0  0  0  0  0  0  0  0  0  0  0
   46.5740   32.7530   38.6260 C   0  0  1  0  0  0  0  0  0  0  0  0
   46.8690   32.5540   37.2250 N   0  0  0  0  0  0  0  0  0  0  0  0
   45.8490   32.0480   36.4620 C   0  0  0  0  0  0  0  0  0  0  0  0
   46.0550   31.8740   35.1190 C   0  0  0  0  0  0  0  0  0  0  0  0
   47.2970   32.2200   34.5810 C   0  0  0  0  0  0  0  0  0  0  0  0
   47.4420   32.0150   33.1840 N   0  0  0  0  0  0  0  0  0  0  0  0
   48.2560   32.7120   35.3840 N   0  0  0  0  0  0  0  0  0  0  0  0
   48.0930   32.8970   36.7080 C   0  0  0  0  0  0  0  0  0  0  0  0
   49.0200   33.3580   37.4180 O   0  0  0  0  0  0  0  0  0  0  0  0
   41.9062   32.2178   40.9997 H   0  0  0  0  0  0  0  0  0  0  0  0
   41.8232   33.6136   42.1907 H   0  0  0  0  0  0  0  0  0  0  0  0
   40.1137   33.3990   40.2736 H   0  0  0  0  0  0  0  0  0  0  0  0
   40.8797   34.9961   40.7521 H   0  0  0  0  0  0  0  0  0  0  0  0
   40.7042   33.8374   38.2315 H   0  0  0  0  0  0  0  0  0  0  0  0
   41.6261   35.3241   38.8138 H   0  0  0  0  0  0  0  0  0  0  0  0
   42.6022   32.5450   38.3414 H   0  0  0  0  0  0  0  0  0  0  0  0
   43.1344   34.1723   37.6481 H   0  0  0  0  0  0  0  0  0  0  0  0
   44.4012   34.6908   39.4616 H   0  0  0  0  0  0  0  0  0  0  0  0
   46.5870   36.0911   43.2080 H   0  0  0  0  0  0  0  0  0  0  0  0
   44.9734   35.8806   41.3302 H   0  0  0  0  0  0  0  0  0  0  0  0
   45.5356   32.2388   44.5678 H   0  0  0  0  0  0  0  0  0  0  0  0
   45.9906   34.4800   39.4703 H   0  0  0  0  0  0  0  0  0  0  0  0
   48.8880   34.2467   39.2688 H   0  0  0  0  0  0  0  0  0  0  0  0
   47.9454   35.0105   40.5319 H   0  0  0  0  0  0  0  0  0  0  0  0
   48.8670   32.5518   41.0378 H   0  0  0  0  0  0  0  0  0  0  0  0
   47.1865   32.7617   41.4084 H   0  0  0  0  0  0  0  0  0  0  0  0
   48.4753   31.6552   38.8223 H   0  0  0  0  0  0  0  0  0  0  0  0
   47.1936   30.8981   39.7168 H   0  0  0  0  0  0  0  0  0  0  0  0
   44.8834   31.7866   36.9194 H   0  0  0  0  0  0  0  0  0  0  0  0
   45.2584   31.4699   34.4770 H   0  0  0  0  0  0  0  0  0  0  0  0
   48.3310   32.2479   32.7188 H   0  0  0  0  0  0  0  0  0  0  0  0
   46.6582   31.6333   32.6354 H   0  0  0  0  0  0  0  0  0  0  0  0
  1  2  1  0
  1  9  1  0
  3  2  1  0
  4  3  1  0
  5  4  1  0
  5  6  1  0
  6  1  1  0
  7 12  2  0
  8  7  1  0
  9  8  2  0
  9 10  1  0
 10 11  2  0
 11 12  1  0
 13  6  1  0
 14 15  1  0
 15 16  1  0
 17 16  1  0
 18 14  1  0
 18 13  1  6
 18 17  1  0
 19 18  1  0
 20 19  1  0
 21 20  2  0
 22 21  1  0
 22 24  2  0
 23 22  1  0
 24 25  1  0
 25 19  1  0
 25 26  2  0
  2 27  1  0
  2 28  1  0
  3 29  1  0
  3 30  1  0
  4 31  1  0
  4 32  1  0
  5 33  1  0
  5 34  1  0
  6 35  1  1
  7 36  1  0
  8 37  1  0
 11 38  1  0
 14 39  1  0
 15 40  1  0
 15 41  1  0
 16 42  1  0
 16 43  1  0
 17 44  1  0
 17 45  1  0
 20 46  1  0
 21 47  1  0
 23 48  1  0
 23 49  1  0
M  ISO  8  27  13  28  13  29  13  30  13  31  13  32  13  33  13  34  13
M  ISO  8  35  13  36  14  37  14  38  14  39   5  40  13  41  13  42  13
M  ISO  5  43  13  44  13  45  13  46  14  47  14
M  END
>  <minimizedAffinity>  (1) 
-5.21591902

>  <minimizedRMSD>  (1) 
4.43498993

$$$$
