
     RDKit          3D

 51 54  0  0  1  0  0  0  0  0999 V2000
   46.0420   33.5630   40.3260 N   0  0  0  0  0  0  0  0  0  0  0  0
   44.7090   33.4900   40.8600 C   0  0  0  0  0  0  0  0  0  0  0  0
   43.6390   33.9060   39.9180 C   0  0  0  0  0  0  0  0  0  0  0  0
   43.8910   33.5680   38.4940 C   0  0  0  0  0  0  0  0  0  0  0  0
   45.1040   32.7350   38.2170 C   0  0  0  0  0  0  0  0  0  0  0  0
   46.3400   33.0850   39.0000 C   0  0  2  0  0  0  0  0  0  0  0  0
   49.0980   35.4150   41.4040 C   0  0  0  0  0  0  0  0  0  0  0  0
   48.0680   34.9890   40.5780 C   0  0  0  0  0  0  0  0  0  0  0  0
   47.1340   34.0900   41.0360 C   0  0  0  0  0  0  0  0  0  0  0  0
   47.3050   33.6700   42.3290 N   0  0  0  0  0  0  0  0  0  0  0  0
   48.2980   34.0820   43.1200 C   0  0  0  0  0  0  0  0  0  0  0  0
   49.1940   34.9570   42.6540 N   0  0  0  0  0  0  0  0  0  0  0  0
   47.2570   31.4990   39.1490 S   0  0  0  0  0  0  0  0  0  0  0  0
   49.7090   32.3000   38.6510 N   0  0  0  0  0  0  0  0  0  0  0  0
   50.8590   31.4990   38.9780 C   0  0  0  0  0  0  0  0  0  0  0  0
   50.2670   30.1420   39.2630 C   0  0  0  0  0  0  0  0  0  0  0  0
   49.2300   30.0020   38.1790 C   0  0  0  0  0  0  0  0  0  0  0  0
   48.7130   31.4770   38.1000 C   0  0  1  0  0  0  0  0  0  0  0  0
   48.5110   31.6830   36.6760 N   0  0  0  0  0  0  0  0  0  0  0  0
   48.1840   30.7150   35.7640 C   0  0  0  0  0  0  0  0  0  0  0  0
   48.0690   31.0780   34.4390 C   0  0  0  0  0  0  0  0  0  0  0  0
   47.7130   30.0190   33.4580 C   0  0  0  0  0  0  0  0  0  0  0  0
   48.2910   32.4000   34.1120 C   0  0  0  0  0  0  0  0  0  0  0  0
   48.1840   32.7270   32.8940 O   0  0  0  0  0  0  0  0  0  0  0  0
   48.6120   33.3560   34.9940 N   0  0  0  0  0  0  0  0  0  0  0  0
   48.7230   32.9860   36.3020 C   0  0  0  0  0  0  0  0  0  0  0  0
   49.0240   33.9010   37.1100 O   0  0  0  0  0  0  0  0  0  0  0  0
   44.5164   32.4491   41.1592 H   0  0  0  0  0  0  0  0  0  0  0  0
   44.6729   34.1964   41.7024 H   0  0  0  0  0  0  0  0  0  0  0  0
   42.7039   33.4148   40.2251 H   0  0  0  0  0  0  0  0  0  0  0  0
   43.5928   35.0038   39.9702 H   0  0  0  0  0  0  0  0  0  0  0  0
   43.0144   33.0194   38.1191 H   0  0  0  0  0  0  0  0  0  0  0  0
   44.0728   34.5292   37.9910 H   0  0  0  0  0  0  0  0  0  0  0  0
   44.8506   31.6879   38.4393 H   0  0  0  0  0  0  0  0  0  0  0  0
   45.3581   32.9241   37.1636 H   0  0  0  0  0  0  0  0  0  0  0  0
   46.8966   33.8878   38.4944 H   0  0  0  0  0  0  0  0  0  0  0  0
   49.8398   36.1343   41.0266 H   0  0  0  0  0  0  0  0  0  0  0  0
   47.9981   35.3731   39.5496 H   0  0  0  0  0  0  0  0  0  0  0  0
   48.3783   33.7034   44.1497 H   0  0  0  0  0  0  0  0  0  0  0  0
   49.3497   32.7511   39.5044 H   0  0  0  0  0  0  0  0  0  0  0  0
   51.5606   31.4530   38.1320 H   0  0  0  0  0  0  0  0  0  0  0  0
   51.4382   31.9018   39.8220 H   0  0  0  0  0  0  0  0  0  0  0  0
   51.0292   29.3524   39.1878 H   0  0  0  0  0  0  0  0  0  0  0  0
   49.8541   30.0491   40.2783 H   0  0  0  0  0  0  0  0  0  0  0  0
   49.6759   29.6749   37.2281 H   0  0  0  0  0  0  0  0  0  0  0  0
   48.4523   29.2500   38.3781 H   0  0  0  0  0  0  0  0  0  0  0  0
   48.0174   29.6748   36.0805 H   0  0  0  0  0  0  0  0  0  0  0  0
   47.4072   29.1092   33.9954 H   0  0  0  0  0  0  0  0  0  0  0  0
   46.8829   30.3683   32.8264 H   0  0  0  0  0  0  0  0  0  0  0  0
   48.5856   29.7960   32.8264 H   0  0  0  0  0  0  0  0  0  0  0  0
   48.7684   34.3297   34.6967 H   0  0  0  0  0  0  0  0  0  0  0  0
  1  2  1  0
  1  9  1  0
  3  2  1  0
  4  3  1  0
  5  4  1  0
  5  6  1  0
  6 13  1  0
  6  1  1  0
  7 12  2  0
  8  9  2  0
  8  7  1  0
  9 10  1  0
 10 11  2  0
 12 11  1  0
 14 15  1  0
 15 16  1  0
 17 16  1  0
 18 17  1  0
 18 14  1  0
 18 13  1  1
 19 18  1  0
 20 19  1  0
 21 20  2  0
 22 21  1  0
 23 21  1  0
 23 25  1  0
 24 23  2  0
 25 26  1  0
 26 19  1  0
 26 27  2  0
  2 28  1  0
  2 29  1  0
  3 30  1  0
  3 31  1  0
  4 32  1  0
  4 33  1  0
  5 34  1  0
  5 35  1  0
  6 36  1  6
  7 37  1  0
  8 38  1  0
 11 39  1  0
 14 40  1  0
 15 41  1  0
 15 42  1  0
 16 43  1  0
 16 44  1  0
 17 45  1  0
 17 46  1  0
 20 47  1  0
 22 48  1  0
 22 49  1  0
 22 50  1  0
 25 51  1  0
M  ISO  8  28  13  29  13  30  13  31  13  32  13  33  13  34  13  35  13
M  ISO  8  36  13  37  14  38  14  39  14  40   5  41  13  42  13  43  13
M  ISO  8  44  13  45  13  46  13  47  14  48   8  49   8  50   8  51   9
M  END
>  <minimizedAffinity>  (1) 
-5.1785984

>  <minimizedRMSD>  (1) 
1.99362159

$$$$
