
     RDKit          3D

 54 58  0  0  1  0  0  0  0  0999 V2000
   43.1520   29.6300   38.1400 N   0  0  0  0  0  0  0  0  0  0  0  0
   43.7900   28.7500   37.2190 C   0  0  0  0  0  0  0  0  0  0  0  0
   43.5700   29.0700   35.7850 C   0  0  0  0  0  0  0  0  0  0  0  0
   43.4320   30.5210   35.4810 C   0  0  0  0  0  0  0  0  0  0  0  0
   43.7350   31.4480   36.6160 C   0  0  0  0  0  0  0  0  0  0  0  0
   43.1820   31.0550   37.9550 C   0  0  2  0  0  0  0  0  0  0  0  0
   40.5990   28.9730   40.8040 C   0  0  0  0  0  0  0  0  0  0  0  0
   41.1390   29.4860   39.6260 C   0  0  0  0  0  0  0  0  0  0  0  0
   42.4510   29.1940   39.2920 C   0  0  0  0  0  0  0  0  0  0  0  0
   43.1460   28.4000   40.1640 N   0  0  0  0  0  0  0  0  0  0  0  0
   42.6020   27.9180   41.2910 C   0  0  0  0  0  0  0  0  0  0  0  0
   41.3390   28.2020   41.6100 N   0  0  0  0  0  0  0  0  0  0  0  0
   44.2940   31.8170   39.1620 S   0  0  0  0  0  0  0  0  0  0  0  0
   43.6930   34.2750   38.8190 N   0  0  0  0  0  0  0  0  0  0  0  0
   42.3820   34.8210   38.7490 C   0  0  0  0  0  0  0  0  0  0  0  0
   41.5310   33.6460   39.1340 C   0  0  0  0  0  0  0  0  0  0  0  0
   42.2690   33.0770   40.3220 C   0  0  0  0  0  0  0  0  0  0  0  0
   43.7140   33.3130   39.9050 C   0  0  1  0  0  0  0  0  0  0  0  0
   44.4190   34.0500   40.9550 C   0  0  0  0  0  0  0  0  0  0  0  0
   43.7610   34.6280   42.0710 C   0  0  0  0  0  0  0  0  0  0  0  0
   44.2520   35.3780   43.0910 C   0  0  0  0  0  0  0  0  0  0  0  0
   45.6050   35.6310   43.0550 C   0  0  0  0  0  0  0  0  0  0  0  0
   46.3870   35.1390   42.0350 C   0  0  0  0  0  0  0  0  0  0  0  0
   47.7480   35.3520   42.0020 C   0  0  0  0  0  0  0  0  0  0  0  0
   48.5570   34.8330   41.0080 C   0  0  0  0  0  0  0  0  0  0  0  0
   47.9540   34.0790   40.0250 C   0  0  0  0  0  0  0  0  0  0  0  0
   46.5980   33.8940   40.0970 C   0  0  0  0  0  0  0  0  0  0  0  0
   45.7550   34.3940   41.0710 C   0  0  0  0  0  0  0  0  0  0  0  0
   44.8724   28.7806   37.4127 H   0  0  0  0  0  0  0  0  0  0  0  0
   43.3430   27.7584   37.3834 H   0  0  0  0  0  0  0  0  0  0  0  0
   44.4250   28.6807   35.2128 H   0  0  0  0  0  0  0  0  0  0  0  0
   42.6128   28.6041   35.5081 H   0  0  0  0  0  0  0  0  0  0  0  0
   44.1176   30.7610   34.6550 H   0  0  0  0  0  0  0  0  0  0  0  0
   42.3712   30.6791   35.2365 H   0  0  0  0  0  0  0  0  0  0  0  0
   44.8287   31.5167   36.7111 H   0  0  0  0  0  0  0  0  0  0  0  0
   43.2435   32.3984   36.3606 H   0  0  0  0  0  0  0  0  0  0  0  0
   42.1393   31.3894   38.0593 H   0  0  0  0  0  0  0  0  0  0  0  0
   39.5576   29.2033   41.0732 H   0  0  0  0  0  0  0  0  0  0  0  0
   40.5273   30.1186   38.9660 H   0  0  0  0  0  0  0  0  0  0  0  0
   43.2031   27.2827   41.9581 H   0  0  0  0  0  0  0  0  0  0  0  0
   44.3757   35.0244   39.0012 H   0  0  0  0  0  0  0  0  0  0  0  0
   42.2577   35.6532   39.4575 H   0  0  0  0  0  0  0  0  0  0  0  0
   42.1314   35.2457   37.7657 H   0  0  0  0  0  0  0  0  0  0  0  0
   40.5162   33.9657   39.4133 H   0  0  0  0  0  0  0  0  0  0  0  0
   41.3924   32.9213   38.3181 H   0  0  0  0  0  0  0  0  0  0  0  0
   42.0221   33.6173   41.2478 H   0  0  0  0  0  0  0  0  0  0  0  0
   42.0270   32.0277   40.5467 H   0  0  0  0  0  0  0  0  0  0  0  0
   42.6785   34.4380   42.1176 H   0  0  0  0  0  0  0  0  0  0  0  0
   43.6081   35.7601   43.8969 H   0  0  0  0  0  0  0  0  0  0  0  0
   46.0664   36.2337   43.8512 H   0  0  0  0  0  0  0  0  0  0  0  0
   48.2083   35.9578   42.7964 H   0  0  0  0  0  0  0  0  0  0  0  0
   49.6418   35.0153   41.0022 H   0  0  0  0  0  0  0  0  0  0  0  0
   48.5432   33.6388   39.2071 H   0  0  0  0  0  0  0  0  0  0  0  0
   46.1361   33.2891   39.3028 H   0  0  0  0  0  0  0  0  0  0  0  0
  1  9  1  0
  2  1  1  0
  3  2  1  0
  4  3  1  0
  4  5  1  0
  5  6  1  0
  6  1  1  0
  6 13  1  0
  7 12  2  0
  8  7  1  0
  9  8  2  0
  9 10  1  0
 10 11  2  0
 11 12  1  0
 14 18  1  0
 15 14  1  0
 15 16  1  0
 16 17  1  0
 18 13  1  6
 18 17  1  0
 18 19  1  0
 19 28  1  0
 19 20  2  0
 20 21  1  0
 22 21  2  0
 23 22  1  0
 24 23  2  0
 25 24  1  0
 26 27  1  0
 26 25  2  0
 27 28  2  0
 28 23  1  0
  2 29  1  0
  2 30  1  0
  3 31  1  0
  3 32  1  0
  4 33  1  0
  4 34  1  0
  5 35  1  0
  5 36  1  0
  6 37  1  1
  7 38  1  0
  8 39  1  0
 11 40  1  0
 14 41  1  0
 15 42  1  0
 15 43  1  0
 16 44  1  0
 16 45  1  0
 17 46  1  0
 17 47  1  0
 20 48  1  0
 21 49  1  0
 22 50  1  0
 24 51  1  0
 25 52  1  0
 26 53  1  0
 27 54  1  0
M  ISO  8  29  13  30  13  31  13  32  13  33  13  34  13  35  13  36  13
M  ISO  8  37  13  38  14  39  14  40  14  41   5  42  13  43  13  44  13
M  ISO  8  45  13  46  13  47  13  48  14  49  14  50  14  51  14  52  14
M  ISO  2  53  14  54  14
M  END
>  <minimizedAffinity>  (1) 
-5.14531994

>  <minimizedRMSD>  (1) 
8.40943432

$$$$
