
     RDKit          3D

 44 47  0  0  1  0  0  0  0  0999 V2000
   44.5650   33.5590   41.1630 N   0  0  0  0  0  0  0  0  0  0  0  0
   43.3590   32.8700   40.7850 C   0  0  0  0  0  0  0  0  0  0  0  0
   42.9100   33.1280   39.3920 C   0  0  0  0  0  0  0  0  0  0  0  0
   44.0050   33.3110   38.4050 C   0  0  0  0  0  0  0  0  0  0  0  0
   45.3760   33.0370   38.9220 C   0  0  0  0  0  0  0  0  0  0  0  0
   45.7020   33.6060   40.2770 C   0  0  2  0  0  0  0  0  0  0  0  0
   44.7760   36.0680   43.9170 C   0  0  0  0  0  0  0  0  0  0  0  0
   44.5810   35.5610   42.6370 C   0  0  0  0  0  0  0  0  0  0  0  0
   44.7250   34.2180   42.3990 C   0  0  0  0  0  0  0  0  0  0  0  0
   45.0650   33.4480   43.4810 N   0  0  0  0  0  0  0  0  0  0  0  0
   45.2500   33.9440   44.7060 C   0  0  0  0  0  0  0  0  0  0  0  0
   45.1040   35.2500   44.9200 N   0  0  0  0  0  0  0  0  0  0  0  0
   46.9920   32.4770   40.9450 S   0  0  0  0  0  0  0  0  0  0  0  0
   48.5370   34.5090   40.3270 N   0  0  0  0  0  0  0  0  0  0  0  0
   48.7860   35.5890   41.2480 C   0  0  0  0  0  0  0  0  0  0  0  0
   48.2900   35.0470   42.5640 C   0  0  0  0  0  0  0  0  0  0  0  0
   48.7810   33.6210   42.5350 C   0  0  0  0  0  0  0  0  0  0  0  0
   48.6010   33.2930   41.0190 C   0  0  1  0  0  0  0  0  0  0  0  0
   49.7740   32.4800   40.6680 C   0  0  0  0  0  0  0  0  0  0  0  0
   51.0240   32.3020   41.5460 C   0  0  0  0  0  0  0  0  0  0  0  0
   52.0540   31.2940   40.5250 S   0  0  0  0  0  0  0  0  0  0  0  0
   50.7870   31.2150   39.1100 C   0  0  0  0  0  0  0  0  0  0  0  0
   49.7550   31.8990   39.4740 N   0  0  0  0  0  0  0  0  0  0  0  0
   43.5323   31.7893   40.8950 H   0  0  0  0  0  0  0  0  0  0  0  0
   42.5639   33.2487   41.4441 H   0  0  0  0  0  0  0  0  0  0  0  0
   42.2965   32.2746   39.0673 H   0  0  0  0  0  0  0  0  0  0  0  0
   42.3562   34.0781   39.4177 H   0  0  0  0  0  0  0  0  0  0  0  0
   43.9756   34.3528   38.0530 H   0  0  0  0  0  0  0  0  0  0  0  0
   43.8254   32.5737   37.6087 H   0  0  0  0  0  0  0  0  0  0  0  0
   45.5018   31.9456   38.9773 H   0  0  0  0  0  0  0  0  0  0  0  0
   46.0602   33.5371   38.2207 H   0  0  0  0  0  0  0  0  0  0  0  0
   46.0140   34.6578   40.1976 H   0  0  0  0  0  0  0  0  0  0  0  0
   44.6597   37.1458   44.1037 H   0  0  0  0  0  0  0  0  0  0  0  0
   44.3107   36.2385   41.8136 H   0  0  0  0  0  0  0  0  0  0  0  0
   45.5223   33.2759   45.5364 H   0  0  0  0  0  0  0  0  0  0  0  0
   49.2483   34.5199   39.5822 H   0  0  0  0  0  0  0  0  0  0  0  0
   49.8595   35.8237   41.2984 H   0  0  0  0  0  0  0  0  0  0  0  0
   48.2900   36.5262   40.9552 H   0  0  0  0  0  0  0  0  0  0  0  0
   48.7236   35.5997   43.4105 H   0  0  0  0  0  0  0  0  0  0  0  0
   47.2009   35.1335   42.6916 H   0  0  0  0  0  0  0  0  0  0  0  0
   49.8338   33.5470   42.8449 H   0  0  0  0  0  0  0  0  0  0  0  0
   48.2540   32.9392   43.2187 H   0  0  0  0  0  0  0  0  0  0  0  0
   51.2250   32.7002   42.5515 H   0  0  0  0  0  0  0  0  0  0  0  0
   50.9109   30.6832   38.1551 H   0  0  0  0  0  0  0  0  0  0  0  0
  1  9  1  0
  2  1  1  0
  3  2  1  0
  4  5  1  0
  4  3  1  0
  5  6  1  0
  6 13  1  0
  6  1  1  0
  7 12  2  0
  8  7  1  0
  9  8  2  0
  9 10  1  0
 10 11  2  0
 11 12  1  0
 14 18  1  0
 14 15  1  0
 15 16  1  0
 17 16  1  0
 18 13  1  1
 18 17  1  0
 19 18  1  0
 19 20  2  0
 21 20  1  0
 22 23  2  0
 22 21  1  0
 23 19  1  0
  2 24  1  0
  2 25  1  0
  3 26  1  0
  3 27  1  0
  4 28  1  0
  4 29  1  0
  5 30  1  0
  5 31  1  0
  6 32  1  6
  7 33  1  0
  8 34  1  0
 11 35  1  0
 14 36  1  0
 15 37  1  0
 15 38  1  0
 16 39  1  0
 16 40  1  0
 17 41  1  0
 17 42  1  0
 20 43  1  0
 22 44  1  0
M  ISO  8  24  13  25  13  26  13  27  13  28  13  29  13  30  13  31  13
M  ISO  8  32  13  33  14  34  14  35  14  36   5  37  13  38  13  39  13
M  ISO  5  40  13  41  13  42  13  43  14  44  14
M  END
>  <minimizedAffinity>  (1) 
-5.09377813

>  <minimizedRMSD>  (1) 
4.87634706

$$$$
