
     RDKit          3D

 54 57  0  0  1  0  0  0  0  0999 V2000
   47.5980   33.7700   39.3690 N   0  0  0  0  0  0  0  0  0  0  0  0
   47.9560   34.2350   38.0710 C   0  0  0  0  0  0  0  0  0  0  0  0
   47.9150   33.1950   37.0090 C   0  0  0  0  0  0  0  0  0  0  0  0
   46.8290   32.2040   37.1660 C   0  0  0  0  0  0  0  0  0  0  0  0
   45.8560   32.4710   38.2690 C   0  0  0  0  0  0  0  0  0  0  0  0
   46.4520   32.9250   39.5760 C   0  0  2  0  0  0  0  0  0  0  0  0
   49.4870   33.7030   42.5990 C   0  0  0  0  0  0  0  0  0  0  0  0
   48.7900   33.2320   41.4970 C   0  0  0  0  0  0  0  0  0  0  0  0
   48.3190   34.0970   40.5420 C   0  0  0  0  0  0  0  0  0  0  0  0
   48.5810   35.4230   40.7550 N   0  0  0  0  0  0  0  0  0  0  0  0
   49.2540   35.8700   41.8190 C   0  0  0  0  0  0  0  0  0  0  0  0
   49.7080   35.0120   42.7420 N   0  0  0  0  0  0  0  0  0  0  0  0
   45.1210   33.8960   40.3430 S   0  0  0  0  0  0  0  0  0  0  0  0
   43.0070   33.5270   41.7970 N   0  0  0  0  0  0  0  0  0  0  0  0
   42.1230   32.4070   41.5610 C   0  0  0  0  0  0  0  0  0  0  0  0
   42.9340   31.4620   40.7270 C   0  0  0  0  0  0  0  0  0  0  0  0
   44.3100   31.5740   41.3310 C   0  0  0  0  0  0  0  0  0  0  0  0
   44.3290   33.0960   41.7180 C   0  0  1  0  0  0  0  0  0  0  0  0
   44.9130   33.0440   43.0680 C   0  0  0  0  0  0  0  0  0  0  0  0
   45.7370   34.1980   43.5260 C   0  0  0  0  0  0  0  0  0  0  0  0
   45.8800   34.0330   45.0430 C   0  0  0  0  0  0  0  0  0  0  0  0
   46.8160   32.8340   45.2130 C   0  0  0  0  0  0  0  0  0  0  0  0
   46.0850   31.6280   44.7040 C   0  0  0  0  0  0  0  0  0  0  0  0
   45.8220   31.8290   43.2010 C   0  0  0  0  0  0  0  0  0  0  0  0
   47.2603   35.0396   37.7906 H   0  0  0  0  0  0  0  0  0  0  0  0
   49.0008   34.5725   38.1374 H   0  0  0  0  0  0  0  0  0  0  0  0
   48.8748   32.6576   37.0165 H   0  0  0  0  0  0  0  0  0  0  0  0
   47.7254   33.7210   36.0617 H   0  0  0  0  0  0  0  0  0  0  0  0
   46.2663   32.1682   36.2215 H   0  0  0  0  0  0  0  0  0  0  0  0
   47.3249   31.2580   37.4290 H   0  0  0  0  0  0  0  0  0  0  0  0
   45.1627   33.2527   37.9251 H   0  0  0  0  0  0  0  0  0  0  0  0
   45.3737   31.5054   38.4810 H   0  0  0  0  0  0  0  0  0  0  0  0
   46.7950   32.0763   40.1859 H   0  0  0  0  0  0  0  0  0  0  0  0
   49.8585   32.9973   43.3566 H   0  0  0  0  0  0  0  0  0  0  0  0
   48.6125   32.1520   41.3871 H   0  0  0  0  0  0  0  0  0  0  0  0
   49.4362   36.9483   41.9377 H   0  0  0  0  0  0  0  0  0  0  0  0
   42.8391   34.2533   41.0863 H   0  0  0  0  0  0  0  0  0  0  0  0
   41.8303   31.9352   42.5106 H   0  0  0  0  0  0  0  0  0  0  0  0
   41.1882   32.7076   41.0652 H   0  0  0  0  0  0  0  0  0  0  0  0
   42.9391   31.7708   39.6712 H   0  0  0  0  0  0  0  0  0  0  0  0
   42.5413   30.4345   40.7296 H   0  0  0  0  0  0  0  0  0  0  0  0
   44.4193   30.9287   42.2151 H   0  0  0  0  0  0  0  0  0  0  0  0
   45.1291   31.2592   40.6676 H   0  0  0  0  0  0  0  0  0  0  0  0
   44.0094   33.0295   43.6951 H   0  0  0  0  0  0  0  0  0  0  0  0
   46.7254   34.1783   43.0437 H   0  0  0  0  0  0  0  0  0  0  0  0
   45.2686   35.1586   43.2656 H   0  0  0  0  0  0  0  0  0  0  0  0
   46.3194   34.9358   45.4923 H   0  0  0  0  0  0  0  0  0  0  0  0
   44.9106   33.8799   45.5397 H   0  0  0  0  0  0  0  0  0  0  0  0
   47.7374   32.9894   44.6326 H   0  0  0  0  0  0  0  0  0  0  0  0
   47.0981   32.7042   46.2683 H   0  0  0  0  0  0  0  0  0  0  0  0
   46.6978   30.7276   44.8584 H   0  0  0  0  0  0  0  0  0  0  0  0
   45.1351   31.5014   45.2441 H   0  0  0  0  0  0  0  0  0  0  0  0
   45.3285   30.9400   42.7814 H   0  0  0  0  0  0  0  0  0  0  0  0
   46.7641   31.9811   42.6539 H   0  0  0  0  0  0  0  0  0  0  0  0
  1  6  1  0
  1  9  1  0
  2  1  1  0
  3  4  1  0
  3  2  1  0
  4  5  1  0
  5  6  1  0
  6 13  1  0
  7 12  2  0
  8  7  1  0
  9 10  1  0
  9  8  2  0
 10 11  2  0
 11 12  1  0
 15 14  1  0
 16 17  1  0
 16 15  1  0
 17 18  1  0
 18 13  1  6
 18 14  1  0
 18 19  1  0
 19 24  1  0
 19 20  1  0
 20 21  1  0
 21 22  1  0
 23 22  1  0
 24 23  1  0
  2 25  1  0
  2 26  1  0
  3 27  1  0
  3 28  1  0
  4 29  1  0
  4 30  1  0
  5 31  1  0
  5 32  1  0
  6 33  1  1
  7 34  1  0
  8 35  1  0
 11 36  1  0
 14 37  1  0
 15 38  1  0
 15 39  1  0
 16 40  1  0
 16 41  1  0
 17 42  1  0
 17 43  1  0
 19 44  1  0
 20 45  1  0
 20 46  1  0
 21 47  1  0
 21 48  1  0
 22 49  1  0
 22 50  1  0
 23 51  1  0
 23 52  1  0
 24 53  1  0
 24 54  1  0
M  ISO  8  25  13  26  13  27  13  28  13  29  13  30  13  31  13  32  13
M  ISO  8  33  13  34  14  35  14  36  14  37   5  38  13  39  13  40  13
M  ISO  8  41  13  42  13  43  13  44  13  45  13  46  13  47  13  48  13
M  ISO  6  49  13  50  13  51  13  52  13  53  13  54  13
M  END
>  <minimizedAffinity>  (1) 
-4.98072433

>  <minimizedRMSD>  (1) 
7.29785061

$$$$
