
     RDKit          3D

 45 48  0  0  1  0  0  0  0  0999 V2000
   43.4900   33.6970   41.0460 N   0  0  0  0  0  0  0  0  0  0  0  0
   42.1980   33.0690   41.1050 C   0  0  0  0  0  0  0  0  0  0  0  0
   41.2900   33.4110   39.9760 C   0  0  0  0  0  0  0  0  0  0  0  0
   41.9640   33.5980   38.6700 C   0  0  0  0  0  0  0  0  0  0  0  0
   43.4210   33.2790   38.6410 C   0  0  0  0  0  0  0  0  0  0  0  0
   44.2350   33.7420   39.8100 C   0  0  2  0  0  0  0  0  0  0  0  0
   44.9700   36.0630   43.5210 C   0  0  0  0  0  0  0  0  0  0  0  0
   44.3260   35.6390   42.3600 C   0  0  0  0  0  0  0  0  0  0  0  0
   44.1160   34.2960   42.1570 C   0  0  0  0  0  0  0  0  0  0  0  0
   44.5720   33.4600   43.1420 N   0  0  0  0  0  0  0  0  0  0  0  0
   45.1880   33.8780   44.2480 C   0  0  0  0  0  0  0  0  0  0  0  0
   45.3860   35.1790   44.4360 N   0  0  0  0  0  0  0  0  0  0  0  0
   45.6130   32.5300   39.9370 S   0  0  0  0  0  0  0  0  0  0  0  0
   47.1240   34.6250   40.3970 N   0  0  0  0  0  0  0  0  0  0  0  0
   48.0140   34.6970   41.5250 C   0  0  0  0  0  0  0  0  0  0  0  0
   48.0550   33.2770   42.0310 C   0  0  0  0  0  0  0  0  0  0  0  0
   48.1460   32.4850   40.7490 C   0  0  0  0  0  0  0  0  0  0  0  0
   47.2170   33.3440   39.8300 C   0  0  1  0  0  0  0  0  0  0  0  0
   47.8900   33.3580   38.5330 C   0  0  0  0  0  0  0  0  0  0  0  0
   47.5760   33.7810   37.2350 C   0  0  0  0  0  0  0  0  0  0  0  0
   48.6020   33.4520   36.4120 N   0  0  0  0  0  0  0  0  0  0  0  0
   49.5330   32.8390   37.1760 C   0  0  0  0  0  0  0  0  0  0  0  0
   49.1290   32.7670   38.4650 N   0  0  0  0  0  0  0  0  0  0  0  0
   42.3462   31.9790   41.1079 H   0  0  0  0  0  0  0  0  0  0  0  0
   41.7122   33.4411   42.0191 H   0  0  0  0  0  0  0  0  0  0  0  0
   40.5563   32.5984   39.8690 H   0  0  0  0  0  0  0  0  0  0  0  0
   40.8327   34.3788   40.2293 H   0  0  0  0  0  0  0  0  0  0  0  0
   41.4620   32.9513   37.9353 H   0  0  0  0  0  0  0  0  0  0  0  0
   41.8883   34.6721   38.4453 H   0  0  0  0  0  0  0  0  0  0  0  0
   43.5215   32.1855   38.5772 H   0  0  0  0  0  0  0  0  0  0  0  0
   43.8198   33.8286   37.7756 H   0  0  0  0  0  0  0  0  0  0  0  0
   44.5582   34.7826   39.6594 H   0  0  0  0  0  0  0  0  0  0  0  0
   45.1385   37.1372   43.6874 H   0  0  0  0  0  0  0  0  0  0  0  0
   43.9888   36.3726   41.6129 H   0  0  0  0  0  0  0  0  0  0  0  0
   45.5300   33.1514   44.9997 H   0  0  0  0  0  0  0  0  0  0  0  0
   46.1570   34.7972   40.7072 H   0  0  0  0  0  0  0  0  0  0  0  0
   49.0146   35.0334   41.2157 H   0  0  0  0  0  0  0  0  0  0  0  0
   47.6809   35.4150   42.2889 H   0  0  0  0  0  0  0  0  0  0  0  0
   48.9347   33.1060   42.6689 H   0  0  0  0  0  0  0  0  0  0  0  0
   47.1924   33.0061   42.6575 H   0  0  0  0  0  0  0  0  0  0  0  0
   49.1763   32.4465   40.3656 H   0  0  0  0  0  0  0  0  0  0  0  0
   47.8585   31.4269   40.8376 H   0  0  0  0  0  0  0  0  0  0  0  0
   46.6511   34.2945   36.9337 H   0  0  0  0  0  0  0  0  0  0  0  0
   50.4910   32.4506   36.8001 H   0  0  0  0  0  0  0  0  0  0  0  0
   49.6513   32.3483   39.2478 H   0  0  0  0  0  0  0  0  0  0  0  0
  1  2  1  0
  1  9  1  0
  3  2  1  0
  4  3  1  0
  5  4  1  0
  5  6  1  0
  6 13  1  0
  6  1  1  0
  7 12  2  0
  8  7  1  0
  9  8  2  0
  9 10  1  0
 10 11  2  0
 11 12  1  0
 14 15  1  0
 15 16  1  0
 17 16  1  0
 18 13  1  6
 18 14  1  0
 18 17  1  0
 19 18  1  0
 20 19  2  0
 21 22  2  0
 21 20  1  0
 22 23  1  0
 23 19  1  0
  2 24  1  0
  2 25  1  0
  3 26  1  0
  3 27  1  0
  4 28  1  0
  4 29  1  0
  5 30  1  0
  5 31  1  0
  6 32  1  6
  7 33  1  0
  8 34  1  0
 11 35  1  0
 14 36  1  0
 15 37  1  0
 15 38  1  0
 16 39  1  0
 16 40  1  0
 17 41  1  0
 17 42  1  0
 20 43  1  0
 22 44  1  0
 23 45  1  0
M  ISO  8  24  13  25  13  26  13  27  13  28  13  29  13  30  13  31  13
M  ISO  8  32  13  33  14  34  14  35  14  36   5  37  13  38  13  39  13
M  ISO  6  40  13  41  13  42  13  43  14  44  14  45   9
M  END
>  <minimizedAffinity>  (1) 
-4.8061595

>  <minimizedRMSD>  (1) 
4.64791489

$$$$
