
     RDKit          3D

 53 56  0  0  1  0  0  0  0  0999 V2000
   47.6120   33.9400   41.2370 N   0  0  0  0  0  0  0  0  0  0  0  0
   47.0840   35.1270   41.8090 C   0  0  0  0  0  0  0  0  0  0  0  0
   46.2460   34.9030   43.0280 C   0  0  0  0  0  0  0  0  0  0  0  0
   46.6800   33.7450   43.8940 C   0  0  0  0  0  0  0  0  0  0  0  0
   48.0140   33.1980   43.5240 C   0  0  0  0  0  0  0  0  0  0  0  0
   48.2110   32.9110   42.0540 C   0  0  2  0  0  0  0  0  0  0  0  0
   47.0840   32.4560   37.8350 C   0  0  0  0  0  0  0  0  0  0  0  0
   47.0030   32.5870   39.2190 C   0  0  0  0  0  0  0  0  0  0  0  0
   47.6000   33.6570   39.8430 C   0  0  0  0  0  0  0  0  0  0  0  0
   48.2550   34.5470   39.0300 N   0  0  0  0  0  0  0  0  0  0  0  0
   48.3250   34.4080   37.7060 C   0  0  0  0  0  0  0  0  0  0  0  0
   47.7400   33.3640   37.1090 N   0  0  0  0  0  0  0  0  0  0  0  0
   50.0200   32.9420   41.8210 S   0  0  0  0  0  0  0  0  0  0  0  0
   51.6090   31.0600   42.7300 N   0  0  0  0  0  0  0  0  0  0  0  0
   51.1140   29.9780   43.5570 C   0  0  0  0  0  0  0  0  0  0  0  0
   49.6190   30.0790   43.4080 C   0  0  0  0  0  0  0  0  0  0  0  0
   49.4800   30.3480   41.9110 C   0  0  0  0  0  0  0  0  0  0  0  0
   50.7010   31.2620   41.6770 C   0  0  1  0  0  0  0  0  0  0  0  0
   51.3090   30.9580   40.4160 N   0  0  0  0  0  0  0  0  0  0  0  0
   50.5110   31.6100   39.3610 C   0  0  0  0  0  0  0  0  0  0  0  0
   50.9490   31.2210   37.9810 C   0  0  0  0  0  0  0  0  0  0  0  0
   52.3510   31.8240   37.8070 C   0  0  0  0  0  0  0  0  0  0  0  0
   53.1950   31.1870   38.8540 C   0  0  0  0  0  0  0  0  0  0  0  0
   52.6630   31.3540   40.2530 C   0  0  0  0  0  0  0  0  0  0  0  0
   47.9250   35.7804   42.0844 H   0  0  0  0  0  0  0  0  0  0  0  0
   46.4245   35.5755   41.0514 H   0  0  0  0  0  0  0  0  0  0  0  0
   46.2795   35.8175   43.6384 H   0  0  0  0  0  0  0  0  0  0  0  0
   45.2364   34.6569   42.6672 H   0  0  0  0  0  0  0  0  0  0  0  0
   46.7208   34.0869   44.9387 H   0  0  0  0  0  0  0  0  0  0  0  0
   45.9465   32.9382   43.7491 H   0  0  0  0  0  0  0  0  0  0  0  0
   48.7775   33.9272   43.8328 H   0  0  0  0  0  0  0  0  0  0  0  0
   48.0968   32.2280   44.0362 H   0  0  0  0  0  0  0  0  0  0  0  0
   47.7476   31.9565   41.7638 H   0  0  0  0  0  0  0  0  0  0  0  0
   46.6049   31.5999   37.3374 H   0  0  0  0  0  0  0  0  0  0  0  0
   46.4620   31.8353   39.8125 H   0  0  0  0  0  0  0  0  0  0  0  0
   48.8649   35.1533   37.1035 H   0  0  0  0  0  0  0  0  0  0  0  0
   51.6876   31.9197   43.2918 H   0  0  0  0  0  0  0  0  0  0  0  0
   51.4807   29.0063   43.1945 H   0  0  0  0  0  0  0  0  0  0  0  0
   51.4467   30.0508   44.6029 H   0  0  0  0  0  0  0  0  0  0  0  0
   49.1222   29.1407   43.6955 H   0  0  0  0  0  0  0  0  0  0  0  0
   49.1553   30.8454   44.0465 H   0  0  0  0  0  0  0  0  0  0  0  0
   49.5480   29.4206   41.3234 H   0  0  0  0  0  0  0  0  0  0  0  0
   48.5158   30.7840   41.6104 H   0  0  0  0  0  0  0  0  0  0  0  0
   49.4567   31.3237   39.4895 H   0  0  0  0  0  0  0  0  0  0  0  0
   50.6524   32.6963   39.4608 H   0  0  0  0  0  0  0  0  0  0  0  0
   50.9874   30.1259   37.8848 H   0  0  0  0  0  0  0  0  0  0  0  0
   50.2505   31.5870   37.2141 H   0  0  0  0  0  0  0  0  0  0  0  0
   52.7450   31.5964   36.8055 H   0  0  0  0  0  0  0  0  0  0  0  0
   52.3375   32.9194   37.9067 H   0  0  0  0  0  0  0  0  0  0  0  0
   53.2638   30.1110   38.6359 H   0  0  0  0  0  0  0  0  0  0  0  0
   54.1738   31.6881   38.8231 H   0  0  0  0  0  0  0  0  0  0  0  0
   53.2826   30.7491   40.9314 H   0  0  0  0  0  0  0  0  0  0  0  0
   52.7053   32.4297   40.4790 H   0  0  0  0  0  0  0  0  0  0  0  0
  1  2  1  0
  1  6  1  0
  2  3  1  0
  3  4  1  0
  5  4  1  0
  6  5  1  0
  7  8  2  0
  8  9  1  0
  9  1  1  0
 10  9  2  0
 11 10  1  0
 12 11  2  0
 12  7  1  0
 13  6  1  0
 14 15  1  0
 16 15  1  0
 17 16  1  0
 18 13  1  6
 18 17  1  0
 18 14  1  0
 19 18  1  0
 20 19  1  0
 21 20  1  0
 22 21  1  0
 22 23  1  0
 23 24  1  0
 24 19  1  0
  2 25  1  0
  2 26  1  0
  3 27  1  0
  3 28  1  0
  4 29  1  0
  4 30  1  0
  5 31  1  0
  5 32  1  0
  6 33  1  6
  7 34  1  0
  8 35  1  0
 11 36  1  0
 14 37  1  0
 15 38  1  0
 15 39  1  0
 16 40  1  0
 16 41  1  0
 17 42  1  0
 17 43  1  0
 20 44  1  0
 20 45  1  0
 21 46  1  0
 21 47  1  0
 22 48  1  0
 22 49  1  0
 23 50  1  0
 23 51  1  0
 24 52  1  0
 24 53  1  0
M  ISO  8  25  13  26  13  27  13  28  13  29  13  30  13  31  13  32  13
M  ISO  8  33  13  34  14  35  14  36  14  37   5  38  13  39  13  40  13
M  ISO  8  41  13  42  13  43  13  44  13  45  13  46  13  47  13  48  13
M  ISO  5  49  13  50  13  51  13  52  13  53  13
M  END
>  <minimizedAffinity>  (1) 
-4.69598627

>  <minimizedRMSD>  (1) 
4.86827087

$$$$
