
     RDKit          3D

 39 41  0  0  1  0  0  0  0  0999 V2000
   47.5330   33.2390   39.6470 N   0  0  0  0  0  0  0  0  0  0  0  0
   46.1920   32.7820   39.8450 C   0  0  0  0  0  0  0  0  0  0  0  0
   45.2790   33.0150   38.6930 C   0  0  0  0  0  0  0  0  0  0  0  0
   45.9380   32.9860   37.3410 C   0  0  0  0  0  0  0  0  0  0  0  0
   47.3160   32.4200   37.3490 C   0  0  0  0  0  0  0  0  0  0  0  0
   48.2130   32.9540   38.4210 C   0  0  2  0  0  0  0  0  0  0  0  0
   49.2670   35.8460   41.6890 C   0  0  0  0  0  0  0  0  0  0  0  0
   48.5110   35.3040   40.6520 C   0  0  0  0  0  0  0  0  0  0  0  0
   48.2820   33.9370   40.6300 C   0  0  0  0  0  0  0  0  0  0  0  0
   48.8300   33.1790   41.6460 N   0  0  0  0  0  0  0  0  0  0  0  0
   49.5730   33.7350   42.6200 C   0  0  0  0  0  0  0  0  0  0  0  0
   49.7830   35.0550   42.6480 N   0  0  0  0  0  0  0  0  0  0  0  0
   49.5040   31.6870   38.7160 S   0  0  0  0  0  0  0  0  0  0  0  0
   51.8690   32.4200   37.8510 N   0  0  0  0  0  0  0  0  0  0  0  0
   53.0000   31.5320   37.8790 C   0  0  0  0  0  0  0  0  0  0  0  0
   52.3710   30.1730   38.1310 C   0  0  0  0  0  0  0  0  0  0  0  0
   51.1680   30.2420   37.1970 C   0  0  0  0  0  0  0  0  0  0  0  0
   50.7280   31.6720   37.3940 C   0  0  1  0  0  0  0  0  0  0  0  0
   50.2180   32.1200   36.1890 O   0  0  0  0  0  0  0  0  0  0  0  0
   46.2244   31.7005   40.0432 H   0  0  0  0  0  0  0  0  0  0  0  0
   45.7863   33.3642   40.6855 H   0  0  0  0  0  0  0  0  0  0  0  0
   44.5025   32.2360   38.7105 H   0  0  0  0  0  0  0  0  0  0  0  0
   44.8810   34.0328   38.8183 H   0  0  0  0  0  0  0  0  0  0  0  0
   45.9898   34.0165   36.9596 H   0  0  0  0  0  0  0  0  0  0  0  0
   45.3281   32.3281   36.7045 H   0  0  0  0  0  0  0  0  0  0  0  0
   47.2367   31.3309   37.4816 H   0  0  0  0  0  0  0  0  0  0  0  0
   47.7735   32.7115   36.3921 H   0  0  0  0  0  0  0  0  0  0  0  0
   48.6313   33.9127   38.0805 H   0  0  0  0  0  0  0  0  0  0  0  0
   49.4440   36.9311   41.7244 H   0  0  0  0  0  0  0  0  0  0  0  0
   48.1018   35.9512   39.8623 H   0  0  0  0  0  0  0  0  0  0  0  0
   50.0121   33.0971   43.4012 H   0  0  0  0  0  0  0  0  0  0  0  0
   51.6900   32.7880   38.7962 H   0  0  0  0  0  0  0  0  0  0  0  0
   53.5360   31.5461   36.9185 H   0  0  0  0  0  0  0  0  0  0  0  0
   53.7458   31.8087   38.6388 H   0  0  0  0  0  0  0  0  0  0  0  0
   53.0516   29.3538   37.8557 H   0  0  0  0  0  0  0  0  0  0  0  0
   52.1215   29.9730   39.1835 H   0  0  0  0  0  0  0  0  0  0  0  0
   50.3825   29.5331   37.4978 H   0  0  0  0  0  0  0  0  0  0  0  0
   51.3904   29.9771   36.1528 H   0  0  0  0  0  0  0  0  0  0  0  0
   49.4853   32.7636   36.3596 H   0  0  0  0  0  0  0  0  0  0  0  0
  1  2  1  0
  1  9  1  0
  3  2  1  0
  4  5  1  0
  4  3  1  0
  5  6  1  0
  6 13  1  0
  6  1  1  0
  7 12  2  0
  8  7  1  0
  9  8  2  0
  9 10  1  0
 10 11  2  0
 11 12  1  0
 14 15  1  0
 15 16  1  0
 17 18  1  0
 17 16  1  0
 18 19  1  6
 18 14  1  0
 18 13  1  0
  2 20  1  0
  2 21  1  0
  3 22  1  0
  3 23  1  0
  4 24  1  0
  4 25  1  0
  5 26  1  0
  5 27  1  0
  6 28  1  6
  7 29  1  0
  8 30  1  0
 11 31  1  0
 14 32  1  0
 15 33  1  0
 15 34  1  0
 16 35  1  0
 16 36  1  0
 17 37  1  0
 17 38  1  0
 19 39  1  0
M  ISO  8  20  13  21  13  22  13  23  13  24  13  25  13  26  13  27  13
M  ISO  8  28  13  29  14  30  14  31  14  32   5  33  13  34  13  35  13
M  ISO  4  36  13  37  13  38  13  39   3
M  END
>  <minimizedAffinity>  (1) 
-4.63094759

>  <minimizedRMSD>  (1) 
0.369239688

$$$$
