
     RDKit          3D

 43 46  0  0  1  0  0  0  0  0999 V2000
   46.9930   33.3440   40.1190 N   0  0  0  0  0  0  0  0  0  0  0  0
   45.6800   32.9960   40.6050 C   0  0  0  0  0  0  0  0  0  0  0  0
   44.5830   33.2670   39.6290 C   0  0  0  0  0  0  0  0  0  0  0  0
   44.9510   33.0630   38.1990 C   0  0  0  0  0  0  0  0  0  0  0  0
   46.2730   32.4010   37.9960 C   0  0  0  0  0  0  0  0  0  0  0  0
   47.4130   33.0000   38.7860 C   0  0  2  0  0  0  0  0  0  0  0  0
   49.3160   35.8500   41.6180 C   0  0  0  0  0  0  0  0  0  0  0  0
   48.3580   35.3290   40.7400 C   0  0  0  0  0  0  0  0  0  0  0  0
   47.9440   34.0300   40.9110 C   0  0  0  0  0  0  0  0  0  0  0  0
   48.5130   33.3280   41.9490 N   0  0  0  0  0  0  0  0  0  0  0  0
   49.4250   33.8460   42.7730 C   0  0  0  0  0  0  0  0  0  0  0  0
   49.8250   35.1040   42.6060 N   0  0  0  0  0  0  0  0  0  0  0  0
   48.6240   31.6280   38.8980 S   0  0  0  0  0  0  0  0  0  0  0  0
   50.8020   32.5070   37.7550 N   0  0  0  0  0  0  0  0  0  0  0  0
   52.0380   31.7670   37.7550 C   0  0  0  0  0  0  0  0  0  0  0  0
   51.6190   30.3940   38.2580 C   0  0  0  0  0  0  0  0  0  0  0  0
   50.3410   30.1700   37.4890 C   0  0  0  0  0  0  0  0  0  0  0  0
   49.7490   31.6060   37.5010 C   0  0  1  0  0  0  0  0  0  0  0  0
   49.1930   31.8550   36.1640 C   0  0  0  0  0  0  0  0  0  0  0  0
   49.0050   30.7980   35.3430 N   0  0  0  0  0  0  0  0  0  0  0  0
   48.5140   31.2300   34.2390 O   0  0  0  0  0  0  0  0  0  0  0  0
   48.3570   32.5230   34.2620 C   0  0  0  0  0  0  0  0  0  0  0  0
   48.7810   32.9670   35.4820 N   0  0  0  0  0  0  0  0  0  0  0  0
   45.6727   31.9226   40.8452 H   0  0  0  0  0  0  0  0  0  0  0  0
   45.4875   33.6267   41.4854 H   0  0  0  0  0  0  0  0  0  0  0  0
   43.7428   32.5972   39.8646 H   0  0  0  0  0  0  0  0  0  0  0  0
   44.3327   34.3330   39.7342 H   0  0  0  0  0  0  0  0  0  0  0  0
   44.1768   32.4386   37.7292 H   0  0  0  0  0  0  0  0  0  0  0  0
   45.0252   34.0626   37.7460 H   0  0  0  0  0  0  0  0  0  0  0  0
   46.1742   31.3446   38.2863 H   0  0  0  0  0  0  0  0  0  0  0  0
   46.5273   32.5393   36.9348 H   0  0  0  0  0  0  0  0  0  0  0  0
   47.8029   33.9153   38.3168 H   0  0  0  0  0  0  0  0  0  0  0  0
   49.6558   36.8888   41.4940 H   0  0  0  0  0  0  0  0  0  0  0  0
   47.9449   35.9473   39.9294 H   0  0  0  0  0  0  0  0  0  0  0  0
   49.8444   33.2361   43.5867 H   0  0  0  0  0  0  0  0  0  0  0  0
   50.6639   32.9550   38.6721 H   0  0  0  0  0  0  0  0  0  0  0  0
   52.4604   31.7040   36.7413 H   0  0  0  0  0  0  0  0  0  0  0  0
   52.8205   32.2329   38.3719 H   0  0  0  0  0  0  0  0  0  0  0  0
   52.3727   29.6301   38.0163 H   0  0  0  0  0  0  0  0  0  0  0  0
   51.5023   30.3325   39.3501 H   0  0  0  0  0  0  0  0  0  0  0  0
   49.6801   29.4539   37.9992 H   0  0  0  0  0  0  0  0  0  0  0  0
   50.4785   29.7389   36.4864 H   0  0  0  0  0  0  0  0  0  0  0  0
   47.9560   33.1440   33.4474 H   0  0  0  0  0  0  0  0  0  0  0  0
  1  2  1  0
  1  9  1  0
  3  2  1  0
  4  3  1  0
  5  4  1  0
  5  6  1  0
  6 13  1  0
  6  1  1  0
  7 12  2  0
  8  9  2  0
  8  7  1  0
  9 10  1  0
 10 11  2  0
 12 11  1  0
 15 14  1  0
 15 16  1  0
 17 18  1  0
 17 16  1  0
 18 14  1  0
 18 13  1  1
 19 18  1  0
 20 19  2  0
 21 22  1  0
 21 20  1  0
 22 23  2  0
 23 19  1  0
  2 24  1  0
  2 25  1  0
  3 26  1  0
  3 27  1  0
  4 28  1  0
  4 29  1  0
  5 30  1  0
  5 31  1  0
  6 32  1  6
  7 33  1  0
  8 34  1  0
 11 35  1  0
 14 36  1  0
 15 37  1  0
 15 38  1  0
 16 39  1  0
 16 40  1  0
 17 41  1  0
 17 42  1  0
 22 43  1  0
M  ISO  8  24  13  25  13  26  13  27  13  28  13  29  13  30  13  31  13
M  ISO  8  32  13  33  14  34  14  35  14  36   5  37  13  38  13  39  13
M  ISO  4  40  13  41  13  42  13  43  14
M  END
>  <minimizedAffinity>  (1) 
-4.54832554

>  <minimizedRMSD>  (1) 
1.29765844

$$$$
