
     RDKit          3D

 47 50  0  0  1  0  0  0  0  0999 V2000
   46.7720   33.3540   39.9780 N   0  0  0  0  0  0  0  0  0  0  0  0
   45.4350   33.0280   40.3680 C   0  0  0  0  0  0  0  0  0  0  0  0
   44.3970   33.3110   39.3440 C   0  0  0  0  0  0  0  0  0  0  0  0
   44.8380   33.1330   37.9350 C   0  0  0  0  0  0  0  0  0  0  0  0
   46.1930   32.5230   37.7510 C   0  0  0  0  0  0  0  0  0  0  0  0
   47.2720   33.0140   38.6670 C   0  0  2  0  0  0  0  0  0  0  0  0
   49.2110   35.7270   41.5130 C   0  0  0  0  0  0  0  0  0  0  0  0
   48.3240   35.2060   40.5800 C   0  0  0  0  0  0  0  0  0  0  0  0
   47.6920   34.0130   40.8230 C   0  0  0  0  0  0  0  0  0  0  0  0
   47.9950   33.4040   42.0110 N   0  0  0  0  0  0  0  0  0  0  0  0
   48.8500   33.9100   42.9020 C   0  0  0  0  0  0  0  0  0  0  0  0
   49.4560   35.0720   42.6500 N   0  0  0  0  0  0  0  0  0  0  0  0
   48.4220   31.5880   38.8550 S   0  0  0  0  0  0  0  0  0  0  0  0
   50.5290   32.4540   37.5400 N   0  0  0  0  0  0  0  0  0  0  0  0
   51.8180   31.8100   37.6820 C   0  0  0  0  0  0  0  0  0  0  0  0
   51.4920   30.4910   38.3330 C   0  0  0  0  0  0  0  0  0  0  0  0
   50.2300   30.0760   37.6180 C   0  0  0  0  0  0  0  0  0  0  0  0
   49.5420   31.4670   37.4450 C   0  0  1  0  0  0  0  0  0  0  0  0
   48.9290   31.4100   36.1180 C   0  0  0  0  0  0  0  0  0  0  0  0
   48.3560   30.2730   35.5350 C   0  0  0  0  0  0  0  0  0  0  0  0
   47.8710   30.3990   34.2390 C   0  0  0  0  0  0  0  0  0  0  0  0
   47.9820   31.6340   33.6040 C   0  0  0  0  0  0  0  0  0  0  0  0
   48.5540   32.7410   34.2080 C   0  0  0  0  0  0  0  0  0  0  0  0
   49.0220   32.6150   35.4630 N   0  0  0  0  0  0  0  0  0  0  0  0
   45.3999   31.9538   40.6020 H   0  0  0  0  0  0  0  0  0  0  0  0
   45.2004   33.6700   41.2299 H   0  0  0  0  0  0  0  0  0  0  0  0
   43.5477   32.6354   39.5235 H   0  0  0  0  0  0  0  0  0  0  0  0
   44.1400   34.3750   39.4532 H   0  0  0  0  0  0  0  0  0  0  0  0
   44.1049   32.4864   37.4305 H   0  0  0  0  0  0  0  0  0  0  0  0
   44.9052   34.1460   37.5115 H   0  0  0  0  0  0  0  0  0  0  0  0
   46.0949   31.4376   37.9002 H   0  0  0  0  0  0  0  0  0  0  0  0
   46.5114   32.8155   36.7395 H   0  0  0  0  0  0  0  0  0  0  0  0
   47.7345   33.9207   38.2498 H   0  0  0  0  0  0  0  0  0  0  0  0
   49.7144   36.6846   41.3140 H   0  0  0  0  0  0  0  0  0  0  0  0
   48.1279   35.7508   39.6447 H   0  0  0  0  0  0  0  0  0  0  0  0
   49.0542   33.3720   43.8395 H   0  0  0  0  0  0  0  0  0  0  0  0
   50.3465   33.0487   38.3609 H   0  0  0  0  0  0  0  0  0  0  0  0
   52.2894   31.6563   36.7001 H   0  0  0  0  0  0  0  0  0  0  0  0
   52.5301   32.4090   38.2686 H   0  0  0  0  0  0  0  0  0  0  0  0
   52.2978   29.7594   38.1738 H   0  0  0  0  0  0  0  0  0  0  0  0
   51.3752   30.5582   39.4247 H   0  0  0  0  0  0  0  0  0  0  0  0
   50.4472   29.6052   36.6479 H   0  0  0  0  0  0  0  0  0  0  0  0
   49.6255   29.3242   38.1466 H   0  0  0  0  0  0  0  0  0  0  0  0
   48.2925   29.3198   36.0803 H   0  0  0  0  0  0  0  0  0  0  0  0
   47.4096   29.5425   33.7257 H   0  0  0  0  0  0  0  0  0  0  0  0
   47.5985   31.7342   32.5779 H   0  0  0  0  0  0  0  0  0  0  0  0
   48.6241   33.7004   33.6745 H   0  0  0  0  0  0  0  0  0  0  0  0
  1  2  1  0
  1  9  1  0
  3  2  1  0
  4  3  1  0
  5  4  1  0
  5  6  1  0
  6 13  1  0
  6  1  1  0
  7 12  2  0
  8  9  2  0
  8  7  1  0
  9 10  1  0
 10 11  2  0
 12 11  1  0
 14 15  1  0
 15 16  1  0
 17 16  1  0
 18 14  1  0
 18 17  1  0
 18 13  1  1
 19 18  1  0
 20 19  2  0
 21 20  1  0
 22 23  1  0
 22 21  2  0
 23 24  2  0
 24 19  1  0
  2 25  1  0
  2 26  1  0
  3 27  1  0
  3 28  1  0
  4 29  1  0
  4 30  1  0
  5 31  1  0
  5 32  1  0
  6 33  1  6
  7 34  1  0
  8 35  1  0
 11 36  1  0
 14 37  1  0
 15 38  1  0
 15 39  1  0
 16 40  1  0
 16 41  1  0
 17 42  1  0
 17 43  1  0
 20 44  1  0
 21 45  1  0
 22 46  1  0
 23 47  1  0
M  ISO  8  25  13  26  13  27  13  28  13  29  13  30  13  31  13  32  13
M  ISO  8  33  13  34  14  35  14  36  14  37   5  38  13  39  13  40  13
M  ISO  7  41  13  42  13  43  13  44  14  45  14  46  14  47  14
M  END
>  <minimizedAffinity>  (1) 
-4.5476346

>  <minimizedRMSD>  (1) 
1.44459522

$$$$
