
     RDKit          3D

 25 27  0  0  1  0  0  0  0  0999 V2000
   45.0740   34.2060   42.8170 C   0  0  1  0  0  0  0  0  0  0  0  0
   45.6830   35.6080   42.7850 C   0  0  0  0  0  0  0  0  0  0  0  0
   46.0710   34.5520   41.7960 C   0  0  1  0  0  0  0  0  0  0  0  0
   45.8530   33.2210   46.3490 C   0  0  0  0  0  0  0  0  0  0  0  0
   45.5150   34.0260   45.2410 C   0  0  0  0  0  0  0  0  0  0  0  0
   45.4430   33.4000   44.0120 C   0  0  0  0  0  0  0  0  0  0  0  0
   45.7010   32.0620   43.9550 N   0  0  0  0  0  0  0  0  0  0  0  0
   46.0190   31.3130   45.0150 C   0  0  0  0  0  0  0  0  0  0  0  0
   46.0940   31.8980   46.2090 N   0  0  0  0  0  0  0  0  0  0  0  0
   47.5010   34.1770   41.8780 C   0  0  0  0  0  0  0  0  0  0  0  0
   48.3640   35.1810   42.3290 C   0  0  0  0  0  0  0  0  0  0  0  0
   49.7400   34.9950   42.4780 C   0  0  0  0  0  0  0  0  0  0  0  0
   50.2770   33.8020   42.1760 N   0  0  0  0  0  0  0  0  0  0  0  0
   49.4420   32.8390   41.7430 C   0  0  0  0  0  0  0  0  0  0  0  0
   48.1430   33.0340   41.6100 N   0  0  0  0  0  0  0  0  0  0  0  0
   44.0768   33.7463   42.7516 H   0  0  0  0  0  0  0  0  0  0  0  0
   45.0770   36.4697   42.4684 H   0  0  0  0  0  0  0  0  0  0  0  0
   46.2147   36.2540   43.4992 H   0  0  0  0  0  0  0  0  0  0  0  0
   46.0496   34.3855   40.7089 H   0  0  0  0  0  0  0  0  0  0  0  0
   45.9219   33.6788   47.3468 H   0  0  0  0  0  0  0  0  0  0  0  0
   45.3179   35.1026   45.3508 H   0  0  0  0  0  0  0  0  0  0  0  0
   46.2146   30.2363   44.9037 H   0  0  0  0  0  0  0  0  0  0  0  0
   47.9385   36.1643   42.5783 H   0  0  0  0  0  0  0  0  0  0  0  0
   50.3766   35.8164   42.8386 H   0  0  0  0  0  0  0  0  0  0  0  0
   49.8576   31.8524   41.4904 H   0  0  0  0  0  0  0  0  0  0  0  0
  1  6  1  0
  2  1  1  0
  3 10  1  0
  3  2  1  0
  3  1  1  0
  5  4  2  0
  6  5  1  0
  7  6  2  0
  7  8  1  0
  8  9  2  0
  9  4  1  0
 10 11  2  0
 11 12  1  0
 13 12  2  0
 14 13  1  0
 15 14  2  0
 15 10  1  0
  1 16  1  6
  2 17  1  0
  2 18  1  0
  3 19  1  6
  4 20  1  0
  5 21  1  0
  8 22  1  0
 11 23  1  0
 12 24  1  0
 14 25  1  0
M  ISO  8  16  13  17  13  18  13  19  13  20  14  21  14  22  14  23  14
M  ISO  2  24  14  25  14
M  END
>  <minimizedAffinity>  (1) 
-4.2042017

>  <minimizedRMSD>  (1) 
2.84955025

$$$$
