
     RDKit          3D

 51 54  0  0  1  0  0  0  0  0999 V2000
   46.8330   33.0910   39.7450 N   0  0  0  0  0  0  0  0  0  0  0  0
   45.5000   32.8750   40.2240 C   0  0  0  0  0  0  0  0  0  0  0  0
   44.4310   33.3520   39.3080 C   0  0  0  0  0  0  0  0  0  0  0  0
   44.7270   33.1870   37.8610 C   0  0  0  0  0  0  0  0  0  0  0  0
   45.9960   32.4770   37.5290 C   0  0  0  0  0  0  0  0  0  0  0  0
   47.1910   32.7920   38.3830 C   0  0  2  0  0  0  0  0  0  0  0  0
   49.2380   35.2570   41.6130 C   0  0  0  0  0  0  0  0  0  0  0  0
   48.1610   34.9210   40.8060 C   0  0  0  0  0  0  0  0  0  0  0  0
   47.8820   33.6010   40.5380 C   0  0  0  0  0  0  0  0  0  0  0  0
   48.7240   32.6850   41.1140 N   0  0  0  0  0  0  0  0  0  0  0  0
   49.7600   33.0160   41.8900 C   0  0  0  0  0  0  0  0  0  0  0  0
   50.0140   34.3050   42.1380 N   0  0  0  0  0  0  0  0  0  0  0  0
   48.2140   31.2720   38.3630 S   0  0  0  0  0  0  0  0  0  0  0  0
   50.3880   32.5190   37.6350 N   0  0  0  0  0  0  0  0  0  0  0  0
   51.7050   32.0440   37.9380 C   0  0  0  0  0  0  0  0  0  0  0  0
   51.4530   30.6390   38.4260 C   0  0  0  0  0  0  0  0  0  0  0  0
   50.4340   30.1480   37.4240 C   0  0  0  0  0  0  0  0  0  0  0  0
   49.5760   31.3950   37.2190 C   0  0  1  0  0  0  0  0  0  0  0  0
   49.2650   31.5770   35.8640 N   0  0  0  0  0  0  0  0  0  0  0  0
   48.7610   32.7920   35.3700 C   0  0  0  0  0  0  0  0  0  0  0  0
   48.5060   32.5720   33.8660 C   0  0  0  0  0  0  0  0  0  0  0  0
   47.3460   31.8050   33.7820 O   0  0  0  0  0  0  0  0  0  0  0  0
   47.3000   30.8150   34.7290 C   0  0  0  0  0  0  0  0  0  0  0  0
   48.7120   30.4420   35.1910 C   0  0  0  0  0  0  0  0  0  0  0  0
   45.3619   31.7950   40.3803 H   0  0  0  0  0  0  0  0  0  0  0  0
   45.4019   33.4597   41.1506 H   0  0  0  0  0  0  0  0  0  0  0  0
   43.5118   32.7920   39.5347 H   0  0  0  0  0  0  0  0  0  0  0  0
   44.3359   34.4340   39.4819 H   0  0  0  0  0  0  0  0  0  0  0  0
   43.8977   32.6221   37.4103 H   0  0  0  0  0  0  0  0  0  0  0  0
   44.8457   34.2063   37.4649 H   0  0  0  0  0  0  0  0  0  0  0  0
   45.8042   31.3969   37.6102 H   0  0  0  0  0  0  0  0  0  0  0  0
   46.2640   32.8227   36.5197 H   0  0  0  0  0  0  0  0  0  0  0  0
   47.7096   33.6796   37.9916 H   0  0  0  0  0  0  0  0  0  0  0  0
   49.4546   36.3150   41.8221 H   0  0  0  0  0  0  0  0  0  0  0  0
   47.5280   35.7128   40.3789 H   0  0  0  0  0  0  0  0  0  0  0  0
   50.4001   32.2328   42.3222 H   0  0  0  0  0  0  0  0  0  0  0  0
   49.9750   32.9544   38.4721 H   0  0  0  0  0  0  0  0  0  0  0  0
   52.3414   32.0431   37.0408 H   0  0  0  0  0  0  0  0  0  0  0  0
   52.2343   32.6700   38.6714 H   0  0  0  0  0  0  0  0  0  0  0  0
   52.3704   30.0328   38.3955 H   0  0  0  0  0  0  0  0  0  0  0  0
   51.1162   30.5819   39.4716 H   0  0  0  0  0  0  0  0  0  0  0  0
   50.9138   29.8327   36.4857 H   0  0  0  0  0  0  0  0  0  0  0  0
   49.8677   29.2662   37.7584 H   0  0  0  0  0  0  0  0  0  0  0  0
   47.8227   33.0518   35.8818 H   0  0  0  0  0  0  0  0  0  0  0  0
   49.4675   33.6178   35.5402 H   0  0  0  0  0  0  0  0  0  0  0  0
   48.3641   33.5368   33.3571 H   0  0  0  0  0  0  0  0  0  0  0  0
   49.3569   32.0704   33.3819 H   0  0  0  0  0  0  0  0  0  0  0  0
   46.7189   31.1688   35.5934 H   0  0  0  0  0  0  0  0  0  0  0  0
   46.8255   29.9258   34.2884 H   0  0  0  0  0  0  0  0  0  0  0  0
   48.6667   29.5845   35.8785 H   0  0  0  0  0  0  0  0  0  0  0  0
   49.3373   30.1630   34.3301 H   0  0  0  0  0  0  0  0  0  0  0  0
  1  2  1  0
  1  9  1  0
  3  2  1  0
  4  3  1  0
  5  4  1  0
  5  6  1  0
  6  1  1  0
  7 12  2  0
  8  7  1  0
  9  8  2  0
  9 10  1  0
 10 11  2  0
 11 12  1  0
 13  6  1  0
 14 15  1  0
 15 16  1  0
 17 16  1  0
 18 17  1  0
 18 14  1  0
 18 13  1  1
 19 18  1  0
 20 19  1  0
 21 20  1  0
 22 21  1  0
 22 23  1  0
 23 24  1  0
 24 19  1  0
  2 25  1  0
  2 26  1  0
  3 27  1  0
  3 28  1  0
  4 29  1  0
  4 30  1  0
  5 31  1  0
  5 32  1  0
  6 33  1  6
  7 34  1  0
  8 35  1  0
 11 36  1  0
 14 37  1  0
 15 38  1  0
 15 39  1  0
 16 40  1  0
 16 41  1  0
 17 42  1  0
 17 43  1  0
 20 44  1  0
 20 45  1  0
 21 46  1  0
 21 47  1  0
 23 48  1  0
 23 49  1  0
 24 50  1  0
 24 51  1  0
M  ISO  8  25  13  26  13  27  13  28  13  29  13  30  13  31  13  32  13
M  ISO  8  33  13  34  14  35  14  36  14  37   5  38  13  39  13  40  13
M  ISO  8  41  13  42  13  43  13  44  13  45  13  46  13  47  13  48  13
M  ISO  3  49  13  50  13  51  13
M  END
>  <minimizedAffinity>  (1) 
-4.3039732

>  <minimizedRMSD>  (1) 
1.37758756

$$$$
