
     RDKit          3D

 13 13  0  0  0  0  0  0  0  0999 V2000
   44.5450   36.0090   44.5030 C   0  0  0  0  0  0  0  0  0  0  0  0
   45.2790   35.9500   43.2900 C   0  0  0  0  0  0  0  0  0  0  0  0
   46.1880   34.8990   43.1190 C   0  0  0  0  0  0  0  0  0  0  0  0
   46.3100   33.9940   44.1340 N   0  0  0  0  0  0  0  0  0  0  0  0
   45.5920   34.0790   45.2840 C   0  0  0  0  0  0  0  0  0  0  0  0
   44.7190   35.0850   45.4550 N   0  0  0  0  0  0  0  0  0  0  0  0
   46.9970   34.7640   41.8760 C   0  0  0  0  0  0  0  0  0  0  0  0
   43.8241   36.8244   44.6626 H   0  0  0  0  0  0  0  0  0  0  0  0
   45.1378   36.7087   42.5061 H   0  0  0  0  0  0  0  0  0  0  0  0
   45.7254   33.3251   46.0738 H   0  0  0  0  0  0  0  0  0  0  0  0
   48.0500   34.5883   42.1411 H   0  0  0  0  0  0  0  0  0  0  0  0
   46.6214   33.9161   41.2844 H   0  0  0  0  0  0  0  0  0  0  0  0
   46.9171   35.6879   41.2844 H   0  0  0  0  0  0  0  0  0  0  0  0
  1  6  2  0
  2  1  1  0
  3  2  2  0
  3  4  1  0
  4  5  2  0
  5  6  1  0
  7  3  1  0
  1  8  1  0
  2  9  1  0
  5 10  1  0
  7 11  1  0
  7 12  1  0
  7 13  1  0
M  ISO  6   8  14   9  14  10  14  11   8  12   8  13   8
M  END
>  <minimizedAffinity>  (1) 
-3.06286502

>  <minimizedRMSD>  (1) 
0.387166351

$$$$
