
     RDKit          3D

 24 26  0  0  1  0  0  0  0  0999 V2000
   46.0020   33.7810   41.7380 C   0  0  1  0  0  0  0  0  0  0  0  0
   46.7270   35.0800   42.0720 C   0  0  0  0  0  0  0  0  0  0  0  0
   46.6200   33.9860   43.0550 C   0  0  1  0  0  0  0  0  0  0  0  0
   42.6360   35.1800   40.8750 C   0  0  0  0  0  0  0  0  0  0  0  0
   44.0280   35.1030   41.0730 C   0  0  0  0  0  0  0  0  0  0  0  0
   44.5420   33.9090   41.5350 C   0  0  0  0  0  0  0  0  0  0  0  0
   43.6690   32.8710   41.7740 N   0  0  0  0  0  0  0  0  0  0  0  0
   42.3480   32.9710   41.5780 C   0  0  0  0  0  0  0  0  0  0  0  0
   41.8320   34.1240   41.1290 N   0  0  0  0  0  0  0  0  0  0  0  0
   45.8480   34.3150   44.2710 C   0  0  0  0  0  0  0  0  0  0  0  0
   44.9790   35.3470   44.5920 C   0  0  0  0  0  0  0  0  0  0  0  0
   44.4910   35.2180   45.8750 C   0  0  0  0  0  0  0  0  0  0  0  0
   45.0770   34.0970   46.3180 N   0  0  0  0  0  0  0  0  0  0  0  0
   45.8570   33.5680   45.4140 N   0  0  0  0  0  0  0  0  0  0  0  0
   46.0703   32.9680   41.0002 H   0  0  0  0  0  0  0  0  0  0  0  0
   47.6950   35.3103   41.6030 H   0  0  0  0  0  0  0  0  0  0  0  0
   46.4706   36.1496   42.0557 H   0  0  0  0  0  0  0  0  0  0  0  0
   47.2995   33.3421   43.6326 H   0  0  0  0  0  0  0  0  0  0  0  0
   42.1946   36.1177   40.5065 H   0  0  0  0  0  0  0  0  0  0  0  0
   44.6817   35.9634   40.8669 H   0  0  0  0  0  0  0  0  0  0  0  0
   41.6910   32.1132   41.7840 H   0  0  0  0  0  0  0  0  0  0  0  0
   44.7123   36.1663   43.9082 H   0  0  0  0  0  0  0  0  0  0  0  0
   43.7892   35.8769   46.4073 H   0  0  0  0  0  0  0  0  0  0  0  0
   44.9300   33.7008   47.2573 H   0  0  0  0  0  0  0  0  0  0  0  0
  1  2  1  0
  1  3  1  0
  2  3  1  0
  3 10  1  0
  4  5  2  0
  4  9  1  0
  5  6  1  0
  6  1  1  0
  6  7  2  0
  8  7  1  0
  9  8  2  0
 10 11  1  0
 10 14  2  0
 11 12  2  0
 12 13  1  0
 14 13  1  0
  1 15  1  6
  2 16  1  0
  2 17  1  0
  3 18  1  1
  4 19  1  0
  5 20  1  0
  8 21  1  0
 11 22  1  0
 12 23  1  0
 13 24  1  0
M  ISO  8  15  13  16  13  17  13  18  13  19  14  20  14  21  14  22  14
M  ISO  2  23  14  24   9
M  END
>  <minimizedAffinity>  (1) 
-4.13221025

>  <minimizedRMSD>  (1) 
4.05556393

$$$$
