
     RDKit          3D

 26 28  0  0  0  0  0  0  0  0999 V2000
   47.7160   33.6340   42.9750 C   0  0  0  0  0  0  0  0  0  0  0  0
   44.8410   35.9670   43.7670 C   0  0  0  0  0  0  0  0  0  0  0  0
   45.9180   35.3730   43.0520 C   0  0  0  0  0  0  0  0  0  0  0  0
   46.5830   34.3090   43.6510 C   0  0  0  0  0  0  0  0  0  0  0  0
   46.1640   33.9040   44.8790 N   0  0  0  0  0  0  0  0  0  0  0  0
   45.1250   34.4920   45.5450 C   0  0  0  0  0  0  0  0  0  0  0  0
   44.4760   35.5260   44.9660 N   0  0  0  0  0  0  0  0  0  0  0  0
   47.8580   33.9900   41.6020 N   0  0  0  0  0  0  0  0  0  0  0  0
   48.6020   35.0790   41.2530 C   0  0  0  0  0  0  0  0  0  0  0  0
   48.5500   35.1600   39.9030 N   0  0  0  0  0  0  0  0  0  0  0  0
   47.8010   34.1610   39.4050 C   0  0  0  0  0  0  0  0  0  0  0  0
   47.4350   33.7930   38.1250 C   0  0  0  0  0  0  0  0  0  0  0  0
   46.6520   32.7020   38.0020 N   0  0  0  0  0  0  0  0  0  0  0  0
   46.2270   31.9810   39.0570 C   0  0  0  0  0  0  0  0  0  0  0  0
   46.5790   32.3350   40.3260 N   0  0  0  0  0  0  0  0  0  0  0  0
   47.3620   33.4170   40.4910 C   0  0  0  0  0  0  0  0  0  0  0  0
   47.9020   34.5750   37.0330 N   0  0  0  0  0  0  0  0  0  0  0  0
   48.6440   33.9022   43.5011 H   0  0  0  0  0  0  0  0  0  0  0  0
   47.5125   32.5535   43.0077 H   0  0  0  0  0  0  0  0  0  0  0  0
   44.2979   36.8110   43.3167 H   0  0  0  0  0  0  0  0  0  0  0  0
   46.2144   35.7428   42.0593 H   0  0  0  0  0  0  0  0  0  0  0  0
   44.8217   34.1286   46.5379 H   0  0  0  0  0  0  0  0  0  0  0  0
   49.1379   35.7568   41.9338 H   0  0  0  0  0  0  0  0  0  0  0  0
   45.5904   31.0989   38.8937 H   0  0  0  0  0  0  0  0  0  0  0  0
   47.6425   34.3206   36.0692 H   0  0  0  0  0  0  0  0  0  0  0  0
   48.4997   35.3958   37.2058 H   0  0  0  0  0  0  0  0  0  0  0  0
  1  4  1  0
  2  7  2  0
  3  4  2  0
  3  2  1  0
  4  5  1  0
  5  6  2  0
  7  6  1  0
  8  1  1  0
  9  8  1  0
 10  9  2  0
 11 10  1  0
 11 16  2  0
 12 11  1  0
 13 12  2  0
 13 14  1  0
 14 15  2  0
 15 16  1  0
 16  8  1  0
 17 12  1  0
  1 18  1  0
  1 19  1  0
  2 20  1  0
  3 21  1  0
  6 22  1  0
  9 23  1  0
 14 24  1  0
 17 25  1  0
 17 26  1  0
M  ISO  7  18   8  19   8  20  14  21  14  22  14  23  14  24  14
M  END
>  <minimizedAffinity>  (1) 
-4.8772397

>  <minimizedRMSD>  (1) 
2.6280849

$$$$
