
     RDKit          3D

 23 24  0  0  0  0  0  0  0  0999 V2000
   46.3910   34.4880   41.6170 C   0  0  0  0  0  0  0  0  0  0  0  0
   44.6050   36.2070   44.4750 C   0  0  0  0  0  0  0  0  0  0  0  0
   45.1480   35.9850   43.1940 C   0  0  0  0  0  0  0  0  0  0  0  0
   45.7990   34.7770   42.9480 C   0  0  0  0  0  0  0  0  0  0  0  0
   45.8760   33.8680   43.9690 N   0  0  0  0  0  0  0  0  0  0  0  0
   45.3460   34.1070   45.1890 C   0  0  0  0  0  0  0  0  0  0  0  0
   44.7140   35.2750   45.4320 N   0  0  0  0  0  0  0  0  0  0  0  0
   47.8240   34.1620   41.8530 C   0  0  0  0  0  0  0  0  0  0  0  0
   48.3230   32.9020   41.6860 C   0  0  0  0  0  0  0  0  0  0  0  0
   49.6750   32.6100   41.9110 C   0  0  0  0  0  0  0  0  0  0  0  0
   50.5040   33.6570   42.3160 C   0  0  0  0  0  0  0  0  0  0  0  0
   50.0280   34.9440   42.4940 C   0  0  0  0  0  0  0  0  0  0  0  0
   48.6730   35.1630   42.2520 C   0  0  0  0  0  0  0  0  0  0  0  0
   46.3043   35.3685   40.9634 H   0  0  0  0  0  0  0  0  0  0  0  0
   45.8700   33.6549   41.1225 H   0  0  0  0  0  0  0  0  0  0  0  0
   44.0873   37.1531   44.6915 H   0  0  0  0  0  0  0  0  0  0  0  0
   45.0603   36.7474   42.4060 H   0  0  0  0  0  0  0  0  0  0  0  0
   45.4295   33.3506   45.9833 H   0  0  0  0  0  0  0  0  0  0  0  0
   47.6465   32.0956   41.3667 H   0  0  0  0  0  0  0  0  0  0  0  0
   50.0687   31.5921   41.7733 H   0  0  0  0  0  0  0  0  0  0  0  0
   51.5692   33.4528   42.4995 H   0  0  0  0  0  0  0  0  0  0  0  0
   50.6918   35.7609   42.8134 H   0  0  0  0  0  0  0  0  0  0  0  0
   48.2689   36.1773   42.3861 H   0  0  0  0  0  0  0  0  0  0  0  0
  1  8  1  0
  1  4  1  0
  2  7  2  0
  3  2  1  0
  4  3  2  0
  4  5  1  0
  5  6  2  0
  6  7  1  0
  8 13  1  0
  9  8  2  0
  9 10  1  0
 10 11  2  0
 11 12  1  0
 13 12  2  0
  1 14  1  0
  1 15  1  0
  2 16  1  0
  3 17  1  0
  6 18  1  0
  9 19  1  0
 10 20  1  0
 11 21  1  0
 12 22  1  0
 13 23  1  0
M  ISO  8  14   8  15   8  16  14  17  14  18  14  19  14  20  14  21  14
M  ISO  2  22  14  23  14
M  END
>  <minimizedAffinity>  (1) 
-4.66266155

>  <minimizedRMSD>  (1) 
1.81067586

$$$$
