
     RDKit          3D

 22 23  0  0  0  0  0  0  0  0999 V2000
   46.5790   34.6210   41.5930 C   0  0  0  0  0  0  0  0  0  0  0  0
   44.6170   36.1920   44.4490 C   0  0  0  0  0  0  0  0  0  0  0  0
   45.2130   36.0390   43.1770 C   0  0  0  0  0  0  0  0  0  0  0  0
   45.9220   34.8630   42.9050 C   0  0  0  0  0  0  0  0  0  0  0  0
   45.9990   33.9180   43.8990 N   0  0  0  0  0  0  0  0  0  0  0  0
   45.4130   34.1080   45.1020 C   0  0  0  0  0  0  0  0  0  0  0  0
   44.7340   35.2220   45.3780 N   0  0  0  0  0  0  0  0  0  0  0  0
   47.9900   34.2240   41.8390 C   0  0  0  0  0  0  0  0  0  0  0  0
   48.9740   35.0590   42.3490 C   0  0  0  0  0  0  0  0  0  0  0  0
   50.2650   34.6280   42.5540 C   0  0  0  0  0  0  0  0  0  0  0  0
   50.6390   33.3320   42.2570 C   0  0  0  0  0  0  0  0  0  0  0  0
   49.6490   32.5180   41.7520 C   0  0  0  0  0  0  0  0  0  0  0  0
   48.4010   32.9740   41.5670 N   0  0  0  0  0  0  0  0  0  0  0  0
   46.5519   35.5401   40.9892 H   0  0  0  0  0  0  0  0  0  0  0  0
   46.0522   33.8233   41.0488 H   0  0  0  0  0  0  0  0  0  0  0  0
   44.0543   37.1079   44.6826 H   0  0  0  0  0  0  0  0  0  0  0  0
   45.1217   36.8280   42.4160 H   0  0  0  0  0  0  0  0  0  0  0  0
   45.4981   33.3260   45.8709 H   0  0  0  0  0  0  0  0  0  0  0  0
   48.7140   36.0986   42.5974 H   0  0  0  0  0  0  0  0  0  0  0  0
   51.0108   35.3268   42.9608 H   0  0  0  0  0  0  0  0  0  0  0  0
   51.6662   32.9713   42.4143 H   0  0  0  0  0  0  0  0  0  0  0  0
   49.8862   31.4749   41.4957 H   0  0  0  0  0  0  0  0  0  0  0  0
  1  8  1  0
  1  4  1  0
  2  7  2  0
  3  2  1  0
  4  3  2  0
  4  5  1  0
  5  6  2  0
  6  7  1  0
  8  9  2  0
  9 10  1  0
 11 10  2  0
 12 11  1  0
 13 12  2  0
 13  8  1  0
  1 14  1  0
  1 15  1  0
  2 16  1  0
  3 17  1  0
  6 18  1  0
  9 19  1  0
 10 20  1  0
 11 21  1  0
 12 22  1  0
M  ISO  8  14   8  15   8  16  14  17  14  18  14  19  14  20  14  21  14
M  ISO  1  22  14
M  END
>  <minimizedAffinity>  (1) 
-4.59437656

>  <minimizedRMSD>  (1) 
1.79351544

$$$$
