
     RDKit          3D

 26 27  0  0  0  0  0  0  0  0999 V2000
   47.7940   35.1100   41.8160 C   0  0  0  0  0  0  0  0  0  0  0  0
   44.7500   35.5690   44.0520 C   0  0  0  0  0  0  0  0  0  0  0  0
   45.6810   35.7940   42.9890 C   0  0  0  0  0  0  0  0  0  0  0  0
   46.7880   34.9290   42.8980 C   0  0  0  0  0  0  0  0  0  0  0  0
   46.9080   33.9360   43.8170 N   0  0  0  0  0  0  0  0  0  0  0  0
   46.0080   33.7520   44.8090 C   0  0  0  0  0  0  0  0  0  0  0  0
   44.9470   34.5700   44.9080 N   0  0  0  0  0  0  0  0  0  0  0  0
   46.5980   33.1710   38.2240 C   0  0  0  0  0  0  0  0  0  0  0  0
   45.7510   33.1280   39.3280 C   0  0  0  0  0  0  0  0  0  0  0  0
   46.1450   33.7620   40.5000 C   0  0  0  0  0  0  0  0  0  0  0  0
   47.3690   34.4300   40.5650 C   0  0  0  0  0  0  0  0  0  0  0  0
   48.1760   34.4480   39.4470 C   0  0  0  0  0  0  0  0  0  0  0  0
   47.8180   33.8290   38.2660 C   0  0  0  0  0  0  0  0  0  0  0  0
   46.0900   32.3690   36.7530 S   0  0  0  0  0  0  0  0  0  0  0  0
   45.8940   30.8960   37.0640 O   0  0  0  0  0  0  0  0  0  0  0  0
   47.1280   32.4840   35.6840 O   0  0  0  0  0  0  0  0  0  0  0  0
   47.9159   36.1848   41.6161 H   0  0  0  0  0  0  0  0  0  0  0  0
   48.7442   34.6658   42.1473 H   0  0  0  0  0  0  0  0  0  0  0  0
   43.8716   36.2220   44.1613 H   0  0  0  0  0  0  0  0  0  0  0  0
   45.5370   36.6131   42.2690 H   0  0  0  0  0  0  0  0  0  0  0  0
   46.1441   32.9350   45.5328 H   0  0  0  0  0  0  0  0  0  0  0  0
   44.7868   32.6014   39.2735 H   0  0  0  0  0  0  0  0  0  0  0  0
   45.4883   33.7374   41.3821 H   0  0  0  0  0  0  0  0  0  0  0  0
   49.1403   34.9748   39.4980 H   0  0  0  0  0  0  0  0  0  0  0  0
   48.4789   33.8568   37.3871 H   0  0  0  0  0  0  0  0  0  0  0  0
   44.9351   32.9564   36.3079 H   0  0  0  0  0  0  0  0  0  0  0  0
  1  4  1  0
  2  7  2  0
  3  2  1  0
  4  3  2  0
  4  5  1  0
  5  6  2  0
  6  7  1  0
  8 13  2  0
  8  9  1  0
  9 10  2  0
 10 11  1  0
 11  1  1  0
 12 11  2  0
 13 12  1  0
 14 15  2  0
 14  8  1  0
 16 14  2  0
  1 17  1  0
  1 18  1  0
  2 19  1  0
  3 20  1  0
  6 21  1  0
  9 22  1  0
 10 23  1  0
 12 24  1  0
 13 25  1  0
 14 26  1  0
M  ISO  8  17   8  18   8  19  14  20  14  21  14  22  14  23  14  24  14
M  ISO  2  25  14  26  11
M  END
>  <minimizedAffinity>  (1) 
-4.40772772

>  <minimizedRMSD>  (1) 
1.60273969

$$$$
