
     RDKit          3D

 20 21  0  0  0  0  0  0  0  0999 V2000
   44.5520   36.0570   44.5120 C   0  0  0  0  0  0  0  0  0  0  0  0
   45.2060   35.9910   43.2590 C   0  0  0  0  0  0  0  0  0  0  0  0
   46.0670   34.9070   43.0230 C   0  0  0  0  0  0  0  0  0  0  0  0
   46.2140   33.9940   44.0150 N   0  0  0  0  0  0  0  0  0  0  0  0
   45.5750   34.0800   45.2070 C   0  0  0  0  0  0  0  0  0  0  0  0
   44.7460   35.1200   45.4410 N   0  0  0  0  0  0  0  0  0  0  0  0
   46.7860   34.7670   41.7400 C   0  0  0  0  0  0  0  0  0  0  0  0
   48.1760   34.3150   41.9980 C   0  0  0  0  0  0  0  0  0  0  0  0
   49.2100   35.1870   42.3430 C   0  0  0  0  0  0  0  0  0  0  0  0
   50.3270   34.3830   42.4940 C   0  0  0  0  0  0  0  0  0  0  0  0
   49.8910   33.1010   42.2320 C   0  0  0  0  0  0  0  0  0  0  0  0
   48.6210   33.0790   41.9410 O   0  0  0  0  0  0  0  0  0  0  0  0
   43.8720   36.8954   44.7235 H   0  0  0  0  0  0  0  0  0  0  0  0
   45.0450   36.7646   42.4937 H   0  0  0  0  0  0  0  0  0  0  0  0
   45.7302   33.3097   45.9768 H   0  0  0  0  0  0  0  0  0  0  0  0
   46.8062   35.7379   41.2233 H   0  0  0  0  0  0  0  0  0  0  0  0
   46.2709   34.0268   41.1101 H   0  0  0  0  0  0  0  0  0  0  0  0
   49.1502   36.2782   42.4680 H   0  0  0  0  0  0  0  0  0  0  0  0
   51.3451   34.6992   42.7651 H   0  0  0  0  0  0  0  0  0  0  0  0
   50.5343   32.2093   42.2646 H   0  0  0  0  0  0  0  0  0  0  0  0
  1  6  2  0
  2  1  1  0
  3  2  2  0
  3  4  1  0
  4  5  2  0
  5  6  1  0
  7  8  1  0
  7  3  1  0
  8  9  2  0
  9 10  1  0
 11 10  2  0
 12  8  1  0
 12 11  1  0
  1 13  1  0
  2 14  1  0
  5 15  1  0
  7 16  1  0
  7 17  1  0
  9 18  1  0
 10 19  1  0
 11 20  1  0
M  ISO  8  13  14  14  14  15  14  16   8  17   8  18  14  19  14  20  14
M  END
>  <minimizedAffinity>  (1) 
-4.30772829

>  <minimizedRMSD>  (1) 
1.49335492

$$$$
