
     RDKit          3D

 24 26  0  0  1  0  0  0  0  0999 V2000
   46.8810   35.2330   41.6850 C   0  0  1  0  0  0  0  0  0  0  0  0
   48.3840   35.5060   41.8170 C   0  0  0  0  0  0  0  0  0  0  0  0
   47.8540   34.2380   41.2290 C   0  0  2  0  0  0  0  0  0  0  0  0
   44.5800   35.8240   44.5740 C   0  0  0  0  0  0  0  0  0  0  0  0
   45.2210   36.0160   43.3380 C   0  0  0  0  0  0  0  0  0  0  0  0
   46.1870   35.0870   42.9970 C   0  0  0  0  0  0  0  0  0  0  0  0
   46.4670   34.0470   43.8600 N   0  0  0  0  0  0  0  0  0  0  0  0
   45.8110   33.9200   45.0380 C   0  0  0  0  0  0  0  0  0  0  0  0
   44.8770   34.8000   45.3920 N   0  0  0  0  0  0  0  0  0  0  0  0
   48.1570   33.9960   39.7900 C   0  0  0  0  0  0  0  0  0  0  0  0
   47.1550   33.4040   38.8700 C   0  0  0  0  0  0  0  0  0  0  0  0
   48.3010   32.5350   39.3530 C   0  0  0  0  0  0  0  0  0  0  0  0
   46.0020   35.6797   41.1972 H   0  0  0  0  0  0  0  0  0  0  0  0
   48.8714   36.2551   41.1756 H   0  0  0  0  0  0  0  0  0  0  0  0
   49.0702   35.7718   42.6346 H   0  0  0  0  0  0  0  0  0  0  0  0
   47.9381   33.1607   41.4348 H   0  0  0  0  0  0  0  0  0  0  0  0
   43.8047   36.5401   44.8840 H   0  0  0  0  0  0  0  0  0  0  0  0
   44.9682   36.8590   42.6781 H   0  0  0  0  0  0  0  0  0  0  0  0
   46.0522   33.0820   45.7085 H   0  0  0  0  0  0  0  0  0  0  0  0
   48.7618   34.9136   39.7437 H   0  0  0  0  0  0  0  0  0  0  0  0
   47.1201   33.7274   37.8192 H   0  0  0  0  0  0  0  0  0  0  0  0
   46.0591   33.3098   38.8831 H   0  0  0  0  0  0  0  0  0  0  0  0
   48.1163   31.7208   40.0693 H   0  0  0  0  0  0  0  0  0  0  0  0
   49.0853   31.9286   38.8764 H   0  0  0  0  0  0  0  0  0  0  0  0
  1  2  1  0
  1  6  1  0
  3  1  1  0
  3  2  1  0
  4  9  2  0
  5  4  1  0
  6  5  2  0
  6  7  1  0
  7  8  2  0
  8  9  1  0
 10  3  1  0
 11 12  1  0
 11 10  1  0
 12 10  1  0
  1 13  1  6
  2 14  1  0
  2 15  1  0
  3 16  1  1
  4 17  1  0
  5 18  1  0
  8 19  1  0
 10 20  1  0
 11 21  1  0
 11 22  1  0
 12 23  1  0
 12 24  1  0
M  ISO  8  13  13  14  13  15  13  16  13  17  14  18  14  19  14  20  13
M  ISO  4  21  13  22  13  23  13  24  13
M  END
>  <minimizedAffinity>  (1) 
-4.07634211

>  <minimizedRMSD>  (1) 
0.655308247

$$$$
