
     RDKit          3D

 15 15  0  0  0  0  0  0  0  0999 V2000
   44.5360   36.0470   44.5270 C   0  0  0  0  0  0  0  0  0  0  0  0
   45.1740   35.9740   43.2700 C   0  0  0  0  0  0  0  0  0  0  0  0
   46.0330   34.8980   43.0450 C   0  0  0  0  0  0  0  0  0  0  0  0
   46.2100   33.9750   44.0460 N   0  0  0  0  0  0  0  0  0  0  0  0
   45.5770   34.0840   45.2380 C   0  0  0  0  0  0  0  0  0  0  0  0
   44.7450   35.1190   45.4660 N   0  0  0  0  0  0  0  0  0  0  0  0
   46.7540   34.7340   41.7480 C   0  0  0  0  0  0  0  0  0  0  0  0
   48.0780   35.3410   41.9470 N   0  0  0  0  0  0  0  0  0  0  0  0
   43.8537   36.8837   44.7379 H   0  0  0  0  0  0  0  0  0  0  0  0
   45.0004   36.7369   42.4968 H   0  0  0  0  0  0  0  0  0  0  0  0
   45.7419   33.3280   46.0198 H   0  0  0  0  0  0  0  0  0  0  0  0
   46.2132   35.2501   40.9411 H   0  0  0  0  0  0  0  0  0  0  0  0
   46.8328   33.6755   41.4593 H   0  0  0  0  0  0  0  0  0  0  0  0
   48.2677   35.4280   42.9556 H   0  0  0  0  0  0  0  0  0  0  0  0
   48.7975   34.7457   41.5124 H   0  0  0  0  0  0  0  0  0  0  0  0
  1  6  2  0
  2  1  1  0
  3  2  2  0
  3  4  1  0
  4  5  2  0
  5  6  1  0
  7  8  1  0
  7  3  1  0
  1  9  1  0
  2 10  1  0
  5 11  1  0
  7 12  1  0
  7 13  1  0
  8 14  1  0
  8 15  1  0
M  ISO  7   9  14  10  14  11  14  12   8  13   8  14   5  15   5
M  END
>  <minimizedAffinity>  (1) 
-3.10594869

>  <minimizedRMSD>  (1) 
0.169090152

$$$$
