
     RDKit          3D

 19 19  0  0  0  0  0  0  0  0999 V2000
   46.7780   34.7520   41.8730 C   0  0  0  0  0  0  0  0  0  0  0  0
   44.4940   36.0820   44.5680 C   0  0  0  0  0  0  0  0  0  0  0  0
   45.1750   35.9850   43.3320 C   0  0  0  0  0  0  0  0  0  0  0  0
   46.0280   34.9140   43.1430 C   0  0  0  0  0  0  0  0  0  0  0  0
   46.1740   33.9940   44.1660 N   0  0  0  0  0  0  0  0  0  0  0  0
   45.5080   34.1230   45.3270 C   0  0  0  0  0  0  0  0  0  0  0  0
   44.6730   35.1570   45.5310 N   0  0  0  0  0  0  0  0  0  0  0  0
   48.1240   34.3310   42.2440 N   0  0  0  0  0  0  0  0  0  0  0  0
   49.2400   35.2010   42.2270 C   0  0  0  0  0  0  0  0  0  0  0  0
   50.4670   34.8880   42.8760 N   0  0  0  0  0  0  0  0  0  0  0  0
   49.2730   36.3190   41.6540 O   0  0  0  0  0  0  0  0  0  0  0  0
   46.8142   35.7065   41.3275 H   0  0  0  0  0  0  0  0  0  0  0  0
   46.2954   34.0146   41.2147 H   0  0  0  0  0  0  0  0  0  0  0  0
   43.8089   36.9242   44.7453 H   0  0  0  0  0  0  0  0  0  0  0  0
   45.0300   36.7394   42.5447 H   0  0  0  0  0  0  0  0  0  0  0  0
   45.6480   33.3733   46.1197 H   0  0  0  0  0  0  0  0  0  0  0  0
   48.2695   33.3530   42.5324 H   0  0  0  0  0  0  0  0  0  0  0  0
   51.2538   35.5516   42.8376 H   0  0  0  0  0  0  0  0  0  0  0  0
   50.5684   33.9978   43.3842 H   0  0  0  0  0  0  0  0  0  0  0  0
  1  8  1  0
  1  4  1  0
  2  7  2  0
  3  2  1  0
  4  3  2  0
  4  5  1  0
  5  6  2  0
  6  7  1  0
  9  8  1  0
  9 10  1  0
 11  9  2  0
  1 12  1  0
  1 13  1  0
  2 14  1  0
  3 15  1  0
  6 16  1  0
  8 17  1  0
 10 18  1  0
 10 19  1  0
M  ISO  5  12   8  13   8  14  14  15  14  16  14
M  END
>  <minimizedAffinity>  (1) 
-4.61279774

>  <minimizedRMSD>  (1) 
1.18744051

$$$$
