
     RDKit          3D

 22 23  0  0  0  0  0  0  0  0999 V2000
   46.4210   34.4640   41.6060 C   0  0  0  0  0  0  0  0  0  0  0  0
   44.6110   36.1360   44.4800 C   0  0  0  0  0  0  0  0  0  0  0  0
   45.1360   35.9490   43.1810 C   0  0  0  0  0  0  0  0  0  0  0  0
   45.8290   34.7560   42.9420 C   0  0  0  0  0  0  0  0  0  0  0  0
   45.9630   33.8450   43.9490 N   0  0  0  0  0  0  0  0  0  0  0  0
   45.4370   34.0720   45.1860 C   0  0  0  0  0  0  0  0  0  0  0  0
   44.7640   35.2230   45.4320 N   0  0  0  0  0  0  0  0  0  0  0  0
   47.7090   35.1730   41.5670 N   0  0  0  0  0  0  0  0  0  0  0  0
   48.9010   34.4360   41.7990 C   0  0  0  0  0  0  0  0  0  0  0  0
   49.9730   34.4160   42.6760 C   0  0  0  0  0  0  0  0  0  0  0  0
   50.7900   33.3760   42.2800 C   0  0  0  0  0  0  0  0  0  0  0  0
   50.2230   32.8020   41.2080 N   0  0  0  0  0  0  0  0  0  0  0  0
   49.0920   33.4250   40.9070 N   0  0  0  0  0  0  0  0  0  0  0  0
   46.5771   33.3818   41.4859 H   0  0  0  0  0  0  0  0  0  0  0  0
   45.7573   34.7912   40.7921 H   0  0  0  0  0  0  0  0  0  0  0  0
   44.0617   37.0614   44.7081 H   0  0  0  0  0  0  0  0  0  0  0  0
   45.0061   36.7062   42.3937 H   0  0  0  0  0  0  0  0  0  0  0  0
   45.5583   33.3232   45.9826 H   0  0  0  0  0  0  0  0  0  0  0  0
   47.7460   36.1843   41.3752 H   0  0  0  0  0  0  0  0  0  0  0  0
   50.1408   35.0968   43.5236 H   0  0  0  0  0  0  0  0  0  0  0  0
   51.7340   33.0731   42.7566 H   0  0  0  0  0  0  0  0  0  0  0  0
   50.6091   31.9967   40.6949 H   0  0  0  0  0  0  0  0  0  0  0  0
  1  4  1  0
  2  7  2  0
  3  2  1  0
  4  3  2  0
  4  5  1  0
  5  6  2  0
  6  7  1  0
  8  1  1  0
  8  9  1  0
  9 10  1  0
 11 10  2  0
 12 11  1  0
 13 12  1  0
 13  9  2  0
  1 14  1  0
  1 15  1  0
  2 16  1  0
  3 17  1  0
  6 18  1  0
  8 19  1  0
 10 20  1  0
 11 21  1  0
 12 22  1  0
M  ISO  8  14   8  15   8  16  14  17  14  18  14  20  14  21  14  22   9
M  END
>  <minimizedAffinity>  (1) 
-4.54693222

>  <minimizedRMSD>  (1) 
1.29915977

$$$$
