
     RDKit          3D

 28 29  0  0  0  0  0  0  0  0999 V2000
   47.8860   32.5030   43.4310 C   0  0  0  0  0  0  0  0  0  0  0  0
   45.7950   33.1110   46.5400 C   0  0  0  0  0  0  0  0  0  0  0  0
   46.4070   33.3720   45.2880 C   0  0  0  0  0  0  0  0  0  0  0  0
   47.1930   32.3410   44.7440 C   0  0  0  0  0  0  0  0  0  0  0  0
   47.3230   31.1560   45.4430 N   0  0  0  0  0  0  0  0  0  0  0  0
   46.7110   30.9790   46.6280 C   0  0  0  0  0  0  0  0  0  0  0  0
   45.9480   31.9570   47.1750 N   0  0  0  0  0  0  0  0  0  0  0  0
   48.4480   33.8710   43.4580 N   0  0  0  0  0  0  0  0  0  0  0  0
   48.0020   34.5730   41.9300 S   0  0  0  0  0  0  0  0  0  0  0  0
   48.7740   35.8540   41.7900 O   0  0  0  0  0  0  0  0  0  0  0  0
   48.4120   33.6290   40.8430 O   0  0  0  0  0  0  0  0  0  0  0  0
   46.2830   34.8870   41.8740 C   0  0  0  0  0  0  0  0  0  0  0  0
   45.5930   35.7090   42.7370 C   0  0  0  0  0  0  0  0  0  0  0  0
   44.2310   35.8810   42.5940 C   0  0  0  0  0  0  0  0  0  0  0  0
   43.5400   35.2230   41.5740 C   0  0  0  0  0  0  0  0  0  0  0  0
   44.2380   34.3990   40.7110 C   0  0  0  0  0  0  0  0  0  0  0  0
   45.5940   34.2360   40.8630 C   0  0  0  0  0  0  0  0  0  0  0  0
   47.1717   32.3953   42.6015 H   0  0  0  0  0  0  0  0  0  0  0  0
   48.6643   31.7407   43.2790 H   0  0  0  0  0  0  0  0  0  0  0  0
   45.1722   33.8922   47.0002 H   0  0  0  0  0  0  0  0  0  0  0  0
   46.2736   34.3324   44.7686 H   0  0  0  0  0  0  0  0  0  0  0  0
   46.8317   30.0249   47.1619 H   0  0  0  0  0  0  0  0  0  0  0  0
   48.0452   34.4123   44.2362 H   0  0  0  0  0  0  0  0  0  0  0  0
   46.1294   36.2305   43.5434 H   0  0  0  0  0  0  0  0  0  0  0  0
   43.6869   36.5397   43.2869 H   0  0  0  0  0  0  0  0  0  0  0  0
   42.4545   35.3587   41.4589 H   0  0  0  0  0  0  0  0  0  0  0  0
   43.7080   33.8738   39.9027 H   0  0  0  0  0  0  0  0  0  0  0  0
   46.1411   33.5785   40.1714 H   0  0  0  0  0  0  0  0  0  0  0  0
  1  8  1  0
  1  4  1  0
  2  7  2  0
  3  2  1  0
  4  3  2  0
  4  5  1  0
  5  6  2  0
  6  7  1  0
  9  8  1  0
 10  9  2  0
 11  9  2  0
 12  9  1  0
 12 13  2  0
 14 13  1  0
 15 14  2  0
 16 17  2  0
 16 15  1  0
 17 12  1  0
  1 18  1  0
  1 19  1  0
  2 20  1  0
  3 21  1  0
  6 22  1  0
  8 23  1  0
 13 24  1  0
 14 25  1  0
 15 26  1  0
 16 27  1  0
 17 28  1  0
M  ISO  8  18   8  19   8  20  14  21  14  22  14  23   5  24  14  25  14
M  ISO  3  26  14  27  14  28  14
M  END
>  <minimizedAffinity>  (1) 
-4.48174572

>  <minimizedRMSD>  (1) 
3.64382648

$$$$
