
     RDKit          3D

 30 31  0  0  0  0  0  0  0  0999 V2000
   46.4270   34.8190   41.8840 C   0  0  0  0  0  0  0  0  0  0  0  0
   44.4510   35.9750   44.9130 C   0  0  0  0  0  0  0  0  0  0  0  0
   44.9890   35.9720   43.6010 C   0  0  0  0  0  0  0  0  0  0  0  0
   45.8130   34.9070   43.2530 C   0  0  0  0  0  0  0  0  0  0  0  0
   46.0660   33.9230   44.1800 N   0  0  0  0  0  0  0  0  0  0  0  0
   45.5340   33.9670   45.4140 C   0  0  0  0  0  0  0  0  0  0  0  0
   44.7370   34.9870   45.7660 N   0  0  0  0  0  0  0  0  0  0  0  0
   47.7640   35.3900   42.0120 N   0  0  0  0  0  0  0  0  0  0  0  0
   49.5030   32.2720   39.7810 N   0  0  0  0  0  0  0  0  0  0  0  0
   50.0630   32.6640   41.0240 C   0  0  0  0  0  0  0  0  0  0  0  0
   48.9530   33.2380   41.8850 C   0  0  0  0  0  0  0  0  0  0  0  0
   48.6590   34.5810   41.2250 C   0  0  0  0  0  0  0  0  0  0  0  0
   48.2070   34.4000   39.7990 C   0  0  0  0  0  0  0  0  0  0  0  0
   48.5240   33.0970   39.1950 C   0  0  0  0  0  0  0  0  0  0  0  0
   45.8322   35.3945   41.1594 H   0  0  0  0  0  0  0  0  0  0  0  0
   46.4624   33.7811   41.5214 H   0  0  0  0  0  0  0  0  0  0  0  0
   43.7930   36.7971   45.2311 H   0  0  0  0  0  0  0  0  0  0  0  0
   44.7639   36.7787   42.8879 H   0  0  0  0  0  0  0  0  0  0  0  0
   45.7525   33.1660   46.1355 H   0  0  0  0  0  0  0  0  0  0  0  0
   47.7672   36.3590   41.6628 H   0  0  0  0  0  0  0  0  0  0  0  0
   50.2792   32.1963   39.1082 H   0  0  0  0  0  0  0  0  0  0  0  0
   50.5080   31.7909   41.5237 H   0  0  0  0  0  0  0  0  0  0  0  0
   50.8488   33.4173   40.8657 H   0  0  0  0  0  0  0  0  0  0  0  0
   48.0656   32.5882   41.8694 H   0  0  0  0  0  0  0  0  0  0  0  0
   49.2331   33.3303   42.9447 H   0  0  0  0  0  0  0  0  0  0  0  0
   49.6004   35.1484   41.1826 H   0  0  0  0  0  0  0  0  0  0  0  0
   47.1151   34.5301   39.7704 H   0  0  0  0  0  0  0  0  0  0  0  0
   48.7582   35.1480   39.2102 H   0  0  0  0  0  0  0  0  0  0  0  0
   48.8510   33.2955   38.1637 H   0  0  0  0  0  0  0  0  0  0  0  0
   47.5952   32.5227   39.3273 H   0  0  0  0  0  0  0  0  0  0  0  0
  1  8  1  0
  1  4  1  0
  2  7  2  0
  3  2  1  0
  4  3  2  0
  4  5  1  0
  5  6  2  0
  6  7  1  0
  9 10  1  0
 10 11  1  0
 12 11  1  0
 12  8  1  0
 13 12  1  0
 14  9  1  0
 14 13  1  0
  1 15  1  0
  1 16  1  0
  2 17  1  0
  3 18  1  0
  6 19  1  0
  8 20  1  0
  9 21  1  0
 10 22  1  0
 10 23  1  0
 11 24  1  0
 11 25  1  0
 12 26  1  0
 13 27  1  0
 13 28  1  0
 14 29  1  0
 14 30  1  0
M  ISO  8  15   8  16   8  17  14  18  14  19  14  20   5  21   5  22  13
M  ISO  8  23  13  24  13  25  13  26  13  27  13  28  13  29  13  30  13
M  END
>  <minimizedAffinity>  (1) 
-4.16693258

>  <minimizedRMSD>  (1) 
1.66035891

$$$$
