
     RDKit          3D

 21 22  0  0  0  0  0  0  0  0999 V2000
   46.5870   34.6200   41.7540 C   0  0  0  0  0  0  0  0  0  0  0  0
   44.5430   36.1130   44.5790 C   0  0  0  0  0  0  0  0  0  0  0  0
   45.1420   35.9740   43.3130 C   0  0  0  0  0  0  0  0  0  0  0  0
   45.9200   34.8300   43.0750 C   0  0  0  0  0  0  0  0  0  0  0  0
   46.0570   33.9060   44.0930 N   0  0  0  0  0  0  0  0  0  0  0  0
   45.4610   34.0950   45.2820 C   0  0  0  0  0  0  0  0  0  0  0  0
   44.7120   35.1880   45.5200 N   0  0  0  0  0  0  0  0  0  0  0  0
   47.8720   35.3470   41.8680 N   0  0  0  0  0  0  0  0  0  0  0  0
   48.9800   34.4580   41.9480 C   0  0  0  0  0  0  0  0  0  0  0  0
   48.5000   33.5500   41.0350 C   0  0  0  0  0  0  0  0  0  0  0  0
   49.9220   32.2500   41.0240 S   0  0  0  0  0  0  0  0  0  0  0  0
   50.8760   33.2960   42.3220 C   0  0  0  0  0  0  0  0  0  0  0  0
   50.1170   34.3140   42.5490 N   0  0  0  0  0  0  0  0  0  0  0  0
   45.9759   35.0358   40.9394 H   0  0  0  0  0  0  0  0  0  0  0  0
   46.7285   33.5542   41.5215 H   0  0  0  0  0  0  0  0  0  0  0  0
   43.9267   36.9986   44.7933 H   0  0  0  0  0  0  0  0  0  0  0  0
   45.0047   36.7383   42.5339 H   0  0  0  0  0  0  0  0  0  0  0  0
   45.5872   33.3434   46.0752 H   0  0  0  0  0  0  0  0  0  0  0  0
   47.9539   36.3736   41.8871 H   0  0  0  0  0  0  0  0  0  0  0  0
   47.5592   33.5621   40.4651 H   0  0  0  0  0  0  0  0  0  0  0  0
   51.8548   33.0754   42.7729 H   0  0  0  0  0  0  0  0  0  0  0  0
  1  8  1  0
  1  4  1  0
  2  7  2  0
  3  2  1  0
  4  3  2  0
  4  5  1  0
  5  6  2  0
  6  7  1  0
  8  9  1  0
  9 13  1  0
 10  9  2  0
 11 10  1  0
 11 12  1  0
 12 13  2  0
  1 14  1  0
  1 15  1  0
  2 16  1  0
  3 17  1  0
  6 18  1  0
  8 19  1  0
 10 20  1  0
 12 21  1  0
M  ISO  7  14   8  15   8  16  14  17  14  18  14  20  14  21  14
M  END
>  <minimizedAffinity>  (1) 
-4.12426233

>  <minimizedRMSD>  (1) 
1.36010182

$$$$
