
     RDKit          3D

 24 24  0  0  0  0  0  0  0  0999 V2000
   44.6330   35.9620   44.4110 C   0  0  0  0  0  0  0  0  0  0  0  0
   45.5080   35.3800   43.4620 C   0  0  0  0  0  0  0  0  0  0  0  0
   46.1860   34.2330   43.8420 C   0  0  0  0  0  0  0  0  0  0  0  0
   45.9820   33.7200   45.0980 N   0  0  0  0  0  0  0  0  0  0  0  0
   45.1420   34.3000   45.9750 C   0  0  0  0  0  0  0  0  0  0  0  0
   44.4650   35.4240   45.6300 N   0  0  0  0  0  0  0  0  0  0  0  0
   47.1290   33.5500   42.9120 C   0  0  0  0  0  0  0  0  0  0  0  0
   48.4650   33.9880   43.2880 N   0  0  0  0  0  0  0  0  0  0  0  0
   49.2680   34.3160   42.1320 C   0  0  0  0  0  0  0  0  0  0  0  0
   49.1790   35.7460   41.7360 C   0  0  0  0  0  0  0  0  0  0  0  0
   50.7010   33.9330   42.4280 C   0  0  0  0  0  0  0  0  0  0  0  0
   44.0791   36.8741   44.1441 H   0  0  0  0  0  0  0  0  0  0  0  0
   45.6440   35.8207   42.4634 H   0  0  0  0  0  0  0  0  0  0  0  0
   45.0039   33.8615   46.9743 H   0  0  0  0  0  0  0  0  0  0  0  0
   46.9129   33.8370   41.8723 H   0  0  0  0  0  0  0  0  0  0  0  0
   47.0339   32.4562   42.9793 H   0  0  0  0  0  0  0  0  0  0  0  0
   48.3860   34.8225   43.8866 H   0  0  0  0  0  0  0  0  0  0  0  0
   48.8775   33.7491   41.2741 H   0  0  0  0  0  0  0  0  0  0  0  0
   49.1399   36.3745   42.6379 H   0  0  0  0  0  0  0  0  0  0  0  0
   50.0620   36.0167   41.1385 H   0  0  0  0  0  0  0  0  0  0  0  0
   48.2692   35.9051   41.1385 H   0  0  0  0  0  0  0  0  0  0  0  0
   50.8523   33.8926   43.5168 H   0  0  0  0  0  0  0  0  0  0  0  0
   50.9145   32.9463   41.9912 H   0  0  0  0  0  0  0  0  0  0  0  0
   51.3783   34.6816   41.9912 H   0  0  0  0  0  0  0  0  0  0  0  0
  1  6  2  0
  2  3  2  0
  2  1  1  0
  3  4  1  0
  4  5  2  0
  6  5  1  0
  7  8  1  0
  7  3  1  0
  9 11  1  0
  9  8  1  0
 10  9  1  0
  1 12  1  0
  2 13  1  0
  5 14  1  0
  7 15  1  0
  7 16  1  0
  8 17  1  0
  9 18  1  0
 10 19  1  0
 10 20  1  0
 10 21  1  0
 11 22  1  0
 11 23  1  0
 11 24  1  0
M  ISO  8  12  14  13  14  14  14  15   8  16   8  17   5  18   8  19   8
M  ISO  5  20   8  21   8  22   8  23   8  24   8
M  END
>  <minimizedAffinity>  (1) 
-4.03847933

>  <minimizedRMSD>  (1) 
1.42731154

$$$$
