
     RDKit          3D

 23 24  0  0  0  0  0  0  0  0999 V2000
   45.4570   34.4160   41.3960 C   0  0  0  0  0  0  0  0  0  0  0  0
   44.4940   35.9140   44.7420 C   0  0  0  0  0  0  0  0  0  0  0  0
   44.6540   35.7900   43.3360 C   0  0  0  0  0  0  0  0  0  0  0  0
   45.2470   34.6390   42.8420 C   0  0  0  0  0  0  0  0  0  0  0  0
   45.6410   33.6900   43.7440 N   0  0  0  0  0  0  0  0  0  0  0  0
   45.4850   33.8150   45.0740 C   0  0  0  0  0  0  0  0  0  0  0  0
   44.9090   34.9330   45.5650 N   0  0  0  0  0  0  0  0  0  0  0  0
   46.8470   33.9640   41.2540 N   0  0  0  0  0  0  0  0  0  0  0  0
   47.1640   33.9490   39.8680 C   0  0  0  0  0  0  0  0  0  0  0  0
   48.2360   34.5030   39.1870 C   0  0  0  0  0  0  0  0  0  0  0  0
   48.2960   34.3280   37.8130 C   0  0  0  0  0  0  0  0  0  0  0  0
   47.3280   33.6340   37.1630 N   0  0  0  0  0  0  0  0  0  0  0  0
   46.2840   33.0960   37.8310 C   0  0  0  0  0  0  0  0  0  0  0  0
   46.2200   33.2610   39.1660 N   0  0  0  0  0  0  0  0  0  0  0  0
   44.7649   33.6465   41.0234 H   0  0  0  0  0  0  0  0  0  0  0  0
   45.2697   35.3315   40.8157 H   0  0  0  0  0  0  0  0  0  0  0  0
   44.0278   36.8179   45.1611 H   0  0  0  0  0  0  0  0  0  0  0  0
   44.3160   36.5868   42.6571 H   0  0  0  0  0  0  0  0  0  0  0  0
   45.8220   33.0174   45.7524 H   0  0  0  0  0  0  0  0  0  0  0  0
   47.4808   33.7037   42.0231 H   0  0  0  0  0  0  0  0  0  0  0  0
   49.0164   35.0651   39.7208 H   0  0  0  0  0  0  0  0  0  0  0  0
   49.1355   34.7554   37.2450 H   0  0  0  0  0  0  0  0  0  0  0  0
   45.5033   32.5354   37.2960 H   0  0  0  0  0  0  0  0  0  0  0  0
  1  4  1  0
  2  7  2  0
  3  2  1  0
  4  3  2  0
  4  5  1  0
  5  6  2  0
  6  7  1  0
  8  1  1  0
  9  8  1  0
 10  9  2  0
 11 10  1  0
 12 11  2  0
 12 13  1  0
 13 14  2  0
 14  9  1  0
  1 15  1  0
  1 16  1  0
  2 17  1  0
  3 18  1  0
  6 19  1  0
  8 20  1  0
 10 21  1  0
 11 22  1  0
 13 23  1  0
M  ISO  8  15   8  16   8  17  14  18  14  19  14  21  14  22  14  23  14
M  END
>  <minimizedAffinity>  (1) 
-3.95722675

>  <minimizedRMSD>  (1) 
1.93431926

$$$$
