
     RDKit          3D

 22 23  0  0  0  0  0  0  0  0999 V2000
   45.4720   34.3640   41.1600 C   0  0  0  0  0  0  0  0  0  0  0  0
   44.6150   35.9670   44.4900 C   0  0  0  0  0  0  0  0  0  0  0  0
   44.7610   35.8320   43.0830 C   0  0  0  0  0  0  0  0  0  0  0  0
   45.2690   34.6310   42.6120 C   0  0  0  0  0  0  0  0  0  0  0  0
   45.6000   33.6530   43.5200 N   0  0  0  0  0  0  0  0  0  0  0  0
   45.4490   33.8120   44.8510 C   0  0  0  0  0  0  0  0  0  0  0  0
   44.9590   34.9660   45.3210 N   0  0  0  0  0  0  0  0  0  0  0  0
   46.8980   34.0960   40.9920 N   0  0  0  0  0  0  0  0  0  0  0  0
   47.3190   34.0280   39.6330 C   0  0  0  0  0  0  0  0  0  0  0  0
   46.8160   33.2220   38.6320 C   0  0  0  0  0  0  0  0  0  0  0  0
   47.4540   33.4210   37.4660 N   0  0  0  0  0  0  0  0  0  0  0  0
   48.3910   34.3790   37.7210 C   0  0  0  0  0  0  0  0  0  0  0  0
   48.2990   34.7350   39.0260 N   0  0  0  0  0  0  0  0  0  0  0  0
   44.8802   33.4916   40.8460 H   0  0  0  0  0  0  0  0  0  0  0  0
   45.1488   35.2174   40.5458 H   0  0  0  0  0  0  0  0  0  0  0  0
   44.2149   36.9034   44.9060 H   0  0  0  0  0  0  0  0  0  0  0  0
   44.4829   36.6455   42.3969 H   0  0  0  0  0  0  0  0  0  0  0  0
   45.7254   33.0025   45.5426 H   0  0  0  0  0  0  0  0  0  0  0  0
   47.5418   33.9676   41.7857 H   0  0  0  0  0  0  0  0  0  0  0  0
   45.9938   32.5047   38.7714 H   0  0  0  0  0  0  0  0  0  0  0  0
   49.1017   34.7931   36.9907 H   0  0  0  0  0  0  0  0  0  0  0  0
   48.8896   35.4412   39.4879 H   0  0  0  0  0  0  0  0  0  0  0  0
  1  4  1  0
  2  7  2  0
  3  2  1  0
  4  3  2  0
  4  5  1  0
  5  6  2  0
  6  7  1  0
  8  1  1  0
  9  8  1  0
 10  9  2  0
 11 12  2  0
 11 10  1  0
 12 13  1  0
 13  9  1  0
  1 14  1  0
  1 15  1  0
  2 16  1  0
  3 17  1  0
  6 18  1  0
  8 19  1  0
 10 20  1  0
 12 21  1  0
 13 22  1  0
M  ISO  8  14   8  15   8  16  14  17  14  18  14  20  14  21  14  22   9
M  END
>  <minimizedAffinity>  (1) 
-3.88541627

>  <minimizedRMSD>  (1) 
1.8888725

$$$$
