
     RDKit          3D

 22 23  0  0  0  0  0  0  0  0999 V2000
   44.6500   36.0400   44.2550 C   0  0  0  0  0  0  0  0  0  0  0  0
   45.5860   35.6250   43.2690 C   0  0  0  0  0  0  0  0  0  0  0  0
   46.3490   34.5090   43.5600 C   0  0  0  0  0  0  0  0  0  0  0  0
   46.1900   33.8480   44.7620 N   0  0  0  0  0  0  0  0  0  0  0  0
   45.2910   34.2790   45.6640 C   0  0  0  0  0  0  0  0  0  0  0  0
   44.5220   35.3710   45.4160 N   0  0  0  0  0  0  0  0  0  0  0  0
   47.3600   33.9920   42.5740 C   0  0  0  0  0  0  0  0  0  0  0  0
   48.6570   34.1660   43.2000 N   0  0  0  0  0  0  0  0  0  0  0  0
   49.6830   34.0920   42.1960 C   0  0  0  0  0  0  0  0  0  0  0  0
   49.8300   32.8170   41.4470 C   0  0  0  0  0  0  0  0  0  0  0  0
   50.9150   33.2760   42.3500 C   0  0  0  0  0  0  0  0  0  0  0  0
   44.0202   36.9219   44.0662 H   0  0  0  0  0  0  0  0  0  0  0  0
   45.6982   36.1667   42.3182 H   0  0  0  0  0  0  0  0  0  0  0  0
   45.1766   33.7399   46.6160 H   0  0  0  0  0  0  0  0  0  0  0  0
   47.3080   34.5662   41.6372 H   0  0  0  0  0  0  0  0  0  0  0  0
   47.1733   32.9376   42.3221 H   0  0  0  0  0  0  0  0  0  0  0  0
   48.6948   35.0851   43.6635 H   0  0  0  0  0  0  0  0  0  0  0  0
   49.5151   35.1538   41.9625 H   0  0  0  0  0  0  0  0  0  0  0  0
   49.2186   31.9446   41.7211 H   0  0  0  0  0  0  0  0  0  0  0  0
   49.7707   32.5260   40.3879 H   0  0  0  0  0  0  0  0  0  0  0  0
   51.8668   33.6324   41.9291 H   0  0  0  0  0  0  0  0  0  0  0  0
   51.4556   32.8372   43.2016 H   0  0  0  0  0  0  0  0  0  0  0  0
  1  6  2  0
  2  3  2  0
  2  1  1  0
  3  4  1  0
  4  5  2  0
  6  5  1  0
  7  8  1  0
  7  3  1  0
  9 11  1  0
  9  8  1  0
 10  9  1  0
 10 11  1  0
  1 12  1  0
  2 13  1  0
  5 14  1  0
  7 15  1  0
  7 16  1  0
  8 17  1  0
  9 18  1  0
 10 19  1  0
 10 20  1  0
 11 21  1  0
 11 22  1  0
M  ISO  8  12  14  13  14  14  14  15   8  16   8  17   5  18  13  19  13
M  ISO  3  20  13  21  13  22  13
M  END
>  <minimizedAffinity>  (1) 
-3.79632401

>  <minimizedRMSD>  (1) 
1.72665501

$$$$
