
     RDKit          3D

 19 20  0  0  1  0  0  0  0  0999 V2000
   47.1810   34.7810   41.6820 C   0  0  1  0  0  0  0  0  0  0  0  0
   48.5080   35.5380   41.7890 C   0  0  0  0  0  0  0  0  0  0  0  0
   48.4530   34.0510   41.6410 C   0  0  2  0  0  0  0  0  0  0  0  0
   44.6710   35.7950   44.2600 C   0  0  0  0  0  0  0  0  0  0  0  0
   45.4030   35.8130   43.0620 C   0  0  0  0  0  0  0  0  0  0  0  0
   46.3730   34.8330   42.9360 C   0  0  0  0  0  0  0  0  0  0  0  0
   46.5600   33.9240   43.9600 N   0  0  0  0  0  0  0  0  0  0  0  0
   45.8180   33.9640   45.0880 C   0  0  0  0  0  0  0  0  0  0  0  0
   44.8810   34.8980   45.2280 N   0  0  0  0  0  0  0  0  0  0  0  0
   48.9510   33.5360   40.3840 N   0  0  0  0  0  0  0  0  0  0  0  0
   46.2969   34.7576   41.0279 H   0  0  0  0  0  0  0  0  0  0  0  0
   48.8577   36.1666   40.9567 H   0  0  0  0  0  0  0  0  0  0  0  0
   48.9588   36.2444   42.5016 H   0  0  0  0  0  0  0  0  0  0  0  0
   48.8239   33.1839   42.2072 H   0  0  0  0  0  0  0  0  0  0  0  0
   43.8888   36.5540   44.4086 H   0  0  0  0  0  0  0  0  0  0  0  0
   45.2178   36.5579   42.2741 H   0  0  0  0  0  0  0  0  0  0  0  0
   45.9877   33.2276   45.8873 H   0  0  0  0  0  0  0  0  0  0  0  0
   49.6557   32.8073   40.5666 H   0  0  0  0  0  0  0  0  0  0  0  0
   48.1714   33.1324   39.8453 H   0  0  0  0  0  0  0  0  0  0  0  0
  1  2  1  0
  1  6  1  0
  3  1  1  0
  3  2  1  0
  4  9  2  0
  5  4  1  0
  6  5  2  0
  6  7  1  0
  7  8  2  0
  8  9  1  0
 10  3  1  0
  1 11  1  6
  2 12  1  0
  2 13  1  0
  3 14  1  1
  4 15  1  0
  5 16  1  0
  8 17  1  0
 10 18  1  0
 10 19  1  0
M  ISO  8  11  13  12  13  13  13  14  13  15  14  16  14  17  14  18   5
M  ISO  1  19   5
M  END
>  <minimizedAffinity>  (1) 
-4.015872

>  <minimizedRMSD>  (1) 
0.141517133

$$$$
