
     RDKit          3D

 27 28  0  0  1  0  0  0  0  0999 V2000
   45.6190   34.4320   41.2050 C   0  0  0  0  0  0  0  0  0  0  0  0
   44.6010   35.9870   44.5170 C   0  0  0  0  0  0  0  0  0  0  0  0
   44.8090   35.8680   43.1370 C   0  0  0  0  0  0  0  0  0  0  0  0
   45.3530   34.6710   42.6660 C   0  0  0  0  0  0  0  0  0  0  0  0
   45.6530   33.6880   43.5770 N   0  0  0  0  0  0  0  0  0  0  0  0
   45.4390   33.8390   44.8970 C   0  0  0  0  0  0  0  0  0  0  0  0
   44.9110   34.9980   45.3570 N   0  0  0  0  0  0  0  0  0  0  0  0
   47.0700   34.4300   41.0740 N   0  0  0  0  0  0  0  0  0  0  0  0
   46.2880   33.6640   38.9340 N   0  0  0  0  0  0  0  0  0  0  0  0
   46.8910   33.4110   37.6410 C   0  0  0  0  0  0  0  0  0  0  0  0
   48.3100   33.8580   37.7080 C   0  0  0  0  0  0  0  0  0  0  0  0
   48.3510   34.6450   39.0270 C   0  0  0  0  0  0  0  0  0  0  0  0
   47.4020   33.8030   39.8450 C   0  0  1  0  0  0  0  0  0  0  0  0
   45.2024   33.4636   40.8908 H   0  0  0  0  0  0  0  0  0  0  0  0
   45.1510   35.2002   40.5718 H   0  0  0  0  0  0  0  0  0  0  0  0
   44.1721   36.9174   44.9174 H   0  0  0  0  0  0  0  0  0  0  0  0
   44.5532   36.6875   42.4492 H   0  0  0  0  0  0  0  0  0  0  0  0
   45.6908   33.0280   45.5962 H   0  0  0  0  0  0  0  0  0  0  0  0
   47.4220   35.3980   41.0782 H   0  0  0  0  0  0  0  0  0  0  0  0
   45.6875   32.8754   39.2140 H   0  0  0  0  0  0  0  0  0  0  0  0
   46.3570   33.9747   36.8618 H   0  0  0  0  0  0  0  0  0  0  0  0
   46.8355   32.3408   37.3927 H   0  0  0  0  0  0  0  0  0  0  0  0
   48.9962   32.9987   37.7367 H   0  0  0  0  0  0  0  0  0  0  0  0
   48.6243   34.4495   36.8354 H   0  0  0  0  0  0  0  0  0  0  0  0
   49.3612   34.6657   39.4619 H   0  0  0  0  0  0  0  0  0  0  0  0
   48.0847   35.7093   38.9472 H   0  0  0  0  0  0  0  0  0  0  0  0
   47.8052   32.8336   40.1733 H   0  0  0  0  0  0  0  0  0  0  0  0
  1  4  1  0
  2  7  2  0
  3  2  1  0
  4  3  2  0
  4  5  1  0
  5  6  2  0
  6  7  1  0
  8  1  1  0
  9 13  1  0
 10 11  1  0
 10  9  1  0
 11 12  1  0
 12 13  1  0
 13  8  1  0
  1 14  1  0
  1 15  1  0
  2 16  1  0
  3 17  1  0
  6 18  1  0
  8 19  1  0
  9 20  1  0
 10 21  1  0
 10 22  1  0
 11 23  1  0
 11 24  1  0
 12 25  1  0
 12 26  1  0
 13 27  1  1
M  ISO  8  14   8  15   8  16  14  17  14  18  14  19   5  20   5  21  13
M  ISO  6  22  13  23  13  24  13  25  13  26  13  27  13
M  END
>  <minimizedAffinity>  (1) 
-3.8895421

>  <minimizedRMSD>  (1) 
1.68100488

$$$$
