
     RDKit          3D

 20 21  0  0  1  0  0  0  0  0999 V2000
   44.6580   36.0460   44.3370 C   0  0  0  0  0  0  0  0  0  0  0  0
   45.3800   35.9600   43.1220 C   0  0  0  0  0  0  0  0  0  0  0  0
   46.2090   34.8680   42.9640 C   0  0  0  0  0  0  0  0  0  0  0  0
   46.2960   33.9310   43.9750 N   0  0  0  0  0  0  0  0  0  0  0  0
   45.5880   34.0560   45.1160 C   0  0  0  0  0  0  0  0  0  0  0  0
   44.7720   35.1070   45.3000 N   0  0  0  0  0  0  0  0  0  0  0  0
   46.9670   34.7340   41.6900 C   0  0  1  0  0  0  0  0  0  0  0  0
   48.2880   35.4960   41.6700 C   0  0  0  0  0  0  0  0  0  0  0  0
   48.2360   33.9980   41.6550 C   0  0  1  0  0  0  0  0  0  0  0  0
   48.8300   33.3900   42.9110 C   0  0  0  0  0  0  0  0  0  0  0  0
   43.9859   36.9013   44.5006 H   0  0  0  0  0  0  0  0  0  0  0  0
   45.2846   36.7280   42.3403 H   0  0  0  0  0  0  0  0  0  0  0  0
   45.6794   33.2917   45.9018 H   0  0  0  0  0  0  0  0  0  0  0  0
   46.0549   34.6682   41.0786 H   0  0  0  0  0  0  0  0  0  0  0  0
   48.5960   36.0500   40.7710 H   0  0  0  0  0  0  0  0  0  0  0  0
   48.7663   36.2627   42.2972 H   0  0  0  0  0  0  0  0  0  0  0  0
   48.5653   33.1719   41.0076 H   0  0  0  0  0  0  0  0  0  0  0  0
   48.3734   33.8574   43.7959 H   0  0  0  0  0  0  0  0  0  0  0  0
   48.6313   32.3082   42.9240 H   0  0  0  0  0  0  0  0  0  0  0  0
   49.9162   33.5635   42.9240 H   0  0  0  0  0  0  0  0  0  0  0  0
  1  6  2  0
  2  1  1  0
  3  2  2  0
  3  4  1  0
  4  5  2  0
  5  6  1  0
  7  3  1  0
  8  7  1  0
  9  8  1  0
  9  7  1  0
  9 10  1  0
  1 11  1  0
  2 12  1  0
  5 13  1  0
  7 14  1  6
  8 15  1  0
  8 16  1  0
  9 17  1  6
 10 18  1  0
 10 19  1  0
 10 20  1  0
M  ISO  8  11  14  12  14  13  14  14  13  15  13  16  13  17  13  18   8
M  ISO  2  19   8  20   8
M  END
>  <minimizedAffinity>  (1) 
-3.9320581

>  <minimizedRMSD>  (1) 
0.128023058

$$$$
