
     RDKit          3D

 40 43  0  0  1  0  0  0  0  0999 V2000
   47.4920   33.5460   40.1490 N   0  0  0  0  0  0  0  0  0  0  0  0
   48.2090   34.5680   39.4180 C   0  0  0  0  0  0  0  0  0  0  0  0
   48.7490   35.5310   40.4170 C   0  0  0  0  0  0  0  0  0  0  0  0
   48.0950   35.0690   41.7150 C   0  0  0  0  0  0  0  0  0  0  0  0
   48.0620   33.5940   41.5050 C   0  0  2  0  0  0  0  0  0  0  0  0
   49.3680   33.0210   41.4220 N   0  0  0  0  0  0  0  0  0  0  0  0
   50.3180   33.4570   42.3080 C   0  0  0  0  0  0  0  0  0  0  0  0
   51.5170   32.8320   42.1250 N   0  0  0  0  0  0  0  0  0  0  0  0
   51.3650   31.9720   41.1080 C   0  0  0  0  0  0  0  0  0  0  0  0
   52.0940   31.0500   40.3960 C   0  0  0  0  0  0  0  0  0  0  0  0
   51.6110   30.3200   39.3810 N   0  0  0  0  0  0  0  0  0  0  0  0
   50.3250   30.4970   39.0320 C   0  0  0  0  0  0  0  0  0  0  0  0
   49.5870   31.3900   39.7070 N   0  0  0  0  0  0  0  0  0  0  0  0
   50.0540   32.1160   40.7090 C   0  0  0  0  0  0  0  0  0  0  0  0
   53.4670   30.8850   40.7960 N   0  0  0  0  0  0  0  0  0  0  0  0
   47.1880   32.9660   42.4440 N   0  0  0  0  0  0  0  0  0  0  0  0
   45.8490   33.3740   42.1540 C   0  0  0  0  0  0  0  0  0  0  0  0
   44.4050   35.9240   44.5980 C   0  0  0  0  0  0  0  0  0  0  0  0
   44.7420   35.4110   43.3500 C   0  0  0  0  0  0  0  0  0  0  0  0
   45.3770   34.1590   43.3590 C   0  0  0  0  0  0  0  0  0  0  0  0
   45.6110   33.5510   44.5540 N   0  0  0  0  0  0  0  0  0  0  0  0
   45.2680   34.0820   45.7510 C   0  0  0  0  0  0  0  0  0  0  0  0
   44.6510   35.3000   45.7400 N   0  0  0  0  0  0  0  0  0  0  0  0
   47.6429   32.6203   39.7233 H   0  0  0  0  0  0  0  0  0  0  0  0
   49.0336   34.1147   38.8483 H   0  0  0  0  0  0  0  0  0  0  0  0
   47.5426   35.0778   38.7066 H   0  0  0  0  0  0  0  0  0  0  0  0
   49.8452   35.4647   40.4796 H   0  0  0  0  0  0  0  0  0  0  0  0
   48.5357   36.5816   40.1704 H   0  0  0  0  0  0  0  0  0  0  0  0
   48.7017   35.3391   42.5919 H   0  0  0  0  0  0  0  0  0  0  0  0
   47.1125   35.5215   41.9148 H   0  0  0  0  0  0  0  0  0  0  0  0
   50.1353   34.2218   43.0772 H   0  0  0  0  0  0  0  0  0  0  0  0
   49.8853   29.9186   38.2061 H   0  0  0  0  0  0  0  0  0  0  0  0
   54.0693   30.2099   40.3037 H   0  0  0  0  0  0  0  0  0  0  0  0
   53.8471   31.4421   41.5745 H   0  0  0  0  0  0  0  0  0  0  0  0
   47.2657   31.9423   42.3613 H   0  0  0  0  0  0  0  0  0  0  0  0
   45.8295   34.0072   41.2547 H   0  0  0  0  0  0  0  0  0  0  0  0
   45.1990   32.5081   41.9597 H   0  0  0  0  0  0  0  0  0  0  0  0
   43.9059   36.9034   44.6389 H   0  0  0  0  0  0  0  0  0  0  0  0
   44.5251   35.9511   42.4166 H   0  0  0  0  0  0  0  0  0  0  0  0
   45.4776   33.5543   46.6931 H   0  0  0  0  0  0  0  0  0  0  0  0
  1  5  1  0
  2  1  1  0
  2  3  1  0
  3  4  1  0
  5  4  1  0
  5 16  1  1
  6  5  1  0
  6  7  1  0
  8  7  2  0
  9  8  1  0
 10 15  1  0
 10  9  2  0
 11 10  1  0
 12 11  2  0
 12 13  1  0
 13 14  2  0
 14  9  1  0
 14  6  1  0
 17 16  1  0
 17 20  1  0
 18 23  2  0
 19 20  2  0
 19 18  1  0
 20 21  1  0
 21 22  2  0
 23 22  1  0
  1 24  1  0
  2 25  1  0
  2 26  1  0
  3 27  1  0
  3 28  1  0
  4 29  1  0
  4 30  1  0
  7 31  1  0
 12 32  1  0
 15 33  1  0
 15 34  1  0
 16 35  1  0
 17 36  1  0
 17 37  1  0
 18 38  1  0
 19 39  1  0
 22 40  1  0
M  ISO  8  24   5  25  13  26  13  27  13  28  13  29  13  30  13  31  14
M  ISO  7  32  14  35   5  36   8  37   8  38  14  39  14  40  14
M  END
>  <minimizedAffinity>  (1) 
-5.35625124

>  <minimizedRMSD>  (1) 
2.380548

$$$$
