
     RDKit          3D

 41 44  0  0  1  0  0  0  0  0999 V2000
   45.9390   33.8310   39.9000 N   0  0  0  0  0  0  0  0  0  0  0  0
   46.2830   33.3700   38.5740 C   0  0  0  0  0  0  0  0  0  0  0  0
   47.7460   33.6120   38.3910 C   0  0  0  0  0  0  0  0  0  0  0  0
   48.0800   34.5030   39.5890 C   0  0  0  0  0  0  0  0  0  0  0  0
   47.2040   33.9000   40.6220 C   0  0  2  0  0  0  0  0  0  0  0  0
   47.6850   32.5920   40.9690 N   0  0  0  0  0  0  0  0  0  0  0  0
   46.7460   31.6420   41.2590 C   0  0  0  0  0  0  0  0  0  0  0  0
   47.3440   30.4790   41.5620 N   0  0  0  0  0  0  0  0  0  0  0  0
   48.6710   30.6590   41.4720 C   0  0  0  0  0  0  0  0  0  0  0  0
   49.7910   29.8730   41.6550 C   0  0  0  0  0  0  0  0  0  0  0  0
   49.6230   28.6840   41.9880 O   0  0  0  0  0  0  0  0  0  0  0  0
   50.9900   30.4570   41.4570 N   0  0  0  0  0  0  0  0  0  0  0  0
   51.1470   31.7450   41.0960 C   0  0  0  0  0  0  0  0  0  0  0  0
   52.4830   32.2040   40.9280 N   0  0  0  0  0  0  0  0  0  0  0  0
   50.0520   32.5300   40.9130 N   0  0  0  0  0  0  0  0  0  0  0  0
   48.8510   31.9760   41.1020 C   0  0  0  0  0  0  0  0  0  0  0  0
   47.1090   34.7300   41.7770 N   0  0  0  0  0  0  0  0  0  0  0  0
   45.7280   35.0860   41.9550 C   0  0  0  0  0  0  0  0  0  0  0  0
   44.5410   35.3830   45.5770 C   0  0  0  0  0  0  0  0  0  0  0  0
   44.6580   35.7450   44.2370 C   0  0  0  0  0  0  0  0  0  0  0  0
   45.4470   34.9140   43.4310 C   0  0  0  0  0  0  0  0  0  0  0  0
   46.0410   33.8260   43.9940 N   0  0  0  0  0  0  0  0  0  0  0  0
   45.9090   33.4970   45.3050 C   0  0  0  0  0  0  0  0  0  0  0  0
   45.1380   34.3130   46.0810 N   0  0  0  0  0  0  0  0  0  0  0  0
   45.2977   33.1676   40.3578 H   0  0  0  0  0  0  0  0  0  0  0  0
   46.0633   32.2964   38.4789 H   0  0  0  0  0  0  0  0  0  0  0  0
   45.6991   33.9040   37.8099 H   0  0  0  0  0  0  0  0  0  0  0  0
   48.3131   32.6700   38.4245 H   0  0  0  0  0  0  0  0  0  0  0  0
   48.0003   34.0638   37.4209 H   0  0  0  0  0  0  0  0  0  0  0  0
   49.1425   34.4321   39.8649 H   0  0  0  0  0  0  0  0  0  0  0  0
   47.9200   35.5783   39.4211 H   0  0  0  0  0  0  0  0  0  0  0  0
   45.6585   31.8066   41.2460 H   0  0  0  0  0  0  0  0  0  0  0  0
   51.8358   29.8843   41.5896 H   0  0  0  0  0  0  0  0  0  0  0  0
   52.6613   33.1803   40.6525 H   0  0  0  0  0  0  0  0  0  0  0  0
   53.2720   31.5600   41.0818 H   0  0  0  0  0  0  0  0  0  0  0  0
   47.4475   34.2181   42.6042 H   0  0  0  0  0  0  0  0  0  0  0  0
   45.5590   36.1298   41.6517 H   0  0  0  0  0  0  0  0  0  0  0  0
   45.0651   34.4594   41.3402 H   0  0  0  0  0  0  0  0  0  0  0  0
   43.9292   36.0098   46.2425 H   0  0  0  0  0  0  0  0  0  0  0  0
   44.1570   36.6369   43.8327 H   0  0  0  0  0  0  0  0  0  0  0  0
   46.4036   32.6085   45.7245 H   0  0  0  0  0  0  0  0  0  0  0  0
  1  5  1  0
  2  1  1  0
  3  2  1  0
  3  4  1  0
  4  5  1  0
  5  6  1  0
  5 17  1  1
  6 16  1  0
  6  7  1  0
  7  8  2  0
  9  8  1  0
  9 10  1  0
 10 11  2  0
 12 10  1  0
 13 12  1  0
 14 13  1  0
 15 13  2  0
 15 16  1  0
 16  9  2  0
 17 18  1  0
 18 21  1  0
 19 24  2  0
 20 19  1  0
 21 22  1  0
 21 20  2  0
 22 23  2  0
 23 24  1  0
  1 25  1  0
  2 26  1  0
  2 27  1  0
  3 28  1  0
  3 29  1  0
  4 30  1  0
  4 31  1  0
  7 32  1  0
 12 33  1  0
 14 34  1  0
 14 35  1  0
 17 36  1  0
 18 37  1  0
 18 38  1  0
 19 39  1  0
 20 40  1  0
 23 41  1  0
M  ISO  8  25   5  26  13  27  13  28  13  29  13  30  13  31  13  32  14
M  ISO  7  33   9  36   5  37   8  38   8  39  14  40  14  41  14
M  END
>  <minimizedAffinity>  (1) 
-5.21794939

>  <minimizedRMSD>  (1) 
1.06414974

$$$$
