
     RDKit          3D

 41 44  0  0  1  0  0  0  0  0999 V2000
   46.0500   33.9150   39.7450 N   0  0  0  0  0  0  0  0  0  0  0  0
   46.5790   33.3520   38.5210 C   0  0  0  0  0  0  0  0  0  0  0  0
   48.0360   33.6110   38.5150 C   0  0  0  0  0  0  0  0  0  0  0  0
   48.1520   34.6380   39.6670 C   0  0  0  0  0  0  0  0  0  0  0  0
   47.2300   34.0100   40.6430 C   0  0  2  0  0  0  0  0  0  0  0  0
   47.4560   32.6080   41.0090 C   0  0  0  0  0  0  0  0  0  0  0  0
   46.5810   31.5930   40.8900 N   0  0  0  0  0  0  0  0  0  0  0  0
   46.8270   30.3180   41.2190 C   0  0  0  0  0  0  0  0  0  0  0  0
   48.0100   29.9130   41.7130 N   0  0  0  0  0  0  0  0  0  0  0  0
   48.9570   30.8560   41.8700 C   0  0  0  0  0  0  0  0  0  0  0  0
   50.1770   30.4720   42.3820 C   0  0  0  0  0  0  0  0  0  0  0  0
   51.1800   31.3990   42.5690 C   0  0  0  0  0  0  0  0  0  0  0  0
   50.9360   32.7180   42.2350 C   0  0  0  0  0  0  0  0  0  0  0  0
   49.7110   33.0510   41.7320 C   0  0  0  0  0  0  0  0  0  0  0  0
   48.6630   32.1580   41.5210 C   0  0  0  0  0  0  0  0  0  0  0  0
   46.9020   34.9020   41.7080 N   0  0  0  0  0  0  0  0  0  0  0  0
   45.4930   34.8630   41.9270 C   0  0  0  0  0  0  0  0  0  0  0  0
   44.5420   35.3970   45.5960 C   0  0  0  0  0  0  0  0  0  0  0  0
   44.6000   35.6970   44.2200 C   0  0  0  0  0  0  0  0  0  0  0  0
   45.3000   34.7810   43.4170 C   0  0  0  0  0  0  0  0  0  0  0  0
   45.8650   33.6900   44.0030 N   0  0  0  0  0  0  0  0  0  0  0  0
   45.7910   33.4320   45.3340 C   0  0  0  0  0  0  0  0  0  0  0  0
   45.1120   34.3190   46.1140 N   0  0  0  0  0  0  0  0  0  0  0  0
   45.3315   33.2981   40.1501 H   0  0  0  0  0  0  0  0  0  0  0  0
   46.3885   32.2690   38.4910 H   0  0  0  0  0  0  0  0  0  0  0  0
   46.0978   33.8059   37.6421 H   0  0  0  0  0  0  0  0  0  0  0  0
   48.6106   32.6974   38.7276 H   0  0  0  0  0  0  0  0  0  0  0  0
   48.4326   33.9612   37.5506 H   0  0  0  0  0  0  0  0  0  0  0  0
   49.1788   34.7051   40.0559 H   0  0  0  0  0  0  0  0  0  0  0  0
   47.9127   35.6769   39.3960 H   0  0  0  0  0  0  0  0  0  0  0  0
   46.0297   29.5731   41.0795 H   0  0  0  0  0  0  0  0  0  0  0  0
   50.3520   29.4180   42.6435 H   0  0  0  0  0  0  0  0  0  0  0  0
   52.1556   31.0950   42.9761 H   0  0  0  0  0  0  0  0  0  0  0  0
   51.7133   33.4842   42.3717 H   0  0  0  0  0  0  0  0  0  0  0  0
   49.5384   34.1061   41.4734 H   0  0  0  0  0  0  0  0  0  0  0  0
   47.3932   34.6118   42.5656 H   0  0  0  0  0  0  0  0  0  0  0  0
   45.0205   35.7741   41.5312 H   0  0  0  0  0  0  0  0  0  0  0  0
   45.0323   34.0047   41.4161 H   0  0  0  0  0  0  0  0  0  0  0  0
   44.0031   36.0839   46.2651 H   0  0  0  0  0  0  0  0  0  0  0  0
   44.1250   36.5957   43.7995 H   0  0  0  0  0  0  0  0  0  0  0  0
   46.2629   32.5379   45.7675 H   0  0  0  0  0  0  0  0  0  0  0  0
  1  5  1  0
  2  1  1  0
  3  2  1  0
  3  4  1  0
  4  5  1  0
  5  6  1  0
  5 16  1  1
  6 15  1  0
  7  6  2  0
  7  8  1  0
  8  9  2  0
  9 10  1  0
 10 11  2  0
 11 12  1  0
 13 12  2  0
 14 13  1  0
 15 14  2  0
 15 10  1  0
 16 17  1  0
 17 20  1  0
 18 23  2  0
 19 18  1  0
 20 21  1  0
 20 19  2  0
 21 22  2  0
 22 23  1  0
  1 24  1  0
  2 25  1  0
  2 26  1  0
  3 27  1  0
  3 28  1  0
  4 29  1  0
  4 30  1  0
  8 31  1  0
 11 32  1  0
 12 33  1  0
 13 34  1  0
 14 35  1  0
 16 36  1  0
 17 37  1  0
 17 38  1  0
 18 39  1  0
 19 40  1  0
 22 41  1  0
M  ISO  8  24   5  25  13  26  13  27  13  28  13  29  13  30  13  31  14
M  ISO  8  32  14  33  14  34  14  35  14  36   5  37   8  38   8  39  14
M  ISO  2  40  14  41  14
M  END
>  <minimizedAffinity>  (1) 
-5.05380392

>  <minimizedRMSD>  (1) 
1.06569493

$$$$
