
     RDKit          3D

 41 44  0  0  1  0  0  0  0  0999 V2000
   46.2190   33.7130   39.0100 N   0  0  0  0  0  0  0  0  0  0  0  0
   46.9300   33.3330   37.8150 C   0  0  0  0  0  0  0  0  0  0  0  0
   48.3340   33.8120   37.9750 C   0  0  0  0  0  0  0  0  0  0  0  0
   48.2740   34.6580   39.2330 C   0  0  0  0  0  0  0  0  0  0  0  0
   47.2150   33.9020   40.0350 C   0  0  2  0  0  0  0  0  0  0  0  0
   47.7980   32.6310   40.5100 C   0  0  0  0  0  0  0  0  0  0  0  0
   47.2130   31.3730   40.3140 C   0  0  0  0  0  0  0  0  0  0  0  0
   47.9600   30.3740   40.8180 N   0  0  0  0  0  0  0  0  0  0  0  0
   49.0620   30.9140   41.3670 C   0  0  0  0  0  0  0  0  0  0  0  0
   50.1770   30.4090   42.0270 C   0  0  0  0  0  0  0  0  0  0  0  0
   51.1820   31.2060   42.5000 C   0  0  0  0  0  0  0  0  0  0  0  0
   51.0550   32.5560   42.2990 C   0  0  0  0  0  0  0  0  0  0  0  0
   49.9580   33.0740   41.6490 C   0  0  0  0  0  0  0  0  0  0  0  0
   48.9490   32.2740   41.1720 C   0  0  0  0  0  0  0  0  0  0  0  0
   46.7600   34.6700   41.1240 N   0  0  0  0  0  0  0  0  0  0  0  0
   45.3620   34.4200   41.3800 C   0  0  0  0  0  0  0  0  0  0  0  0
   44.4830   35.9020   44.7490 C   0  0  0  0  0  0  0  0  0  0  0  0
   44.6210   35.7440   43.3750 C   0  0  0  0  0  0  0  0  0  0  0  0
   45.1980   34.5960   42.8680 C   0  0  0  0  0  0  0  0  0  0  0  0
   45.6070   33.6600   43.7700 N   0  0  0  0  0  0  0  0  0  0  0  0
   45.4680   33.8240   45.0930 C   0  0  0  0  0  0  0  0  0  0  0  0
   44.9050   34.9500   45.5660 N   0  0  0  0  0  0  0  0  0  0  0  0
   45.5618   32.9691   39.2850 H   0  0  0  0  0  0  0  0  0  0  0  0
   46.4680   33.8031   36.9344 H   0  0  0  0  0  0  0  0  0  0  0  0
   46.9001   32.2432   37.6689 H   0  0  0  0  0  0  0  0  0  0  0  0
   49.0265   32.9668   38.1014 H   0  0  0  0  0  0  0  0  0  0  0  0
   48.7010   34.3682   37.0998 H   0  0  0  0  0  0  0  0  0  0  0  0
   49.2417   34.6757   39.7557 H   0  0  0  0  0  0  0  0  0  0  0  0
   48.0421   35.7190   39.0582 H   0  0  0  0  0  0  0  0  0  0  0  0
   46.2502   31.2193   39.8047 H   0  0  0  0  0  0  0  0  0  0  0  0
   47.7281   29.3709   40.7884 H   0  0  0  0  0  0  0  0  0  0  0  0
   50.2536   29.3217   42.1748 H   0  0  0  0  0  0  0  0  0  0  0  0
   52.0544   30.7825   43.0192 H   0  0  0  0  0  0  0  0  0  0  0  0
   51.8407   33.2347   42.6622 H   0  0  0  0  0  0  0  0  0  0  0  0
   49.8873   34.1625   41.5072 H   0  0  0  0  0  0  0  0  0  0  0  0
   47.3059   34.4239   41.9621 H   0  0  0  0  0  0  0  0  0  0  0  0
   44.7346   35.1402   40.8344 H   0  0  0  0  0  0  0  0  0  0  0  0
   45.0547   33.4176   41.0471 H   0  0  0  0  0  0  0  0  0  0  0  0
   44.0245   36.8153   45.1561 H   0  0  0  0  0  0  0  0  0  0  0  0
   44.2711   36.5323   42.6922 H   0  0  0  0  0  0  0  0  0  0  0  0
   45.8120   33.0430   45.7870 H   0  0  0  0  0  0  0  0  0  0  0  0
  1  5  1  0
  2  3  1  0
  2  1  1  0
  3  4  1  0
  4  5  1  0
  5  6  1  0
  5 15  1  1
  6 14  1  0
  7  6  2  0
  7  8  1  0
  8  9  1  0
  9 10  2  0
 10 11  1  0
 12 11  2  0
 13 12  1  0
 14  9  1  0
 14 13  2  0
 15 16  1  0
 16 19  1  0
 17 22  2  0
 18 17  1  0
 19 18  2  0
 19 20  1  0
 20 21  2  0
 21 22  1  0
  1 23  1  0
  2 24  1  0
  2 25  1  0
  3 26  1  0
  3 27  1  0
  4 28  1  0
  4 29  1  0
  7 30  1  0
  8 31  1  0
 10 32  1  0
 11 33  1  0
 12 34  1  0
 13 35  1  0
 15 36  1  0
 16 37  1  0
 16 38  1  0
 17 39  1  0
 18 40  1  0
 21 41  1  0
M  ISO  8  23   5  24  13  25  13  26  13  27  13  28  13  29  13  30  14
M  ISO  8  31   9  32  14  33  14  34  14  35  14  36   5  37   8  38   8
M  ISO  3  39  14  40  14  41  14
M  END
>  <minimizedAffinity>  (1) 
-5.0058279

>  <minimizedRMSD>  (1) 
0.434414238

$$$$
