
     RDKit          3D

 38 41  0  0  1  0  0  0  0  0999 V2000
   46.2570   33.7170   39.2160 N   0  0  0  0  0  0  0  0  0  0  0  0
   46.9060   33.2900   37.9940 C   0  0  0  0  0  0  0  0  0  0  0  0
   48.2940   33.8240   38.0210 C   0  0  0  0  0  0  0  0  0  0  0  0
   48.2840   34.7200   39.2600 C   0  0  0  0  0  0  0  0  0  0  0  0
   47.3700   33.9660   40.1440 C   0  0  2  0  0  0  0  0  0  0  0  0
   47.9600   32.7200   40.5590 N   0  0  0  0  0  0  0  0  0  0  0  0
   47.3080   31.5520   40.2810 C   0  0  0  0  0  0  0  0  0  0  0  0
   48.0020   30.4840   40.7390 N   0  0  0  0  0  0  0  0  0  0  0  0
   49.1140   30.9560   41.3220 C   0  0  0  0  0  0  0  0  0  0  0  0
   50.2140   30.4220   41.9680 C   0  0  0  0  0  0  0  0  0  0  0  0
   51.1730   31.2380   42.4420 N   0  0  0  0  0  0  0  0  0  0  0  0
   51.0870   32.5770   42.3000 C   0  0  0  0  0  0  0  0  0  0  0  0
   50.0250   33.1200   41.6750 N   0  0  0  0  0  0  0  0  0  0  0  0
   49.0560   32.3370   41.1930 C   0  0  0  0  0  0  0  0  0  0  0  0
   46.9400   34.7610   41.2520 N   0  0  0  0  0  0  0  0  0  0  0  0
   45.5420   34.5160   41.4520 C   0  0  0  0  0  0  0  0  0  0  0  0
   44.5350   35.7440   44.9290 C   0  0  0  0  0  0  0  0  0  0  0  0
   44.6530   35.8020   43.5340 C   0  0  0  0  0  0  0  0  0  0  0  0
   45.2910   34.7070   42.9270 C   0  0  0  0  0  0  0  0  0  0  0  0
   45.7410   33.6900   43.7130 N   0  0  0  0  0  0  0  0  0  0  0  0
   45.6090   33.6710   45.0620 C   0  0  0  0  0  0  0  0  0  0  0  0
   44.9900   34.7330   45.6540 N   0  0  0  0  0  0  0  0  0  0  0  0
   45.6370   32.9786   39.5782 H   0  0  0  0  0  0  0  0  0  0  0  0
   46.3663   33.6881   37.1221 H   0  0  0  0  0  0  0  0  0  0  0  0
   46.9121   32.1926   37.9190 H   0  0  0  0  0  0  0  0  0  0  0  0
   49.0295   33.0125   38.1240 H   0  0  0  0  0  0  0  0  0  0  0  0
   48.5759   34.3551   37.0999 H   0  0  0  0  0  0  0  0  0  0  0  0
   49.2878   34.8121   39.7004 H   0  0  0  0  0  0  0  0  0  0  0  0
   47.9755   35.7581   39.0672 H   0  0  0  0  0  0  0  0  0  0  0  0
   46.3447   31.4879   39.7537 H   0  0  0  0  0  0  0  0  0  0  0  0
   50.3047   29.3330   42.0940 H   0  0  0  0  0  0  0  0  0  0  0  0
   51.8838   33.2246   42.6945 H   0  0  0  0  0  0  0  0  0  0  0  0
   47.4662   34.4974   42.0973 H   0  0  0  0  0  0  0  0  0  0  0  0
   44.9420   35.2287   40.8672 H   0  0  0  0  0  0  0  0  0  0  0  0
   45.2602   33.5046   41.1239 H   0  0  0  0  0  0  0  0  0  0  0  0
   44.0404   36.5787   45.4474 H   0  0  0  0  0  0  0  0  0  0  0  0
   44.2700   36.6520   42.9502 H   0  0  0  0  0  0  0  0  0  0  0  0
   45.9879   32.8283   45.6589 H   0  0  0  0  0  0  0  0  0  0  0  0
  1  5  1  0
  2  3  1  0
  2  1  1  0
  3  4  1  0
  4  5  1  0
  5  6  1  0
  5 15  1  1
  6 14  1  0
  7  6  1  0
  7  8  2  0
  8  9  1  0
  9 10  2  0
 10 11  1  0
 12 11  2  0
 13 12  1  0
 14  9  1  0
 14 13  2  0
 15 16  1  0
 16 19  1  0
 17 22  2  0
 18 17  1  0
 19 18  2  0
 19 20  1  0
 20 21  2  0
 21 22  1  0
  1 23  1  0
  2 24  1  0
  2 25  1  0
  3 26  1  0
  3 27  1  0
  4 28  1  0
  4 29  1  0
  7 30  1  0
 10 31  1  0
 12 32  1  0
 15 33  1  0
 16 34  1  0
 16 35  1  0
 17 36  1  0
 18 37  1  0
 21 38  1  0
M  ISO  8  23   5  24  13  25  13  26  13  27  13  28  13  29  13  30  14
M  ISO  8  31  14  32  14  33   5  34   8  35   8  36  14  37  14  38  14
M  END
>  <minimizedAffinity>  (1) 
-4.83195448

>  <minimizedRMSD>  (1) 
1.70253074

$$$$
