
     RDKit          3D

 40 42  0  0  1  0  0  0  0  0999 V2000
   46.6510   33.7440   40.4550 N   0  0  0  0  0  0  0  0  0  0  0  0
   47.1010   33.3980   39.1310 C   0  0  0  0  0  0  0  0  0  0  0  0
   48.2720   34.2760   38.8340 C   0  0  0  0  0  0  0  0  0  0  0  0
   48.4020   35.1490   40.0670 C   0  0  0  0  0  0  0  0  0  0  0  0
   47.8110   34.2850   41.1380 C   0  0  2  0  0  0  0  0  0  0  0  0
   50.5420   31.1900   42.4850 C   0  0  0  0  0  0  0  0  0  0  0  0
   50.9710   32.4560   42.2330 C   0  0  0  0  0  0  0  0  0  0  0  0
   50.0850   33.4190   41.8100 C   0  0  0  0  0  0  0  0  0  0  0  0
   48.7360   33.2380   41.6010 C   0  0  0  0  0  0  0  0  0  0  0  0
   48.3670   31.9320   41.8750 C   0  0  0  0  0  0  0  0  0  0  0  0
   49.2070   30.9250   42.3010 C   0  0  0  0  0  0  0  0  0  0  0  0
   51.6390   29.9490   43.0210 S   0  0  0  0  0  0  0  0  0  0  0  0
   52.3670   30.3220   44.2840 O   0  0  0  0  0  0  0  0  0  0  0  0
   52.6860   29.6680   41.9610 O   0  0  0  0  0  0  0  0  0  0  0  0
   47.4250   35.0930   42.2560 N   0  0  0  0  0  0  0  0  0  0  0  0
   45.9920   35.1670   42.3430 C   0  0  0  0  0  0  0  0  0  0  0  0
   44.4960   35.2370   45.8280 C   0  0  0  0  0  0  0  0  0  0  0  0
   44.7620   35.5940   44.5110 C   0  0  0  0  0  0  0  0  0  0  0  0
   45.6560   34.8340   43.7740 C   0  0  0  0  0  0  0  0  0  0  0  0
   46.2250   33.7660   44.4050 N   0  0  0  0  0  0  0  0  0  0  0  0
   45.9600   33.4360   45.6700 C   0  0  0  0  0  0  0  0  0  0  0  0
   45.0900   34.1810   46.3770 N   0  0  0  0  0  0  0  0  0  0  0  0
   46.3036   32.9077   40.9457 H   0  0  0  0  0  0  0  0  0  0  0  0
   47.4015   32.3404   39.0968 H   0  0  0  0  0  0  0  0  0  0  0  0
   46.3004   33.5413   38.3904 H   0  0  0  0  0  0  0  0  0  0  0  0
   49.1815   33.6760   38.6827 H   0  0  0  0  0  0  0  0  0  0  0  0
   48.1368   34.8629   37.9135 H   0  0  0  0  0  0  0  0  0  0  0  0
   49.4557   35.3819   40.2802 H   0  0  0  0  0  0  0  0  0  0  0  0
   47.9062   36.1259   39.9676 H   0  0  0  0  0  0  0  0  0  0  0  0
   52.0325   32.7109   42.3683 H   0  0  0  0  0  0  0  0  0  0  0  0
   50.4903   34.4241   41.6217 H   0  0  0  0  0  0  0  0  0  0  0  0
   47.3062   31.6740   41.7405 H   0  0  0  0  0  0  0  0  0  0  0  0
   48.8108   29.9168   42.4921 H   0  0  0  0  0  0  0  0  0  0  0  0
   50.8640   28.8448   43.2598 H   0  0  0  0  0  0  0  0  0  0  0  0
   47.7975   34.6768   43.1214 H   0  0  0  0  0  0  0  0  0  0  0  0
   45.6437   36.1799   42.0923 H   0  0  0  0  0  0  0  0  0  0  0  0
   45.5049   34.4764   41.6389 H   0  0  0  0  0  0  0  0  0  0  0  0
   43.7876   35.8334   46.4217 H   0  0  0  0  0  0  0  0  0  0  0  0
   44.2694   36.4681   44.0601 H   0  0  0  0  0  0  0  0  0  0  0  0
   46.4474   32.5641   46.1306 H   0  0  0  0  0  0  0  0  0  0  0  0
  1  5  1  0
  2  1  1  0
  3  2  1  0
  3  4  1  0
  4  5  1  0
  5  9  1  0
  5 15  1  1
  6 12  1  0
  7  6  2  0
  8  7  1  0
  9  8  2  0
  9 10  1  0
 10 11  2  0
 11  6  1  0
 12 13  2  0
 14 12  2  0
 15 16  1  0
 16 19  1  0
 17 22  2  0
 18 17  1  0
 19 20  1  0
 19 18  2  0
 20 21  2  0
 21 22  1  0
  1 23  1  0
  2 24  1  0
  2 25  1  0
  3 26  1  0
  3 27  1  0
  4 28  1  0
  4 29  1  0
  7 30  1  0
  8 31  1  0
 10 32  1  0
 11 33  1  0
 12 34  1  0
 15 35  1  0
 16 36  1  0
 16 37  1  0
 17 38  1  0
 18 39  1  0
 21 40  1  0
M  ISO  8  23   5  24  13  25  13  26  13  27  13  28  13  29  13  30  14
M  ISO  8  31  14  32  14  33  14  34  11  35   5  36   8  37   8  38  14
M  ISO  2  39  14  40  14
M  END
>  <minimizedAffinity>  (1) 
-4.74067354

>  <minimizedRMSD>  (1) 
2.04117966

$$$$
