
     RDKit          3D

 37 39  0  0  1  0  0  0  0  0999 V2000
   46.6160   33.7860   40.3510 N   0  0  0  0  0  0  0  0  0  0  0  0
   47.0800   33.4300   39.0350 C   0  0  0  0  0  0  0  0  0  0  0  0
   48.3120   34.2240   38.7690 C   0  0  0  0  0  0  0  0  0  0  0  0
   48.4000   35.1340   39.9740 C   0  0  0  0  0  0  0  0  0  0  0  0
   47.7930   34.2960   41.0540 C   0  0  2  0  0  0  0  0  0  0  0  0
   48.6400   33.1980   41.5530 C   0  0  0  0  0  0  0  0  0  0  0  0
   48.3110   31.8980   41.8120 C   0  0  0  0  0  0  0  0  0  0  0  0
   49.1700   30.9420   42.2990 C   0  0  0  0  0  0  0  0  0  0  0  0
   50.4700   31.2510   42.5670 C   0  0  0  0  0  0  0  0  0  0  0  0
   50.8790   32.5670   42.3260 C   0  0  0  0  0  0  0  0  0  0  0  0
   49.9780   33.5050   41.8310 C   0  0  0  0  0  0  0  0  0  0  0  0
   47.4080   35.1260   42.1620 N   0  0  0  0  0  0  0  0  0  0  0  0
   45.9750   35.1900   42.2340 C   0  0  0  0  0  0  0  0  0  0  0  0
   44.5210   35.2580   45.7500 C   0  0  0  0  0  0  0  0  0  0  0  0
   44.7330   35.6650   44.4380 C   0  0  0  0  0  0  0  0  0  0  0  0
   45.6300   34.8900   43.6770 C   0  0  0  0  0  0  0  0  0  0  0  0
   46.2230   33.8090   44.2550 N   0  0  0  0  0  0  0  0  0  0  0  0
   45.9800   33.4560   45.5400 C   0  0  0  0  0  0  0  0  0  0  0  0
   45.1200   34.1970   46.2770 N   0  0  0  0  0  0  0  0  0  0  0  0
   46.2372   32.9596   40.8352 H   0  0  0  0  0  0  0  0  0  0  0  0
   47.3092   32.3549   38.9949 H   0  0  0  0  0  0  0  0  0  0  0  0
   46.3091   33.6431   38.2798 H   0  0  0  0  0  0  0  0  0  0  0  0
   49.1952   33.5718   38.7013 H   0  0  0  0  0  0  0  0  0  0  0  0
   48.2764   34.7712   37.8154 H   0  0  0  0  0  0  0  0  0  0  0  0
   49.4450   35.3868   40.2063 H   0  0  0  0  0  0  0  0  0  0  0  0
   47.8956   36.1012   39.8322 H   0  0  0  0  0  0  0  0  0  0  0  0
   47.2733   31.5909   41.6146 H   0  0  0  0  0  0  0  0  0  0  0  0
   48.8052   29.9191   42.4739 H   0  0  0  0  0  0  0  0  0  0  0  0
   51.1691   30.4965   42.9569 H   0  0  0  0  0  0  0  0  0  0  0  0
   51.9191   32.8621   42.5290 H   0  0  0  0  0  0  0  0  0  0  0  0
   50.3316   34.5309   41.6504 H   0  0  0  0  0  0  0  0  0  0  0  0
   47.7786   34.7263   43.0360 H   0  0  0  0  0  0  0  0  0  0  0  0
   45.6202   36.1929   41.9542 H   0  0  0  0  0  0  0  0  0  0  0  0
   45.4990   34.4781   41.5436 H   0  0  0  0  0  0  0  0  0  0  0  0
   43.8286   35.8387   46.3772 H   0  0  0  0  0  0  0  0  0  0  0  0
   44.2270   36.5459   44.0161 H   0  0  0  0  0  0  0  0  0  0  0  0
   46.4756   32.5777   45.9792 H   0  0  0  0  0  0  0  0  0  0  0  0
  1  5  1  0
  2  1  1  0
  3  2  1  0
  3  4  1  0
  4  5  1  0
  5  6  1  0
  5 12  1  1
  6  7  2  0
  6 11  1  0
  7  8  1  0
  8  9  2  0
 10  9  1  0
 11 10  2  0
 12 13  1  0
 13 16  1  0
 14 19  2  0
 15 14  1  0
 16 17  1  0
 16 15  2  0
 17 18  2  0
 18 19  1  0
  1 20  1  0
  2 21  1  0
  2 22  1  0
  3 23  1  0
  3 24  1  0
  4 25  1  0
  4 26  1  0
  7 27  1  0
  8 28  1  0
  9 29  1  0
 10 30  1  0
 11 31  1  0
 12 32  1  0
 13 33  1  0
 13 34  1  0
 14 35  1  0
 15 36  1  0
 18 37  1  0
M  ISO  8  20   5  21  13  22  13  23  13  24  13  25  13  26  13  27  14
M  ISO  8  28  14  29  14  30  14  31  14  32   5  33   8  34   8  35  14
M  ISO  2  36  14  37  14
M  END
>  <minimizedAffinity>  (1) 
-4.7086277

>  <minimizedRMSD>  (1) 
1.72558498

$$$$
