
     RDKit          3D

 43 45  0  0  1  0  0  0  0  0999 V2000
   46.8270   32.8240   39.6640 N   0  0  0  0  0  0  0  0  0  0  0  0
   47.4330   33.0830   38.3620 C   0  0  0  0  0  0  0  0  0  0  0  0
   48.2720   34.2840   38.5080 C   0  0  0  0  0  0  0  0  0  0  0  0
   48.1070   34.6760   39.9630 C   0  0  0  0  0  0  0  0  0  0  0  0
   47.8150   33.3710   40.6100 C   0  0  2  0  0  0  0  0  0  0  0  0
   49.0250   32.5140   40.6510 C   0  0  0  0  0  0  0  0  0  0  0  0
   48.8340   31.0840   41.0060 C   0  0  0  0  0  0  0  0  0  0  0  0
   50.1850   30.3940   40.7350 C   0  0  0  0  0  0  0  0  0  0  0  0
   51.2950   31.0310   41.5010 C   0  0  0  0  0  0  0  0  0  0  0  0
   50.7530   32.0980   42.4370 C   0  0  0  0  0  0  0  0  0  0  0  0
   50.0520   33.1280   41.5770 C   0  0  0  0  0  0  0  0  0  0  0  0
   47.2190   33.5570   41.8920 N   0  0  0  0  0  0  0  0  0  0  0  0
   46.7180   34.9000   41.9700 C   0  0  0  0  0  0  0  0  0  0  0  0
   44.4790   35.8780   44.9070 C   0  0  0  0  0  0  0  0  0  0  0  0
   45.0580   35.9970   43.6340 C   0  0  0  0  0  0  0  0  0  0  0  0
   45.9750   34.9940   43.2770 C   0  0  0  0  0  0  0  0  0  0  0  0
   46.2350   33.9990   44.1690 N   0  0  0  0  0  0  0  0  0  0  0  0
   45.6540   33.9190   45.3900 C   0  0  0  0  0  0  0  0  0  0  0  0
   44.7630   34.8910   45.7420 N   0  0  0  0  0  0  0  0  0  0  0  0
   46.6918   31.8140   39.8141 H   0  0  0  0  0  0  0  0  0  0  0  0
   46.6502   33.2584   37.6093 H   0  0  0  0  0  0  0  0  0  0  0  0
   48.0335   32.2229   38.0309 H   0  0  0  0  0  0  0  0  0  0  0  0
   49.3240   34.0552   38.2822 H   0  0  0  0  0  0  0  0  0  0  0  0
   47.9798   35.0894   37.8181 H   0  0  0  0  0  0  0  0  0  0  0  0
   49.0298   35.1215   40.3629 H   0  0  0  0  0  0  0  0  0  0  0  0
   47.3283   35.4348   40.1297 H   0  0  0  0  0  0  0  0  0  0  0  0
   49.3625   32.4872   39.6044 H   0  0  0  0  0  0  0  0  0  0  0  0
   48.5615   30.9869   42.0673 H   0  0  0  0  0  0  0  0  0  0  0  0
   48.0240   30.6280   40.4179 H   0  0  0  0  0  0  0  0  0  0  0  0
   50.1103   29.3367   41.0290 H   0  0  0  0  0  0  0  0  0  0  0  0
   50.4097   30.4908   39.6626 H   0  0  0  0  0  0  0  0  0  0  0  0
   51.8151   30.2622   42.0913 H   0  0  0  0  0  0  0  0  0  0  0  0
   51.9921   31.5012   40.7918 H   0  0  0  0  0  0  0  0  0  0  0  0
   50.0413   31.6514   43.1469 H   0  0  0  0  0  0  0  0  0  0  0  0
   51.5652   32.5594   43.0179 H   0  0  0  0  0  0  0  0  0  0  0  0
   50.8054   33.6509   40.9697 H   0  0  0  0  0  0  0  0  0  0  0  0
   49.5221   33.8178   42.2503 H   0  0  0  0  0  0  0  0  0  0  0  0
   46.4444   32.8894   42.0154 H   0  0  0  0  0  0  0  0  0  0  0  0
   47.5499   35.6194   41.9513 H   0  0  0  0  0  0  0  0  0  0  0  0
   46.0631   35.1345   41.1179 H   0  0  0  0  0  0  0  0  0  0  0  0
   43.7544   36.6416   45.2261 H   0  0  0  0  0  0  0  0  0  0  0  0
   44.8086   36.8264   42.9559 H   0  0  0  0  0  0  0  0  0  0  0  0
   45.8934   33.0946   46.0778 H   0  0  0  0  0  0  0  0  0  0  0  0
  1  5  1  0
  2  3  1  0
  2  1  1  0
  3  4  1  0
  4  5  1  0
  5  6  1  0
  5 12  1  1
  6  7  1  0
  6 11  1  0
  8  7  1  0
  8  9  1  0
  9 10  1  0
 11 10  1  0
 12 13  1  0
 13 16  1  0
 14 19  2  0
 15 14  1  0
 16 15  2  0
 16 17  1  0
 17 18  2  0
 18 19  1  0
  1 20  1  0
  2 21  1  0
  2 22  1  0
  3 23  1  0
  3 24  1  0
  4 25  1  0
  4 26  1  0
  6 27  1  0
  7 28  1  0
  7 29  1  0
  8 30  1  0
  8 31  1  0
  9 32  1  0
  9 33  1  0
 10 34  1  0
 10 35  1  0
 11 36  1  0
 11 37  1  0
 12 38  1  0
 13 39  1  0
 13 40  1  0
 14 41  1  0
 15 42  1  0
 18 43  1  0
M  ISO  8  20   5  21  13  22  13  23  13  24  13  25  13  26  13  27  13
M  ISO  8  28  13  29  13  30  13  31  13  32  13  33  13  34  13  35  13
M  ISO  8  36  13  37  13  38   5  39   8  40   8  41  14  42  14  43  14
M  END
>  <minimizedAffinity>  (1) 
-4.54763365

>  <minimizedRMSD>  (1) 
1.84809613

$$$$
