
     RDKit          3D

 35 37  0  0  1  0  0  0  0  0999 V2000
   46.6090   33.8560   40.5370 N   0  0  0  0  0  0  0  0  0  0  0  0
   47.1050   33.5010   39.2250 C   0  0  0  0  0  0  0  0  0  0  0  0
   48.3550   34.2580   38.9970 C   0  0  0  0  0  0  0  0  0  0  0  0
   48.4140   35.2100   40.1850 C   0  0  0  0  0  0  0  0  0  0  0  0
   47.7650   34.3980   41.2500 C   0  0  2  0  0  0  0  0  0  0  0  0
   48.6650   33.3230   41.7030 C   0  0  0  0  0  0  0  0  0  0  0  0
   50.0250   33.2980   41.8430 C   0  0  0  0  0  0  0  0  0  0  0  0
   50.7620   32.2370   42.2710 C   0  0  0  0  0  0  0  0  0  0  0  0
   50.1490   31.0930   42.5970 N   0  0  0  0  0  0  0  0  0  0  0  0
   48.8080   31.0700   42.4740 C   0  0  0  0  0  0  0  0  0  0  0  0
   48.1070   32.1270   42.0510 N   0  0  0  0  0  0  0  0  0  0  0  0
   47.3480   35.2240   42.3420 N   0  0  0  0  0  0  0  0  0  0  0  0
   45.9120   35.2080   42.4260 C   0  0  0  0  0  0  0  0  0  0  0  0
   44.4680   35.1910   45.9510 C   0  0  0  0  0  0  0  0  0  0  0  0
   44.6840   35.6140   44.6230 C   0  0  0  0  0  0  0  0  0  0  0  0
   45.5900   34.8680   43.8610 C   0  0  0  0  0  0  0  0  0  0  0  0
   46.2030   33.7940   44.4310 N   0  0  0  0  0  0  0  0  0  0  0  0
   45.9810   33.4130   45.6930 C   0  0  0  0  0  0  0  0  0  0  0  0
   45.1020   34.1230   46.4590 N   0  0  0  0  0  0  0  0  0  0  0  0
   46.2429   33.0243   41.0220 H   0  0  0  0  0  0  0  0  0  0  0  0
   47.3078   32.4208   39.1808 H   0  0  0  0  0  0  0  0  0  0  0  0
   46.3606   33.7447   38.4527 H   0  0  0  0  0  0  0  0  0  0  0  0
   49.2258   33.5860   38.9877 H   0  0  0  0  0  0  0  0  0  0  0  0
   48.3705   34.7791   38.0284 H   0  0  0  0  0  0  0  0  0  0  0  0
   49.4524   35.4606   40.4476 H   0  0  0  0  0  0  0  0  0  0  0  0
   47.9305   36.1815   40.0050 H   0  0  0  0  0  0  0  0  0  0  0  0
   50.5720   34.2173   41.5869 H   0  0  0  0  0  0  0  0  0  0  0  0
   51.8562   32.3194   42.3486 H   0  0  0  0  0  0  0  0  0  0  0  0
   48.2689   30.1463   42.7314 H   0  0  0  0  0  0  0  0  0  0  0  0
   47.7484   34.8629   43.2196 H   0  0  0  0  0  0  0  0  0  0  0  0
   45.5016   36.1944   42.1643 H   0  0  0  0  0  0  0  0  0  0  0  0
   45.4728   34.4799   41.7281 H   0  0  0  0  0  0  0  0  0  0  0  0
   43.7636   35.7495   46.5849 H   0  0  0  0  0  0  0  0  0  0  0  0
   44.1646   36.4893   44.2058 H   0  0  0  0  0  0  0  0  0  0  0  0
   46.5006   32.5375   46.1094 H   0  0  0  0  0  0  0  0  0  0  0  0
  1  5  1  0
  2  1  1  0
  3  2  1  0
  3  4  1  0
  4  5  1  0
  5  6  1  0
  5 12  1  1
  6  7  2  0
  6 11  1  0
  7  8  1  0
  8  9  2  0
 10  9  1  0
 11 10  2  0
 12 13  1  0
 13 16  1  0
 14 19  2  0
 15 14  1  0
 16 17  1  0
 16 15  2  0
 17 18  2  0
 18 19  1  0
  1 20  1  0
  2 21  1  0
  2 22  1  0
  3 23  1  0
  3 24  1  0
  4 25  1  0
  4 26  1  0
  7 27  1  0
  8 28  1  0
 10 29  1  0
 12 30  1  0
 13 31  1  0
 13 32  1  0
 14 33  1  0
 15 34  1  0
 18 35  1  0
M  ISO  8  20   5  21  13  22  13  23  13  24  13  25  13  26  13  27  14
M  ISO  8  28  14  29  14  30   5  31   8  32   8  33  14  34  14  35  14
M  END
>  <minimizedAffinity>  (1) 
-4.49270916

>  <minimizedRMSD>  (1) 
1.91223335

$$$$
