
     RDKit          3D

 40 42  0  0  1  0  0  0  0  0999 V2000
   46.5760   33.6310   40.2440 N   0  0  0  0  0  0  0  0  0  0  0  0
   46.9120   33.4130   38.8500 C   0  0  0  0  0  0  0  0  0  0  0  0
   48.2340   34.0470   38.5960 C   0  0  0  0  0  0  0  0  0  0  0  0
   48.3480   34.9610   39.8100 C   0  0  0  0  0  0  0  0  0  0  0  0
   47.8240   34.0500   40.8790 C   0  0  2  0  0  0  0  0  0  0  0  0
   48.7090   32.9550   41.0650 N   0  0  0  0  0  0  0  0  0  0  0  0
   49.9230   33.3400   41.7330 C   0  0  0  0  0  0  0  0  0  0  0  0
   50.7320   32.1960   42.2430 C   0  0  0  0  0  0  0  0  0  0  0  0
   50.0250   31.1880   42.8660 O   0  0  0  0  0  0  0  0  0  0  0  0
   48.6600   31.4520   42.9390 C   0  0  0  0  0  0  0  0  0  0  0  0
   48.2200   31.7190   41.4980 C   0  0  0  0  0  0  0  0  0  0  0  0
   47.5770   34.7780   42.0790 N   0  0  0  0  0  0  0  0  0  0  0  0
   46.2000   35.1280   42.1520 C   0  0  0  0  0  0  0  0  0  0  0  0
   44.5390   35.3230   45.5720 C   0  0  0  0  0  0  0  0  0  0  0  0
   44.8330   35.6840   44.2410 C   0  0  0  0  0  0  0  0  0  0  0  0
   45.7740   34.8760   43.5790 C   0  0  0  0  0  0  0  0  0  0  0  0
   46.3320   33.8240   44.2400 N   0  0  0  0  0  0  0  0  0  0  0  0
   46.0290   33.5120   45.5030 C   0  0  0  0  0  0  0  0  0  0  0  0
   45.1260   34.2730   46.1650 N   0  0  0  0  0  0  0  0  0  0  0  0
   46.2276   32.7612   40.6717 H   0  0  0  0  0  0  0  0  0  0  0  0
   46.9685   32.3341   38.6430 H   0  0  0  0  0  0  0  0  0  0  0  0
   46.1436   33.8518   38.1965 H   0  0  0  0  0  0  0  0  0  0  0  0
   49.0429   33.3019   38.5725 H   0  0  0  0  0  0  0  0  0  0  0  0
   48.3142   34.5626   37.6276 H   0  0  0  0  0  0  0  0  0  0  0  0
   49.3903   35.2561   40.0012 H   0  0  0  0  0  0  0  0  0  0  0  0
   47.8146   35.9186   39.7180 H   0  0  0  0  0  0  0  0  0  0  0  0
   50.5410   33.9097   41.0233 H   0  0  0  0  0  0  0  0  0  0  0  0
   49.6253   33.9316   42.6113 H   0  0  0  0  0  0  0  0  0  0  0  0
   51.2669   31.7545   41.3892 H   0  0  0  0  0  0  0  0  0  0  0  0
   51.3910   32.6187   43.0157 H   0  0  0  0  0  0  0  0  0  0  0  0
   48.1220   30.5857   43.3514 H   0  0  0  0  0  0  0  0  0  0  0  0
   48.4432   32.3059   43.5977 H   0  0  0  0  0  0  0  0  0  0  0  0
   47.1211   31.7256   41.4489 H   0  0  0  0  0  0  0  0  0  0  0  0
   48.6202   30.9270   40.8479 H   0  0  0  0  0  0  0  0  0  0  0  0
   47.8256   34.1948   42.8907 H   0  0  0  0  0  0  0  0  0  0  0  0
   46.0624   36.1887   41.8950 H   0  0  0  0  0  0  0  0  0  0  0  0
   45.5991   34.5372   41.4450 H   0  0  0  0  0  0  0  0  0  0  0  0
   43.8086   35.9186   46.1392 H   0  0  0  0  0  0  0  0  0  0  0  0
   44.3554   36.5451   43.7507 H   0  0  0  0  0  0  0  0  0  0  0  0
   46.5049   32.6518   45.9965 H   0  0  0  0  0  0  0  0  0  0  0  0
  1  5  1  0
  2  1  1  0
  3  2  1  0
  3  4  1  0
  4  5  1  0
  5  6  1  0
  5 12  1  1
  6 11  1  0
  6  7  1  0
  7  8  1  0
  8  9  1  0
  9 10  1  0
 11 10  1  0
 12 13  1  0
 13 16  1  0
 14 19  2  0
 15 14  1  0
 16 17  1  0
 16 15  2  0
 17 18  2  0
 18 19  1  0
  1 20  1  0
  2 21  1  0
  2 22  1  0
  3 23  1  0
  3 24  1  0
  4 25  1  0
  4 26  1  0
  7 27  1  0
  7 28  1  0
  8 29  1  0
  8 30  1  0
 10 31  1  0
 10 32  1  0
 11 33  1  0
 11 34  1  0
 12 35  1  0
 13 36  1  0
 13 37  1  0
 14 38  1  0
 15 39  1  0
 18 40  1  0
M  ISO  8  20   5  21  13  22  13  23  13  24  13  25  13  26  13  27  13
M  ISO  8  28  13  29  13  30  13  31  13  32  13  33  13  34  13  35   5
M  ISO  5  36   8  37   8  38  14  39  14  40  14
M  END
>  <minimizedAffinity>  (1) 
-4.47917747

>  <minimizedRMSD>  (1) 
2.07066655

$$$$
