
     RDKit          3D

 40 42  0  0  1  0  0  0  0  0999 V2000
   46.4440   33.6390   39.4750 N   0  0  0  0  0  0  0  0  0  0  0  0
   47.0450   33.3310   38.1870 C   0  0  0  0  0  0  0  0  0  0  0  0
   48.3540   34.0270   38.1350 C   0  0  0  0  0  0  0  0  0  0  0  0
   48.3390   34.8330   39.4030 C   0  0  0  0  0  0  0  0  0  0  0  0
   47.5830   33.9130   40.3430 C   0  0  2  0  0  0  0  0  0  0  0  0
   48.2810   32.6210   40.5830 C   0  0  0  0  0  0  0  0  0  0  0  0
   49.5940   32.7250   41.2900 C   0  0  0  0  0  0  0  0  0  0  0  0
   49.6320   31.5740   42.3000 C   0  0  0  0  0  0  0  0  0  0  0  0
   48.1460   31.4960   42.6970 C   0  0  0  0  0  0  0  0  0  0  0  0
   47.5470   31.5640   41.3140 C   0  0  0  0  0  0  0  0  0  0  0  0
   47.2000   34.5960   41.5160 N   0  0  0  0  0  0  0  0  0  0  0  0
   45.7830   34.7510   41.5650 C   0  0  0  0  0  0  0  0  0  0  0  0
   44.4940   35.9760   44.9280 C   0  0  0  0  0  0  0  0  0  0  0  0
   44.7530   36.0130   43.5420 C   0  0  0  0  0  0  0  0  0  0  0  0
   45.4090   34.9130   43.0170 C   0  0  0  0  0  0  0  0  0  0  0  0
   45.7390   33.9110   43.8690 N   0  0  0  0  0  0  0  0  0  0  0  0
   45.4890   33.8870   45.1800 C   0  0  0  0  0  0  0  0  0  0  0  0
   44.8460   34.9620   45.7040 N   0  0  0  0  0  0  0  0  0  0  0  0
   45.9013   32.8372   39.8263 H   0  0  0  0  0  0  0  0  0  0  0  0
   47.1916   32.2452   38.0897 H   0  0  0  0  0  0  0  0  0  0  0  0
   46.3944   33.6616   37.3639 H   0  0  0  0  0  0  0  0  0  0  0  0
   49.1871   33.3087   38.1294 H   0  0  0  0  0  0  0  0  0  0  0  0
   48.4940   34.6345   37.2287 H   0  0  0  0  0  0  0  0  0  0  0  0
   49.3588   35.0277   39.7665 H   0  0  0  0  0  0  0  0  0  0  0  0
   47.8863   35.8295   39.2934 H   0  0  0  0  0  0  0  0  0  0  0  0
   48.3945   32.3283   39.5288 H   0  0  0  0  0  0  0  0  0  0  0  0
   50.4217   32.6288   40.5719 H   0  0  0  0  0  0  0  0  0  0  0  0
   49.7023   33.6988   41.7900 H   0  0  0  0  0  0  0  0  0  0  0  0
   49.9776   30.6384   41.8360 H   0  0  0  0  0  0  0  0  0  0  0  0
   50.3229   31.7272   43.1421 H   0  0  0  0  0  0  0  0  0  0  0  0
   47.9019   30.5538   43.2095 H   0  0  0  0  0  0  0  0  0  0  0  0
   47.7987   32.2598   43.4083 H   0  0  0  0  0  0  0  0  0  0  0  0
   46.4786   31.8182   41.3759 H   0  0  0  0  0  0  0  0  0  0  0  0
   47.6312   30.5958   40.7988 H   0  0  0  0  0  0  0  0  0  0  0  0
   47.5106   34.0583   42.3378 H   0  0  0  0  0  0  0  0  0  0  0  0
   45.4801   35.6417   40.9949 H   0  0  0  0  0  0  0  0  0  0  0  0
   45.2766   33.8802   41.1232 H   0  0  0  0  0  0  0  0  0  0  0  0
   43.9747   36.8304   45.3865 H   0  0  0  0  0  0  0  0  0  0  0  0
   44.4516   36.8654   42.9155 H   0  0  0  0  0  0  0  0  0  0  0  0
   45.7902   33.0351   45.8073 H   0  0  0  0  0  0  0  0  0  0  0  0
  1  5  1  0
  2  1  1  0
  3  2  1  0
  3  4  1  0
  4  5  1  0
  5  6  1  0
  5 11  1  1
  6  7  1  0
  6 10  1  0
  7  8  1  0
  8  9  1  0
 10  9  1  0
 11 12  1  0
 12 15  1  0
 13 18  2  0
 14 13  1  0
 15 14  2  0
 15 16  1  0
 16 17  2  0
 17 18  1  0
  1 19  1  0
  2 20  1  0
  2 21  1  0
  3 22  1  0
  3 23  1  0
  4 24  1  0
  4 25  1  0
  6 26  1  0
  7 27  1  0
  7 28  1  0
  8 29  1  0
  8 30  1  0
  9 31  1  0
  9 32  1  0
 10 33  1  0
 10 34  1  0
 11 35  1  0
 12 36  1  0
 12 37  1  0
 13 38  1  0
 14 39  1  0
 17 40  1  0
M  ISO  8  19   5  20  13  21  13  22  13  23  13  24  13  25  13  26  13
M  ISO  8  27  13  28  13  29  13  30  13  31  13  32  13  33  13  34  13
M  ISO  6  35   5  36   8  37   8  38  14  39  14  40  14
M  END
>  <minimizedAffinity>  (1) 
-4.42303371

>  <minimizedRMSD>  (1) 
1.34937871

$$$$
