
     RDKit          3D

 34 36  0  0  1  0  0  0  0  0999 V2000
   46.4210   33.9490   40.1510 N   0  0  0  0  0  0  0  0  0  0  0  0
   46.9710   33.5370   38.8790 C   0  0  0  0  0  0  0  0  0  0  0  0
   48.3190   34.1350   38.7530 C   0  0  0  0  0  0  0  0  0  0  0  0
   48.3900   35.0730   39.9560 C   0  0  0  0  0  0  0  0  0  0  0  0
   47.5830   34.3350   40.9590 C   0  0  2  0  0  0  0  0  0  0  0  0
   48.2980   33.1350   41.4340 C   0  0  0  0  0  0  0  0  0  0  0  0
   49.6480   32.9700   41.7400 C   0  0  0  0  0  0  0  0  0  0  0  0
   49.8630   31.6690   42.1470 C   0  0  0  0  0  0  0  0  0  0  0  0
   48.6000   31.1110   42.0610 C   0  0  0  0  0  0  0  0  0  0  0  0
   47.7030   31.9620   41.6490 O   0  0  0  0  0  0  0  0  0  0  0  0
   47.2040   35.1760   42.0460 N   0  0  0  0  0  0  0  0  0  0  0  0
   45.7750   35.1440   42.1610 C   0  0  0  0  0  0  0  0  0  0  0  0
   44.5220   35.2830   45.7650 C   0  0  0  0  0  0  0  0  0  0  0  0
   44.6470   35.7030   44.4390 C   0  0  0  0  0  0  0  0  0  0  0  0
   45.4780   34.9110   43.6260 C   0  0  0  0  0  0  0  0  0  0  0  0
   46.0910   33.8190   44.1600 N   0  0  0  0  0  0  0  0  0  0  0  0
   45.9430   33.4420   45.4530 C   0  0  0  0  0  0  0  0  0  0  0  0
   45.1380   34.2070   46.2480 N   0  0  0  0  0  0  0  0  0  0  0  0
   45.9134   33.1706   40.5953 H   0  0  0  0  0  0  0  0  0  0  0  0
   47.0433   32.4401   38.8404 H   0  0  0  0  0  0  0  0  0  0  0  0
   46.3241   33.8715   38.0546 H   0  0  0  0  0  0  0  0  0  0  0  0
   49.1009   33.3631   38.8063 H   0  0  0  0  0  0  0  0  0  0  0  0
   48.4789   34.6472   37.7928 H   0  0  0  0  0  0  0  0  0  0  0  0
   49.4267   35.2100   40.2973 H   0  0  0  0  0  0  0  0  0  0  0  0
   48.0269   36.0910   39.7513 H   0  0  0  0  0  0  0  0  0  0  0  0
   50.4186   33.7517   41.6685 H   0  0  0  0  0  0  0  0  0  0  0  0
   50.8040   31.1940   42.4614 H   0  0  0  0  0  0  0  0  0  0  0  0
   48.3772   30.0636   42.3128 H   0  0  0  0  0  0  0  0  0  0  0  0
   47.6316   34.8327   42.9179 H   0  0  0  0  0  0  0  0  0  0  0  0
   45.3438   36.1008   41.8314 H   0  0  0  0  0  0  0  0  0  0  0  0
   45.3384   34.3546   41.5316 H   0  0  0  0  0  0  0  0  0  0  0  0
   43.8840   35.8696   46.4424 H   0  0  0  0  0  0  0  0  0  0  0  0
   44.1296   36.5947   44.0554 H   0  0  0  0  0  0  0  0  0  0  0  0
   46.4532   32.5513   45.8484 H   0  0  0  0  0  0  0  0  0  0  0  0
  1  5  1  0
  2  1  1  0
  3  2  1  0
  3  4  1  0
  4  5  1  0
  5  6  1  0
  5 11  1  1
  6 10  1  0
  6  7  2  0
  7  8  1  0
  9  8  2  0
 10  9  1  0
 11 12  1  0
 12 15  1  0
 13 18  2  0
 14 13  1  0
 15 16  1  0
 15 14  2  0
 16 17  2  0
 17 18  1  0
  1 19  1  0
  2 20  1  0
  2 21  1  0
  3 22  1  0
  3 23  1  0
  4 24  1  0
  4 25  1  0
  7 26  1  0
  8 27  1  0
  9 28  1  0
 11 29  1  0
 12 30  1  0
 12 31  1  0
 13 32  1  0
 14 33  1  0
 17 34  1  0
M  ISO  8  19   5  20  13  21  13  22  13  23  13  24  13  25  13  26  14
M  ISO  8  27  14  28  14  29   5  30   8  31   8  32  14  33  14  34  14
M  END
>  <minimizedAffinity>  (1) 
-4.4169364

>  <minimizedRMSD>  (1) 
1.40677583

$$$$
