
     RDKit          3D

 32 34  0  0  1  0  0  0  0  0999 V2000
   46.4150   33.7030   39.0700 N   0  0  0  0  0  0  0  0  0  0  0  0
   47.0120   33.4430   37.7770 C   0  0  0  0  0  0  0  0  0  0  0  0
   48.3700   34.0470   37.7880 C   0  0  0  0  0  0  0  0  0  0  0  0
   48.4160   34.7760   39.1300 C   0  0  0  0  0  0  0  0  0  0  0  0
   47.5630   33.9120   39.9680 C   0  0  2  0  0  0  0  0  0  0  0  0
   48.2010   32.6220   40.2610 C   0  0  0  0  0  0  0  0  0  0  0  0
   49.4980   32.4100   40.5030 N   0  0  0  0  0  0  0  0  0  0  0  0
   49.7140   31.1470   40.7250 O   0  0  0  0  0  0  0  0  0  0  0  0
   48.5790   30.5110   40.6340 C   0  0  0  0  0  0  0  0  0  0  0  0
   47.6250   31.4000   40.3480 N   0  0  0  0  0  0  0  0  0  0  0  0
   47.1570   34.5710   41.1670 N   0  0  0  0  0  0  0  0  0  0  0  0
   45.7320   34.4400   41.2740 C   0  0  0  0  0  0  0  0  0  0  0  0
   44.5990   35.9790   44.5850 C   0  0  0  0  0  0  0  0  0  0  0  0
   44.8190   35.9410   43.2130 C   0  0  0  0  0  0  0  0  0  0  0  0
   45.3910   34.7690   42.7130 C   0  0  0  0  0  0  0  0  0  0  0  0
   45.6900   33.7630   43.5760 N   0  0  0  0  0  0  0  0  0  0  0  0
   45.4590   33.8370   44.9160 C   0  0  0  0  0  0  0  0  0  0  0  0
   44.9000   34.9840   45.4040 N   0  0  0  0  0  0  0  0  0  0  0  0
   45.8517   32.8983   39.3798 H   0  0  0  0  0  0  0  0  0  0  0  0
   46.4033   33.8996   36.9826 H   0  0  0  0  0  0  0  0  0  0  0  0
   47.0682   32.3615   37.5843 H   0  0  0  0  0  0  0  0  0  0  0  0
   49.1475   33.2708   37.7337 H   0  0  0  0  0  0  0  0  0  0  0  0
   48.5546   34.7101   36.9299 H   0  0  0  0  0  0  0  0  0  0  0  0
   49.4421   34.8289   39.5228 H   0  0  0  0  0  0  0  0  0  0  0  0
   48.0813   35.8227   39.0817 H   0  0  0  0  0  0  0  0  0  0  0  0
   48.4330   29.4292   40.7695 H   0  0  0  0  0  0  0  0  0  0  0  0
   47.6119   34.1320   41.9802 H   0  0  0  0  0  0  0  0  0  0  0  0
   45.2310   35.1427   40.5919 H   0  0  0  0  0  0  0  0  0  0  0  0
   45.3981   33.4280   41.0014 H   0  0  0  0  0  0  0  0  0  0  0  0
   44.1496   36.8868   45.0139 H   0  0  0  0  0  0  0  0  0  0  0  0
   44.5576   36.7856   42.5585 H   0  0  0  0  0  0  0  0  0  0  0  0
   45.7141   33.0007   45.5835 H   0  0  0  0  0  0  0  0  0  0  0  0
  1  5  1  0
  2  3  1  0
  2  1  1  0
  3  4  1  0
  4  5  1  0
  5  6  1  0
  5 11  1  1
  6 10  1  0
  6  7  2  0
  7  8  1  0
  9  8  1  0
 10  9  2  0
 11 12  1  0
 12 15  1  0
 13 18  2  0
 14 13  1  0
 15 14  2  0
 15 16  1  0
 16 17  2  0
 17 18  1  0
  1 19  1  0
  2 20  1  0
  2 21  1  0
  3 22  1  0
  3 23  1  0
  4 24  1  0
  4 25  1  0
  9 26  1  0
 11 27  1  0
 12 28  1  0
 12 29  1  0
 13 30  1  0
 14 31  1  0
 17 32  1  0
M  ISO  8  19   5  20  13  21  13  22  13  23  13  24  13  25  13  26  14
M  ISO  6  27   5  28   8  29   8  30  14  31  14  32  14
M  END
>  <minimizedAffinity>  (1) 
-4.35197735

>  <minimizedRMSD>  (1) 
0.37066853

$$$$
