
     RDKit          3D

 22 24  0  0  1  0  0  0  0  0999 V2000
   48.0360   35.6030   42.1530 C   0  0  1  0  0  0  0  0  0  0  0  0
   49.3920   34.8980   42.1170 C   0  0  0  0  0  0  0  0  0  0  0  0
   48.7060   35.3640   40.8700 C   0  0  1  0  0  0  0  0  0  0  0  0
   45.9800   33.1350   44.0900 C   0  0  0  0  0  0  0  0  0  0  0  0
   47.0850   33.9130   43.7010 C   0  0  0  0  0  0  0  0  0  0  0  0
   46.9110   34.7390   42.6070 C   0  0  0  0  0  0  0  0  0  0  0  0
   45.7020   34.7420   41.9920 N   0  0  0  0  0  0  0  0  0  0  0  0
   44.6580   33.9960   42.3740 C   0  0  0  0  0  0  0  0  0  0  0  0
   44.8090   33.1880   43.4350 N   0  0  0  0  0  0  0  0  0  0  0  0
   48.3580   34.2560   39.9470 C   0  0  0  0  0  0  0  0  0  0  0  0
   48.8790   33.0270   40.2110 N   0  0  0  0  0  0  0  0  0  0  0  0
   48.4690   32.1800   39.3180 O   0  0  0  0  0  0  0  0  0  0  0  0
   47.6920   32.7530   38.4470 C   0  0  0  0  0  0  0  0  0  0  0  0
   47.6320   34.0350   38.8450 N   0  0  0  0  0  0  0  0  0  0  0  0
   47.5944   36.5067   42.5983 H   0  0  0  0  0  0  0  0  0  0  0  0
   50.2948   35.4114   42.4793 H   0  0  0  0  0  0  0  0  0  0  0  0
   49.7958   33.9438   42.4864 H   0  0  0  0  0  0  0  0  0  0  0  0
   48.8859   36.0546   40.0329 H   0  0  0  0  0  0  0  0  0  0  0  0
   46.0778   32.4636   44.9559 H   0  0  0  0  0  0  0  0  0  0  0  0
   48.0418   33.8663   44.2416 H   0  0  0  0  0  0  0  0  0  0  0  0
   43.7017   34.0440   41.8326 H   0  0  0  0  0  0  0  0  0  0  0  0
   47.1958   32.2923   37.5801 H   0  0  0  0  0  0  0  0  0  0  0  0
  1  6  1  0
  2  1  1  0
  3  2  1  0
  3  1  1  0
  5  4  2  0
  6  5  1  0
  7  8  1  0
  7  6  2  0
  8  9  2  0
  9  4  1  0
 10 11  2  0
 10  3  1  0
 12 11  1  0
 13 14  2  0
 13 12  1  0
 14 10  1  0
  1 15  1  1
  2 16  1  0
  2 17  1  0
  3 18  1  6
  4 19  1  0
  5 20  1  0
  8 21  1  0
 13 22  1  0
M  ISO  8  15  13  16  13  17  13  18  13  19  14  20  14  21  14  22  14
M  END
>  <minimizedAffinity>  (1) 
-3.85967684

>  <minimizedRMSD>  (1) 
3.50759721

$$$$
