
     RDKit          3D

 28 29  0  0  1  0  0  0  0  0999 V2000
   47.2150   34.5230   41.1760 N   0  0  0  0  0  0  0  0  0  0  0  0
   46.4210   33.7390   39.0700 N   0  0  0  0  0  0  0  0  0  0  0  0
   47.0150   33.4620   37.7710 C   0  0  0  0  0  0  0  0  0  0  0  0
   48.3490   34.0990   37.7610 C   0  0  0  0  0  0  0  0  0  0  0  0
   48.4290   34.7820   39.1230 C   0  0  0  0  0  0  0  0  0  0  0  0
   47.5970   33.8870   39.9520 C   0  0  1  0  0  0  0  0  0  0  0  0
   48.2740   32.2440   40.1100 S   0  0  0  0  0  0  0  0  0  0  0  0
   45.7810   34.4360   41.2700 C   0  0  0  0  0  0  0  0  0  0  0  0
   44.5950   35.9970   44.5550 C   0  0  0  0  0  0  0  0  0  0  0  0
   44.8450   35.9310   43.1770 C   0  0  0  0  0  0  0  0  0  0  0  0
   45.4330   34.7510   42.6880 C   0  0  0  0  0  0  0  0  0  0  0  0
   45.7180   33.7630   43.5790 N   0  0  0  0  0  0  0  0  0  0  0  0
   45.4640   33.8520   44.9080 C   0  0  0  0  0  0  0  0  0  0  0  0
   44.8950   35.0000   45.3750 N   0  0  0  0  0  0  0  0  0  0  0  0
   47.5091   35.5101   41.1678 H   0  0  0  0  0  0  0  0  0  0  0  0
   45.8241   32.9580   39.3777 H   0  0  0  0  0  0  0  0  0  0  0  0
   47.1137   32.3763   37.6246 H   0  0  0  0  0  0  0  0  0  0  0  0
   46.3857   33.8562   36.9595 H   0  0  0  0  0  0  0  0  0  0  0  0
   49.1433   33.3459   37.6518 H   0  0  0  0  0  0  0  0  0  0  0  0
   48.4829   34.7987   36.9228 H   0  0  0  0  0  0  0  0  0  0  0  0
   49.4646   34.8231   39.4914 H   0  0  0  0  0  0  0  0  0  0  0  0
   48.0934   35.8295   39.1192 H   0  0  0  0  0  0  0  0  0  0  0  0
   48.4037   31.9292   41.4370 H   0  0  0  0  0  0  0  0  0  0  0  0
   45.3102   35.1630   40.5919 H   0  0  0  0  0  0  0  0  0  0  0  0
   45.4218   33.4367   40.9831 H   0  0  0  0  0  0  0  0  0  0  0  0
   44.1347   36.9062   44.9691 H   0  0  0  0  0  0  0  0  0  0  0  0
   44.5921   36.7662   42.5073 H   0  0  0  0  0  0  0  0  0  0  0  0
   45.7094   33.0235   45.5887 H   0  0  0  0  0  0  0  0  0  0  0  0
  1  8  1  0
  2  6  1  0
  3  2  1  0
  4  3  1  0
  4  5  1  0
  5  6  1  0
  6  7  1  1
  6  1  1  0
  8 11  1  0
  9 14  2  0
 10  9  1  0
 11 10  2  0
 11 12  1  0
 12 13  2  0
 13 14  1  0
  1 15  1  0
  2 16  1  0
  3 17  1  0
  3 18  1  0
  4 19  1  0
  4 20  1  0
  5 21  1  0
  5 22  1  0
  7 23  1  0
  8 24  1  0
  8 25  1  0
  9 26  1  0
 10 27  1  0
 13 28  1  0
M  ISO  8  15   5  16   5  17  13  18  13  19  13  20  13  21  13  22  13
M  ISO  6  23  11  24   8  25   8  26  14  27  14  28  14
M  END
>  <minimizedAffinity>  (1) 
-4.08653259

>  <minimizedRMSD>  (1) 
0.199535131

$$$$
