
     RDKit          3D

 43 45  0  0  1  0  0  0  0  0999 V2000
   45.7230   34.4300   41.4240 C   0  0  0  0  0  0  0  0  0  0  0  0
   44.4970   35.9200   44.7100 C   0  0  0  0  0  0  0  0  0  0  0  0
   44.7140   35.8390   43.3330 C   0  0  0  0  0  0  0  0  0  0  0  0
   45.3930   34.7020   42.8730 C   0  0  0  0  0  0  0  0  0  0  0  0
   45.7970   33.7590   43.7770 N   0  0  0  0  0  0  0  0  0  0  0  0
   45.5710   33.8700   45.0910 C   0  0  0  0  0  0  0  0  0  0  0  0
   44.9070   34.9760   45.5560 N   0  0  0  0  0  0  0  0  0  0  0  0
   45.9920   32.8880   46.0170 N   0  0  0  0  0  0  0  0  0  0  0  0
   45.3850   32.7570   47.2010 C   0  0  0  0  0  0  0  0  0  0  0  0
   45.8390   31.7700   48.0810 C   0  0  0  0  0  0  0  0  0  0  0  0
   45.2170   31.5600   49.4190 C   0  0  0  0  0  0  0  0  0  0  0  0
   46.9000   30.9340   47.7490 C   0  0  0  0  0  0  0  0  0  0  0  0
   47.3090   30.0520   48.5290 O   0  0  0  0  0  0  0  0  0  0  0  0
   47.4810   31.1000   46.5480 N   0  0  0  0  0  0  0  0  0  0  0  0
   47.0010   32.0660   45.7430 C   0  0  0  0  0  0  0  0  0  0  0  0
   47.5910   32.1670   44.6360 O   0  0  0  0  0  0  0  0  0  0  0  0
   47.1470   34.5770   41.3190 N   0  0  0  0  0  0  0  0  0  0  0  0
   46.4300   33.6970   39.2170 N   0  0  0  0  0  0  0  0  0  0  0  0
   47.0250   33.5400   37.9080 C   0  0  0  0  0  0  0  0  0  0  0  0
   48.3300   34.2380   37.9070 C   0  0  0  0  0  0  0  0  0  0  0  0
   48.3860   34.8730   39.2820 C   0  0  0  0  0  0  0  0  0  0  0  0
   47.5590   33.9510   40.1010 C   0  0  1  0  0  0  0  0  0  0  0  0
   48.1910   32.6320   40.4190 C   0  0  0  0  0  0  0  0  0  0  0  0
   48.4550   32.5540   41.7850 F   0  0  0  0  0  0  0  0  0  0  0  0
   47.4220   31.5710   40.0260 F   0  0  0  0  0  0  0  0  0  0  0  0
   49.4270   32.4640   39.8070 F   0  0  0  0  0  0  0  0  0  0  0  0
   45.4207   33.4095   41.1462 H   0  0  0  0  0  0  0  0  0  0  0  0
   45.1917   35.1174   40.7493 H   0  0  0  0  0  0  0  0  0  0  0  0
   43.9674   36.7965   45.1115 H   0  0  0  0  0  0  0  0  0  0  0  0
   44.3703   36.6258   42.6454 H   0  0  0  0  0  0  0  0  0  0  0  0
   44.5457   33.4123   47.4771 H   0  0  0  0  0  0  0  0  0  0  0  0
   45.9461   31.8062   50.2050 H   0  0  0  0  0  0  0  0  0  0  0  0
   44.3356   32.2104   49.5198 H   0  0  0  0  0  0  0  0  0  0  0  0
   44.9102   30.5085   49.5198 H   0  0  0  0  0  0  0  0  0  0  0  0
   48.2692   30.5062   46.2530 H   0  0  0  0  0  0  0  0  0  0  0  0
   47.3964   35.5762   41.3019 H   0  0  0  0  0  0  0  0  0  0  0  0
   45.9339   32.8389   39.4970 H   0  0  0  0  0  0  0  0  0  0  0  0
   47.1739   32.4717   37.6922 H   0  0  0  0  0  0  0  0  0  0  0  0
   46.3657   33.9656   37.1372 H   0  0  0  0  0  0  0  0  0  0  0  0
   49.1574   33.5267   37.7673 H   0  0  0  0  0  0  0  0  0  0  0  0
   48.4269   34.9690   37.0907 H   0  0  0  0  0  0  0  0  0  0  0  0
   49.4193   34.9177   39.6565 H   0  0  0  0  0  0  0  0  0  0  0  0
   48.0266   35.9125   39.2978 H   0  0  0  0  0  0  0  0  0  0  0  0
  1  4  1  0
  2  7  2  0
  3  2  1  0
  4  3  2  0
  4  5  1  0
  5  6  2  0
  6  7  1  0
  6  8  1  0
  8  9  1  0
  9 10  2  0
 10 11  1  0
 12 10  1  0
 12 13  2  0
 14 12  1  0
 15  8  1  0
 15 14  1  0
 16 15  2  0
 17  1  1  0
 18 22  1  0
 19 18  1  0
 20 19  1  0
 20 21  1  0
 21 22  1  0
 22 23  1  0
 22 17  1  1
 23 24  1  0
 25 23  1  0
 26 23  1  0
  1 27  1  0
  1 28  1  0
  2 29  1  0
  3 30  1  0
  9 31  1  0
 11 32  1  0
 11 33  1  0
 11 34  1  0
 14 35  1  0
 17 36  1  0
 18 37  1  0
 19 38  1  0
 19 39  1  0
 20 40  1  0
 20 41  1  0
 21 42  1  0
 21 43  1  0
M  ISO  8  27   8  28   8  29  14  30  14  31  14  32   8  33   8  34   8
M  ISO  8  35   9  36   5  37   5  38  13  39  13  40  13  41  13  42  13
M  ISO  1  43  13
M  END
>  <minimizedAffinity>  (1) 
-6.40596819

>  <minimizedRMSD>  (1) 
0.315288335

$$$$
