
     RDKit          3D

 44 47  0  0  1  0  0  0  0  0999 V2000
   45.7570   34.4400   41.2830 C   0  0  0  0  0  0  0  0  0  0  0  0
   44.5350   36.0500   44.5250 C   0  0  0  0  0  0  0  0  0  0  0  0
   44.7690   35.9540   43.1430 C   0  0  0  0  0  0  0  0  0  0  0  0
   45.4030   34.7860   42.7140 C   0  0  0  0  0  0  0  0  0  0  0  0
   45.7310   33.8700   43.6310 N   0  0  0  0  0  0  0  0  0  0  0  0
   45.5090   33.9570   44.9540 C   0  0  0  0  0  0  0  0  0  0  0  0
   44.8930   35.0900   45.3750 N   0  0  0  0  0  0  0  0  0  0  0  0
   45.8170   33.0400   46.0140 C   0  0  0  0  0  0  0  0  0  0  0  0
   45.3270   33.1770   47.2590 N   0  0  0  0  0  0  0  0  0  0  0  0
   45.5780   32.3580   48.2870 C   0  0  0  0  0  0  0  0  0  0  0  0
   46.3710   31.2810   48.1700 N   0  0  0  0  0  0  0  0  0  0  0  0
   46.9120   31.0520   46.9630 C   0  0  0  0  0  0  0  0  0  0  0  0
   47.7320   29.9570   46.8040 C   0  0  0  0  0  0  0  0  0  0  0  0
   48.3160   29.6710   45.5890 C   0  0  0  0  0  0  0  0  0  0  0  0
   48.0420   30.5380   44.5270 C   0  0  0  0  0  0  0  0  0  0  0  0
   47.2210   31.6110   44.7440 C   0  0  0  0  0  0  0  0  0  0  0  0
   46.6220   31.9260   45.9410 C   0  0  0  0  0  0  0  0  0  0  0  0
   47.1770   34.5810   41.1850 N   0  0  0  0  0  0  0  0  0  0  0  0
   46.4700   33.6360   39.1010 N   0  0  0  0  0  0  0  0  0  0  0  0
   47.0640   33.4630   37.7930 C   0  0  0  0  0  0  0  0  0  0  0  0
   48.3620   34.1610   37.7830 C   0  0  0  0  0  0  0  0  0  0  0  0
   48.4290   34.8230   39.1530 C   0  0  0  0  0  0  0  0  0  0  0  0
   47.5960   33.9180   39.9800 C   0  0  1  0  0  0  0  0  0  0  0  0
   48.2100   32.6010   40.3360 C   0  0  0  0  0  0  0  0  0  0  0  0
   48.3910   32.5120   41.7080 F   0  0  0  0  0  0  0  0  0  0  0  0
   47.4580   31.5310   39.9060 F   0  0  0  0  0  0  0  0  0  0  0  0
   49.4680   32.4420   39.7750 F   0  0  0  0  0  0  0  0  0  0  0  0
   45.4585   33.4063   41.0543 H   0  0  0  0  0  0  0  0  0  0  0  0
   45.2361   35.0945   40.5687 H   0  0  0  0  0  0  0  0  0  0  0  0
   44.0388   36.9495   44.9183 H   0  0  0  0  0  0  0  0  0  0  0  0
   44.4716   36.7487   42.4430 H   0  0  0  0  0  0  0  0  0  0  0  0
   45.1183   32.5748   49.2625 H   0  0  0  0  0  0  0  0  0  0  0  0
   47.9245   29.2980   47.6634 H   0  0  0  0  0  0  0  0  0  0  0  0
   48.9708   28.7966   45.4601 H   0  0  0  0  0  0  0  0  0  0  0  0
   48.4792   30.3605   43.5333 H   0  0  0  0  0  0  0  0  0  0  0  0
   47.0240   32.2764   43.8905 H   0  0  0  0  0  0  0  0  0  0  0  0
   47.4291   35.5788   41.1430 H   0  0  0  0  0  0  0  0  0  0  0  0
   45.9840   32.7772   39.3964 H   0  0  0  0  0  0  0  0  0  0  0  0
   47.2150   32.3923   37.5908 H   0  0  0  0  0  0  0  0  0  0  0  0
   46.4032   33.8766   37.0169 H   0  0  0  0  0  0  0  0  0  0  0  0
   49.1893   33.4481   37.6514 H   0  0  0  0  0  0  0  0  0  0  0  0
   48.4508   34.8822   36.9572 H   0  0  0  0  0  0  0  0  0  0  0  0
   49.4631   34.8646   39.5256 H   0  0  0  0  0  0  0  0  0  0  0  0
   48.0827   35.8671   39.1560 H   0  0  0  0  0  0  0  0  0  0  0  0
  1  4  1  0
  2  7  2  0
  3  2  1  0
  4  3  2  0
  4  5  1  0
  5  6  2  0
  6  7  1  0
  6  8  1  0
  8  9  2  0
  9 10  1  0
 11 10  2  0
 12 11  1  0
 13 12  2  0
 14 13  1  0
 15 16  1  0
 15 14  2  0
 16 17  2  0
 17  8  1  0
 17 12  1  0
 18  1  1  0
 19 23  1  0
 20 19  1  0
 21 20  1  0
 21 22  1  0
 22 23  1  0
 23 24  1  0
 23 18  1  1
 24 25  1  0
 26 24  1  0
 27 24  1  0
  1 28  1  0
  1 29  1  0
  2 30  1  0
  3 31  1  0
 10 32  1  0
 13 33  1  0
 14 34  1  0
 15 35  1  0
 16 36  1  0
 18 37  1  0
 19 38  1  0
 20 39  1  0
 20 40  1  0
 21 41  1  0
 21 42  1  0
 22 43  1  0
 22 44  1  0
M  ISO  8  28   8  29   8  30  14  31  14  32  14  33  14  34  14  35  14
M  ISO  8  36  14  37   5  38   5  39  13  40  13  41  13  42  13  43  13
M  ISO  1  44  13
M  END
>  <minimizedAffinity>  (1) 
-6.10047817

>  <minimizedRMSD>  (1) 
0.5957883

$$$$
