
     RDKit          3D

 23 25  0  0  1  0  0  0  0  0999 V2000
   47.8410   35.5150   41.9070 C   0  0  1  0  0  0  0  0  0  0  0  0
   49.3340   35.1720   41.9400 C   0  0  0  0  0  0  0  0  0  0  0  0
   48.5650   35.1290   40.6860 C   0  0  1  0  0  0  0  0  0  0  0  0
   46.6450   32.9500   44.3720 C   0  0  0  0  0  0  0  0  0  0  0  0
   47.5160   33.8420   43.6690 C   0  0  0  0  0  0  0  0  0  0  0  0
   46.9800   34.5740   42.6320 C   0  0  0  0  0  0  0  0  0  0  0  0
   45.6670   34.4080   42.3390 N   0  0  0  0  0  0  0  0  0  0  0  0
   44.8520   33.5670   43.0060 C   0  0  0  0  0  0  0  0  0  0  0  0
   45.3460   32.8400   44.0210 N   0  0  0  0  0  0  0  0  0  0  0  0
   48.3750   33.8130   40.0070 C   0  0  0  0  0  0  0  0  0  0  0  0
   47.4080   33.6630   38.9230 C   0  0  0  0  0  0  0  0  0  0  0  0
   47.5960   31.9610   38.4940 S   0  0  0  0  0  0  0  0  0  0  0  0
   48.9230   31.6550   39.7920 C   0  0  0  0  0  0  0  0  0  0  0  0
   49.0610   32.7440   40.3410 N   0  0  0  0  0  0  0  0  0  0  0  0
   47.1802   36.3621   42.1431 H   0  0  0  0  0  0  0  0  0  0  0  0
   50.0804   35.9629   42.1051 H   0  0  0  0  0  0  0  0  0  0  0  0
   49.9661   34.4663   42.4989 H   0  0  0  0  0  0  0  0  0  0  0  0
   48.6431   35.6043   39.6971 H   0  0  0  0  0  0  0  0  0  0  0  0
   47.0374   32.3489   45.2055 H   0  0  0  0  0  0  0  0  0  0  0  0
   48.5759   33.9397   43.9468 H   0  0  0  0  0  0  0  0  0  0  0  0
   43.7932   33.4771   42.7218 H   0  0  0  0  0  0  0  0  0  0  0  0
   46.7358   34.4163   38.4864 H   0  0  0  0  0  0  0  0  0  0  0  0
   49.4533   30.7160   40.0090 H   0  0  0  0  0  0  0  0  0  0  0  0
  1  2  1  0
  1  6  1  0
  3  1  1  0
  3  2  1  0
  5  4  2  0
  6  5  1  0
  7  6  2  0
  7  8  1  0
  8  9  2  0
  9  4  1  0
 10 14  1  0
 10  3  1  0
 11 10  2  0
 12 11  1  0
 12 13  1  0
 13 14  2  0
  1 15  1  6
  2 16  1  0
  2 17  1  0
  3 18  1  6
  4 19  1  0
  5 20  1  0
  8 21  1  0
 11 22  1  0
 13 23  1  0
M  ISO  8  15  13  16  13  17  13  18  13  19  14  20  14  21  14  22  14
M  ISO  1  23  14
M  END
>  <minimizedAffinity>  (1) 
-3.78204346

>  <minimizedRMSD>  (1) 
3.31690121

$$$$
