
     RDKit          3D

 37 39  0  0  1  0  0  0  0  0999 V2000
   47.1860   34.3460   41.6030 N   0  0  0  0  0  0  0  0  0  0  0  0
   46.5290   33.5870   39.4280 N   0  0  0  0  0  0  0  0  0  0  0  0
   47.1290   33.5930   38.1110 C   0  0  0  0  0  0  0  0  0  0  0  0
   48.3760   34.3790   38.1770 C   0  0  0  0  0  0  0  0  0  0  0  0
   48.3920   34.8930   39.6030 C   0  0  0  0  0  0  0  0  0  0  0  0
   47.6460   33.8480   40.3330 C   0  0  1  0  0  0  0  0  0  0  0  0
   48.3490   32.5410   40.5360 C   0  0  0  0  0  0  0  0  0  0  0  0
   48.6430   32.3620   41.8830 F   0  0  0  0  0  0  0  0  0  0  0  0
   47.6180   31.4660   40.0890 F   0  0  0  0  0  0  0  0  0  0  0  0
   49.5640   32.4850   39.8780 F   0  0  0  0  0  0  0  0  0  0  0  0
   45.8400   33.8930   41.7950 C   0  0  0  0  0  0  0  0  0  0  0  0
   44.3870   35.9700   44.6420 C   0  0  0  0  0  0  0  0  0  0  0  0
   44.6950   35.6280   43.3120 C   0  0  0  0  0  0  0  0  0  0  0  0
   45.4110   34.4400   43.1400 C   0  0  0  0  0  0  0  0  0  0  0  0
   45.7550   33.7140   44.2330 N   0  0  0  0  0  0  0  0  0  0  0  0
   45.4480   34.0680   45.4880 C   0  0  0  0  0  0  0  0  0  0  0  0
   44.7480   35.2240   45.6850 N   0  0  0  0  0  0  0  0  0  0  0  0
   45.8980   33.1730   46.5090 N   0  0  0  0  0  0  0  0  0  0  0  0
   45.0450   33.0240   47.5330 N   0  0  0  0  0  0  0  0  0  0  0  0
   45.5790   32.1610   48.4270 C   0  0  0  0  0  0  0  0  0  0  0  0
   46.7970   31.7870   47.8990 C   0  0  0  0  0  0  0  0  0  0  0  0
   47.0040   32.4220   46.6910 C   0  0  0  0  0  0  0  0  0  0  0  0
   47.2119   35.3757   41.6049 H   0  0  0  0  0  0  0  0  0  0  0  0
   46.1013   32.6721   39.6302 H   0  0  0  0  0  0  0  0  0  0  0  0
   46.4375   34.0514   37.3887 H   0  0  0  0  0  0  0  0  0  0  0  0
   47.3446   32.5643   37.7866 H   0  0  0  0  0  0  0  0  0  0  0  0
   49.2522   33.7446   37.9774 H   0  0  0  0  0  0  0  0  0  0  0  0
   48.4158   35.1850   37.4294 H   0  0  0  0  0  0  0  0  0  0  0  0
   49.4212   34.9828   39.9808 H   0  0  0  0  0  0  0  0  0  0  0  0
   47.9551   35.8968   39.7102 H   0  0  0  0  0  0  0  0  0  0  0  0
   45.1879   34.2798   40.9981 H   0  0  0  0  0  0  0  0  0  0  0  0
   45.7728   32.7955   41.7631 H   0  0  0  0  0  0  0  0  0  0  0  0
   43.8225   36.8954   44.8288 H   0  0  0  0  0  0  0  0  0  0  0  0
   44.3914   36.2560   42.4615 H   0  0  0  0  0  0  0  0  0  0  0  0
   45.1349   31.8273   49.3764 H   0  0  0  0  0  0  0  0  0  0  0  0
   47.5004   31.0855   48.3713 H   0  0  0  0  0  0  0  0  0  0  0  0
   47.8756   32.3352   46.0256 H   0  0  0  0  0  0  0  0  0  0  0  0
  1 11  1  0
  2  6  1  0
  3  4  1  0
  3  2  1  0
  4  5  1  0
  5  6  1  0
  6  7  1  0
  6  1  1  1
  7  8  1  0
  9  7  1  0
 10  7  1  0
 11 14  1  0
 12 17  2  0
 13 12  1  0
 14 13  2  0
 14 15  1  0
 15 16  2  0
 16 17  1  0
 16 18  1  0
 18 22  1  0
 18 19  1  0
 19 20  2  0
 21 20  1  0
 22 21  2  0
  1 23  1  0
  2 24  1  0
  3 25  1  0
  3 26  1  0
  4 27  1  0
  4 28  1  0
  5 29  1  0
  5 30  1  0
 11 31  1  0
 11 32  1  0
 12 33  1  0
 13 34  1  0
 20 35  1  0
 21 36  1  0
 22 37  1  0
M  ISO  8  23   5  24   5  25  13  26  13  27  13  28  13  29  13  30  13
M  ISO  7  31   8  32   8  33  14  34  14  35  14  36  14  37  14
M  END
>  <minimizedAffinity>  (1) 
-5.55691767

>  <minimizedRMSD>  (1) 
0.729866326

$$$$
