
     RDKit          3D

 38 40  0  0  1  0  0  0  0  0999 V2000
   47.1570   34.5490   41.2540 N   0  0  0  0  0  0  0  0  0  0  0  0
   46.4800   33.6520   39.1500 N   0  0  0  0  0  0  0  0  0  0  0  0
   47.0860   33.5050   37.8510 C   0  0  0  0  0  0  0  0  0  0  0  0
   48.3800   34.2200   37.8640 C   0  0  0  0  0  0  0  0  0  0  0  0
   48.4240   34.8440   39.2370 C   0  0  0  0  0  0  0  0  0  0  0  0
   47.5940   33.9240   40.0420 C   0  0  1  0  0  0  0  0  0  0  0  0
   48.2360   32.6120   40.3740 C   0  0  0  0  0  0  0  0  0  0  0  0
   48.3830   32.4860   41.7580 F   0  0  0  0  0  0  0  0  0  0  0  0
   47.5180   31.5400   39.8960 F   0  0  0  0  0  0  0  0  0  0  0  0
   49.5080   32.4840   39.8530 F   0  0  0  0  0  0  0  0  0  0  0  0
   45.7480   34.3650   41.3670 C   0  0  0  0  0  0  0  0  0  0  0  0
   44.4630   36.0850   44.5150 C   0  0  0  0  0  0  0  0  0  0  0  0
   44.7110   35.9150   43.1530 C   0  0  0  0  0  0  0  0  0  0  0  0
   45.3890   34.7340   42.7790 C   0  0  0  0  0  0  0  0  0  0  0  0
   45.7570   33.8450   43.7520 N   0  0  0  0  0  0  0  0  0  0  0  0
   45.4950   34.0560   45.0510 C   0  0  0  0  0  0  0  0  0  0  0  0
   44.8450   35.1820   45.4380 N   0  0  0  0  0  0  0  0  0  0  0  0
   45.9080   33.0790   46.0520 C   0  0  0  0  0  0  0  0  0  0  0  0
   46.8920   32.1580   45.7550 C   0  0  0  0  0  0  0  0  0  0  0  0
   47.2150   31.2740   46.7650 C   0  0  0  0  0  0  0  0  0  0  0  0
   46.6180   31.2830   47.9940 N   0  0  0  0  0  0  0  0  0  0  0  0
   45.6570   32.2080   48.2350 C   0  0  0  0  0  0  0  0  0  0  0  0
   45.3140   33.0950   47.2600 N   0  0  0  0  0  0  0  0  0  0  0  0
   47.3761   35.5550   41.2262 H   0  0  0  0  0  0  0  0  0  0  0  0
   45.9956   32.7859   39.4260 H   0  0  0  0  0  0  0  0  0  0  0  0
   46.4289   33.9373   37.0820 H   0  0  0  0  0  0  0  0  0  0  0  0
   47.2412   32.4405   37.6213 H   0  0  0  0  0  0  0  0  0  0  0  0
   49.2171   33.5205   37.7231 H   0  0  0  0  0  0  0  0  0  0  0  0
   48.4691   34.9593   37.0544 H   0  0  0  0  0  0  0  0  0  0  0  0
   49.4542   34.8861   39.6202 H   0  0  0  0  0  0  0  0  0  0  0  0
   48.0640   35.8833   39.2546 H   0  0  0  0  0  0  0  0  0  0  0  0
   45.2200   35.0177   40.6563 H   0  0  0  0  0  0  0  0  0  0  0  0
   45.4594   33.3286   41.1378 H   0  0  0  0  0  0  0  0  0  0  0  0
   43.9354   36.9910   44.8478 H   0  0  0  0  0  0  0  0  0  0  0  0
   44.3951   36.6615   42.4094 H   0  0  0  0  0  0  0  0  0  0  0  0
   47.3884   32.1300   44.7738 H   0  0  0  0  0  0  0  0  0  0  0  0
   47.9943   30.5226   46.5700 H   0  0  0  0  0  0  0  0  0  0  0  0
   45.1563   32.2422   49.2138 H   0  0  0  0  0  0  0  0  0  0  0  0
  1 11  1  0
  2  6  1  0
  3  4  1  0
  3  2  1  0
  4  5  1  0
  5  6  1  0
  6  7  1  0
  6  1  1  1
  7  8  1  0
  9  7  1  0
 10  7  1  0
 11 14  1  0
 12 17  2  0
 13 12  1  0
 14 13  2  0
 14 15  1  0
 15 16  2  0
 16 17  1  0
 16 18  1  0
 18 23  1  0
 19 18  2  0
 19 20  1  0
 20 21  2  0
 21 22  1  0
 23 22  2  0
  1 24  1  0
  2 25  1  0
  3 26  1  0
  3 27  1  0
  4 28  1  0
  4 29  1  0
  5 30  1  0
  5 31  1  0
 11 32  1  0
 11 33  1  0
 12 34  1  0
 13 35  1  0
 19 36  1  0
 20 37  1  0
 22 38  1  0
M  ISO  8  24   5  25   5  26  13  27  13  28  13  29  13  30  13  31  13
M  ISO  7  32   8  33   8  34  14  35  14  36  14  37  14  38  14
M  END
>  <minimizedAffinity>  (1) 
-5.4971962

>  <minimizedRMSD>  (1) 
0.389486879

$$$$
