
     RDKit          3D

 38 40  0  0  1  0  0  0  0  0999 V2000
   47.1680   34.4790   41.5580 N   0  0  0  0  0  0  0  0  0  0  0  0
   46.5270   33.6670   39.4120 N   0  0  0  0  0  0  0  0  0  0  0  0
   47.1410   33.5900   38.1080 C   0  0  0  0  0  0  0  0  0  0  0  0
   48.3970   34.3560   38.1480 C   0  0  0  0  0  0  0  0  0  0  0  0
   48.4200   34.9300   39.5570 C   0  0  0  0  0  0  0  0  0  0  0  0
   47.6300   33.9390   40.3170 C   0  0  1  0  0  0  0  0  0  0  0  0
   48.3200   32.6310   40.5910 C   0  0  0  0  0  0  0  0  0  0  0  0
   48.5770   32.4930   41.9510 F   0  0  0  0  0  0  0  0  0  0  0  0
   47.5820   31.5420   40.1500 F   0  0  0  0  0  0  0  0  0  0  0  0
   49.5460   32.5230   39.9650 F   0  0  0  0  0  0  0  0  0  0  0  0
   45.7790   34.1470   41.6900 C   0  0  0  0  0  0  0  0  0  0  0  0
   44.4340   35.9840   44.7580 C   0  0  0  0  0  0  0  0  0  0  0  0
   44.7080   35.7650   43.4090 C   0  0  0  0  0  0  0  0  0  0  0  0
   45.3830   34.5810   43.0850 C   0  0  0  0  0  0  0  0  0  0  0  0
   45.7270   33.7270   44.0950 N   0  0  0  0  0  0  0  0  0  0  0  0
   45.4480   33.9710   45.3780 C   0  0  0  0  0  0  0  0  0  0  0  0
   44.7950   35.1090   45.7180 N   0  0  0  0  0  0  0  0  0  0  0  0
   45.8630   32.9870   46.3720 C   0  0  0  0  0  0  0  0  0  0  0  0
   45.2740   32.8760   47.6140 C   0  0  0  0  0  0  0  0  0  0  0  0
   45.7420   31.9100   48.4820 C   0  0  0  0  0  0  0  0  0  0  0  0
   46.7620   31.0840   48.1230 N   0  0  0  0  0  0  0  0  0  0  0  0
   47.3360   31.2030   46.8930 C   0  0  0  0  0  0  0  0  0  0  0  0
   46.8650   32.1620   46.0430 N   0  0  0  0  0  0  0  0  0  0  0  0
   47.2855   35.5023   41.5604 H   0  0  0  0  0  0  0  0  0  0  0  0
   46.0699   32.7759   39.6525 H   0  0  0  0  0  0  0  0  0  0  0  0
   46.4665   34.0191   37.3524 H   0  0  0  0  0  0  0  0  0  0  0  0
   47.3424   32.5416   37.8429 H   0  0  0  0  0  0  0  0  0  0  0  0
   49.2631   33.6998   37.9769 H   0  0  0  0  0  0  0  0  0  0  0  0
   48.4504   35.1311   37.3693 H   0  0  0  0  0  0  0  0  0  0  0  0
   49.4482   34.9987   39.9418 H   0  0  0  0  0  0  0  0  0  0  0  0
   48.0204   35.9528   39.6212 H   0  0  0  0  0  0  0  0  0  0  0  0
   45.1833   34.6848   40.9378 H   0  0  0  0  0  0  0  0  0  0  0  0
   45.6026   33.0724   41.5345 H   0  0  0  0  0  0  0  0  0  0  0  0
   43.9046   36.9031   45.0496 H   0  0  0  0  0  0  0  0  0  0  0  0
   44.4084   36.4875   42.6356 H   0  0  0  0  0  0  0  0  0  0  0  0
   44.4494   33.5426   47.9066 H   0  0  0  0  0  0  0  0  0  0  0  0
   45.2844   31.8066   49.4769 H   0  0  0  0  0  0  0  0  0  0  0  0
   48.1609   30.5408   46.5914 H   0  0  0  0  0  0  0  0  0  0  0  0
  1 11  1  0
  2  6  1  0
  3  4  1  0
  3  2  1  0
  4  5  1  0
  5  6  1  0
  6  7  1  0
  6  1  1  1
  7  8  1  0
  9  7  1  0
 10  7  1  0
 11 14  1  0
 12 17  2  0
 13 12  1  0
 14 13  2  0
 14 15  1  0
 15 16  2  0
 16 17  1  0
 16 18  1  0
 18 19  2  0
 19 20  1  0
 21 20  2  0
 22 21  1  0
 23 18  1  0
 23 22  2  0
  1 24  1  0
  2 25  1  0
  3 26  1  0
  3 27  1  0
  4 28  1  0
  4 29  1  0
  5 30  1  0
  5 31  1  0
 11 32  1  0
 11 33  1  0
 12 34  1  0
 13 35  1  0
 19 36  1  0
 20 37  1  0
 22 38  1  0
M  ISO  8  24   5  25   5  26  13  27  13  28  13  29  13  30  13  31  13
M  ISO  7  32   8  33   8  34  14  35  14  36  14  37  14  38  14
M  END
>  <minimizedAffinity>  (1) 
-5.4599328

>  <minimizedRMSD>  (1) 
0.581263959

$$$$
