
     RDKit          3D

 24 26  0  0  1  0  0  0  0  0999 V2000
   47.0890   34.8460   41.4290 C   0  0  1  0  0  0  0  0  0  0  0  0
   48.4950   35.4050   41.6340 C   0  0  0  0  0  0  0  0  0  0  0  0
   48.1780   34.5200   40.4940 C   0  0  1  0  0  0  0  0  0  0  0  0
   46.6670   33.0840   44.7150 C   0  0  0  0  0  0  0  0  0  0  0  0
   47.1280   34.0220   43.7410 C   0  0  0  0  0  0  0  0  0  0  0  0
   46.6410   33.8770   42.4590 C   0  0  0  0  0  0  0  0  0  0  0  0
   45.7520   32.8630   42.1810 N   0  0  0  0  0  0  0  0  0  0  0  0
   45.3430   32.0060   43.1190 C   0  0  0  0  0  0  0  0  0  0  0  0
   45.7920   32.1110   44.3720 N   0  0  0  0  0  0  0  0  0  0  0  0
   48.9250   33.2270   40.5460 C   0  0  0  0  0  0  0  0  0  0  0  0
   49.8500   32.7770   41.3940 C   0  0  0  0  0  0  0  0  0  0  0  0
   50.3750   31.5370   41.2210 C   0  0  0  0  0  0  0  0  0  0  0  0
   49.9400   30.7800   40.1790 C   0  0  0  0  0  0  0  0  0  0  0  0
   48.6890   31.9070   39.3740 S   0  0  0  0  0  0  0  0  0  0  0  0
   46.0678   35.2282   41.2837 H   0  0  0  0  0  0  0  0  0  0  0  0
   48.6960   36.4734   41.4664 H   0  0  0  0  0  0  0  0  0  0  0  0
   49.2310   35.4002   42.4515 H   0  0  0  0  0  0  0  0  0  0  0  0
   48.1974   34.5543   39.3947 H   0  0  0  0  0  0  0  0  0  0  0  0
   47.0265   33.1535   45.7523 H   0  0  0  0  0  0  0  0  0  0  0  0
   47.8373   34.8215   44.0012 H   0  0  0  0  0  0  0  0  0  0  0  0
   44.6318   31.2084   42.8581 H   0  0  0  0  0  0  0  0  0  0  0  0
   50.1864   33.4076   42.2302 H   0  0  0  0  0  0  0  0  0  0  0  0
   51.1391   31.1515   41.9120 H   0  0  0  0  0  0  0  0  0  0  0  0
   50.2463   29.7650   39.8859 H   0  0  0  0  0  0  0  0  0  0  0  0
  1  2  1  0
  1  6  1  0
  3 10  1  0
  3  1  1  0
  3  2  1  0
  5  4  2  0
  6  5  1  0
  7  6  2  0
  7  8  1  0
  8  9  2  0
  9  4  1  0
 10 11  2  0
 12 11  1  0
 13 12  2  0
 14 13  1  0
 14 10  1  0
  1 15  1  6
  2 16  1  0
  2 17  1  0
  3 18  1  6
  4 19  1  0
  5 20  1  0
  8 21  1  0
 11 22  1  0
 12 23  1  0
 13 24  1  0
M  ISO  8  15  13  16  13  17  13  18  13  19  14  20  14  21  14  22  14
M  ISO  2  23  14  24  14
M  END
>  <minimizedAffinity>  (1) 
-3.50317407

>  <minimizedRMSD>  (1) 
2.89791059

$$$$
