
     RDKit          3D

 33 34  0  0  1  0  0  0  0  0999 V2000
   47.1500   34.6120   41.4930 N   0  0  0  0  0  0  0  0  0  0  0  0
   46.4770   33.6280   39.4150 N   0  0  0  0  0  0  0  0  0  0  0  0
   47.0630   33.4490   38.1170 C   0  0  0  0  0  0  0  0  0  0  0  0
   48.3510   34.1950   38.0990 C   0  0  0  0  0  0  0  0  0  0  0  0
   48.3910   34.8700   39.4540 C   0  0  0  0  0  0  0  0  0  0  0  0
   47.5960   33.9480   40.2990 C   0  0  1  0  0  0  0  0  0  0  0  0
   48.2430   32.6520   40.6600 C   0  0  0  0  0  0  0  0  0  0  0  0
   48.3920   32.5630   42.0400 F   0  0  0  0  0  0  0  0  0  0  0  0
   47.5390   31.5570   40.2160 F   0  0  0  0  0  0  0  0  0  0  0  0
   49.5170   32.5320   40.1390 F   0  0  0  0  0  0  0  0  0  0  0  0
   45.7340   34.4570   41.5710 C   0  0  0  0  0  0  0  0  0  0  0  0
   44.4610   36.0530   44.8000 C   0  0  0  0  0  0  0  0  0  0  0  0
   44.7130   35.9360   43.4340 C   0  0  0  0  0  0  0  0  0  0  0  0
   45.3680   34.7740   43.0080 C   0  0  0  0  0  0  0  0  0  0  0  0
   45.7070   33.8550   43.9340 N   0  0  0  0  0  0  0  0  0  0  0  0
   45.4550   33.9840   45.2480 C   0  0  0  0  0  0  0  0  0  0  0  0
   44.8170   35.1130   45.6790 N   0  0  0  0  0  0  0  0  0  0  0  0
   45.8240   32.9850   46.2570 C   0  0  0  0  0  0  0  0  0  0  0  0
   47.1330   33.1700   46.6780 F   0  0  0  0  0  0  0  0  0  0  0  0
   44.9560   33.1460   47.3380 F   0  0  0  0  0  0  0  0  0  0  0  0
   45.7230   31.7090   45.7570 F   0  0  0  0  0  0  0  0  0  0  0  0
   47.3917   35.6123   41.4495 H   0  0  0  0  0  0  0  0  0  0  0  0
   46.0093   32.7634   39.7226 H   0  0  0  0  0  0  0  0  0  0  0  0
   47.2458   32.3802   37.9319 H   0  0  0  0  0  0  0  0  0  0  0  0
   46.3882   33.8234   37.3331 H   0  0  0  0  0  0  0  0  0  0  0  0
   49.2012   33.5077   37.9774 H   0  0  0  0  0  0  0  0  0  0  0  0
   48.4201   34.9080   37.2643 H   0  0  0  0  0  0  0  0  0  0  0  0
   49.4233   34.9569   39.8239 H   0  0  0  0  0  0  0  0  0  0  0  0
   48.0005   35.8983   39.4419 H   0  0  0  0  0  0  0  0  0  0  0  0
   45.2329   35.1549   40.8841 H   0  0  0  0  0  0  0  0  0  0  0  0
   45.4191   33.4426   41.2849 H   0  0  0  0  0  0  0  0  0  0  0  0
   43.9491   36.9544   45.1680 H   0  0  0  0  0  0  0  0  0  0  0  0
   44.4114   36.7200   42.7238 H   0  0  0  0  0  0  0  0  0  0  0  0
  1 11  1  0
  2  6  1  0
  3  2  1  0
  4  3  1  0
  4  5  1  0
  5  6  1  0
  6  7  1  0
  6  1  1  1
  7  8  1  0
  9  7  1  0
 10  7  1  0
 11 14  1  0
 12 17  2  0
 13 12  1  0
 14 13  2  0
 14 15  1  0
 15 16  2  0
 16 17  1  0
 16 18  1  0
 18 19  1  0
 18 20  1  0
 21 18  1  0
  1 22  1  0
  2 23  1  0
  3 24  1  0
  3 25  1  0
  4 26  1  0
  4 27  1  0
  5 28  1  0
  5 29  1  0
 11 30  1  0
 11 31  1  0
 12 32  1  0
 13 33  1  0
M  ISO  8  22   5  23   5  24  13  25  13  26  13  27  13  28  13  29  13
M  ISO  4  30   8  31   8  32  14  33  14
M  END
>  <minimizedAffinity>  (1) 
-5.14084768

>  <minimizedRMSD>  (1) 
0.396803588

$$$$
