
     RDKit          3D

 39 40  0  0  1  0  0  0  0  0999 V2000
   46.5450   33.9440   40.1610 N   0  0  0  0  0  0  0  0  0  0  0  0
   47.0040   33.6060   38.8380 C   0  0  0  0  0  0  0  0  0  0  0  0
   48.2990   34.2990   38.6230 C   0  0  0  0  0  0  0  0  0  0  0  0
   48.4810   35.1090   39.8920 C   0  0  0  0  0  0  0  0  0  0  0  0
   47.7550   34.3070   40.8970 C   0  0  2  0  0  0  0  0  0  0  0  0
   48.4190   33.0430   41.3270 C   0  0  0  0  0  0  0  0  0  0  0  0
   48.9080   33.1700   42.6220 F   0  0  0  0  0  0  0  0  0  0  0  0
   47.5760   31.9550   41.2670 F   0  0  0  0  0  0  0  0  0  0  0  0
   49.5130   32.7130   40.5440 F   0  0  0  0  0  0  0  0  0  0  0  0
   47.4340   35.0880   42.0520 N   0  0  0  0  0  0  0  0  0  0  0  0
   46.0000   35.1850   42.1400 C   0  0  0  0  0  0  0  0  0  0  0  0
   44.5860   35.2020   45.6920 C   0  0  0  0  0  0  0  0  0  0  0  0
   44.7660   35.6260   44.3730 C   0  0  0  0  0  0  0  0  0  0  0  0
   45.6660   34.8910   43.5830 C   0  0  0  0  0  0  0  0  0  0  0  0
   46.2980   33.8230   44.1490 N   0  0  0  0  0  0  0  0  0  0  0  0
   46.1030   33.4440   45.4120 C   0  0  0  0  0  0  0  0  0  0  0  0
   45.2410   34.1340   46.1990 N   0  0  0  0  0  0  0  0  0  0  0  0
   46.8120   32.2690   46.0010 C   0  0  0  0  0  0  0  0  0  0  0  0
   46.1620   30.9600   45.7190 C   0  0  0  0  0  0  0  0  0  0  0  0
   47.0780   32.5080   47.4880 C   0  0  0  0  0  0  0  0  0  0  0  0
   46.0815   33.1364   40.6012 H   0  0  0  0  0  0  0  0  0  0  0  0
   47.1423   32.5179   38.7553 H   0  0  0  0  0  0  0  0  0  0  0  0
   46.2683   33.9175   38.0819 H   0  0  0  0  0  0  0  0  0  0  0  0
   49.1170   33.5742   38.4983 H   0  0  0  0  0  0  0  0  0  0  0  0
   48.3081   34.9183   37.7140 H   0  0  0  0  0  0  0  0  0  0  0  0
   49.5454   35.2029   40.1532 H   0  0  0  0  0  0  0  0  0  0  0  0
   48.1106   36.1413   39.8074 H   0  0  0  0  0  0  0  0  0  0  0  0
   47.8058   34.6313   42.8970 H   0  0  0  0  0  0  0  0  0  0  0  0
   45.6651   36.1963   41.8658 H   0  0  0  0  0  0  0  0  0  0  0  0
   45.4998   34.4859   41.4537 H   0  0  0  0  0  0  0  0  0  0  0  0
   43.8889   35.7551   46.3386 H   0  0  0  0  0  0  0  0  0  0  0  0
   44.2271   36.4965   43.9708 H   0  0  0  0  0  0  0  0  0  0  0  0
   47.7825   32.1853   45.4899 H   0  0  0  0  0  0  0  0  0  0  0  0
   45.9145   30.4616   46.6678 H   0  0  0  0  0  0  0  0  0  0  0  0
   45.2411   31.1250   45.1404 H   0  0  0  0  0  0  0  0  0  0  0  0
   46.8500   30.3261   45.1404 H   0  0  0  0  0  0  0  0  0  0  0  0
   46.3917   31.8914   48.0870 H   0  0  0  0  0  0  0  0  0  0  0  0
   48.1171   32.2342   47.7233 H   0  0  0  0  0  0  0  0  0  0  0  0
   46.9165   33.5703   47.7233 H   0  0  0  0  0  0  0  0  0  0  0  0
  1  5  1  0
  2  1  1  0
  3  2  1  0
  3  4  1  0
  4  5  1  0
  5  6  1  0
  5 10  1  1
  6  7  1  0
  8  6  1  0
  9  6  1  0
 10 11  1  0
 11 14  1  0
 12 17  2  0
 13 12  1  0
 14 15  1  0
 14 13  2  0
 15 16  2  0
 16 18  1  0
 16 17  1  0
 18 20  1  0
 19 18  1  0
  1 21  1  0
  2 22  1  0
  2 23  1  0
  3 24  1  0
  3 25  1  0
  4 26  1  0
  4 27  1  0
 10 28  1  0
 11 29  1  0
 11 30  1  0
 12 31  1  0
 13 32  1  0
 18 33  1  0
 19 34  1  0
 19 35  1  0
 19 36  1  0
 20 37  1  0
 20 38  1  0
 20 39  1  0
M  ISO  8  21   5  22  13  23  13  24  13  25  13  26  13  27  13  28   5
M  ISO  8  29   8  30   8  31  14  32  14  33   8  34   8  35   8  36   8
M  ISO  3  37   8  38   8  39   8
M  END
>  <minimizedAffinity>  (1) 
-4.87472439

>  <minimizedRMSD>  (1) 
1.1531868

$$$$
