
     RDKit          3D

 31 32  0  0  1  0  0  0  0  0999 V2000
   46.4580   33.6620   39.0590 N   0  0  0  0  0  0  0  0  0  0  0  0
   47.0480   33.4870   37.7500 C   0  0  0  0  0  0  0  0  0  0  0  0
   48.3530   34.1620   37.7380 C   0  0  0  0  0  0  0  0  0  0  0  0
   48.4390   34.8020   39.1180 C   0  0  0  0  0  0  0  0  0  0  0  0
   47.6030   33.9050   39.9460 C   0  0  2  0  0  0  0  0  0  0  0  0
   48.2020   32.5800   40.2740 C   0  0  0  0  0  0  0  0  0  0  0  0
   48.3370   32.4450   41.6500 F   0  0  0  0  0  0  0  0  0  0  0  0
   47.4470   31.5300   39.7740 F   0  0  0  0  0  0  0  0  0  0  0  0
   49.4690   32.4100   39.7520 F   0  0  0  0  0  0  0  0  0  0  0  0
   47.1970   34.5510   41.1510 N   0  0  0  0  0  0  0  0  0  0  0  0
   45.7730   34.4490   41.2500 C   0  0  0  0  0  0  0  0  0  0  0  0
   44.4530   35.8770   44.5340 C   0  0  0  0  0  0  0  0  0  0  0  0
   44.6660   35.7870   43.1540 C   0  0  0  0  0  0  0  0  0  0  0  0
   45.4420   34.7020   42.7080 C   0  0  0  0  0  0  0  0  0  0  0  0
   45.9300   33.8240   43.6190 N   0  0  0  0  0  0  0  0  0  0  0  0
   45.7100   33.9360   44.9360 C   0  0  0  0  0  0  0  0  0  0  0  0
   44.9590   34.9840   45.3820 N   0  0  0  0  0  0  0  0  0  0  0  0
   46.4300   32.6890   45.9810 S   0  0  0  0  0  0  0  0  0  0  0  0
   45.9485   32.8139   39.3455 H   0  0  0  0  0  0  0  0  0  0  0  0
   47.1818   32.4150   37.5427 H   0  0  0  0  0  0  0  0  0  0  0  0
   46.3922   33.9164   36.9783 H   0  0  0  0  0  0  0  0  0  0  0  0
   49.1680   33.4383   37.5894 H   0  0  0  0  0  0  0  0  0  0  0  0
   48.4482   34.8930   36.9215 H   0  0  0  0  0  0  0  0  0  0  0  0
   49.4771   34.8237   39.4811 H   0  0  0  0  0  0  0  0  0  0  0  0
   48.1036   35.8495   39.1347 H   0  0  0  0  0  0  0  0  0  0  0  0
   47.6374   34.0902   41.9600 H   0  0  0  0  0  0  0  0  0  0  0  0
   45.2895   35.2025   40.6109 H   0  0  0  0  0  0  0  0  0  0  0  0
   45.4132   33.4640   40.9178 H   0  0  0  0  0  0  0  0  0  0  0  0
   43.8509   36.7085   44.9291 H   0  0  0  0  0  0  0  0  0  0  0  0
   44.2484   36.5261   42.4545 H   0  0  0  0  0  0  0  0  0  0  0  0
   46.2355   33.0259   47.2946 H   0  0  0  0  0  0  0  0  0  0  0  0
  1  5  1  0
  2  1  1  0
  3  2  1  0
  3  4  1  0
  4  5  1  0
  5  6  1  0
  5 10  1  1
  6  7  1  0
  8  6  1  0
  9  6  1  0
 10 11  1  0
 11 14  1  0
 12 17  2  0
 13 12  1  0
 14 13  2  0
 14 15  1  0
 15 16  2  0
 16 17  1  0
 16 18  1  0
  1 19  1  0
  2 20  1  0
  2 21  1  0
  3 22  1  0
  3 23  1  0
  4 24  1  0
  4 25  1  0
 10 26  1  0
 11 27  1  0
 11 28  1  0
 12 29  1  0
 13 30  1  0
 18 31  1  0
M  ISO  8  19   5  20  13  21  13  22  13  23  13  24  13  25  13  26   5
M  ISO  5  27   8  28   8  29  14  30  14  31  11
M  END
>  <minimizedAffinity>  (1) 
-4.55704069

>  <minimizedRMSD>  (1) 
0.170805529

$$$$
