
     RDKit          3D

 45 48  0  0  1  0  0  0  0  0999 V2000
   45.8910   35.0410   41.7520 C   0  0  0  0  0  0  0  0  0  0  0  0
   44.5490   35.3650   45.3150 C   0  0  0  0  0  0  0  0  0  0  0  0
   44.6960   35.6670   43.9510 C   0  0  0  0  0  0  0  0  0  0  0  0
   45.6040   34.8650   43.2320 C   0  0  0  0  0  0  0  0  0  0  0  0
   46.2620   33.8770   43.8830 N   0  0  0  0  0  0  0  0  0  0  0  0
   46.0970   33.6200   45.1800 C   0  0  0  0  0  0  0  0  0  0  0  0
   45.2250   34.3840   45.8910 N   0  0  0  0  0  0  0  0  0  0  0  0
   47.0540   32.2750   45.8640 S   0  0  0  0  0  0  0  0  0  0  0  0
   46.2350   31.5220   47.2540 C   0  0  0  0  0  0  0  0  0  0  0  0
   45.9710   32.1420   48.4300 N   0  0  0  0  0  0  0  0  0  0  0  0
   45.3360   31.4620   49.4270 C   0  0  0  0  0  0  0  0  0  0  0  0
   44.9300   30.1610   49.3360 N   0  0  0  0  0  0  0  0  0  0  0  0
   45.2090   29.5640   48.1420 C   0  0  0  0  0  0  0  0  0  0  0  0
   44.8050   28.2360   48.0210 C   0  0  0  0  0  0  0  0  0  0  0  0
   45.0840   27.6230   46.8170 C   0  0  0  0  0  0  0  0  0  0  0  0
   45.7180   28.2010   45.7370 C   0  0  0  0  0  0  0  0  0  0  0  0
   46.0860   29.5190   45.9360 C   0  0  0  0  0  0  0  0  0  0  0  0
   45.8530   30.2050   47.0910 C   0  0  0  0  0  0  0  0  0  0  0  0
   47.3220   34.9370   41.6310 N   0  0  0  0  0  0  0  0  0  0  0  0
   46.3820   33.7740   39.7650 N   0  0  0  0  0  0  0  0  0  0  0  0
   46.8390   33.4230   38.4410 C   0  0  0  0  0  0  0  0  0  0  0  0
   48.1520   34.0560   38.2200 C   0  0  0  0  0  0  0  0  0  0  0  0
   48.3730   34.8740   39.4760 C   0  0  0  0  0  0  0  0  0  0  0  0
   47.6040   34.1300   40.4970 C   0  0  1  0  0  0  0  0  0  0  0  0
   48.2200   32.8490   40.9570 C   0  0  0  0  0  0  0  0  0  0  0  0
   48.7000   32.9740   42.2510 F   0  0  0  0  0  0  0  0  0  0  0  0
   47.3230   31.7900   40.9100 F   0  0  0  0  0  0  0  0  0  0  0  0
   49.2910   32.4460   40.1860 F   0  0  0  0  0  0  0  0  0  0  0  0
   45.3959   34.2524   41.1664 H   0  0  0  0  0  0  0  0  0  0  0  0
   45.5145   36.0019   41.3712 H   0  0  0  0  0  0  0  0  0  0  0  0
   43.8517   35.9613   45.9219 H   0  0  0  0  0  0  0  0  0  0  0  0
   44.1345   36.4826   43.4720 H   0  0  0  0  0  0  0  0  0  0  0  0
   45.1375   31.9970   50.3674 H   0  0  0  0  0  0  0  0  0  0  0  0
   44.2931   27.7069   48.8383 H   0  0  0  0  0  0  0  0  0  0  0  0
   44.7713   26.5740   46.7080 H   0  0  0  0  0  0  0  0  0  0  0  0
   45.9138   27.6606   44.7991 H   0  0  0  0  0  0  0  0  0  0  0  0
   46.5961   30.0443   45.1151 H   0  0  0  0  0  0  0  0  0  0  0  0
   47.7320   35.8735   41.5054 H   0  0  0  0  0  0  0  0  0  0  0  0
   45.9111   32.9739   40.2110 H   0  0  0  0  0  0  0  0  0  0  0  0
   46.9345   32.3303   38.3583 H   0  0  0  0  0  0  0  0  0  0  0  0
   46.1186   33.7728   37.6869 H   0  0  0  0  0  0  0  0  0  0  0  0
   48.9389   33.2963   38.1033 H   0  0  0  0  0  0  0  0  0  0  0  0
   48.1828   34.6647   37.3043 H   0  0  0  0  0  0  0  0  0  0  0  0
   49.4406   34.9158   39.7378 H   0  0  0  0  0  0  0  0  0  0  0  0
   48.0553   35.9220   39.3723 H   0  0  0  0  0  0  0  0  0  0  0  0
  1  4  1  0
  2  7  2  0
  3  2  1  0
  4  5  1  0
  4  3  2  0
  5  6  2  0
  6  8  1  0
  6  7  1  0
  8  9  1  0
  9 10  2  0
 10 11  1  0
 12 11  2  0
 13 12  1  0
 14 13  2  0
 15 14  1  0
 16 17  1  0
 16 15  2  0
 17 18  2  0
 18  9  1  0
 18 13  1  0
 19  1  1  0
 20 24  1  0
 21 20  1  0
 22 21  1  0
 22 23  1  0
 23 24  1  0
 24 25  1  0
 24 19  1  1
 25 26  1  0
 27 25  1  0
 28 25  1  0
  1 29  1  0
  1 30  1  0
  2 31  1  0
  3 32  1  0
 11 33  1  0
 14 34  1  0
 15 35  1  0
 16 36  1  0
 17 37  1  0
 19 38  1  0
 20 39  1  0
 21 40  1  0
 21 41  1  0
 22 42  1  0
 22 43  1  0
 23 44  1  0
 23 45  1  0
M  ISO  8  29   8  30   8  31  14  32  14  33  14  34  14  35  14  36  14
M  ISO  8  37  14  38   5  39   5  40  13  41  13  42  13  43  13  44  13
M  ISO  1  45  13
M  END
>  <minimizedAffinity>  (1) 
-5.85686684

>  <minimizedRMSD>  (1) 
1.96549416

$$$$
