
     RDKit          3D

 46 48  0  0  1  0  0  0  0  0999 V2000
   45.8470   34.7350   41.2040 C   0  0  0  0  0  0  0  0  0  0  0  0
   44.6660   35.7360   44.6980 C   0  0  0  0  0  0  0  0  0  0  0  0
   44.9070   35.8500   43.3320 C   0  0  0  0  0  0  0  0  0  0  0  0
   45.5180   34.7690   42.6860 C   0  0  0  0  0  0  0  0  0  0  0  0
   45.8410   33.6740   43.4160 N   0  0  0  0  0  0  0  0  0  0  0  0
   45.5990   33.5880   44.7280 C   0  0  0  0  0  0  0  0  0  0  0  0
   45.0050   34.6300   45.3750 N   0  0  0  0  0  0  0  0  0  0  0  0
   46.0910   32.0660   45.5280 S   0  0  0  0  0  0  0  0  0  0  0  0
   46.3560   30.7820   49.7170 N   0  0  0  0  0  0  0  0  0  0  0  0
   47.6290   31.1830   49.1800 C   0  0  0  0  0  0  0  0  0  0  0  0
   47.6160   31.2270   47.6600 C   0  0  0  0  0  0  0  0  0  0  0  0
   46.7200   32.3460   47.1880 C   0  0  0  0  0  0  0  0  0  0  0  0
   45.5390   32.4120   48.1320 C   0  0  0  0  0  0  0  0  0  0  0  0
   45.3340   31.0320   48.7180 C   0  0  0  0  0  0  0  0  0  0  0  0
   47.2760   34.7170   41.1270 N   0  0  0  0  0  0  0  0  0  0  0  0
   46.4750   33.7150   39.1020 N   0  0  0  0  0  0  0  0  0  0  0  0
   47.0440   33.4570   37.7960 C   0  0  0  0  0  0  0  0  0  0  0  0
   48.3570   34.1140   37.7240 C   0  0  0  0  0  0  0  0  0  0  0  0
   48.4680   34.8300   39.0570 C   0  0  0  0  0  0  0  0  0  0  0  0
   47.6420   33.9920   39.9590 C   0  0  1  0  0  0  0  0  0  0  0  0
   48.2210   32.6810   40.3520 C   0  0  0  0  0  0  0  0  0  0  0  0
   48.4340   32.6430   41.7240 F   0  0  0  0  0  0  0  0  0  0  0  0
   47.4190   31.6120   39.9670 F   0  0  0  0  0  0  0  0  0  0  0  0
   49.4500   32.4350   39.7730 F   0  0  0  0  0  0  0  0  0  0  0  0
   45.4260   33.8319   40.7379 H   0  0  0  0  0  0  0  0  0  0  0  0
   45.4218   35.5993   40.6729 H   0  0  0  0  0  0  0  0  0  0  0  0
   44.1879   36.5700   45.2326 H   0  0  0  0  0  0  0  0  0  0  0  0
   44.6269   36.7586   42.7789 H   0  0  0  0  0  0  0  0  0  0  0  0
   46.3773   29.7785   49.9483 H   0  0  0  0  0  0  0  0  0  0  0  0
   47.8766   32.1842   49.5624 H   0  0  0  0  0  0  0  0  0  0  0  0
   48.3792   30.4417   49.4927 H   0  0  0  0  0  0  0  0  0  0  0  0
   48.6381   31.3974   47.2910 H   0  0  0  0  0  0  0  0  0  0  0  0
   47.2364   30.2701   47.2724 H   0  0  0  0  0  0  0  0  0  0  0  0
   47.3054   33.2772   47.1740 H   0  0  0  0  0  0  0  0  0  0  0  0
   45.7439   33.1332   48.9370 H   0  0  0  0  0  0  0  0  0  0  0  0
   44.6364   32.7378   47.5942 H   0  0  0  0  0  0  0  0  0  0  0  0
   44.3401   30.9748   49.1859 H   0  0  0  0  0  0  0  0  0  0  0  0
   45.4038   30.2775   47.9206 H   0  0  0  0  0  0  0  0  0  0  0  0
   47.6354   35.6804   41.0678 H   0  0  0  0  0  0  0  0  0  0  0  0
   45.9582   32.8923   39.4439 H   0  0  0  0  0  0  0  0  0  0  0  0
   47.1624   32.3732   37.6498 H   0  0  0  0  0  0  0  0  0  0  0  0
   46.3813   33.8496   37.0107 H   0  0  0  0  0  0  0  0  0  0  0  0
   49.1616   33.3730   37.6074 H   0  0  0  0  0  0  0  0  0  0  0  0
   48.4498   34.7932   36.8637 H   0  0  0  0  0  0  0  0  0  0  0  0
   49.5127   34.8673   39.3994 H   0  0  0  0  0  0  0  0  0  0  0  0
   48.1345   35.8774   39.0142 H   0  0  0  0  0  0  0  0  0  0  0  0
  1  4  1  0
  2  7  2  0
  3  2  1  0
  4  3  2  0
  4  5  1  0
  5  6  2  0
  6  7  1  0
  6  8  1  0
  8 12  1  0
 10  9  1  0
 11 10  1  0
 12 11  1  0
 12 13  1  0
 13 14  1  0
 14  9  1  0
 15  1  1  0
 16 20  1  0
 17 16  1  0
 18 17  1  0
 18 19  1  0
 19 20  1  0
 20 21  1  0
 20 15  1  1
 21 22  1  0
 23 21  1  0
 24 21  1  0
  1 25  1  0
  1 26  1  0
  2 27  1  0
  3 28  1  0
  9 29  1  0
 10 30  1  0
 10 31  1  0
 11 32  1  0
 11 33  1  0
 12 34  1  0
 13 35  1  0
 13 36  1  0
 14 37  1  0
 14 38  1  0
 15 39  1  0
 16 40  1  0
 17 41  1  0
 17 42  1  0
 18 43  1  0
 18 44  1  0
 19 45  1  0
 19 46  1  0
M  ISO  8  25   8  26   8  27  14  28  14  29   5  30  13  31  13  32  13
M  ISO  8  33  13  34  13  35  13  36  13  37  13  38  13  39   5  40   5
M  ISO  6  41  13  42  13  43  13  44  13  45  13  46  13
M  END
>  <minimizedAffinity>  (1) 
-5.77442122

>  <minimizedRMSD>  (1) 
1.43148065

$$$$
