
     RDKit          3D

 38 40  0  0  1  0  0  0  0  0999 V2000
   47.4330   35.1180   42.0220 N   0  0  0  0  0  0  0  0  0  0  0  0
   46.5440   33.9410   40.1290 N   0  0  0  0  0  0  0  0  0  0  0  0
   47.0360   33.5890   38.8140 C   0  0  0  0  0  0  0  0  0  0  0  0
   48.2980   34.2900   38.5950 C   0  0  0  0  0  0  0  0  0  0  0  0
   48.4890   35.1110   39.8730 C   0  0  0  0  0  0  0  0  0  0  0  0
   47.7470   34.3240   40.8770 C   0  0  1  0  0  0  0  0  0  0  0  0
   48.4280   33.0690   41.3250 C   0  0  0  0  0  0  0  0  0  0  0  0
   48.8990   33.2280   42.6210 F   0  0  0  0  0  0  0  0  0  0  0  0
   47.5630   31.9790   41.2700 F   0  0  0  0  0  0  0  0  0  0  0  0
   49.5210   32.7320   40.5610 F   0  0  0  0  0  0  0  0  0  0  0  0
   46.0150   35.2270   42.1020 C   0  0  0  0  0  0  0  0  0  0  0  0
   44.5220   35.3300   45.6080 C   0  0  0  0  0  0  0  0  0  0  0  0
   44.7450   35.7180   44.2820 C   0  0  0  0  0  0  0  0  0  0  0  0
   45.6550   34.9480   43.5440 C   0  0  0  0  0  0  0  0  0  0  0  0
   46.2610   33.8840   44.1470 N   0  0  0  0  0  0  0  0  0  0  0  0
   46.0210   33.5400   45.4210 C   0  0  0  0  0  0  0  0  0  0  0  0
   45.1390   34.2870   46.1360 N   0  0  0  0  0  0  0  0  0  0  0  0
   46.8960   32.1300   46.0400 S   0  0  0  0  0  0  0  0  0  0  0  0
   46.1190   31.6490   47.5740 C   0  0  0  0  0  0  0  0  0  0  0  0
   45.9450   32.2420   48.8060 C   0  0  0  0  0  0  0  0  0  0  0  0
   45.2480   31.3330   49.5750 C   0  0  0  0  0  0  0  0  0  0  0  0
   45.0370   30.2350   48.7670 C   0  0  0  0  0  0  0  0  0  0  0  0
   45.5710   30.4520   47.5700 O   0  0  0  0  0  0  0  0  0  0  0  0
   47.8512   36.0542   41.9243 H   0  0  0  0  0  0  0  0  0  0  0  0
   46.0799   33.1354   40.5724 H   0  0  0  0  0  0  0  0  0  0  0  0
   47.1988   32.5027   38.7561 H   0  0  0  0  0  0  0  0  0  0  0  0
   46.3037   33.8768   38.0453 H   0  0  0  0  0  0  0  0  0  0  0  0
   49.1242   33.5762   38.4611 H   0  0  0  0  0  0  0  0  0  0  0  0
   48.2859   34.9127   37.6883 H   0  0  0  0  0  0  0  0  0  0  0  0
   49.5536   35.1901   40.1385 H   0  0  0  0  0  0  0  0  0  0  0  0
   48.1351   36.1486   39.7827 H   0  0  0  0  0  0  0  0  0  0  0  0
   45.6930   36.2394   41.8169 H   0  0  0  0  0  0  0  0  0  0  0  0
   45.5180   34.5219   41.4195 H   0  0  0  0  0  0  0  0  0  0  0  0
   43.8170   35.9063   46.2251 H   0  0  0  0  0  0  0  0  0  0  0  0
   44.2314   36.5847   43.8404 H   0  0  0  0  0  0  0  0  0  0  0  0
   46.2920   33.2393   49.1141 H   0  0  0  0  0  0  0  0  0  0  0  0
   44.9262   31.4582   50.6194 H   0  0  0  0  0  0  0  0  0  0  0  0
   44.5072   29.3192   49.0680 H   0  0  0  0  0  0  0  0  0  0  0  0
  1 11  1  0
  2  6  1  0
  3  2  1  0
  4  3  1  0
  4  5  1  0
  5  6  1  0
  6  7  1  0
  6  1  1  1
  7  8  1  0
  9  7  1  0
 10  7  1  0
 11 14  1  0
 12 17  2  0
 13 12  1  0
 14 15  1  0
 14 13  2  0
 15 16  2  0
 16 18  1  0
 16 17  1  0
 18 19  1  0
 19 20  2  0
 20 21  1  0
 22 21  2  0
 23 19  1  0
 23 22  1  0
  1 24  1  0
  2 25  1  0
  3 26  1  0
  3 27  1  0
  4 28  1  0
  4 29  1  0
  5 30  1  0
  5 31  1  0
 11 32  1  0
 11 33  1  0
 12 34  1  0
 13 35  1  0
 20 36  1  0
 21 37  1  0
 22 38  1  0
M  ISO  8  24   5  25   5  26  13  27  13  28  13  29  13  30  13  31  13
M  ISO  7  32   8  33   8  34  14  35  14  36  14  37  14  38  14
M  END
>  <minimizedAffinity>  (1) 
-5.66953087

>  <minimizedRMSD>  (1) 
1.50447452

$$$$
