
     RDKit          3D

 38 40  0  0  1  0  0  0  0  0999 V2000
   47.3370   34.7000   41.1880 N   0  0  0  0  0  0  0  0  0  0  0  0
   46.4970   33.7210   39.1650 N   0  0  0  0  0  0  0  0  0  0  0  0
   47.0380   33.4880   37.8410 C   0  0  0  0  0  0  0  0  0  0  0  0
   48.3400   34.1670   37.7450 C   0  0  0  0  0  0  0  0  0  0  0  0
   48.4770   34.8630   39.0910 C   0  0  0  0  0  0  0  0  0  0  0  0
   47.6840   33.9980   39.9910 C   0  0  1  0  0  0  0  0  0  0  0  0
   48.2920   32.6840   40.3430 C   0  0  0  0  0  0  0  0  0  0  0  0
   48.5990   32.6610   41.7010 F   0  0  0  0  0  0  0  0  0  0  0  0
   47.4690   31.6270   40.0220 F   0  0  0  0  0  0  0  0  0  0  0  0
   49.4810   32.4490   39.6890 F   0  0  0  0  0  0  0  0  0  0  0  0
   45.9080   34.6890   41.3120 C   0  0  0  0  0  0  0  0  0  0  0  0
   44.6230   35.4260   44.8200 C   0  0  0  0  0  0  0  0  0  0  0  0
   44.7800   35.5870   43.4460 C   0  0  0  0  0  0  0  0  0  0  0  0
   45.6210   34.6660   42.8010 C   0  0  0  0  0  0  0  0  0  0  0  0
   46.2270   33.6870   43.5330 N   0  0  0  0  0  0  0  0  0  0  0  0
   46.0480   33.5680   44.8620 C   0  0  0  0  0  0  0  0  0  0  0  0
   45.2320   34.4570   45.4950 N   0  0  0  0  0  0  0  0  0  0  0  0
   46.9150   32.2330   45.6530 S   0  0  0  0  0  0  0  0  0  0  0  0
   46.1630   31.4660   46.9400 C   0  0  0  0  0  0  0  0  0  0  0  0
   45.5830   30.2490   47.2360 C   0  0  0  0  0  0  0  0  0  0  0  0
   45.0340   29.9380   48.4520 C   0  0  0  0  0  0  0  0  0  0  0  0
   45.0900   30.9780   49.4450 C   0  0  0  0  0  0  0  0  0  0  0  0
   45.9320   32.3680   48.5950 S   0  0  0  0  0  0  0  0  0  0  0  0
   47.6754   35.6713   41.1338 H   0  0  0  0  0  0  0  0  0  0  0  0
   45.9982   32.8879   39.5085 H   0  0  0  0  0  0  0  0  0  0  0  0
   47.1693   32.4081   37.6781 H   0  0  0  0  0  0  0  0  0  0  0  0
   46.3501   33.8800   37.0773 H   0  0  0  0  0  0  0  0  0  0  0  0
   49.1521   33.4407   37.5933 H   0  0  0  0  0  0  0  0  0  0  0  0
   48.3991   34.8625   36.8948 H   0  0  0  0  0  0  0  0  0  0  0  0
   49.5291   34.9064   39.4091 H   0  0  0  0  0  0  0  0  0  0  0  0
   48.1330   35.9077   39.0774 H   0  0  0  0  0  0  0  0  0  0  0  0
   45.4770   35.5910   40.8530 H   0  0  0  0  0  0  0  0  0  0  0  0
   45.4646   33.8214   40.8015 H   0  0  0  0  0  0  0  0  0  0  0  0
   43.9723   36.1252   45.3656 H   0  0  0  0  0  0  0  0  0  0  0  0
   44.2724   36.3926   42.8952 H   0  0  0  0  0  0  0  0  0  0  0  0
   45.5602   29.4822   46.4476 H   0  0  0  0  0  0  0  0  0  0  0  0
   44.5799   28.9571   48.6561 H   0  0  0  0  0  0  0  0  0  0  0  0
   44.7137   30.9465   50.4781 H   0  0  0  0  0  0  0  0  0  0  0  0
  1 11  1  0
  2  6  1  0
  3  2  1  0
  4  3  1  0
  4  5  1  0
  5  6  1  0
  6  7  1  0
  6  1  1  1
  7  8  1  0
  9  7  1  0
 10  7  1  0
 11 14  1  0
 12 17  2  0
 13 12  1  0
 14 13  2  0
 14 15  1  0
 15 16  2  0
 16 17  1  0
 16 18  1  0
 18 19  1  0
 19 20  2  0
 19 23  1  0
 20 21  1  0
 21 22  2  0
 23 22  1  0
  1 24  1  0
  2 25  1  0
  3 26  1  0
  3 27  1  0
  4 28  1  0
  4 29  1  0
  5 30  1  0
  5 31  1  0
 11 32  1  0
 11 33  1  0
 12 34  1  0
 13 35  1  0
 20 36  1  0
 21 37  1  0
 22 38  1  0
M  ISO  8  24   5  25   5  26  13  27  13  28  13  29  13  30  13  31  13
M  ISO  7  32   8  33   8  34  14  35  14  36  14  37  14  38  14
M  END
>  <minimizedAffinity>  (1) 
-5.2809248

>  <minimizedRMSD>  (1) 
1.02957523

$$$$
