
     RDKit          3D

 38 40  0  0  1  0  0  0  0  0999 V2000
   45.8660   34.7780   41.8480 C   0  0  0  0  0  0  0  0  0  0  0  0
   44.4920   35.4570   45.3440 C   0  0  0  0  0  0  0  0  0  0  0  0
   44.6720   35.6230   43.9600 C   0  0  0  0  0  0  0  0  0  0  0  0
   45.5590   34.7370   43.3280 C   0  0  0  0  0  0  0  0  0  0  0  0
   46.1760   33.7960   44.0700 N   0  0  0  0  0  0  0  0  0  0  0  0
   45.9940   33.6530   45.3790 C   0  0  0  0  0  0  0  0  0  0  0  0
   45.1310   34.5080   46.0190 N   0  0  0  0  0  0  0  0  0  0  0  0
   46.8980   32.3500   46.1940 S   0  0  0  0  0  0  0  0  0  0  0  0
   45.8140   30.9120   46.1860 C   0  0  0  0  0  0  0  0  0  0  0  0
   45.3520   30.2700   47.3300 C   0  0  0  0  0  0  0  0  0  0  0  0
   44.5470   29.2120   46.8970 C   0  0  0  0  0  0  0  0  0  0  0  0
   44.5450   29.2410   45.5350 N   0  0  0  0  0  0  0  0  0  0  0  0
   45.3030   30.2590   45.1170 N   0  0  0  0  0  0  0  0  0  0  0  0
   47.2840   34.8020   41.7460 N   0  0  0  0  0  0  0  0  0  0  0  0
   46.4860   33.7590   39.7460 N   0  0  0  0  0  0  0  0  0  0  0  0
   47.0250   33.5240   38.4220 C   0  0  0  0  0  0  0  0  0  0  0  0
   48.3040   34.2290   38.3130 C   0  0  0  0  0  0  0  0  0  0  0  0
   48.4360   34.9520   39.6550 C   0  0  0  0  0  0  0  0  0  0  0  0
   47.6680   34.0800   40.5730 C   0  0  1  0  0  0  0  0  0  0  0  0
   48.3210   32.8040   40.9460 C   0  0  0  0  0  0  0  0  0  0  0  0
   48.6350   32.8190   42.3060 F   0  0  0  0  0  0  0  0  0  0  0  0
   47.5050   31.7120   40.6660 F   0  0  0  0  0  0  0  0  0  0  0  0
   49.5040   32.5800   40.2880 F   0  0  0  0  0  0  0  0  0  0  0  0
   45.4612   33.8856   41.3482 H   0  0  0  0  0  0  0  0  0  0  0  0
   45.4109   35.6551   41.3647 H   0  0  0  0  0  0  0  0  0  0  0  0
   43.8059   36.1287   45.8808 H   0  0  0  0  0  0  0  0  0  0  0  0
   44.1439   36.4085   43.3995 H   0  0  0  0  0  0  0  0  0  0  0  0
   45.5762   30.5416   48.3721 H   0  0  0  0  0  0  0  0  0  0  0  0
   44.0152   28.4916   47.5360 H   0  0  0  0  0  0  0  0  0  0  0  0
   44.0397   28.5830   44.9246 H   0  0  0  0  0  0  0  0  0  0  0  0
   47.6107   35.7763   41.6765 H   0  0  0  0  0  0  0  0  0  0  0  0
   46.0109   32.9168   40.1008 H   0  0  0  0  0  0  0  0  0  0  0  0
   47.1808   32.4457   38.2701 H   0  0  0  0  0  0  0  0  0  0  0  0
   46.3243   33.8909   37.6575 H   0  0  0  0  0  0  0  0  0  0  0  0
   49.1317   33.5194   38.1668 H   0  0  0  0  0  0  0  0  0  0  0  0
   48.3403   34.9152   37.4540 H   0  0  0  0  0  0  0  0  0  0  0  0
   49.4891   35.0238   39.9647 H   0  0  0  0  0  0  0  0  0  0  0  0
   48.0692   35.9887   39.6296 H   0  0  0  0  0  0  0  0  0  0  0  0
  1  4  1  0
  2  7  2  0
  3  2  1  0
  4  3  2  0
  4  5  1  0
  5  6  2  0
  6  7  1  0
  6  8  1  0
  9  8  1  0
  9 10  1  0
 11 10  2  0
 12 11  1  0
 13 12  1  0
 13  9  2  0
 14  1  1  0
 15 19  1  0
 16 15  1  0
 17 16  1  0
 17 18  1  0
 18 19  1  0
 19 20  1  0
 19 14  1  1
 20 21  1  0
 22 20  1  0
 23 20  1  0
  1 24  1  0
  1 25  1  0
  2 26  1  0
  3 27  1  0
 10 28  1  0
 11 29  1  0
 12 30  1  0
 14 31  1  0
 15 32  1  0
 16 33  1  0
 16 34  1  0
 17 35  1  0
 17 36  1  0
 18 37  1  0
 18 38  1  0
M  ISO  8  24   8  25   8  26  14  27  14  28  14  29  14  30   9  31   5
M  ISO  7  32   5  33  13  34  13  35  13  36  13  37  13  38  13
M  END
>  <minimizedAffinity>  (1) 
-4.95776033

>  <minimizedRMSD>  (1) 
0.867591023

$$$$
