
     RDKit          3D

 34 35  0  0  1  0  0  0  0  0999 V2000
   46.5100   33.6880   39.2870 N   0  0  0  0  0  0  0  0  0  0  0  0
   47.1000   33.4980   37.9740 C   0  0  0  0  0  0  0  0  0  0  0  0
   48.3850   34.2170   37.9500 C   0  0  0  0  0  0  0  0  0  0  0  0
   48.4530   34.8880   39.3220 C   0  0  0  0  0  0  0  0  0  0  0  0
   47.6570   33.9700   40.1660 C   0  0  2  0  0  0  0  0  0  0  0  0
   48.2990   32.6770   40.5080 C   0  0  0  0  0  0  0  0  0  0  0  0
   48.4890   32.5840   41.8790 F   0  0  0  0  0  0  0  0  0  0  0  0
   47.5270   31.5980   40.0880 F   0  0  0  0  0  0  0  0  0  0  0  0
   49.5330   32.5010   39.9230 F   0  0  0  0  0  0  0  0  0  0  0  0
   47.2310   34.6320   41.3620 N   0  0  0  0  0  0  0  0  0  0  0  0
   45.8130   34.5240   41.4560 C   0  0  0  0  0  0  0  0  0  0  0  0
   44.4750   35.7300   44.8110 C   0  0  0  0  0  0  0  0  0  0  0  0
   44.6820   35.7200   43.4350 C   0  0  0  0  0  0  0  0  0  0  0  0
   45.4870   34.6850   42.9280 C   0  0  0  0  0  0  0  0  0  0  0  0
   46.0060   33.7750   43.8000 N   0  0  0  0  0  0  0  0  0  0  0  0
   45.7860   33.8180   45.1180 C   0  0  0  0  0  0  0  0  0  0  0  0
   45.0030   34.8220   45.6160 N   0  0  0  0  0  0  0  0  0  0  0  0
   46.5430   32.5500   46.0920 S   0  0  0  0  0  0  0  0  0  0  0  0
   45.9940   30.8800   45.5850 C   0  0  0  0  0  0  0  0  0  0  0  0
   46.0176   32.8363   39.5921 H   0  0  0  0  0  0  0  0  0  0  0  0
   47.2672   32.4264   37.7903 H   0  0  0  0  0  0  0  0  0  0  0  0
   46.4293   33.8832   37.1918 H   0  0  0  0  0  0  0  0  0  0  0  0
   49.2230   33.5175   37.8139 H   0  0  0  0  0  0  0  0  0  0  0  0
   48.4546   34.9363   37.1207 H   0  0  0  0  0  0  0  0  0  0  0  0
   49.4909   34.9577   39.6796 H   0  0  0  0  0  0  0  0  0  0  0  0
   48.0782   35.9222   39.3239 H   0  0  0  0  0  0  0  0  0  0  0  0
   47.6688   34.1863   42.1809 H   0  0  0  0  0  0  0  0  0  0  0  0
   45.3279   35.3161   40.8667 H   0  0  0  0  0  0  0  0  0  0  0  0
   45.4517   33.5624   41.0625 H   0  0  0  0  0  0  0  0  0  0  0  0
   43.8487   36.5227   45.2461 H   0  0  0  0  0  0  0  0  0  0  0  0
   44.2386   36.4826   42.7779 H   0  0  0  0  0  0  0  0  0  0  0  0
   45.7942   30.2723   46.4799 H   0  0  0  0  0  0  0  0  0  0  0  0
   45.0756   30.9623   44.9852 H   0  0  0  0  0  0  0  0  0  0  0  0
   46.7821   30.4013   44.9852 H   0  0  0  0  0  0  0  0  0  0  0  0
  1  5  1  0
  2  1  1  0
  3  2  1  0
  3  4  1  0
  4  5  1  0
  5  6  1  0
  5 10  1  1
  6  7  1  0
  8  6  1  0
  9  6  1  0
 10 11  1  0
 11 14  1  0
 12 17  2  0
 13 12  1  0
 14 13  2  0
 14 15  1  0
 15 16  2  0
 16 17  1  0
 16 18  1  0
 19 18  1  0
  1 20  1  0
  2 21  1  0
  2 22  1  0
  3 23  1  0
  3 24  1  0
  4 25  1  0
  4 26  1  0
 10 27  1  0
 11 28  1  0
 11 29  1  0
 12 30  1  0
 13 31  1  0
 19 32  1  0
 19 33  1  0
 19 34  1  0
M  ISO  8  20   5  21  13  22  13  23  13  24  13  25  13  26  13  27   5
M  ISO  7  28   8  29   8  30  14  31  14  32   8  33   8  34   8
M  END
>  <minimizedAffinity>  (1) 
-4.48415947

>  <minimizedRMSD>  (1) 
0.335681826

$$$$
