
     RDKit          3D

 42 45  0  0  1  0  0  0  0  0999 V2000
   45.4050   34.9770   41.9260 C   0  0  0  0  0  0  0  0  0  0  0  0
   49.2150   34.8850   41.9190 C   0  0  0  0  0  0  0  0  0  0  0  0
   47.9430   35.4310   41.8730 C   0  0  0  0  0  0  0  0  0  0  0  0
   46.8600   34.5480   41.9590 C   0  0  0  0  0  0  0  0  0  0  0  0
   47.1130   33.2280   42.0810 N   0  0  0  0  0  0  0  0  0  0  0  0
   48.3460   32.7200   42.1230 C   0  0  0  0  0  0  0  0  0  0  0  0
   49.4110   33.5680   42.0400 N   0  0  0  0  0  0  0  0  0  0  0  0
   48.4920   30.9590   42.2860 S   0  0  0  0  0  0  0  0  0  0  0  0
   48.0180   30.5500   43.9700 C   0  0  0  0  0  0  0  0  0  0  0  0
   48.1760   29.3430   44.5980 N   0  0  0  0  0  0  0  0  0  0  0  0
   47.7170   29.4300   45.8030 O   0  0  0  0  0  0  0  0  0  0  0  0
   47.2660   30.6410   45.9920 C   0  0  0  0  0  0  0  0  0  0  0  0
   47.4430   31.3540   44.8690 N   0  0  0  0  0  0  0  0  0  0  0  0
   46.6810   31.1310   47.1950 N   0  0  0  0  0  0  0  0  0  0  0  0
   46.7780   30.5820   48.4200 C   0  0  0  0  0  0  0  0  0  0  0  0
   46.0960   31.3150   49.3250 N   0  0  0  0  0  0  0  0  0  0  0  0
   45.5650   32.3420   48.6360 C   0  0  0  0  0  0  0  0  0  0  0  0
   45.9330   32.2140   47.3290 N   0  0  0  0  0  0  0  0  0  0  0  0
   44.8920   34.5700   40.6910 N   0  0  0  0  0  0  0  0  0  0  0  0
   42.9700   35.0330   41.9860 N   0  0  0  0  0  0  0  0  0  0  0  0
   41.5590   35.2420   41.7140 C   0  0  0  0  0  0  0  0  0  0  0  0
   41.3750   35.2950   40.2590 C   0  0  0  0  0  0  0  0  0  0  0  0
   42.7900   35.1800   39.7200 C   0  0  0  0  0  0  0  0  0  0  0  0
   43.4840   34.3980   40.7770 C   0  0  1  0  0  0  0  0  0  0  0  0
   43.1680   32.9590   40.8330 C   0  0  0  0  0  0  0  0  0  0  0  0
   44.2860   32.1890   40.5880 F   0  0  0  0  0  0  0  0  0  0  0  0
   42.6300   32.5910   42.0590 F   0  0  0  0  0  0  0  0  0  0  0  0
   42.2240   32.5590   39.8900 F   0  0  0  0  0  0  0  0  0  0  0  0
   44.8495   34.4953   42.7442 H   0  0  0  0  0  0  0  0  0  0  0  0
   45.3114   36.0656   42.0529 H   0  0  0  0  0  0  0  0  0  0  0  0
   50.0869   35.5525   41.8543 H   0  0  0  0  0  0  0  0  0  0  0  0
   47.7897   36.5157   41.7728 H   0  0  0  0  0  0  0  0  0  0  0  0
   47.3361   29.6628   48.6516 H   0  0  0  0  0  0  0  0  0  0  0  0
   44.9418   33.1459   49.0548 H   0  0  0  0  0  0  0  0  0  0  0  0
   45.1046   35.2859   39.9817 H   0  0  0  0  0  0  0  0  0  0  0  0
   43.4451   35.9310   42.1559 H   0  0  0  0  0  0  0  0  0  0  0  0
   40.9720   34.4116   42.1335 H   0  0  0  0  0  0  0  0  0  0  0  0
   41.2185   36.1813   42.1743 H   0  0  0  0  0  0  0  0  0  0  0  0
   40.7520   34.4581   39.9105 H   0  0  0  0  0  0  0  0  0  0  0  0
   40.8613   36.2083   39.9244 H   0  0  0  0  0  0  0  0  0  0  0  0
   42.8052   34.6464   38.7582 H   0  0  0  0  0  0  0  0  0  0  0  0
   43.2600   36.1543   39.5205 H   0  0  0  0  0  0  0  0  0  0  0  0
  1  4  1  0
  2  7  2  0
  3  2  1  0
  3  4  2  0
  4  5  1  0
  5  6  2  0
  6  8  1  0
  7  6  1  0
  8  9  1  0
  9 10  2  0
  9 13  1  0
 10 11  1  0
 11 12  1  0
 12 14  1  0
 13 12  2  0
 14 18  1  0
 14 15  1  0
 15 16  2  0
 17 16  1  0
 18 17  2  0
 19  1  1  0
 21 20  1  0
 22 21  1  0
 23 22  1  0
 23 24  1  0
 24 19  1  6
 24 25  1  0
 24 20  1  0
 25 27  1  0
 26 25  1  0
 28 25  1  0
  1 29  1  0
  1 30  1  0
  2 31  1  0
  3 32  1  0
 15 33  1  0
 17 34  1  0
 19 35  1  0
 20 36  1  0
 21 37  1  0
 21 38  1  0
 22 39  1  0
 22 40  1  0
 23 41  1  0
 23 42  1  0
M  ISO  8  29   8  30   8  31  14  32  14  33  14  34  14  35   5  36   5
M  ISO  6  37  13  38  13  39  13  40  13  41  13  42  13
M  END
>  <minimizedAffinity>  (1) 
-5.28929377

>  <minimizedRMSD>  (1) 
4.67407799

$$$$
