
     RDKit          3D

 45 48  0  0  1  0  0  0  0  0999 V2000
   47.9870   34.1870   38.7990 C   0  0  0  0  0  0  0  0  0  0  0  0
   48.8860   34.5550   42.4950 C   0  0  0  0  0  0  0  0  0  0  0  0
   48.5880   34.9490   41.1860 C   0  0  0  0  0  0  0  0  0  0  0  0
   48.3260   33.9410   40.2590 C   0  0  0  0  0  0  0  0  0  0  0  0
   48.3720   32.6340   40.6650 N   0  0  0  0  0  0  0  0  0  0  0  0
   48.6600   32.3000   41.9240 C   0  0  0  0  0  0  0  0  0  0  0  0
   48.9170   33.2690   42.8360 N   0  0  0  0  0  0  0  0  0  0  0  0
   48.6770   30.5560   42.2850 S   0  0  0  0  0  0  0  0  0  0  0  0
   48.3710   30.3890   44.0460 C   0  0  0  0  0  0  0  0  0  0  0  0
   49.1380   29.6650   44.9200 N   0  0  0  0  0  0  0  0  0  0  0  0
   48.6380   29.7540   46.1240 O   0  0  0  0  0  0  0  0  0  0  0  0
   47.5780   30.5110   46.0320 C   0  0  0  0  0  0  0  0  0  0  0  0
   47.3750   30.9230   44.7770 N   0  0  0  0  0  0  0  0  0  0  0  0
   46.7480   30.8390   47.1870 C   0  0  0  0  0  0  0  0  0  0  0  0
   45.9050   29.8980   47.7410 C   0  0  0  0  0  0  0  0  0  0  0  0
   45.0760   30.0870   48.8270 C   0  0  0  0  0  0  0  0  0  0  0  0
   45.1320   31.3660   49.3830 C   0  0  0  0  0  0  0  0  0  0  0  0
   45.9770   32.3410   48.8450 C   0  0  0  0  0  0  0  0  0  0  0  0
   46.7440   32.0460   47.7820 N   0  0  0  0  0  0  0  0  0  0  0  0
   49.0960   33.8160   38.0530 N   0  0  0  0  0  0  0  0  0  0  0  0
   47.4740   32.1690   37.5580 N   0  0  0  0  0  0  0  0  0  0  0  0
   47.0700   31.4240   36.3810 C   0  0  0  0  0  0  0  0  0  0  0  0
   47.7950   31.9690   35.2290 C   0  0  0  0  0  0  0  0  0  0  0  0
   48.5920   33.1310   35.8150 C   0  0  0  0  0  0  0  0  0  0  0  0
   48.7790   32.7120   37.2280 C   0  0  1  0  0  0  0  0  0  0  0  0
   49.7890   31.6430   37.4370 C   0  0  0  0  0  0  0  0  0  0  0  0
   50.7500   32.0440   38.3630 F   0  0  0  0  0  0  0  0  0  0  0  0
   49.2150   30.4600   37.8620 F   0  0  0  0  0  0  0  0  0  0  0  0
   50.5030   31.3240   36.2860 F   0  0  0  0  0  0  0  0  0  0  0  0
   47.1164   33.5814   38.5069 H   0  0  0  0  0  0  0  0  0  0  0  0
   47.7374   35.2447   38.6286 H   0  0  0  0  0  0  0  0  0  0  0  0
   49.0983   35.3212   43.2552 H   0  0  0  0  0  0  0  0  0  0  0  0
   48.5615   36.0108   40.8998 H   0  0  0  0  0  0  0  0  0  0  0  0
   45.8928   28.9029   47.2724 H   0  0  0  0  0  0  0  0  0  0  0  0
   44.4239   29.2944   49.2227 H   0  0  0  0  0  0  0  0  0  0  0  0
   44.5048   31.6092   50.2534 H   0  0  0  0  0  0  0  0  0  0  0  0
   46.0139   33.3462   49.2903 H   0  0  0  0  0  0  0  0  0  0  0  0
   49.3910   34.6079   37.4641 H   0  0  0  0  0  0  0  0  0  0  0  0
   46.8051   32.9274   37.7539 H   0  0  0  0  0  0  0  0  0  0  0  0
   47.3184   30.3601   36.5091 H   0  0  0  0  0  0  0  0  0  0  0  0
   45.9846   31.5129   36.2264 H   0  0  0  0  0  0  0  0  0  0  0  0
   47.0952   32.3235   34.4579 H   0  0  0  0  0  0  0  0  0  0  0  0
   48.4340   31.2211   34.7367 H   0  0  0  0  0  0  0  0  0  0  0  0
   49.5589   33.2478   35.3037 H   0  0  0  0  0  0  0  0  0  0  0  0
   48.0908   34.1044   35.7088 H   0  0  0  0  0  0  0  0  0  0  0  0
  1  4  1  0
  2  7  2  0
  3  2  1  0
  4  5  1  0
  4  3  2  0
  5  6  2  0
  6  8  1  0
  6  7  1  0
  8  9  1  0
  9 13  1  0
  9 10  2  0
 10 11  1  0
 12 11  1  0
 12 14  1  0
 13 12  2  0
 14 15  2  0
 14 19  1  0
 15 16  1  0
 16 17  2  0
 18 17  1  0
 19 18  2  0
 20  1  1  0
 22 21  1  0
 23 24  1  0
 23 22  1  0
 24 25  1  0
 25 26  1  0
 25 21  1  0
 25 20  1  1
 26 28  1  0
 26 27  1  0
 29 26  1  0
  1 30  1  0
  1 31  1  0
  2 32  1  0
  3 33  1  0
 15 34  1  0
 16 35  1  0
 17 36  1  0
 18 37  1  0
 20 38  1  0
 21 39  1  0
 22 40  1  0
 22 41  1  0
 23 42  1  0
 23 43  1  0
 24 44  1  0
 24 45  1  0
M  ISO  8  30   8  31   8  32  14  33  14  34  14  35  14  36  14  37  14
M  ISO  8  38   5  39   5  40  13  41  13  42  13  43  13  44  13  45  13
M  END
>  <minimizedAffinity>  (1) 
-5.14832783

>  <minimizedRMSD>  (1) 
4.410357

$$$$
