
     RDKit          3D

 39 41  0  0  1  0  0  0  0  0999 V2000
   45.9910   35.1140   42.4510 C   0  0  0  0  0  0  0  0  0  0  0  0
   44.4200   35.1470   45.9330 C   0  0  0  0  0  0  0  0  0  0  0  0
   44.6430   35.5190   44.6020 C   0  0  0  0  0  0  0  0  0  0  0  0
   45.6310   34.8280   43.9020 C   0  0  0  0  0  0  0  0  0  0  0  0
   46.3130   33.8430   44.5390 N   0  0  0  0  0  0  0  0  0  0  0  0
   46.0890   33.5040   45.7980 C   0  0  0  0  0  0  0  0  0  0  0  0
   45.1270   34.1680   46.5050 N   0  0  0  0  0  0  0  0  0  0  0  0
   47.0780   32.1930   46.4690 S   0  0  0  0  0  0  0  0  0  0  0  0
   46.1030   30.6940   46.3790 C   0  0  0  0  0  0  0  0  0  0  0  0
   45.4290   30.2110   45.3030 N   0  0  0  0  0  0  0  0  0  0  0  0
   44.8330   29.1020   45.6050 O   0  0  0  0  0  0  0  0  0  0  0  0
   45.1030   28.8460   46.8570 C   0  0  0  0  0  0  0  0  0  0  0  0
   45.8810   29.8070   47.3620 N   0  0  0  0  0  0  0  0  0  0  0  0
   44.5940   27.6650   47.5470 C   0  0  0  0  0  0  0  0  0  0  0  0
   43.8760   26.8390   46.9260 O   0  0  0  0  0  0  0  0  0  0  0  0
   44.8630   27.3900   48.8820 O   0  0  0  0  0  0  0  0  0  0  0  0
   47.3910   35.0800   42.3790 N   0  0  0  0  0  0  0  0  0  0  0  0
   46.6350   33.7420   40.5620 N   0  0  0  0  0  0  0  0  0  0  0  0
   47.1320   33.4310   39.2390 C   0  0  0  0  0  0  0  0  0  0  0  0
   48.3000   34.2810   38.9670 C   0  0  0  0  0  0  0  0  0  0  0  0
   48.3990   35.1450   40.2140 C   0  0  0  0  0  0  0  0  0  0  0  0
   47.7890   34.2860   41.2620 C   0  0  1  0  0  0  0  0  0  0  0  0
   48.6240   33.1630   41.7300 C   0  0  0  0  0  0  0  0  0  0  0  0
   49.0640   33.3710   43.0270 F   0  0  0  0  0  0  0  0  0  0  0  0
   47.9370   31.9520   41.6880 F   0  0  0  0  0  0  0  0  0  0  0  0
   49.7630   32.9630   40.9730 F   0  0  0  0  0  0  0  0  0  0  0  0
   45.5570   34.3471   41.7926 H   0  0  0  0  0  0  0  0  0  0  0  0
   45.5974   36.0884   42.1259 H   0  0  0  0  0  0  0  0  0  0  0  0
   43.6492   35.6698   46.5183 H   0  0  0  0  0  0  0  0  0  0  0  0
   44.0623   36.3238   44.1277 H   0  0  0  0  0  0  0  0  0  0  0  0
   44.4932   26.5742   49.3036 H   0  0  0  0  0  0  0  0  0  0  0  0
   47.7527   36.0378   42.2661 H   0  0  0  0  0  0  0  0  0  0  0  0
   46.2910   32.8922   41.0314 H   0  0  0  0  0  0  0  0  0  0  0  0
   47.4252   32.3718   39.1924 H   0  0  0  0  0  0  0  0  0  0  0  0
   46.3487   33.6163   38.4893 H   0  0  0  0  0  0  0  0  0  0  0  0
   49.2076   33.6737   38.8349 H   0  0  0  0  0  0  0  0  0  0  0  0
   48.2001   34.8682   38.0422 H   0  0  0  0  0  0  0  0  0  0  0  0
   49.4475   35.3766   40.4529 H   0  0  0  0  0  0  0  0  0  0  0  0
   47.9014   36.1202   40.1076 H   0  0  0  0  0  0  0  0  0  0  0  0
  1  4  1  0
  2  7  2  0
  3  2  1  0
  4  5  1  0
  4  3  2  0
  5  6  2  0
  6  8  1  0
  6  7  1  0
  9  8  1  0
  9 13  1  0
 10 11  1  0
 10  9  2  0
 11 12  1  0
 12 13  2  0
 12 14  1  0
 14 16  1  0
 15 14  2  0
 17  1  1  0
 18 22  1  0
 19 18  1  0
 20 19  1  0
 20 21  1  0
 21 22  1  0
 22 23  1  0
 22 17  1  1
 23 24  1  0
 25 23  1  0
 26 23  1  0
  1 27  1  0
  1 28  1  0
  2 29  1  0
  3 30  1  0
 16 31  1  0
 17 32  1  0
 18 33  1  0
 19 34  1  0
 19 35  1  0
 20 36  1  0
 20 37  1  0
 21 38  1  0
 21 39  1  0
M  ISO  8  27   8  28   8  29  14  30  14  31   3  32   5  33   5  34  13
M  ISO  5  35  13  36  13  37  13  38  13  39  13
M  END
>  <minimizedAffinity>  (1) 
-5.10768032

>  <minimizedRMSD>  (1) 
2.38759303

$$$$
