
     RDKit          3D

 28 30  0  0  0  0  0  0  0  0999 V2000
   46.4300   34.1860   40.8090 N   0  0  0  0  0  0  0  0  0  0  0  0
   47.4210   34.2900   39.9610 N   0  0  0  0  0  0  0  0  0  0  0  0
   48.4670   34.9630   40.5070 C   0  0  0  0  0  0  0  0  0  0  0  0
   48.0690   35.2930   41.8020 C   0  0  0  0  0  0  0  0  0  0  0  0
   46.8090   34.7930   41.9370 C   0  0  0  0  0  0  0  0  0  0  0  0
   46.0710   34.9440   43.1560 N   0  0  0  0  0  0  0  0  0  0  0  0
   45.2440   35.9880   43.3450 C   0  0  0  0  0  0  0  0  0  0  0  0
   44.5610   36.0830   44.5340 C   0  0  0  0  0  0  0  0  0  0  0  0
   44.7930   35.0730   45.4440 C   0  0  0  0  0  0  0  0  0  0  0  0
   44.1360   35.0750   46.7060 N   0  0  0  0  0  0  0  0  0  0  0  0
   45.6250   34.0270   45.2480 N   0  0  0  0  0  0  0  0  0  0  0  0
   46.2860   33.9670   44.0550 C   0  0  0  0  0  0  0  0  0  0  0  0
   47.0650   33.0000   43.8550 O   0  0  0  0  0  0  0  0  0  0  0  0
   42.8440   33.5610   40.0310 C   0  0  0  0  0  0  0  0  0  0  0  0
   44.0440   34.2640   40.2750 C   0  0  0  0  0  0  0  0  0  0  0  0
   45.1990   33.5480   40.5560 C   0  0  0  0  0  0  0  0  0  0  0  0
   45.1180   32.1970   40.5840 N   0  0  0  0  0  0  0  0  0  0  0  0
   43.9610   31.5280   40.3500 C   0  0  0  0  0  0  0  0  0  0  0  0
   42.8430   32.2040   40.0770 N   0  0  0  0  0  0  0  0  0  0  0  0
   49.4284   35.1987   40.0272 H   0  0  0  0  0  0  0  0  0  0  0  0
   48.6508   35.8423   42.5568 H   0  0  0  0  0  0  0  0  0  0  0  0
   45.1168   36.7511   42.5630 H   0  0  0  0  0  0  0  0  0  0  0  0
   43.8718   36.9135   44.7467 H   0  0  0  0  0  0  0  0  0  0  0  0
   44.3142   34.3173   47.3806 H   0  0  0  0  0  0  0  0  0  0  0  0
   43.4822   35.8341   46.9450 H   0  0  0  0  0  0  0  0  0  0  0  0
   41.9170   34.1085   39.8054 H   0  0  0  0  0  0  0  0  0  0  0  0
   44.0630   35.3634   40.2428 H   0  0  0  0  0  0  0  0  0  0  0  0
   43.9444   30.4287   40.3853 H   0  0  0  0  0  0  0  0  0  0  0  0
  1  5  1  0
  2  3  2  0
  2  1  1  0
  3  4  1  0
  4  5  2  0
  5  6  1  0
  6  7  1  0
  6 12  1  0
  7  8  2  0
  8  9  1  0
  9 10  1  0
 11  9  2  0
 12 11  1  0
 13 12  2  0
 14 19  2  0
 14 15  1  0
 15 16  2  0
 16 17  1  0
 16  1  1  0
 18 17  2  0
 19 18  1  0
  3 20  1  0
  4 21  1  0
  7 22  1  0
  8 23  1  0
 10 24  1  0
 10 25  1  0
 14 26  1  0
 15 27  1  0
 18 28  1  0
M  ISO  7  20  14  21  14  22  14  23  14  26  14  27  14  28  14
M  END
>  <minimizedAffinity>  (1) 
-5.83582926

>  <minimizedRMSD>  (1) 
4.44034863

$$$$
