
     RDKit          3D

 28 31  0  0  0  0  0  0  0  0999 V2000
   45.4720   34.0220   41.6690 N   0  0  0  0  0  0  0  0  0  0  0  0
   46.6030   33.6810   41.1370 N   0  0  0  0  0  0  0  0  0  0  0  0
   46.4740   33.3680   39.8300 C   0  0  0  0  0  0  0  0  0  0  0  0
   45.1220   33.5360   39.5300 C   0  0  0  0  0  0  0  0  0  0  0  0
   44.5260   33.9440   40.7060 C   0  0  0  0  0  0  0  0  0  0  0  0
   43.1320   34.2170   40.7890 N   0  0  0  0  0  0  0  0  0  0  0  0
   42.3890   35.2950   40.4770 C   0  0  0  0  0  0  0  0  0  0  0  0
   41.0890   35.0660   40.7390 N   0  0  0  0  0  0  0  0  0  0  0  0
   40.9330   33.8360   41.2290 C   0  0  0  0  0  0  0  0  0  0  0  0
   39.8600   33.0980   41.6540 C   0  0  0  0  0  0  0  0  0  0  0  0
   40.0730   31.8390   42.1050 N   0  0  0  0  0  0  0  0  0  0  0  0
   41.3390   31.3330   42.1280 C   0  0  0  0  0  0  0  0  0  0  0  0
   42.3930   32.0480   41.7150 N   0  0  0  0  0  0  0  0  0  0  0  0
   42.2180   33.3200   41.2530 C   0  0  0  0  0  0  0  0  0  0  0  0
   45.2750   34.0360   45.3800 C   0  0  0  0  0  0  0  0  0  0  0  0
   45.5310   33.5610   44.0680 C   0  0  0  0  0  0  0  0  0  0  0  0
   45.2540   34.4060   43.0060 C   0  0  0  0  0  0  0  0  0  0  0  0
   44.7500   35.6460   43.2770 N   0  0  0  0  0  0  0  0  0  0  0  0
   44.5160   36.0690   44.5450 C   0  0  0  0  0  0  0  0  0  0  0  0
   44.7800   35.2610   45.5920 N   0  0  0  0  0  0  0  0  0  0  0  0
   47.2709   33.0467   39.1431 H   0  0  0  0  0  0  0  0  0  0  0  0
   44.6326   33.3764   38.5579 H   0  0  0  0  0  0  0  0  0  0  0  0
   42.7889   36.2332   40.0649 H   0  0  0  0  0  0  0  0  0  0  0  0
   38.8445   33.5201   41.6294 H   0  0  0  0  0  0  0  0  0  0  0  0
   41.4988   30.3088   42.4961 H   0  0  0  0  0  0  0  0  0  0  0  0
   45.4877   33.3843   46.2403 H   0  0  0  0  0  0  0  0  0  0  0  0
   45.9370   32.5527   43.8993 H   0  0  0  0  0  0  0  0  0  0  0  0
   44.1090   37.0759   44.7197 H   0  0  0  0  0  0  0  0  0  0  0  0
  1 17  1  0
  2  1  1  0
  3  2  2  0
  4  3  1  0
  4  5  2  0
  5  6  1  0
  5  1  1  0
  6 14  1  0
  7  8  2  0
  7  6  1  0
  8  9  1  0
  9 14  2  0
  9 10  1  0
 10 11  2  0
 11 12  1  0
 13 12  2  0
 14 13  1  0
 15 20  2  0
 16 15  1  0
 17 18  1  0
 17 16  2  0
 18 19  2  0
 19 20  1  0
  3 21  1  0
  4 22  1  0
  7 23  1  0
 10 24  1  0
 12 25  1  0
 15 26  1  0
 16 27  1  0
 19 28  1  0
M  ISO  8  21  14  22  14  23  14  24  14  25  14  26  14  27  14  28  14
M  END
>  <minimizedAffinity>  (1) 
-5.10771179

>  <minimizedRMSD>  (1) 
6.51631498

$$$$
