
     RDKit          3D

 24 26  0  0  0  0  0  0  0  0999 V2000
   45.5880   34.4500   41.6270 N   0  0  0  0  0  0  0  0  0  0  0  0
   46.5220   34.4280   40.7230 N   0  0  0  0  0  0  0  0  0  0  0  0
   47.7550   34.5340   41.2510 C   0  0  0  0  0  0  0  0  0  0  0  0
   47.5500   34.6310   42.6230 C   0  0  0  0  0  0  0  0  0  0  0  0
   46.1830   34.5740   42.8150 C   0  0  0  0  0  0  0  0  0  0  0  0
   42.0350   35.3020   40.9170 C   0  0  0  0  0  0  0  0  0  0  0  0
   43.4330   35.5100   41.1330 C   0  0  0  0  0  0  0  0  0  0  0  0
   44.1980   34.3610   41.3980 C   0  0  0  0  0  0  0  0  0  0  0  0
   43.5860   33.1450   41.4330 N   0  0  0  0  0  0  0  0  0  0  0  0
   42.2480   33.0050   41.2190 C   0  0  0  0  0  0  0  0  0  0  0  0
   41.4890   34.0810   40.9640 N   0  0  0  0  0  0  0  0  0  0  0  0
   45.5950   34.6480   44.1600 C   0  0  0  0  0  0  0  0  0  0  0  0
   44.7590   35.5950   44.6800 C   0  0  0  0  0  0  0  0  0  0  0  0
   44.4530   35.2570   45.9960 C   0  0  0  0  0  0  0  0  0  0  0  0
   45.1210   34.1140   46.2130 N   0  0  0  0  0  0  0  0  0  0  0  0
   45.7900   33.7610   45.1300 N   0  0  0  0  0  0  0  0  0  0  0  0
   48.7153   34.5422   40.7146 H   0  0  0  0  0  0  0  0  0  0  0  0
   48.3219   34.7328   43.4001 H   0  0  0  0  0  0  0  0  0  0  0  0
   41.3911   36.1686   40.7066 H   0  0  0  0  0  0  0  0  0  0  0  0
   43.8843   36.5124   41.0940 H   0  0  0  0  0  0  0  0  0  0  0  0
   41.7885   32.0062   41.2554 H   0  0  0  0  0  0  0  0  0  0  0  0
   44.3874   36.4817   44.1455 H   0  0  0  0  0  0  0  0  0  0  0  0
   43.8084   35.8043   46.6995 H   0  0  0  0  0  0  0  0  0  0  0  0
   45.1133   33.5869   47.0978 H   0  0  0  0  0  0  0  0  0  0  0  0
  1  5  1  0
  2  3  2  0
  2  1  1  0
  3  4  1  0
  4  5  2  0
  5 12  1  0
  6 11  2  0
  6  7  1  0
  7  8  2  0
  8  9  1  0
  8  1  1  0
 10  9  2  0
 11 10  1  0
 12 13  1  0
 12 16  2  0
 13 14  2  0
 14 15  1  0
 16 15  1  0
  3 17  1  0
  4 18  1  0
  6 19  1  0
  7 20  1  0
 10 21  1  0
 13 22  1  0
 14 23  1  0
 15 24  1  0
M  ISO  8  17  14  18  14  19  14  20  14  21  14  22  14  23  14  24   9
M  END
>  <minimizedAffinity>  (1) 
-4.81283665

>  <minimizedRMSD>  (1) 
4.11362791

$$$$
