
     RDKit          3D

 24 26  0  0  0  0  0  0  0  0999 V2000
   46.0620   34.2200   41.9720 N   0  0  0  0  0  0  0  0  0  0  0  0
   45.4610   33.4410   41.1050 N   0  0  0  0  0  0  0  0  0  0  0  0
   46.1980   33.3740   39.9580 C   0  0  0  0  0  0  0  0  0  0  0  0
   47.3180   34.1660   40.1540 C   0  0  0  0  0  0  0  0  0  0  0  0
   47.1980   34.6750   41.4150 C   0  0  0  0  0  0  0  0  0  0  0  0
   44.4150   35.9210   44.8570 C   0  0  0  0  0  0  0  0  0  0  0  0
   44.8550   35.6800   43.5250 C   0  0  0  0  0  0  0  0  0  0  0  0
   45.5870   34.5290   43.2800 C   0  0  0  0  0  0  0  0  0  0  0  0
   45.8600   33.6740   44.3050 N   0  0  0  0  0  0  0  0  0  0  0  0
   45.4290   33.9270   45.5650 C   0  0  0  0  0  0  0  0  0  0  0  0
   44.7170   35.0360   45.8340 N   0  0  0  0  0  0  0  0  0  0  0  0
   48.1700   35.5860   42.0630 C   0  0  0  0  0  0  0  0  0  0  0  0
   49.3460   36.1150   41.3700 C   0  0  0  0  0  0  0  0  0  0  0  0
   49.5500   34.9420   42.2470 C   0  0  0  0  0  0  0  0  0  0  0  0
   45.9504   32.8013   39.0521 H   0  0  0  0  0  0  0  0  0  0  0  0
   48.1354   34.3472   39.4405 H   0  0  0  0  0  0  0  0  0  0  0  0
   43.8315   36.8237   45.0909 H   0  0  0  0  0  0  0  0  0  0  0  0
   44.6211   36.3860   42.7145 H   0  0  0  0  0  0  0  0  0  0  0  0
   45.6634   33.2196   46.3741 H   0  0  0  0  0  0  0  0  0  0  0  0
   47.3892   36.0883   42.6529 H   0  0  0  0  0  0  0  0  0  0  0  0
   49.4308   35.9977   40.2796 H   0  0  0  0  0  0  0  0  0  0  0  0
   49.8103   37.1105   41.3107 H   0  0  0  0  0  0  0  0  0  0  0  0
   50.0896   35.0482   43.1996 H   0  0  0  0  0  0  0  0  0  0  0  0
   49.9715   33.9328   42.1291 H   0  0  0  0  0  0  0  0  0  0  0  0
  1  8  1  0
  2  1  1  0
  3  4  1  0
  3  2  2  0
  4  5  2  0
  5  1  1  0
  5 12  1  0
  6 11  2  0
  7  6  1  0
  8  7  2  0
  8  9  1  0
  9 10  2  0
 10 11  1  0
 12 14  1  0
 13 12  1  0
 13 14  1  0
  3 15  1  0
  4 16  1  0
  6 17  1  0
  7 18  1  0
 10 19  1  0
 12 20  1  0
 13 21  1  0
 13 22  1  0
 14 23  1  0
 14 24  1  0
M  ISO  8  15  14  16  14  17  14  18  14  19  14  20  13  21  13  22  13
M  ISO  2  23  13  24  13
M  END
>  <minimizedAffinity>  (1) 
-4.73940945

>  <minimizedRMSD>  (1) 
1.02433741

$$$$
