
     RDKit          3D

 22 24  0  0  0  0  0  0  0  0999 V2000
   45.6320   34.0630   41.6220 N   0  0  0  0  0  0  0  0  0  0  0  0
   44.7560   33.6260   40.7450 N   0  0  0  0  0  0  0  0  0  0  0  0
   45.3830   33.3320   39.5690 C   0  0  0  0  0  0  0  0  0  0  0  0
   46.7240   33.6140   39.7570 C   0  0  0  0  0  0  0  0  0  0  0  0
   46.8370   34.0650   41.0440 C   0  0  0  0  0  0  0  0  0  0  0  0
   44.5060   36.0660   44.5630 C   0  0  0  0  0  0  0  0  0  0  0  0
   44.7780   35.7190   43.2100 C   0  0  0  0  0  0  0  0  0  0  0  0
   45.3420   34.4600   42.9430 C   0  0  0  0  0  0  0  0  0  0  0  0
   45.5970   33.6410   43.9800 N   0  0  0  0  0  0  0  0  0  0  0  0
   45.3320   33.9880   45.2670 C   0  0  0  0  0  0  0  0  0  0  0  0
   44.7890   35.1960   45.5420 N   0  0  0  0  0  0  0  0  0  0  0  0
   48.1160   34.4680   41.6240 C   0  0  0  0  0  0  0  0  0  0  0  0
   48.6240   35.6920   41.3940 N   0  0  0  0  0  0  0  0  0  0  0  0
   49.7470   35.8440   41.9910 O   0  0  0  0  0  0  0  0  0  0  0  0
   49.9930   34.7210   42.6220 C   0  0  0  0  0  0  0  0  0  0  0  0
   48.9890   33.8220   42.4180 N   0  0  0  0  0  0  0  0  0  0  0  0
   44.9140   32.9465   38.6517 H   0  0  0  0  0  0  0  0  0  0  0  0
   47.5343   33.4992   39.0220 H   0  0  0  0  0  0  0  0  0  0  0  0
   44.0652   37.0445   44.8042 H   0  0  0  0  0  0  0  0  0  0  0  0
   44.5521   36.4196   42.3926 H   0  0  0  0  0  0  0  0  0  0  0  0
   45.5588   33.2873   46.0841 H   0  0  0  0  0  0  0  0  0  0  0  0
   50.8878   34.5305   43.2328 H   0  0  0  0  0  0  0  0  0  0  0  0
  1  8  1  0
  2  1  1  0
  3  4  1  0
  3  2  2  0
  4  5  2  0
  5  1  1  0
  5 12  1  0
  6 11  2  0
  7  6  1  0
  8  7  2  0
  8  9  1  0
  9 10  2  0
 10 11  1  0
 12 16  1  0
 13 12  2  0
 13 14  1  0
 14 15  1  0
 16 15  2  0
  3 17  1  0
  4 18  1  0
  6 19  1  0
  7 20  1  0
 10 21  1  0
 15 22  1  0
M  ISO  6  17  14  18  14  19  14  20  14  21  14  22  14
M  END
>  <minimizedAffinity>  (1) 
-4.69095087

>  <minimizedRMSD>  (1) 
1.81105316

$$$$
