
     RDKit          3D

 24 26  0  0  0  0  0  0  0  0999 V2000
   45.6310   34.0960   41.5960 N   0  0  0  0  0  0  0  0  0  0  0  0
   44.7720   33.6350   40.7140 N   0  0  0  0  0  0  0  0  0  0  0  0
   45.3870   33.3320   39.5440 C   0  0  0  0  0  0  0  0  0  0  0  0
   46.7400   33.6330   39.7280 C   0  0  0  0  0  0  0  0  0  0  0  0
   46.8290   34.0970   41.0040 C   0  0  0  0  0  0  0  0  0  0  0  0
   44.4980   36.0740   44.5280 C   0  0  0  0  0  0  0  0  0  0  0  0
   44.7650   35.7490   43.1720 C   0  0  0  0  0  0  0  0  0  0  0  0
   45.3330   34.5060   42.9130 C   0  0  0  0  0  0  0  0  0  0  0  0
   45.6040   33.6700   43.9450 N   0  0  0  0  0  0  0  0  0  0  0  0
   45.3390   34.0060   45.2350 C   0  0  0  0  0  0  0  0  0  0  0  0
   44.7880   35.2030   45.5150 N   0  0  0  0  0  0  0  0  0  0  0  0
   48.0820   34.5050   41.5380 N   0  0  0  0  0  0  0  0  0  0  0  0
   48.8370   33.5090   42.0400 C   0  0  0  0  0  0  0  0  0  0  0  0
   50.0160   34.0690   42.5180 C   0  0  0  0  0  0  0  0  0  0  0  0
   49.9490   35.3920   42.2940 N   0  0  0  0  0  0  0  0  0  0  0  0
   48.7750   35.6330   41.7040 C   0  0  0  0  0  0  0  0  0  0  0  0
   44.9166   32.9306   38.6342 H   0  0  0  0  0  0  0  0  0  0  0  0
   47.5559   33.5193   38.9990 H   0  0  0  0  0  0  0  0  0  0  0  0
   44.0495   37.0474   44.7759 H   0  0  0  0  0  0  0  0  0  0  0  0
   44.5320   36.4521   42.3587 H   0  0  0  0  0  0  0  0  0  0  0  0
   45.5737   33.3029   46.0477 H   0  0  0  0  0  0  0  0  0  0  0  0
   48.5685   32.4426   42.0669 H   0  0  0  0  0  0  0  0  0  0  0  0
   50.8492   33.5292   42.9917 H   0  0  0  0  0  0  0  0  0  0  0  0
   48.4258   36.6295   41.3958 H   0  0  0  0  0  0  0  0  0  0  0  0
  1  8  1  0
  2  1  1  0
  3  4  1  0
  3  2  2  0
  4  5  2  0
  5 12  1  0
  5  1  1  0
  6 11  2  0
  7  6  1  0
  8  7  2  0
  8  9  1  0
  9 10  2  0
 10 11  1  0
 12 16  1  0
 12 13  1  0
 13 14  2  0
 15 14  1  0
 16 15  2  0
  3 17  1  0
  4 18  1  0
  6 19  1  0
  7 20  1  0
 10 21  1  0
 13 22  1  0
 14 23  1  0
 16 24  1  0
M  ISO  8  17  14  18  14  19  14  20  14  21  14  22  14  23  14  24  14
M  END
>  <minimizedAffinity>  (1) 
-4.65684509

>  <minimizedRMSD>  (1) 
1.81242716

$$$$
