
     RDKit          3D

 24 26  0  0  0  0  0  0  0  0999 V2000
   47.3810   34.8270   42.1310 N   0  0  0  0  0  0  0  0  0  0  0  0
   48.2720   35.5680   41.5110 N   0  0  0  0  0  0  0  0  0  0  0  0
   49.5170   35.3380   41.9640 C   0  0  0  0  0  0  0  0  0  0  0  0
   49.3850   34.3700   42.9520 C   0  0  0  0  0  0  0  0  0  0  0  0
   48.0360   34.0810   43.0210 C   0  0  0  0  0  0  0  0  0  0  0  0
   43.7320   35.4850   42.4320 C   0  0  0  0  0  0  0  0  0  0  0  0
   45.1160   35.5240   42.7390 C   0  0  0  0  0  0  0  0  0  0  0  0
   45.9970   34.8300   41.8910 C   0  0  0  0  0  0  0  0  0  0  0  0
   45.4890   34.1560   40.8200 N   0  0  0  0  0  0  0  0  0  0  0  0
   44.1490   34.1470   40.5660 C   0  0  0  0  0  0  0  0  0  0  0  0
   43.2920   34.7990   41.3570 N   0  0  0  0  0  0  0  0  0  0  0  0
   47.5190   33.0930   43.9600 C   0  0  0  0  0  0  0  0  0  0  0  0
   47.4250   31.7270   43.8400 C   0  0  0  0  0  0  0  0  0  0  0  0
   46.8760   31.2230   44.9740 N   0  0  0  0  0  0  0  0  0  0  0  0
   46.6210   32.2460   45.8130 C   0  0  0  0  0  0  0  0  0  0  0  0
   47.0180   33.3650   45.1790 N   0  0  0  0  0  0  0  0  0  0  0  0
   50.4469   35.8168   41.6232 H   0  0  0  0  0  0  0  0  0  0  0  0
   50.1898   33.9250   43.5555 H   0  0  0  0  0  0  0  0  0  0  0  0
   43.0138   36.0167   43.0735 H   0  0  0  0  0  0  0  0  0  0  0  0
   45.4883   36.0794   43.6125 H   0  0  0  0  0  0  0  0  0  0  0  0
   43.7674   33.5936   39.6953 H   0  0  0  0  0  0  0  0  0  0  0  0
   47.7430   31.1382   42.9669 H   0  0  0  0  0  0  0  0  0  0  0  0
   46.1765   32.1798   46.8170 H   0  0  0  0  0  0  0  0  0  0  0  0
   46.9471   34.3121   45.5775 H   0  0  0  0  0  0  0  0  0  0  0  0
  1  5  1  0
  2  3  2  0
  2  1  1  0
  3  4  1  0
  4  5  2  0
  5 12  1  0
  6  7  2  0
  8  1  1  0
  8  7  1  0
  9  8  2  0
 10  9  1  0
 10 11  2  0
 11  6  1  0
 12 16  1  0
 13 12  2  0
 13 14  1  0
 14 15  2  0
 16 15  1  0
  3 17  1  0
  4 18  1  0
  6 19  1  0
  7 20  1  0
 10 21  1  0
 13 22  1  0
 15 23  1  0
 16 24  1  0
M  ISO  8  17  14  18  14  19  14  20  14  21  14  22  14  23  14  24   9
M  END
>  <minimizedAffinity>  (1) 
-4.42554188

>  <minimizedRMSD>  (1) 
3.89670253

$$$$
