
     RDKit          3D

 27 29  0  0  0  0  0  0  0  0999 V2000
   46.7570   33.7240   40.7970 N   0  0  0  0  0  0  0  0  0  0  0  0
   47.9740   33.8450   41.2190 N   0  0  0  0  0  0  0  0  0  0  0  0
   48.0640   34.8040   42.1740 C   0  0  0  0  0  0  0  0  0  0  0  0
   46.7770   35.3080   42.3410 C   0  0  0  0  0  0  0  0  0  0  0  0
   45.9900   34.6160   41.4720 C   0  0  0  0  0  0  0  0  0  0  0  0
   46.0030   32.0930   37.5300 C   0  0  0  0  0  0  0  0  0  0  0  0
   46.4950   33.0540   38.4530 C   0  0  0  0  0  0  0  0  0  0  0  0
   46.3010   32.8210   39.8060 C   0  0  0  0  0  0  0  0  0  0  0  0
   45.6480   31.6840   40.1890 N   0  0  0  0  0  0  0  0  0  0  0  0
   45.1870   30.7800   39.2870 C   0  0  0  0  0  0  0  0  0  0  0  0
   45.3640   30.9860   37.9780 N   0  0  0  0  0  0  0  0  0  0  0  0
   44.5910   34.8560   41.3560 N   0  0  0  0  0  0  0  0  0  0  0  0
   43.8300   34.8840   40.2400 C   0  0  0  0  0  0  0  0  0  0  0  0
   42.4910   35.1340   40.3310 C   0  0  0  0  0  0  0  0  0  0  0  0
   41.8440   35.3680   41.5310 C   0  0  0  0  0  0  0  0  0  0  0  0
   40.6250   35.6000   41.6550 O   0  0  0  0  0  0  0  0  0  0  0  0
   42.6400   35.3310   42.6130 N   0  0  0  0  0  0  0  0  0  0  0  0
   43.9620   35.0860   42.5460 C   0  0  0  0  0  0  0  0  0  0  0  0
   44.5870   35.0820   43.6570 O   0  0  0  0  0  0  0  0  0  0  0  0
   48.9716   35.1201   42.7091 H   0  0  0  0  0  0  0  0  0  0  0  0
   46.4609   36.1024   43.0331 H   0  0  0  0  0  0  0  0  0  0  0  0
   46.1411   32.2480   36.4498 H   0  0  0  0  0  0  0  0  0  0  0  0
   47.0155   33.9581   38.1041 H   0  0  0  0  0  0  0  0  0  0  0  0
   44.6663   29.8754   39.6343 H   0  0  0  0  0  0  0  0  0  0  0  0
   44.2899   34.7051   39.2569 H   0  0  0  0  0  0  0  0  0  0  0  0
   41.8977   35.1501   39.4049 H   0  0  0  0  0  0  0  0  0  0  0  0
   42.2185   35.4981   43.5378 H   0  0  0  0  0  0  0  0  0  0  0  0
  1  2  1  0
  1  5  1  0
  2  3  2  0
  3  4  1  0
  5  4  2  0
  6 11  2  0
  6  7  1  0
  7  8  2  0
  8  9  1  0
  8  1  1  0
 10  9  2  0
 11 10  1  0
 12  5  1  0
 12 18  1  0
 13 14  2  0
 13 12  1  0
 14 15  1  0
 15 16  2  0
 15 17  1  0
 18 17  1  0
 18 19  2  0
  3 20  1  0
  4 21  1  0
  6 22  1  0
  7 23  1  0
 10 24  1  0
 13 25  1  0
 14 26  1  0
 17 27  1  0
M  ISO  8  20  14  21  14  22  14  23  14  24  14  25  14  26  14  27   9
M  END
>  <minimizedAffinity>  (1) 
-4.39892006

>  <minimizedRMSD>  (1) 
6.30356026

$$$$
