
     RDKit          3D

 24 26  0  0  0  0  0  0  0  0999 V2000
   44.0180   34.0210   40.2040 N   0  0  0  0  0  0  0  0  0  0  0  0
   44.5520   33.3920   39.1840 N   0  0  0  0  0  0  0  0  0  0  0  0
   45.8690   33.1660   39.3720 C   0  0  0  0  0  0  0  0  0  0  0  0
   46.1640   33.7100   40.6280 C   0  0  0  0  0  0  0  0  0  0  0  0
   44.9820   34.2290   41.1050 C   0  0  0  0  0  0  0  0  0  0  0  0
   40.7230   35.6540   39.6100 C   0  0  0  0  0  0  0  0  0  0  0  0
   42.0890   35.3110   39.4410 C   0  0  0  0  0  0  0  0  0  0  0  0
   42.6660   34.4030   40.3190 C   0  0  0  0  0  0  0  0  0  0  0  0
   41.8900   33.8840   41.3010 N   0  0  0  0  0  0  0  0  0  0  0  0
   40.5790   34.2190   41.4540 C   0  0  0  0  0  0  0  0  0  0  0  0
   40.0020   35.1010   40.6110 N   0  0  0  0  0  0  0  0  0  0  0  0
   44.9070   34.8700   42.3750 N   0  0  0  0  0  0  0  0  0  0  0  0
   45.0220   34.0610   43.4390 N   0  0  0  0  0  0  0  0  0  0  0  0
   44.9360   34.7700   44.5810 C   0  0  0  0  0  0  0  0  0  0  0  0
   44.7580   36.0910   44.2330 C   0  0  0  0  0  0  0  0  0  0  0  0
   44.7460   36.1060   42.8540 C   0  0  0  0  0  0  0  0  0  0  0  0
   46.5636   32.6614   38.6843 H   0  0  0  0  0  0  0  0  0  0  0  0
   47.1420   33.7204   41.1313 H   0  0  0  0  0  0  0  0  0  0  0  0
   40.2490   36.3720   38.9246 H   0  0  0  0  0  0  0  0  0  0  0  0
   42.6812   35.7567   38.6282 H   0  0  0  0  0  0  0  0  0  0  0  0
   39.9890   33.7698   42.2664 H   0  0  0  0  0  0  0  0  0  0  0  0
   44.9967   34.3682   45.6032 H   0  0  0  0  0  0  0  0  0  0  0  0
   44.6487   36.9506   44.9106 H   0  0  0  0  0  0  0  0  0  0  0  0
   44.6215   37.0078   42.2366 H   0  0  0  0  0  0  0  0  0  0  0  0
  1  8  1  0
  1  5  1  0
  2  3  2  0
  2  1  1  0
  3  4  1  0
  4  5  2  0
  5 12  1  0
  6 11  2  0
  7  6  1  0
  7  8  2  0
  8  9  1  0
  9 10  2  0
 11 10  1  0
 12 16  1  0
 12 13  1  0
 13 14  2  0
 15 14  1  0
 16 15  2  0
  3 17  1  0
  4 18  1  0
  6 19  1  0
  7 20  1  0
 10 21  1  0
 14 22  1  0
 15 23  1  0
 16 24  1  0
M  ISO  8  17  14  18  14  19  14  20  14  21  14  22  14  23  14  24  14
M  END
>  <minimizedAffinity>  (1) 
-4.35905457

>  <minimizedRMSD>  (1) 
4.79009628

$$$$
