
     RDKit          3D

 24 26  0  0  0  0  0  0  0  0999 V2000
   46.5680   33.4970   39.3180 N   0  0  0  0  0  0  0  0  0  0  0  0
   46.2660   33.2110   38.0930 N   0  0  0  0  0  0  0  0  0  0  0  0
   47.2760   33.5320   37.2490 C   0  0  0  0  0  0  0  0  0  0  0  0
   48.2920   34.0650   38.0280 C   0  0  0  0  0  0  0  0  0  0  0  0
   47.8140   34.0260   39.3030 C   0  0  0  0  0  0  0  0  0  0  0  0
   44.1860   34.0710   42.1190 C   0  0  0  0  0  0  0  0  0  0  0  0
   44.9580   34.3400   40.9530 C   0  0  0  0  0  0  0  0  0  0  0  0
   45.7730   33.3070   40.4660 C   0  0  0  0  0  0  0  0  0  0  0  0
   45.7910   32.1180   41.1150 N   0  0  0  0  0  0  0  0  0  0  0  0
   45.0410   31.8980   42.2260 C   0  0  0  0  0  0  0  0  0  0  0  0
   44.2550   32.8570   42.7160 N   0  0  0  0  0  0  0  0  0  0  0  0
   48.5280   34.4830   40.4930 C   0  0  0  0  0  0  0  0  0  0  0  0
   49.1290   33.7110   41.4530 C   0  0  0  0  0  0  0  0  0  0  0  0
   49.7080   34.4830   42.4310 C   0  0  0  0  0  0  0  0  0  0  0  0
   49.4130   35.7770   41.9930 C   0  0  0  0  0  0  0  0  0  0  0  0
   48.7270   35.7470   40.8660 O   0  0  0  0  0  0  0  0  0  0  0  0
   47.2879   33.3962   36.1575 H   0  0  0  0  0  0  0  0  0  0  0  0
   49.2702   34.4378   37.6901 H   0  0  0  0  0  0  0  0  0  0  0  0
   43.5320   34.8510   42.5359 H   0  0  0  0  0  0  0  0  0  0  0  0
   44.9170   35.3193   40.4537 H   0  0  0  0  0  0  0  0  0  0  0  0
   45.0825   30.9192   42.7262 H   0  0  0  0  0  0  0  0  0  0  0  0
   49.1457   32.6112   41.4418 H   0  0  0  0  0  0  0  0  0  0  0  0
   50.2609   34.1648   43.3272 H   0  0  0  0  0  0  0  0  0  0  0  0
   49.7123   36.6966   42.5171 H   0  0  0  0  0  0  0  0  0  0  0  0
  1  8  1  0
  2  1  1  0
  3  4  1  0
  3  2  2  0
  4  5  2  0
  5  1  1  0
  5 12  1  0
  6 11  2  0
  7  6  1  0
  8  7  2  0
  8  9  1  0
  9 10  2  0
 10 11  1  0
 12 16  1  0
 12 13  2  0
 13 14  1  0
 15 14  2  0
 16 15  1  0
  3 17  1  0
  4 18  1  0
  6 19  1  0
  7 20  1  0
 10 21  1  0
 13 22  1  0
 14 23  1  0
 15 24  1  0
M  ISO  8  17  14  18  14  19  14  20  14  21  14  22  14  23  14  24  14
M  END
>  <minimizedAffinity>  (1) 
-4.02809429

>  <minimizedRMSD>  (1) 
3.08125663

$$$$
