
     RDKit          3D

 34 36  0  0  1  0  0  0  0  0999 V2000
   46.4360   34.4070   41.5620 N   0  0  0  0  0  0  0  0  0  0  0  0
   45.8160   33.9560   40.5220 N   0  0  0  0  0  0  0  0  0  0  0  0
   46.6640   33.7750   39.4810 C   0  0  0  0  0  0  0  0  0  0  0  0
   47.9100   34.1500   39.9380 C   0  0  0  0  0  0  0  0  0  0  0  0
   47.7530   34.5430   41.2390 C   0  0  0  0  0  0  0  0  0  0  0  0
   44.6810   36.1960   44.3220 C   0  0  0  0  0  0  0  0  0  0  0  0
   45.2410   35.9370   43.0560 C   0  0  0  0  0  0  0  0  0  0  0  0
   45.8570   34.7100   42.8250 C   0  0  0  0  0  0  0  0  0  0  0  0
   45.8910   33.8220   43.8240 N   0  0  0  0  0  0  0  0  0  0  0  0
   45.3530   34.0670   45.0470 C   0  0  0  0  0  0  0  0  0  0  0  0
   44.7590   35.2350   45.2860 N   0  0  0  0  0  0  0  0  0  0  0  0
   48.8280   35.0300   42.1370 C   0  0  2  0  0  0  0  0  0  0  0  0
   49.3330   36.3630   41.6500 C   0  0  0  0  0  0  0  0  0  0  0  0
   50.0000   34.0890   42.1450 C   0  0  0  0  0  0  0  0  0  0  0  0
   49.6300   32.6550   42.2660 C   0  0  0  0  0  0  0  0  0  0  0  0
   48.7760   32.0850   43.1870 C   0  0  0  0  0  0  0  0  0  0  0  0
   48.5530   30.7250   43.1430 C   0  0  0  0  0  0  0  0  0  0  0  0
   49.1290   29.9090   42.2410 N   0  0  0  0  0  0  0  0  0  0  0  0
   49.9610   30.4820   41.3520 C   0  0  0  0  0  0  0  0  0  0  0  0
   50.2050   31.8270   41.3650 N   0  0  0  0  0  0  0  0  0  0  0  0
   46.4105   33.4047   38.4767 H   0  0  0  0  0  0  0  0  0  0  0  0
   48.8496   34.1358   39.3662 H   0  0  0  0  0  0  0  0  0  0  0  0
   44.1889   37.1576   44.5296 H   0  0  0  0  0  0  0  0  0  0  0  0
   45.1923   36.6945   42.2599 H   0  0  0  0  0  0  0  0  0  0  0  0
   45.4077   33.3036   45.8371 H   0  0  0  0  0  0  0  0  0  0  0  0
   48.4010   35.1061   43.1479 H   0  0  0  0  0  0  0  0  0  0  0  0
   49.5747   37.0010   42.5129 H   0  0  0  0  0  0  0  0  0  0  0  0
   50.2364   36.2125   41.0408 H   0  0  0  0  0  0  0  0  0  0  0  0
   48.5566   36.8489   41.0408 H   0  0  0  0  0  0  0  0  0  0  0  0
   50.5565   34.2234   41.2058 H   0  0  0  0  0  0  0  0  0  0  0  0
   50.5979   34.3369   43.0344 H   0  0  0  0  0  0  0  0  0  0  0  0
   48.2795   32.7070   43.9464 H   0  0  0  0  0  0  0  0  0  0  0  0
   47.8691   30.2843   43.8833 H   0  0  0  0  0  0  0  0  0  0  0  0
   50.4563   29.8535   40.5973 H   0  0  0  0  0  0  0  0  0  0  0  0
  1  8  1  0
  2  1  1  0
  3  4  1  0
  3  2  2  0
  4  5  2  0
  5  1  1  0
  5 12  1  0
  6 11  2  0
  7  6  1  0
  8  7  2  0
  8  9  1  0
  9 10  2  0
 10 11  1  0
 12 14  1  0
 13 12  1  0
 14 15  1  0
 15 16  2  0
 17 16  1  0
 18 17  2  0
 19 20  2  0
 19 18  1  0
 20 15  1  0
  3 21  1  0
  4 22  1  0
  6 23  1  0
  7 24  1  0
 10 25  1  0
 12 26  1  1
 13 27  1  0
 13 28  1  0
 13 29  1  0
 14 30  1  0
 14 31  1  0
 16 32  1  0
 17 33  1  0
 19 34  1  0
M  ISO  8  21  14  22  14  23  14  24  14  25  14  26   8  27   8  28   8
M  ISO  6  29   8  30   8  31   8  32  14  33  14  34  14
M  END
>  <minimizedAffinity>  (1) 
-5.04962921

>  <minimizedRMSD>  (1) 
0.77838546

$$$$
