
     RDKit          3D

 32 34  0  0  1  0  0  0  0  0999 V2000
   45.9740   32.6010   41.4260 C   0  0  1  0  0  0  0  0  0  0  0  0
   47.0180   33.6570   41.1650 C   0  0  0  0  0  0  0  0  0  0  0  0
   46.6490   33.3360   42.5330 C   0  0  1  0  0  0  0  0  0  0  0  0
   45.9240   34.2940   43.4130 C   0  0  0  0  0  0  0  0  0  0  0  0
   45.4330   34.0360   44.6850 C   0  0  0  0  0  0  0  0  0  0  0  0
   44.8030   35.0340   45.4020 C   0  0  0  0  0  0  0  0  0  0  0  0
   44.6410   36.2630   44.9210 N   0  0  0  0  0  0  0  0  0  0  0  0
   45.1170   36.5070   43.6930 C   0  0  0  0  0  0  0  0  0  0  0  0
   45.7310   35.5550   42.9790 N   0  0  0  0  0  0  0  0  0  0  0  0
   44.9580   37.8190   43.1470 N   0  0  0  0  0  0  0  0  0  0  0  0
   45.2330   38.9650   43.9290 C   0  0  0  0  0  0  0  0  0  0  0  0
   45.0760   38.8500   45.2040 N   0  0  0  0  0  0  0  0  0  0  0  0
   45.6660   40.1850   43.2950 N   0  0  0  0  0  0  0  0  0  0  0  0
   45.2690   39.6660   45.7960 H   0  0  0  0  0  0  0  0  0  0  0  0
   43.0590   33.9130   39.4940 C   0  0  0  0  0  0  0  0  0  0  0  0
   44.4120   33.6410   39.8710 C   0  0  0  0  0  0  0  0  0  0  0  0
   44.5970   32.8880   41.0230 C   0  0  0  0  0  0  0  0  0  0  0  0
   43.5110   32.4510   41.7330 N   0  0  0  0  0  0  0  0  0  0  0  0
   42.2570   32.7270   41.3490 C   0  0  0  0  0  0  0  0  0  0  0  0
   42.0190   33.4540   40.2350 N   0  0  0  0  0  0  0  0  0  0  0  0
   45.8175   31.5358   41.2005 H   0  0  0  0  0  0  0  0  0  0  0  0
   48.0074   33.3676   40.7811 H   0  0  0  0  0  0  0  0  0  0  0  0
   47.0546   34.5803   40.5681 H   0  0  0  0  0  0  0  0  0  0  0  0
   47.2107   33.0321   43.4286 H   0  0  0  0  0  0  0  0  0  0  0  0
   45.5460   33.0335   45.1235 H   0  0  0  0  0  0  0  0  0  0  0  0
   44.4213   34.8039   46.4077 H   0  0  0  0  0  0  0  0  0  0  0  0
   44.6398   37.9307   42.1738 H   0  0  0  0  0  0  0  0  0  0  0  0
   45.8660   41.0190   43.8655 H   0  0  0  0  0  0  0  0  0  0  0  0
   45.7754   40.2228   42.2715 H   0  0  0  0  0  0  0  0  0  0  0  0
   42.8584   34.5041   38.5883 H   0  0  0  0  0  0  0  0  0  0  0  0
   45.2624   34.0095   39.2785 H   0  0  0  0  0  0  0  0  0  0  0  0
   41.4115   32.3574   41.9477 H   0  0  0  0  0  0  0  0  0  0  0  0
  1  3  1  0
  2  1  1  0
  2  3  1  0
  3  4  1  0
  4  5  2  0
  5  6  1  0
  7  6  2  0
  8  7  1  0
  9  4  1  0
  9  8  2  0
 10  8  1  0
 10 11  1  0
 11 12  2  0
 12 14  1  0
 13 11  1  0
 15 16  2  0
 15 20  1  0
 16 17  1  0
 17  1  1  0
 17 18  2  0
 19 18  1  0
 20 19  2  0
  1 21  1  1
  2 22  1  0
  2 23  1  0
  3 24  1  1
  5 25  1  0
  6 26  1  0
 10 27  1  0
 13 28  1  0
 13 29  1  0
 15 30  1  0
 16 31  1  0
 19 32  1  0
M  ISO  8  21  13  22  13  23  13  24  13  25  14  26  14  30  14  31  14
M  ISO  1  32  14
M  END
>  <minimizedAffinity>  (1) 
-5.22193003

>  <minimizedRMSD>  (1) 
1.12059569

$$$$
