
     RDKit          3D

 48 51  0  0  1  0  0  0  0  0999 V2000
   48.8550   35.1650   42.2010 C   0  0  2  0  0  0  0  0  0  0  0  0
   46.5120   34.4190   41.6060 N   0  0  0  0  0  0  0  0  0  0  0  0
   45.9210   33.9110   40.5700 N   0  0  0  0  0  0  0  0  0  0  0  0
   46.7950   33.7410   39.5370 C   0  0  0  0  0  0  0  0  0  0  0  0
   48.0230   34.1900   40.0060 C   0  0  0  0  0  0  0  0  0  0  0  0
   47.8140   34.6030   41.2890 C   0  0  0  0  0  0  0  0  0  0  0  0
   44.6640   36.1630   44.3180 C   0  0  0  0  0  0  0  0  0  0  0  0
   45.2480   35.9190   43.0570 C   0  0  0  0  0  0  0  0  0  0  0  0
   45.9000   34.7270   42.8410 C   0  0  0  0  0  0  0  0  0  0  0  0
   45.9480   33.8390   43.8540 N   0  0  0  0  0  0  0  0  0  0  0  0
   45.3890   34.0640   45.0670 C   0  0  0  0  0  0  0  0  0  0  0  0
   44.7500   35.2150   45.3090 N   0  0  0  0  0  0  0  0  0  0  0  0
   49.2920   36.5200   41.6630 C   0  0  0  0  0  0  0  0  0  0  0  0
   50.0770   34.3080   42.2420 C   0  0  0  0  0  0  0  0  0  0  0  0
   49.8080   32.8960   42.2730 C   0  0  0  0  0  0  0  0  0  0  0  0
   48.9070   32.1300   43.0240 C   0  0  0  0  0  0  0  0  0  0  0  0
   48.8610   30.7930   42.8350 C   0  0  0  0  0  0  0  0  0  0  0  0
   49.7230   30.2200   41.8880 C   0  0  0  0  0  0  0  0  0  0  0  0
   50.6230   31.7250   41.2690 S   0  0  0  0  0  0  0  0  0  0  0  0
   49.9080   28.9610   41.4260 N   0  0  0  0  0  0  0  0  0  0  0  0
   49.1930   28.5840   40.2270 C   0  0  0  0  0  0  0  0  0  0  0  0
   50.2380   28.2960   39.1570 C   0  0  0  0  0  0  0  0  0  0  0  0
   51.6370   28.2210   39.6940 C   0  0  0  0  0  0  0  0  0  0  0  0
   51.7730   27.4950   41.0020 C   0  0  0  0  0  0  0  0  0  0  0  0
   50.7430   27.9490   42.0150 C   0  0  0  0  0  0  0  0  0  0  0  0
   48.4159   35.2294   43.2075 H   0  0  0  0  0  0  0  0  0  0  0  0
   46.5736   33.3331   38.5397 H   0  0  0  0  0  0  0  0  0  0  0  0
   48.9738   34.2087   39.4532 H   0  0  0  0  0  0  0  0  0  0  0  0
   44.1402   37.1115   44.5077 H   0  0  0  0  0  0  0  0  0  0  0  0
   45.1829   36.6716   42.2575 H   0  0  0  0  0  0  0  0  0  0  0  0
   45.4603   33.2995   45.8547 H   0  0  0  0  0  0  0  0  0  0  0  0
   49.5098   37.1953   42.5035 H   0  0  0  0  0  0  0  0  0  0  0  0
   50.1958   36.3963   41.0483 H   0  0  0  0  0  0  0  0  0  0  0  0
   48.4862   36.9477   41.0483 H   0  0  0  0  0  0  0  0  0  0  0  0
   50.6798   34.5244   41.3477 H   0  0  0  0  0  0  0  0  0  0  0  0
   50.6004   34.5498   43.1788 H   0  0  0  0  0  0  0  0  0  0  0  0
   48.2449   32.6113   43.7588 H   0  0  0  0  0  0  0  0  0  0  0  0
   48.1631   30.1675   43.4109 H   0  0  0  0  0  0  0  0  0  0  0  0
   48.5875   27.6852   40.4152 H   0  0  0  0  0  0  0  0  0  0  0  0
   48.5138   29.3876   39.9060 H   0  0  0  0  0  0  0  0  0  0  0  0
   50.1961   29.0971   38.4044 H   0  0  0  0  0  0  0  0  0  0  0  0
   50.0014   27.3104   38.7296 H   0  0  0  0  0  0  0  0  0  0  0  0
   52.2617   27.7050   38.9500 H   0  0  0  0  0  0  0  0  0  0  0  0
   51.9519   29.2581   39.8819 H   0  0  0  0  0  0  0  0  0  0  0  0
   51.6447   26.4170   40.8244 H   0  0  0  0  0  0  0  0  0  0  0  0
   52.7702   27.7162   41.4102 H   0  0  0  0  0  0  0  0  0  0  0  0
   51.2534   28.3621   42.8975 H   0  0  0  0  0  0  0  0  0  0  0  0
   50.1235   27.0922   42.3186 H   0  0  0  0  0  0  0  0  0  0  0  0
  1 14  1  0
  2  9  1  0
  3  2  1  0
  4  5  1  0
  4  3  2  0
  5  6  2  0
  6  2  1  0
  6  1  1  0
  7 12  2  0
  8  7  1  0
  9  8  2  0
  9 10  1  0
 10 11  2  0
 11 12  1  0
 13  1  1  0
 14 15  1  0
 15 16  2  0
 17 16  1  0
 18 17  2  0
 19 18  1  0
 19 15  1  0
 20 18  1  0
 20 25  1  0
 21 20  1  0
 22 23  1  0
 22 21  1  0
 23 24  1  0
 24 25  1  0
  1 26  1  1
  4 27  1  0
  5 28  1  0
  7 29  1  0
  8 30  1  0
 11 31  1  0
 13 32  1  0
 13 33  1  0
 13 34  1  0
 14 35  1  0
 14 36  1  0
 16 37  1  0
 17 38  1  0
 21 39  1  0
 21 40  1  0
 22 41  1  0
 22 42  1  0
 23 43  1  0
 23 44  1  0
 24 45  1  0
 24 46  1  0
 25 47  1  0
 25 48  1  0
M  ISO  8  26   8  27  14  28  14  29  14  30  14  31  14  32   8  33   8
M  ISO  8  34   8  35   8  36   8  37  14  38  14  39  13  40  13  41  13
M  ISO  7  42  13  43  13  44  13  45  13  46  13  47  13  48  13
M  END
>  <minimizedAffinity>  (1) 
-5.07418299

>  <minimizedRMSD>  (1) 
0.397148252

$$$$
