
     RDKit          3D

 40 43  0  0  1  0  0  0  0  0999 V2000
   48.8240   35.1560   42.1760 C   0  0  2  0  0  0  0  0  0  0  0  0
   46.4840   34.4270   41.5980 N   0  0  0  0  0  0  0  0  0  0  0  0
   45.8800   33.9200   40.5640 N   0  0  0  0  0  0  0  0  0  0  0  0
   46.7390   33.7410   39.5280 C   0  0  0  0  0  0  0  0  0  0  0  0
   47.9760   34.1820   39.9810 C   0  0  0  0  0  0  0  0  0  0  0  0
   47.7850   34.6030   41.2720 C   0  0  0  0  0  0  0  0  0  0  0  0
   44.6690   36.1840   44.3340 C   0  0  0  0  0  0  0  0  0  0  0  0
   45.2470   35.9410   43.0670 C   0  0  0  0  0  0  0  0  0  0  0  0
   45.8800   34.7400   42.8390 C   0  0  0  0  0  0  0  0  0  0  0  0
   45.9160   33.8450   43.8420 N   0  0  0  0  0  0  0  0  0  0  0  0
   45.3630   34.0760   45.0550 C   0  0  0  0  0  0  0  0  0  0  0  0
   44.7420   35.2390   45.3020 N   0  0  0  0  0  0  0  0  0  0  0  0
   49.3070   36.4870   41.5980 C   0  0  0  0  0  0  0  0  0  0  0  0
   50.0180   34.2630   42.2310 C   0  0  0  0  0  0  0  0  0  0  0  0
   49.7130   32.8590   42.3440 C   0  0  0  0  0  0  0  0  0  0  0  0
   48.8330   32.1650   43.1730 C   0  0  0  0  0  0  0  0  0  0  0  0
   48.7590   30.8270   43.0590 C   0  0  0  0  0  0  0  0  0  0  0  0
   49.5700   30.1910   42.1150 C   0  0  0  0  0  0  0  0  0  0  0  0
   50.4690   31.6220   41.3700 S   0  0  0  0  0  0  0  0  0  0  0  0
   49.7380   28.7880   41.7360 C   0  0  0  0  0  0  0  0  0  0  0  0
   50.9680   28.1450   42.1840 C   0  0  0  0  0  0  0  0  0  0  0  0
   50.7950   28.4990   40.7380 C   0  0  0  0  0  0  0  0  0  0  0  0
   48.3849   35.2624   43.1789 H   0  0  0  0  0  0  0  0  0  0  0  0
   46.5039   33.3312   38.5346 H   0  0  0  0  0  0  0  0  0  0  0  0
   48.9202   34.1916   39.4167 H   0  0  0  0  0  0  0  0  0  0  0  0
   44.1608   37.1389   44.5336 H   0  0  0  0  0  0  0  0  0  0  0  0
   45.1917   36.7013   42.2740 H   0  0  0  0  0  0  0  0  0  0  0  0
   45.4228   33.3083   45.8405 H   0  0  0  0  0  0  0  0  0  0  0  0
   49.5565   37.1746   42.4196 H   0  0  0  0  0  0  0  0  0  0  0  0
   50.2002   36.3155   40.9793 H   0  0  0  0  0  0  0  0  0  0  0  0
   48.5117   36.9283   40.9793 H   0  0  0  0  0  0  0  0  0  0  0  0
   50.6021   34.4142   41.3112 H   0  0  0  0  0  0  0  0  0  0  0  0
   50.5697   34.5363   43.1426 H   0  0  0  0  0  0  0  0  0  0  0  0
   48.2117   32.7009   43.9056 H   0  0  0  0  0  0  0  0  0  0  0  0
   48.0750   30.2458   43.6949 H   0  0  0  0  0  0  0  0  0  0  0  0
   48.6674   28.5480   41.8155 H   0  0  0  0  0  0  0  0  0  0  0  0
   51.6852   28.7025   42.8043 H   0  0  0  0  0  0  0  0  0  0  0  0
   51.2068   27.2235   42.7351 H   0  0  0  0  0  0  0  0  0  0  0  0
   50.6472   27.7080   39.9880 H   0  0  0  0  0  0  0  0  0  0  0  0
   51.3604   29.0862   39.9994 H   0  0  0  0  0  0  0  0  0  0  0  0
  1 14  1  0
  2  9  1  0
  3  2  1  0
  4  5  1  0
  4  3  2  0
  5  6  2  0
  6  2  1  0
  6  1  1  0
  7 12  2  0
  8  7  1  0
  9  8  2  0
  9 10  1  0
 10 11  2  0
 11 12  1  0
 13  1  1  0
 14 15  1  0
 15 16  2  0
 17 16  1  0
 18 17  2  0
 19 18  1  0
 19 15  1  0
 20 18  1  0
 20 21  1  0
 22 20  1  0
 22 21  1  0
  1 23  1  1
  4 24  1  0
  5 25  1  0
  7 26  1  0
  8 27  1  0
 11 28  1  0
 13 29  1  0
 13 30  1  0
 13 31  1  0
 14 32  1  0
 14 33  1  0
 16 34  1  0
 17 35  1  0
 20 36  1  0
 21 37  1  0
 21 38  1  0
 22 39  1  0
 22 40  1  0
M  ISO  8  23   8  24  14  25  14  26  14  27  14  28  14  29   8  30   8
M  ISO  8  31   8  32   8  33   8  34  14  35  14  36  13  37  13  38  13
M  ISO  2  39  13  40  13
M  END
>  <minimizedAffinity>  (1) 
-4.95521545

>  <minimizedRMSD>  (1) 
0.179103926

$$$$
