
     RDKit          3D

 40 43  0  0  1  0  0  0  0  0999 V2000
   48.8290   35.1630   42.1780 C   0  0  2  0  0  0  0  0  0  0  0  0
   46.4790   34.4240   41.6000 N   0  0  0  0  0  0  0  0  0  0  0  0
   45.8750   33.9140   40.5680 N   0  0  0  0  0  0  0  0  0  0  0  0
   46.7370   33.7360   39.5330 C   0  0  0  0  0  0  0  0  0  0  0  0
   47.9710   34.1820   39.9870 C   0  0  0  0  0  0  0  0  0  0  0  0
   47.7860   34.6050   41.2740 C   0  0  0  0  0  0  0  0  0  0  0  0
   44.6690   36.1840   44.3300 C   0  0  0  0  0  0  0  0  0  0  0  0
   45.2470   35.9400   43.0630 C   0  0  0  0  0  0  0  0  0  0  0  0
   45.8780   34.7370   42.8460 C   0  0  0  0  0  0  0  0  0  0  0  0
   45.9220   33.8380   43.8470 N   0  0  0  0  0  0  0  0  0  0  0  0
   45.3670   34.0740   45.0600 C   0  0  0  0  0  0  0  0  0  0  0  0
   44.7460   35.2350   45.3020 N   0  0  0  0  0  0  0  0  0  0  0  0
   49.3190   36.4820   41.5890 C   0  0  0  0  0  0  0  0  0  0  0  0
   50.0200   34.2620   42.2470 C   0  0  0  0  0  0  0  0  0  0  0  0
   49.7040   32.8600   42.3380 C   0  0  0  0  0  0  0  0  0  0  0  0
   48.8340   32.1590   43.1750 C   0  0  0  0  0  0  0  0  0  0  0  0
   48.7400   30.8210   43.0270 C   0  0  0  0  0  0  0  0  0  0  0  0
   49.5110   30.1810   42.0480 C   0  0  0  0  0  0  0  0  0  0  0  0
   50.4100   31.6300   41.3190 S   0  0  0  0  0  0  0  0  0  0  0  0
   49.6100   28.8630   41.6910 N   0  0  0  0  0  0  0  0  0  0  0  0
   50.8080   28.3210   41.3530 C   0  0  0  0  0  0  0  0  0  0  0  0
   50.5920   26.9760   41.0400 C   0  0  0  0  0  0  0  0  0  0  0  0
   49.2720   26.7540   41.1990 N   0  0  0  0  0  0  0  0  0  0  0  0
   48.6730   27.9000   41.5950 C   0  0  0  0  0  0  0  0  0  0  0  0
   48.3881   35.2821   43.1787 H   0  0  0  0  0  0  0  0  0  0  0  0
   46.5051   33.3235   38.5400 H   0  0  0  0  0  0  0  0  0  0  0  0
   48.9143   34.1929   39.4212 H   0  0  0  0  0  0  0  0  0  0  0  0
   44.1587   37.1379   44.5293 H   0  0  0  0  0  0  0  0  0  0  0  0
   45.1932   36.6970   42.2667 H   0  0  0  0  0  0  0  0  0  0  0  0
   45.4268   33.3093   45.8485 H   0  0  0  0  0  0  0  0  0  0  0  0
   49.5762   37.1744   42.4041 H   0  0  0  0  0  0  0  0  0  0  0  0
   50.2090   36.2986   40.9691 H   0  0  0  0  0  0  0  0  0  0  0  0
   48.5251   36.9241   40.9691 H   0  0  0  0  0  0  0  0  0  0  0  0
   50.6233   34.4201   41.3409 H   0  0  0  0  0  0  0  0  0  0  0  0
   50.5560   34.5224   43.1716 H   0  0  0  0  0  0  0  0  0  0  0  0
   48.2395   32.6846   43.9368 H   0  0  0  0  0  0  0  0  0  0  0  0
   48.0638   30.2379   43.6695 H   0  0  0  0  0  0  0  0  0  0  0  0
   51.7745   28.8458   41.3297 H   0  0  0  0  0  0  0  0  0  0  0  0
   51.3498   26.2432   40.7259 H   0  0  0  0  0  0  0  0  0  0  0  0
   47.6002   28.0248   41.8038 H   0  0  0  0  0  0  0  0  0  0  0  0
  1 14  1  0
  2  9  1  0
  3  2  1  0
  4  5  1  0
  4  3  2  0
  5  6  2  0
  6  2  1  0
  6  1  1  0
  7 12  2  0
  8  7  1  0
  9  8  2  0
  9 10  1  0
 10 11  2  0
 11 12  1  0
 13  1  1  0
 14 15  1  0
 15 16  2  0
 17 16  1  0
 18 17  2  0
 19 18  1  0
 19 15  1  0
 20 18  1  0
 21 20  1  0
 22 23  1  0
 22 21  2  0
 23 24  2  0
 24 20  1  0
  1 25  1  1
  4 26  1  0
  5 27  1  0
  7 28  1  0
  8 29  1  0
 11 30  1  0
 13 31  1  0
 13 32  1  0
 13 33  1  0
 14 34  1  0
 14 35  1  0
 16 36  1  0
 17 37  1  0
 21 38  1  0
 22 39  1  0
 24 40  1  0
M  ISO  8  25   8  26  14  27  14  28  14  29  14  30  14  31   8  32   8
M  ISO  8  33   8  34   8  35   8  36  14  37  14  38  14  39  14  40  14
M  END
>  <minimizedAffinity>  (1) 
-4.93626165

>  <minimizedRMSD>  (1) 
0.175918087

$$$$
