
     RDKit          3D

 38 41  0  0  1  0  0  0  0  0999 V2000
   48.8200   35.1410   42.1760 C   0  0  2  0  0  0  0  0  0  0  0  0
   46.4640   34.4260   41.5940 N   0  0  0  0  0  0  0  0  0  0  0  0
   45.8600   33.9270   40.5620 N   0  0  0  0  0  0  0  0  0  0  0  0
   46.7190   33.7480   39.5250 C   0  0  0  0  0  0  0  0  0  0  0  0
   47.9590   34.1810   39.9790 C   0  0  0  0  0  0  0  0  0  0  0  0
   47.7780   34.6000   41.2740 C   0  0  0  0  0  0  0  0  0  0  0  0
   44.6710   36.1820   44.3450 C   0  0  0  0  0  0  0  0  0  0  0  0
   45.2400   35.9430   43.0700 C   0  0  0  0  0  0  0  0  0  0  0  0
   45.8670   34.7390   42.8420 C   0  0  0  0  0  0  0  0  0  0  0  0
   45.9120   33.8400   43.8420 N   0  0  0  0  0  0  0  0  0  0  0  0
   45.3670   34.0710   45.0580 C   0  0  0  0  0  0  0  0  0  0  0  0
   44.7470   35.2310   45.3230 N   0  0  0  0  0  0  0  0  0  0  0  0
   49.3240   36.4610   41.5940 C   0  0  0  0  0  0  0  0  0  0  0  0
   50.0040   34.2340   42.2430 C   0  0  0  0  0  0  0  0  0  0  0  0
   49.6780   32.8290   42.3270 C   0  0  0  0  0  0  0  0  0  0  0  0
   48.8130   32.1360   43.1780 C   0  0  0  0  0  0  0  0  0  0  0  0
   48.7100   30.8010   43.0230 C   0  0  0  0  0  0  0  0  0  0  0  0
   49.4620   30.1590   42.0310 C   0  0  0  0  0  0  0  0  0  0  0  0
   50.3640   31.6040   41.2920 S   0  0  0  0  0  0  0  0  0  0  0  0
   49.4860   28.7260   41.7130 C   0  0  0  0  0  0  0  0  0  0  0  0
   48.4850   27.9220   41.3790 N   0  0  0  0  0  0  0  0  0  0  0  0
   48.9340   26.7190   41.1770 O   0  0  0  0  0  0  0  0  0  0  0  0
   50.2320   26.7020   41.3730 C   0  0  0  0  0  0  0  0  0  0  0  0
   50.6160   27.9600   41.7150 N   0  0  0  0  0  0  0  0  0  0  0  0
   48.3766   35.2564   43.1760 H   0  0  0  0  0  0  0  0  0  0  0  0
   46.4817   33.3433   38.5300 H   0  0  0  0  0  0  0  0  0  0  0  0
   48.9014   34.1869   39.4117 H   0  0  0  0  0  0  0  0  0  0  0  0
   44.1657   37.1376   44.5486 H   0  0  0  0  0  0  0  0  0  0  0  0
   45.1820   36.7042   42.2781 H   0  0  0  0  0  0  0  0  0  0  0  0
   45.4328   33.2990   45.8388 H   0  0  0  0  0  0  0  0  0  0  0  0
   49.5858   37.1467   42.4133 H   0  0  0  0  0  0  0  0  0  0  0  0
   50.2136   36.2729   40.9749 H   0  0  0  0  0  0  0  0  0  0  0  0
   48.5354   36.9136   40.9749 H   0  0  0  0  0  0  0  0  0  0  0  0
   50.6100   34.3927   41.3388 H   0  0  0  0  0  0  0  0  0  0  0  0
   50.5400   34.4869   43.1697 H   0  0  0  0  0  0  0  0  0  0  0  0
   48.2341   32.6636   43.9504 H   0  0  0  0  0  0  0  0  0  0  0  0
   48.0391   30.2190   43.6720 H   0  0  0  0  0  0  0  0  0  0  0  0
   50.8908   25.8263   41.2775 H   0  0  0  0  0  0  0  0  0  0  0  0
  1 14  1  0
  2  9  1  0
  3  2  1  0
  4  5  1  0
  4  3  2  0
  5  6  2  0
  6  2  1  0
  6  1  1  0
  7 12  2  0
  8  7  1  0
  9  8  2  0
  9 10  1  0
 10 11  2  0
 11 12  1  0
 13  1  1  0
 14 15  1  0
 15 16  2  0
 17 16  1  0
 18 17  2  0
 19 18  1  0
 19 15  1  0
 20 24  1  0
 20 18  1  0
 21 20  2  0
 22 23  1  0
 22 21  1  0
 23 24  2  0
  1 25  1  1
  4 26  1  0
  5 27  1  0
  7 28  1  0
  8 29  1  0
 11 30  1  0
 13 31  1  0
 13 32  1  0
 13 33  1  0
 14 34  1  0
 14 35  1  0
 16 36  1  0
 17 37  1  0
 23 38  1  0
M  ISO  8  25   8  26  14  27  14  28  14  29  14  30  14  31   8  32   8
M  ISO  6  33   8  34   8  35   8  36  14  37  14  38  14
M  END
>  <minimizedAffinity>  (1) 
-4.92841244

>  <minimizedRMSD>  (1) 
0.127857372

$$$$
