
     RDKit          3D

 40 43  0  0  1  0  0  0  0  0999 V2000
   48.8280   35.1680   42.1740 C   0  0  2  0  0  0  0  0  0  0  0  0
   46.4760   34.4220   41.5970 N   0  0  0  0  0  0  0  0  0  0  0  0
   45.8760   33.9150   40.5650 N   0  0  0  0  0  0  0  0  0  0  0  0
   46.7390   33.7430   39.5300 C   0  0  0  0  0  0  0  0  0  0  0  0
   47.9760   34.1900   39.9790 C   0  0  0  0  0  0  0  0  0  0  0  0
   47.7860   34.6100   41.2740 C   0  0  0  0  0  0  0  0  0  0  0  0
   44.6700   36.1770   44.3350 C   0  0  0  0  0  0  0  0  0  0  0  0
   45.2430   35.9370   43.0650 C   0  0  0  0  0  0  0  0  0  0  0  0
   45.8760   34.7320   42.8450 C   0  0  0  0  0  0  0  0  0  0  0  0
   45.9250   33.8330   43.8450 N   0  0  0  0  0  0  0  0  0  0  0  0
   45.3750   34.0630   45.0590 C   0  0  0  0  0  0  0  0  0  0  0  0
   44.7500   35.2270   45.3100 N   0  0  0  0  0  0  0  0  0  0  0  0
   49.3210   36.4850   41.5850 C   0  0  0  0  0  0  0  0  0  0  0  0
   50.0160   34.2560   42.2470 C   0  0  0  0  0  0  0  0  0  0  0  0
   49.6950   32.8590   42.3250 C   0  0  0  0  0  0  0  0  0  0  0  0
   48.8270   32.1480   43.1610 C   0  0  0  0  0  0  0  0  0  0  0  0
   48.7330   30.8150   42.9960 C   0  0  0  0  0  0  0  0  0  0  0  0
   49.4980   30.1940   42.0050 C   0  0  0  0  0  0  0  0  0  0  0  0
   50.3970   31.6460   41.2820 S   0  0  0  0  0  0  0  0  0  0  0  0
   49.5510   28.7560   41.6530 C   0  0  0  0  0  0  0  0  0  0  0  0
   49.3180   27.6050   42.3710 C   0  0  0  0  0  0  0  0  0  0  0  0
   49.5390   26.5980   41.4540 C   0  0  0  0  0  0  0  0  0  0  0  0
   49.8840   27.1070   40.2590 N   0  0  0  0  0  0  0  0  0  0  0  0
   49.8880   28.4340   40.3920 N   0  0  0  0  0  0  0  0  0  0  0  0
   48.3887   35.2952   43.1744 H   0  0  0  0  0  0  0  0  0  0  0  0
   46.5057   33.3325   38.5365 H   0  0  0  0  0  0  0  0  0  0  0  0
   48.9183   34.2047   39.4117 H   0  0  0  0  0  0  0  0  0  0  0  0
   44.1595   37.1303   44.5367 H   0  0  0  0  0  0  0  0  0  0  0  0
   45.1851   36.6949   42.2699 H   0  0  0  0  0  0  0  0  0  0  0  0
   45.4391   33.2951   45.8440 H   0  0  0  0  0  0  0  0  0  0  0  0
   49.5800   37.1770   42.3999 H   0  0  0  0  0  0  0  0  0  0  0  0
   50.2105   36.2993   40.9651 H   0  0  0  0  0  0  0  0  0  0  0  0
   48.5282   36.9290   40.9651 H   0  0  0  0  0  0  0  0  0  0  0  0
   50.6278   34.4174   41.3472 H   0  0  0  0  0  0  0  0  0  0  0  0
   50.5435   34.5064   43.1792 H   0  0  0  0  0  0  0  0  0  0  0  0
   48.2371   32.6644   43.9326 H   0  0  0  0  0  0  0  0  0  0  0  0
   48.0617   30.2215   43.6340 H   0  0  0  0  0  0  0  0  0  0  0  0
   49.0247   27.5103   43.4269 H   0  0  0  0  0  0  0  0  0  0  0  0
   49.4455   25.5238   41.6716 H   0  0  0  0  0  0  0  0  0  0  0  0
   50.1031   26.5747   39.4049 H   0  0  0  0  0  0  0  0  0  0  0  0
  1 14  1  0
  2  9  1  0
  3  2  1  0
  4  5  1  0
  4  3  2  0
  5  6  2  0
  6  2  1  0
  6  1  1  0
  7 12  2  0
  8  7  1  0
  9  8  2  0
  9 10  1  0
 10 11  2  0
 11 12  1  0
 13  1  1  0
 14 15  1  0
 15 16  2  0
 17 16  1  0
 18 17  2  0
 19 18  1  0
 19 15  1  0
 20 18  1  0
 20 21  1  0
 22 21  2  0
 23 24  1  0
 23 22  1  0
 24 20  2  0
  1 25  1  1
  4 26  1  0
  5 27  1  0
  7 28  1  0
  8 29  1  0
 11 30  1  0
 13 31  1  0
 13 32  1  0
 13 33  1  0
 14 34  1  0
 14 35  1  0
 16 36  1  0
 17 37  1  0
 21 38  1  0
 22 39  1  0
 23 40  1  0
M  ISO  8  25   8  26  14  27  14  28  14  29  14  30  14  31   8  32   8
M  ISO  8  33   8  34   8  35   8  36  14  37  14  38  14  39  14  40   9
M  END
>  <minimizedAffinity>  (1) 
-4.92065716

>  <minimizedRMSD>  (1) 
0.166251943

$$$$
