
     RDKit          3D

 37 39  0  0  1  0  0  0  0  0999 V2000
   48.8100   35.1380   42.1640 C   0  0  2  0  0  0  0  0  0  0  0  0
   46.4660   34.4260   41.5920 N   0  0  0  0  0  0  0  0  0  0  0  0
   45.8590   33.9270   40.5620 N   0  0  0  0  0  0  0  0  0  0  0  0
   46.7220   33.7480   39.5240 C   0  0  0  0  0  0  0  0  0  0  0  0
   47.9650   34.1810   39.9760 C   0  0  0  0  0  0  0  0  0  0  0  0
   47.7690   34.5960   41.2640 C   0  0  0  0  0  0  0  0  0  0  0  0
   44.6690   36.1830   44.3420 C   0  0  0  0  0  0  0  0  0  0  0  0
   45.2410   35.9420   43.0720 C   0  0  0  0  0  0  0  0  0  0  0  0
   45.8680   34.7390   42.8400 C   0  0  0  0  0  0  0  0  0  0  0  0
   45.9070   33.8410   43.8420 N   0  0  0  0  0  0  0  0  0  0  0  0
   45.3600   34.0750   45.0550 C   0  0  0  0  0  0  0  0  0  0  0  0
   44.7420   35.2340   45.3180 N   0  0  0  0  0  0  0  0  0  0  0  0
   49.3190   36.4670   41.6040 C   0  0  0  0  0  0  0  0  0  0  0  0
   50.0050   34.2350   42.2100 C   0  0  0  0  0  0  0  0  0  0  0  0
   49.6810   32.8380   42.3420 C   0  0  0  0  0  0  0  0  0  0  0  0
   48.8120   32.1430   43.1910 C   0  0  0  0  0  0  0  0  0  0  0  0
   48.7120   30.8050   43.0980 C   0  0  0  0  0  0  0  0  0  0  0  0
   49.5030   30.1730   42.1350 C   0  0  0  0  0  0  0  0  0  0  0  0
   50.4040   31.5970   41.3600 S   0  0  0  0  0  0  0  0  0  0  0  0
   49.5970   28.8170   41.8150 C   0  0  0  0  0  0  0  0  0  0  0  0
   49.6470   27.6330   41.6800 O   0  0  0  0  0  0  0  0  0  0  0  0
   48.3593   35.2438   43.1618 H   0  0  0  0  0  0  0  0  0  0  0  0
   46.4846   33.3430   38.5292 H   0  0  0  0  0  0  0  0  0  0  0  0
   48.9101   34.1879   39.4132 H   0  0  0  0  0  0  0  0  0  0  0  0
   44.1635   37.1390   44.5433 H   0  0  0  0  0  0  0  0  0  0  0  0
   45.1858   36.7045   42.2811 H   0  0  0  0  0  0  0  0  0  0  0  0
   45.4229   33.3037   45.8368 H   0  0  0  0  0  0  0  0  0  0  0  0
   49.5769   37.1403   42.4348 H   0  0  0  0  0  0  0  0  0  0  0  0
   50.2119   36.2871   40.9872 H   0  0  0  0  0  0  0  0  0  0  0  0
   48.5344   36.9295   40.9872 H   0  0  0  0  0  0  0  0  0  0  0  0
   50.5767   34.3708   41.2801 H   0  0  0  0  0  0  0  0  0  0  0  0
   50.5792   34.5137   43.1059 H   0  0  0  0  0  0  0  0  0  0  0  0
   48.2119   32.6901   43.9330 H   0  0  0  0  0  0  0  0  0  0  0  0
   48.0369   30.2331   43.7516 H   0  0  0  0  0  0  0  0  0  0  0  0
   48.8540   28.9160   41.0099 H   0  0  0  0  0  0  0  0  0  0  0  0
   50.6707   28.8351   42.0535 H   0  0  0  0  0  0  0  0  0  0  0  0
   49.6653   27.1999   42.5700 H   0  0  0  0  0  0  0  0  0  0  0  0
  1 14  1  0
  2  9  1  0
  3  2  1  0
  4  5  1  0
  4  3  2  0
  5  6  2  0
  6  2  1  0
  6  1  1  0
  7 12  2  0
  8  7  1  0
  9  8  2  0
  9 10  1  0
 10 11  2  0
 11 12  1  0
 13  1  1  0
 14 15  1  0
 15 16  2  0
 17 16  1  0
 18 17  2  0
 19 18  1  0
 19 15  1  0
 20 18  1  0
 21 20  1  0
  1 22  1  1
  4 23  1  0
  5 24  1  0
  7 25  1  0
  8 26  1  0
 11 27  1  0
 13 28  1  0
 13 29  1  0
 13 30  1  0
 14 31  1  0
 14 32  1  0
 16 33  1  0
 17 34  1  0
 20 35  1  0
 20 36  1  0
 21 37  1  0
M  ISO  8  22   8  23  14  24  14  25  14  26  14  27  14  28   8  29   8
M  ISO  8  30   8  31   8  32   8  33  14  34  14  35   8  36   8  37   3
M  END
>  <minimizedAffinity>  (1) 
-4.87978745

>  <minimizedRMSD>  (1) 
0.120938733

$$$$
