
     RDKit          3D

 26 28  0  0  0  0  0  0  0  0999 V2000
   46.5150   32.5740   45.2320 C   0  0  0  0  0  0  0  0  0  0  0  0
   47.2730   31.8000   44.3870 C   0  0  0  0  0  0  0  0  0  0  0  0
   47.8760   30.6190   44.7500 C   0  0  0  0  0  0  0  0  0  0  0  0
   47.7420   30.1400   46.0260 C   0  0  0  0  0  0  0  0  0  0  0  0
   47.0030   30.8680   46.8980 C   0  0  0  0  0  0  0  0  0  0  0  0
   46.8820   30.3630   48.1860 C   0  0  0  0  0  0  0  0  0  0  0  0
   46.1470   31.0460   49.1280 C   0  0  0  0  0  0  0  0  0  0  0  0
   45.5360   32.2450   48.7550 C   0  0  0  0  0  0  0  0  0  0  0  0
   45.6960   32.6910   47.4610 C   0  0  0  0  0  0  0  0  0  0  0  0
   46.4200   32.0430   46.4870 C   0  0  0  0  0  0  0  0  0  0  0  0
   44.5610   35.7370   44.8020 C   0  0  0  0  0  0  0  0  0  0  0  0
   45.0000   36.1400   43.5400 C   0  0  0  0  0  0  0  0  0  0  0  0
   45.9260   35.3090   42.9270 C   0  0  0  0  0  0  0  0  0  0  0  0
   46.3130   34.2040   43.6000 N   0  0  0  0  0  0  0  0  0  0  0  0
   45.8970   33.8130   44.8070 C   0  0  0  0  0  0  0  0  0  0  0  0
   45.0210   34.6290   45.3480 N   0  0  0  0  0  0  0  0  0  0  0  0
   47.4062   32.1481   43.3521 H   0  0  0  0  0  0  0  0  0  0  0  0
   48.4682   30.0568   44.0129 H   0  0  0  0  0  0  0  0  0  0  0  0
   48.2178   29.1968   46.3325 H   0  0  0  0  0  0  0  0  0  0  0  0
   47.3741   29.4163   48.4535 H   0  0  0  0  0  0  0  0  0  0  0  0
   46.0432   30.6563   50.1514 H   0  0  0  0  0  0  0  0  0  0  0  0
   44.9400   32.8209   49.4783 H   0  0  0  0  0  0  0  0  0  0  0  0
   45.2075   33.6374   47.1858 H   0  0  0  0  0  0  0  0  0  0  0  0
   43.8255   36.3487   45.3451 H   0  0  0  0  0  0  0  0  0  0  0  0
   44.6341   37.0601   43.0609 H   0  0  0  0  0  0  0  0  0  0  0  0
   46.3298   35.5412   41.9305 H   0  0  0  0  0  0  0  0  0  0  0  0
  1 10  2  0
  2  3  2  0
  2  1  1  0
  3  4  1  0
  4  5  2  0
  5  6  1  0
  6  7  2  0
  8  7  1  0
  9  8  2  0
 10  5  1  0
 10  9  1  0
 11 16  2  0
 12 11  1  0
 13 12  2  0
 13 14  1  0
 14 15  2  0
 15  1  1  0
 15 16  1  0
  2 17  1  0
  3 18  1  0
  4 19  1  0
  6 20  1  0
  7 21  1  0
  8 22  1  0
  9 23  1  0
 11 24  1  0
 12 25  1  0
 13 26  1  0
M  ISO  8  17  14  18  14  19  14  20  14  21  14  22  14  23  14  24  14
M  ISO  2  25  14  26  14
M  END
>  <minimizedAffinity>  (1) 
-5.36002254

>  <minimizedRMSD>  (1) 
2.45224047

$$$$
