
     RDKit          3D

 39 42  0  0  0  0  0  0  0  0999 V2000
   45.0890   35.3210   44.1080 C   0  0  0  0  0  0  0  0  0  0  0  0
   45.6600   35.4260   42.8270 C   0  0  0  0  0  0  0  0  0  0  0  0
   46.5490   34.4230   42.4580 C   0  0  0  0  0  0  0  0  0  0  0  0
   46.7650   33.4630   43.3640 N   0  0  0  0  0  0  0  0  0  0  0  0
   46.2340   33.3350   44.5960 C   0  0  0  0  0  0  0  0  0  0  0  0
   45.4210   34.3020   44.8670 N   0  0  0  0  0  0  0  0  0  0  0  0
   46.7120   32.1560   45.2780 C   0  0  0  0  0  0  0  0  0  0  0  0
   47.5110   31.2160   44.6450 C   0  0  0  0  0  0  0  0  0  0  0  0
   47.9790   30.0830   45.2510 C   0  0  0  0  0  0  0  0  0  0  0  0
   47.6700   29.8130   46.5580 C   0  0  0  0  0  0  0  0  0  0  0  0
   46.8880   30.7080   47.2170 C   0  0  0  0  0  0  0  0  0  0  0  0
   46.5770   30.4290   48.5450 C   0  0  0  0  0  0  0  0  0  0  0  0
   45.7920   31.2930   49.2660 C   0  0  0  0  0  0  0  0  0  0  0  0
   45.3220   32.4410   48.6410 C   0  0  0  0  0  0  0  0  0  0  0  0
   45.6620   32.6670   47.3230 C   0  0  0  0  0  0  0  0  0  0  0  0
   46.4390   31.8370   46.5670 C   0  0  0  0  0  0  0  0  0  0  0  0
   47.1670   34.4600   41.1760 N   0  0  0  0  0  0  0  0  0  0  0  0
   46.5390   33.7230   40.2340 C   0  0  0  0  0  0  0  0  0  0  0  0
   47.0120   33.6540   38.9380 C   0  0  0  0  0  0  0  0  0  0  0  0
   46.3020   32.8340   37.9130 C   0  0  0  0  0  0  0  0  0  0  0  0
   48.1630   34.3760   38.6490 C   0  0  0  0  0  0  0  0  0  0  0  0
   48.6380   34.3440   37.4690 O   0  0  0  0  0  0  0  0  0  0  0  0
   48.7610   35.1020   39.6280 N   0  0  0  0  0  0  0  0  0  0  0  0
   48.2820   35.1570   40.8890 C   0  0  0  0  0  0  0  0  0  0  0  0
   48.8220   35.8240   41.8070 O   0  0  0  0  0  0  0  0  0  0  0  0
   44.3772   36.0787   44.4676 H   0  0  0  0  0  0  0  0  0  0  0  0
   45.4156   36.2592   42.1516 H   0  0  0  0  0  0  0  0  0  0  0  0
   47.7843   31.3919   43.5941 H   0  0  0  0  0  0  0  0  0  0  0  0
   48.6092   29.3821   44.6839 H   0  0  0  0  0  0  0  0  0  0  0  0
   48.0412   28.9051   47.0558 H   0  0  0  0  0  0  0  0  0  0  0  0
   46.9617   29.5132   49.0176 H   0  0  0  0  0  0  0  0  0  0  0  0
   45.5404   31.0813   50.3157 H   0  0  0  0  0  0  0  0  0  0  0  0
   44.6901   33.1570   49.1869 H   0  0  0  0  0  0  0  0  0  0  0  0
   45.2794   33.5819   46.8470 H   0  0  0  0  0  0  0  0  0  0  0  0
   45.6305   33.1652   40.5051 H   0  0  0  0  0  0  0  0  0  0  0  0
   45.6613   32.0940   38.4149 H   0  0  0  0  0  0  0  0  0  0  0  0
   45.6817   33.4897   37.2843 H   0  0  0  0  0  0  0  0  0  0  0  0
   47.0397   32.3139   37.2843 H   0  0  0  0  0  0  0  0  0  0  0  0
   49.6141   35.6320   39.3996 H   0  0  0  0  0  0  0  0  0  0  0  0
  1  6  2  0
  2  1  1  0
  3  2  2  0
  3  4  1  0
  4  5  2  0
  5  6  1  0
  5  7  1  0
  7 16  2  0
  8  9  2  0
  8  7  1  0
  9 10  1  0
 10 11  2  0
 11 12  1  0
 12 13  2  0
 14 13  1  0
 15 14  2  0
 16 11  1  0
 16 15  1  0
 17  3  1  0
 18 17  1  0
 19 18  2  0
 20 19  1  0
 21 19  1  0
 21 23  1  0
 22 21  2  0
 23 24  1  0
 24 17  1  0
 24 25  2  0
  1 26  1  0
  2 27  1  0
  8 28  1  0
  9 29  1  0
 10 30  1  0
 12 31  1  0
 13 32  1  0
 14 33  1  0
 15 34  1  0
 18 35  1  0
 20 36  1  0
 20 37  1  0
 20 38  1  0
 23 39  1  0
M  ISO  8  26  14  27  14  28  14  29  14  30  14  31  14  32  14  33  14
M  ISO  6  34  14  35  14  36   8  37   8  38   8  39   9
M  END
>  <minimizedAffinity>  (1) 
-7.11282444

>  <minimizedRMSD>  (1) 
1.28517711

$$$$
