
     RDKit          3D

 39 42  0  0  0  0  0  0  0  0999 V2000
   46.4650   32.3920   45.5160 C   0  0  0  0  0  0  0  0  0  0  0  0
   47.2790   31.6030   44.7460 C   0  0  0  0  0  0  0  0  0  0  0  0
   47.8240   30.4170   45.1770 C   0  0  0  0  0  0  0  0  0  0  0  0
   47.5730   29.9520   46.4300 C   0  0  0  0  0  0  0  0  0  0  0  0
   46.7700   30.7020   47.2270 C   0  0  0  0  0  0  0  0  0  0  0  0
   46.5200   30.2170   48.5050 C   0  0  0  0  0  0  0  0  0  0  0  0
   45.7180   30.9260   49.3570 C   0  0  0  0  0  0  0  0  0  0  0  0
   45.1650   32.1200   48.9380 C   0  0  0  0  0  0  0  0  0  0  0  0
   45.4570   32.5340   47.6660 C   0  0  0  0  0  0  0  0  0  0  0  0
   46.2470   31.8780   46.7640 C   0  0  0  0  0  0  0  0  0  0  0  0
   44.6380   35.6010   44.9200 C   0  0  0  0  0  0  0  0  0  0  0  0
   45.1150   35.9230   43.6330 C   0  0  0  0  0  0  0  0  0  0  0  0
   46.0240   35.0250   43.0640 C   0  0  0  0  0  0  0  0  0  0  0  0
   46.3470   33.9510   43.8030 N   0  0  0  0  0  0  0  0  0  0  0  0
   45.8960   33.6330   45.0360 C   0  0  0  0  0  0  0  0  0  0  0  0
   45.0550   34.5080   45.5090 N   0  0  0  0  0  0  0  0  0  0  0  0
   46.5770   35.2890   41.7100 C   0  0  0  0  0  0  0  0  0  0  0  0
   48.0980   35.3590   41.7500 C   0  0  0  0  0  0  0  0  0  0  0  0
   48.6260   34.2870   40.8480 C   0  0  0  0  0  0  0  0  0  0  0  0
   47.4680   33.3570   40.5480 C   0  0  0  0  0  0  0  0  0  0  0  0
   46.2260   34.2000   40.7380 C   0  0  0  0  0  0  0  0  0  0  0  0
   47.5096   31.9382   43.7240 H   0  0  0  0  0  0  0  0  0  0  0  0
   48.4702   29.8378   44.5010 H   0  0  0  0  0  0  0  0  0  0  0  0
   48.0043   29.0041   46.7842 H   0  0  0  0  0  0  0  0  0  0  0  0
   46.9657   29.2656   48.8308 H   0  0  0  0  0  0  0  0  0  0  0  0
   45.5149   30.5473   50.3696 H   0  0  0  0  0  0  0  0  0  0  0  0
   44.5166   32.7140   49.5989 H   0  0  0  0  0  0  0  0  0  0  0  0
   45.0133   33.4858   47.3386 H   0  0  0  0  0  0  0  0  0  0  0  0
   43.9203   36.2634   45.4262 H   0  0  0  0  0  0  0  0  0  0  0  0
   44.7899   36.8314   43.1048 H   0  0  0  0  0  0  0  0  0  0  0  0
   46.1390   36.2449   41.3867 H   0  0  0  0  0  0  0  0  0  0  0  0
   48.4372   36.3448   41.3991 H   0  0  0  0  0  0  0  0  0  0  0  0
   48.4639   35.2135   42.7771 H   0  0  0  0  0  0  0  0  0  0  0  0
   49.0070   34.7301   39.9160 H   0  0  0  0  0  0  0  0  0  0  0  0
   49.4552   33.7435   41.3245 H   0  0  0  0  0  0  0  0  0  0  0  0
   47.4666   32.5050   41.2438 H   0  0  0  0  0  0  0  0  0  0  0  0
   47.5294   32.9364   39.5335 H   0  0  0  0  0  0  0  0  0  0  0  0
   45.9158   34.6370   39.7774 H   0  0  0  0  0  0  0  0  0  0  0  0
   45.3927   33.5901   41.1170 H   0  0  0  0  0  0  0  0  0  0  0  0
  1 10  2  0
  2  3  2  0
  2  1  1  0
  3  4  1  0
  4  5  2  0
  5  6  1  0
  6  7  2  0
  8  7  1  0
  9  8  2  0
 10  5  1  0
 10  9  1  0
 11 16  2  0
 12 11  1  0
 13 12  2  0
 13 14  1  0
 14 15  2  0
 15 16  1  0
 15  1  1  0
 17 18  1  0
 17 13  1  0
 19 18  1  0
 20 21  1  0
 20 19  1  0
 21 17  1  0
  2 22  1  0
  3 23  1  0
  4 24  1  0
  6 25  1  0
  7 26  1  0
  8 27  1  0
  9 28  1  0
 11 29  1  0
 12 30  1  0
 17 31  1  0
 18 32  1  0
 18 33  1  0
 19 34  1  0
 19 35  1  0
 20 36  1  0
 20 37  1  0
 21 38  1  0
 21 39  1  0
M  ISO  8  22  14  23  14  24  14  25  14  26  14  27  14  28  14  29  14
M  ISO  8  30  14  31  13  32  13  33  13  34  13  35  13  36  13  37  13
M  ISO  2  38  13  39  13
M  END
>  <minimizedAffinity>  (1) 
-6.29676533

>  <minimizedRMSD>  (1) 
0.734572351

$$$$
