
     RDKit          3D

 31 33  0  0  1  0  0  0  0  0999 V2000
   46.5750   33.8050   40.9750 C   0  0  1  0  0  0  0  0  0  0  0  0
   47.3400   34.9600   41.5720 C   0  0  0  0  0  0  0  0  0  0  0  0
   47.4800   33.6340   42.1490 C   0  0  1  0  0  0  0  0  0  0  0  0
   43.0590   35.0290   41.2850 C   0  0  0  0  0  0  0  0  0  0  0  0
   44.4820   35.0490   41.1520 C   0  0  0  0  0  0  0  0  0  0  0  0
   45.1170   33.8140   41.1100 C   0  0  0  0  0  0  0  0  0  0  0  0
   44.3800   32.6660   41.1960 N   0  0  0  0  0  0  0  0  0  0  0  0
   43.0440   32.6850   41.3200 C   0  0  0  0  0  0  0  0  0  0  0  0
   42.3760   33.8600   41.3660 N   0  0  0  0  0  0  0  0  0  0  0  0
   46.9760   33.2870   43.5030 C   0  0  0  0  0  0  0  0  0  0  0  0
   47.3100   32.1630   44.2490 C   0  0  0  0  0  0  0  0  0  0  0  0
   46.7780   31.9850   45.5080 C   0  0  0  0  0  0  0  0  0  0  0  0
   45.9460   32.8440   46.0640 N   0  0  0  0  0  0  0  0  0  0  0  0
   45.6220   33.9330   45.3410 C   0  0  0  0  0  0  0  0  0  0  0  0
   46.1250   34.1260   44.1190 N   0  0  0  0  0  0  0  0  0  0  0  0
   44.6900   34.9920   45.8420 C   0  0  0  0  0  0  0  0  0  0  0  0
   44.4610   36.0550   44.7900 C   0  0  0  0  0  0  0  0  0  0  0  0
   46.4849   33.3026   40.0006 H   0  0  0  0  0  0  0  0  0  0  0  0
   48.1776   35.4084   41.0176 H   0  0  0  0  0  0  0  0  0  0  0  0
   47.0665   35.9508   41.9639 H   0  0  0  0  0  0  0  0  0  0  0  0
   48.3367   32.9815   42.3732 H   0  0  0  0  0  0  0  0  0  0  0  0
   42.5072   35.9799   41.3224 H   0  0  0  0  0  0  0  0  0  0  0  0
   45.0444   35.9921   41.0864 H   0  0  0  0  0  0  0  0  0  0  0  0
   42.4881   31.7380   41.3847 H   0  0  0  0  0  0  0  0  0  0  0  0
   48.0003   31.4139   43.8339 H   0  0  0  0  0  0  0  0  0  0  0  0
   47.0602   31.0855   46.0748 H   0  0  0  0  0  0  0  0  0  0  0  0
   43.7263   34.5295   46.1017 H   0  0  0  0  0  0  0  0  0  0  0  0
   45.1410   35.4658   46.7264 H   0  0  0  0  0  0  0  0  0  0  0  0
   44.2536   37.0175   45.2804 H   0  0  0  0  0  0  0  0  0  0  0  0
   45.3594   36.1493   44.1624 H   0  0  0  0  0  0  0  0  0  0  0  0
   43.6034   35.7710   44.1624 H   0  0  0  0  0  0  0  0  0  0  0  0
  1  6  1  0
  1  2  1  0
  1  3  1  0
  2  3  1  0
  3 10  1  0
  4  9  2  0
  5  4  1  0
  6  5  2  0
  6  7  1  0
  7  8  2  0
  8  9  1  0
 10 15  1  0
 10 11  2  0
 11 12  1  0
 12 13  2  0
 14 16  1  0
 14 13  1  0
 15 14  2  0
 17 16  1  0
  1 18  1  6
  2 19  1  0
  2 20  1  0
  3 21  1  6
  4 22  1  0
  5 23  1  0
  8 24  1  0
 11 25  1  0
 12 26  1  0
 16 27  1  0
 16 28  1  0
 17 29  1  0
 17 30  1  0
 17 31  1  0
M  ISO  8  18  13  19  13  20  13  21  13  22  14  23  14  24  14  25  14
M  ISO  6  26  14  27   8  28   8  29   8  30   8  31   8
M  END
>  <minimizedAffinity>  (1) 
-4.28641891

>  <minimizedRMSD>  (1) 
1.83099067

$$$$
