
     RDKit          3D

 36 39  0  0  0  0  0  0  0  0999 V2000
   46.0900   31.7350   45.5470 C   0  0  0  0  0  0  0  0  0  0  0  0
   45.6690   30.5920   44.8910 C   0  0  0  0  0  0  0  0  0  0  0  0
   45.9240   29.3160   45.3350 C   0  0  0  0  0  0  0  0  0  0  0  0
   46.6360   29.1090   46.4920 C   0  0  0  0  0  0  0  0  0  0  0  0
   47.0660   30.2100   47.1610 C   0  0  0  0  0  0  0  0  0  0  0  0
   47.7860   29.9900   48.3310 C   0  0  0  0  0  0  0  0  0  0  0  0
   48.2570   31.0570   49.0680 C   0  0  0  0  0  0  0  0  0  0  0  0
   47.9940   32.3410   48.6100 C   0  0  0  0  0  0  0  0  0  0  0  0
   47.2770   32.4760   47.4460 C   0  0  0  0  0  0  0  0  0  0  0  0
   46.7860   31.4600   46.6780 C   0  0  0  0  0  0  0  0  0  0  0  0
   44.8920   35.2160   44.8940 C   0  0  0  0  0  0  0  0  0  0  0  0
   45.5390   35.4630   43.6670 C   0  0  0  0  0  0  0  0  0  0  0  0
   46.3260   34.4530   43.1520 C   0  0  0  0  0  0  0  0  0  0  0  0
   46.4010   33.3150   43.8790 N   0  0  0  0  0  0  0  0  0  0  0  0
   45.7940   33.0540   45.0510 C   0  0  0  0  0  0  0  0  0  0  0  0
   45.0730   34.0550   45.4670 N   0  0  0  0  0  0  0  0  0  0  0  0
   47.0490   34.5810   41.8910 C   0  0  0  0  0  0  0  0  0  0  0  0
   48.1530   35.3840   41.7570 C   0  0  0  0  0  0  0  0  0  0  0  0
   48.8310   35.4990   40.5660 C   0  0  0  0  0  0  0  0  0  0  0  0
   48.3990   34.7890   39.4540 C   0  0  0  0  0  0  0  0  0  0  0  0
   47.2910   33.9860   39.5960 C   0  0  0  0  0  0  0  0  0  0  0  0
   46.6080   33.8690   40.7960 C   0  0  0  0  0  0  0  0  0  0  0  0
   45.0965   30.7111   43.9593 H   0  0  0  0  0  0  0  0  0  0  0  0
   45.5552   28.4541   44.7596 H   0  0  0  0  0  0  0  0  0  0  0  0
   46.8486   28.0947   46.8607 H   0  0  0  0  0  0  0  0  0  0  0  0
   47.9804   28.9616   48.6697 H   0  0  0  0  0  0  0  0  0  0  0  0
   48.8265   30.8945   49.9950 H   0  0  0  0  0  0  0  0  0  0  0  0
   48.3490   33.2235   49.1624 H   0  0  0  0  0  0  0  0  0  0  0  0
   47.0796   33.5012   47.0996 H   0  0  0  0  0  0  0  0  0  0  0  0
   44.2511   35.9803   45.3578 H   0  0  0  0  0  0  0  0  0  0  0  0
   45.4216   36.4219   43.1409 H   0  0  0  0  0  0  0  0  0  0  0  0
   48.5069   35.9535   42.6290 H   0  0  0  0  0  0  0  0  0  0  0  0
   49.7134   36.1519   40.4947 H   0  0  0  0  0  0  0  0  0  0  0  0
   48.9253   34.8659   38.4911 H   0  0  0  0  0  0  0  0  0  0  0  0
   46.9343   33.4161   38.7254 H   0  0  0  0  0  0  0  0  0  0  0  0
   45.7257   33.2167   40.8738 H   0  0  0  0  0  0  0  0  0  0  0  0
  1 10  2  0
  2  3  2  0
  2  1  1  0
  3  4  1  0
  4  5  2  0
  5  6  1  0
  6  7  2  0
  8  7  1  0
  9  8  2  0
 10  5  1  0
 10  9  1  0
 11 16  2  0
 12 11  1  0
 13 12  2  0
 13 14  1  0
 14 15  2  0
 15 16  1  0
 15  1  1  0
 17 13  1  0
 18 17  2  0
 19 18  1  0
 20 21  1  0
 20 19  2  0
 21 22  2  0
 22 17  1  0
  2 23  1  0
  3 24  1  0
  4 25  1  0
  6 26  1  0
  7 27  1  0
  8 28  1  0
  9 29  1  0
 11 30  1  0
 12 31  1  0
 18 32  1  0
 19 33  1  0
 20 34  1  0
 21 35  1  0
 22 36  1  0
M  ISO  8  23  14  24  14  25  14  26  14  27  14  28  14  29  14  30  14
M  ISO  6  31  14  32  14  33  14  34  14  35  14  36  14
M  END
>  <minimizedAffinity>  (1) 
-6.07977057

>  <minimizedRMSD>  (1) 
1.42895055

$$$$
