
     RDKit          3D

 26 28  0  0  1  0  0  0  0  0999 V2000
   45.3250   32.8770   40.8280 C   0  0  1  0  0  0  0  0  0  0  0  0
   46.3620   33.9260   40.5130 C   0  0  0  0  0  0  0  0  0  0  0  0
   46.1990   33.4720   41.8820 C   0  0  1  0  0  0  0  0  0  0  0  0
   42.2170   34.5280   39.5780 C   0  0  0  0  0  0  0  0  0  0  0  0
   43.5980   34.1780   39.7060 C   0  0  0  0  0  0  0  0  0  0  0  0
   43.9150   33.2450   40.6850 C   0  0  0  0  0  0  0  0  0  0  0  0
   42.9200   32.7200   41.4600 N   0  0  0  0  0  0  0  0  0  0  0  0
   41.6390   33.0650   41.3190 C   0  0  0  0  0  0  0  0  0  0  0  0
   41.2740   33.9690   40.3800 N   0  0  0  0  0  0  0  0  0  0  0  0
   45.6610   34.3490   42.9600 C   0  0  0  0  0  0  0  0  0  0  0  0
   45.2810   33.9480   44.2330 C   0  0  0  0  0  0  0  0  0  0  0  0
   44.8210   34.8710   45.1420 C   0  0  0  0  0  0  0  0  0  0  0  0
   44.7200   36.1660   44.8570 N   0  0  0  0  0  0  0  0  0  0  0  0
   45.0880   36.5460   43.6310 C   0  0  0  0  0  0  0  0  0  0  0  0
   45.5370   35.6680   42.7280 N   0  0  0  0  0  0  0  0  0  0  0  0
   44.9820   37.9080   43.3310 O   0  0  0  0  0  0  0  0  0  0  0  0
   45.0877   31.8473   40.5222 H   0  0  0  0  0  0  0  0  0  0  0  0
   47.2653   33.6521   39.9482 H   0  0  0  0  0  0  0  0  0  0  0  0
   46.3453   34.9067   40.0150 H   0  0  0  0  0  0  0  0  0  0  0  0
   46.8819   33.0604   42.6398 H   0  0  0  0  0  0  0  0  0  0  0  0
   41.9135   35.2623   38.8172 H   0  0  0  0  0  0  0  0  0  0  0  0
   44.3697   34.6249   39.0620 H   0  0  0  0  0  0  0  0  0  0  0  0
   40.8756   32.6126   41.9691 H   0  0  0  0  0  0  0  0  0  0  0  0
   45.3481   32.8871   44.5159 H   0  0  0  0  0  0  0  0  0  0  0  0
   44.5251   34.5251   46.1434 H   0  0  0  0  0  0  0  0  0  0  0  0
   45.2426   38.2393   42.4352 H   0  0  0  0  0  0  0  0  0  0  0  0
  1  3  1  0
  2  1  1  0
  2  3  1  0
  3 10  1  0
  4  5  2  0
  4  9  1  0
  5  6  1  0
  6  1  1  0
  6  7  2  0
  8  7  1  0
  9  8  2  0
 10 11  2  0
 11 12  1  0
 13 12  2  0
 14 13  1  0
 15 10  1  0
 15 14  2  0
 16 14  1  0
  1 17  1  6
  2 18  1  0
  2 19  1  0
  3 20  1  1
  4 21  1  0
  5 22  1  0
  8 23  1  0
 11 24  1  0
 12 25  1  0
 16 26  1  0
M  ISO  8  17  13  18  13  19  13  20  13  21  14  22  14  23  14  24  14
M  ISO  2  25  14  26   3
M  END
>  <minimizedAffinity>  (1) 
-4.28111458

>  <minimizedRMSD>  (1) 
0.986849606

$$$$
