
     RDKit          3D

 32 34  0  0  0  0  0  0  0  0999 V2000
   46.7990   32.2010   45.1750 C   0  0  0  0  0  0  0  0  0  0  0  0
   47.5870   31.2650   44.5310 C   0  0  0  0  0  0  0  0  0  0  0  0
   48.0490   30.1150   45.1370 C   0  0  0  0  0  0  0  0  0  0  0  0
   47.7430   29.8370   46.4340 C   0  0  0  0  0  0  0  0  0  0  0  0
   46.9760   30.7290   47.0930 C   0  0  0  0  0  0  0  0  0  0  0  0
   46.6620   30.4440   48.4210 C   0  0  0  0  0  0  0  0  0  0  0  0
   45.8870   31.2980   49.1640 C   0  0  0  0  0  0  0  0  0  0  0  0
   45.4230   32.4540   48.5580 C   0  0  0  0  0  0  0  0  0  0  0  0
   45.7640   32.6820   47.2430 C   0  0  0  0  0  0  0  0  0  0  0  0
   46.5320   31.8640   46.4620 C   0  0  0  0  0  0  0  0  0  0  0  0
   45.0550   35.3060   44.0320 C   0  0  0  0  0  0  0  0  0  0  0  0
   45.8020   35.5990   42.8750 C   0  0  0  0  0  0  0  0  0  0  0  0
   46.8470   34.7220   42.5630 C   0  0  0  0  0  0  0  0  0  0  0  0
   47.0360   33.6820   43.4010 N   0  0  0  0  0  0  0  0  0  0  0  0
   46.3240   33.3950   44.5130 C   0  0  0  0  0  0  0  0  0  0  0  0
   45.3710   34.2550   44.7360 N   0  0  0  0  0  0  0  0  0  0  0  0
   47.6500   34.9860   41.3690 C   0  0  0  0  0  0  0  0  0  0  0  0
   48.9080   35.7300   41.7050 C   0  0  0  0  0  0  0  0  0  0  0  0
   47.8597   31.4467   43.4809 H   0  0  0  0  0  0  0  0  0  0  0  0
   48.6731   29.4132   44.5644 H   0  0  0  0  0  0  0  0  0  0  0  0
   48.1066   28.9220   46.9245 H   0  0  0  0  0  0  0  0  0  0  0  0
   47.0417   29.5195   48.8805 H   0  0  0  0  0  0  0  0  0  0  0  0
   45.6409   31.0711   50.2118 H   0  0  0  0  0  0  0  0  0  0  0  0
   44.7990   33.1707   49.1120 H   0  0  0  0  0  0  0  0  0  0  0  0
   45.3844   33.6048   46.7799 H   0  0  0  0  0  0  0  0  0  0  0  0
   44.2191   35.9528   44.3368 H   0  0  0  0  0  0  0  0  0  0  0  0
   45.5755   36.4737   42.2476 H   0  0  0  0  0  0  0  0  0  0  0  0
   47.0563   35.5876   40.6650 H   0  0  0  0  0  0  0  0  0  0  0  0
   47.9294   34.0209   40.9212 H   0  0  0  0  0  0  0  0  0  0  0  0
   49.0156   35.7936   42.7979 H   0  0  0  0  0  0  0  0  0  0  0  0
   49.7728   35.1980   41.2818 H   0  0  0  0  0  0  0  0  0  0  0  0
   48.8584   36.7441   41.2818 H   0  0  0  0  0  0  0  0  0  0  0  0
  1 10  2  0
  2  3  2  0
  2  1  1  0
  3  4  1  0
  4  5  2  0
  5  6  1  0
  6  7  2  0
  8  7  1  0
  9  8  2  0
 10  5  1  0
 10  9  1  0
 11 16  2  0
 12 11  1  0
 13 12  2  0
 13 14  1  0
 14 15  2  0
 15 16  1  0
 15  1  1  0
 17 18  1  0
 17 13  1  0
  2 19  1  0
  3 20  1  0
  4 21  1  0
  6 22  1  0
  7 23  1  0
  8 24  1  0
  9 25  1  0
 11 26  1  0
 12 27  1  0
 17 28  1  0
 17 29  1  0
 18 30  1  0
 18 31  1  0
 18 32  1  0
M  ISO  8  19  14  20  14  21  14  22  14  23  14  24  14  25  14  26  14
M  ISO  6  27  14  28   8  29   8  30   8  31   8  32   8
M  END
>  <minimizedAffinity>  (1) 
-5.64343882

>  <minimizedRMSD>  (1) 
0.840507865

$$$$
