
     RDKit          3D

 34 37  0  0  0  0  0  0  0  0999 V2000
   46.2760   32.3610   46.5300 C   0  0  0  0  0  0  0  0  0  0  0  0
   45.3680   32.9590   47.3880 C   0  0  0  0  0  0  0  0  0  0  0  0
   44.6670   34.1050   47.0730 C   0  0  0  0  0  0  0  0  0  0  0  0
   44.8380   34.7240   45.8720 C   0  0  0  0  0  0  0  0  0  0  0  0
   45.7200   34.1650   45.0080 C   0  0  0  0  0  0  0  0  0  0  0  0
   45.8890   34.8020   43.7840 C   0  0  0  0  0  0  0  0  0  0  0  0
   46.7700   34.2950   42.8480 C   0  0  0  0  0  0  0  0  0  0  0  0
   47.4750   33.1430   43.1620 C   0  0  0  0  0  0  0  0  0  0  0  0
   47.2550   32.5710   44.3930 C   0  0  0  0  0  0  0  0  0  0  0  0
   46.3970   33.0280   45.3540 C   0  0  0  0  0  0  0  0  0  0  0  0
   47.7090   28.9280   46.8860 C   0  0  0  0  0  0  0  0  0  0  0  0
   48.6000   29.1440   47.9540 C   0  0  0  0  0  0  0  0  0  0  0  0
   48.6560   30.4330   48.4770 C   0  0  0  0  0  0  0  0  0  0  0  0
   47.8460   31.3490   47.9040 N   0  0  0  0  0  0  0  0  0  0  0  0
   46.9880   31.1590   46.8840 C   0  0  0  0  0  0  0  0  0  0  0  0
   46.9930   29.9300   46.4490 N   0  0  0  0  0  0  0  0  0  0  0  0
   49.5530   30.7360   49.5810 C   0  0  0  0  0  0  0  0  0  0  0  0
   50.1000   31.9970   49.6950 C   0  0  0  0  0  0  0  0  0  0  0  0
   50.9400   32.1700   50.7860 C   0  0  0  0  0  0  0  0  0  0  0  0
   51.1960   31.1770   51.6580 N   0  0  0  0  0  0  0  0  0  0  0  0
   50.6490   29.9640   51.5190 C   0  0  0  0  0  0  0  0  0  0  0  0
   49.8280   29.7810   50.4610 N   0  0  0  0  0  0  0  0  0  0  0  0
   45.1969   32.4965   48.3713 H   0  0  0  0  0  0  0  0  0  0  0  0
   43.9593   34.5250   47.8030 H   0  0  0  0  0  0  0  0  0  0  0  0
   44.2839   35.6386   45.6142 H   0  0  0  0  0  0  0  0  0  0  0  0
   45.3181   35.7150   43.5593 H   0  0  0  0  0  0  0  0  0  0  0  0
   46.9087   34.7933   41.8772 H   0  0  0  0  0  0  0  0  0  0  0  0
   48.1871   32.7011   42.4495 H   0  0  0  0  0  0  0  0  0  0  0  0
   47.8236   31.6588   44.6266 H   0  0  0  0  0  0  0  0  0  0  0  0
   47.6169   27.9326   46.4270 H   0  0  0  0  0  0  0  0  0  0  0  0
   49.2232   28.3320   48.3568 H   0  0  0  0  0  0  0  0  0  0  0  0
   49.8870   32.8028   48.9771 H   0  0  0  0  0  0  0  0  0  0  0  0
   51.4122   33.1509   50.9434 H   0  0  0  0  0  0  0  0  0  0  0  0
   50.8577   29.1533   52.2326 H   0  0  0  0  0  0  0  0  0  0  0  0
  1 15  1  0
  1  2  2  0
  3  2  1  0
  4  3  2  0
  5 10  2  0
  5  4  1  0
  6  5  1  0
  7  8  1  0
  7  6  2  0
  8  9  2  0
  9 10  1  0
 10  1  1  0
 11 12  2  0
 12 13  1  0
 13 17  1  0
 14 13  2  0
 15 14  1  0
 16 15  2  0
 16 11  1  0
 17 18  2  0
 17 22  1  0
 18 19  1  0
 19 20  2  0
 21 20  1  0
 22 21  2  0
  2 23  1  0
  3 24  1  0
  4 25  1  0
  6 26  1  0
  7 27  1  0
  8 28  1  0
  9 29  1  0
 11 30  1  0
 12 31  1  0
 18 32  1  0
 19 33  1  0
 21 34  1  0
M  ISO  8  23  14  24  14  25  14  26  14  27  14  28  14  29  14  30  14
M  ISO  4  31  14  32  14  33  14  34  14
M  END
>  <minimizedAffinity>  (1) 
-5.57637072

>  <minimizedRMSD>  (1) 
7.84568453

$$$$
