
     RDKit          3D

 38 41  0  0  0  0  0  0  0  0999 V2000
   46.7640   31.5670   46.1290 C   0  0  0  0  0  0  0  0  0  0  0  0
   46.9770   32.4900   47.1380 C   0  0  0  0  0  0  0  0  0  0  0  0
   46.5580   32.3170   48.4340 C   0  0  0  0  0  0  0  0  0  0  0  0
   45.8900   31.1890   48.7980 C   0  0  0  0  0  0  0  0  0  0  0  0
   45.6560   30.2500   47.8360 C   0  0  0  0  0  0  0  0  0  0  0  0
   44.9720   29.1000   48.2190 C   0  0  0  0  0  0  0  0  0  0  0  0
   44.7040   28.1180   47.3040 C   0  0  0  0  0  0  0  0  0  0  0  0
   45.1290   28.2940   45.9930 C   0  0  0  0  0  0  0  0  0  0  0  0
   45.7940   29.4490   45.6930 C   0  0  0  0  0  0  0  0  0  0  0  0
   46.0910   30.4630   46.5600 C   0  0  0  0  0  0  0  0  0  0  0  0
   48.4470   31.5860   42.8000 C   0  0  0  0  0  0  0  0  0  0  0  0
   47.7190   32.5970   42.1470 C   0  0  0  0  0  0  0  0  0  0  0  0
   46.7200   33.1830   42.8920 C   0  0  0  0  0  0  0  0  0  0  0  0
   46.5380   32.7450   44.1440 N   0  0  0  0  0  0  0  0  0  0  0  0
   47.2260   31.7810   44.7790 C   0  0  0  0  0  0  0  0  0  0  0  0
   48.1580   31.2580   44.0350 N   0  0  0  0  0  0  0  0  0  0  0  0
   45.9440   34.2140   42.2980 N   0  0  0  0  0  0  0  0  0  0  0  0
   45.6570   35.5050   42.8730 C   0  0  0  0  0  0  0  0  0  0  0  0
   44.1950   35.7540   42.5690 C   0  0  0  0  0  0  0  0  0  0  0  0
   44.0310   35.1470   41.2120 C   0  0  0  0  0  0  0  0  0  0  0  0
   45.2450   34.3010   41.0340 C   0  0  0  0  0  0  0  0  0  0  0  0
   47.5136   33.4168   46.8869 H   0  0  0  0  0  0  0  0  0  0  0  0
   46.7638   33.0957   49.1832 H   0  0  0  0  0  0  0  0  0  0  0  0
   45.5499   31.0390   49.8333 H   0  0  0  0  0  0  0  0  0  0  0  0
   44.6451   28.9797   49.2624 H   0  0  0  0  0  0  0  0  0  0  0  0
   44.1628   27.2075   47.6007 H   0  0  0  0  0  0  0  0  0  0  0  0
   44.9370   27.5309   45.2244 H   0  0  0  0  0  0  0  0  0  0  0  0
   46.1229   29.5754   44.6509 H   0  0  0  0  0  0  0  0  0  0  0  0
   49.2618   31.0690   42.2719 H   0  0  0  0  0  0  0  0  0  0  0  0
   47.9332   32.8991   41.1112 H   0  0  0  0  0  0  0  0  0  0  0  0
   45.8289   35.4911   43.9594 H   0  0  0  0  0  0  0  0  0  0  0  0
   46.3043   36.2934   42.4614 H   0  0  0  0  0  0  0  0  0  0  0  0
   43.5468   35.2575   43.3062 H   0  0  0  0  0  0  0  0  0  0  0  0
   43.9172   36.8177   42.6069 H   0  0  0  0  0  0  0  0  0  0  0  0
   43.1192   34.5332   41.1679 H   0  0  0  0  0  0  0  0  0  0  0  0
   43.9304   35.9066   40.4228 H   0  0  0  0  0  0  0  0  0  0  0  0
   44.9485   33.2939   40.7057 H   0  0  0  0  0  0  0  0  0  0  0  0
   45.9028   34.7476   40.2739 H   0  0  0  0  0  0  0  0  0  0  0  0
  1 10  1  0
  1  2  2  0
  2  3  1  0
  3  4  2  0
  5  6  2  0
  5  4  1  0
  7  6  1  0
  8  7  2  0
  9  8  1  0
  9 10  2  0
 10  5  1  0
 11 16  2  0
 12 11  1  0
 12 13  2  0
 13 14  1  0
 14 15  2  0
 15  1  1  0
 16 15  1  0
 17 18  1  0
 17 13  1  0
 19 18  1  0
 20 19  1  0
 21 20  1  0
 21 17  1  0
  2 22  1  0
  3 23  1  0
  4 24  1  0
  6 25  1  0
  7 26  1  0
  8 27  1  0
  9 28  1  0
 11 29  1  0
 12 30  1  0
 18 31  1  0
 18 32  1  0
 19 33  1  0
 19 34  1  0
 20 35  1  0
 20 36  1  0
 21 37  1  0
 21 38  1  0
M  ISO  8  22  14  23  14  24  14  25  14  26  14  27  14  28  14  29  14
M  ISO  8  30  14  31  13  32  13  33  13  34  13  35  13  36  13  37  13
M  ISO  1  38  13
M  END
>  <minimizedAffinity>  (1) 
-5.08266544

>  <minimizedRMSD>  (1) 
3.50487161

$$$$
