
     RDKit          3D

 41 44  0  0  0  0  0  0  0  0999 V2000
   46.3740   32.6880   45.4920 C   0  0  0  0  0  0  0  0  0  0  0  0
   45.8830   32.5480   46.7710 C   0  0  0  0  0  0  0  0  0  0  0  0
   45.0270   33.4220   47.3710 C   0  0  0  0  0  0  0  0  0  0  0  0
   44.5970   34.5250   46.7030 C   0  0  0  0  0  0  0  0  0  0  0  0
   45.0520   34.7160   45.4290 C   0  0  0  0  0  0  0  0  0  0  0  0
   44.6050   35.8470   44.7550 C   0  0  0  0  0  0  0  0  0  0  0  0
   45.0220   36.0980   43.4790 C   0  0  0  0  0  0  0  0  0  0  0  0
   45.8910   35.2090   42.8740 C   0  0  0  0  0  0  0  0  0  0  0  0
   46.2880   34.1180   43.5990 C   0  0  0  0  0  0  0  0  0  0  0  0
   45.9100   33.8080   44.8740 C   0  0  0  0  0  0  0  0  0  0  0  0
   48.5910   30.6130   43.3250 C   0  0  0  0  0  0  0  0  0  0  0  0
   49.0100   29.6420   44.2560 C   0  0  0  0  0  0  0  0  0  0  0  0
   48.5050   29.7710   45.5540 C   0  0  0  0  0  0  0  0  0  0  0  0
   47.6790   30.7990   45.7810 N   0  0  0  0  0  0  0  0  0  0  0  0
   47.2760   31.7290   44.8900 C   0  0  0  0  0  0  0  0  0  0  0  0
   47.7700   31.5690   43.6980 N   0  0  0  0  0  0  0  0  0  0  0  0
   48.8780   28.8330   46.5580 N   0  0  0  0  0  0  0  0  0  0  0  0
   50.2660   28.5390   46.8640 C   0  0  0  0  0  0  0  0  0  0  0  0
   50.3640   28.4820   48.3750 C   0  0  0  0  0  0  0  0  0  0  0  0
   49.6100   27.2630   48.8450 C   0  0  0  0  0  0  0  0  0  0  0  0
   48.5260   26.8980   47.8860 C   0  0  0  0  0  0  0  0  0  0  0  0
   47.8490   28.1410   47.3070 C   0  0  0  0  0  0  0  0  0  0  0  0
   46.2044   31.6689   47.3488 H   0  0  0  0  0  0  0  0  0  0  0  0
   44.6830   33.2345   48.3988 H   0  0  0  0  0  0  0  0  0  0  0  0
   43.9056   35.2401   47.1726 H   0  0  0  0  0  0  0  0  0  0  0  0
   43.9125   36.5426   45.2517 H   0  0  0  0  0  0  0  0  0  0  0  0
   44.6725   36.9921   42.9418 H   0  0  0  0  0  0  0  0  0  0  0  0
   46.2503   35.3725   41.8473 H   0  0  0  0  0  0  0  0  0  0  0  0
   46.9810   33.4211   43.1050 H   0  0  0  0  0  0  0  0  0  0  0  0
   48.9509   30.5709   42.2864 H   0  0  0  0  0  0  0  0  0  0  0  0
   49.6957   28.8282   43.9777 H   0  0  0  0  0  0  0  0  0  0  0  0
   50.5562   27.5724   46.4265 H   0  0  0  0  0  0  0  0  0  0  0  0
   50.9384   29.3036   46.4477 H   0  0  0  0  0  0  0  0  0  0  0  0
   51.4188   28.4085   48.6782 H   0  0  0  0  0  0  0  0  0  0  0  0
   49.9354   29.3919   48.8205 H   0  0  0  0  0  0  0  0  0  0  0  0
   50.3104   26.4194   48.9333 H   0  0  0  0  0  0  0  0  0  0  0  0
   49.1524   27.4897   49.8193 H   0  0  0  0  0  0  0  0  0  0  0  0
   48.9594   26.3108   47.0630 H   0  0  0  0  0  0  0  0  0  0  0  0
   47.7683   26.3126   48.4275 H   0  0  0  0  0  0  0  0  0  0  0  0
   47.4664   28.7814   48.1154 H   0  0  0  0  0  0  0  0  0  0  0  0
   46.9908   27.8777   46.6712 H   0  0  0  0  0  0  0  0  0  0  0  0
  1  2  2  0
  2  3  1  0
  4  3  2  0
  5  4  1  0
  6  5  2  0
  7  6  1  0
  8  7  2  0
  8  9  1  0
  9 10  2  0
 10  5  1  0
 10  1  1  0
 11 16  2  0
 11 12  1  0
 12 13  2  0
 13 14  1  0
 13 17  1  0
 15  1  1  0
 15 14  2  0
 16 15  1  0
 17 18  1  0
 17 22  1  0
 18 19  1  0
 19 20  1  0
 21 20  1  0
 22 21  1  0
  2 23  1  0
  3 24  1  0
  4 25  1  0
  6 26  1  0
  7 27  1  0
  8 28  1  0
  9 29  1  0
 11 30  1  0
 12 31  1  0
 18 32  1  0
 18 33  1  0
 19 34  1  0
 19 35  1  0
 20 36  1  0
 20 37  1  0
 21 38  1  0
 21 39  1  0
 22 40  1  0
 22 41  1  0
M  ISO  8  23  14  24  14  25  14  26  14  27  14  28  14  29  14  30  14
M  ISO  8  31  14  32  13  33  13  34  13  35  13  36  13  37  13  38  13
M  ISO  3  39  13  40  13  41  13
M  END
>  <minimizedAffinity>  (1) 
-4.87181664

>  <minimizedRMSD>  (1) 
7.31397724

$$$$
