
     RDKit          3D

 27 29  0  0  1  0  0  0  0  0999 V2000
   49.4360   33.9740   41.3730 C   0  0  1  0  0  0  0  0  0  0  0  0
   49.1680   35.3950   41.8080 C   0  0  0  0  0  0  0  0  0  0  0  0
   49.0660   34.3200   42.7770 C   0  0  1  0  0  0  0  0  0  0  0  0
   47.0340   33.5280   38.5490 C   0  0  0  0  0  0  0  0  0  0  0  0
   47.9600   34.1520   39.4430 C   0  0  0  0  0  0  0  0  0  0  0  0
   48.4880   33.3520   40.4490 C   0  0  0  0  0  0  0  0  0  0  0  0
   48.1090   32.0430   40.5370 N   0  0  0  0  0  0  0  0  0  0  0  0
   47.2420   31.4870   39.6870 C   0  0  0  0  0  0  0  0  0  0  0  0
   46.6960   32.2190   38.6890 N   0  0  0  0  0  0  0  0  0  0  0  0
   47.7740   33.9040   43.3880 C   0  0  0  0  0  0  0  0  0  0  0  0
   47.4970   32.6730   43.9690 C   0  0  0  0  0  0  0  0  0  0  0  0
   46.2560   32.4340   44.5170 C   0  0  0  0  0  0  0  0  0  0  0  0
   45.2840   33.3390   44.5210 N   0  0  0  0  0  0  0  0  0  0  0  0
   45.5590   34.5230   43.9590 C   0  0  0  0  0  0  0  0  0  0  0  0
   46.7540   34.7800   43.4200 N   0  0  0  0  0  0  0  0  0  0  0  0
   44.5130   35.5420   43.9470 C   0  0  0  0  0  0  0  0  0  0  0  0
   44.7310   36.6850   44.4260 O   0  0  0  0  0  0  0  0  0  0  0  0
   50.2572   33.4021   40.9163 H   0  0  0  0  0  0  0  0  0  0  0  0
   49.9974   36.1147   41.8723 H   0  0  0  0  0  0  0  0  0  0  0  0
   48.4965   36.1964   41.4662 H   0  0  0  0  0  0  0  0  0  0  0  0
   49.5180   34.1312   43.7619 H   0  0  0  0  0  0  0  0  0  0  0  0
   46.5879   34.1175   37.7344 H   0  0  0  0  0  0  0  0  0  0  0  0
   48.2398   35.2108   39.3394 H   0  0  0  0  0  0  0  0  0  0  0  0
   46.9701   30.4270   39.7991 H   0  0  0  0  0  0  0  0  0  0  0  0
   48.2685   31.8892   43.9915 H   0  0  0  0  0  0  0  0  0  0  0  0
   46.0617   31.4511   44.9709 H   0  0  0  0  0  0  0  0  0  0  0  0
   43.5280   35.3088   43.5164 H   0  0  0  0  0  0  0  0  0  0  0  0
  1  2  1  0
  1  3  1  0
  2  3  1  0
  3 10  1  0
  4  9  2  0
  4  5  1  0
  5  6  2  0
  6  7  1  0
  6  1  1  0
  8  7  2  0
  9  8  1  0
 10 15  1  0
 10 11  2  0
 11 12  1  0
 12 13  2  0
 14 13  1  0
 15 14  2  0
 16 14  1  0
 16 17  2  0
  1 18  1  1
  2 19  1  0
  2 20  1  0
  3 21  1  1
  4 22  1  0
  5 23  1  0
  8 24  1  0
 11 25  1  0
 12 26  1  0
 16 27  1  0
M  ISO  8  18  13  19  13  20  13  21  13  22  14  23  14  24  14  25  14
M  ISO  2  26  14  27   6
M  END
>  <minimizedAffinity>  (1) 
-4.20496416

>  <minimizedRMSD>  (1) 
3.33814383

$$$$
