
     RDKit          3D

 40 44  0  0  0  0  0  0  0  0999 V2000
   44.6600   35.7910   44.8330 C   0  0  0  0  0  0  0  0  0  0  0  0
   44.1360   35.6410   43.5340 C   0  0  0  0  0  0  0  0  0  0  0  0
   44.3940   34.4520   42.9070 C   0  0  0  0  0  0  0  0  0  0  0  0
   45.1210   33.5480   43.5970 N   0  0  0  0  0  0  0  0  0  0  0  0
   45.6310   33.6620   44.8340 C   0  0  0  0  0  0  0  0  0  0  0  0
   45.3410   34.8050   45.3420 N   0  0  0  0  0  0  0  0  0  0  0  0
   46.3440   32.4910   45.2550 C   0  0  0  0  0  0  0  0  0  0  0  0
   47.1370   31.7560   44.3800 C   0  0  0  0  0  0  0  0  0  0  0  0
   47.8210   30.6310   44.7460 C   0  0  0  0  0  0  0  0  0  0  0  0
   47.7610   30.1530   46.0320 C   0  0  0  0  0  0  0  0  0  0  0  0
   46.9980   30.8450   46.9080 C   0  0  0  0  0  0  0  0  0  0  0  0
   46.9380   30.3620   48.2070 C   0  0  0  0  0  0  0  0  0  0  0  0
   46.1800   31.0130   49.1560 C   0  0  0  0  0  0  0  0  0  0  0  0
   45.4780   32.1670   48.7840 C   0  0  0  0  0  0  0  0  0  0  0  0
   45.5980   32.5660   47.4850 C   0  0  0  0  0  0  0  0  0  0  0  0
   46.3270   31.9660   46.5100 C   0  0  0  0  0  0  0  0  0  0  0  0
   43.8840   34.1930   41.5670 C   0  0  0  0  0  0  0  0  0  0  0  0
   44.8060   33.8240   40.5080 C   0  0  0  0  0  0  0  0  0  0  0  0
   43.6580   33.5960   39.0250 S   0  0  0  0  0  0  0  0  0  0  0  0
   42.2030   34.0390   40.1290 C   0  0  0  0  0  0  0  0  0  0  0  0
   42.6380   34.2340   41.1340 N   0  0  0  0  0  0  0  0  0  0  0  0
   40.8510   34.0330   39.4530 C   0  0  0  0  0  0  0  0  0  0  0  0
   40.6610   34.3690   38.1580 C   0  0  0  0  0  0  0  0  0  0  0  0
   39.3360   34.2960   37.7380 C   0  0  0  0  0  0  0  0  0  0  0  0
   38.3210   33.9250   38.5300 N   0  0  0  0  0  0  0  0  0  0  0  0
   38.5620   33.6000   39.8120 C   0  0  0  0  0  0  0  0  0  0  0  0
   39.8520   33.6630   40.2550 N   0  0  0  0  0  0  0  0  0  0  0  0
   44.4979   36.7178   45.4029 H   0  0  0  0  0  0  0  0  0  0  0  0
   43.5509   36.4367   43.0496 H   0  0  0  0  0  0  0  0  0  0  0  0
   47.2179   32.0986   43.3378 H   0  0  0  0  0  0  0  0  0  0  0  0
   48.4291   30.1000   43.9989 H   0  0  0  0  0  0  0  0  0  0  0  0
   48.3086   29.2486   46.3356 H   0  0  0  0  0  0  0  0  0  0  0  0
   47.4978   29.4555   48.4807 H   0  0  0  0  0  0  0  0  0  0  0  0
   46.1270   30.6334   50.1871 H   0  0  0  0  0  0  0  0  0  0  0  0
   44.8604   32.7240   49.5040 H   0  0  0  0  0  0  0  0  0  0  0  0
   45.0442   33.4717   47.1967 H   0  0  0  0  0  0  0  0  0  0  0  0
   45.8986   33.7066   40.5568 H   0  0  0  0  0  0  0  0  0  0  0  0
   41.4826   34.6739   37.4931 H   0  0  0  0  0  0  0  0  0  0  0  0
   39.1088   34.5584   36.6942 H   0  0  0  0  0  0  0  0  0  0  0  0
   37.7460   33.2931   40.4827 H   0  0  0  0  0  0  0  0  0  0  0  0
  1  6  2  0
  2  1  1  0
  3  2  2  0
  3  4  1  0
  4  5  2  0
  5  7  1  0
  5  6  1  0
  7 16  2  0
  8  9  2  0
  8  7  1  0
  9 10  1  0
 10 11  2  0
 11 12  1  0
 12 13  2  0
 14 13  1  0
 15 14  2  0
 16 11  1  0
 16 15  1  0
 17  3  1  0
 18 17  2  0
 19 20  1  0
 19 18  1  0
 20 21  2  0
 21 17  1  0
 22 20  1  0
 22 27  1  0
 23 22  2  0
 24 23  1  0
 24 25  2  0
 25 26  1  0
 26 27  2  0
  1 28  1  0
  2 29  1  0
  8 30  1  0
  9 31  1  0
 10 32  1  0
 12 33  1  0
 13 34  1  0
 14 35  1  0
 15 36  1  0
 18 37  1  0
 23 38  1  0
 24 39  1  0
 26 40  1  0
M  ISO  8  28  14  29  14  30  14  31  14  32  14  33  14  34  14  35  14
M  ISO  5  36  14  37  14  38  14  39  14  40  14
M  END
>  <minimizedAffinity>  (1) 
-7.00451899

>  <minimizedRMSD>  (1) 
1.62738848

$$$$
