
     RDKit          3D

 39 43  0  0  0  0  0  0  0  0999 V2000
   44.6370   35.7250   44.7700 C   0  0  0  0  0  0  0  0  0  0  0  0
   44.1760   35.5760   43.4500 C   0  0  0  0  0  0  0  0  0  0  0  0
   44.4800   34.3920   42.8330 C   0  0  0  0  0  0  0  0  0  0  0  0
   45.1890   33.4910   43.5520 N   0  0  0  0  0  0  0  0  0  0  0  0
   45.6380   33.6150   44.8150 C   0  0  0  0  0  0  0  0  0  0  0  0
   45.3070   34.7530   45.3110 N   0  0  0  0  0  0  0  0  0  0  0  0
   46.3530   32.4580   45.2680 C   0  0  0  0  0  0  0  0  0  0  0  0
   47.1720   31.7150   44.4180 C   0  0  0  0  0  0  0  0  0  0  0  0
   47.8590   30.6030   44.8210 C   0  0  0  0  0  0  0  0  0  0  0  0
   47.7780   30.1500   46.1080 C   0  0  0  0  0  0  0  0  0  0  0  0
   46.9940   30.8450   46.9600 C   0  0  0  0  0  0  0  0  0  0  0  0
   46.9110   30.3890   48.2710 C   0  0  0  0  0  0  0  0  0  0  0  0
   46.1310   31.0470   49.1980 C   0  0  0  0  0  0  0  0  0  0  0  0
   45.4340   32.1750   48.7900 C   0  0  0  0  0  0  0  0  0  0  0  0
   45.5660   32.5630   47.4860 C   0  0  0  0  0  0  0  0  0  0  0  0
   46.3190   31.9520   46.5330 C   0  0  0  0  0  0  0  0  0  0  0  0
   44.0460   34.1250   41.4630 C   0  0  0  0  0  0  0  0  0  0  0  0
   44.9800   33.5570   40.5110 C   0  0  0  0  0  0  0  0  0  0  0  0
   43.9150   33.4250   38.9530 S   0  0  0  0  0  0  0  0  0  0  0  0
   42.4640   34.1520   39.9040 C   0  0  0  0  0  0  0  0  0  0  0  0
   42.8570   34.3330   40.9270 N   0  0  0  0  0  0  0  0  0  0  0  0
   41.2090   34.3110   39.1330 C   0  0  0  0  0  0  0  0  0  0  0  0
   40.0040   34.3320   39.7820 C   0  0  0  0  0  0  0  0  0  0  0  0
   39.0400   34.4880   38.8490 N   0  0  0  0  0  0  0  0  0  0  0  0
   39.6610   34.5590   37.6450 C   0  0  0  0  0  0  0  0  0  0  0  0
   40.9890   34.4490   37.8340 N   0  0  0  0  0  0  0  0  0  0  0  0
   44.4339   36.6475   45.3337 H   0  0  0  0  0  0  0  0  0  0  0  0
   43.6035   36.3659   42.9418 H   0  0  0  0  0  0  0  0  0  0  0  0
   47.2703   32.0394   43.3715 H   0  0  0  0  0  0  0  0  0  0  0  0
   48.4875   30.0640   44.0968 H   0  0  0  0  0  0  0  0  0  0  0  0
   48.3287   29.2562   46.4362 H   0  0  0  0  0  0  0  0  0  0  0  0
   47.4740   29.4932   48.5718 H   0  0  0  0  0  0  0  0  0  0  0  0
   46.0630   30.6867   50.2351 H   0  0  0  0  0  0  0  0  0  0  0  0
   44.7983   32.7366   49.4903 H   0  0  0  0  0  0  0  0  0  0  0  0
   45.0074   33.4588   47.1769 H   0  0  0  0  0  0  0  0  0  0  0  0
   46.0335   33.2760   40.6566 H   0  0  0  0  0  0  0  0  0  0  0  0
   39.8489   34.2387   40.8670 H   0  0  0  0  0  0  0  0  0  0  0  0
   39.1611   34.6857   36.6734 H   0  0  0  0  0  0  0  0  0  0  0  0
   41.7086   34.4687   37.0973 H   0  0  0  0  0  0  0  0  0  0  0  0
  1  6  2  0
  2  1  1  0
  3  2  2  0
  3  4  1  0
  4  5  2  0
  5  7  1  0
  5  6  1  0
  7 16  2  0
  8  9  2  0
  8  7  1  0
  9 10  1  0
 10 11  2  0
 11 12  1  0
 12 13  2  0
 14 13  1  0
 15 14  2  0
 16 11  1  0
 16 15  1  0
 17  3  1  0
 18 17  2  0
 19 20  1  0
 19 18  1  0
 20 21  2  0
 21 17  1  0
 22 23  2  0
 22 20  1  0
 24 23  1  0
 25 26  1  0
 25 24  2  0
 26 22  1  0
  1 27  1  0
  2 28  1  0
  8 29  1  0
  9 30  1  0
 10 31  1  0
 12 32  1  0
 13 33  1  0
 14 34  1  0
 15 35  1  0
 18 36  1  0
 23 37  1  0
 25 38  1  0
 26 39  1  0
M  ISO  8  27  14  28  14  29  14  30  14  31  14  32  14  33  14  34  14
M  ISO  5  35  14  36  14  37  14  38  14  39   9
M  END
>  <minimizedAffinity>  (1) 
-6.86350393

>  <minimizedRMSD>  (1) 
1.35119498

$$$$
