
     RDKit          3D

 37 41  0  0  0  0  0  0  0  0999 V2000
   44.6310   35.7330   44.7770 C   0  0  0  0  0  0  0  0  0  0  0  0
   44.1680   35.5790   43.4670 C   0  0  0  0  0  0  0  0  0  0  0  0
   44.4640   34.3970   42.8440 C   0  0  0  0  0  0  0  0  0  0  0  0
   45.1770   33.5010   43.5650 N   0  0  0  0  0  0  0  0  0  0  0  0
   45.6370   33.6210   44.8260 C   0  0  0  0  0  0  0  0  0  0  0  0
   45.3040   34.7640   45.3160 N   0  0  0  0  0  0  0  0  0  0  0  0
   46.3540   32.4600   45.2700 C   0  0  0  0  0  0  0  0  0  0  0  0
   47.1670   31.7250   44.4180 C   0  0  0  0  0  0  0  0  0  0  0  0
   47.8580   30.6100   44.8140 C   0  0  0  0  0  0  0  0  0  0  0  0
   47.7780   30.1490   46.1120 C   0  0  0  0  0  0  0  0  0  0  0  0
   46.9910   30.8490   46.9660 C   0  0  0  0  0  0  0  0  0  0  0  0
   46.9100   30.3860   48.2740 C   0  0  0  0  0  0  0  0  0  0  0  0
   46.1300   31.0440   49.2030 C   0  0  0  0  0  0  0  0  0  0  0  0
   45.4320   32.1760   48.7910 C   0  0  0  0  0  0  0  0  0  0  0  0
   45.5670   32.5620   47.4870 C   0  0  0  0  0  0  0  0  0  0  0  0
   46.3170   31.9580   46.5320 C   0  0  0  0  0  0  0  0  0  0  0  0
   44.0210   34.1350   41.4810 C   0  0  0  0  0  0  0  0  0  0  0  0
   44.9520   33.6300   40.5020 C   0  0  0  0  0  0  0  0  0  0  0  0
   43.9180   33.4560   38.9580 S   0  0  0  0  0  0  0  0  0  0  0  0
   42.4160   34.1040   39.9370 C   0  0  0  0  0  0  0  0  0  0  0  0
   42.8140   34.2910   40.9630 N   0  0  0  0  0  0  0  0  0  0  0  0
   41.0440   34.2880   39.3700 C   0  0  0  0  0  0  0  0  0  0  0  0
   39.9140   34.6010   40.0440 N   0  0  0  0  0  0  0  0  0  0  0  0
   38.9200   34.6740   39.1990 O   0  0  0  0  0  0  0  0  0  0  0  0
   39.3510   34.4170   37.9640 C   0  0  0  0  0  0  0  0  0  0  0  0
   40.6860   34.1760   38.0790 N   0  0  0  0  0  0  0  0  0  0  0  0
   44.4288   36.6567   45.3390 H   0  0  0  0  0  0  0  0  0  0  0  0
   43.5937   36.3694   42.9616 H   0  0  0  0  0  0  0  0  0  0  0  0
   47.2612   32.0542   43.3726 H   0  0  0  0  0  0  0  0  0  0  0  0
   48.4857   30.0746   44.0864 H   0  0  0  0  0  0  0  0  0  0  0  0
   48.3277   29.2542   46.4392 H   0  0  0  0  0  0  0  0  0  0  0  0
   47.4719   29.4882   48.5710 H   0  0  0  0  0  0  0  0  0  0  0  0
   46.0616   30.6841   50.2402 H   0  0  0  0  0  0  0  0  0  0  0  0
   44.7953   32.7389   49.4894 H   0  0  0  0  0  0  0  0  0  0  0  0
   45.0079   33.4579   47.1792 H   0  0  0  0  0  0  0  0  0  0  0  0
   46.0198   33.4013   40.6342 H   0  0  0  0  0  0  0  0  0  0  0  0
   38.7515   34.4026   37.0419 H   0  0  0  0  0  0  0  0  0  0  0  0
  1  6  2  0
  2  1  1  0
  3  2  2  0
  3  4  1  0
  4  5  2  0
  5  7  1  0
  5  6  1  0
  7 16  2  0
  8  9  2  0
  8  7  1  0
  9 10  1  0
 10 11  2  0
 11 12  1  0
 12 13  2  0
 14 13  1  0
 15 14  2  0
 16 11  1  0
 16 15  1  0
 17  3  1  0
 18 17  2  0
 19 20  1  0
 19 18  1  0
 20 21  2  0
 21 17  1  0
 22 20  1  0
 22 23  2  0
 24 23  1  0
 25 26  2  0
 25 24  1  0
 26 22  1  0
  1 27  1  0
  2 28  1  0
  8 29  1  0
  9 30  1  0
 10 31  1  0
 12 32  1  0
 13 33  1  0
 14 34  1  0
 15 35  1  0
 18 36  1  0
 25 37  1  0
M  ISO  8  27  14  28  14  29  14  30  14  31  14  32  14  33  14  34  14
M  ISO  3  35  14  36  14  37  14
M  END
>  <minimizedAffinity>  (1) 
-6.7561512

>  <minimizedRMSD>  (1) 
1.46806824

$$$$
