
     RDKit          3D

 34 37  0  0  0  0  0  0  0  0999 V2000
   46.0020   32.1440   44.7030 C   0  0  0  0  0  0  0  0  0  0  0  0
   45.9530   31.1030   43.7780 C   0  0  0  0  0  0  0  0  0  0  0  0
   46.4840   29.8570   44.0150 C   0  0  0  0  0  0  0  0  0  0  0  0
   47.1040   29.5700   45.2050 C   0  0  0  0  0  0  0  0  0  0  0  0
   47.1650   30.5640   46.1210 C   0  0  0  0  0  0  0  0  0  0  0  0
   47.7950   30.2710   47.3270 C   0  0  0  0  0  0  0  0  0  0  0  0
   47.8980   31.2340   48.3130 C   0  0  0  0  0  0  0  0  0  0  0  0
   47.3610   32.4900   48.0710 C   0  0  0  0  0  0  0  0  0  0  0  0
   46.7600   32.6900   46.8590 C   0  0  0  0  0  0  0  0  0  0  0  0
   46.6230   31.7950   45.8480 C   0  0  0  0  0  0  0  0  0  0  0  0
   44.7620   35.6620   44.6620 C   0  0  0  0  0  0  0  0  0  0  0  0
   44.1630   35.7040   43.3910 C   0  0  0  0  0  0  0  0  0  0  0  0
   44.2230   34.5550   42.6500 C   0  0  0  0  0  0  0  0  0  0  0  0
   44.8510   33.4920   43.2100 N   0  0  0  0  0  0  0  0  0  0  0  0
   45.4300   33.4290   44.4230 C   0  0  0  0  0  0  0  0  0  0  0  0
   45.3230   34.5530   45.0440 N   0  0  0  0  0  0  0  0  0  0  0  0
   43.6280   34.4890   41.3200 C   0  0  0  0  0  0  0  0  0  0  0  0
   44.2450   33.6810   40.2880 C   0  0  0  0  0  0  0  0  0  0  0  0
   43.1000   33.9450   38.8170 S   0  0  0  0  0  0  0  0  0  0  0  0
   42.0360   35.0790   39.8830 C   0  0  0  0  0  0  0  0  0  0  0  0
   42.5460   35.0810   40.8690 N   0  0  0  0  0  0  0  0  0  0  0  0
   40.8060   35.7850   39.4610 N   0  0  0  0  0  0  0  0  0  0  0  0
   45.4650   31.2873   42.8095 H   0  0  0  0  0  0  0  0  0  0  0  0
   46.4108   29.0797   43.2401 H   0  0  0  0  0  0  0  0  0  0  0  0
   47.5321   28.5767   45.4052 H   0  0  0  0  0  0  0  0  0  0  0  0
   48.2131   29.2677   47.4963 H   0  0  0  0  0  0  0  0  0  0  0  0
   48.3948   31.0095   49.2684 H   0  0  0  0  0  0  0  0  0  0  0  0
   47.4163   33.2914   48.8225 H   0  0  0  0  0  0  0  0  0  0  0  0
   46.3394   33.6911   46.6834 H   0  0  0  0  0  0  0  0  0  0  0  0
   44.7563   36.5455   45.3172 H   0  0  0  0  0  0  0  0  0  0  0  0
   43.6720   36.6124   43.0120 H   0  0  0  0  0  0  0  0  0  0  0  0
   45.1554   33.0665   40.3487 H   0  0  0  0  0  0  0  0  0  0  0  0
   40.3004   36.3832   40.1298 H   0  0  0  0  0  0  0  0  0  0  0  0
   40.4554   35.6782   38.4984 H   0  0  0  0  0  0  0  0  0  0  0  0
  1 10  2  0
  2  3  2  0
  2  1  1  0
  3  4  1  0
  4  5  2  0
  5  6  1  0
  6  7  2  0
  8  7  1  0
  9  8  2  0
 10  5  1  0
 10  9  1  0
 11 16  2  0
 12 11  1  0
 13 14  1  0
 13 12  2  0
 14 15  2  0
 15  1  1  0
 15 16  1  0
 17 13  1  0
 18 17  2  0
 19 20  1  0
 19 18  1  0
 20 21  2  0
 21 17  1  0
 22 20  1  0
  2 23  1  0
  3 24  1  0
  4 25  1  0
  6 26  1  0
  7 27  1  0
  8 28  1  0
  9 29  1  0
 11 30  1  0
 12 31  1  0
 18 32  1  0
 22 33  1  0
 22 34  1  0
M  ISO  8  23  14  24  14  25  14  26  14  27  14  28  14  29  14  30  14
M  ISO  2  31  14  32  14
M  END
>  <minimizedAffinity>  (1) 
-5.48527431

>  <minimizedRMSD>  (1) 
0.224009559

$$$$
