
     RDKit          3D

 25 27  0  0  0  0  0  0  0  0999 V2000
   47.1040   33.9870   41.3610 C   0  0  0  0  0  0  0  0  0  0  0  0
   46.3270   33.1940   40.5660 N   0  0  0  0  0  0  0  0  0  0  0  0
   46.8540   32.0960   39.9930 C   0  0  0  0  0  0  0  0  0  0  0  0
   48.1560   31.7310   40.1740 N   0  0  0  0  0  0  0  0  0  0  0  0
   48.9430   32.5010   40.9580 C   0  0  0  0  0  0  0  0  0  0  0  0
   50.2430   32.0850   41.1050 C   0  0  0  0  0  0  0  0  0  0  0  0
   51.0800   32.8440   41.8980 C   0  0  0  0  0  0  0  0  0  0  0  0
   50.6280   33.9740   42.5170 C   0  0  0  0  0  0  0  0  0  0  0  0
   49.3120   34.3590   42.3430 C   0  0  0  0  0  0  0  0  0  0  0  0
   48.4280   33.6300   41.5570 C   0  0  0  0  0  0  0  0  0  0  0  0
   46.7390   35.1370   42.0240 O   0  0  0  0  0  0  0  0  0  0  0  0
   44.4460   36.0770   44.7540 C   0  0  0  0  0  0  0  0  0  0  0  0
   45.1320   36.1720   43.5090 C   0  0  0  0  0  0  0  0  0  0  0  0
   46.0220   35.1450   43.2010 C   0  0  0  0  0  0  0  0  0  0  0  0
   46.1980   34.1200   44.0780 N   0  0  0  0  0  0  0  0  0  0  0  0
   45.5290   34.0640   45.2490 C   0  0  0  0  0  0  0  0  0  0  0  0
   44.6540   35.0470   45.5790 N   0  0  0  0  0  0  0  0  0  0  0  0
   46.2117   31.4704   39.3558 H   0  0  0  0  0  0  0  0  0  0  0  0
   50.6066   31.1746   40.6061 H   0  0  0  0  0  0  0  0  0  0  0  0
   52.1267   32.5339   42.0333 H   0  0  0  0  0  0  0  0  0  0  0  0
   51.3036   34.5712   43.1470 H   0  0  0  0  0  0  0  0  0  0  0  0
   48.9532   35.2711   42.8424 H   0  0  0  0  0  0  0  0  0  0  0  0
   43.7335   36.8645   45.0407 H   0  0  0  0  0  0  0  0  0  0  0  0
   44.9669   37.0161   42.8233 H   0  0  0  0  0  0  0  0  0  0  0  0
   45.6933   33.2209   45.9362 H   0  0  0  0  0  0  0  0  0  0  0  0
  1 10  1  0
  1 11  1  0
  2  1  2  0
  3  4  2  0
  3  2  1  0
  4  5  1  0
  5  6  1  0
  5 10  2  0
  6  7  2  0
  7  8  1  0
  9  8  2  0
 10  9  1  0
 11 14  1  0
 12 17  2  0
 13 12  1  0
 14 13  2  0
 14 15  1  0
 15 16  2  0
 16 17  1  0
  3 18  1  0
  6 19  1  0
  7 20  1  0
  8 21  1  0
  9 22  1  0
 12 23  1  0
 13 24  1  0
 16 25  1  0
M  ISO  8  18  14  19  14  20  14  21  14  22  14  23  14  24  14  25  14
M  END
>  <minimizedAffinity>  (1) 
-5.00757933

>  <minimizedRMSD>  (1) 
1.26918495

$$$$
