
     RDKit          3D

 25 26  0  0  1  0  0  0  0  0999 V2000
   44.7120   36.2550   44.3620 C   0  0  0  0  0  0  0  0  0  0  0  0
   45.1940   36.0880   43.0480 C   0  0  0  0  0  0  0  0  0  0  0  0
   45.7200   34.8350   42.7140 C   0  0  0  0  0  0  0  0  0  0  0  0
   45.7330   33.8670   43.6690 N   0  0  0  0  0  0  0  0  0  0  0  0
   45.2640   34.0570   44.9200 C   0  0  0  0  0  0  0  0  0  0  0  0
   44.7520   35.2580   45.2660 N   0  0  0  0  0  0  0  0  0  0  0  0
   46.2240   34.5600   41.4430 O   0  0  0  0  0  0  0  0  0  0  0  0
   47.5320   34.0580   41.2220 C   0  0  2  0  0  0  0  0  0  0  0  0
   48.0510   33.3060   42.3910 C   0  0  0  0  0  0  0  0  0  0  0  0
   49.4270   33.5600   42.8520 C   0  0  0  0  0  0  0  0  0  0  0  0
   50.1310   34.7550   42.3140 C   0  0  0  0  0  0  0  0  0  0  0  0
   49.0800   35.7990   41.9760 C   0  0  0  0  0  0  0  0  0  0  0  0
   48.3740   35.1980   40.7540 C   0  0  0  0  0  0  0  0  0  0  0  0
   44.2912   37.2275   44.6573 H   0  0  0  0  0  0  0  0  0  0  0  0
   45.1582   36.9082   42.3159 H   0  0  0  0  0  0  0  0  0  0  0  0
   45.2985   33.2383   45.6539 H   0  0  0  0  0  0  0  0  0  0  0  0
   47.5423   33.2924   40.4323 H   0  0  0  0  0  0  0  0  0  0  0  0
   47.4173   32.5692   42.9062 H   0  0  0  0  0  0  0  0  0  0  0  0
   49.9181   32.8877   43.5709 H   0  0  0  0  0  0  0  0  0  0  0  0
   50.8244   35.1528   43.0697 H   0  0  0  0  0  0  0  0  0  0  0  0
   50.7108   34.4888   41.4179 H   0  0  0  0  0  0  0  0  0  0  0  0
   48.3768   35.9361   42.8107 H   0  0  0  0  0  0  0  0  0  0  0  0
   49.5057   36.7948   41.7834 H   0  0  0  0  0  0  0  0  0  0  0  0
   49.1208   34.8382   40.0309 H   0  0  0  0  0  0  0  0  0  0  0  0
   47.7491   35.9577   40.2618 H   0  0  0  0  0  0  0  0  0  0  0  0
  1  6  2  0
  2  1  1  0
  3  2  2  0
  3  4  1  0
  4  5  2  0
  5  6  1  0
  7  3  1  0
  8  7  1  0
  8  9  1  0
  9 10  2  0
 11 10  1  0
 12 11  1  0
 13  8  1  0
 13 12  1  0
  1 14  1  0
  2 15  1  0
  5 16  1  0
  8 17  1  6
  9 18  1  0
 10 19  1  0
 11 20  1  0
 11 21  1  0
 12 22  1  0
 12 23  1  0
 13 24  1  0
 13 25  1  0
M  ISO  8  14  14  15  14  16  14  17  13  18  13  19  13  20  13  21  13
M  ISO  4  22  13  23  13  24  13  25  13
M  END
>  <minimizedAffinity>  (1) 
-4.63794565

>  <minimizedRMSD>  (1) 
0.726751268

$$$$
