
     RDKit          3D

 21 22  0  0  0  0  0  0  0  0999 V2000
   44.6080   36.2340   44.4330 C   0  0  0  0  0  0  0  0  0  0  0  0
   45.2430   36.0930   43.1870 C   0  0  0  0  0  0  0  0  0  0  0  0
   45.9530   34.9110   42.9570 C   0  0  0  0  0  0  0  0  0  0  0  0
   45.9910   33.9620   43.9530 N   0  0  0  0  0  0  0  0  0  0  0  0
   45.3570   34.1600   45.1360 C   0  0  0  0  0  0  0  0  0  0  0  0
   44.6680   35.2920   45.3750 N   0  0  0  0  0  0  0  0  0  0  0  0
   46.6160   34.6630   41.7680 O   0  0  0  0  0  0  0  0  0  0  0  0
   47.9090   34.1650   41.8880 C   0  0  0  0  0  0  0  0  0  0  0  0
   48.3050   32.8790   41.5880 C   0  0  0  0  0  0  0  0  0  0  0  0
   49.6390   32.5400   41.7630 C   0  0  0  0  0  0  0  0  0  0  0  0
   50.5600   33.4570   42.2270 C   0  0  0  0  0  0  0  0  0  0  0  0
   50.1500   34.7610   42.5300 C   0  0  0  0  0  0  0  0  0  0  0  0
   48.8080   35.1020   42.3530 C   0  0  0  0  0  0  0  0  0  0  0  0
   44.0414   37.1542   44.6384 H   0  0  0  0  0  0  0  0  0  0  0  0
   45.1836   36.8819   42.4227 H   0  0  0  0  0  0  0  0  0  0  0  0
   45.4066   33.3828   45.9129 H   0  0  0  0  0  0  0  0  0  0  0  0
   47.5801   32.1388   41.2184 H   0  0  0  0  0  0  0  0  0  0  0  0
   49.9697   31.5179   41.5267 H   0  0  0  0  0  0  0  0  0  0  0  0
   51.6123   33.1646   42.3583 H   0  0  0  0  0  0  0  0  0  0  0  0
   50.8722   35.5032   42.9008 H   0  0  0  0  0  0  0  0  0  0  0  0
   48.4663   36.1215   42.5852 H   0  0  0  0  0  0  0  0  0  0  0  0
  1  6  2  0
  2  1  1  0
  3  2  2  0
  3  4  1  0
  4  5  2  0
  5  6  1  0
  7  8  1  0
  7  3  1  0
  8 13  2  0
  9 10  2  0
  9  8  1  0
 10 11  1  0
 11 12  2  0
 13 12  1  0
  1 14  1  0
  2 15  1  0
  5 16  1  0
  9 17  1  0
 10 18  1  0
 11 19  1  0
 12 20  1  0
 13 21  1  0
M  ISO  8  14  14  15  14  16  14  17  14  18  14  19  14  20  14  21  14
M  END
>  <minimizedAffinity>  (1) 
-4.517097

>  <minimizedRMSD>  (1) 
1.40978563

$$$$
