
     RDKit          3D

 23 24  0  0  1  0  0  0  0  0999 V2000
   44.6000   36.1010   44.5150 C   0  0  0  0  0  0  0  0  0  0  0  0
   45.2680   36.0800   43.2790 C   0  0  0  0  0  0  0  0  0  0  0  0
   46.0820   34.9690   43.0350 C   0  0  0  0  0  0  0  0  0  0  0  0
   46.1730   33.9980   43.9970 N   0  0  0  0  0  0  0  0  0  0  0  0
   45.5160   34.0600   45.1640 C   0  0  0  0  0  0  0  0  0  0  0  0
   44.7130   35.1300   45.4320 N   0  0  0  0  0  0  0  0  0  0  0  0
   46.8030   34.8070   41.8620 O   0  0  0  0  0  0  0  0  0  0  0  0
   48.8470   34.6460   43.0730 N   0  0  0  0  0  0  0  0  0  0  0  0
   50.2180   34.4840   42.5570 C   0  0  0  0  0  0  0  0  0  0  0  0
   50.0210   33.1560   41.8120 C   0  0  0  0  0  0  0  0  0  0  0  0
   48.5860   33.2400   41.2810 C   0  0  0  0  0  0  0  0  0  0  0  0
   48.1740   34.6150   41.7640 C   0  0  1  0  0  0  0  0  0  0  0  0
   43.9504   36.9592   44.7419 H   0  0  0  0  0  0  0  0  0  0  0  0
   45.1571   36.8915   42.5447 H   0  0  0  0  0  0  0  0  0  0  0  0
   45.6239   33.2517   45.9023 H   0  0  0  0  0  0  0  0  0  0  0  0
   48.5595   33.8690   43.6850 H   0  0  0  0  0  0  0  0  0  0  0  0
   50.5058   35.3013   41.8794 H   0  0  0  0  0  0  0  0  0  0  0  0
   51.0184   34.4960   43.3114 H   0  0  0  0  0  0  0  0  0  0  0  0
   50.7395   33.0613   40.9845 H   0  0  0  0  0  0  0  0  0  0  0  0
   50.1839   32.2799   42.4569 H   0  0  0  0  0  0  0  0  0  0  0  0
   47.9496   32.4535   41.7129 H   0  0  0  0  0  0  0  0  0  0  0  0
   48.4978   33.0981   40.1938 H   0  0  0  0  0  0  0  0  0  0  0  0
   48.4533   35.4232   41.0720 H   0  0  0  0  0  0  0  0  0  0  0  0
  1  6  2  0
  2  1  1  0
  3  2  2  0
  3  4  1  0
  4  5  2  0
  5  6  1  0
  7  3  1  0
  9  8  1  0
 10  9  1  0
 11 12  1  0
 11 10  1  0
 12  7  1  0
 12  8  1  0
  1 13  1  0
  2 14  1  0
  5 15  1  0
  8 16  1  0
  9 17  1  0
  9 18  1  0
 10 19  1  0
 10 20  1  0
 11 21  1  0
 11 22  1  0
 12 23  1  6
M  ISO  8  13  14  14  14  15  14  16   5  17  13  18  13  19  13  20  13
M  ISO  3  21  13  22  13  23  13
M  END
>  <minimizedAffinity>  (1) 
-4.19643497

>  <minimizedRMSD>  (1) 
1.03291321

$$$$
