
     RDKit          3D

 14 14  0  0  0  0  0  0  0  0999 V2000
   44.7210   35.9910   44.2460 C   0  0  0  0  0  0  0  0  0  0  0  0
   45.4470   36.0090   43.0410 C   0  0  0  0  0  0  0  0  0  0  0  0
   46.3270   34.9510   42.7810 C   0  0  0  0  0  0  0  0  0  0  0  0
   46.4230   33.9650   43.7190 N   0  0  0  0  0  0  0  0  0  0  0  0
   45.7150   33.9750   44.8630 C   0  0  0  0  0  0  0  0  0  0  0  0
   44.8630   34.9890   45.1270 N   0  0  0  0  0  0  0  0  0  0  0  0
   47.0950   34.8550   41.6350 O   0  0  0  0  0  0  0  0  0  0  0  0
   48.4920   35.0270   41.6430 C   0  0  0  0  0  0  0  0  0  0  0  0
   48.8770   36.1330   40.9120 F   0  0  0  0  0  0  0  0  0  0  0  0
   49.0340   33.9160   40.9930 F   0  0  0  0  0  0  0  0  0  0  0  0
   48.9430   35.1270   42.9280 F   0  0  0  0  0  0  0  0  0  0  0  0
   44.0248   36.8127   44.4698 H   0  0  0  0  0  0  0  0  0  0  0  0
   45.3266   36.8326   42.3218 H   0  0  0  0  0  0  0  0  0  0  0  0
   45.8306   33.1541   45.5861 H   0  0  0  0  0  0  0  0  0  0  0  0
  1  6  2  0
  2  1  1  0
  3  2  2  0
  3  4  1  0
  4  5  2  0
  5  6  1  0
  7  8  1  0
  7  3  1  0
  8 11  1  0
  9  8  1  0
 10  8  1  0
  1 12  1  0
  2 13  1  0
  5 14  1  0
M  ISO  3  12  14  13  14  14  14
M  END
>  <minimizedAffinity>  (1) 
-4.08424377

>  <minimizedRMSD>  (1) 
0.584113598

$$$$
