
     RDKit          3D

 16 17  0  0  0  0  0  0  0  0999 V2000
   44.6150   35.9610   44.3880 C   0  0  0  0  0  0  0  0  0  0  0  0
   45.3470   35.9370   43.1770 C   0  0  0  0  0  0  0  0  0  0  0  0
   46.2670   34.8990   42.9950 C   0  0  0  0  0  0  0  0  0  0  0  0
   46.3990   33.9770   43.9970 N   0  0  0  0  0  0  0  0  0  0  0  0
   45.6910   34.0270   45.1330 C   0  0  0  0  0  0  0  0  0  0  0  0
   44.8050   35.0200   45.3160 N   0  0  0  0  0  0  0  0  0  0  0  0
   47.0330   34.7810   41.8510 O   0  0  0  0  0  0  0  0  0  0  0  0
   48.3630   34.4250   42.0350 C   0  0  0  0  0  0  0  0  0  0  0  0
   49.2770   35.3180   42.4180 N   0  0  0  0  0  0  0  0  0  0  0  0
   50.4070   34.6890   42.5020 O   0  0  0  0  0  0  0  0  0  0  0  0
   50.2790   33.4280   42.1920 C   0  0  0  0  0  0  0  0  0  0  0  0
   48.9820   33.2300   41.8900 N   0  0  0  0  0  0  0  0  0  0  0  0
   43.8828   36.7623   44.5664 H   0  0  0  0  0  0  0  0  0  0  0  0
   45.1978   36.7073   42.4061 H   0  0  0  0  0  0  0  0  0  0  0  0
   45.8339   33.2612   45.9096 H   0  0  0  0  0  0  0  0  0  0  0  0
   51.0777   32.6717   42.1798 H   0  0  0  0  0  0  0  0  0  0  0  0
  1  6  2  0
  2  1  1  0
  3  2  2  0
  3  4  1  0
  4  5  2  0
  5  6  1  0
  7  8  1  0
  7  3  1  0
  8  9  2  0
  9 10  1  0
 11 10  1  0
 12  8  1  0
 12 11  2  0
  1 13  1  0
  2 14  1  0
  5 15  1  0
 11 16  1  0
M  ISO  4  13  14  14  14  15  14  16  14
M  END
>  <minimizedAffinity>  (1) 
-3.98753142

>  <minimizedRMSD>  (1) 
1.33265293

$$$$
