
     RDKit          3D

 23 23  0  0  0  0  0  0  0  0999 V2000
   44.7100   36.0470   44.2400 C   0  0  0  0  0  0  0  0  0  0  0  0
   45.2490   35.8870   42.9540 C   0  0  0  0  0  0  0  0  0  0  0  0
   45.9770   34.7220   42.6860 C   0  0  0  0  0  0  0  0  0  0  0  0
   46.1160   33.8150   43.7020 N   0  0  0  0  0  0  0  0  0  0  0  0
   45.5870   34.0020   44.9200 C   0  0  0  0  0  0  0  0  0  0  0  0
   44.8840   35.1210   45.1860 N   0  0  0  0  0  0  0  0  0  0  0  0
   46.5580   34.4400   41.4640 O   0  0  0  0  0  0  0  0  0  0  0  0
   47.9020   34.5490   41.1250 C   0  0  0  0  0  0  0  0  0  0  0  0
   48.6080   35.6720   41.8370 C   0  0  0  0  0  0  0  0  0  0  0  0
   48.1280   34.5740   39.6360 C   0  0  0  0  0  0  0  0  0  0  0  0
   48.5580   33.2530   41.6230 C   0  0  0  0  0  0  0  0  0  0  0  0
   44.1325   36.9537   44.4732 H   0  0  0  0  0  0  0  0  0  0  0  0
   45.1036   36.6545   42.1796 H   0  0  0  0  0  0  0  0  0  0  0  0
   45.7268   33.2417   45.7026 H   0  0  0  0  0  0  0  0  0  0  0  0
   48.5189   35.5303   42.9242 H   0  0  0  0  0  0  0  0  0  0  0  0
   49.6708   35.6751   41.5535 H   0  0  0  0  0  0  0  0  0  0  0  0
   48.1501   36.6312   41.5535 H   0  0  0  0  0  0  0  0  0  0  0  0
   49.2020   34.6928   39.4301 H   0  0  0  0  0  0  0  0  0  0  0  0
   47.7723   33.6310   39.1953 H   0  0  0  0  0  0  0  0  0  0  0  0
   47.5748   35.4164   39.1953 H   0  0  0  0  0  0  0  0  0  0  0  0
   48.5627   33.2436   42.7229 H   0  0  0  0  0  0  0  0  0  0  0  0
   47.9893   32.3879   41.2514 H   0  0  0  0  0  0  0  0  0  0  0  0
   49.5919   33.1991   41.2514 H   0  0  0  0  0  0  0  0  0  0  0  0
  1  6  2  0
  2  1  1  0
  3  2  2  0
  3  4  1  0
  4  5  2  0
  5  6  1  0
  7  3  1  0
  8  7  1  0
  8 11  1  0
  8  9  1  0
 10  8  1  0
  1 12  1  0
  2 13  1  0
  5 14  1  0
  9 15  1  0
  9 16  1  0
  9 17  1  0
 10 18  1  0
 10 19  1  0
 10 20  1  0
 11 21  1  0
 11 22  1  0
 11 23  1  0
M  ISO  8  12  14  13  14  14  14  15   8  16   8  17   8  18   8  19   8
M  ISO  4  20   8  21   8  22   8  23   8
M  END
>  <minimizedAffinity>  (1) 
-3.8869524

>  <minimizedRMSD>  (1) 
1.85639346

$$$$
