
     RDKit          3D

 13 13  0  0  0  0  0  0  0  0999 V2000
   44.5070   36.0260   44.5490 C   0  0  0  0  0  0  0  0  0  0  0  0
   45.1910   36.0700   43.3180 C   0  0  0  0  0  0  0  0  0  0  0  0
   46.1170   35.0590   43.0390 C   0  0  0  0  0  0  0  0  0  0  0  0
   46.3000   34.0910   43.9790 N   0  0  0  0  0  0  0  0  0  0  0  0
   45.6310   34.0730   45.1490 C   0  0  0  0  0  0  0  0  0  0  0  0
   44.7380   35.0470   45.4210 N   0  0  0  0  0  0  0  0  0  0  0  0
   46.8460   34.9970   41.8670 O   0  0  0  0  0  0  0  0  0  0  0  0
   46.4740   34.1810   40.8220 C   0  0  0  0  0  0  0  0  0  0  0  0
   47.1080   33.9820   39.7750 O   0  0  0  0  0  0  0  0  0  0  0  0
   43.7740   36.8093   44.7922 H   0  0  0  0  0  0  0  0  0  0  0  0
   45.0020   36.8777   42.5956 H   0  0  0  0  0  0  0  0  0  0  0  0
   45.8120   33.2691   45.8776 H   0  0  0  0  0  0  0  0  0  0  0  0
   45.5158   33.6511   40.9268 H   0  0  0  0  0  0  0  0  0  0  0  0
  1  6  2  0
  2  1  1  0
  3  2  2  0
  3  4  1  0
  4  5  2  0
  5  6  1  0
  7  3  1  0
  8  7  1  0
  9  8  2  0
  1 10  1  0
  2 11  1  0
  5 12  1  0
  8 13  1  0
M  ISO  4  10  14  11  14  12  14  13   6
M  END
>  <minimizedAffinity>  (1) 
-3.13693261

>  <minimizedRMSD>  (1) 
0.10305167

$$$$
