
     RDKit          3D

 34 36  0  0  1  0  0  0  0  0999 V2000
   46.9540   34.4070   42.9340 C   0  0  1  0  0  0  0  0  0  0  0  0
   46.1130   35.6550   42.8680 C   0  0  0  0  0  0  0  0  0  0  0  0
   45.5300   34.4270   43.3780 C   0  0  1  0  0  0  0  0  0  0  0  0
   48.0600   34.0310   39.3890 C   0  0  0  0  0  0  0  0  0  0  0  0
   47.6560   34.6430   40.6190 C   0  0  0  0  0  0  0  0  0  0  0  0
   47.3670   33.7900   41.6730 C   0  0  0  0  0  0  0  0  0  0  0  0
   47.4770   32.4410   41.4950 N   0  0  0  0  0  0  0  0  0  0  0  0
   47.8560   31.8950   40.3380 C   0  0  0  0  0  0  0  0  0  0  0  0
   48.1520   32.6780   39.2740 N   0  0  0  0  0  0  0  0  0  0  0  0
   44.4590   33.6830   42.6560 C   0  0  0  0  0  0  0  0  0  0  0  0
   44.2250   32.3140   42.7080 C   0  0  0  0  0  0  0  0  0  0  0  0
   43.1900   31.7540   42.0110 C   0  0  0  0  0  0  0  0  0  0  0  0
   42.3660   32.4840   41.2580 N   0  0  0  0  0  0  0  0  0  0  0  0
   42.5920   33.7980   41.2090 C   0  0  0  0  0  0  0  0  0  0  0  0
   43.5980   34.3640   41.8830 N   0  0  0  0  0  0  0  0  0  0  0  0
   41.6890   34.6310   40.3780 C   0  0  0  0  0  0  0  0  0  0  0  0
   41.1600   35.7460   41.2270 C   0  0  0  0  0  0  0  0  0  0  0  0
   42.3750   35.1660   39.1440 C   0  0  0  0  0  0  0  0  0  0  0  0
   47.8970   34.0850   43.3998 H   0  0  0  0  0  0  0  0  0  0  0  0
   46.3174   36.4910   43.5531 H   0  0  0  0  0  0  0  0  0  0  0  0
   45.8459   36.3680   42.0742 H   0  0  0  0  0  0  0  0  0  0  0  0
   45.0075   34.1539   44.3067 H   0  0  0  0  0  0  0  0  0  0  0  0
   48.3000   34.6650   38.5227 H   0  0  0  0  0  0  0  0  0  0  0  0
   47.5788   35.7354   40.7224 H   0  0  0  0  0  0  0  0  0  0  0  0
   47.9284   30.8011   40.2481 H   0  0  0  0  0  0  0  0  0  0  0  0
   44.8799   31.6734   43.3169 H   0  0  0  0  0  0  0  0  0  0  0  0
   43.0322   30.6672   42.0734 H   0  0  0  0  0  0  0  0  0  0  0  0
   40.8604   34.0043   40.0165 H   0  0  0  0  0  0  0  0  0  0  0  0
   41.2825   35.4879   42.2892 H   0  0  0  0  0  0  0  0  0  0  0  0
   41.7160   36.6694   41.0076 H   0  0  0  0  0  0  0  0  0  0  0  0
   40.0931   35.8995   41.0076 H   0  0  0  0  0  0  0  0  0  0  0  0
   43.2100   35.8172   39.4419 H   0  0  0  0  0  0  0  0  0  0  0  0
   42.7597   34.3271   38.5455 H   0  0  0  0  0  0  0  0  0  0  0  0
   41.6551   35.7435   38.5455 H   0  0  0  0  0  0  0  0  0  0  0  0
  1  3  1  0
  2  1  1  0
  2  3  1  0
  4  5  2  0
  5  6  1  0
  6  1  1  0
  7  6  2  0
  8  7  1  0
  9  4  1  0
  9  8  2  0
 10 11  2  0
 10  3  1  0
 12 11  1  0
 13 12  2  0
 14 13  1  0
 14 15  2  0
 15 10  1  0
 16 14  1  0
 16 17  1  0
 18 16  1  0
  1 19  1  1
  2 20  1  0
  2 21  1  0
  3 22  1  1
  4 23  1  0
  5 24  1  0
  8 25  1  0
 11 26  1  0
 12 27  1  0
 16 28  1  0
 17 29  1  0
 17 30  1  0
 17 31  1  0
 18 32  1  0
 18 33  1  0
 18 34  1  0
M  ISO  8  19  13  20  13  21  13  22  13  23  14  24  14  25  14  26  14
M  ISO  8  27  14  28   8  29   8  30   8  31   8  32   8  33   8  34   8
M  END
>  <minimizedAffinity>  (1) 
-4.24772072

>  <minimizedRMSD>  (1) 
4.27435923

$$$$
