
     RDKit          3D

 24 24  0  0  0  0  0  0  0  0999 V2000
   47.1040   33.8520   41.3870 C   0  0  0  0  0  0  0  0  0  0  0  0
   48.1330   34.9260   41.1730 C   0  0  0  0  0  0  0  0  0  0  0  0
   49.4530   34.3010   41.1350 N   0  0  0  0  0  0  0  0  0  0  0  0
   50.2540   34.3030   42.3200 C   0  0  0  0  0  0  0  0  0  0  0  0
   50.1820   35.3040   43.1250 N   0  0  0  0  0  0  0  0  0  0  0  0
   51.1210   33.2270   42.6220 N   0  0  0  0  0  0  0  0  0  0  0  0
   49.5720   36.1260   42.9730 H   0  0  0  0  0  0  0  0  0  0  0  0
   45.8340   34.4290   41.6440 O   0  0  0  0  0  0  0  0  0  0  0  0
   44.4800   35.9970   44.7430 C   0  0  0  0  0  0  0  0  0  0  0  0
   44.7850   35.8640   43.3900 C   0  0  0  0  0  0  0  0  0  0  0  0
   45.4590   34.7140   42.9510 C   0  0  0  0  0  0  0  0  0  0  0  0
   45.7680   33.7910   43.9330 N   0  0  0  0  0  0  0  0  0  0  0  0
   45.4650   33.9440   45.2230 C   0  0  0  0  0  0  0  0  0  0  0  0
   44.8200   35.0500   45.6270 N   0  0  0  0  0  0  0  0  0  0  0  0
   47.4007   33.2315   42.2454 H   0  0  0  0  0  0  0  0  0  0  0  0
   47.0385   33.2343   40.4792 H   0  0  0  0  0  0  0  0  0  0  0  0
   47.9389   35.4417   40.2210 H   0  0  0  0  0  0  0  0  0  0  0  0
   48.0869   35.6609   41.9902 H   0  0  0  0  0  0  0  0  0  0  0  0
   49.8012   33.8659   40.2688 H   0  0  0  0  0  0  0  0  0  0  0  0
   51.6891   33.2488   43.4809 H   0  0  0  0  0  0  0  0  0  0  0  0
   51.1843   32.4217   41.9830 H   0  0  0  0  0  0  0  0  0  0  0  0
   43.9504   36.8960   45.0914 H   0  0  0  0  0  0  0  0  0  0  0  0
   44.5011   36.6503   42.6751 H   0  0  0  0  0  0  0  0  0  0  0  0
   45.7421   33.1681   45.9519 H   0  0  0  0  0  0  0  0  0  0  0  0
  1  8  1  0
  2  1  1  0
  3  2  1  0
  3  4  1  0
  4  6  1  0
  4  5  2  0
  7  5  1  0
  8 11  1  0
  9 14  2  0
 10  9  1  0
 11 10  2  0
 11 12  1  0
 12 13  2  0
 13 14  1  0
  1 15  1  0
  1 16  1  0
  2 17  1  0
  2 18  1  0
  3 19  1  0
  6 20  1  0
  6 21  1  0
  9 22  1  0
 10 23  1  0
 13 24  1  0
M  ISO  7  15   8  16   8  17   8  18   8  22  14  23  14  24  14
M  END
>  <minimizedAffinity>  (1) 
-4.81649494

>  <minimizedRMSD>  (1) 
1.55470681

$$$$
