
     RDKit          3D

 24 25  0  0  0  0  0  0  0  0999 V2000
   44.2210   35.4620   41.8660 C   0  0  0  0  0  0  0  0  0  0  0  0
   43.2410   34.3720   41.5550 C   0  0  0  0  0  0  0  0  0  0  0  0
   42.1440   34.7090   40.7200 C   0  0  0  0  0  0  0  0  0  0  0  0
   41.9330   35.1730   39.4620 C   0  0  0  0  0  0  0  0  0  0  0  0
   40.7160   35.4000   38.9390 C   0  0  0  0  0  0  0  0  0  0  0  0
   39.6170   35.1020   39.8530 C   0  0  0  0  0  0  0  0  0  0  0  0
   40.4180   34.4960   41.4500 S   0  0  0  0  0  0  0  0  0  0  0  0
   45.1360   35.0270   42.8650 O   0  0  0  0  0  0  0  0  0  0  0  0
   48.6540   33.8240   42.9170 C   0  0  0  0  0  0  0  0  0  0  0  0
   47.3610   34.1510   43.3730 C   0  0  0  0  0  0  0  0  0  0  0  0
   46.4210   34.6810   42.5010 C   0  0  0  0  0  0  0  0  0  0  0  0
   46.8360   34.8530   41.2060 N   0  0  0  0  0  0  0  0  0  0  0  0
   48.0720   34.5410   40.7660 C   0  0  0  0  0  0  0  0  0  0  0  0
   48.9560   34.0320   41.6340 N   0  0  0  0  0  0  0  0  0  0  0  0
   43.6778   36.3464   42.2305 H   0  0  0  0  0  0  0  0  0  0  0  0
   44.7791   35.7155   40.9526 H   0  0  0  0  0  0  0  0  0  0  0  0
   43.7947   33.5588   41.0629 H   0  0  0  0  0  0  0  0  0  0  0  0
   42.7914   34.1081   42.5236 H   0  0  0  0  0  0  0  0  0  0  0  0
   42.8118   35.3756   38.8321 H   0  0  0  0  0  0  0  0  0  0  0  0
   40.5620   35.7756   37.9167 H   0  0  0  0  0  0  0  0  0  0  0  0
   38.5409   35.2091   39.6514 H   0  0  0  0  0  0  0  0  0  0  0  0
   49.4012   33.4046   43.6068 H   0  0  0  0  0  0  0  0  0  0  0  0
   47.0954   33.9848   44.4274 H   0  0  0  0  0  0  0  0  0  0  0  0
   48.3491   34.7016   39.7136 H   0  0  0  0  0  0  0  0  0  0  0  0
  1  8  1  0
  2  1  1  0
  3  7  1  0
  3  2  1  0
  4  3  2  0
  5  4  1  0
  5  6  2  0
  6  7  1  0
  9 10  2  0
 11  8  1  0
 11 10  1  0
 12 11  2  0
 13 12  1  0
 13 14  2  0
 14  9  1  0
  1 15  1  0
  1 16  1  0
  2 17  1  0
  2 18  1  0
  4 19  1  0
  5 20  1  0
  6 21  1  0
  9 22  1  0
 10 23  1  0
 13 24  1  0
M  ISO  8  15   8  16   8  17   8  18   8  19  14  20  14  21  14  22  14
M  ISO  2  23  14  24  14
M  END
>  <minimizedAffinity>  (1) 
-3.73944879

>  <minimizedRMSD>  (1) 
6.33258629

$$$$
