
     RDKit          3D

 19 19  0  0  0  0  0  0  0  0999 V2000
   46.7510   34.9150   42.0120 O   0  0  0  0  0  0  0  0  0  0  0  0
   44.4620   36.0230   44.7290 C   0  0  0  0  0  0  0  0  0  0  0  0
   45.1070   36.0650   43.4930 C   0  0  0  0  0  0  0  0  0  0  0  0
   46.0180   35.0370   43.1910 C   0  0  0  0  0  0  0  0  0  0  0  0
   46.1960   34.0660   44.1530 N   0  0  0  0  0  0  0  0  0  0  0  0
   45.5540   34.0590   45.3370 C   0  0  0  0  0  0  0  0  0  0  0  0
   44.6870   35.0480   45.6110 N   0  0  0  0  0  0  0  0  0  0  0  0
   48.1120   34.5760   42.0390 C   0  0  0  0  0  0  0  0  0  0  0  0
   48.9540   35.7290   41.5330 C   0  0  0  0  0  0  0  0  0  0  0  0
   48.9560   35.6450   40.0980 N   0  0  0  0  0  0  0  0  0  0  0  0
   43.7460   36.8181   44.9842 H   0  0  0  0  0  0  0  0  0  0  0  0
   44.9094   36.8765   42.7771 H   0  0  0  0  0  0  0  0  0  0  0  0
   45.7365   33.2570   46.0674 H   0  0  0  0  0  0  0  0  0  0  0  0
   48.4059   34.3387   43.0721 H   0  0  0  0  0  0  0  0  0  0  0  0
   48.2751   33.7034   41.3895 H   0  0  0  0  0  0  0  0  0  0  0  0
   48.5181   36.6861   41.8555 H   0  0  0  0  0  0  0  0  0  0  0  0
   49.9775   35.6747   41.9324 H   0  0  0  0  0  0  0  0  0  0  0  0
   48.9796   34.6558   39.8120 H   0  0  0  0  0  0  0  0  0  0  0  0
   48.1042   36.0895   39.7269 H   0  0  0  0  0  0  0  0  0  0  0  0
  1  8  1  0
  1  4  1  0
  2  7  2  0
  3  2  1  0
  4  3  2  0
  4  5  1  0
  5  6  2  0
  6  7  1  0
  9  8  1  0
 10  9  1  0
  2 11  1  0
  3 12  1  0
  6 13  1  0
  8 14  1  0
  8 15  1  0
  9 16  1  0
  9 17  1  0
 10 18  1  0
 10 19  1  0
M  ISO  8  11  14  12  14  13  14  14   8  15   8  16   8  17   8  18   5
M  ISO  1  19   5
M  END
>  <minimizedAffinity>  (1) 
-3.75204659

>  <minimizedRMSD>  (1) 
0.334239244

$$$$
