
     RDKit          3D

 26 27  0  0  0  0  0  0  0  0999 V2000
   48.0000   35.2180   41.9310 C   0  0  0  0  0  0  0  0  0  0  0  0
   48.4650   34.9710   40.5000 C   0  0  0  0  0  0  0  0  0  0  0  0
   47.3990   34.3120   39.8200 N   0  0  0  0  0  0  0  0  0  0  0  0
   47.8520   33.9820   38.4880 C   0  0  0  0  0  0  0  0  0  0  0  0
   48.5100   34.4640   37.3690 C   0  0  0  0  0  0  0  0  0  0  0  0
   48.5160   33.4010   36.4640 C   0  0  0  0  0  0  0  0  0  0  0  0
   47.8730   32.3390   37.0650 C   0  0  0  0  0  0  0  0  0  0  0  0
   47.4900   32.7290   38.2770 O   0  0  0  0  0  0  0  0  0  0  0  0
   46.6130   34.9650   42.0130 O   0  0  0  0  0  0  0  0  0  0  0  0
   44.4480   35.9710   44.8670 C   0  0  0  0  0  0  0  0  0  0  0  0
   45.0400   36.0390   43.6100 C   0  0  0  0  0  0  0  0  0  0  0  0
   45.9460   35.0330   43.2230 C   0  0  0  0  0  0  0  0  0  0  0  0
   46.1800   34.0310   44.1520 N   0  0  0  0  0  0  0  0  0  0  0  0
   45.5950   33.9930   45.3540 C   0  0  0  0  0  0  0  0  0  0  0  0
   44.7330   34.9580   45.7100 N   0  0  0  0  0  0  0  0  0  0  0  0
   48.2015   36.2630   42.2093 H   0  0  0  0  0  0  0  0  0  0  0  0
   48.5411   34.5511   42.6183 H   0  0  0  0  0  0  0  0  0  0  0  0
   48.6927   35.9276   40.0069 H   0  0  0  0  0  0  0  0  0  0  0  0
   49.3773   34.3566   40.4856 H   0  0  0  0  0  0  0  0  0  0  0  0
   46.4681   34.1069   40.2102 H   0  0  0  0  0  0  0  0  0  0  0  0
   48.9360   35.4678   37.2244 H   0  0  0  0  0  0  0  0  0  0  0  0
   48.9539   33.4089   35.4550 H   0  0  0  0  0  0  0  0  0  0  0  0
   47.7067   31.3465   36.6208 H   0  0  0  0  0  0  0  0  0  0  0  0
   43.7390   36.7529   45.1769 H   0  0  0  0  0  0  0  0  0  0  0  0
   44.8033   36.8682   42.9270 H   0  0  0  0  0  0  0  0  0  0  0  0
   45.8201   33.1716   46.0502 H   0  0  0  0  0  0  0  0  0  0  0  0
  1  9  1  0
  2  1  1  0
  3  2  1  0
  4  3  1  0
  5  4  2  0
  6  7  2  0
  6  5  1  0
  7  8  1  0
  8  4  1  0
  9 12  1  0
 10 15  2  0
 11 10  1  0
 12 11  2  0
 12 13  1  0
 13 14  2  0
 14 15  1  0
  1 16  1  0
  1 17  1  0
  2 18  1  0
  2 19  1  0
  3 20  1  0
  5 21  1  0
  6 22  1  0
  7 23  1  0
 10 24  1  0
 11 25  1  0
 14 26  1  0
M  ISO  8  16   8  17   8  18   8  19   8  21  14  22  14  23  14  24  14
M  ISO  2  25  14  26  14
M  END
>  <minimizedAffinity>  (1) 
-4.23352623

>  <minimizedRMSD>  (1) 
3.03499269

$$$$
