
     RDKit          3D

 29 30  0  0  0  0  0  0  0  0999 V2000
   46.6670   34.2240   41.2530 C   0  0  0  0  0  0  0  0  0  0  0  0
   48.1170   34.5050   40.9270 C   0  0  0  0  0  0  0  0  0  0  0  0
   48.2080   34.9340   39.5840 O   0  0  0  0  0  0  0  0  0  0  0  0
   48.4600   33.2880   36.2600 C   0  0  0  0  0  0  0  0  0  0  0  0
   48.2240   34.2870   37.2190 C   0  0  0  0  0  0  0  0  0  0  0  0
   48.4150   34.0150   38.5740 C   0  0  0  0  0  0  0  0  0  0  0  0
   48.8330   32.7460   38.8750 N   0  0  0  0  0  0  0  0  0  0  0  0
   49.0580   31.7960   37.9580 C   0  0  0  0  0  0  0  0  0  0  0  0
   48.8670   32.0810   36.6520 N   0  0  0  0  0  0  0  0  0  0  0  0
   46.2340   35.2540   42.1670 N   0  0  0  0  0  0  0  0  0  0  0  0
   45.8670   34.9030   43.5120 C   0  0  0  0  0  0  0  0  0  0  0  0
   44.9120   35.6290   44.2160 C   0  0  0  0  0  0  0  0  0  0  0  0
   44.6150   35.2180   45.5200 C   0  0  0  0  0  0  0  0  0  0  0  0
   45.2360   34.1380   46.1030 C   0  0  0  0  0  0  0  0  0  0  0  0
   46.1810   33.4150   45.4140 C   0  0  0  0  0  0  0  0  0  0  0  0
   46.4700   33.8250   44.1270 C   0  0  0  0  0  0  0  0  0  0  0  0
   46.5704   33.2350   41.7248 H   0  0  0  0  0  0  0  0  0  0  0  0
   46.0519   34.2238   40.3410 H   0  0  0  0  0  0  0  0  0  0  0  0
   48.4996   35.2923   41.5931 H   0  0  0  0  0  0  0  0  0  0  0  0
   48.7150   33.5927   41.0687 H   0  0  0  0  0  0  0  0  0  0  0  0
   48.3097   33.5008   35.1913 H   0  0  0  0  0  0  0  0  0  0  0  0
   47.8881   35.2851   36.9012 H   0  0  0  0  0  0  0  0  0  0  0  0
   49.3946   30.7949   38.2654 H   0  0  0  0  0  0  0  0  0  0  0  0
   46.1882   36.2352   41.8572 H   0  0  0  0  0  0  0  0  0  0  0  0
   44.4080   36.4957   43.7635 H   0  0  0  0  0  0  0  0  0  0  0  0
   43.8620   35.7755   46.0964 H   0  0  0  0  0  0  0  0  0  0  0  0
   44.9738   33.8496   47.1316 H   0  0  0  0  0  0  0  0  0  0  0  0
   46.6845   32.5485   45.8675 H   0  0  0  0  0  0  0  0  0  0  0  0
   47.2241   33.2597   43.5598 H   0  0  0  0  0  0  0  0  0  0  0  0
  1 10  1  0
  2  1  1  0
  3  2  1  0
  4  9  2  0
  4  5  1  0
  5  6  2  0
  6  7  1  0
  6  3  1  0
  8  7  2  0
  9  8  1  0
 10 11  1  0
 11 16  1  0
 11 12  2  0
 12 13  1  0
 13 14  2  0
 15 14  1  0
 16 15  2  0
  1 17  1  0
  1 18  1  0
  2 19  1  0
  2 20  1  0
  4 21  1  0
  5 22  1  0
  8 23  1  0
 10 24  1  0
 12 25  1  0
 13 26  1  0
 14 27  1  0
 15 28  1  0
 16 29  1  0
M  ISO  8  17   8  18   8  19   8  20   8  21  14  22  14  23  14  25  14
M  ISO  4  26  14  27  14  28  14  29  14
M  END
>  <minimizedAffinity>  (1) 
-4.08384609

>  <minimizedRMSD>  (1) 
7.37914991

$$$$
