
     RDKit          3D

 25 25  0  0  0  0  0  0  0  0999 V2000
   47.4990   34.3040   41.5870 C   0  0  0  0  0  0  0  0  0  0  0  0
   48.6200   35.2830   41.2730 C   0  0  0  0  0  0  0  0  0  0  0  0
   48.7940   35.3170   39.8670 N   0  0  0  0  0  0  0  0  0  0  0  0
   48.1670   34.2450   39.1360 C   0  0  0  0  0  0  0  0  0  0  0  0
   48.3800   34.4870   37.6280 C   0  0  0  0  0  0  0  0  0  0  0  0
   46.3170   35.0520   41.8240 O   0  0  0  0  0  0  0  0  0  0  0  0
   44.4670   35.9850   44.9320 C   0  0  0  0  0  0  0  0  0  0  0  0
   44.9220   36.1140   43.6340 C   0  0  0  0  0  0  0  0  0  0  0  0
   45.7570   35.1040   43.1010 C   0  0  0  0  0  0  0  0  0  0  0  0
   46.0510   34.0500   43.9510 N   0  0  0  0  0  0  0  0  0  0  0  0
   45.5940   33.9640   45.1990 C   0  0  0  0  0  0  0  0  0  0  0  0
   44.8010   34.9290   45.6910 N   0  0  0  0  0  0  0  0  0  0  0  0
   47.7553   33.7176   42.4817 H   0  0  0  0  0  0  0  0  0  0  0  0
   47.3503   33.6109   40.7459 H   0  0  0  0  0  0  0  0  0  0  0  0
   48.3535   36.2851   41.6400 H   0  0  0  0  0  0  0  0  0  0  0  0
   49.5516   34.9661   41.7647 H   0  0  0  0  0  0  0  0  0  0  0  0
   48.4057   36.2061   39.5210 H   0  0  0  0  0  0  0  0  0  0  0  0
   48.6199   33.2851   39.4248 H   0  0  0  0  0  0  0  0  0  0  0  0
   47.0912   34.2142   39.3633 H   0  0  0  0  0  0  0  0  0  0  0  0
   49.1007   35.3058   37.4863 H   0  0  0  0  0  0  0  0  0  0  0  0
   48.7698   33.5705   37.1610 H   0  0  0  0  0  0  0  0  0  0  0  0
   47.4214   34.7573   37.1610 H   0  0  0  0  0  0  0  0  0  0  0  0
   43.8162   36.7653   45.3534 H   0  0  0  0  0  0  0  0  0  0  0  0
   44.6402   36.9862   43.0259 H   0  0  0  0  0  0  0  0  0  0  0  0
   45.8663   33.1025   45.8264 H   0  0  0  0  0  0  0  0  0  0  0  0
  1  6  1  0
  2  1  1  0
  3  2  1  0
  4  3  1  0
  5  4  1  0
  6  9  1  0
  7 12  2  0
  8  7  1  0
  9  8  2  0
  9 10  1  0
 10 11  2  0
 11 12  1  0
  1 13  1  0
  1 14  1  0
  2 15  1  0
  2 16  1  0
  3 17  1  0
  4 18  1  0
  4 19  1  0
  5 20  1  0
  5 21  1  0
  5 22  1  0
  7 23  1  0
  8 24  1  0
 11 25  1  0
M  ISO  8  13   8  14   8  15   8  16   8  17   5  18   8  19   8  20   8
M  ISO  5  21   8  22   8  23  14  24  14  25  14
M  END
>  <minimizedAffinity>  (1) 
-3.93033695

>  <minimizedRMSD>  (1) 
1.0448997

$$$$
