
     RDKit          3D

 27 28  0  0  0  0  0  0  0  0999 V2000
   48.5030   33.4890   42.9980 C   0  0  0  0  0  0  0  0  0  0  0  0
   49.7030   34.3070   42.5990 C   0  0  0  0  0  0  0  0  0  0  0  0
   50.6270   33.4300   41.9390 N   0  0  0  0  0  0  0  0  0  0  0  0
   50.7270   32.1390   41.3880 C   0  0  0  0  0  0  0  0  0  0  0  0
   50.2940   31.7300   40.1330 C   0  0  0  0  0  0  0  0  0  0  0  0
   50.4830   30.3960   39.7670 C   0  0  0  0  0  0  0  0  0  0  0  0
   51.0720   29.5550   40.6340 N   0  0  0  0  0  0  0  0  0  0  0  0
   51.4990   29.9320   41.8540 C   0  0  0  0  0  0  0  0  0  0  0  0
   51.3140   31.2330   42.2060 N   0  0  0  0  0  0  0  0  0  0  0  0
   47.3180   34.0540   42.5280 O   0  0  0  0  0  0  0  0  0  0  0  0
   44.6550   36.0430   44.2110 C   0  0  0  0  0  0  0  0  0  0  0  0
   45.5460   35.6860   43.2150 C   0  0  0  0  0  0  0  0  0  0  0  0
   46.3630   34.5650   43.4140 C   0  0  0  0  0  0  0  0  0  0  0  0
   46.2160   33.8890   44.6080 N   0  0  0  0  0  0  0  0  0  0  0  0
   45.3280   34.2740   45.5600 C   0  0  0  0  0  0  0  0  0  0  0  0
   44.5590   35.3530   45.3390 N   0  0  0  0  0  0  0  0  0  0  0  0
   48.6061   32.4766   42.5804 H   0  0  0  0  0  0  0  0  0  0  0  0
   48.4575   33.4577   44.0966 H   0  0  0  0  0  0  0  0  0  0  0  0
   49.3971   35.1126   41.9153 H   0  0  0  0  0  0  0  0  0  0  0  0
   50.1698   34.7643   43.4838 H   0  0  0  0  0  0  0  0  0  0  0  0
   51.5304   33.9127   41.8311 H   0  0  0  0  0  0  0  0  0  0  0  0
   49.8136   32.4403   39.4440 H   0  0  0  0  0  0  0  0  0  0  0  0
   50.1537   30.0376   38.7806 H   0  0  0  0  0  0  0  0  0  0  0  0
   51.9782   29.2167   42.5386 H   0  0  0  0  0  0  0  0  0  0  0  0
   44.0098   36.9216   44.0634 H   0  0  0  0  0  0  0  0  0  0  0  0
   45.6119   36.2703   42.2854 H   0  0  0  0  0  0  0  0  0  0  0  0
   45.2394   33.7097   46.5001 H   0  0  0  0  0  0  0  0  0  0  0  0
  2  1  1  0
  3  2  1  0
  4  3  1  0
  4  9  1  0
  5  4  2  0
  6  5  1  0
  6  7  2  0
  7  8  1  0
  8  9  2  0
 10  1  1  0
 10 13  1  0
 11 16  2  0
 12 13  2  0
 12 11  1  0
 13 14  1  0
 14 15  2  0
 16 15  1  0
  1 17  1  0
  1 18  1  0
  2 19  1  0
  2 20  1  0
  3 21  1  0
  5 22  1  0
  6 23  1  0
  8 24  1  0
 11 25  1  0
 12 26  1  0
 15 27  1  0
M  ISO  8  17   8  18   8  19   8  20   8  22  14  23  14  24  14  25  14
M  ISO  2  26  14  27  14
M  END
>  <minimizedAffinity>  (1) 
-3.78806925

>  <minimizedRMSD>  (1) 
4.39625454

$$$$
