
     RDKit          3D

 42 45  0  0  0  0  0  0  0  0999 V2000
   44.4520   36.0540   44.7580 C   0  0  0  0  0  0  0  0  0  0  0  0
   45.1010   35.9800   43.5100 C   0  0  0  0  0  0  0  0  0  0  0  0
   45.9560   34.9020   43.3080 C   0  0  0  0  0  0  0  0  0  0  0  0
   46.0650   34.0310   44.3530 N   0  0  0  0  0  0  0  0  0  0  0  0
   45.4510   34.1060   45.5230 C   0  0  0  0  0  0  0  0  0  0  0  0
   44.6280   35.1530   45.7090 N   0  0  0  0  0  0  0  0  0  0  0  0
   45.8040   32.9980   46.4120 C   0  0  0  0  0  0  0  0  0  0  0  0
   45.3460   32.9490   47.7000 C   0  0  0  0  0  0  0  0  0  0  0  0
   45.6430   31.9350   48.5840 C   0  0  0  0  0  0  0  0  0  0  0  0
   46.4470   30.8890   48.1960 C   0  0  0  0  0  0  0  0  0  0  0  0
   46.9320   30.8940   46.9080 C   0  0  0  0  0  0  0  0  0  0  0  0
   47.7300   29.8530   46.5280 C   0  0  0  0  0  0  0  0  0  0  0  0
   48.2530   29.7940   45.2560 C   0  0  0  0  0  0  0  0  0  0  0  0
   47.9340   30.8370   44.3810 C   0  0  0  0  0  0  0  0  0  0  0  0
   47.1250   31.8590   44.8200 C   0  0  0  0  0  0  0  0  0  0  0  0
   46.5920   31.9390   46.0830 C   0  0  0  0  0  0  0  0  0  0  0  0
   46.6860   34.6560   42.1510 O   0  0  0  0  0  0  0  0  0  0  0  0
   48.0470   35.0560   42.0740 C   0  0  0  0  0  0  0  0  0  0  0  0
   48.4930   35.1020   40.6330 C   0  0  0  0  0  0  0  0  0  0  0  0
   47.5070   34.3880   39.8780 N   0  0  0  0  0  0  0  0  0  0  0  0
   47.8700   33.9680   38.5630 C   0  0  0  0  0  0  0  0  0  0  0  0
   48.5110   34.4930   37.4680 C   0  0  0  0  0  0  0  0  0  0  0  0
   48.4540   33.4620   36.5170 C   0  0  0  0  0  0  0  0  0  0  0  0
   47.8190   32.4100   37.0330 N   0  0  0  0  0  0  0  0  0  0  0  0
   47.4580   32.7030   38.2790 N   0  0  0  0  0  0  0  0  0  0  0  0
   43.7707   36.8962   44.9490 H   0  0  0  0  0  0  0  0  0  0  0  0
   44.9390   36.7398   42.7312 H   0  0  0  0  0  0  0  0  0  0  0  0
   44.7018   33.7686   48.0510 H   0  0  0  0  0  0  0  0  0  0  0  0
   45.2350   31.9622   49.6052 H   0  0  0  0  0  0  0  0  0  0  0  0
   46.6945   30.0745   48.8927 H   0  0  0  0  0  0  0  0  0  0  0  0
   47.9576   29.0521   47.2469 H   0  0  0  0  0  0  0  0  0  0  0  0
   48.8964   28.9594   44.9404 H   0  0  0  0  0  0  0  0  0  0  0  0
   48.3257   30.8401   43.3531 H   0  0  0  0  0  0  0  0  0  0  0  0
   46.8890   32.6668   44.1116 H   0  0  0  0  0  0  0  0  0  0  0  0
   48.1586   36.0546   42.5215 H   0  0  0  0  0  0  0  0  0  0  0  0
   48.6672   34.3299   42.6200 H   0  0  0  0  0  0  0  0  0  0  0  0
   48.5544   36.1445   40.2875 H   0  0  0  0  0  0  0  0  0  0  0  0
   49.4894   34.6523   40.5109 H   0  0  0  0  0  0  0  0  0  0  0  0
   46.5752   34.1862   40.2677 H   0  0  0  0  0  0  0  0  0  0  0  0
   48.9639   35.4897   37.3609 H   0  0  0  0  0  0  0  0  0  0  0  0
   48.8703   33.5144   35.5002 H   0  0  0  0  0  0  0  0  0  0  0  0
   47.6382   31.5194   36.5481 H   0  0  0  0  0  0  0  0  0  0  0  0
  1  6  2  0
  2  1  1  0
  3  2  2  0
  3  4  1  0
  4  5  2  0
  5  6  1  0
  5  7  1  0
  7  8  2  0
  8  9  1  0
 10  9  2  0
 11 10  1  0
 12 11  2  0
 13 12  1  0
 14 15  1  0
 14 13  2  0
 15 16  2  0
 16  7  1  0
 16 11  1  0
 17  3  1  0
 18 17  1  0
 19 18  1  0
 20 19  1  0
 21 20  1  0
 22 21  1  0
 23 24  1  0
 23 22  2  0
 24 25  1  0
 25 21  2  0
  1 26  1  0
  2 27  1  0
  8 28  1  0
  9 29  1  0
 10 30  1  0
 12 31  1  0
 13 32  1  0
 14 33  1  0
 15 34  1  0
 18 35  1  0
 18 36  1  0
 19 37  1  0
 19 38  1  0
 20 39  1  0
 22 40  1  0
 23 41  1  0
 24 42  1  0
M  ISO  8  26  14  27  14  28  14  29  14  30  14  31  14  32  14  33  14
M  ISO  8  34  14  35   8  36   8  37   8  38   8  40  14  41  14  42   9
M  END
>  <minimizedAffinity>  (1) 
-6.41370583

>  <minimizedRMSD>  (1) 
0.617101073

$$$$
