
     RDKit          3D

 41 43  0  0  0  0  0  0  0  0999 V2000
   48.1170   35.0050   42.0900 C   0  0  0  0  0  0  0  0  0  0  0  0
   48.4910   35.1390   40.6340 C   0  0  0  0  0  0  0  0  0  0  0  0
   47.5320   34.4090   39.8850 N   0  0  0  0  0  0  0  0  0  0  0  0
   47.8830   33.9880   38.5700 C   0  0  0  0  0  0  0  0  0  0  0  0
   48.5060   34.5100   37.4700 C   0  0  0  0  0  0  0  0  0  0  0  0
   48.4350   33.4750   36.5220 C   0  0  0  0  0  0  0  0  0  0  0  0
   47.8090   32.4210   37.0480 N   0  0  0  0  0  0  0  0  0  0  0  0
   47.4700   32.7230   38.2910 N   0  0  0  0  0  0  0  0  0  0  0  0
   46.7860   34.5550   42.2110 O   0  0  0  0  0  0  0  0  0  0  0  0
   44.4860   35.8270   44.8440 C   0  0  0  0  0  0  0  0  0  0  0  0
   45.1370   35.7500   43.6220 C   0  0  0  0  0  0  0  0  0  0  0  0
   46.0770   34.7320   43.3830 C   0  0  0  0  0  0  0  0  0  0  0  0
   46.3010   33.8370   44.4180 N   0  0  0  0  0  0  0  0  0  0  0  0
   45.6440   33.9530   45.5870 C   0  0  0  0  0  0  0  0  0  0  0  0
   44.7500   34.9380   45.7860 N   0  0  0  0  0  0  0  0  0  0  0  0
   45.8910   33.0230   46.6340 N   0  0  0  0  0  0  0  0  0  0  0  0
   45.0030   32.8980   47.7740 C   0  0  0  0  0  0  0  0  0  0  0  0
   45.1790   31.5770   48.4680 C   0  0  0  0  0  0  0  0  0  0  0  0
   46.5910   31.3300   48.9210 C   0  0  0  0  0  0  0  0  0  0  0  0
   47.5670   32.0650   48.0420 C   0  0  0  0  0  0  0  0  0  0  0  0
   47.0390   32.1510   46.6210 C   0  0  0  0  0  0  0  0  0  0  0  0
   48.2159   35.9837   42.5822 H   0  0  0  0  0  0  0  0  0  0  0  0
   48.7876   34.2754   42.5674 H   0  0  0  0  0  0  0  0  0  0  0  0
   48.4746   36.1979   40.3367 H   0  0  0  0  0  0  0  0  0  0  0  0
   49.5044   34.7509   40.4541 H   0  0  0  0  0  0  0  0  0  0  0  0
   46.6070   34.1894   40.2814 H   0  0  0  0  0  0  0  0  0  0  0  0
   48.9570   35.5066   37.3544 H   0  0  0  0  0  0  0  0  0  0  0  0
   48.8358   33.5263   35.4989 H   0  0  0  0  0  0  0  0  0  0  0  0
   47.6221   31.5279   36.5701 H   0  0  0  0  0  0  0  0  0  0  0  0
   43.7522   36.6254   45.0289 H   0  0  0  0  0  0  0  0  0  0  0  0
   44.9172   36.4882   42.8366 H   0  0  0  0  0  0  0  0  0  0  0  0
   45.2201   33.7076   48.4864 H   0  0  0  0  0  0  0  0  0  0  0  0
   43.9662   32.9618   47.4120 H   0  0  0  0  0  0  0  0  0  0  0  0
   44.5202   31.5541   49.3486 H   0  0  0  0  0  0  0  0  0  0  0  0
   44.9259   30.7900   47.7423 H   0  0  0  0  0  0  0  0  0  0  0  0
   46.7042   31.6798   49.9578 H   0  0  0  0  0  0  0  0  0  0  0  0
   46.7997   30.2519   48.8575 H   0  0  0  0  0  0  0  0  0  0  0  0
   47.7151   33.0814   48.4357 H   0  0  0  0  0  0  0  0  0  0  0  0
   48.5221   31.5193   48.0353 H   0  0  0  0  0  0  0  0  0  0  0  0
   46.7463   31.1509   46.2685 H   0  0  0  0  0  0  0  0  0  0  0  0
   47.8132   32.5420   45.9445 H   0  0  0  0  0  0  0  0  0  0  0  0
  1  9  1  0
  2  1  1  0
  3  2  1  0
  4  3  1  0
  5  4  1  0
  6  7  1  0
  6  5  2  0
  7  8  1  0
  8  4  2  0
  9 12  1  0
 10 15  2  0
 11 10  1  0
 12 11  2  0
 12 13  1  0
 13 14  2  0
 14 15  1  0
 14 16  1  0
 16 17  1  0
 17 18  1  0
 18 19  1  0
 20 19  1  0
 21 16  1  0
 21 20  1  0
  1 22  1  0
  1 23  1  0
  2 24  1  0
  2 25  1  0
  3 26  1  0
  5 27  1  0
  6 28  1  0
  7 29  1  0
 10 30  1  0
 11 31  1  0
 17 32  1  0
 17 33  1  0
 18 34  1  0
 18 35  1  0
 19 36  1  0
 19 37  1  0
 20 38  1  0
 20 39  1  0
 21 40  1  0
 21 41  1  0
M  ISO  8  22   8  23   8  24   8  25   8  27  14  28  14  29   9  30  14
M  ISO  8  31  14  32  13  33  13  34  13  35  13  36  13  37  13  38  13
M  ISO  3  39  13  40  13  41  13
M  END
>  <minimizedAffinity>  (1) 
-6.17246628

>  <minimizedRMSD>  (1) 
0.31767267

$$$$
