
     RDKit          3D

 33 34  0  0  0  0  0  0  0  0999 V2000
   46.5930   34.9540   41.8640 O   0  0  0  0  0  0  0  0  0  0  0  0
   44.5170   36.0670   44.7270 C   0  0  0  0  0  0  0  0  0  0  0  0
   45.1170   36.1060   43.4770 C   0  0  0  0  0  0  0  0  0  0  0  0
   45.9350   35.0510   43.0710 C   0  0  0  0  0  0  0  0  0  0  0  0
   46.0810   34.0310   43.9780 N   0  0  0  0  0  0  0  0  0  0  0  0
   45.4980   34.0080   45.1780 C   0  0  0  0  0  0  0  0  0  0  0  0
   44.7090   35.0440   45.5450 N   0  0  0  0  0  0  0  0  0  0  0  0
   45.6910   32.9190   46.0720 N   0  0  0  0  0  0  0  0  0  0  0  0
   45.3350   33.0520   47.4380 C   0  0  0  0  0  0  0  0  0  0  0  0
   44.4330   33.9460   47.7110 N   0  0  0  0  0  0  0  0  0  0  0  0
   46.0250   32.1730   48.3490 N   0  0  0  0  0  0  0  0  0  0  0  0
   44.0840   34.1410   48.6790 H   0  0  0  0  0  0  0  0  0  0  0  0
   48.0030   35.0580   41.8000 C   0  0  0  0  0  0  0  0  0  0  0  0
   48.4660   35.0280   40.3660 C   0  0  0  0  0  0  0  0  0  0  0  0
   47.4840   34.3200   39.6210 N   0  0  0  0  0  0  0  0  0  0  0  0
   47.8360   33.8540   38.3220 C   0  0  0  0  0  0  0  0  0  0  0  0
   48.4880   34.3290   37.2190 C   0  0  0  0  0  0  0  0  0  0  0  0
   48.4050   33.2740   36.2940 C   0  0  0  0  0  0  0  0  0  0  0  0
   47.7420   32.2510   36.8400 N   0  0  0  0  0  0  0  0  0  0  0  0
   47.3940   32.5940   38.0670 N   0  0  0  0  0  0  0  0  0  0  0  0
   43.8713   36.8994   45.0436 H   0  0  0  0  0  0  0  0  0  0  0  0
   44.9489   36.9639   42.8094 H   0  0  0  0  0  0  0  0  0  0  0  0
   46.0893   32.0339   45.7273 H   0  0  0  0  0  0  0  0  0  0  0  0
   45.8191   32.2118   49.3575 H   0  0  0  0  0  0  0  0  0  0  0  0
   46.7239   31.5062   47.9914 H   0  0  0  0  0  0  0  0  0  0  0  0
   48.3183   36.0046   42.2632 H   0  0  0  0  0  0  0  0  0  0  0  0
   48.4489   34.2081   42.3374 H   0  0  0  0  0  0  0  0  0  0  0  0
   48.5645   36.0535   39.9804 H   0  0  0  0  0  0  0  0  0  0  0  0
   49.4471   34.5376   40.2831 H   0  0  0  0  0  0  0  0  0  0  0  0
   46.5454   34.1490   40.0092 H   0  0  0  0  0  0  0  0  0  0  0  0
   48.9671   35.3102   37.0858 H   0  0  0  0  0  0  0  0  0  0  0  0
   48.8222   33.2886   35.2763 H   0  0  0  0  0  0  0  0  0  0  0  0
   47.5376   31.3507   36.3833 H   0  0  0  0  0  0  0  0  0  0  0  0
  1  4  1  0
  2  7  2  0
  3  2  1  0
  4  3  2  0
  4  5  1  0
  5  6  2  0
  6  7  1  0
  6  8  1  0
  8  9  1  0
  9 10  2  0
  9 11  1  0
 10 12  1  0
 13  1  1  0
 14 13  1  0
 15 14  1  0
 16 15  1  0
 17 16  1  0
 18 19  1  0
 18 17  2  0
 19 20  1  0
 20 16  2  0
  2 21  1  0
  3 22  1  0
  8 23  1  0
 11 24  1  0
 11 25  1  0
 13 26  1  0
 13 27  1  0
 14 28  1  0
 14 29  1  0
 15 30  1  0
 17 31  1  0
 18 32  1  0
 19 33  1  0
M  ISO  8  21  14  22  14  26   8  27   8  28   8  29   8  31  14  32  14
M  ISO  1  33   9
M  END
>  <minimizedAffinity>  (1) 
-6.09742451

>  <minimizedRMSD>  (1) 
0.194000229

$$$$
