
     RDKit          3D

 40 43  0  0  0  0  0  0  0  0999 V2000
   44.5060   35.9340   44.7570 C   0  0  0  0  0  0  0  0  0  0  0  0
   45.1840   35.8470   43.5460 C   0  0  0  0  0  0  0  0  0  0  0  0
   46.0700   34.7930   43.3140 C   0  0  0  0  0  0  0  0  0  0  0  0
   46.2000   33.8950   44.3440 N   0  0  0  0  0  0  0  0  0  0  0  0
   45.5420   33.9900   45.5000 C   0  0  0  0  0  0  0  0  0  0  0  0
   44.6940   35.0160   45.7000 N   0  0  0  0  0  0  0  0  0  0  0  0
   45.7190   33.0050   46.5620 C   0  0  0  0  0  0  0  0  0  0  0  0
   45.1960   33.0240   47.8370 C   0  0  0  0  0  0  0  0  0  0  0  0
   45.5990   31.9210   48.5160 N   0  0  0  0  0  0  0  0  0  0  0  0
   46.3920   31.1590   47.7050 C   0  0  0  0  0  0  0  0  0  0  0  0
   47.0600   29.9620   47.8670 C   0  0  0  0  0  0  0  0  0  0  0  0
   47.8020   29.4210   46.8460 C   0  0  0  0  0  0  0  0  0  0  0  0
   47.8960   30.0690   45.6210 C   0  0  0  0  0  0  0  0  0  0  0  0
   47.2130   31.2760   45.4810 C   0  0  0  0  0  0  0  0  0  0  0  0
   46.4550   31.8400   46.5080 C   0  0  0  0  0  0  0  0  0  0  0  0
   46.8100   34.5760   42.1700 O   0  0  0  0  0  0  0  0  0  0  0  0
   48.1100   35.1000   42.0380 C   0  0  0  0  0  0  0  0  0  0  0  0
   48.5190   35.1500   40.5960 C   0  0  0  0  0  0  0  0  0  0  0  0
   47.5570   34.4190   39.8480 N   0  0  0  0  0  0  0  0  0  0  0  0
   47.9090   33.9860   38.5400 C   0  0  0  0  0  0  0  0  0  0  0  0
   48.5080   34.5090   37.4260 C   0  0  0  0  0  0  0  0  0  0  0  0
   48.4600   33.4520   36.4990 C   0  0  0  0  0  0  0  0  0  0  0  0
   47.8710   32.3890   37.0470 N   0  0  0  0  0  0  0  0  0  0  0  0
   47.5320   32.7030   38.2870 N   0  0  0  0  0  0  0  0  0  0  0  0
   43.8102   36.7671   44.9357 H   0  0  0  0  0  0  0  0  0  0  0  0
   45.0221   36.6095   42.7698 H   0  0  0  0  0  0  0  0  0  0  0  0
   44.5487   33.8152   48.2432 H   0  0  0  0  0  0  0  0  0  0  0  0
   45.3472   31.6939   49.4886 H   0  0  0  0  0  0  0  0  0  0  0  0
   46.9970   29.4330   48.8294 H   0  0  0  0  0  0  0  0  0  0  0  0
   48.3264   28.4663   46.9996 H   0  0  0  0  0  0  0  0  0  0  0  0
   48.4859   29.6465   44.7943 H   0  0  0  0  0  0  0  0  0  0  0  0
   47.2741   31.8068   44.5195 H   0  0  0  0  0  0  0  0  0  0  0  0
   48.1329   36.1176   42.4551 H   0  0  0  0  0  0  0  0  0  0  0  0
   48.8102   34.4483   42.5812 H   0  0  0  0  0  0  0  0  0  0  0  0
   48.5474   36.1940   40.2507 H   0  0  0  0  0  0  0  0  0  0  0  0
   49.5207   34.7148   40.4645 H   0  0  0  0  0  0  0  0  0  0  0  0
   46.6293   34.2083   40.2428 H   0  0  0  0  0  0  0  0  0  0  0  0
   48.9273   35.5166   37.2883 H   0  0  0  0  0  0  0  0  0  0  0  0
   48.8513   33.4961   35.4719 H   0  0  0  0  0  0  0  0  0  0  0  0
   47.7083   31.4824   36.5861 H   0  0  0  0  0  0  0  0  0  0  0  0
  1  6  2  0
  2  1  1  0
  3  2  2  0
  3  4  1  0
  4  5  2  0
  5  6  1  0
  5  7  1  0
  7  8  2  0
  8  9  1  0
 10 11  2  0
 10  9  1  0
 12 11  1  0
 13 12  2  0
 14 13  1  0
 14 15  2  0
 15  7  1  0
 15 10  1  0
 16  3  1  0
 17 16  1  0
 18 17  1  0
 19 18  1  0
 20 19  1  0
 21 20  1  0
 22 23  1  0
 22 21  2  0
 23 24  1  0
 24 20  2  0
  1 25  1  0
  2 26  1  0
  8 27  1  0
  9 28  1  0
 11 29  1  0
 12 30  1  0
 13 31  1  0
 14 32  1  0
 17 33  1  0
 17 34  1  0
 18 35  1  0
 18 36  1  0
 19 37  1  0
 21 38  1  0
 22 39  1  0
 23 40  1  0
M  ISO  8  25  14  26  14  27  14  28   9  29  14  30  14  31  14  32  14
M  ISO  7  33   8  34   8  35   8  36   8  38  14  39  14  40   9
M  END
>  <minimizedAffinity>  (1) 
-6.02835178

>  <minimizedRMSD>  (1) 
0.765136659

$$$$
