
     RDKit          3D

 33 35  0  0  0  0  0  0  0  0999 V2000
   48.1320   35.1580   41.9400 C   0  0  0  0  0  0  0  0  0  0  0  0
   48.5540   35.1350   40.4880 C   0  0  0  0  0  0  0  0  0  0  0  0
   47.5570   34.4160   39.7750 N   0  0  0  0  0  0  0  0  0  0  0  0
   47.8790   33.9610   38.4670 C   0  0  0  0  0  0  0  0  0  0  0  0
   48.5410   34.4410   37.3530 C   0  0  0  0  0  0  0  0  0  0  0  0
   48.4080   33.4040   36.4160 C   0  0  0  0  0  0  0  0  0  0  0  0
   47.7190   32.3960   36.9490 N   0  0  0  0  0  0  0  0  0  0  0  0
   47.3940   32.7230   38.1930 N   0  0  0  0  0  0  0  0  0  0  0  0
   46.8440   34.5790   42.0770 O   0  0  0  0  0  0  0  0  0  0  0  0
   44.4570   36.0180   44.5410 C   0  0  0  0  0  0  0  0  0  0  0  0
   45.1490   35.8740   43.3480 C   0  0  0  0  0  0  0  0  0  0  0  0
   46.0910   34.8280   43.2090 C   0  0  0  0  0  0  0  0  0  0  0  0
   46.2690   33.9880   44.3040 N   0  0  0  0  0  0  0  0  0  0  0  0
   45.5650   34.1820   45.4360 C   0  0  0  0  0  0  0  0  0  0  0  0
   44.6670   35.1890   45.5490 N   0  0  0  0  0  0  0  0  0  0  0  0
   45.7740   33.2850   46.5670 C   0  0  0  0  0  0  0  0  0  0  0  0
   46.8070   32.3860   46.7230 C   0  0  0  0  0  0  0  0  0  0  0  0
   46.5440   31.8070   47.9270 N   0  0  0  0  0  0  0  0  0  0  0  0
   45.4360   32.3170   48.4590 C   0  0  0  0  0  0  0  0  0  0  0  0
   44.9280   33.2590   47.6130 N   0  0  0  0  0  0  0  0  0  0  0  0
   48.1039   36.1986   42.2954 H   0  0  0  0  0  0  0  0  0  0  0  0
   48.8541   34.5811   42.5365 H   0  0  0  0  0  0  0  0  0  0  0  0
   48.6287   36.1617   40.1004 H   0  0  0  0  0  0  0  0  0  0  0  0
   49.5384   34.6576   40.3737 H   0  0  0  0  0  0  0  0  0  0  0  0
   46.6332   34.2309   40.1913 H   0  0  0  0  0  0  0  0  0  0  0  0
   49.0516   35.4074   37.2295 H   0  0  0  0  0  0  0  0  0  0  0  0
   48.8127   33.4212   35.3933 H   0  0  0  0  0  0  0  0  0  0  0  0
   47.4794   31.5131   36.4758 H   0  0  0  0  0  0  0  0  0  0  0  0
   43.7247   36.8316   44.6498 H   0  0  0  0  0  0  0  0  0  0  0  0
   44.9665   36.5688   42.5150 H   0  0  0  0  0  0  0  0  0  0  0  0
   47.6440   32.1844   46.0383 H   0  0  0  0  0  0  0  0  0  0  0  0
   44.9997   32.0257   49.4258 H   0  0  0  0  0  0  0  0  0  0  0  0
   44.0797   33.8277   47.7463 H   0  0  0  0  0  0  0  0  0  0  0  0
  1  9  1  0
  2  1  1  0
  3  2  1  0
  4  3  1  0
  5  4  1  0
  6  7  1  0
  6  5  2  0
  7  8  1  0
  8  4  2  0
  9 12  1  0
 10 15  2  0
 11 10  1  0
 12 11  2  0
 12 13  1  0
 13 14  2  0
 14 15  1  0
 14 16  1  0
 16 17  2  0
 16 20  1  0
 17 18  1  0
 18 19  2  0
 20 19  1  0
  1 21  1  0
  1 22  1  0
  2 23  1  0
  2 24  1  0
  3 25  1  0
  5 26  1  0
  6 27  1  0
  7 28  1  0
 10 29  1  0
 11 30  1  0
 17 31  1  0
 19 32  1  0
 20 33  1  0
M  ISO  8  21   8  22   8  23   8  24   8  26  14  27  14  28   9  29  14
M  ISO  4  30  14  31  14  32  14  33   9
M  END
>  <minimizedAffinity>  (1) 
-5.88569212

>  <minimizedRMSD>  (1) 
0.349238217

$$$$
