
     RDKit          3D

 42 44  0  0  0  0  0  0  0  0999 V2000
   48.1100   35.1060   42.0490 C   0  0  0  0  0  0  0  0  0  0  0  0
   48.5140   35.1530   40.6010 C   0  0  0  0  0  0  0  0  0  0  0  0
   47.5450   34.4160   39.8650 N   0  0  0  0  0  0  0  0  0  0  0  0
   47.8920   33.9780   38.5540 C   0  0  0  0  0  0  0  0  0  0  0  0
   48.5100   34.5020   37.4450 C   0  0  0  0  0  0  0  0  0  0  0  0
   48.4510   33.4560   36.5060 C   0  0  0  0  0  0  0  0  0  0  0  0
   47.8380   32.4010   37.0450 N   0  0  0  0  0  0  0  0  0  0  0  0
   47.4950   32.7060   38.2860 N   0  0  0  0  0  0  0  0  0  0  0  0
   46.7900   34.6060   42.1780 O   0  0  0  0  0  0  0  0  0  0  0  0
   44.5200   35.7230   44.9050 C   0  0  0  0  0  0  0  0  0  0  0  0
   45.1370   35.7340   43.6430 C   0  0  0  0  0  0  0  0  0  0  0  0
   46.0840   34.7520   43.3580 C   0  0  0  0  0  0  0  0  0  0  0  0
   46.3300   33.8450   44.3590 N   0  0  0  0  0  0  0  0  0  0  0  0
   45.7350   33.8500   45.5500 C   0  0  0  0  0  0  0  0  0  0  0  0
   44.8220   34.8010   45.8170 N   0  0  0  0  0  0  0  0  0  0  0  0
   46.0620   32.8270   46.5790 C   0  0  0  0  0  0  0  0  0  0  0  0
   46.0600   31.4300   45.9900 C   0  0  0  0  0  0  0  0  0  0  0  0
   45.6730   30.4300   47.0710 C   0  0  0  0  0  0  0  0  0  0  0  0
   46.3600   30.8350   48.3730 C   0  0  0  0  0  0  0  0  0  0  0  0
   45.8030   32.1410   48.9100 C   0  0  0  0  0  0  0  0  0  0  0  0
   45.1530   32.9100   47.7720 C   0  0  0  0  0  0  0  0  0  0  0  0
   48.1560   36.1207   42.4712 H   0  0  0  0  0  0  0  0  0  0  0  0
   48.7982   34.4398   42.5899 H   0  0  0  0  0  0  0  0  0  0  0  0
   48.5387   36.1956   40.2512 H   0  0  0  0  0  0  0  0  0  0  0  0
   49.5167   34.7221   40.4633 H   0  0  0  0  0  0  0  0  0  0  0  0
   46.6206   34.2053   40.2675 H   0  0  0  0  0  0  0  0  0  0  0  0
   48.9478   35.5034   37.3204 H   0  0  0  0  0  0  0  0  0  0  0  0
   48.8501   33.5013   35.4820 H   0  0  0  0  0  0  0  0  0  0  0  0
   47.6616   31.5016   36.5750 H   0  0  0  0  0  0  0  0  0  0  0  0
   43.7714   36.4925   45.1449 H   0  0  0  0  0  0  0  0  0  0  0  0
   44.8787   36.5000   42.8970 H   0  0  0  0  0  0  0  0  0  0  0  0
   47.0805   33.0469   46.9317 H   0  0  0  0  0  0  0  0  0  0  0  0
   45.3336   31.3797   45.1655 H   0  0  0  0  0  0  0  0  0  0  0  0
   47.0627   31.1896   45.6069 H   0  0  0  0  0  0  0  0  0  0  0  0
   44.5818   30.4368   47.2094 H   0  0  0  0  0  0  0  0  0  0  0  0
   45.9871   29.4174   46.7779 H   0  0  0  0  0  0  0  0  0  0  0  0
   46.2031   30.0443   49.1215 H   0  0  0  0  0  0  0  0  0  0  0  0
   47.4323   30.9732   48.1702 H   0  0  0  0  0  0  0  0  0  0  0  0
   45.0537   31.9299   49.6871 H   0  0  0  0  0  0  0  0  0  0  0  0
   46.6169   32.7400   49.3445 H   0  0  0  0  0  0  0  0  0  0  0  0
   45.0139   33.9616   48.0632 H   0  0  0  0  0  0  0  0  0  0  0  0
   44.1684   32.4813   47.5336 H   0  0  0  0  0  0  0  0  0  0  0  0
  1  9  1  0
  2  1  1  0
  3  2  1  0
  4  3  1  0
  5  4  1  0
  6  7  1  0
  6  5  2  0
  7  8  1  0
  8  4  2  0
  9 12  1  0
 10 15  2  0
 11 10  1  0
 12 11  2  0
 12 13  1  0
 13 14  2  0
 14 15  1  0
 14 16  1  0
 16 21  1  0
 17 16  1  0
 17 18  1  0
 18 19  1  0
 19 20  1  0
 21 20  1  0
  1 22  1  0
  1 23  1  0
  2 24  1  0
  2 25  1  0
  3 26  1  0
  5 27  1  0
  6 28  1  0
  7 29  1  0
 10 30  1  0
 11 31  1  0
 16 32  1  0
 17 33  1  0
 17 34  1  0
 18 35  1  0
 18 36  1  0
 19 37  1  0
 19 38  1  0
 20 39  1  0
 20 40  1  0
 21 41  1  0
 21 42  1  0
M  ISO  8  22   8  23   8  24   8  25   8  27  14  28  14  29   9  30  14
M  ISO  8  31  14  32  13  33  13  34  13  35  13  36  13  37  13  38  13
M  ISO  4  39  13  40  13  41  13  42  13
M  END
>  <minimizedAffinity>  (1) 
-5.84888411

>  <minimizedRMSD>  (1) 
0.643273592

$$$$
