
     RDKit          3D

 33 35  0  0  0  0  0  0  0  0999 V2000
   48.2420   34.8870   42.1350 C   0  0  0  0  0  0  0  0  0  0  0  0
   48.4760   35.1700   40.6780 C   0  0  0  0  0  0  0  0  0  0  0  0
   47.5190   34.4220   39.9390 N   0  0  0  0  0  0  0  0  0  0  0  0
   47.8710   33.9890   38.6260 C   0  0  0  0  0  0  0  0  0  0  0  0
   48.4600   34.5190   37.5120 C   0  0  0  0  0  0  0  0  0  0  0  0
   48.4300   33.4640   36.5810 C   0  0  0  0  0  0  0  0  0  0  0  0
   47.8570   32.3930   37.1350 N   0  0  0  0  0  0  0  0  0  0  0  0
   47.5140   32.6990   38.3760 N   0  0  0  0  0  0  0  0  0  0  0  0
   46.9840   34.2600   42.3220 O   0  0  0  0  0  0  0  0  0  0  0  0
   44.5300   35.7980   44.6460 C   0  0  0  0  0  0  0  0  0  0  0  0
   45.2600   35.6170   43.4580 C   0  0  0  0  0  0  0  0  0  0  0  0
   46.1870   34.5770   43.4020 C   0  0  0  0  0  0  0  0  0  0  0  0
   46.3030   33.8120   44.5360 N   0  0  0  0  0  0  0  0  0  0  0  0
   45.6020   33.9990   45.6520 C   0  0  0  0  0  0  0  0  0  0  0  0
   44.7050   35.0120   45.6940 N   0  0  0  0  0  0  0  0  0  0  0  0
   45.7680   33.1730   46.7900 N   0  0  0  0  0  0  0  0  0  0  0  0
   45.0100   32.8100   47.7920 N   0  0  0  0  0  0  0  0  0  0  0  0
   45.6850   31.9810   48.6250 C   0  0  0  0  0  0  0  0  0  0  0  0
   46.9560   31.8030   48.1210 C   0  0  0  0  0  0  0  0  0  0  0  0
   46.9690   32.5660   46.9700 C   0  0  0  0  0  0  0  0  0  0  0  0
   48.2620   35.8332   42.6956 H   0  0  0  0  0  0  0  0  0  0  0  0
   49.0329   34.2146   42.4989 H   0  0  0  0  0  0  0  0  0  0  0  0
   48.3484   36.2442   40.4787 H   0  0  0  0  0  0  0  0  0  0  0  0
   49.4983   34.8864   40.3872 H   0  0  0  0  0  0  0  0  0  0  0  0
   46.5971   34.1989   40.3405 H   0  0  0  0  0  0  0  0  0  0  0  0
   48.8632   35.5332   37.3752 H   0  0  0  0  0  0  0  0  0  0  0  0
   48.8193   33.5142   35.5534 H   0  0  0  0  0  0  0  0  0  0  0  0
   47.7074   31.4836   36.6750 H   0  0  0  0  0  0  0  0  0  0  0  0
   43.7949   36.6142   44.7046 H   0  0  0  0  0  0  0  0  0  0  0  0
   45.1036   36.2796   42.5940 H   0  0  0  0  0  0  0  0  0  0  0  0
   45.2872   31.5280   49.5451 H   0  0  0  0  0  0  0  0  0  0  0  0
   47.7711   31.1941   48.5390 H   0  0  0  0  0  0  0  0  0  0  0  0
   47.8310   32.6676   46.2942 H   0  0  0  0  0  0  0  0  0  0  0  0
  1  9  1  0
  2  1  1  0
  3  2  1  0
  4  3  1  0
  5  4  1  0
  6  7  1  0
  6  5  2  0
  7  8  1  0
  8  4  2  0
  9 12  1  0
 10 15  2  0
 11 10  1  0
 12 11  2  0
 12 13  1  0
 13 14  2  0
 14 15  1  0
 14 16  1  0
 16 20  1  0
 16 17  1  0
 17 18  2  0
 19 18  1  0
 20 19  2  0
  1 21  1  0
  1 22  1  0
  2 23  1  0
  2 24  1  0
  3 25  1  0
  5 26  1  0
  6 27  1  0
  7 28  1  0
 10 29  1  0
 11 30  1  0
 18 31  1  0
 19 32  1  0
 20 33  1  0
M  ISO  8  21   8  22   8  23   8  24   8  26  14  27  14  28   9  29  14
M  ISO  4  30  14  31  14  32  14  33  14
M  END
>  <minimizedAffinity>  (1) 
-5.79832554

>  <minimizedRMSD>  (1) 
0.530977964

$$$$
