
     RDKit          3D

 33 35  0  0  0  0  0  0  0  0999 V2000
   48.2550   34.9120   42.1170 C   0  0  0  0  0  0  0  0  0  0  0  0
   48.4940   35.1790   40.6510 C   0  0  0  0  0  0  0  0  0  0  0  0
   47.5320   34.4290   39.9220 N   0  0  0  0  0  0  0  0  0  0  0  0
   47.8770   33.9990   38.6110 C   0  0  0  0  0  0  0  0  0  0  0  0
   48.4790   34.5200   37.4960 C   0  0  0  0  0  0  0  0  0  0  0  0
   48.4310   33.4750   36.5600 C   0  0  0  0  0  0  0  0  0  0  0  0
   47.8360   32.4120   37.1030 N   0  0  0  0  0  0  0  0  0  0  0  0
   47.4970   32.7180   38.3470 N   0  0  0  0  0  0  0  0  0  0  0  0
   47.0020   34.2790   42.2960 O   0  0  0  0  0  0  0  0  0  0  0  0
   44.5100   35.8530   44.5640 C   0  0  0  0  0  0  0  0  0  0  0  0
   45.2610   35.6460   43.4060 C   0  0  0  0  0  0  0  0  0  0  0  0
   46.1910   34.6040   43.3690 C   0  0  0  0  0  0  0  0  0  0  0  0
   46.2950   33.8450   44.5090 N   0  0  0  0  0  0  0  0  0  0  0  0
   45.5650   34.0650   45.6040 C   0  0  0  0  0  0  0  0  0  0  0  0
   44.6720   35.0730   45.6260 N   0  0  0  0  0  0  0  0  0  0  0  0
   45.8320   33.1360   46.7180 C   0  0  0  0  0  0  0  0  0  0  0  0
   46.9650   32.3570   46.8340 C   0  0  0  0  0  0  0  0  0  0  0  0
   46.7940   31.6560   48.0090 C   0  0  0  0  0  0  0  0  0  0  0  0
   45.5790   32.0350   48.5510 C   0  0  0  0  0  0  0  0  0  0  0  0
   45.0320   32.9210   47.7520 O   0  0  0  0  0  0  0  0  0  0  0  0
   48.2636   35.8647   42.6669 H   0  0  0  0  0  0  0  0  0  0  0  0
   49.0496   34.2538   42.4982 H   0  0  0  0  0  0  0  0  0  0  0  0
   48.3739   36.2518   40.4394 H   0  0  0  0  0  0  0  0  0  0  0  0
   49.5147   34.8866   40.3635 H   0  0  0  0  0  0  0  0  0  0  0  0
   46.6136   34.2038   40.3303 H   0  0  0  0  0  0  0  0  0  0  0  0
   48.9028   35.5265   37.3644 H   0  0  0  0  0  0  0  0  0  0  0  0
   48.8245   33.5252   35.5340 H   0  0  0  0  0  0  0  0  0  0  0  0
   47.6689   31.5092   36.6361 H   0  0  0  0  0  0  0  0  0  0  0  0
   43.7758   36.6714   44.5971 H   0  0  0  0  0  0  0  0  0  0  0  0
   45.1220   36.2973   42.5305 H   0  0  0  0  0  0  0  0  0  0  0  0
   47.8177   32.3063   46.1410 H   0  0  0  0  0  0  0  0  0  0  0  0
   47.4970   30.9268   48.4380 H   0  0  0  0  0  0  0  0  0  0  0  0
   45.1460   31.6588   49.4896 H   0  0  0  0  0  0  0  0  0  0  0  0
  1  9  1  0
  2  1  1  0
  3  2  1  0
  4  3  1  0
  5  4  1  0
  6  7  1  0
  6  5  2  0
  7  8  1  0
  8  4  2  0
  9 12  1  0
 10 15  2  0
 11 10  1  0
 12 11  2  0
 12 13  1  0
 13 14  2  0
 14 15  1  0
 14 16  1  0
 16 17  2  0
 16 20  1  0
 17 18  1  0
 18 19  2  0
 20 19  1  0
  1 21  1  0
  1 22  1  0
  2 23  1  0
  2 24  1  0
  3 25  1  0
  5 26  1  0
  6 27  1  0
  7 28  1  0
 10 29  1  0
 11 30  1  0
 17 31  1  0
 18 32  1  0
 19 33  1  0
M  ISO  8  21   8  22   8  23   8  24   8  26  14  27  14  28   9  29  14
M  ISO  4  30  14  31  14  32  14  33  14
M  END
>  <minimizedAffinity>  (1) 
-5.57014084

>  <minimizedRMSD>  (1) 
0.608313441

$$$$
