
     RDKit          3D

 39 41  0  0  0  0  0  0  0  0999 V2000
   48.1890   34.9620   42.1220 C   0  0  0  0  0  0  0  0  0  0  0  0
   48.4890   35.1690   40.6560 C   0  0  0  0  0  0  0  0  0  0  0  0
   47.5250   34.4230   39.9240 N   0  0  0  0  0  0  0  0  0  0  0  0
   47.8710   33.9960   38.6100 C   0  0  0  0  0  0  0  0  0  0  0  0
   48.4820   34.5180   37.5000 C   0  0  0  0  0  0  0  0  0  0  0  0
   48.4210   33.4800   36.5580 C   0  0  0  0  0  0  0  0  0  0  0  0
   47.8130   32.4230   37.0940 N   0  0  0  0  0  0  0  0  0  0  0  0
   47.4740   32.7250   38.3400 N   0  0  0  0  0  0  0  0  0  0  0  0
   46.9270   34.3740   42.2800 O   0  0  0  0  0  0  0  0  0  0  0  0
   44.6060   35.6640   44.8820 C   0  0  0  0  0  0  0  0  0  0  0  0
   45.2850   35.6280   43.6470 C   0  0  0  0  0  0  0  0  0  0  0  0
   46.1750   34.5770   43.4210 C   0  0  0  0  0  0  0  0  0  0  0  0
   46.3000   33.6700   44.4440 N   0  0  0  0  0  0  0  0  0  0  0  0
   45.6550   33.7160   45.5980 C   0  0  0  0  0  0  0  0  0  0  0  0
   44.7970   34.7300   45.8160 N   0  0  0  0  0  0  0  0  0  0  0  0
   45.8200   32.7220   46.6660 C   0  0  0  0  0  0  0  0  0  0  0  0
   45.0160   32.9980   47.9060 C   0  0  0  0  0  0  0  0  0  0  0  0
   45.5760   31.9370   48.8620 C   0  0  0  0  0  0  0  0  0  0  0  0
   46.9990   31.6630   48.3740 C   0  0  0  0  0  0  0  0  0  0  0  0
   47.2200   32.6630   47.2310 C   0  0  0  0  0  0  0  0  0  0  0  0
   48.2038   35.9341   42.6366 H   0  0  0  0  0  0  0  0  0  0  0  0
   48.9512   34.2966   42.5536 H   0  0  0  0  0  0  0  0  0  0  0  0
   48.4126   36.2366   40.4020 H   0  0  0  0  0  0  0  0  0  0  0  0
   49.5090   34.8360   40.4137 H   0  0  0  0  0  0  0  0  0  0  0  0
   46.6058   34.1985   40.3310 H   0  0  0  0  0  0  0  0  0  0  0  0
   48.9194   35.5197   37.3761 H   0  0  0  0  0  0  0  0  0  0  0  0
   48.8154   33.5313   35.5324 H   0  0  0  0  0  0  0  0  0  0  0  0
   47.6364   31.5249   36.6216 H   0  0  0  0  0  0  0  0  0  0  0  0
   43.9000   36.4837   45.0811 H   0  0  0  0  0  0  0  0  0  0  0  0
   45.1185   36.4040   42.8854 H   0  0  0  0  0  0  0  0  0  0  0  0
   45.5087   31.8069   46.1409 H   0  0  0  0  0  0  0  0  0  0  0  0
   45.1933   34.0157   48.2839 H   0  0  0  0  0  0  0  0  0  0  0  0
   43.9269   32.9467   47.7603 H   0  0  0  0  0  0  0  0  0  0  0  0
   45.5894   32.3173   49.8941 H   0  0  0  0  0  0  0  0  0  0  0  0
   44.9617   31.0245   48.8663 H   0  0  0  0  0  0  0  0  0  0  0  0
   47.7254   31.8319   49.1826 H   0  0  0  0  0  0  0  0  0  0  0  0
   47.1326   30.6214   48.0465 H   0  0  0  0  0  0  0  0  0  0  0  0
   47.9435   32.2869   46.4927 H   0  0  0  0  0  0  0  0  0  0  0  0
   47.6396   33.6329   47.5362 H   0  0  0  0  0  0  0  0  0  0  0  0
  1  9  1  0
  2  1  1  0
  3  2  1  0
  4  3  1  0
  5  4  1  0
  6  7  1  0
  6  5  2  0
  7  8  1  0
  8  4  2  0
  9 12  1  0
 10 15  2  0
 11 10  1  0
 12 11  2  0
 12 13  1  0
 13 14  2  0
 14 15  1  0
 14 16  1  0
 16 20  1  0
 16 17  1  0
 17 18  1  0
 19 18  1  0
 20 19  1  0
  1 21  1  0
  1 22  1  0
  2 23  1  0
  2 24  1  0
  3 25  1  0
  5 26  1  0
  6 27  1  0
  7 28  1  0
 10 29  1  0
 11 30  1  0
 16 31  1  0
 17 32  1  0
 17 33  1  0
 18 34  1  0
 18 35  1  0
 19 36  1  0
 19 37  1  0
 20 38  1  0
 20 39  1  0
M  ISO  8  21   8  22   8  23   8  24   8  26  14  27  14  28   9  29  14
M  ISO  8  30  14  31  13  32  13  33  13  34  13  35  13  36  13  37  13
M  ISO  2  38  13  39  13
M  END
>  <minimizedAffinity>  (1) 
-5.52847767

>  <minimizedRMSD>  (1) 
0.454393268

$$$$
