
     RDKit          3D

 33 35  0  0  0  0  0  0  0  0999 V2000
   48.2130   35.0160   42.1090 C   0  0  0  0  0  0  0  0  0  0  0  0
   48.5080   35.1910   40.6410 C   0  0  0  0  0  0  0  0  0  0  0  0
   47.5390   34.4370   39.9230 N   0  0  0  0  0  0  0  0  0  0  0  0
   47.8770   34.0060   38.6090 C   0  0  0  0  0  0  0  0  0  0  0  0
   48.4830   34.5180   37.4940 C   0  0  0  0  0  0  0  0  0  0  0  0
   48.4190   33.4780   36.5530 C   0  0  0  0  0  0  0  0  0  0  0  0
   47.8100   32.4240   37.0980 N   0  0  0  0  0  0  0  0  0  0  0  0
   47.4790   32.7360   38.3430 N   0  0  0  0  0  0  0  0  0  0  0  0
   46.9800   34.3430   42.2860 O   0  0  0  0  0  0  0  0  0  0  0  0
   44.5380   35.8110   44.6610 C   0  0  0  0  0  0  0  0  0  0  0  0
   45.2630   35.6630   43.4880 C   0  0  0  0  0  0  0  0  0  0  0  0
   46.1970   34.6040   43.3910 C   0  0  0  0  0  0  0  0  0  0  0  0
   46.3270   33.7710   44.4940 N   0  0  0  0  0  0  0  0  0  0  0  0
   45.5940   33.9680   45.6050 C   0  0  0  0  0  0  0  0  0  0  0  0
   44.7100   34.9780   45.6840 N   0  0  0  0  0  0  0  0  0  0  0  0
   45.7470   33.0630   46.7820 C   0  0  0  0  0  0  0  0  0  0  0  0
   46.0140   31.5880   46.3800 C   0  0  0  0  0  0  0  0  0  0  0  0
   47.0300   32.4480   47.1090 C   0  0  0  0  0  0  0  0  0  0  0  0
   48.1589   36.0045   42.5885 H   0  0  0  0  0  0  0  0  0  0  0  0
   49.0154   34.4185   42.5663 H   0  0  0  0  0  0  0  0  0  0  0  0
   48.4370   36.2539   40.3667 H   0  0  0  0  0  0  0  0  0  0  0  0
   49.5250   34.8453   40.4038 H   0  0  0  0  0  0  0  0  0  0  0  0
   46.6245   34.2107   40.3393 H   0  0  0  0  0  0  0  0  0  0  0  0
   48.9213   35.5185   37.3643 H   0  0  0  0  0  0  0  0  0  0  0  0
   48.8103   33.5251   35.5260 H   0  0  0  0  0  0  0  0  0  0  0  0
   47.6284   31.5235   36.6321 H   0  0  0  0  0  0  0  0  0  0  0  0
   43.8090   36.6303   44.7469 H   0  0  0  0  0  0  0  0  0  0  0  0
   45.1147   36.3568   42.6474 H   0  0  0  0  0  0  0  0  0  0  0  0
   45.0378   33.6354   47.3979 H   0  0  0  0  0  0  0  0  0  0  0  0
   45.5019   30.7655   46.9008 H   0  0  0  0  0  0  0  0  0  0  0  0
   45.9896   30.9989   45.4513 H   0  0  0  0  0  0  0  0  0  0  0  0
   47.9385   32.7770   46.5833 H   0  0  0  0  0  0  0  0  0  0  0  0
   47.6000   32.3267   48.0419 H   0  0  0  0  0  0  0  0  0  0  0  0
  1  9  1  0
  2  1  1  0
  3  2  1  0
  4  3  1  0
  5  4  1  0
  6  7  1  0
  6  5  2  0
  7  8  1  0
  8  4  2  0
  9 12  1  0
 10 15  2  0
 11 10  1  0
 12 11  2  0
 12 13  1  0
 13 14  2  0
 14 15  1  0
 14 16  1  0
 16 18  1  0
 17 16  1  0
 17 18  1  0
  1 19  1  0
  1 20  1  0
  2 21  1  0
  2 22  1  0
  3 23  1  0
  5 24  1  0
  6 25  1  0
  7 26  1  0
 10 27  1  0
 11 28  1  0
 16 29  1  0
 17 30  1  0
 17 31  1  0
 18 32  1  0
 18 33  1  0
M  ISO  8  19   8  20   8  21   8  22   8  24  14  25  14  26   9  27  14
M  ISO  6  28  14  29  13  30  13  31  13  32  13  33  13
M  END
>  <minimizedAffinity>  (1) 
-4.98108482

>  <minimizedRMSD>  (1) 
0.415302664

$$$$
