
     RDKit          3D

 27 28  0  0  0  0  0  0  0  0999 V2000
   48.1080   35.1570   41.9850 C   0  0  0  0  0  0  0  0  0  0  0  0
   48.5310   35.1640   40.5390 C   0  0  0  0  0  0  0  0  0  0  0  0
   47.5650   34.4120   39.8140 N   0  0  0  0  0  0  0  0  0  0  0  0
   47.9110   33.9630   38.5080 C   0  0  0  0  0  0  0  0  0  0  0  0
   48.5200   34.4790   37.3950 C   0  0  0  0  0  0  0  0  0  0  0  0
   48.4760   33.4250   36.4610 C   0  0  0  0  0  0  0  0  0  0  0  0
   47.8760   32.3690   37.0150 N   0  0  0  0  0  0  0  0  0  0  0  0
   47.5290   32.6810   38.2570 N   0  0  0  0  0  0  0  0  0  0  0  0
   46.8030   34.6100   42.1070 O   0  0  0  0  0  0  0  0  0  0  0  0
   44.5280   36.1180   44.6390 C   0  0  0  0  0  0  0  0  0  0  0  0
   45.2400   35.9770   43.4490 C   0  0  0  0  0  0  0  0  0  0  0  0
   46.0500   34.8590   43.2420 C   0  0  0  0  0  0  0  0  0  0  0  0
   46.0860   33.9440   44.2640 N   0  0  0  0  0  0  0  0  0  0  0  0
   45.3920   34.1000   45.3970 C   0  0  0  0  0  0  0  0  0  0  0  0
   44.6130   35.1930   45.5770 N   0  0  0  0  0  0  0  0  0  0  0  0
   45.4270   33.1770   46.4310 O   0  0  0  0  0  0  0  0  0  0  0  0
   48.1084   36.1876   42.3696 H   0  0  0  0  0  0  0  0  0  0  0  0
   48.8127   34.5422   42.5642 H   0  0  0  0  0  0  0  0  0  0  0  0
   48.5654   36.1966   40.1615 H   0  0  0  0  0  0  0  0  0  0  0  0
   49.5334   34.7261   40.4235 H   0  0  0  0  0  0  0  0  0  0  0  0
   46.6434   34.1989   40.2216 H   0  0  0  0  0  0  0  0  0  0  0  0
   48.9454   35.4845   37.2611 H   0  0  0  0  0  0  0  0  0  0  0  0
   48.8736   33.4659   35.4362 H   0  0  0  0  0  0  0  0  0  0  0  0
   47.7100   31.4626   36.5547 H   0  0  0  0  0  0  0  0  0  0  0  0
   43.8935   37.0026   44.7969 H   0  0  0  0  0  0  0  0  0  0  0  0
   45.1633   36.7497   42.6699 H   0  0  0  0  0  0  0  0  0  0  0  0
   44.8968   33.3334   47.2523 H   0  0  0  0  0  0  0  0  0  0  0  0
  1  9  1  0
  2  1  1  0
  3  2  1  0
  4  3  1  0
  5  4  1  0
  6  7  1  0
  6  5  2  0
  7  8  1  0
  8  4  2  0
  9 12  1  0
 10 15  2  0
 11 10  1  0
 12 11  2  0
 12 13  1  0
 13 14  2  0
 14 15  1  0
 14 16  1  0
  1 17  1  0
  1 18  1  0
  2 19  1  0
  2 20  1  0
  3 21  1  0
  5 22  1  0
  6 23  1  0
  7 24  1  0
 10 25  1  0
 11 26  1  0
 16 27  1  0
M  ISO  8  17   8  18   8  19   8  20   8  22  14  23  14  24   9  25  14
M  ISO  2  26  14  27   3
M  END
>  <minimizedAffinity>  (1) 
-4.76145601

>  <minimizedRMSD>  (1) 
0.203513354

$$$$
