
     RDKit          3D

 27 28  0  0  0  0  0  0  0  0999 V2000
   48.0640   35.2470   41.9370 C   0  0  0  0  0  0  0  0  0  0  0  0
   48.5640   35.0990   40.5230 C   0  0  0  0  0  0  0  0  0  0  0  0
   47.5610   34.4150   39.7870 N   0  0  0  0  0  0  0  0  0  0  0  0
   47.8780   33.9690   38.4770 C   0  0  0  0  0  0  0  0  0  0  0  0
   48.5320   34.4440   37.3690 C   0  0  0  0  0  0  0  0  0  0  0  0
   48.3870   33.4100   36.4300 C   0  0  0  0  0  0  0  0  0  0  0  0
   47.6950   32.4010   36.9590 N   0  0  0  0  0  0  0  0  0  0  0  0
   47.3830   32.7330   38.2020 N   0  0  0  0  0  0  0  0  0  0  0  0
   46.6850   34.9320   42.0040 O   0  0  0  0  0  0  0  0  0  0  0  0
   44.4410   35.9700   44.7710 C   0  0  0  0  0  0  0  0  0  0  0  0
   45.0570   36.0060   43.5260 C   0  0  0  0  0  0  0  0  0  0  0  0
   45.9940   35.0260   43.1960 C   0  0  0  0  0  0  0  0  0  0  0  0
   46.2350   34.0780   44.1600 N   0  0  0  0  0  0  0  0  0  0  0  0
   45.6320   34.0620   45.3510 C   0  0  0  0  0  0  0  0  0  0  0  0
   44.7270   35.0240   45.6490 N   0  0  0  0  0  0  0  0  0  0  0  0
   46.0830   32.7460   46.4690 S   0  0  0  0  0  0  0  0  0  0  0  0
   48.2162   36.2845   42.2694 H   0  0  0  0  0  0  0  0  0  0  0  0
   48.6214   34.5580   42.5886 H   0  0  0  0  0  0  0  0  0  0  0  0
   48.7434   36.0906   40.0820 H   0  0  0  0  0  0  0  0  0  0  0  0
   49.5105   34.5389   40.5025 H   0  0  0  0  0  0  0  0  0  0  0  0
   46.6291   34.2470   40.1922 H   0  0  0  0  0  0  0  0  0  0  0  0
   49.0482   35.4074   37.2451 H   0  0  0  0  0  0  0  0  0  0  0  0
   48.7869   33.4298   35.4055 H   0  0  0  0  0  0  0  0  0  0  0  0
   47.4473   31.5205   36.4854 H   0  0  0  0  0  0  0  0  0  0  0  0
   43.7022   36.7425   45.0307 H   0  0  0  0  0  0  0  0  0  0  0  0
   44.8082   36.8002   42.8067 H   0  0  0  0  0  0  0  0  0  0  0  0
   45.9361   33.1747   47.7619 H   0  0  0  0  0  0  0  0  0  0  0  0
  1  9  1  0
  2  1  1  0
  3  2  1  0
  4  3  1  0
  5  4  1  0
  6  7  1  0
  6  5  2  0
  7  8  1  0
  8  4  2  0
  9 12  1  0
 10 15  2  0
 11 10  1  0
 12 11  2  0
 12 13  1  0
 13 14  2  0
 14 15  1  0
 14 16  1  0
  1 17  1  0
  1 18  1  0
  2 19  1  0
  2 20  1  0
  3 21  1  0
  5 22  1  0
  6 23  1  0
  7 24  1  0
 10 25  1  0
 11 26  1  0
 16 27  1  0
M  ISO  8  17   8  18   8  19   8  20   8  22  14  23  14  24   9  25  14
M  ISO  2  26  14  27  11
M  END
>  <minimizedAffinity>  (1) 
-4.71071959

>  <minimizedRMSD>  (1) 
0.0384491123

$$$$
