
     RDKit          3D

 41 43  0  0  1  0  0  0  0  0999 V2000
   44.5500   35.4130   45.3410 C   0  0  0  0  0  0  0  0  0  0  0  0
   44.9510   35.3290   44.0130 C   0  0  0  0  0  0  0  0  0  0  0  0
   45.8200   34.3180   43.6170 C   0  0  0  0  0  0  0  0  0  0  0  0
   46.2140   33.4660   44.6070 N   0  0  0  0  0  0  0  0  0  0  0  0
   45.8250   33.5490   45.8830 C   0  0  0  0  0  0  0  0  0  0  0  0
   44.9840   34.5400   46.2370 N   0  0  0  0  0  0  0  0  0  0  0  0
   46.2720   32.6320   46.8660 N   0  0  0  0  0  0  0  0  0  0  0  0
   47.3960   31.7730   46.6560 C   0  0  0  0  0  0  0  0  0  0  0  0
   46.9890   30.3860   47.0910 C   0  0  0  0  0  0  0  0  0  0  0  0
   46.6350   30.3340   48.4240 O   0  0  0  0  0  0  0  0  0  0  0  0
   46.4500   31.5710   49.0050 C   0  0  0  0  0  0  0  0  0  0  0  0
   45.6130   32.5090   48.1450 C   0  0  2  0  0  0  0  0  0  0  0  0
   44.2440   32.0700   48.0530 N   0  0  0  0  0  0  0  0  0  0  0  0
   46.3200   34.0860   42.3470 O   0  0  0  0  0  0  0  0  0  0  0  0
   47.7150   34.1100   42.0920 C   0  0  0  0  0  0  0  0  0  0  0  0
   48.0060   34.7660   40.7820 C   0  0  0  0  0  0  0  0  0  0  0  0
   47.1420   34.2050   39.8150 N   0  0  0  0  0  0  0  0  0  0  0  0
   47.6530   33.8240   38.5350 C   0  0  0  0  0  0  0  0  0  0  0  0
   48.4090   34.4720   37.5810 C   0  0  0  0  0  0  0  0  0  0  0  0
   48.5350   33.5200   36.5640 C   0  0  0  0  0  0  0  0  0  0  0  0
   47.8870   32.3990   36.9240 N   0  0  0  0  0  0  0  0  0  0  0  0
   47.3490   32.5780   38.1200 N   0  0  0  0  0  0  0  0  0  0  0  0
   43.8637   36.2145   45.6516 H   0  0  0  0  0  0  0  0  0  0  0  0
   44.5824   36.0595   43.2778 H   0  0  0  0  0  0  0  0  0  0  0  0
   47.6719   31.7677   45.5912 H   0  0  0  0  0  0  0  0  0  0  0  0
   48.2657   32.1221   47.2320 H   0  0  0  0  0  0  0  0  0  0  0  0
   46.1296   30.0639   46.4847 H   0  0  0  0  0  0  0  0  0  0  0  0
   47.8549   29.7228   46.9484 H   0  0  0  0  0  0  0  0  0  0  0  0
   45.9421   31.4330   49.9709 H   0  0  0  0  0  0  0  0  0  0  0  0
   47.4418   32.0308   49.1269 H   0  0  0  0  0  0  0  0  0  0  0  0
   45.5467   33.5062   48.6045 H   0  0  0  0  0  0  0  0  0  0  0  0
   43.8587   31.9464   49.0002 H   0  0  0  0  0  0  0  0  0  0  0  0
   43.6905   32.7757   47.5465 H   0  0  0  0  0  0  0  0  0  0  0  0
   48.2183   34.6692   42.8945 H   0  0  0  0  0  0  0  0  0  0  0  0
   48.0836   33.0742   42.0560 H   0  0  0  0  0  0  0  0  0  0  0  0
   47.8287   35.8489   40.8585 H   0  0  0  0  0  0  0  0  0  0  0  0
   49.0563   34.6051   40.4974 H   0  0  0  0  0  0  0  0  0  0  0  0
   46.1442   34.0705   40.0321 H   0  0  0  0  0  0  0  0  0  0  0  0
   48.8158   35.4935   37.6123 H   0  0  0  0  0  0  0  0  0  0  0  0
   49.0786   33.6658   35.6189 H   0  0  0  0  0  0  0  0  0  0  0  0
   47.8199   31.5395   36.3603 H   0  0  0  0  0  0  0  0  0  0  0  0
  1  6  2  0
  2  1  1  0
  3  2  2  0
  3  4  1  0
  4  5  2  0
  5  6  1  0
  5  7  1  0
  7 12  1  0
  8  7  1  0
  8  9  1  0
  9 10  1  0
 10 11  1  0
 12 11  1  0
 13 12  1  0
 14  3  1  0
 15 14  1  0
 16 15  1  0
 17 16  1  0
 18 17  1  0
 19 18  1  0
 20 21  1  0
 20 19  2  0
 21 22  1  0
 22 18  2  0
  1 23  1  0
  2 24  1  0
  8 25  1  0
  8 26  1  0
  9 27  1  0
  9 28  1  0
 11 29  1  0
 11 30  1  0
 12 31  1  1
 13 32  1  0
 13 33  1  0
 15 34  1  0
 15 35  1  0
 16 36  1  0
 16 37  1  0
 17 38  1  0
 19 39  1  0
 20 40  1  0
 21 41  1  0
M  ISO  8  23  14  24  14  25  13  26  13  27  13  28  13  29  13  30  13
M  ISO  8  31  13  32   5  33   5  34   8  35   8  36   8  37   8  39  14
M  ISO  2  40  14  41   9
M  END
>  <minimizedAffinity>  (1) 
-5.84733725

>  <minimizedRMSD>  (1) 
0.612158239

$$$$
