
     RDKit          3D

 42 44  0  0  1  0  0  0  0  0999 V2000
   44.6670   35.3430   45.2110 C   0  0  0  0  0  0  0  0  0  0  0  0
   45.1660   35.6780   43.9530 C   0  0  0  0  0  0  0  0  0  0  0  0
   46.0940   34.8390   43.3340 C   0  0  0  0  0  0  0  0  0  0  0  0
   46.4460   33.7210   44.0370 N   0  0  0  0  0  0  0  0  0  0  0  0
   45.9490   33.4200   45.2490 C   0  0  0  0  0  0  0  0  0  0  0  0
   45.0640   34.2340   45.8250 N   0  0  0  0  0  0  0  0  0  0  0  0
   46.3610   32.2360   45.9270 N   0  0  0  0  0  0  0  0  0  0  0  0
   47.5410   31.5090   45.5630 C   0  0  0  0  0  0  0  0  0  0  0  0
   47.1590   30.0500   45.5050 C   0  0  0  0  0  0  0  0  0  0  0  0
   46.6900   29.5710   46.7130 O   0  0  0  0  0  0  0  0  0  0  0  0
   46.4220   30.5600   47.6300 C   0  0  0  0  0  0  0  0  0  0  0  0
   45.6080   31.6980   47.0210 C   0  0  1  0  0  0  0  0  0  0  0  0
   45.1870   32.6730   48.0570 C   0  0  0  0  0  0  0  0  0  0  0  0
   46.6840   35.0260   42.0950 O   0  0  0  0  0  0  0  0  0  0  0  0
   48.0780   35.2690   41.9860 C   0  0  0  0  0  0  0  0  0  0  0  0
   48.5210   35.1890   40.5610 C   0  0  0  0  0  0  0  0  0  0  0  0
   47.5550   34.4360   39.8500 N   0  0  0  0  0  0  0  0  0  0  0  0
   47.8630   33.9270   38.5490 C   0  0  0  0  0  0  0  0  0  0  0  0
   48.3940   34.4740   37.4130 C   0  0  0  0  0  0  0  0  0  0  0  0
   48.4100   33.4200   36.5000 C   0  0  0  0  0  0  0  0  0  0  0  0
   47.9110   32.3260   37.0920 N   0  0  0  0  0  0  0  0  0  0  0  0
   47.5730   32.6170   38.3430 N   0  0  0  0  0  0  0  0  0  0  0  0
   43.9367   36.0042   45.7004 H   0  0  0  0  0  0  0  0  0  0  0  0
   44.8305   36.5977   43.4514 H   0  0  0  0  0  0  0  0  0  0  0  0
   47.9032   31.8442   44.5799 H   0  0  0  0  0  0  0  0  0  0  0  0
   48.3462   31.6756   46.2937 H   0  0  0  0  0  0  0  0  0  0  0  0
   46.3721   29.9226   44.7470 H   0  0  0  0  0  0  0  0  0  0  0  0
   48.0653   29.4801   45.2521 H   0  0  0  0  0  0  0  0  0  0  0  0
   45.8545   30.1251   48.4659 H   0  0  0  0  0  0  0  0  0  0  0  0
   47.3814   30.9742   47.9736 H   0  0  0  0  0  0  0  0  0  0  0  0
   44.6515   31.3440   46.6090 H   0  0  0  0  0  0  0  0  0  0  0  0
   45.3700   32.2491   49.0554 H   0  0  0  0  0  0  0  0  0  0  0  0
   45.7640   33.6024   47.9419 H   0  0  0  0  0  0  0  0  0  0  0  0
   44.1149   32.8904   47.9419 H   0  0  0  0  0  0  0  0  0  0  0  0
   48.3007   36.2727   42.3770 H   0  0  0  0  0  0  0  0  0  0  0  0
   48.6155   34.5041   42.5657 H   0  0  0  0  0  0  0  0  0  0  0  0
   48.5953   36.2003   40.1347 H   0  0  0  0  0  0  0  0  0  0  0  0
   49.5090   34.7105   40.4916 H   0  0  0  0  0  0  0  0  0  0  0  0
   46.6317   34.2550   40.2691 H   0  0  0  0  0  0  0  0  0  0  0  0
   48.7314   35.5091   37.2557 H   0  0  0  0  0  0  0  0  0  0  0  0
   48.7729   33.4772   35.4632 H   0  0  0  0  0  0  0  0  0  0  0  0
   47.8060   31.4034   36.6463 H   0  0  0  0  0  0  0  0  0  0  0  0
  1  6  2  0
  2  1  1  0
  3  2  2  0
  3  4  1  0
  4  5  2  0
  5  6  1  0
  5  7  1  0
  7 12  1  0
  8  7  1  0
  9  8  1  0
  9 10  1  0
 10 11  1  0
 12 11  1  0
 12 13  1  0
 14  3  1  0
 15 14  1  0
 16 15  1  0
 17 16  1  0
 18 17  1  0
 19 18  1  0
 20 21  1  0
 20 19  2  0
 21 22  1  0
 22 18  2  0
  1 23  1  0
  2 24  1  0
  8 25  1  0
  8 26  1  0
  9 27  1  0
  9 28  1  0
 11 29  1  0
 11 30  1  0
 12 31  1  6
 13 32  1  0
 13 33  1  0
 13 34  1  0
 15 35  1  0
 15 36  1  0
 16 37  1  0
 16 38  1  0
 17 39  1  0
 19 40  1  0
 20 41  1  0
 21 42  1  0
M  ISO  8  23  14  24  14  25  13  26  13  27  13  28  13  29  13  30  13
M  ISO  8  31  13  32   8  33   8  34   8  35   8  36   8  37   8  38   8
M  ISO  3  40  14  41  14  42   9
M  END
>  <minimizedAffinity>  (1) 
-5.35840368

>  <minimizedRMSD>  (1) 
0.970703602

$$$$
