
     RDKit          3D

 50 54  0  0  1  0  0  0  0  0999 V2000
   44.7070   33.4720   42.8020 C   0  0  0  0  0  0  0  0  0  0  0  0
   44.5870   32.1030   42.8820 C   0  0  0  0  0  0  0  0  0  0  0  0
   43.5530   31.4570   42.2630 C   0  0  0  0  0  0  0  0  0  0  0  0
   42.6230   32.1120   41.5620 N   0  0  0  0  0  0  0  0  0  0  0  0
   42.7440   33.4310   41.4890 C   0  0  0  0  0  0  0  0  0  0  0  0
   43.7410   34.0860   42.0800 N   0  0  0  0  0  0  0  0  0  0  0  0
   47.1660   34.3750   42.9220 C   0  0  1  0  0  0  0  0  0  0  0  0
   46.2470   35.5480   42.8930 C   0  0  0  0  0  0  0  0  0  0  0  0
   45.7500   34.3180   43.4450 C   0  0  1  0  0  0  0  0  0  0  0  0
   47.8980   33.8860   39.3120 C   0  0  0  0  0  0  0  0  0  0  0  0
   47.5190   34.5180   40.5410 C   0  0  0  0  0  0  0  0  0  0  0  0
   47.5620   33.7180   41.6840 C   0  0  0  0  0  0  0  0  0  0  0  0
   47.9440   32.4230   41.6010 N   0  0  0  0  0  0  0  0  0  0  0  0
   48.2960   31.8550   40.4400 C   0  0  0  0  0  0  0  0  0  0  0  0
   48.2770   32.5750   39.2840 N   0  0  0  0  0  0  0  0  0  0  0  0
   41.7080   34.1950   40.7290 C   0  0  1  0  0  0  0  0  0  0  0  0
   41.8620   35.6420   41.0470 C   0  0  0  0  0  0  0  0  0  0  0  0
   41.7990   33.9490   39.2510 C   0  0  0  0  0  0  0  0  0  0  0  0
   40.5700   33.5140   38.6000 C   0  0  0  0  0  0  0  0  0  0  0  0
   39.5960   34.4770   38.4220 C   0  0  0  0  0  0  0  0  0  0  0  0
   38.3950   34.2020   37.8040 C   0  0  0  0  0  0  0  0  0  0  0  0
   38.1560   32.9170   37.3440 C   0  0  0  0  0  0  0  0  0  0  0  0
   39.0990   31.9440   37.5060 C   0  0  0  0  0  0  0  0  0  0  0  0
   38.8160   30.6730   37.0390 C   0  0  0  0  0  0  0  0  0  0  0  0
   39.7620   29.6670   37.2010 C   0  0  0  0  0  0  0  0  0  0  0  0
   40.9570   30.0120   37.8360 C   0  0  0  0  0  0  0  0  0  0  0  0
   41.2220   31.2840   38.2970 C   0  0  0  0  0  0  0  0  0  0  0  0
   40.2880   32.2520   38.1290 C   0  0  0  0  0  0  0  0  0  0  0  0
   45.3300   31.5232   43.4493 H   0  0  0  0  0  0  0  0  0  0  0  0
   43.4846   30.3622   42.3448 H   0  0  0  0  0  0  0  0  0  0  0  0
   48.1616   34.1434   43.3283 H   0  0  0  0  0  0  0  0  0  0  0  0
   46.4370   36.4046   43.5565 H   0  0  0  0  0  0  0  0  0  0  0  0
   45.8983   36.2276   42.1014 H   0  0  0  0  0  0  0  0  0  0  0  0
   45.2717   34.0508   44.3989 H   0  0  0  0  0  0  0  0  0  0  0  0
   47.8833   34.4659   38.3774 H   0  0  0  0  0  0  0  0  0  0  0  0
   47.2117   35.5734   40.5813 H   0  0  0  0  0  0  0  0  0  0  0  0
   48.6028   30.7988   40.4201 H   0  0  0  0  0  0  0  0  0  0  0  0
   40.7095   33.8496   41.0351 H   0  0  0  0  0  0  0  0  0  0  0  0
   41.8765   35.7780   42.1385 H   0  0  0  0  0  0  0  0  0  0  0  0
   42.8047   36.0132   40.6187 H   0  0  0  0  0  0  0  0  0  0  0  0
   41.0185   36.2033   40.6187 H   0  0  0  0  0  0  0  0  0  0  0  0
   42.1199   34.8862   38.7728 H   0  0  0  0  0  0  0  0  0  0  0  0
   42.5089   33.1173   39.1315 H   0  0  0  0  0  0  0  0  0  0  0  0
   39.7851   35.4978   38.7857 H   0  0  0  0  0  0  0  0  0  0  0  0
   37.6382   34.9903   37.6780 H   0  0  0  0  0  0  0  0  0  0  0  0
   37.2036   32.6806   36.8469 H   0  0  0  0  0  0  0  0  0  0  0  0
   37.8557   30.4611   36.5462 H   0  0  0  0  0  0  0  0  0  0  0  0
   39.5770   28.6430   36.8442 H   0  0  0  0  0  0  0  0  0  0  0  0
   41.7216   29.2334   37.9747 H   0  0  0  0  0  0  0  0  0  0  0  0
   42.1771   31.5100   38.7937 H   0  0  0  0  0  0  0  0  0  0  0  0
  1  2  2  0
  1  9  1  0
  3  2  1  0
  4  3  2  0
  5  4  1  0
  5  6  2  0
  6  1  1  0
  7  9  1  0
  8  7  1  0
  8  9  1  0
 10 11  2  0
 11 12  1  0
 12  7  1  0
 13 12  2  0
 14 13  1  0
 15 10  1  0
 15 14  2  0
 16 17  1  0
 16  5  1  0
 18 16  1  0
 19 18  1  0
 20 19  2  0
 21 20  1  0
 22 23  1  0
 22 21  2  0
 23 28  2  0
 24 25  2  0
 24 23  1  0
 25 26  1  0
 26 27  2  0
 28 27  1  0
 28 19  1  0
  2 29  1  0
  3 30  1  0
  7 31  1  1
  8 32  1  0
  8 33  1  0
  9 34  1  1
 10 35  1  0
 11 36  1  0
 14 37  1  0
 16 38  1  1
 17 39  1  0
 17 40  1  0
 17 41  1  0
 18 42  1  0
 18 43  1  0
 20 44  1  0
 21 45  1  0
 22 46  1  0
 24 47  1  0
 25 48  1  0
 26 49  1  0
 27 50  1  0
M  ISO  8  29  14  30  14  31  13  32  13  33  13  34  13  35  14  36  14
M  ISO  8  37  14  38   8  39   8  40   8  41   8  42   8  43   8  44  14
M  ISO  6  45  14  46  14  47  14  48  14  49  14  50  14
M  END
>  <minimizedAffinity>  (1) 
-5.97892475

>  <minimizedRMSD>  (1) 
3.17138505

$$$$
