
     RDKit          3D

 55 58  0  0  1  0  0  0  0  0999 V2000
   46.2160   34.9320   41.8660 O   0  0  0  0  0  0  0  0  0  0  0  0
   44.6750   35.4160   45.2260 C   0  0  0  0  0  0  0  0  0  0  0  0
   45.0160   35.6950   43.9050 C   0  0  0  0  0  0  0  0  0  0  0  0
   45.7960   34.7970   43.1820 C   0  0  0  0  0  0  0  0  0  0  0  0
   46.1780   33.6720   43.8550 N   0  0  0  0  0  0  0  0  0  0  0  0
   45.8420   33.4170   45.1280 C   0  0  0  0  0  0  0  0  0  0  0  0
   45.0910   34.2970   45.8020 N   0  0  0  0  0  0  0  0  0  0  0  0
   46.2800   32.2200   45.7620 N   0  0  0  0  0  0  0  0  0  0  0  0
   47.3350   31.4140   45.2470 C   0  0  0  0  0  0  0  0  0  0  0  0
   46.8530   29.9850   45.2780 C   0  0  0  0  0  0  0  0  0  0  0  0
   46.5540   29.5570   46.5580 O   0  0  0  0  0  0  0  0  0  0  0  0
   46.4810   30.5710   47.4780 C   0  0  0  0  0  0  0  0  0  0  0  0
   45.6700   31.7570   46.9740 C   0  0  1  0  0  0  0  0  0  0  0  0
   45.4520   32.7640   48.0330 C   0  0  0  0  0  0  0  0  0  0  0  0
   45.5800   34.1870   40.8250 C   0  0  0  0  0  0  0  0  0  0  0  0
   46.6100   33.6100   39.9150 C   0  0  0  0  0  0  0  0  0  0  0  0
   46.1540   33.7290   38.5900 N   0  0  0  0  0  0  0  0  0  0  0  0
   47.0110   33.4190   37.4800 C   0  0  0  0  0  0  0  0  0  0  0  0
   48.2760   33.8600   37.1510 C   0  0  0  0  0  0  0  0  0  0  0  0
   48.5590   33.2010   35.9630 C   0  0  0  0  0  0  0  0  0  0  0  0
   47.5040   32.4240   35.6340 N   0  0  0  0  0  0  0  0  0  0  0  0
   46.5610   32.5490   36.5480 N   0  0  0  0  0  0  0  0  0  0  0  0
   47.4230   30.1280   32.1580 C   0  0  0  0  0  0  0  0  0  0  0  0
   46.4610   29.8710   33.1110 C   0  0  0  0  0  0  0  0  0  0  0  0
   46.4320   30.5980   34.2880 C   0  0  0  0  0  0  0  0  0  0  0  0
   47.3790   31.5810   34.4920 C   0  0  0  0  0  0  0  0  0  0  0  0
   48.3450   31.8370   33.5320 C   0  0  0  0  0  0  0  0  0  0  0  0
   48.3810   31.1180   32.3560 C   0  0  0  0  0  0  0  0  0  0  0  0
   47.4120   29.1810   30.6910 S   0  0  0  0  0  0  0  0  0  0  0  0
   47.7600   30.0720   29.5190 O   0  0  0  0  0  0  0  0  0  0  0  0
   46.0930   28.5590   30.4010 O   0  0  0  0  0  0  0  0  0  0  0  0
   44.0576   36.1274   45.7941 H   0  0  0  0  0  0  0  0  0  0  0  0
   44.6687   36.6257   43.4325 H   0  0  0  0  0  0  0  0  0  0  0  0
   48.2336   31.5233   45.8719 H   0  0  0  0  0  0  0  0  0  0  0  0
   47.5974   31.7179   44.2229 H   0  0  0  0  0  0  0  0  0  0  0  0
   45.9479   29.9040   44.6581 H   0  0  0  0  0  0  0  0  0  0  0  0
   47.6639   29.3493   44.8928 H   0  0  0  0  0  0  0  0  0  0  0  0
   46.0090   30.1840   48.3931 H   0  0  0  0  0  0  0  0  0  0  0  0
   47.5053   30.9233   47.6698 H   0  0  0  0  0  0  0  0  0  0  0  0
   44.6397   31.4703   46.7168 H   0  0  0  0  0  0  0  0  0  0  0  0
   45.5552   32.2874   49.0190 H   0  0  0  0  0  0  0  0  0  0  0  0
   46.1971   33.5672   47.9342 H   0  0  0  0  0  0  0  0  0  0  0  0
   44.4415   33.1871   47.9342 H   0  0  0  0  0  0  0  0  0  0  0  0
   44.9872   33.3732   41.2682 H   0  0  0  0  0  0  0  0  0  0  0  0
   44.9214   34.8551   40.2507 H   0  0  0  0  0  0  0  0  0  0  0  0
   47.5567   34.1578   40.0319 H   0  0  0  0  0  0  0  0  0  0  0  0
   46.7788   32.5513   40.1611 H   0  0  0  0  0  0  0  0  0  0  0  0
   45.1894   34.0437   38.4127 H   0  0  0  0  0  0  0  0  0  0  0  0
   48.9120   34.5686   37.7018 H   0  0  0  0  0  0  0  0  0  0  0  0
   49.4896   33.2957   35.3842 H   0  0  0  0  0  0  0  0  0  0  0  0
   45.7127   29.0842   32.9351 H   0  0  0  0  0  0  0  0  0  0  0  0
   45.6651   30.3954   35.0501 H   0  0  0  0  0  0  0  0  0  0  0  0
   49.0927   32.6239   33.7104 H   0  0  0  0  0  0  0  0  0  0  0  0
   49.1474   31.3217   31.5937 H   0  0  0  0  0  0  0  0  0  0  0  0
   48.3274   28.1781   30.8733 H   0  0  0  0  0  0  0  0  0  0  0  0
  1  4  1  0
  2  7  2  0
  3  2  1  0
  4  5  1  0
  4  3  2  0
  5  6  2  0
  6  8  1  0
  6  7  1  0
  8 13  1  0
  9 10  1  0
  9  8  1  0
 10 11  1  0
 11 12  1  0
 13 12  1  0
 13 14  1  0
 15  1  1  0
 16 15  1  0
 17 16  1  0
 18 17  1  0
 19 18  1  0
 20 19  2  0
 21 20  1  0
 21 22  1  0
 22 18  2  0
 23 28  2  0
 23 24  1  0
 24 25  2  0
 25 26  1  0
 26 21  1  0
 27 26  2  0
 28 27  1  0
 29 23  1  0
 30 29  2  0
 31 29  2  0
  2 32  1  0
  3 33  1  0
  9 34  1  0
  9 35  1  0
 10 36  1  0
 10 37  1  0
 12 38  1  0
 12 39  1  0
 13 40  1  6
 14 41  1  0
 14 42  1  0
 14 43  1  0
 15 44  1  0
 15 45  1  0
 16 46  1  0
 16 47  1  0
 17 48  1  0
 19 49  1  0
 20 50  1  0
 24 51  1  0
 25 52  1  0
 27 53  1  0
 28 54  1  0
 29 55  1  0
M  ISO  8  32  14  33  14  34  13  35  13  36  13  37  13  38  13  39  13
M  ISO  8  40  13  41   8  42   8  43   8  44   8  45   8  46   8  47   8
M  ISO  7  49  14  50  14  51  14  52  14  53  14  54  14  55  11
M  END
>  <minimizedAffinity>  (1) 
-6.44661283

>  <minimizedRMSD>  (1) 
2.43480253

$$$$
