
     RDKit          3D

 47 50  0  0  1  0  0  0  0  0999 V2000
   44.6550   35.3020   45.3090 C   0  0  0  0  0  0  0  0  0  0  0  0
   45.1670   35.6330   44.0590 C   0  0  0  0  0  0  0  0  0  0  0  0
   46.1010   34.7960   43.4490 C   0  0  0  0  0  0  0  0  0  0  0  0
   46.4540   33.6750   44.1500 N   0  0  0  0  0  0  0  0  0  0  0  0
   45.9450   33.3790   45.3550 C   0  0  0  0  0  0  0  0  0  0  0  0
   45.0530   34.1900   45.9250 N   0  0  0  0  0  0  0  0  0  0  0  0
   46.3510   32.1980   46.0350 N   0  0  0  0  0  0  0  0  0  0  0  0
   47.5360   31.4730   45.6750 C   0  0  0  0  0  0  0  0  0  0  0  0
   47.1480   30.0120   45.6110 C   0  0  0  0  0  0  0  0  0  0  0  0
   46.6900   29.5320   46.8220 O   0  0  0  0  0  0  0  0  0  0  0  0
   46.3990   30.5130   47.7320 C   0  0  0  0  0  0  0  0  0  0  0  0
   45.5960   31.6600   47.1260 C   0  0  1  0  0  0  0  0  0  0  0  0
   45.1990   32.6440   48.1730 C   0  0  0  0  0  0  0  0  0  0  0  0
   46.6960   34.9910   42.2140 O   0  0  0  0  0  0  0  0  0  0  0  0
   48.1160   34.9200   42.0720 C   0  0  0  0  0  0  0  0  0  0  0  0
   48.5080   35.0870   40.6390 C   0  0  0  0  0  0  0  0  0  0  0  0
   47.5130   34.4590   39.8370 N   0  0  0  0  0  0  0  0  0  0  0  0
   47.8560   33.9630   38.5410 C   0  0  0  0  0  0  0  0  0  0  0  0
   48.4490   34.5530   37.4460 C   0  0  0  0  0  0  0  0  0  0  0  0
   48.5030   33.5330   36.5010 C   0  0  0  0  0  0  0  0  0  0  0  0
   47.9690   32.4250   37.0290 N   0  0  0  0  0  0  0  0  0  0  0  0
   47.5720   32.6690   38.2680 N   0  0  0  0  0  0  0  0  0  0  0  0
   47.8650   31.1890   36.3280 C   0  0  0  0  0  0  0  0  0  0  0  0
   47.6570   29.9190   36.7260 N   0  0  0  0  0  0  0  0  0  0  0  0
   47.6430   29.1250   35.6920 O   0  0  0  0  0  0  0  0  0  0  0  0
   47.8410   29.8370   34.5850 C   0  0  0  0  0  0  0  0  0  0  0  0
   47.9770   31.1120   34.9890 N   0  0  0  0  0  0  0  0  0  0  0  0
   43.9182   35.9613   45.7911 H   0  0  0  0  0  0  0  0  0  0  0  0
   44.8363   36.5521   43.5531 H   0  0  0  0  0  0  0  0  0  0  0  0
   47.9044   31.8109   44.6951 H   0  0  0  0  0  0  0  0  0  0  0  0
   48.3392   31.6377   46.4083 H   0  0  0  0  0  0  0  0  0  0  0  0
   46.3531   29.8909   44.8604 H   0  0  0  0  0  0  0  0  0  0  0  0
   48.0481   29.4390   45.3437 H   0  0  0  0  0  0  0  0  0  0  0  0
   45.8153   30.0699   48.5523 H   0  0  0  0  0  0  0  0  0  0  0  0
   47.3531   30.9281   48.0890 H   0  0  0  0  0  0  0  0  0  0  0  0
   44.6364   31.3138   46.7146 H   0  0  0  0  0  0  0  0  0  0  0  0
   45.3739   32.2105   49.1687 H   0  0  0  0  0  0  0  0  0  0  0  0
   45.7980   33.5598   48.0614 H   0  0  0  0  0  0  0  0  0  0  0  0
   44.1322   32.8878   48.0614 H   0  0  0  0  0  0  0  0  0  0  0  0
   48.5799   35.7185   42.6696 H   0  0  0  0  0  0  0  0  0  0  0  0
   48.4598   33.9356   42.4224 H   0  0  0  0  0  0  0  0  0  0  0  0
   48.5682   36.1568   40.3902 H   0  0  0  0  0  0  0  0  0  0  0  0
   49.4921   34.6311   40.4553 H   0  0  0  0  0  0  0  0  0  0  0  0
   46.5500   34.3625   40.1893 H   0  0  0  0  0  0  0  0  0  0  0  0
   48.7989   35.5907   37.3427 H   0  0  0  0  0  0  0  0  0  0  0  0
   48.9169   33.6226   35.4858 H   0  0  0  0  0  0  0  0  0  0  0  0
   47.8844   29.4600   33.5525 H   0  0  0  0  0  0  0  0  0  0  0  0
  1  6  2  0
  2  1  1  0
  3  2  2  0
  3  4  1  0
  4  5  2  0
  5  6  1  0
  5  7  1  0
  7 12  1  0
  8  7  1  0
  9  8  1  0
  9 10  1  0
 10 11  1  0
 12 11  1  0
 12 13  1  0
 14  3  1  0
 15 14  1  0
 16 15  1  0
 17 16  1  0
 18 17  1  0
 19 18  1  0
 20 21  1  0
 20 19  2  0
 21 22  1  0
 22 18  2  0
 23 24  2  0
 23 21  1  0
 25 24  1  0
 26 27  2  0
 26 25  1  0
 27 23  1  0
  1 28  1  0
  2 29  1  0
  8 30  1  0
  8 31  1  0
  9 32  1  0
  9 33  1  0
 11 34  1  0
 11 35  1  0
 12 36  1  6
 13 37  1  0
 13 38  1  0
 13 39  1  0
 15 40  1  0
 15 41  1  0
 16 42  1  0
 16 43  1  0
 17 44  1  0
 19 45  1  0
 20 46  1  0
 26 47  1  0
M  ISO  8  28  14  29  14  30  13  31  13  32  13  33  13  34  13  35  13
M  ISO  8  36  13  37   8  38   8  39   8  40   8  41   8  42   8  43   8
M  ISO  3  45  14  46  14  47  14
M  END
>  <minimizedAffinity>  (1) 
-5.80390406

>  <minimizedRMSD>  (1) 
0.16877611

$$$$
