
     RDKit          3D

 58 61  0  0  1  0  0  0  0  0999 V2000
   44.6500   35.3070   45.3180 C   0  0  0  0  0  0  0  0  0  0  0  0
   45.1580   35.6400   44.0660 C   0  0  0  0  0  0  0  0  0  0  0  0
   46.0910   34.8150   43.4480 C   0  0  0  0  0  0  0  0  0  0  0  0
   46.4450   33.6980   44.1570 N   0  0  0  0  0  0  0  0  0  0  0  0
   45.9430   33.3940   45.3660 C   0  0  0  0  0  0  0  0  0  0  0  0
   45.0490   34.2040   45.9350 N   0  0  0  0  0  0  0  0  0  0  0  0
   46.3660   32.2060   46.0400 N   0  0  0  0  0  0  0  0  0  0  0  0
   47.5460   31.4960   45.6900 C   0  0  0  0  0  0  0  0  0  0  0  0
   47.1750   30.0350   45.6160 C   0  0  0  0  0  0  0  0  0  0  0  0
   46.7020   29.5400   46.8100 O   0  0  0  0  0  0  0  0  0  0  0  0
   46.3950   30.5050   47.7230 C   0  0  0  0  0  0  0  0  0  0  0  0
   45.6040   31.6650   47.1250 C   0  0  1  0  0  0  0  0  0  0  0  0
   45.1830   32.6370   48.1680 C   0  0  0  0  0  0  0  0  0  0  0  0
   46.6900   35.0000   42.2150 O   0  0  0  0  0  0  0  0  0  0  0  0
   48.1100   34.9200   42.0780 C   0  0  0  0  0  0  0  0  0  0  0  0
   48.4890   35.0990   40.6470 C   0  0  0  0  0  0  0  0  0  0  0  0
   47.5290   34.4530   39.8460 N   0  0  0  0  0  0  0  0  0  0  0  0
   47.8640   33.9580   38.5410 C   0  0  0  0  0  0  0  0  0  0  0  0
   48.4640   34.5590   37.4540 C   0  0  0  0  0  0  0  0  0  0  0  0
   48.5060   33.5610   36.4940 C   0  0  0  0  0  0  0  0  0  0  0  0
   47.9570   32.4420   37.0110 N   0  0  0  0  0  0  0  0  0  0  0  0
   47.5660   32.6730   38.2490 N   0  0  0  0  0  0  0  0  0  0  0  0
   47.7980   31.1580   36.3460 C   0  0  0  0  0  0  0  0  0  0  0  0
   48.5270   31.0990   35.0350 C   0  0  0  0  0  0  0  0  0  0  0  0
   47.8360   30.1550   34.0920 C   0  0  0  0  0  0  0  0  0  0  0  0
   47.1770   28.9890   34.7910 C   0  0  0  0  0  0  0  0  0  0  0  0
   46.1930   29.4000   35.8390 C   0  0  0  0  0  0  0  0  0  0  0  0
   46.3280   30.8920   36.0310 C   0  0  0  0  0  0  0  0  0  0  0  0
   43.9113   35.9646   45.7995 H   0  0  0  0  0  0  0  0  0  0  0  0
   44.8204   36.5586   43.5638 H   0  0  0  0  0  0  0  0  0  0  0  0
   47.9194   31.8410   44.7145 H   0  0  0  0  0  0  0  0  0  0  0  0
   48.3399   31.6627   46.4329 H   0  0  0  0  0  0  0  0  0  0  0  0
   46.3949   29.9096   44.8507 H   0  0  0  0  0  0  0  0  0  0  0  0
   48.0884   29.4754   45.3661 H   0  0  0  0  0  0  0  0  0  0  0  0
   45.7961   30.0498   48.5256 H   0  0  0  0  0  0  0  0  0  0  0  0
   47.3441   30.9146   48.0991 H   0  0  0  0  0  0  0  0  0  0  0  0
   44.6454   31.3257   46.7055 H   0  0  0  0  0  0  0  0  0  0  0  0
   45.3684   32.2090   49.1642 H   0  0  0  0  0  0  0  0  0  0  0  0
   45.7587   33.5676   48.0558 H   0  0  0  0  0  0  0  0  0  0  0  0
   44.1104   32.8536   48.0558 H   0  0  0  0  0  0  0  0  0  0  0  0
   48.5805   35.7097   42.6822 H   0  0  0  0  0  0  0  0  0  0  0  0
   48.4539   33.9344   42.4248 H   0  0  0  0  0  0  0  0  0  0  0  0
   48.5161   36.1710   40.4017 H   0  0  0  0  0  0  0  0  0  0  0  0
   49.4841   34.6674   40.4641 H   0  0  0  0  0  0  0  0  0  0  0  0
   46.5700   34.3334   40.2022 H   0  0  0  0  0  0  0  0  0  0  0  0
   48.8263   35.5941   37.3689 H   0  0  0  0  0  0  0  0  0  0  0  0
   48.9182   33.6637   35.4793 H   0  0  0  0  0  0  0  0  0  0  0  0
   48.2088   30.4109   37.0410 H   0  0  0  0  0  0  0  0  0  0  0  0
   48.5511   32.1040   34.5884 H   0  0  0  0  0  0  0  0  0  0  0  0
   49.5511   30.7390   35.2127 H   0  0  0  0  0  0  0  0  0  0  0  0
   48.5801   29.7622   33.3834 H   0  0  0  0  0  0  0  0  0  0  0  0
   47.0416   30.7231   33.5858 H   0  0  0  0  0  0  0  0  0  0  0  0
   46.6511   28.3838   34.0379 H   0  0  0  0  0  0  0  0  0  0  0  0
   47.9730   28.4244   35.2985 H   0  0  0  0  0  0  0  0  0  0  0  0
   45.1719   29.1547   35.5118 H   0  0  0  0  0  0  0  0  0  0  0  0
   46.3888   28.8695   36.7825 H   0  0  0  0  0  0  0  0  0  0  0  0
   46.0345   31.4213   35.1125 H   0  0  0  0  0  0  0  0  0  0  0  0
   45.6767   31.2489   36.8424 H   0  0  0  0  0  0  0  0  0  0  0  0
  1  6  2  0
  2  1  1  0
  3  2  2  0
  3  4  1  0
  4  5  2  0
  5  6  1  0
  5  7  1  0
  7 12  1  0
  8  7  1  0
  9  8  1  0
  9 10  1  0
 10 11  1  0
 12 11  1  0
 12 13  1  0
 14  3  1  0
 15 14  1  0
 16 15  1  0
 17 16  1  0
 18 17  1  0
 19 18  1  0
 20 21  1  0
 20 19  2  0
 21 22  1  0
 22 18  2  0
 23 21  1  0
 24 23  1  0
 25 26  1  0
 25 24  1  0
 26 27  1  0
 27 28  1  0
 28 23  1  0
  1 29  1  0
  2 30  1  0
  8 31  1  0
  8 32  1  0
  9 33  1  0
  9 34  1  0
 11 35  1  0
 11 36  1  0
 12 37  1  6
 13 38  1  0
 13 39  1  0
 13 40  1  0
 15 41  1  0
 15 42  1  0
 16 43  1  0
 16 44  1  0
 17 45  1  0
 19 46  1  0
 20 47  1  0
 23 48  1  0
 24 49  1  0
 24 50  1  0
 25 51  1  0
 25 52  1  0
 26 53  1  0
 26 54  1  0
 27 55  1  0
 27 56  1  0
 28 57  1  0
 28 58  1  0
M  ISO  8  29  14  30  14  31  13  32  13  33  13  34  13  35  13  36  13
M  ISO  8  37  13  38   8  39   8  40   8  41   8  42   8  43   8  44   8
M  ISO  8  46  14  47  14  48  13  49  13  50  13  51  13  52  13  53  13
M  ISO  5  54  13  55  13  56  13  57  13  58  13
M  END
>  <minimizedAffinity>  (1) 
-5.7256422

>  <minimizedRMSD>  (1) 
1.16228294

$$$$
