
     RDKit          3D

 52 55  0  0  1  0  0  0  0  0999 V2000
   44.6520   35.3020   45.3140 C   0  0  0  0  0  0  0  0  0  0  0  0
   45.1650   35.6300   44.0640 C   0  0  0  0  0  0  0  0  0  0  0  0
   46.0990   34.8110   43.4480 C   0  0  0  0  0  0  0  0  0  0  0  0
   46.4550   33.6950   44.1550 N   0  0  0  0  0  0  0  0  0  0  0  0
   45.9560   33.3850   45.3600 C   0  0  0  0  0  0  0  0  0  0  0  0
   45.0600   34.1880   45.9300 N   0  0  0  0  0  0  0  0  0  0  0  0
   46.3730   32.2050   46.0390 N   0  0  0  0  0  0  0  0  0  0  0  0
   47.5570   31.4930   45.6910 C   0  0  0  0  0  0  0  0  0  0  0  0
   47.2050   30.0340   45.6280 C   0  0  0  0  0  0  0  0  0  0  0  0
   46.7470   29.5480   46.8340 O   0  0  0  0  0  0  0  0  0  0  0  0
   46.4120   30.5170   47.7370 C   0  0  0  0  0  0  0  0  0  0  0  0
   45.6160   31.6590   47.1280 C   0  0  1  0  0  0  0  0  0  0  0  0
   45.1720   32.6270   48.1630 C   0  0  0  0  0  0  0  0  0  0  0  0
   46.6990   34.9990   42.2170 O   0  0  0  0  0  0  0  0  0  0  0  0
   48.1190   34.9120   42.0800 C   0  0  0  0  0  0  0  0  0  0  0  0
   48.5020   35.0770   40.6470 C   0  0  0  0  0  0  0  0  0  0  0  0
   47.5180   34.4600   39.8480 N   0  0  0  0  0  0  0  0  0  0  0  0
   47.8550   33.9790   38.5340 C   0  0  0  0  0  0  0  0  0  0  0  0
   48.4600   34.5720   37.4570 C   0  0  0  0  0  0  0  0  0  0  0  0
   48.4950   33.5780   36.4870 C   0  0  0  0  0  0  0  0  0  0  0  0
   47.9320   32.4630   36.9980 N   0  0  0  0  0  0  0  0  0  0  0  0
   47.5400   32.6960   38.2370 N   0  0  0  0  0  0  0  0  0  0  0  0
   47.8200   31.2590   36.2360 C   0  0  0  0  0  0  0  0  0  0  0  0
   48.2150   31.4010   34.9160 C   0  0  0  0  0  0  0  0  0  0  0  0
   48.1480   30.2870   34.0770 C   0  0  0  0  0  0  0  0  0  0  0  0
   47.6870   29.0720   34.5890 C   0  0  0  0  0  0  0  0  0  0  0  0
   47.3020   28.9790   35.9150 C   0  0  0  0  0  0  0  0  0  0  0  0
   47.3600   30.0720   36.7680 C   0  0  0  0  0  0  0  0  0  0  0  0
   43.9117   35.9581   45.7952 H   0  0  0  0  0  0  0  0  0  0  0  0
   44.8270   36.5471   43.5594 H   0  0  0  0  0  0  0  0  0  0  0  0
   47.9255   31.8330   44.7119 H   0  0  0  0  0  0  0  0  0  0  0  0
   48.3475   31.6688   46.4354 H   0  0  0  0  0  0  0  0  0  0  0  0
   46.4203   29.8930   44.8702 H   0  0  0  0  0  0  0  0  0  0  0  0
   48.1202   29.4806   45.3710 H   0  0  0  0  0  0  0  0  0  0  0  0
   45.8090   30.0576   48.5340 H   0  0  0  0  0  0  0  0  0  0  0  0
   47.3510   30.9432   48.1199 H   0  0  0  0  0  0  0  0  0  0  0  0
   44.6663   31.3046   46.7009 H   0  0  0  0  0  0  0  0  0  0  0  0
   45.3637   32.2090   49.1623 H   0  0  0  0  0  0  0  0  0  0  0  0
   45.7281   33.5689   48.0467 H   0  0  0  0  0  0  0  0  0  0  0  0
   44.0953   32.8200   48.0467 H   0  0  0  0  0  0  0  0  0  0  0  0
   48.5924   35.7049   42.6777 H   0  0  0  0  0  0  0  0  0  0  0  0
   48.4574   33.9271   42.4343 H   0  0  0  0  0  0  0  0  0  0  0  0
   48.5634   36.1472   40.4000 H   0  0  0  0  0  0  0  0  0  0  0  0
   49.4826   34.6138   40.4628 H   0  0  0  0  0  0  0  0  0  0  0  0
   46.5576   34.3534   40.2047 H   0  0  0  0  0  0  0  0  0  0  0  0
   48.8340   35.6035   37.3781 H   0  0  0  0  0  0  0  0  0  0  0  0
   48.9111   33.6822   35.4741 H   0  0  0  0  0  0  0  0  0  0  0  0
   48.5734   32.3696   34.5373 H   0  0  0  0  0  0  0  0  0  0  0  0
   48.4551   30.3654   33.0237 H   0  0  0  0  0  0  0  0  0  0  0  0
   47.6299   28.1877   33.9373 H   0  0  0  0  0  0  0  0  0  0  0  0
   46.9411   28.0148   36.3024 H   0  0  0  0  0  0  0  0  0  0  0  0
   47.0529   29.9955   37.8215 H   0  0  0  0  0  0  0  0  0  0  0  0
  1  6  2  0
  2  1  1  0
  3  2  2  0
  3  4  1  0
  4  5  2  0
  5  6  1  0
  5  7  1  0
  7 12  1  0
  8  7  1  0
  9  8  1  0
  9 10  1  0
 10 11  1  0
 12 11  1  0
 12 13  1  0
 14  3  1  0
 15 14  1  0
 16 15  1  0
 17 16  1  0
 18 17  1  0
 19 18  1  0
 20 21  1  0
 20 19  2  0
 21 22  1  0
 22 18  2  0
 23 28  1  0
 23 21  1  0
 24 23  2  0
 25 26  2  0
 25 24  1  0
 26 27  1  0
 27 28  2  0
  1 29  1  0
  2 30  1  0
  8 31  1  0
  8 32  1  0
  9 33  1  0
  9 34  1  0
 11 35  1  0
 11 36  1  0
 12 37  1  6
 13 38  1  0
 13 39  1  0
 13 40  1  0
 15 41  1  0
 15 42  1  0
 16 43  1  0
 16 44  1  0
 17 45  1  0
 19 46  1  0
 20 47  1  0
 24 48  1  0
 25 49  1  0
 26 50  1  0
 27 51  1  0
 28 52  1  0
M  ISO  8  29  14  30  14  31  13  32  13  33  13  34  13  35  13  36  13
M  ISO  8  37  13  38   8  39   8  40   8  41   8  42   8  43   8  44   8
M  ISO  7  46  14  47  14  48  14  49  14  50  14  51  14  52  14
M  END
>  <minimizedAffinity>  (1) 
-5.64876747

>  <minimizedRMSD>  (1) 
0.222896367

$$$$
