
     RDKit          3D

 51 53  0  0  1  0  0  0  0  0999 V2000
   44.6660   35.2960   45.3130 C   0  0  0  0  0  0  0  0  0  0  0  0
   45.1630   35.6370   44.0590 C   0  0  0  0  0  0  0  0  0  0  0  0
   46.0930   34.8040   43.4340 C   0  0  0  0  0  0  0  0  0  0  0  0
   46.4460   33.6940   44.1260 N   0  0  0  0  0  0  0  0  0  0  0  0
   45.9550   33.3800   45.3380 C   0  0  0  0  0  0  0  0  0  0  0  0
   45.0670   34.1880   45.9200 N   0  0  0  0  0  0  0  0  0  0  0  0
   46.3660   32.2000   46.0130 N   0  0  0  0  0  0  0  0  0  0  0  0
   47.5520   31.4830   45.6510 C   0  0  0  0  0  0  0  0  0  0  0  0
   47.1760   30.0230   45.5910 C   0  0  0  0  0  0  0  0  0  0  0  0
   46.7220   29.5420   46.8030 O   0  0  0  0  0  0  0  0  0  0  0  0
   46.4560   30.5250   47.7210 C   0  0  0  0  0  0  0  0  0  0  0  0
   45.6140   31.6520   47.1030 C   0  0  1  0  0  0  0  0  0  0  0  0
   45.1880   32.6230   48.1430 C   0  0  0  0  0  0  0  0  0  0  0  0
   46.6790   35.0090   42.1870 O   0  0  0  0  0  0  0  0  0  0  0  0
   48.0780   35.0760   42.0390 C   0  0  0  0  0  0  0  0  0  0  0  0
   48.4740   35.1720   40.6110 C   0  0  0  0  0  0  0  0  0  0  0  0
   47.5350   34.4220   39.8530 N   0  0  0  0  0  0  0  0  0  0  0  0
   47.8870   33.9150   38.5540 C   0  0  0  0  0  0  0  0  0  0  0  0
   48.4220   34.5080   37.4430 C   0  0  0  0  0  0  0  0  0  0  0  0
   48.5170   33.4920   36.5090 C   0  0  0  0  0  0  0  0  0  0  0  0
   48.0550   32.3690   37.0640 N   0  0  0  0  0  0  0  0  0  0  0  0
   47.6680   32.6120   38.3110 N   0  0  0  0  0  0  0  0  0  0  0  0
   47.9620   31.0470   36.4540 C   0  0  0  0  0  0  0  0  0  0  0  0
   46.6030   30.8990   35.7570 C   0  0  0  0  0  0  0  0  0  0  0  0
   49.0740   30.7780   35.5020 C   0  0  0  0  0  0  0  0  0  0  0  0
   43.9333   35.9522   45.8054 H   0  0  0  0  0  0  0  0  0  0  0  0
   44.8249   36.5584   43.5624 H   0  0  0  0  0  0  0  0  0  0  0  0
   47.9146   31.8215   44.6692 H   0  0  0  0  0  0  0  0  0  0  0  0
   48.3560   31.6543   46.3819 H   0  0  0  0  0  0  0  0  0  0  0  0
   46.3818   29.8941   44.8409 H   0  0  0  0  0  0  0  0  0  0  0  0
   48.0806   29.4564   45.3251 H   0  0  0  0  0  0  0  0  0  0  0  0
   45.9039   30.0869   48.5655 H   0  0  0  0  0  0  0  0  0  0  0  0
   47.4116   30.9513   48.0604 H   0  0  0  0  0  0  0  0  0  0  0  0
   44.6629   31.2857   46.6893 H   0  0  0  0  0  0  0  0  0  0  0  0
   45.3746   32.1977   49.1401 H   0  0  0  0  0  0  0  0  0  0  0  0
   45.7594   33.5561   48.0296 H   0  0  0  0  0  0  0  0  0  0  0  0
   44.1145   32.8344   48.0296 H   0  0  0  0  0  0  0  0  0  0  0  0
   48.4512   35.9623   42.5730 H   0  0  0  0  0  0  0  0  0  0  0  0
   48.5119   34.1545   42.4545 H   0  0  0  0  0  0  0  0  0  0  0  0
   48.4620   36.2236   40.2884 H   0  0  0  0  0  0  0  0  0  0  0  0
   49.4907   34.7783   40.4649 H   0  0  0  0  0  0  0  0  0  0  0  0
   46.5964   34.2403   40.2362 H   0  0  0  0  0  0  0  0  0  0  0  0
   48.7128   35.5617   37.3196 H   0  0  0  0  0  0  0  0  0  0  0  0
   48.9063   33.5921   35.4851 H   0  0  0  0  0  0  0  0  0  0  0  0
   48.0508   30.3000   37.2566 H   0  0  0  0  0  0  0  0  0  0  0  0
   45.8100   30.8126   36.5144 H   0  0  0  0  0  0  0  0  0  0  0  0
   46.4152   31.7820   35.1285 H   0  0  0  0  0  0  0  0  0  0  0  0
   46.6097   29.9963   35.1285 H   0  0  0  0  0  0  0  0  0  0  0  0
   49.9927   30.5558   36.0647 H   0  0  0  0  0  0  0  0  0  0  0  0
   48.8144   29.9167   34.8689 H   0  0  0  0  0  0  0  0  0  0  0  0
   49.2367   31.6627   34.8689 H   0  0  0  0  0  0  0  0  0  0  0  0
  1  6  2  0
  2  1  1  0
  3  2  2  0
  3  4  1  0
  4  5  2  0
  5  6  1  0
  5  7  1  0
  7 12  1  0
  8  7  1  0
  9  8  1  0
  9 10  1  0
 10 11  1  0
 12 11  1  0
 12 13  1  0
 14  3  1  0
 15 14  1  0
 16 15  1  0
 17 16  1  0
 18 17  1  0
 19 18  1  0
 20 21  1  0
 20 19  2  0
 21 22  1  0
 22 18  2  0
 23 21  1  0
 24 23  1  0
 25 23  1  0
  1 26  1  0
  2 27  1  0
  8 28  1  0
  8 29  1  0
  9 30  1  0
  9 31  1  0
 11 32  1  0
 11 33  1  0
 12 34  1  6
 13 35  1  0
 13 36  1  0
 13 37  1  0
 15 38  1  0
 15 39  1  0
 16 40  1  0
 16 41  1  0
 17 42  1  0
 19 43  1  0
 20 44  1  0
 23 45  1  0
 24 46  1  0
 24 47  1  0
 24 48  1  0
 25 49  1  0
 25 50  1  0
 25 51  1  0
M  ISO  8  26  14  27  14  28  13  29  13  30  13  31  13  32  13  33  13
M  ISO  8  34  13  35   8  36   8  37   8  38   8  39   8  40   8  41   8
M  ISO  8  43  14  44  14  45   8  46   8  47   8  48   8  49   8  50   8
M  ISO  1  51   8
M  END
>  <minimizedAffinity>  (1) 
-5.44044113

>  <minimizedRMSD>  (1) 
0.175580725

$$$$
