
     RDKit          3D

 48 52  0  0  1  0  0  0  0  0999 V2000
   46.2330   33.4480   42.6430 C   0  0  0  0  0  0  0  0  0  0  0  0
   45.9330   32.1850   43.1030 C   0  0  0  0  0  0  0  0  0  0  0  0
   44.7100   31.6350   42.8580 C   0  0  0  0  0  0  0  0  0  0  0  0
   43.7570   32.2770   42.1750 N   0  0  0  0  0  0  0  0  0  0  0  0
   44.0540   33.4920   41.7370 C   0  0  0  0  0  0  0  0  0  0  0  0
   45.2400   34.0600   41.9570 N   0  0  0  0  0  0  0  0  0  0  0  0
   48.6250   34.1690   41.8410 C   0  0  1  0  0  0  0  0  0  0  0  0
   47.8600   35.4070   42.1580 C   0  0  0  0  0  0  0  0  0  0  0  0
   47.5070   34.2010   42.8520 C   0  0  1  0  0  0  0  0  0  0  0  0
   47.9090   33.7400   38.2160 C   0  0  0  0  0  0  0  0  0  0  0  0
   48.0640   34.3550   39.5010 C   0  0  0  0  0  0  0  0  0  0  0  0
   48.4780   33.5280   40.5380 C   0  0  0  0  0  0  0  0  0  0  0  0
   48.7150   32.2140   40.3140 N   0  0  0  0  0  0  0  0  0  0  0  0
   48.5630   31.6580   39.1040 C   0  0  0  0  0  0  0  0  0  0  0  0
   48.1600   32.4090   38.0430 N   0  0  0  0  0  0  0  0  0  0  0  0
   43.0120   34.2500   40.9870 C   0  0  1  0  0  0  0  0  0  0  0  0
   43.1030   35.6870   41.3610 C   0  0  0  0  0  0  0  0  0  0  0  0
   43.1400   34.0690   39.4920 C   0  0  0  0  0  0  0  0  0  0  0  0
   41.8910   34.2550   38.8090 N   0  0  0  0  0  0  0  0  0  0  0  0
   41.4250   35.3090   38.1150 C   0  0  0  0  0  0  0  0  0  0  0  0
   40.1750   35.0540   37.6280 N   0  0  0  0  0  0  0  0  0  0  0  0
   39.8140   33.8130   38.0100 C   0  0  0  0  0  0  0  0  0  0  0  0
   38.6890   33.0400   37.8170 C   0  0  0  0  0  0  0  0  0  0  0  0
   37.7160   33.4560   37.1640 O   0  0  0  0  0  0  0  0  0  0  0  0
   38.6540   31.7900   38.3600 N   0  0  0  0  0  0  0  0  0  0  0  0
   39.7130   31.3530   39.0630 C   0  0  0  0  0  0  0  0  0  0  0  0
   39.7970   30.0560   39.6840 N   0  0  0  0  0  0  0  0  0  0  0  0
   40.8240   32.0970   39.2640 N   0  0  0  0  0  0  0  0  0  0  0  0
   40.8950   33.3540   38.7350 C   0  0  0  0  0  0  0  0  0  0  0  0
   46.6843   31.6170   43.6712 H   0  0  0  0  0  0  0  0  0  0  0  0
   44.4992   30.6240   43.2369 H   0  0  0  0  0  0  0  0  0  0  0  0
   49.6772   33.8483   41.8482 H   0  0  0  0  0  0  0  0  0  0  0  0
   48.3513   36.2255   42.7044 H   0  0  0  0  0  0  0  0  0  0  0  0
   47.2985   36.1357   41.5549 H   0  0  0  0  0  0  0  0  0  0  0  0
   47.3960   33.9421   43.9153 H   0  0  0  0  0  0  0  0  0  0  0  0
   47.5839   34.3475   37.3586 H   0  0  0  0  0  0  0  0  0  0  0  0
   47.8657   35.4255   39.6582 H   0  0  0  0  0  0  0  0  0  0  0  0
   48.7657   30.5855   38.9673 H   0  0  0  0  0  0  0  0  0  0  0  0
   42.0230   33.8546   41.2618 H   0  0  0  0  0  0  0  0  0  0  0  0
   43.1090   35.7810   42.4570 H   0  0  0  0  0  0  0  0  0  0  0  0
   44.0300   36.1145   40.9513 H   0  0  0  0  0  0  0  0  0  0  0  0
   42.2373   36.2280   40.9513 H   0  0  0  0  0  0  0  0  0  0  0  0
   43.8650   34.8019   39.1083 H   0  0  0  0  0  0  0  0  0  0  0  0
   43.4731   33.0372   39.3065 H   0  0  0  0  0  0  0  0  0  0  0  0
   41.9760   36.2485   37.9608 H   0  0  0  0  0  0  0  0  0  0  0  0
   37.8274   31.1887   38.2333 H   0  0  0  0  0  0  0  0  0  0  0  0
   40.6427   29.7898   40.2083 H   0  0  0  0  0  0  0  0  0  0  0  0
   39.0114   29.3947   39.6037 H   0  0  0  0  0  0  0  0  0  0  0  0
  1  9  1  0
  1  2  2  0
  3  2  1  0
  4  3  2  0
  5  6  2  0
  5  4  1  0
  6  1  1  0
  7  8  1  0
  7  9  1  0
  8  9  1  0
 10 11  2  0
 11 12  1  0
 12  7  1  0
 13 12  2  0
 14 13  1  0
 15 10  1  0
 15 14  2  0
 16 17  1  0
 16  5  1  0
 18 16  1  0
 19 18  1  0
 20 19  1  0
 21 22  1  0
 21 20  2  0
 22 29  2  0
 23 22  1  0
 23 25  1  0
 24 23  2  0
 25 26  1  0
 26 28  2  0
 26 27  1  0
 29 19  1  0
 29 28  1  0
  2 30  1  0
  3 31  1  0
  7 32  1  1
  8 33  1  0
  8 34  1  0
  9 35  1  1
 10 36  1  0
 11 37  1  0
 14 38  1  0
 16 39  1  1
 17 40  1  0
 17 41  1  0
 17 42  1  0
 18 43  1  0
 18 44  1  0
 20 45  1  0
 25 46  1  0
 27 47  1  0
 27 48  1  0
M  ISO  8  30  14  31  14  32  13  33  13  34  13  35  13  36  14  37  14
M  ISO  8  38  14  39   8  40   8  41   8  42   8  43   8  44   8  45  14
M  ISO  1  46   9
M  END
>  <minimizedAffinity>  (1) 
-5.76124859

>  <minimizedRMSD>  (1) 
2.42111301

$$$$
