
     RDKit          3D

 47 50  0  0  1  0  0  0  0  0999 V2000
   45.3120   32.7410   43.4260 C   0  0  0  0  0  0  0  0  0  0  0  0
   45.6030   31.4490   43.8080 C   0  0  0  0  0  0  0  0  0  0  0  0
   44.8380   30.4110   43.3620 C   0  0  0  0  0  0  0  0  0  0  0  0
   43.7930   30.5870   42.5520 N   0  0  0  0  0  0  0  0  0  0  0  0
   43.5190   31.8310   42.1890 C   0  0  0  0  0  0  0  0  0  0  0  0
   44.2440   32.8690   42.6060 N   0  0  0  0  0  0  0  0  0  0  0  0
   47.2590   34.4760   43.1390 C   0  0  1  0  0  0  0  0  0  0  0  0
   45.9740   35.2280   43.1420 C   0  0  0  0  0  0  0  0  0  0  0  0
   46.0250   33.9820   43.8530 C   0  0  1  0  0  0  0  0  0  0  0  0
   47.8260   33.8770   39.5130 C   0  0  0  0  0  0  0  0  0  0  0  0
   47.3600   34.4760   40.7310 C   0  0  0  0  0  0  0  0  0  0  0  0
   47.7470   33.8570   41.9130 C   0  0  0  0  0  0  0  0  0  0  0  0
   48.5240   32.7480   41.8840 N   0  0  0  0  0  0  0  0  0  0  0  0
   48.9480   32.2040   40.7360 C   0  0  0  0  0  0  0  0  0  0  0  0
   48.6080   32.7580   39.5410 N   0  0  0  0  0  0  0  0  0  0  0  0
   42.3480   32.0640   41.3020 C   0  0  1  0  0  0  0  0  0  0  0  0
   41.3190   31.0250   41.5820 C   0  0  0  0  0  0  0  0  0  0  0  0
   41.7670   33.4490   41.4850 C   0  0  0  0  0  0  0  0  0  0  0  0
   41.6110   34.1960   40.2780 N   0  0  0  0  0  0  0  0  0  0  0  0
   40.4600   33.9460   39.5930 C   0  0  0  0  0  0  0  0  0  0  0  0
   40.2010   34.6210   38.3950 C   0  0  0  0  0  0  0  0  0  0  0  0
   38.9300   34.3230   37.6690 C   0  0  0  0  0  0  0  0  0  0  0  0
   41.1460   35.5290   37.9530 C   0  0  0  0  0  0  0  0  0  0  0  0
   40.9230   36.1410   36.8770 O   0  0  0  0  0  0  0  0  0  0  0  0
   42.2830   35.7520   38.6650 N   0  0  0  0  0  0  0  0  0  0  0  0
   42.5160   35.0900   39.8210 C   0  0  0  0  0  0  0  0  0  0  0  0
   43.5640   35.2680   40.5170 O   0  0  0  0  0  0  0  0  0  0  0  0
   46.4555   31.2540   44.4752 H   0  0  0  0  0  0  0  0  0  0  0  0
   45.0928   29.3901   43.6827 H   0  0  0  0  0  0  0  0  0  0  0  0
   48.3042   34.6678   43.4231 H   0  0  0  0  0  0  0  0  0  0  0  0
   45.8970   36.1715   43.7023 H   0  0  0  0  0  0  0  0  0  0  0  0
   45.3226   35.6332   42.3537 H   0  0  0  0  0  0  0  0  0  0  0  0
   45.7749   33.6831   44.8817 H   0  0  0  0  0  0  0  0  0  0  0  0
   47.5503   34.3241   38.5465 H   0  0  0  0  0  0  0  0  0  0  0  0
   46.7297   35.3775   40.7288 H   0  0  0  0  0  0  0  0  0  0  0  0
   49.5765   31.3016   40.7596 H   0  0  0  0  0  0  0  0  0  0  0  0
   42.6806   31.9936   40.2558 H   0  0  0  0  0  0  0  0  0  0  0  0
   41.2028   30.9077   42.6695 H   0  0  0  0  0  0  0  0  0  0  0  0
   40.3588   31.3318   41.1417 H   0  0  0  0  0  0  0  0  0  0  0  0
   41.6351   30.0678   41.1417 H   0  0  0  0  0  0  0  0  0  0  0  0
   40.7775   33.3460   41.9543 H   0  0  0  0  0  0  0  0  0  0  0  0
   42.4845   34.0070   42.1046 H   0  0  0  0  0  0  0  0  0  0  0  0
   39.7356   33.2148   39.9811 H   0  0  0  0  0  0  0  0  0  0  0  0
   38.1273   34.1348   38.3972 H   0  0  0  0  0  0  0  0  0  0  0  0
   38.6584   35.1818   37.0376 H   0  0  0  0  0  0  0  0  0  0  0  0
   39.0684   33.4329   37.0376 H   0  0  0  0  0  0  0  0  0  0  0  0
   42.9746   36.4328   38.3199 H   0  0  0  0  0  0  0  0  0  0  0  0
  1  2  2  0
  1  9  1  0
  3  2  1  0
  4  3  2  0
  5  4  1  0
  5  6  2  0
  6  1  1  0
  7  8  1  0
  7  9  1  0
  8  9  1  0
 10 15  2  0
 10 11  1  0
 11 12  2  0
 12  7  1  0
 13 12  1  0
 14 13  2  0
 15 14  1  0
 16 18  1  0
 16 17  1  0
 16  5  1  0
 19 18  1  0
 20 19  1  0
 21 20  2  0
 22 21  1  0
 23 21  1  0
 23 25  1  0
 24 23  2  0
 25 26  1  0
 26 19  1  0
 26 27  2  0
  2 28  1  0
  3 29  1  0
  7 30  1  1
  8 31  1  0
  8 32  1  0
  9 33  1  1
 10 34  1  0
 11 35  1  0
 14 36  1  0
 16 37  1  6
 17 38  1  0
 17 39  1  0
 17 40  1  0
 18 41  1  0
 18 42  1  0
 20 43  1  0
 22 44  1  0
 22 45  1  0
 22 46  1  0
 25 47  1  0
M  ISO  8  28  14  29  14  30  13  31  13  32  13  33  13  34  14  35  14
M  ISO  8  36  14  37   8  38   8  39   8  40   8  41   8  42   8  43  14
M  ISO  4  44   8  45   8  46   8  47   9
M  END
>  <minimizedAffinity>  (1) 
-5.72328234

>  <minimizedRMSD>  (1) 
2.59248853

$$$$
