
     RDKit          3D

 34 36  0  0  1  0  0  0  0  0999 V2000
   43.8320   34.3820   40.7670 C   0  0  2  0  0  0  0  0  0  0  0  0
   43.9370   33.4220   39.6260 C   0  0  0  0  0  0  0  0  0  0  0  0
   42.9240   35.5570   40.4230 C   0  0  0  0  0  0  0  0  0  0  0  0
   41.8840   35.2720   39.4370 C   0  0  0  0  0  0  0  0  0  0  0  0
   41.8940   35.6530   38.0910 C   0  0  0  0  0  0  0  0  0  0  0  0
   40.7730   35.2620   37.4610 N   0  0  0  0  0  0  0  0  0  0  0  0
   40.0040   34.6230   38.3480 C   0  0  0  0  0  0  0  0  0  0  0  0
   38.7710   34.0140   38.2520 C   0  0  0  0  0  0  0  0  0  0  0  0
   38.1710   33.3970   39.3200 C   0  0  0  0  0  0  0  0  0  0  0  0
   38.8070   33.3770   40.5370 C   0  0  0  0  0  0  0  0  0  0  0  0
   40.0370   33.9910   40.6190 C   0  0  0  0  0  0  0  0  0  0  0  0
   40.6630   34.6170   39.5650 C   0  0  0  0  0  0  0  0  0  0  0  0
   45.0730   34.8350   41.2290 O   0  0  0  0  0  0  0  0  0  0  0  0
   45.7190   34.3770   42.3220 C   0  0  0  0  0  0  0  0  0  0  0  0
   44.9180   34.2380   43.4640 C   0  0  0  0  0  0  0  0  0  0  0  0
   45.5040   33.7730   44.6580 C   0  0  0  0  0  0  0  0  0  0  0  0
   46.8380   33.4830   44.6200 N   0  0  0  0  0  0  0  0  0  0  0  0
   47.5640   33.6290   43.5110 C   0  0  0  0  0  0  0  0  0  0  0  0
   47.0050   34.0650   42.3990 N   0  0  0  0  0  0  0  0  0  0  0  0
   43.3789   33.8147   41.5934 H   0  0  0  0  0  0  0  0  0  0  0  0
   44.0488   32.3996   40.0161 H   0  0  0  0  0  0  0  0  0  0  0  0
   43.0269   33.4823   39.0111 H   0  0  0  0  0  0  0  0  0  0  0  0
   44.8125   33.6776   39.0111 H   0  0  0  0  0  0  0  0  0  0  0  0
   42.4327   35.8899   41.3492 H   0  0  0  0  0  0  0  0  0  0  0  0
   43.5725   36.3214   39.9702 H   0  0  0  0  0  0  0  0  0  0  0  0
   42.7156   36.2032   37.6091 H   0  0  0  0  0  0  0  0  0  0  0  0
   40.5465   35.4259   36.4697 H   0  0  0  0  0  0  0  0  0  0  0  0
   38.2493   34.0232   37.2836 H   0  0  0  0  0  0  0  0  0  0  0  0
   37.1863   32.9211   39.2024 H   0  0  0  0  0  0  0  0  0  0  0  0
   38.3519   32.8897   41.4119 H   0  0  0  0  0  0  0  0  0  0  0  0
   40.5530   33.9805   41.5904 H   0  0  0  0  0  0  0  0  0  0  0  0
   43.8475   34.4883   43.4285 H   0  0  0  0  0  0  0  0  0  0  0  0
   44.9142   33.6493   45.5783 H   0  0  0  0  0  0  0  0  0  0  0  0
   48.6363   33.3841   43.5238 H   0  0  0  0  0  0  0  0  0  0  0  0
  1 13  1  0
  2  1  1  0
  3  1  1  0
  4 12  1  0
  4  3  1  0
  5  4  2  0
  6  5  1  0
  6  7  1  0
  7 12  2  0
  8  7  1  0
  8  9  2  0
  9 10  1  0
 10 11  2  0
 12 11  1  0
 13 14  1  0
 14 19  1  0
 14 15  2  0
 15 16  1  0
 17 16  2  0
 18 17  1  0
 19 18  2  0
  1 20  1  1
  2 21  1  0
  2 22  1  0
  2 23  1  0
  3 24  1  0
  3 25  1  0
  5 26  1  0
  6 27  1  0
  8 28  1  0
  9 29  1  0
 10 30  1  0
 11 31  1  0
 15 32  1  0
 16 33  1  0
 18 34  1  0
M  ISO  8  20   8  21   8  22   8  23   8  24   8  25   8  26  14  27   9
M  ISO  7  28  14  29  14  30  14  31  14  32  14  33  14  34  14
M  END
>  <minimizedAffinity>  (1) 
-5.33821249

>  <minimizedRMSD>  (1) 
3.15518045

$$$$
