
     RDKit          3D

 33 35  0  0  1  0  0  0  0  0999 V2000
   43.8030   34.1170   41.6570 C   0  0  2  0  0  0  0  0  0  0  0  0
   43.3700   32.7560   41.2120 C   0  0  0  0  0  0  0  0  0  0  0  0
   42.6260   35.0970   41.5540 C   0  0  0  0  0  0  0  0  0  0  0  0
   41.8820   34.9240   40.3280 N   0  0  0  0  0  0  0  0  0  0  0  0
   42.1850   35.3090   39.0740 C   0  0  0  0  0  0  0  0  0  0  0  0
   41.1950   34.9400   38.2190 N   0  0  0  0  0  0  0  0  0  0  0  0
   40.2710   34.3180   38.9710 C   0  0  0  0  0  0  0  0  0  0  0  0
   39.0600   33.7270   38.7060 C   0  0  0  0  0  0  0  0  0  0  0  0
   38.3260   33.1700   39.6620 N   0  0  0  0  0  0  0  0  0  0  0  0
   38.7440   33.1580   40.9580 C   0  0  0  0  0  0  0  0  0  0  0  0
   39.9250   33.7280   41.2470 N   0  0  0  0  0  0  0  0  0  0  0  0
   40.6730   34.2930   40.2970 C   0  0  0  0  0  0  0  0  0  0  0  0
   38.5410   33.6900   37.3830 N   0  0  0  0  0  0  0  0  0  0  0  0
   44.8860   34.6100   40.9170 O   0  0  0  0  0  0  0  0  0  0  0  0
   46.1860   34.4770   41.2650 C   0  0  0  0  0  0  0  0  0  0  0  0
   46.4350   34.4720   42.6430 C   0  0  0  0  0  0  0  0  0  0  0  0
   47.7650   34.3430   43.0880 C   0  0  0  0  0  0  0  0  0  0  0  0
   48.7380   34.2290   42.1260 N   0  0  0  0  0  0  0  0  0  0  0  0
   48.4630   34.2370   40.8210 C   0  0  0  0  0  0  0  0  0  0  0  0
   47.2060   34.3590   40.4340 N   0  0  0  0  0  0  0  0  0  0  0  0
   44.1346   34.0229   42.7016 H   0  0  0  0  0  0  0  0  0  0  0  0
   43.1703   32.1284   42.0931 H   0  0  0  0  0  0  0  0  0  0  0  0
   42.4548   32.8417   40.6079 H   0  0  0  0  0  0  0  0  0  0  0  0
   44.1665   32.2971   40.6079 H   0  0  0  0  0  0  0  0  0  0  0  0
   41.9501   34.9307   42.4058 H   0  0  0  0  0  0  0  0  0  0  0  0
   43.0335   36.1187   41.5622 H   0  0  0  0  0  0  0  0  0  0  0  0
   43.1009   35.8445   38.7835 H   0  0  0  0  0  0  0  0  0  0  0  0
   38.1317   32.6946   41.7456 H   0  0  0  0  0  0  0  0  0  0  0  0
   37.6313   33.2434   37.1990 H   0  0  0  0  0  0  0  0  0  0  0  0
   39.0747   34.1098   36.6085 H   0  0  0  0  0  0  0  0  0  0  0  0
   45.6089   34.5669   43.3631 H   0  0  0  0  0  0  0  0  0  0  0  0
   48.0134   34.3340   44.1595 H   0  0  0  0  0  0  0  0  0  0  0  0
   49.2698   34.1435   40.0791 H   0  0  0  0  0  0  0  0  0  0  0  0
  2  1  1  0
  3  1  1  0
  4  3  1  0
  5  4  1  0
  6  7  1  0
  6  5  2  0
  7 12  2  0
  8  7  1  0
  8  9  2  0
  9 10  1  0
 10 11  2  0
 12  4  1  0
 12 11  1  0
 13  8  1  0
 14 15  1  0
 14  1  1  0
 15 16  2  0
 16 17  1  0
 18 17  2  0
 19 18  1  0
 20 19  2  0
 20 15  1  0
  1 21  1  1
  2 22  1  0
  2 23  1  0
  2 24  1  0
  3 25  1  0
  3 26  1  0
  5 27  1  0
 10 28  1  0
 13 29  1  0
 13 30  1  0
 16 31  1  0
 17 32  1  0
 19 33  1  0
M  ISO  8  21   8  22   8  23   8  24   8  25   8  26   8  27  14  28  14
M  ISO  3  31  14  32  14  33  14
M  END
>  <minimizedAffinity>  (1) 
-4.70865154

>  <minimizedRMSD>  (1) 
2.43865919

$$$$
