
     RDKit          3D

 28 29  0  0  1  0  0  0  0  0999 V2000
   42.9230   34.8640   41.3020 C   0  0  2  0  0  0  0  0  0  0  0  0
   43.2670   34.8050   39.8470 C   0  0  0  0  0  0  0  0  0  0  0  0
   41.5530   35.5270   41.4840 C   0  0  0  0  0  0  0  0  0  0  0  0
   40.4610   34.6210   41.0690 C   0  0  0  0  0  0  0  0  0  0  0  0
   39.6220   35.0390   40.0430 C   0  0  0  0  0  0  0  0  0  0  0  0
   38.6060   34.1770   39.6680 C   0  0  0  0  0  0  0  0  0  0  0  0
   38.4010   32.9870   40.2350 N   0  0  0  0  0  0  0  0  0  0  0  0
   39.2330   32.6030   41.2330 C   0  0  0  0  0  0  0  0  0  0  0  0
   40.2490   33.4210   41.6370 N   0  0  0  0  0  0  0  0  0  0  0  0
   43.8900   35.5530   42.0460 O   0  0  0  0  0  0  0  0  0  0  0  0
   44.3590   35.1570   43.2520 C   0  0  0  0  0  0  0  0  0  0  0  0
   45.0780   33.9530   43.2390 C   0  0  0  0  0  0  0  0  0  0  0  0
   45.5940   33.4740   44.4610 C   0  0  0  0  0  0  0  0  0  0  0  0
   45.3580   34.2200   45.5780 N   0  0  0  0  0  0  0  0  0  0  0  0
   44.6720   35.3640   45.5610 C   0  0  0  0  0  0  0  0  0  0  0  0
   44.2000   35.7890   44.4020 N   0  0  0  0  0  0  0  0  0  0  0  0
   42.8923   33.8310   41.6788 H   0  0  0  0  0  0  0  0  0  0  0  0
   44.3453   34.6201   39.7324 H   0  0  0  0  0  0  0  0  0  0  0  0
   42.7025   33.9906   39.3695 H   0  0  0  0  0  0  0  0  0  0  0  0
   43.0061   35.7610   39.3695 H   0  0  0  0  0  0  0  0  0  0  0  0
   41.4189   35.7884   42.5440 H   0  0  0  0  0  0  0  0  0  0  0  0
   41.5159   36.4283   40.8544 H   0  0  0  0  0  0  0  0  0  0  0  0
   39.7594   36.0128   39.5502 H   0  0  0  0  0  0  0  0  0  0  0  0
   37.9307   34.4903   38.8582 H   0  0  0  0  0  0  0  0  0  0  0  0
   39.0893   31.6273   41.7203 H   0  0  0  0  0  0  0  0  0  0  0  0
   45.2350   33.3980   42.3023 H   0  0  0  0  0  0  0  0  0  0  0  0
   46.1647   32.5350   44.5112 H   0  0  0  0  0  0  0  0  0  0  0  0
   44.5041   35.9370   46.4849 H   0  0  0  0  0  0  0  0  0  0  0  0
  1  3  1  0
  1 10  1  0
  2  1  1  0
  4  3  1  0
  4  9  1  0
  5  4  2  0
  6  5  1  0
  6  7  2  0
  7  8  1  0
  8  9  2  0
 10 11  1  0
 11 16  1  0
 12 11  2  0
 12 13  1  0
 13 14  2  0
 15 14  1  0
 16 15  2  0
  1 17  1  1
  2 18  1  0
  2 19  1  0
  2 20  1  0
  3 21  1  0
  3 22  1  0
  5 23  1  0
  6 24  1  0
  8 25  1  0
 12 26  1  0
 13 27  1  0
 15 28  1  0
M  ISO  8  17   8  18   8  19   8  20   8  21   8  22   8  23  14  24  14
M  ISO  4  25  14  26  14  27  14  28  14
M  END
>  <minimizedAffinity>  (1) 
-4.69504404

>  <minimizedRMSD>  (1) 
5.19621849

$$$$
