
     RDKit          3D

 29 30  0  0  1  0  0  0  0  0999 V2000
   43.4350   34.3600   41.6580 C   0  0  2  0  0  0  0  0  0  0  0  0
   42.8230   33.0200   41.3960 C   0  0  0  0  0  0  0  0  0  0  0  0
   42.4030   35.4660   41.4040 C   0  0  0  0  0  0  0  0  0  0  0  0
   41.5220   35.1520   40.2700 C   0  0  0  0  0  0  0  0  0  0  0  0
   40.1860   35.0490   40.6600 C   0  0  0  0  0  0  0  0  0  0  0  0
   39.1920   34.7580   39.7310 C   0  0  0  0  0  0  0  0  0  0  0  0
   39.4940   34.5600   38.3950 C   0  0  0  0  0  0  0  0  0  0  0  0
   40.8350   34.6780   38.0950 C   0  0  0  0  0  0  0  0  0  0  0  0
   41.8030   34.9580   38.9710 N   0  0  0  0  0  0  0  0  0  0  0  0
   44.5720   34.5940   40.8740 O   0  0  0  0  0  0  0  0  0  0  0  0
   45.8460   34.4730   41.3140 C   0  0  0  0  0  0  0  0  0  0  0  0
   46.0010   34.4590   42.7060 C   0  0  0  0  0  0  0  0  0  0  0  0
   47.3020   34.3410   43.2320 C   0  0  0  0  0  0  0  0  0  0  0  0
   48.3390   34.2430   42.3380 N   0  0  0  0  0  0  0  0  0  0  0  0
   48.1550   34.2570   41.0170 C   0  0  0  0  0  0  0  0  0  0  0  0
   46.9250   34.3700   40.5480 N   0  0  0  0  0  0  0  0  0  0  0  0
   43.7511   34.3687   42.7116 H   0  0  0  0  0  0  0  0  0  0  0  0
   42.5976   32.5264   42.3529 H   0  0  0  0  0  0  0  0  0  0  0  0
   41.8938   33.1473   40.8213 H   0  0  0  0  0  0  0  0  0  0  0  0
   43.5277   32.4011   40.8213 H   0  0  0  0  0  0  0  0  0  0  0  0
   41.7875   35.5907   42.3071 H   0  0  0  0  0  0  0  0  0  0  0  0
   42.9495   36.3895   41.1621 H   0  0  0  0  0  0  0  0  0  0  0  0
   39.9153   35.1998   41.7155 H   0  0  0  0  0  0  0  0  0  0  0  0
   38.1465   34.6839   40.0647 H   0  0  0  0  0  0  0  0  0  0  0  0
   38.7304   34.3285   37.6378 H   0  0  0  0  0  0  0  0  0  0  0  0
   41.1319   34.5290   37.0464 H   0  0  0  0  0  0  0  0  0  0  0  0
   45.1287   34.5382   43.3714 H   0  0  0  0  0  0  0  0  0  0  0  0
   47.4803   34.3279   44.3174 H   0  0  0  0  0  0  0  0  0  0  0  0
   49.0111   34.1760   40.3310 H   0  0  0  0  0  0  0  0  0  0  0  0
  2  1  1  0
  3  1  1  0
  4  5  2  0
  4  3  1  0
  6  5  1  0
  7  6  2  0
  8  7  1  0
  8  9  2  0
  9  4  1  0
 10 11  1  0
 10  1  1  0
 11 12  2  0
 12 13  1  0
 14 13  2  0
 15 14  1  0
 16 15  2  0
 16 11  1  0
  1 17  1  1
  2 18  1  0
  2 19  1  0
  2 20  1  0
  3 21  1  0
  3 22  1  0
  5 23  1  0
  6 24  1  0
  7 25  1  0
  8 26  1  0
 12 27  1  0
 13 28  1  0
 15 29  1  0
M  ISO  8  17   8  18   8  19   8  20   8  21   8  22   8  23  14  24  14
M  ISO  5  25  14  26  14  27  14  28  14  29  14
M  END
>  <minimizedAffinity>  (1) 
-4.4330287

>  <minimizedRMSD>  (1) 
2.06704164

$$$$
