
     RDKit          3D

 26 27  0  0  0  0  0  0  0  0999 V2000
   44.5950   35.3640   45.6270 C   0  0  0  0  0  0  0  0  0  0  0  0
   44.5430   35.8160   44.3020 C   0  0  0  0  0  0  0  0  0  0  0  0
   45.1500   35.0310   43.3040 C   0  0  0  0  0  0  0  0  0  0  0  0
   45.7460   33.8850   43.6820 N   0  0  0  0  0  0  0  0  0  0  0  0
   45.7840   33.4630   44.9830 C   0  0  0  0  0  0  0  0  0  0  0  0
   45.2140   34.2020   45.9210 N   0  0  0  0  0  0  0  0  0  0  0  0
   46.4240   32.2470   45.3650 N   0  0  0  0  0  0  0  0  0  0  0  0
   47.3120   31.7290   44.4800 C   0  0  0  0  0  0  0  0  0  0  0  0
   47.7830   30.5680   45.0840 C   0  0  0  0  0  0  0  0  0  0  0  0
   47.1850   30.4140   46.2890 N   0  0  0  0  0  0  0  0  0  0  0  0
   46.3560   31.4410   46.4540 C   0  0  0  0  0  0  0  0  0  0  0  0
   45.4880   31.7030   47.6030 C   0  0  0  0  0  0  0  0  0  0  0  0
   46.3630   32.2440   48.7290 C   0  0  0  0  0  0  0  0  0  0  0  0
   44.9070   30.3900   48.1080 C   0  0  0  0  0  0  0  0  0  0  0  0
   44.1306   35.9572   46.4285 H   0  0  0  0  0  0  0  0  0  0  0  0
   44.0403   36.7609   44.0480 H   0  0  0  0  0  0  0  0  0  0  0  0
   45.1377   35.3438   42.2495 H   0  0  0  0  0  0  0  0  0  0  0  0
   47.5972   32.1377   43.4994 H   0  0  0  0  0  0  0  0  0  0  0  0
   48.5255   29.8819   44.6504 H   0  0  0  0  0  0  0  0  0  0  0  0
   44.6895   32.4018   47.3131 H   0  0  0  0  0  0  0  0  0  0  0  0
   45.9221   31.9714   49.6992 H   0  0  0  0  0  0  0  0  0  0  0  0
   47.3713   31.8115   48.6499 H   0  0  0  0  0  0  0  0  0  0  0  0
   46.4267   33.3393   48.6499 H   0  0  0  0  0  0  0  0  0  0  0  0
   44.9063   30.3884   49.2080 H   0  0  0  0  0  0  0  0  0  0  0  0
   43.8761   30.2798   47.7405 H   0  0  0  0  0  0  0  0  0  0  0  0
   45.5187   29.5529   47.7405 H   0  0  0  0  0  0  0  0  0  0  0  0
  1  6  2  0
  2  1  1  0
  3  4  1  0
  3  2  2  0
  4  5  2  0
  5  7  1  0
  5  6  1  0
  7 11  1  0
  8  9  2  0
  8  7  1  0
  9 10  1  0
 10 11  2  0
 11 12  1  0
 12 14  1  0
 12 13  1  0
  1 15  1  0
  2 16  1  0
  3 17  1  0
  8 18  1  0
  9 19  1  0
 12 20  1  0
 13 21  1  0
 13 22  1  0
 13 23  1  0
 14 24  1  0
 14 25  1  0
 14 26  1  0
M  ISO  8  15  14  16  14  17  14  18  14  19  14  20   8  21   8  22   8
M  ISO  4  23   8  24   8  25   8  26   8
M  END
>  <minimizedAffinity>  (1) 
-4.22787094

>  <minimizedRMSD>  (1) 
2.41503191

$$$$
