
     RDKit          3D

 35 36  0  0  1  0  0  0  0  0999 V2000
   44.5570   34.2060   41.0790 C   0  0  2  0  0  0  0  0  0  0  0  0
   45.1380   33.4740   39.8710 C   0  0  0  0  0  0  0  0  0  0  0  0
   43.3530   34.9630   40.5840 C   0  0  0  0  0  0  0  0  0  0  0  0
   42.0840   34.6200   41.1030 N   0  0  0  0  0  0  0  0  0  0  0  0
   41.5150   33.5660   40.2590 C   0  0  0  0  0  0  0  0  0  0  0  0
   41.1660   34.1290   38.9190 C   0  0  0  0  0  0  0  0  0  0  0  0
   39.8720   34.8960   39.1040 C   0  0  0  0  0  0  0  0  0  0  0  0
   39.8650   35.5400   40.4410 C   0  0  0  0  0  0  0  0  0  0  0  0
   41.2430   35.8120   40.9940 C   0  0  0  0  0  0  0  0  0  0  0  0
   45.5210   35.0620   41.6260 O   0  0  0  0  0  0  0  0  0  0  0  0
   46.7200   34.5890   42.0840 C   0  0  0  0  0  0  0  0  0  0  0  0
   47.8680   35.1950   41.5680 C   0  0  0  0  0  0  0  0  0  0  0  0
   49.1200   34.7050   42.0240 C   0  0  0  0  0  0  0  0  0  0  0  0
   49.1210   33.6900   42.9210 N   0  0  0  0  0  0  0  0  0  0  0  0
   48.0030   33.1400   43.3910 C   0  0  0  0  0  0  0  0  0  0  0  0
   46.8360   33.5980   42.9660 N   0  0  0  0  0  0  0  0  0  0  0  0
   44.2618   33.5102   41.8783 H   0  0  0  0  0  0  0  0  0  0  0  0
   45.7874   32.6558   40.2156 H   0  0  0  0  0  0  0  0  0  0  0  0
   44.3190   33.0611   39.2637 H   0  0  0  0  0  0  0  0  0  0  0  0
   45.7260   34.1779   39.2637 H   0  0  0  0  0  0  0  0  0  0  0  0
   43.5210   36.0260   40.8114 H   0  0  0  0  0  0  0  0  0  0  0  0
   43.2888   34.7018   39.5174 H   0  0  0  0  0  0  0  0  0  0  0  0
   42.2515   32.7582   40.1360 H   0  0  0  0  0  0  0  0  0  0  0  0
   40.6069   33.1676   40.7352 H   0  0  0  0  0  0  0  0  0  0  0  0
   41.0269   33.3176   38.1894 H   0  0  0  0  0  0  0  0  0  0  0  0
   41.9662   34.7807   38.5383 H   0  0  0  0  0  0  0  0  0  0  0  0
   39.7888   35.6680   38.3248 H   0  0  0  0  0  0  0  0  0  0  0  0
   39.0211   34.2033   39.0264 H   0  0  0  0  0  0  0  0  0  0  0  0
   39.3280   36.4968   40.3622 H   0  0  0  0  0  0  0  0  0  0  0  0
   39.3756   34.8379   41.1320 H   0  0  0  0  0  0  0  0  0  0  0  0
   41.7463   36.5315   40.3314 H   0  0  0  0  0  0  0  0  0  0  0  0
   41.1067   36.2009   42.0139 H   0  0  0  0  0  0  0  0  0  0  0  0
   47.8046   36.0167   40.8395 H   0  0  0  0  0  0  0  0  0  0  0  0
   50.0632   35.1376   41.6590 H   0  0  0  0  0  0  0  0  0  0  0  0
   48.0485   32.3182   44.1208 H   0  0  0  0  0  0  0  0  0  0  0  0
  1 10  1  0
  2  1  1  0
  3  1  1  0
  3  4  1  0
  5  4  1  0
  6  7  1  0
  6  5  1  0
  7  8  1  0
  8  9  1  0
  9  4  1  0
 10 11  1  0
 11 16  2  0
 12 13  2  0
 12 11  1  0
 13 14  1  0
 14 15  2  0
 16 15  1  0
  1 17  1  1
  2 18  1  0
  2 19  1  0
  2 20  1  0
  3 21  1  0
  3 22  1  0
  5 23  1  0
  5 24  1  0
  6 25  1  0
  6 26  1  0
  7 27  1  0
  7 28  1  0
  8 29  1  0
  8 30  1  0
  9 31  1  0
  9 32  1  0
 12 33  1  0
 13 34  1  0
 15 35  1  0
M  ISO  8  17   8  18   8  19   8  20   8  21   8  22   8  23  13  24  13
M  ISO  8  25  13  26  13  27  13  28  13  29  13  30  13  31  13  32  13
M  ISO  3  33  14  34  14  35  14
M  END
>  <minimizedAffinity>  (1) 
-4.12863541

>  <minimizedRMSD>  (1) 
3.74431825

$$$$
