
     RDKit          3D

 27 28  0  0  1  0  0  0  0  0999 V2000
   45.2890   34.5200   41.6410 C   0  0  2  0  0  0  0  0  0  0  0  0
   44.0790   34.5810   40.7640 C   0  0  0  0  0  0  0  0  0  0  0  0
   45.2060   35.6170   42.7080 C   0  0  0  0  0  0  0  0  0  0  0  0
   45.2020   35.0370   44.0370 N   0  0  0  0  0  0  0  0  0  0  0  0
   44.4990   35.5790   45.0410 N   0  0  0  0  0  0  0  0  0  0  0  0
   44.6520   34.8670   46.1640 C   0  0  0  0  0  0  0  0  0  0  0  0
   45.5030   33.8060   45.8650 C   0  0  0  0  0  0  0  0  0  0  0  0
   45.8180   33.9490   44.5370 C   0  0  0  0  0  0  0  0  0  0  0  0
   46.4880   34.6430   40.9220 O   0  0  0  0  0  0  0  0  0  0  0  0
   47.7220   34.4950   41.4520 C   0  0  0  0  0  0  0  0  0  0  0  0
   48.1120   33.1680   41.6750 C   0  0  0  0  0  0  0  0  0  0  0  0
   49.3790   32.9350   42.2300 C   0  0  0  0  0  0  0  0  0  0  0  0
   50.1730   34.0220   42.5240 N   0  0  0  0  0  0  0  0  0  0  0  0
   49.7570   35.2670   42.2910 C   0  0  0  0  0  0  0  0  0  0  0  0
   48.5540   35.4720   41.7650 N   0  0  0  0  0  0  0  0  0  0  0  0
   45.2994   33.5271   42.1143 H   0  0  0  0  0  0  0  0  0  0  0  0
   43.1750   34.6266   41.3891 H   0  0  0  0  0  0  0  0  0  0  0  0
   44.1313   35.4777   40.1290 H   0  0  0  0  0  0  0  0  0  0  0  0
   44.0408   33.6836   40.1290 H   0  0  0  0  0  0  0  0  0  0  0  0
   46.0740   36.2852   42.6078 H   0  0  0  0  0  0  0  0  0  0  0  0
   44.2728   36.1814   42.5645 H   0  0  0  0  0  0  0  0  0  0  0  0
   44.1918   35.0800   47.1401 H   0  0  0  0  0  0  0  0  0  0  0  0
   45.8500   33.0183   46.5499 H   0  0  0  0  0  0  0  0  0  0  0  0
   46.4750   33.2759   43.9666 H   0  0  0  0  0  0  0  0  0  0  0  0
   47.4433   32.3321   41.4219 H   0  0  0  0  0  0  0  0  0  0  0  0
   49.7296   31.9109   42.4255 H   0  0  0  0  0  0  0  0  0  0  0  0
   50.4068   36.1209   42.5331 H   0  0  0  0  0  0  0  0  0  0  0  0
  1  3  1  0
  2  1  1  0
  3  4  1  0
  4  8  1  0
  4  5  1  0
  5  6  2  0
  7  6  1  0
  8  7  2  0
  9 10  1  0
  9  1  1  0
 10 11  2  0
 10 15  1  0
 11 12  1  0
 12 13  2  0
 14 13  1  0
 15 14  2  0
  1 16  1  1
  2 17  1  0
  2 18  1  0
  2 19  1  0
  3 20  1  0
  3 21  1  0
  6 22  1  0
  7 23  1  0
  8 24  1  0
 11 25  1  0
 12 26  1  0
 14 27  1  0
M  ISO  8  16   8  17   8  18   8  19   8  20   8  21   8  22  14  23  14
M  ISO  4  24  14  25  14  26  14  27  14
M  END
>  <minimizedAffinity>  (1) 
-4.11694527

>  <minimizedRMSD>  (1) 
2.58738351

$$$$
