
     RDKit          3D

 27 28  0  0  1  0  0  0  0  0999 V2000
   46.8130   34.1230   41.1020 C   0  0  2  0  0  0  0  0  0  0  0  0
   47.8300   34.3960   40.0400 C   0  0  0  0  0  0  0  0  0  0  0  0
   45.4200   34.0320   40.4630 C   0  0  0  0  0  0  0  0  0  0  0  0
   45.4160   33.1260   39.3040 C   0  0  0  0  0  0  0  0  0  0  0  0
   45.7190   31.7980   39.0620 C   0  0  0  0  0  0  0  0  0  0  0  0
   45.5180   31.5230   37.7670 N   0  0  0  0  0  0  0  0  0  0  0  0
   45.0970   32.6480   37.2010 C   0  0  0  0  0  0  0  0  0  0  0  0
   45.0200   33.6620   38.1120 N   0  0  0  0  0  0  0  0  0  0  0  0
   46.7900   35.1190   42.0890 O   0  0  0  0  0  0  0  0  0  0  0  0
   46.1130   35.0410   43.2560 C   0  0  0  0  0  0  0  0  0  0  0  0
   46.4560   33.9480   44.0650 C   0  0  0  0  0  0  0  0  0  0  0  0
   45.7970   33.7870   45.2980 C   0  0  0  0  0  0  0  0  0  0  0  0
   44.8480   34.7240   45.6290 N   0  0  0  0  0  0  0  0  0  0  0  0
   44.5500   35.7510   44.8320 C   0  0  0  0  0  0  0  0  0  0  0  0
   45.1850   35.8800   43.6780 N   0  0  0  0  0  0  0  0  0  0  0  0
   47.0906   33.1736   41.5833 H   0  0  0  0  0  0  0  0  0  0  0  0
   48.7906   34.6539   40.5098 H   0  0  0  0  0  0  0  0  0  0  0  0
   47.9566   33.5000   39.4145 H   0  0  0  0  0  0  0  0  0  0  0  0
   47.4909   35.2349   39.4145 H   0  0  0  0  0  0  0  0  0  0  0  0
   44.7071   33.6571   41.2121 H   0  0  0  0  0  0  0  0  0  0  0  0
   45.1331   35.0359   40.1169 H   0  0  0  0  0  0  0  0  0  0  0  0
   46.0707   31.0791   39.8167 H   0  0  0  0  0  0  0  0  0  0  0  0
   44.8430   32.7498   36.1356 H   0  0  0  0  0  0  0  0  0  0  0  0
   44.7238   34.6327   37.9362 H   0  0  0  0  0  0  0  0  0  0  0  0
   47.2249   33.2307   43.7422 H   0  0  0  0  0  0  0  0  0  0  0  0
   46.0316   32.9469   45.9682 H   0  0  0  0  0  0  0  0  0  0  0  0
   43.7849   36.4828   45.1305 H   0  0  0  0  0  0  0  0  0  0  0  0
  1  9  1  0
  2  1  1  0
  3  1  1  0
  4  3  1  0
  5  4  2  0
  6  5  1  0
  7  6  2  0
  7  8  1  0
  8  4  1  0
  9 10  1  0
 10 15  1  0
 10 11  2  0
 11 12  1  0
 12 13  2  0
 14 13  1  0
 15 14  2  0
  1 16  1  1
  2 17  1  0
  2 18  1  0
  2 19  1  0
  3 20  1  0
  3 21  1  0
  5 22  1  0
  7 23  1  0
  8 24  1  0
 11 25  1  0
 12 26  1  0
 14 27  1  0
M  ISO  8  16   8  17   8  18   8  19   8  20   8  21   8  22  14  23  14
M  ISO  4  24   9  25  14  26  14  27  14
M  END
>  <minimizedAffinity>  (1) 
-3.92618656

>  <minimizedRMSD>  (1) 
4.83933544

$$$$
