
     RDKit          3D

 44 47  0  0  1  0  0  0  0  0999 V2000
   47.2700   33.2490   43.0590 C   0  0  0  0  0  0  0  0  0  0  0  0
   46.7230   31.9950   43.2240 C   0  0  0  0  0  0  0  0  0  0  0  0
   45.3700   31.8330   43.2380 C   0  0  0  0  0  0  0  0  0  0  0  0
   44.5220   32.8540   43.0970 N   0  0  0  0  0  0  0  0  0  0  0  0
   45.0570   34.0600   42.9390 C   0  0  0  0  0  0  0  0  0  0  0  0
   46.3750   34.2530   42.9200 N   0  0  0  0  0  0  0  0  0  0  0  0
   49.5550   33.5250   41.7970 C   0  0  1  0  0  0  0  0  0  0  0  0
   49.2640   34.8070   42.5000 C   0  0  0  0  0  0  0  0  0  0  0  0
   48.7240   33.5980   43.0550 C   0  0  1  0  0  0  0  0  0  0  0  0
   47.8310   34.0970   38.5520 C   0  0  0  0  0  0  0  0  0  0  0  0
   48.4190   34.3510   39.8370 C   0  0  0  0  0  0  0  0  0  0  0  0
   48.9700   33.2530   40.4930 C   0  0  0  0  0  0  0  0  0  0  0  0
   48.9360   32.0260   39.9210 N   0  0  0  0  0  0  0  0  0  0  0  0
   48.3830   31.8120   38.7210 C   0  0  0  0  0  0  0  0  0  0  0  0
   47.8260   32.8390   38.0220 N   0  0  0  0  0  0  0  0  0  0  0  0
   44.1440   35.2260   42.7980 C   0  0  1  0  0  0  0  0  0  0  0  0
   44.7070   36.3730   43.5530 C   0  0  0  0  0  0  0  0  0  0  0  0
   43.9090   35.5800   41.3500 C   0  0  0  0  0  0  0  0  0  0  0  0
   42.6480   35.1570   40.8370 N   0  0  0  0  0  0  0  0  0  0  0  0
   41.5780   35.8410   41.2960 C   0  0  0  0  0  0  0  0  0  0  0  0
   40.2800   35.5680   40.9100 C   0  0  0  0  0  0  0  0  0  0  0  0
   40.0820   34.5470   40.0120 C   0  0  0  0  0  0  0  0  0  0  0  0
   38.9120   34.2700   39.6370 O   0  0  0  0  0  0  0  0  0  0  0  0
   41.1790   33.8950   39.5830 N   0  0  0  0  0  0  0  0  0  0  0  0
   42.4280   34.1620   39.9600 C   0  0  0  0  0  0  0  0  0  0  0  0
   43.4400   33.5400   39.5470 O   0  0  0  0  0  0  0  0  0  0  0  0
   47.3808   31.1217   43.3448 H   0  0  0  0  0  0  0  0  0  0  0  0
   44.9605   30.8207   43.3708 H   0  0  0  0  0  0  0  0  0  0  0  0
   50.4467   32.9646   41.4795 H   0  0  0  0  0  0  0  0  0  0  0  0
   50.0727   35.3342   43.0274 H   0  0  0  0  0  0  0  0  0  0  0  0
   48.8283   35.7683   42.1899 H   0  0  0  0  0  0  0  0  0  0  0  0
   48.7615   33.1383   44.0536 H   0  0  0  0  0  0  0  0  0  0  0  0
   47.3791   34.9261   37.9878 H   0  0  0  0  0  0  0  0  0  0  0  0
   48.4335   35.3581   40.2793 H   0  0  0  0  0  0  0  0  0  0  0  0
   48.3785   30.7975   38.2959 H   0  0  0  0  0  0  0  0  0  0  0  0
   43.1610   34.9635   43.2160 H   0  0  0  0  0  0  0  0  0  0  0  0
   44.6136   36.1828   44.6324 H   0  0  0  0  0  0  0  0  0  0  0  0
   45.7686   36.4974   43.2931 H   0  0  0  0  0  0  0  0  0  0  0  0
   44.1561   37.2889   43.2931 H   0  0  0  0  0  0  0  0  0  0  0  0
   43.9722   36.6735   41.2486 H   0  0  0  0  0  0  0  0  0  0  0  0
   44.6779   35.0500   40.7687 H   0  0  0  0  0  0  0  0  0  0  0  0
   41.7486   36.6570   42.0137 H   0  0  0  0  0  0  0  0  0  0  0  0
   39.4342   36.1479   41.3078 H   0  0  0  0  0  0  0  0  0  0  0  0
   41.0412   33.1282   38.9092 H   0  0  0  0  0  0  0  0  0  0  0  0
  1  2  2  0
  2  3  1  0
  4  3  2  0
  5  4  1  0
  6  5  2  0
  6  1  1  0
  7  8  1  0
  7  9  1  0
  8  9  1  0
  9  1  1  0
 10 11  2  0
 11 12  1  0
 12  7  1  0
 13 12  2  0
 14 13  1  0
 15 10  1  0
 15 14  2  0
 16  5  1  0
 16 17  1  0
 18 16  1  0
 19 20  1  0
 19 18  1  0
 21 20  2  0
 22 21  1  0
 23 22  2  0
 24 25  1  0
 24 22  1  0
 25 19  1  0
 26 25  2  0
  2 27  1  0
  3 28  1  0
  7 29  1  1
  8 30  1  0
  8 31  1  0
  9 32  1  1
 10 33  1  0
 11 34  1  0
 14 35  1  0
 16 36  1  1
 17 37  1  0
 17 38  1  0
 17 39  1  0
 18 40  1  0
 18 41  1  0
 20 42  1  0
 21 43  1  0
 24 44  1  0
M  ISO  8  27  14  28  14  29  13  30  13  31  13  32  13  33  14  34  14
M  ISO  8  35  14  36   8  37   8  38   8  39   8  40   8  41   8  42  14
M  ISO  2  43  14  44   9
M  END
>  <minimizedAffinity>  (1) 
-5.4729352

>  <minimizedRMSD>  (1) 
3.15118337

$$$$
