
     RDKit          3D

 32 33  0  0  1  0  0  0  0  0999 V2000
   43.9000   33.7600   41.7360 C   0  0  2  0  0  0  0  0  0  0  0  0
   43.2930   32.3840   42.0060 C   0  0  0  0  0  0  0  0  0  0  0  0
   42.7900   34.7380   41.5320 C   0  0  0  0  0  0  0  0  0  0  0  0
   41.6970   34.1000   40.8160 N   0  0  0  0  0  0  0  0  0  0  0  0
   40.4170   34.5840   41.3550 C   0  0  0  0  0  0  0  0  0  0  0  0
   39.5890   35.0280   40.1720 C   0  0  0  0  0  0  0  0  0  0  0  0
   40.7160   35.6950   39.3620 C   0  0  0  0  0  0  0  0  0  0  0  0
   41.7210   34.5320   39.4360 C   0  0  0  0  0  0  0  0  0  0  0  0
   44.8120   33.7330   40.6840 O   0  0  0  0  0  0  0  0  0  0  0  0
   46.0940   34.1660   40.8080 C   0  0  0  0  0  0  0  0  0  0  0  0
   46.4380   34.7750   42.0230 C   0  0  0  0  0  0  0  0  0  0  0  0
   47.7610   35.2300   42.1530 C   0  0  0  0  0  0  0  0  0  0  0  0
   48.6230   35.0620   41.1230 N   0  0  0  0  0  0  0  0  0  0  0  0
   48.2530   34.4700   39.9710 C   0  0  0  0  0  0  0  0  0  0  0  0
   47.0120   34.0410   39.8410 N   0  0  0  0  0  0  0  0  0  0  0  0
   44.4907   34.0824   42.6061 H   0  0  0  0  0  0  0  0  0  0  0  0
   43.2213   32.2215   43.0916 H   0  0  0  0  0  0  0  0  0  0  0  0
   42.2886   32.3325   41.5604 H   0  0  0  0  0  0  0  0  0  0  0  0
   43.9321   31.6075   41.5604 H   0  0  0  0  0  0  0  0  0  0  0  0
   42.4296   35.0906   42.5097 H   0  0  0  0  0  0  0  0  0  0  0  0
   43.1606   35.5907   40.9442 H   0  0  0  0  0  0  0  0  0  0  0  0
   39.9031   33.7755   41.8956 H   0  0  0  0  0  0  0  0  0  0  0  0
   40.5728   35.4118   42.0624 H   0  0  0  0  0  0  0  0  0  0  0  0
   39.1373   34.1795   39.6373 H   0  0  0  0  0  0  0  0  0  0  0  0
   38.7189   35.6607   40.4012 H   0  0  0  0  0  0  0  0  0  0  0  0
   41.0949   36.6087   39.8432 H   0  0  0  0  0  0  0  0  0  0  0  0
   40.4517   36.0515   38.3555 H   0  0  0  0  0  0  0  0  0  0  0  0
   41.4132   33.7128   38.7696 H   0  0  0  0  0  0  0  0  0  0  0  0
   42.7286   34.8373   39.1174 H   0  0  0  0  0  0  0  0  0  0  0  0
   45.7066   34.8912   42.8363 H   0  0  0  0  0  0  0  0  0  0  0  0
   48.0926   35.7174   43.0817 H   0  0  0  0  0  0  0  0  0  0  0  0
   48.9750   34.3460   39.1505 H   0  0  0  0  0  0  0  0  0  0  0  0
  1  2  1  0
  3  1  1  0
  4  5  1  0
  4  3  1  0
  6  5  1  0
  7  8  1  0
  7  6  1  0
  8  4  1  0
  9 10  1  0
  9  1  1  0
 10 11  2  0
 11 12  1  0
 13 12  2  0
 14 13  1  0
 15 14  2  0
 15 10  1  0
  1 16  1  1
  2 17  1  0
  2 18  1  0
  2 19  1  0
  3 20  1  0
  3 21  1  0
  5 22  1  0
  5 23  1  0
  6 24  1  0
  6 25  1  0
  7 26  1  0
  7 27  1  0
  8 28  1  0
  8 29  1  0
 11 30  1  0
 12 31  1  0
 14 32  1  0
M  ISO  8  16   8  17   8  18   8  19   8  20   8  21   8  22  13  23  13
M  ISO  8  24  13  25  13  26  13  27  13  28  13  29  13  30  14  31  14
M  ISO  1  32  14
M  END
>  <minimizedAffinity>  (1) 
-3.89118123

>  <minimizedRMSD>  (1) 
1.93569589

$$$$
