
     RDKit          3D

 33 34  0  0  1  0  0  0  0  0999 V2000
   44.8640   32.7860   39.0360 C   0  0  2  0  0  0  0  0  0  0  0  0
   43.3580   32.7960   39.1510 C   0  0  0  0  0  0  0  0  0  0  0  0
   45.4160   33.6250   40.1700 C   0  0  0  0  0  0  0  0  0  0  0  0
   46.5480   33.1210   40.8560 N   0  0  0  0  0  0  0  0  0  0  0  0
   46.1780   32.9210   42.2680 C   0  0  0  0  0  0  0  0  0  0  0  0
   45.8760   34.2580   42.8660 C   0  0  0  0  0  0  0  0  0  0  0  0
   47.1490   34.8430   43.0790 O   0  0  0  0  0  0  0  0  0  0  0  0
   47.7420   35.0710   41.8770 C   0  0  0  0  0  0  0  0  0  0  0  0
   47.6840   34.0320   40.8320 C   0  0  0  0  0  0  0  0  0  0  0  0
   45.2900   33.2270   37.7790 O   0  0  0  0  0  0  0  0  0  0  0  0
   46.5590   32.9670   37.3180 C   0  0  0  0  0  0  0  0  0  0  0  0
   46.8320   31.6440   36.9640 C   0  0  0  0  0  0  0  0  0  0  0  0
   48.1300   31.3770   36.5020 C   0  0  0  0  0  0  0  0  0  0  0  0
   49.0270   32.3950   36.4280 N   0  0  0  0  0  0  0  0  0  0  0  0
   48.7140   33.6430   36.7780 C   0  0  0  0  0  0  0  0  0  0  0  0
   47.5010   33.9120   37.2120 N   0  0  0  0  0  0  0  0  0  0  0  0
   45.2487   31.7591   39.1228 H   0  0  0  0  0  0  0  0  0  0  0  0
   43.0714   32.7979   40.2130 H   0  0  0  0  0  0  0  0  0  0  0  0
   42.9589   33.6968   38.6619 H   0  0  0  0  0  0  0  0  0  0  0  0
   42.9470   31.9006   38.6619 H   0  0  0  0  0  0  0  0  0  0  0  0
   45.6909   34.6052   39.7532 H   0  0  0  0  0  0  0  0  0  0  0  0
   44.6144   33.6469   40.9230 H   0  0  0  0  0  0  0  0  0  0  0  0
   45.2899   32.2752   42.3323 H   0  0  0  0  0  0  0  0  0  0  0  0
   47.0034   32.4391   42.8124 H   0  0  0  0  0  0  0  0  0  0  0  0
   45.2778   34.8683   42.1734 H   0  0  0  0  0  0  0  0  0  0  0  0
   45.2892   34.1804   43.7931 H   0  0  0  0  0  0  0  0  0  0  0  0
   47.2766   35.9746   41.4565 H   0  0  0  0  0  0  0  0  0  0  0  0
   48.8124   35.1314   42.1233 H   0  0  0  0  0  0  0  0  0  0  0  0
   48.5965   33.4241   40.9199 H   0  0  0  0  0  0  0  0  0  0  0  0
   47.5798   34.5873   39.8882 H   0  0  0  0  0  0  0  0  0  0  0  0
   46.0708   30.8539   37.0430 H   0  0  0  0  0  0  0  0  0  0  0  0
   48.4172   30.3579   36.2039 H   0  0  0  0  0  0  0  0  0  0  0  0
   49.4653   34.4431   36.7044 H   0  0  0  0  0  0  0  0  0  0  0  0
  1  2  1  0
  1  3  1  0
  3  4  1  0
  4  5  1  0
  5  6  1  0
  6  7  1  0
  8  7  1  0
  9  4  1  0
  9  8  1  0
 10  1  1  0
 11 10  1  0
 12 11  2  0
 13 12  1  0
 14 13  2  0
 14 15  1  0
 15 16  2  0
 16 11  1  0
  1 17  1  1
  2 18  1  0
  2 19  1  0
  2 20  1  0
  3 21  1  0
  3 22  1  0
  5 23  1  0
  5 24  1  0
  6 25  1  0
  6 26  1  0
  8 27  1  0
  8 28  1  0
  9 29  1  0
  9 30  1  0
 12 31  1  0
 13 32  1  0
 15 33  1  0
M  ISO  8  17   8  18   8  19   8  20   8  21   8  22   8  23  13  24  13
M  ISO  8  25  13  26  13  27  13  28  13  29  13  30  13  31  14  32  14
M  ISO  1  33  14
M  END
>  <minimizedAffinity>  (1) 
-2.8341856

>  <minimizedRMSD>  (1) 
4.58587551

$$$$
