
     RDKit          3D

 33 34  0  0  1  0  0  0  0  0999 V2000
   46.0640   32.9590   40.4870 C   0  0  2  0  0  0  0  0  0  0  0  0
   45.6660   31.8490   39.5640 C   0  0  0  0  0  0  0  0  0  0  0  0
   44.8910   33.9220   40.6720 C   0  0  0  0  0  0  0  0  0  0  0  0
   44.7750   34.3530   42.0510 N   0  0  0  0  0  0  0  0  0  0  0  0
   45.4940   33.7640   43.0250 C   0  0  0  0  0  0  0  0  0  0  0  0
   45.4580   34.0960   44.3630 C   0  0  0  0  0  0  0  0  0  0  0  0
   46.3020   33.3710   45.3520 C   0  0  0  0  0  0  0  0  0  0  0  0
   44.5930   35.1290   44.6680 C   0  0  0  0  0  0  0  0  0  0  0  0
   44.5140   35.4840   45.8810 O   0  0  0  0  0  0  0  0  0  0  0  0
   43.8590   35.7400   43.7110 N   0  0  0  0  0  0  0  0  0  0  0  0
   43.9490   35.3560   42.4230 C   0  0  0  0  0  0  0  0  0  0  0  0
   43.2680   35.9210   41.5240 O   0  0  0  0  0  0  0  0  0  0  0  0
   47.1920   33.6680   40.0390 O   0  0  0  0  0  0  0  0  0  0  0  0
   48.1620   34.1580   40.8380 C   0  0  0  0  0  0  0  0  0  0  0  0
   48.9440   33.1880   41.4750 C   0  0  0  0  0  0  0  0  0  0  0  0
   49.9750   33.6130   42.3310 C   0  0  0  0  0  0  0  0  0  0  0  0
   50.1580   34.9670   42.4930 N   0  0  0  0  0  0  0  0  0  0  0  0
   49.3880   35.8530   41.8630 C   0  0  0  0  0  0  0  0  0  0  0  0
   48.4160   35.4350   41.0580 N   0  0  0  0  0  0  0  0  0  0  0  0
   46.3358   32.4956   41.4469 H   0  0  0  0  0  0  0  0  0  0  0  0
   45.3528   30.9755   40.1547 H   0  0  0  0  0  0  0  0  0  0  0  0
   44.8310   32.1812   38.9297 H   0  0  0  0  0  0  0  0  0  0  0  0
   46.5219   31.5749   38.9297 H   0  0  0  0  0  0  0  0  0  0  0  0
   45.0472   34.8037   40.0331 H   0  0  0  0  0  0  0  0  0  0  0  0
   43.9648   33.3981   40.3932 H   0  0  0  0  0  0  0  0  0  0  0  0
   46.1684   32.9474   42.7279 H   0  0  0  0  0  0  0  0  0  0  0  0
   45.9872   33.6414   46.3707 H   0  0  0  0  0  0  0  0  0  0  0  0
   46.1860   32.2867   45.2080 H   0  0  0  0  0  0  0  0  0  0  0  0
   47.3564   33.6492   45.2080 H   0  0  0  0  0  0  0  0  0  0  0  0
   43.2235   36.5082   43.9698 H   0  0  0  0  0  0  0  0  0  0  0  0
   48.7562   32.1168   41.3096 H   0  0  0  0  0  0  0  0  0  0  0  0
   50.6145   32.8868   42.8542 H   0  0  0  0  0  0  0  0  0  0  0  0
   49.5564   36.9302   42.0088 H   0  0  0  0  0  0  0  0  0  0  0  0
  1  3  1  0
  2  1  1  0
  3  4  1  0
  4 11  1  0
  4  5  1  0
  5  6  2  0
  6  8  1  0
  6  7  1  0
  8  9  2  0
 10  8  1  0
 11 10  1  0
 12 11  2  0
 13  1  1  0
 13 14  1  0
 14 19  1  0
 14 15  2  0
 15 16  1  0
 16 17  2  0
 18 17  1  0
 19 18  2  0
  1 20  1  1
  2 21  1  0
  2 22  1  0
  2 23  1  0
  3 24  1  0
  3 25  1  0
  5 26  1  0
  7 27  1  0
  7 28  1  0
  7 29  1  0
 10 30  1  0
 15 31  1  0
 16 32  1  0
 18 33  1  0
M  ISO  8  20   8  21   8  22   8  23   8  24   8  25   8  26  14  27   8
M  ISO  6  28   8  29   8  30   9  31  14  32  14  33  14
M  END
>  <minimizedAffinity>  (1) 
-5.1279254

>  <minimizedRMSD>  (1) 
2.69517875

$$$$
