
     RDKit          3D

 41 44  0  0  1  0  0  0  0  0999 V2000
   46.3340   33.8870   42.4030 C   0  0  0  0  0  0  0  0  0  0  0  0
   45.8700   32.7140   42.9570 C   0  0  0  0  0  0  0  0  0  0  0  0
   44.5730   32.3330   42.7710 C   0  0  0  0  0  0  0  0  0  0  0  0
   43.7070   33.0600   42.0620 N   0  0  0  0  0  0  0  0  0  0  0  0
   44.1610   34.1870   41.5330 C   0  0  0  0  0  0  0  0  0  0  0  0
   45.4220   34.5890   41.6930 N   0  0  0  0  0  0  0  0  0  0  0  0
   48.7820   34.1980   41.5110 C   0  0  1  0  0  0  0  0  0  0  0  0
   48.2100   35.5520   41.7570 C   0  0  0  0  0  0  0  0  0  0  0  0
   47.7090   34.4580   42.5400 C   0  0  1  0  0  0  0  0  0  0  0  0
   47.8480   33.6450   37.9550 C   0  0  0  0  0  0  0  0  0  0  0  0
   48.1280   34.3090   39.1940 C   0  0  0  0  0  0  0  0  0  0  0  0
   48.5100   33.5000   40.2660 C   0  0  0  0  0  0  0  0  0  0  0  0
   48.5990   32.1580   40.1030 N   0  0  0  0  0  0  0  0  0  0  0  0
   48.3330   31.5590   38.9380 C   0  0  0  0  0  0  0  0  0  0  0  0
   47.9560   32.2860   37.8520 N   0  0  0  0  0  0  0  0  0  0  0  0
   43.2200   35.0350   40.7490 C   0  0  1  0  0  0  0  0  0  0  0  0
   42.7730   34.2740   39.5520 C   0  0  0  0  0  0  0  0  0  0  0  0
   42.0410   35.4880   41.5750 C   0  0  0  0  0  0  0  0  0  0  0  0
   40.7950   34.8150   41.2170 C   0  0  0  0  0  0  0  0  0  0  0  0
   39.9400   35.3840   40.2720 C   0  0  0  0  0  0  0  0  0  0  0  0
   38.8620   34.5400   40.1380 C   0  0  0  0  0  0  0  0  0  0  0  0
   39.0780   33.4990   40.9840 N   0  0  0  0  0  0  0  0  0  0  0  0
   40.2310   33.6670   41.6230 N   0  0  0  0  0  0  0  0  0  0  0  0
   46.5471   32.0827   43.5511 H   0  0  0  0  0  0  0  0  0  0  0  0
   44.2282   31.3911   43.2225 H   0  0  0  0  0  0  0  0  0  0  0  0
   49.7781   33.7315   41.5188 H   0  0  0  0  0  0  0  0  0  0  0  0
   48.8287   36.3254   42.2357 H   0  0  0  0  0  0  0  0  0  0  0  0
   47.7405   36.3126   41.1159 H   0  0  0  0  0  0  0  0  0  0  0  0
   47.5940   34.2877   43.6206 H   0  0  0  0  0  0  0  0  0  0  0  0
   47.5431   34.2349   37.0780 H   0  0  0  0  0  0  0  0  0  0  0  0
   48.0460   35.4013   39.2953 H   0  0  0  0  0  0  0  0  0  0  0  0
   48.4200   30.4655   38.8566 H   0  0  0  0  0  0  0  0  0  0  0  0
   43.7465   35.9482   40.4347 H   0  0  0  0  0  0  0  0  0  0  0  0
   42.2400   33.3666   39.8723 H   0  0  0  0  0  0  0  0  0  0  0  0
   42.0997   34.9011   38.9491 H   0  0  0  0  0  0  0  0  0  0  0  0
   43.6486   33.9914   38.9491 H   0  0  0  0  0  0  0  0  0  0  0  0
   42.2569   35.2836   42.6341 H   0  0  0  0  0  0  0  0  0  0  0  0
   41.8998   36.5617   41.3818 H   0  0  0  0  0  0  0  0  0  0  0  0
   40.0985   36.3306   39.7346 H   0  0  0  0  0  0  0  0  0  0  0  0
   37.9950   34.6804   39.4757 H   0  0  0  0  0  0  0  0  0  0  0  0
   38.4425   32.6985   41.1112 H   0  0  0  0  0  0  0  0  0  0  0  0
  1  9  1  0
  1  2  2  0
  3  2  1  0
  4  3  2  0
  5  6  2  0
  5  4  1  0
  6  1  1  0
  7  8  1  0
  7  9  1  0
  8  9  1  0
 10 11  2  0
 11 12  1  0
 12  7  1  0
 13 12  2  0
 14 13  1  0
 15 10  1  0
 15 14  2  0
 16  5  1  0
 16 18  1  0
 17 16  1  0
 19 18  1  0
 19 23  2  0
 20 19  1  0
 21 20  2  0
 21 22  1  0
 22 23  1  0
  2 24  1  0
  3 25  1  0
  7 26  1  1
  8 27  1  0
  8 28  1  0
  9 29  1  1
 10 30  1  0
 11 31  1  0
 14 32  1  0
 16 33  1  6
 17 34  1  0
 17 35  1  0
 17 36  1  0
 18 37  1  0
 18 38  1  0
 20 39  1  0
 21 40  1  0
 22 41  1  0
M  ISO  8  24  14  25  14  26  13  27  13  28  13  29  13  30  14  31  14
M  ISO  8  32  14  33   8  34   8  35   8  36   8  37   8  38   8  39  14
M  ISO  2  40  14  41   9
M  END
>  <minimizedAffinity>  (1) 
-5.40733242

>  <minimizedRMSD>  (1) 
2.63344121

$$$$
