
     RDKit          3D

 47 50  0  0  1  0  0  0  0  0999 V2000
   47.0280   32.2840   38.2160 C   0  0  2  0  0  0  0  0  0  0  0  0
   46.2360   31.7990   37.0510 C   0  0  0  0  0  0  0  0  0  0  0  0
   47.5460   31.0860   38.9690 C   0  0  0  0  0  0  0  0  0  0  0  0
   48.9130   31.1920   39.3750 N   0  0  0  0  0  0  0  0  0  0  0  0
   49.8790   31.3060   38.4640 C   0  0  0  0  0  0  0  0  0  0  0  0
   51.2230   31.4270   38.7220 C   0  0  0  0  0  0  0  0  0  0  0  0
   51.5440   31.4230   40.0790 C   0  0  0  0  0  0  0  0  0  0  0  0
   52.7670   31.5300   40.4110 O   0  0  0  0  0  0  0  0  0  0  0  0
   50.5880   31.3070   41.0410 N   0  0  0  0  0  0  0  0  0  0  0  0
   49.3010   31.1950   40.6790 C   0  0  0  0  0  0  0  0  0  0  0  0
   48.3990   31.0860   41.5640 O   0  0  0  0  0  0  0  0  0  0  0  0
   52.2150   31.5550   37.6330 C   0  0  0  0  0  0  0  0  0  0  0  0
   46.2960   33.1110   39.1140 O   0  0  0  0  0  0  0  0  0  0  0  0
   46.9130   33.9120   40.0140 C   0  0  0  0  0  0  0  0  0  0  0  0
   48.1010   34.5260   39.6790 C   0  0  0  0  0  0  0  0  0  0  0  0
   48.7040   35.3480   40.6270 C   0  0  0  0  0  0  0  0  0  0  0  0
   48.0980   35.5060   41.8330 N   0  0  0  0  0  0  0  0  0  0  0  0
   46.9600   34.9110   42.1460 C   0  0  0  0  0  0  0  0  0  0  0  0
   46.4190   34.1350   41.2090 N   0  0  0  0  0  0  0  0  0  0  0  0
   46.1440   34.9500   43.3890 C   0  0  0  0  0  0  0  0  0  0  0  0
   45.2300   35.9120   43.6320 N   0  0  0  0  0  0  0  0  0  0  0  0
   44.4940   35.9630   44.7320 C   0  0  0  0  0  0  0  0  0  0  0  0
   44.6180   35.0260   45.7070 N   0  0  0  0  0  0  0  0  0  0  0  0
   45.5190   34.0110   45.5510 C   0  0  0  0  0  0  0  0  0  0  0  0
   45.6310   33.0740   46.5470 C   0  0  0  0  0  0  0  0  0  0  0  0
   46.5320   32.0410   46.4110 C   0  0  0  0  0  0  0  0  0  0  0  0
   47.2990   32.0060   45.2420 C   0  0  0  0  0  0  0  0  0  0  0  0
   47.1250   32.9880   44.2890 C   0  0  0  0  0  0  0  0  0  0  0  0
   46.2430   34.0290   44.3820 C   0  0  0  0  0  0  0  0  0  0  0  0
   47.8395   32.9077   37.8130 H   0  0  0  0  0  0  0  0  0  0  0  0
   45.3495   31.2561   37.4108 H   0  0  0  0  0  0  0  0  0  0  0  0
   45.9178   32.6573   36.4411 H   0  0  0  0  0  0  0  0  0  0  0  0
   46.8559   31.1255   36.4411 H   0  0  0  0  0  0  0  0  0  0  0  0
   46.9286   30.9518   39.8695 H   0  0  0  0  0  0  0  0  0  0  0  0
   47.4877   30.2311   38.2793 H   0  0  0  0  0  0  0  0  0  0  0  0
   49.5718   31.3029   37.4078 H   0  0  0  0  0  0  0  0  0  0  0  0
   50.8501   31.3052   42.0371 H   0  0  0  0  0  0  0  0  0  0  0  0
   53.2185   31.6845   38.0645 H   0  0  0  0  0  0  0  0  0  0  0  0
   52.1972   30.6471   37.0122 H   0  0  0  0  0  0  0  0  0  0  0  0
   51.9673   32.4286   37.0122 H   0  0  0  0  0  0  0  0  0  0  0  0
   48.5592   34.3709   38.6911 H   0  0  0  0  0  0  0  0  0  0  0  0
   49.6521   35.8594   40.4043 H   0  0  0  0  0  0  0  0  0  0  0  0
   43.7684   36.7800   44.8582 H   0  0  0  0  0  0  0  0  0  0  0  0
   45.0051   33.1473   47.4486 H   0  0  0  0  0  0  0  0  0  0  0  0
   46.6439   31.2737   47.1912 H   0  0  0  0  0  0  0  0  0  0  0  0
   48.0340   31.2030   45.0840 H   0  0  0  0  0  0  0  0  0  0  0  0
   47.7449   32.9291   43.3822 H   0  0  0  0  0  0  0  0  0  0  0  0
  1  3  1  0
  1 13  1  0
  2  1  1  0
  3  4  1  0
  4 10  1  0
  5  6  2  0
  5  4  1  0
  6  7  1  0
  7  8  2  0
  7  9  1  0
 10  9  1  0
 10 11  2  0
 12  6  1  0
 13 14  1  0
 14 19  1  0
 15 14  2  0
 15 16  1  0
 16 17  2  0
 17 18  1  0
 18 20  1  0
 19 18  2  0
 20 21  2  0
 20 29  1  0
 21 22  1  0
 22 23  2  0
 24 23  1  0
 24 25  2  0
 26 25  1  0
 27 26  2  0
 28 29  2  0
 28 27  1  0
 29 24  1  0
  1 30  1  6
  2 31  1  0
  2 32  1  0
  2 33  1  0
  3 34  1  0
  3 35  1  0
  5 36  1  0
  9 37  1  0
 12 38  1  0
 12 39  1  0
 12 40  1  0
 15 41  1  0
 16 42  1  0
 22 43  1  0
 25 44  1  0
 26 45  1  0
 27 46  1  0
 28 47  1  0
M  ISO  8  30   8  31   8  32   8  33   8  34   8  35   8  36  14  37   9
M  ISO  8  38   8  39   8  40   8  41  14  42  14  43  14  44  14  45  14
M  ISO  2  46  14  47  14
M  END
>  <minimizedAffinity>  (1) 
-6.11883926

>  <minimizedRMSD>  (1) 
6.21157074

$$$$
