
     RDKit          3D

 40 42  0  0  1  0  0  0  0  0999 V2000
   44.3500   32.3170   39.9500 C   0  0  2  0  0  0  0  0  0  0  0  0
   43.4640   31.1290   40.0930 C   0  0  0  0  0  0  0  0  0  0  0  0
   43.5290   33.5510   40.2180 C   0  0  0  0  0  0  0  0  0  0  0  0
   43.8110   34.1900   41.4640 N   0  0  0  0  0  0  0  0  0  0  0  0
   44.8840   33.8340   42.1710 C   0  0  0  0  0  0  0  0  0  0  0  0
   45.2710   34.3770   43.3720 C   0  0  0  0  0  0  0  0  0  0  0  0
   44.4320   35.3800   43.8500 C   0  0  0  0  0  0  0  0  0  0  0  0
   44.7150   35.9370   44.9550 O   0  0  0  0  0  0  0  0  0  0  0  0
   43.3360   35.7660   43.1610 N   0  0  0  0  0  0  0  0  0  0  0  0
   43.0340   35.1790   41.9900 C   0  0  0  0  0  0  0  0  0  0  0  0
   42.0080   35.5290   41.3340 O   0  0  0  0  0  0  0  0  0  0  0  0
   46.4840   33.9130   44.0770 C   0  0  0  0  0  0  0  0  0  0  0  0
   44.9630   32.4370   38.6680 O   0  0  0  0  0  0  0  0  0  0  0  0
   46.1270   33.0980   38.5000 C   0  0  0  0  0  0  0  0  0  0  0  0
   46.5750   33.3850   37.2210 C   0  0  0  0  0  0  0  0  0  0  0  0
   47.7810   34.0740   37.0870 C   0  0  0  0  0  0  0  0  0  0  0  0
   48.4700   34.4360   38.2240 N   0  0  0  0  0  0  0  0  0  0  0  0
   48.0110   34.1440   39.4300 C   0  0  0  0  0  0  0  0  0  0  0  0
   46.8520   33.4820   39.5480 N   0  0  0  0  0  0  0  0  0  0  0  0
   48.6970   34.5030   40.6720 C   0  0  0  0  0  0  0  0  0  0  0  0
   48.8910   35.6670   41.4050 C   0  0  0  0  0  0  0  0  0  0  0  0
   49.6470   35.2850   42.4940 C   0  0  0  0  0  0  0  0  0  0  0  0
   49.8790   33.9140   42.3770 C   0  0  0  0  0  0  0  0  0  0  0  0
   49.3000   33.4930   41.2860 O   0  0  0  0  0  0  0  0  0  0  0  0
   45.1707   32.1951   40.6722 H   0  0  0  0  0  0  0  0  0  0  0  0
   43.3054   30.9163   41.1605 H   0  0  0  0  0  0  0  0  0  0  0  0
   42.4961   31.3335   39.6121 H   0  0  0  0  0  0  0  0  0  0  0  0
   43.9360   30.2596   39.6121 H   0  0  0  0  0  0  0  0  0  0  0  0
   43.7200   34.2730   39.4104 H   0  0  0  0  0  0  0  0  0  0  0  0
   42.4794   33.2251   40.2636 H   0  0  0  0  0  0  0  0  0  0  0  0
   45.5153   33.0346   41.7557 H   0  0  0  0  0  0  0  0  0  0  0  0
   42.7307   36.5114   43.5336 H   0  0  0  0  0  0  0  0  0  0  0  0
   46.3229   33.9746   45.1634 H   0  0  0  0  0  0  0  0  0  0  0  0
   46.6952   32.8706   43.7962 H   0  0  0  0  0  0  0  0  0  0  0  0
   47.3369   34.5483   43.7962 H   0  0  0  0  0  0  0  0  0  0  0  0
   45.9969   33.0787   36.3367 H   0  0  0  0  0  0  0  0  0  0  0  0
   48.1749   34.3239   36.0908 H   0  0  0  0  0  0  0  0  0  0  0  0
   48.5215   36.6757   41.1682 H   0  0  0  0  0  0  0  0  0  0  0  0
   50.0011   35.9396   43.3040 H   0  0  0  0  0  0  0  0  0  0  0  0
   50.4515   33.2946   43.0831 H   0  0  0  0  0  0  0  0  0  0  0  0
  1  2  1  0
  1  3  1  0
  3  4  1  0
  4 10  1  0
  4  5  1  0
  5  6  2  0
  6  7  1  0
  6 12  1  0
  7  8  2  0
  9  7  1  0
 10  9  1  0
 11 10  2  0
 13  1  1  0
 14 13  1  0
 14 19  1  0
 15 14  2  0
 16 15  1  0
 16 17  2  0
 17 18  1  0
 18 19  2  0
 18 20  1  0
 20 24  1  0
 20 21  2  0
 21 22  1  0
 23 22  2  0
 24 23  1  0
  1 25  1  1
  2 26  1  0
  2 27  1  0
  2 28  1  0
  3 29  1  0
  3 30  1  0
  5 31  1  0
  9 32  1  0
 12 33  1  0
 12 34  1  0
 12 35  1  0
 15 36  1  0
 16 37  1  0
 21 38  1  0
 22 39  1  0
 23 40  1  0
M  ISO  8  25   8  26   8  27   8  28   8  29   8  30   8  31  14  32   9
M  ISO  8  33   8  34   8  35   8  36  14  37  14  38  14  39  14  40  14
M  END
>  <minimizedAffinity>  (1) 
-5.87251425

>  <minimizedRMSD>  (1) 
3.06841636

$$$$
