
     RDKit          3D

 40 42  0  0  1  0  0  0  0  0999 V2000
   44.4490   31.9370   40.2640 C   0  0  2  0  0  0  0  0  0  0  0  0
   43.9960   30.5220   40.3440 C   0  0  0  0  0  0  0  0  0  0  0  0
   43.3200   32.8190   40.7350 C   0  0  0  0  0  0  0  0  0  0  0  0
   43.7000   33.7990   41.7030 N   0  0  0  0  0  0  0  0  0  0  0  0
   44.5440   33.4770   42.6850 C   0  0  0  0  0  0  0  0  0  0  0  0
   44.9960   34.3240   43.6670 C   0  0  0  0  0  0  0  0  0  0  0  0
   44.4950   35.6210   43.5820 C   0  0  0  0  0  0  0  0  0  0  0  0
   44.8580   36.4740   44.4510 O   0  0  0  0  0  0  0  0  0  0  0  0
   43.6410   35.9790   42.6050 N   0  0  0  0  0  0  0  0  0  0  0  0
   43.2500   35.0820   41.6800 C   0  0  0  0  0  0  0  0  0  0  0  0
   42.4450   35.4080   40.7560 O   0  0  0  0  0  0  0  0  0  0  0  0
   45.9370   33.8690   44.7110 C   0  0  0  0  0  0  0  0  0  0  0  0
   44.8450   32.3510   38.9580 O   0  0  0  0  0  0  0  0  0  0  0  0
   45.9980   33.0210   38.7490 C   0  0  0  0  0  0  0  0  0  0  0  0
   46.4340   33.2550   37.4570 C   0  0  0  0  0  0  0  0  0  0  0  0
   47.6280   33.9560   37.2820 C   0  0  0  0  0  0  0  0  0  0  0  0
   48.3170   34.3810   38.3960 N   0  0  0  0  0  0  0  0  0  0  0  0
   47.8690   34.1390   39.6170 C   0  0  0  0  0  0  0  0  0  0  0  0
   46.7240   33.4670   39.7710 N   0  0  0  0  0  0  0  0  0  0  0  0
   48.5840   34.5820   40.7680 N   0  0  0  0  0  0  0  0  0  0  0  0
   49.0170   33.5800   41.5710 C   0  0  0  0  0  0  0  0  0  0  0  0
   49.6910   34.1800   42.6400 C   0  0  0  0  0  0  0  0  0  0  0  0
   49.6410   35.5100   42.4430 N   0  0  0  0  0  0  0  0  0  0  0  0
   48.9610   35.7640   41.2910 C   0  0  0  0  0  0  0  0  0  0  0  0
   45.3435   32.0245   40.8981 H   0  0  0  0  0  0  0  0  0  0  0  0
   43.9014   30.2264   41.3993 H   0  0  0  0  0  0  0  0  0  0  0  0
   43.0205   30.4206   39.8459 H   0  0  0  0  0  0  0  0  0  0  0  0
   44.7312   29.8729   39.8459 H   0  0  0  0  0  0  0  0  0  0  0  0
   42.9046   33.3420   39.8610 H   0  0  0  0  0  0  0  0  0  0  0  0
   42.5905   32.1588   41.2269 H   0  0  0  0  0  0  0  0  0  0  0  0
   44.9106   32.4402   42.7103 H   0  0  0  0  0  0  0  0  0  0  0  0
   43.2846   36.9445   42.5648 H   0  0  0  0  0  0  0  0  0  0  0  0
   45.5107   34.0751   45.7039 H   0  0  0  0  0  0  0  0  0  0  0  0
   46.1095   32.7880   44.6032 H   0  0  0  0  0  0  0  0  0  0  0  0
   46.8914   34.4051   44.6032 H   0  0  0  0  0  0  0  0  0  0  0  0
   45.8557   32.8985   36.5919 H   0  0  0  0  0  0  0  0  0  0  0  0
   48.0118   34.1652   36.2726 H   0  0  0  0  0  0  0  0  0  0  0  0
   48.8673   32.5018   41.4127 H   0  0  0  0  0  0  0  0  0  0  0  0
   50.1715   33.6619   43.4830 H   0  0  0  0  0  0  0  0  0  0  0  0
   48.7563   36.7569   40.8641 H   0  0  0  0  0  0  0  0  0  0  0  0
  1  2  1  0
  1  3  1  0
  3  4  1  0
  4  5  1  0
  5  6  2  0
  6 12  1  0
  7  6  1  0
  7  8  2  0
  9  7  1  0
 10  4  1  0
 10  9  1  0
 11 10  2  0
 13  1  1  0
 14 13  1  0
 14 19  1  0
 15 14  2  0
 16 15  1  0
 16 17  2  0
 17 18  1  0
 18 19  2  0
 18 20  1  0
 20 24  1  0
 20 21  1  0
 21 22  2  0
 23 22  1  0
 24 23  2  0
  1 25  1  1
  2 26  1  0
  2 27  1  0
  2 28  1  0
  3 29  1  0
  3 30  1  0
  5 31  1  0
  9 32  1  0
 12 33  1  0
 12 34  1  0
 12 35  1  0
 15 36  1  0
 16 37  1  0
 21 38  1  0
 22 39  1  0
 24 40  1  0
M  ISO  8  25   8  26   8  27   8  28   8  29   8  30   8  31  14  32   9
M  ISO  8  33   8  34   8  35   8  36  14  37  14  38  14  39  14  40  14
M  END
>  <minimizedAffinity>  (1) 
-5.70377016

>  <minimizedRMSD>  (1) 
3.00164151

$$$$
