
     RDKit          3D

 40 42  0  0  1  0  0  0  0  0999 V2000
   44.4490   32.1740   40.0510 C   0  0  2  0  0  0  0  0  0  0  0  0
   43.8750   30.8030   40.1340 C   0  0  0  0  0  0  0  0  0  0  0  0
   43.3780   33.1550   40.4600 C   0  0  0  0  0  0  0  0  0  0  0  0
   43.7100   33.9490   41.6020 N   0  0  0  0  0  0  0  0  0  0  0  0
   44.7590   33.6260   42.3600 C   0  0  0  0  0  0  0  0  0  0  0  0
   45.1910   34.3070   43.4710 C   0  0  0  0  0  0  0  0  0  0  0  0
   44.4250   35.4260   43.7880 C   0  0  0  0  0  0  0  0  0  0  0  0
   44.7480   36.1200   44.8050 O   0  0  0  0  0  0  0  0  0  0  0  0
   43.3600   35.7810   43.0470 N   0  0  0  0  0  0  0  0  0  0  0  0
   43.0060   35.0550   41.9700 C   0  0  0  0  0  0  0  0  0  0  0  0
   42.0050   35.3770   41.2630 O   0  0  0  0  0  0  0  0  0  0  0  0
   46.3690   33.8650   44.2440 C   0  0  0  0  0  0  0  0  0  0  0  0
   44.9300   32.5280   38.7570 O   0  0  0  0  0  0  0  0  0  0  0  0
   46.1060   33.1680   38.5910 C   0  0  0  0  0  0  0  0  0  0  0  0
   46.5850   33.4000   37.3130 C   0  0  0  0  0  0  0  0  0  0  0  0
   47.8070   34.0710   37.1810 C   0  0  0  0  0  0  0  0  0  0  0  0
   48.4740   34.4680   38.3140 N   0  0  0  0  0  0  0  0  0  0  0  0
   47.9800   34.2250   39.5240 C   0  0  0  0  0  0  0  0  0  0  0  0
   46.8150   33.5850   39.6380 N   0  0  0  0  0  0  0  0  0  0  0  0
   48.6820   34.6440   40.7320 C   0  0  0  0  0  0  0  0  0  0  0  0
   49.1620   33.7230   41.6520 C   0  0  0  0  0  0  0  0  0  0  0  0
   49.7730   34.3990   42.6800 C   0  0  0  0  0  0  0  0  0  0  0  0
   49.6560   35.7190   42.3720 N   0  0  0  0  0  0  0  0  0  0  0  0
   49.0080   35.8730   41.2130 N   0  0  0  0  0  0  0  0  0  0  0  0
   45.3217   32.1998   40.7202 H   0  0  0  0  0  0  0  0  0  0  0  0
   43.7559   30.5186   41.1899 H   0  0  0  0  0  0  0  0  0  0  0  0
   42.8940   30.7855   39.6367 H   0  0  0  0  0  0  0  0  0  0  0  0
   44.5509   30.0918   39.6367 H   0  0  0  0  0  0  0  0  0  0  0  0
   43.1896   33.8316   39.6134 H   0  0  0  0  0  0  0  0  0  0  0  0
   42.4957   32.5595   40.7371 H   0  0  0  0  0  0  0  0  0  0  0  0
   45.3301   32.7323   42.0682 H   0  0  0  0  0  0  0  0  0  0  0  0
   42.8117   36.6138   43.3053 H   0  0  0  0  0  0  0  0  0  0  0  0
   46.1532   33.9460   45.3196 H   0  0  0  0  0  0  0  0  0  0  0  0
   46.6001   32.8190   43.9941 H   0  0  0  0  0  0  0  0  0  0  0  0
   47.2312   34.5008   43.9941 H   0  0  0  0  0  0  0  0  0  0  0  0
   46.0227   33.0673   36.4280 H   0  0  0  0  0  0  0  0  0  0  0  0
   48.2263   34.2770   36.1851 H   0  0  0  0  0  0  0  0  0  0  0  0
   49.0685   32.6299   41.5714 H   0  0  0  0  0  0  0  0  0  0  0  0
   50.2561   33.9638   43.5672 H   0  0  0  0  0  0  0  0  0  0  0  0
   50.0162   36.4913   42.9506 H   0  0  0  0  0  0  0  0  0  0  0  0
  1  2  1  0
  1  3  1  0
  3  4  1  0
  4 10  1  0
  4  5  1  0
  5  6  2  0
  6  7  1  0
  6 12  1  0
  7  8  2  0
  9  7  1  0
 10  9  1  0
 11 10  2  0
 13  1  1  0
 14 13  1  0
 14 19  1  0
 15 14  2  0
 16 15  1  0
 16 17  2  0
 17 18  1  0
 18 19  2  0
 18 20  1  0
 20 24  2  0
 20 21  1  0
 21 22  2  0
 23 22  1  0
 24 23  1  0
  1 25  1  1
  2 26  1  0
  2 27  1  0
  2 28  1  0
  3 29  1  0
  3 30  1  0
  5 31  1  0
  9 32  1  0
 12 33  1  0
 12 34  1  0
 12 35  1  0
 15 36  1  0
 16 37  1  0
 21 38  1  0
 22 39  1  0
 23 40  1  0
M  ISO  8  25   8  26   8  27   8  28   8  29   8  30   8  31  14  32   9
M  ISO  8  33   8  34   8  35   8  36  14  37  14  38  14  39  14  40   9
M  END
>  <minimizedAffinity>  (1) 
-5.65489483

>  <minimizedRMSD>  (1) 
2.96660161

$$$$
