
     RDKit          3D

 36 37  0  0  1  0  0  0  0  0999 V2000
   44.7990   32.0390   40.6390 C   0  0  2  0  0  0  0  0  0  0  0  0
   43.9300   30.9130   40.2020 C   0  0  0  0  0  0  0  0  0  0  0  0
   43.9420   33.2770   40.7300 C   0  0  0  0  0  0  0  0  0  0  0  0
   44.0900   34.0110   41.9490 N   0  0  0  0  0  0  0  0  0  0  0  0
   44.8750   33.5400   42.9180 C   0  0  0  0  0  0  0  0  0  0  0  0
   45.1090   34.1450   44.1280 C   0  0  0  0  0  0  0  0  0  0  0  0
   44.4400   35.3540   44.3090 C   0  0  0  0  0  0  0  0  0  0  0  0
   44.5910   35.9840   45.3980 O   0  0  0  0  0  0  0  0  0  0  0  0
   43.6370   35.8570   43.3480 N   0  0  0  0  0  0  0  0  0  0  0  0
   43.4640   35.1980   42.1880 C   0  0  0  0  0  0  0  0  0  0  0  0
   42.7160   35.6580   41.2780 O   0  0  0  0  0  0  0  0  0  0  0  0
   46.0030   33.5410   45.1380 C   0  0  0  0  0  0  0  0  0  0  0  0
   45.8940   32.2980   39.7620 O   0  0  0  0  0  0  0  0  0  0  0  0
   47.1290   32.5700   40.2360 C   0  0  0  0  0  0  0  0  0  0  0  0
   48.0720   31.5610   40.3100 C   0  0  0  0  0  0  0  0  0  0  0  0
   49.3400   31.8850   40.8020 C   0  0  0  0  0  0  0  0  0  0  0  0
   49.5960   33.1820   41.1900 N   0  0  0  0  0  0  0  0  0  0  0  0
   48.6610   34.1190   41.1030 C   0  0  0  0  0  0  0  0  0  0  0  0
   47.4510   33.7990   40.6310 N   0  0  0  0  0  0  0  0  0  0  0  0
   48.8870   35.5330   41.5090 C   0  0  0  0  0  0  0  0  0  0  0  0
   49.1950   36.3330   40.4300 F   0  0  0  0  0  0  0  0  0  0  0  0
   49.9280   35.5020   42.4330 F   0  0  0  0  0  0  0  0  0  0  0  0
   47.7770   36.0060   42.2000 F   0  0  0  0  0  0  0  0  0  0  0  0
   45.2383   31.7586   41.6077 H   0  0  0  0  0  0  0  0  0  0  0  0
   43.5298   30.3944   41.0857 H   0  0  0  0  0  0  0  0  0  0  0  0
   43.0979   31.3048   39.5986 H   0  0  0  0  0  0  0  0  0  0  0  0
   44.5199   30.2074   39.5986 H   0  0  0  0  0  0  0  0  0  0  0  0
   44.2075   33.9412   39.8943 H   0  0  0  0  0  0  0  0  0  0  0  0
   42.8963   32.9378   40.6933 H   0  0  0  0  0  0  0  0  0  0  0  0
   45.3804   32.5810   42.7315 H   0  0  0  0  0  0  0  0  0  0  0  0
   43.1527   36.7526   43.5039 H   0  0  0  0  0  0  0  0  0  0  0  0
   45.6375   33.7879   46.1457 H   0  0  0  0  0  0  0  0  0  0  0  0
   46.0156   32.4485   45.0100 H   0  0  0  0  0  0  0  0  0  0  0  0
   47.0212   33.9370   45.0100 H   0  0  0  0  0  0  0  0  0  0  0  0
   47.8320   30.5358   39.9918 H   0  0  0  0  0  0  0  0  0  0  0  0
   50.1221   31.1153   40.8782 H   0  0  0  0  0  0  0  0  0  0  0  0
  1  3  1  0
  2  1  1  0
  3  4  1  0
  4 10  1  0
  4  5  1  0
  5  6  2  0
  6  7  1  0
  6 12  1  0
  7  8  2  0
  9  7  1  0
 10  9  1  0
 11 10  2  0
 13 14  1  0
 13  1  1  0
 14 15  2  0
 14 19  1  0
 15 16  1  0
 16 17  2  0
 18 17  1  0
 18 20  1  0
 19 18  2  0
 20 23  1  0
 20 22  1  0
 21 20  1  0
  1 24  1  1
  2 25  1  0
  2 26  1  0
  2 27  1  0
  3 28  1  0
  3 29  1  0
  5 30  1  0
  9 31  1  0
 12 32  1  0
 12 33  1  0
 12 34  1  0
 15 35  1  0
 16 36  1  0
M  ISO  8  24   8  25   8  26   8  27   8  28   8  29   8  30  14  31   9
M  ISO  5  32   8  33   8  34   8  35  14  36  14
M  END
>  <minimizedAffinity>  (1) 
-5.62180042

>  <minimizedRMSD>  (1) 
1.60282838

$$$$
