
     RDKit          3D

 36 37  0  0  1  0  0  0  0  0999 V2000
   45.6410   32.1680   40.9950 C   0  0  2  0  0  0  0  0  0  0  0  0
   44.8920   31.0430   40.3710 C   0  0  0  0  0  0  0  0  0  0  0  0
   44.7360   33.3750   41.0090 C   0  0  0  0  0  0  0  0  0  0  0  0
   44.6550   34.0370   42.2750 N   0  0  0  0  0  0  0  0  0  0  0  0
   45.2880   33.5330   43.3350 C   0  0  0  0  0  0  0  0  0  0  0  0
   45.2950   34.0740   44.5970 C   0  0  0  0  0  0  0  0  0  0  0  0
   44.5580   35.2490   44.7250 C   0  0  0  0  0  0  0  0  0  0  0  0
   44.5080   35.8170   45.8600 O   0  0  0  0  0  0  0  0  0  0  0  0
   43.9080   35.7830   43.6730 N   0  0  0  0  0  0  0  0  0  0  0  0
   43.9550   35.1880   42.4690 C   0  0  0  0  0  0  0  0  0  0  0  0
   43.3460   35.6810   41.4740 O   0  0  0  0  0  0  0  0  0  0  0  0
   46.0360   33.4380   45.7060 C   0  0  0  0  0  0  0  0  0  0  0  0
   46.8530   32.5020   40.3220 O   0  0  0  0  0  0  0  0  0  0  0  0
   47.9110   33.0110   40.9840 C   0  0  0  0  0  0  0  0  0  0  0  0
   48.7950   32.1600   41.6250 C   0  0  0  0  0  0  0  0  0  0  0  0
   49.8820   32.7260   42.2950 C   0  0  0  0  0  0  0  0  0  0  0  0
   50.0290   34.0990   42.2890 N   0  0  0  0  0  0  0  0  0  0  0  0
   49.1600   34.8760   41.6630 C   0  0  0  0  0  0  0  0  0  0  0  0
   48.1230   34.3230   41.0250 N   0  0  0  0  0  0  0  0  0  0  0  0
   49.2950   36.3570   41.6420 C   0  0  0  0  0  0  0  0  0  0  0  0
   45.9313   31.8484   42.0067 H   0  0  0  0  0  0  0  0  0  0  0  0
   44.4666   30.4040   41.1589 H   0  0  0  0  0  0  0  0  0  0  0  0
   44.0804   31.4446   39.7465 H   0  0  0  0  0  0  0  0  0  0  0  0
   45.5756   30.4491   39.7465 H   0  0  0  0  0  0  0  0  0  0  0  0
   45.1113   34.0953   40.2672 H   0  0  0  0  0  0  0  0  0  0  0  0
   43.7236   33.0116   40.7788 H   0  0  0  0  0  0  0  0  0  0  0  0
   45.8543   32.6020   43.1852 H   0  0  0  0  0  0  0  0  0  0  0  0
   43.3710   36.6538   43.7923 H   0  0  0  0  0  0  0  0  0  0  0  0
   45.6292   33.7871   46.6666 H   0  0  0  0  0  0  0  0  0  0  0  0
   45.9302   32.3452   45.6385 H   0  0  0  0  0  0  0  0  0  0  0  0
   47.1001   33.7082   45.6385 H   0  0  0  0  0  0  0  0  0  0  0  0
   48.6457   31.0703   41.6072 H   0  0  0  0  0  0  0  0  0  0  0  0
   50.6092   32.0883   42.8190 H   0  0  0  0  0  0  0  0  0  0  0  0
   49.3296   36.7367   42.6738 H   0  0  0  0  0  0  0  0  0  0  0  0
   50.2221   36.6333   41.1183 H   0  0  0  0  0  0  0  0  0  0  0  0
   48.4332   36.7964   41.1183 H   0  0  0  0  0  0  0  0  0  0  0  0
  1  3  1  0
  2  1  1  0
  3  4  1  0
  4 10  1  0
  4  5  1  0
  5  6  2  0
  6  7  1  0
  6 12  1  0
  7  8  2  0
  9  7  1  0
 10  9  1  0
 11 10  2  0
 13 14  1  0
 13  1  1  0
 14 19  1  0
 14 15  2  0
 15 16  1  0
 17 16  2  0
 18 17  1  0
 19 18  2  0
 20 18  1  0
  1 21  1  1
  2 22  1  0
  2 23  1  0
  2 24  1  0
  3 25  1  0
  3 26  1  0
  5 27  1  0
  9 28  1  0
 12 29  1  0
 12 30  1  0
 12 31  1  0
 15 32  1  0
 16 33  1  0
 20 34  1  0
 20 35  1  0
 20 36  1  0
M  ISO  8  21   8  22   8  23   8  24   8  25   8  26   8  27  14  28   9
M  ISO  8  29   8  30   8  31   8  32  14  33  14  34   8  35   8  36   8
M  END
>  <minimizedAffinity>  (1) 
-4.9675374

>  <minimizedRMSD>  (1) 
0.823004603

$$$$
