
     RDKit          3D

 35 36  0  0  1  0  0  0  0  0999 V2000
   45.3590   32.3340   40.6180 C   0  0  2  0  0  0  0  0  0  0  0  0
   44.5030   31.2780   40.0120 C   0  0  0  0  0  0  0  0  0  0  0  0
   44.5430   33.5980   40.7250 C   0  0  0  0  0  0  0  0  0  0  0  0
   44.5110   34.1740   42.0350 N   0  0  0  0  0  0  0  0  0  0  0  0
   45.2370   33.6350   43.0190 C   0  0  0  0  0  0  0  0  0  0  0  0
   45.3040   34.1020   44.3130 C   0  0  0  0  0  0  0  0  0  0  0  0
   44.5270   35.2320   44.5510 C   0  0  0  0  0  0  0  0  0  0  0  0
   44.5320   35.7290   45.7250 O   0  0  0  0  0  0  0  0  0  0  0  0
   43.7820   35.8010   43.5830 N   0  0  0  0  0  0  0  0  0  0  0  0
   43.7790   35.2760   42.3460 C   0  0  0  0  0  0  0  0  0  0  0  0
   43.0840   35.7990   41.4250 O   0  0  0  0  0  0  0  0  0  0  0  0
   46.1480   33.4370   45.3270 C   0  0  0  0  0  0  0  0  0  0  0  0
   46.5480   32.6120   39.8810 O   0  0  0  0  0  0  0  0  0  0  0  0
   47.7490   32.7190   40.4860 C   0  0  0  0  0  0  0  0  0  0  0  0
   48.5980   31.6250   40.5090 C   0  0  0  0  0  0  0  0  0  0  0  0
   49.8390   31.7780   41.1420 C   0  0  0  0  0  0  0  0  0  0  0  0
   50.1540   32.9940   41.7080 N   0  0  0  0  0  0  0  0  0  0  0  0
   49.3100   34.0100   41.6610 C   0  0  0  0  0  0  0  0  0  0  0  0
   48.1310   33.8590   41.0570 N   0  0  0  0  0  0  0  0  0  0  0  0
   49.6500   35.2920   42.2600 C   0  0  0  0  0  0  0  0  0  0  0  0
   49.3480   36.3820   41.6980 O   0  0  0  0  0  0  0  0  0  0  0  0
   45.6844   31.9615   41.6005 H   0  0  0  0  0  0  0  0  0  0  0  0
   44.0262   30.6898   40.8099 H   0  0  0  0  0  0  0  0  0  0  0  0
   43.7274   31.7474   39.3891 H   0  0  0  0  0  0  0  0  0  0  0  0
   45.1228   30.6163   39.3891 H   0  0  0  0  0  0  0  0  0  0  0  0
   44.9673   34.3406   40.0333 H   0  0  0  0  0  0  0  0  0  0  0  0
   43.5068   33.3236   40.4782 H   0  0  0  0  0  0  0  0  0  0  0  0
   45.8317   32.7424   42.7747 H   0  0  0  0  0  0  0  0  0  0  0  0
   43.2162   36.6363   43.7907 H   0  0  0  0  0  0  0  0  0  0  0  0
   45.7984   33.7125   46.3329 H   0  0  0  0  0  0  0  0  0  0  0  0
   46.0812   32.3462   45.2015 H   0  0  0  0  0  0  0  0  0  0  0  0
   47.1929   33.7572   45.2015 H   0  0  0  0  0  0  0  0  0  0  0  0
   48.3085   30.6697   40.0468 H   0  0  0  0  0  0  0  0  0  0  0  0
   50.5505   30.9402   41.1862 H   0  0  0  0  0  0  0  0  0  0  0  0
   50.1814   35.3121   43.2229 H   0  0  0  0  0  0  0  0  0  0  0  0
  1  3  1  0
  2  1  1  0
  3  4  1  0
  4 10  1  0
  4  5  1  0
  5  6  2  0
  6  7  1  0
  6 12  1  0
  7  8  2  0
  9  7  1  0
 10  9  1  0
 11 10  2  0
 13 14  1  0
 13  1  1  0
 14 15  2  0
 14 19  1  0
 15 16  1  0
 16 17  2  0
 18 17  1  0
 18 20  1  0
 19 18  2  0
 21 20  2  0
  1 22  1  1
  2 23  1  0
  2 24  1  0
  2 25  1  0
  3 26  1  0
  3 27  1  0
  5 28  1  0
  9 29  1  0
 12 30  1  0
 12 31  1  0
 12 32  1  0
 15 33  1  0
 16 34  1  0
 20 35  1  0
M  ISO  8  22   8  23   8  24   8  25   8  26   8  27   8  28  14  29   9
M  ISO  6  30   8  31   8  32   8  33  14  34  14  35   6
M  END
>  <minimizedAffinity>  (1) 
-4.80575228

>  <minimizedRMSD>  (1) 
1.26358056

$$$$
