
     RDKit          3D

 43 45  0  0  1  0  0  0  0  0999 V2000
   42.6910   32.3090   39.3580 C   0  0  2  0  0  0  0  0  0  0  0  0
   41.6830   31.2220   39.3390 C   0  0  0  0  0  0  0  0  0  0  0  0
   42.0370   33.5110   40.0070 C   0  0  0  0  0  0  0  0  0  0  0  0
   42.7570   34.0670   41.1070 N   0  0  0  0  0  0  0  0  0  0  0  0
   43.8310   33.4440   41.5710 C   0  0  0  0  0  0  0  0  0  0  0  0
   44.6230   33.8850   42.6100 C   0  0  0  0  0  0  0  0  0  0  0  0
   44.2130   35.0940   43.1890 C   0  0  0  0  0  0  0  0  0  0  0  0
   44.8850   35.5720   44.1530 O   0  0  0  0  0  0  0  0  0  0  0  0
   43.1300   35.7440   42.7440 N   0  0  0  0  0  0  0  0  0  0  0  0
   42.4050   35.2470   41.7180 C   0  0  0  0  0  0  0  0  0  0  0  0
   41.3830   35.8510   41.2930 O   0  0  0  0  0  0  0  0  0  0  0  0
   45.8040   33.1330   43.0550 C   0  0  0  0  0  0  0  0  0  0  0  0
   43.1940   32.6850   38.0660 O   0  0  0  0  0  0  0  0  0  0  0  0
   44.5070   32.7010   37.8100 C   0  0  0  0  0  0  0  0  0  0  0  0
   44.9640   32.4540   36.5370 C   0  0  0  0  0  0  0  0  0  0  0  0
   46.3340   32.4780   36.2930 C   0  0  0  0  0  0  0  0  0  0  0  0
   47.1780   32.7490   37.3440 N   0  0  0  0  0  0  0  0  0  0  0  0
   46.7080   32.9820   38.5590 C   0  0  0  0  0  0  0  0  0  0  0  0
   45.3900   32.9550   38.7710 N   0  0  0  0  0  0  0  0  0  0  0  0
   47.6880   33.2700   39.6770 C   0  0  0  0  0  0  0  0  0  0  0  0
   48.4860   32.2510   40.2510 C   0  0  0  0  0  0  0  0  0  0  0  0
   49.3380   32.6090   41.2440 C   0  0  0  0  0  0  0  0  0  0  0  0
   49.4350   33.9000   41.6860 C   0  0  0  0  0  0  0  0  0  0  0  0
   48.1530   34.7590   40.5580 S   0  0  0  0  0  0  0  0  0  0  0  0
   50.1710   34.6330   42.6530 C   0  0  0  0  0  0  0  0  0  0  0  0
   43.5655   31.9390   39.9134 H   0  0  0  0  0  0  0  0  0  0  0  0
   41.4247   30.9434   40.3713 H   0  0  0  0  0  0  0  0  0  0  0  0
   40.7797   31.5687   38.8158 H   0  0  0  0  0  0  0  0  0  0  0  0
   42.0968   30.3473   38.8158 H   0  0  0  0  0  0  0  0  0  0  0  0
   41.9246   34.2933   39.2419 H   0  0  0  0  0  0  0  0  0  0  0  0
   41.0778   33.1579   40.4135 H   0  0  0  0  0  0  0  0  0  0  0  0
   44.1137   32.4973   41.0874 H   0  0  0  0  0  0  0  0  0  0  0  0
   42.8476   36.6297   43.1874 H   0  0  0  0  0  0  0  0  0  0  0  0
   45.8338   33.1140   44.1544 H   0  0  0  0  0  0  0  0  0  0  0  0
   45.7489   32.1034   42.6719 H   0  0  0  0  0  0  0  0  0  0  0  0
   46.7137   33.6185   42.6719 H   0  0  0  0  0  0  0  0  0  0  0  0
   44.2564   32.2403   35.7224 H   0  0  0  0  0  0  0  0  0  0  0  0
   46.7312   32.2852   35.2855 H   0  0  0  0  0  0  0  0  0  0  0  0
   48.4177   31.2091   39.9050 H   0  0  0  0  0  0  0  0  0  0  0  0
   49.9702   31.8376   41.7080 H   0  0  0  0  0  0  0  0  0  0  0  0
   49.8605   34.3237   43.6619 H   0  0  0  0  0  0  0  0  0  0  0  0
   51.2453   34.4353   42.5233 H   0  0  0  0  0  0  0  0  0  0  0  0
   49.9777   35.7081   42.5233 H   0  0  0  0  0  0  0  0  0  0  0  0
  1  3  1  0
  2  1  1  0
  3  4  1  0
  4  5  1  0
  4 10  1  0
  5  6  2  0
  6 12  1  0
  6  7  1  0
  7  8  2  0
  9  7  1  0
 10  9  1  0
 11 10  2  0
 13  1  1  0
 14 13  1  0
 14 19  1  0
 15 14  2  0
 16 15  1  0
 16 17  2  0
 17 18  1  0
 18 19  2  0
 18 20  1  0
 20 21  2  0
 20 24  1  0
 21 22  1  0
 22 23  2  0
 23 25  1  0
 24 23  1  0
  1 26  1  1
  2 27  1  0
  2 28  1  0
  2 29  1  0
  3 30  1  0
  3 31  1  0
  5 32  1  0
  9 33  1  0
 12 34  1  0
 12 35  1  0
 12 36  1  0
 15 37  1  0
 16 38  1  0
 21 39  1  0
 22 40  1  0
 25 41  1  0
 25 42  1  0
 25 43  1  0
M  ISO  8  26   8  27   8  28   8  29   8  30   8  31   8  32  14  33   9
M  ISO  8  34   8  35   8  36   8  37  14  38  14  39  14  40  14  41   8
M  ISO  2  42   8  43   8
M  END
>  <minimizedAffinity>  (1) 
-4.8790307

>  <minimizedRMSD>  (1) 
1.22765827

$$$$
