
     RDKit          3D

 45 48  0  0  1  0  0  0  0  0999 V2000
   40.6990   31.7860   38.8850 C   0  0  2  0  0  0  0  0  0  0  0  0
   39.3570   31.1550   38.8550 C   0  0  0  0  0  0  0  0  0  0  0  0
   40.5340   33.1560   39.5040 C   0  0  0  0  0  0  0  0  0  0  0  0
   41.7200   33.7080   40.0730 N   0  0  0  0  0  0  0  0  0  0  0  0
   42.3650   33.0410   41.0200 C   0  0  0  0  0  0  0  0  0  0  0  0
   43.5270   33.4520   41.6320 C   0  0  0  0  0  0  0  0  0  0  0  0
   44.0290   34.6820   41.1840 C   0  0  0  0  0  0  0  0  0  0  0  0
   45.0980   35.1310   41.6990 O   0  0  0  0  0  0  0  0  0  0  0  0
   43.3980   35.3800   40.2290 N   0  0  0  0  0  0  0  0  0  0  0  0
   42.2610   34.9070   39.6770 C   0  0  0  0  0  0  0  0  0  0  0  0
   41.6590   35.5580   38.7780 O   0  0  0  0  0  0  0  0  0  0  0  0
   44.1810   32.6430   42.6730 C   0  0  0  0  0  0  0  0  0  0  0  0
   41.3240   31.9170   37.6000 O   0  0  0  0  0  0  0  0  0  0  0  0
   42.5800   31.5060   37.3950 C   0  0  0  0  0  0  0  0  0  0  0  0
   42.8890   30.7490   36.2890 C   0  0  0  0  0  0  0  0  0  0  0  0
   44.2040   30.3330   36.0940 C   0  0  0  0  0  0  0  0  0  0  0  0
   45.1470   30.7000   37.0250 N   0  0  0  0  0  0  0  0  0  0  0  0
   44.8210   31.4300   38.0800 C   0  0  0  0  0  0  0  0  0  0  0  0
   43.5550   31.8160   38.2430 N   0  0  0  0  0  0  0  0  0  0  0  0
   45.9070   31.8010   39.0720 C   0  0  0  0  0  0  0  0  0  0  0  0
   46.2940   30.9200   40.1120 C   0  0  0  0  0  0  0  0  0  0  0  0
   47.2770   31.3330   40.9520 C   0  0  0  0  0  0  0  0  0  0  0  0
   47.8790   32.5530   40.8090 C   0  0  0  0  0  0  0  0  0  0  0  0
   46.9430   33.2400   39.2780 S   0  0  0  0  0  0  0  0  0  0  0  0
   48.8860   33.2970   41.4520 C   0  0  0  0  0  0  0  0  0  0  0  0
   50.1750   32.9840   41.7790 N   0  0  0  0  0  0  0  0  0  0  0  0
   50.7370   33.9990   42.3720 O   0  0  0  0  0  0  0  0  0  0  0  0
   49.8850   34.9970   42.4680 C   0  0  0  0  0  0  0  0  0  0  0  0
   48.7250   34.5750   41.8980 N   0  0  0  0  0  0  0  0  0  0  0  0
   41.3630   31.1295   39.4665 H   0  0  0  0  0  0  0  0  0  0  0  0
   39.0063   30.9901   39.8845 H   0  0  0  0  0  0  0  0  0  0  0  0
   38.6526   31.8163   38.3291 H   0  0  0  0  0  0  0  0  0  0  0  0
   39.4169   30.1907   38.3291 H   0  0  0  0  0  0  0  0  0  0  0  0
   40.1791   33.8432   38.7218 H   0  0  0  0  0  0  0  0  0  0  0  0
   39.8229   33.0342   40.3344 H   0  0  0  0  0  0  0  0  0  0  0  0
   41.9364   32.0808   41.3428 H   0  0  0  0  0  0  0  0  0  0  0  0
   43.7831   36.2822   39.9149 H   0  0  0  0  0  0  0  0  0  0  0  0
   43.8828   33.0119   43.6654 H   0  0  0  0  0  0  0  0  0  0  0  0
   43.8761   31.5916   42.5658 H   0  0  0  0  0  0  0  0  0  0  0  0
   45.2730   32.7208   42.5658 H   0  0  0  0  0  0  0  0  0  0  0  0
   42.1062   30.4751   35.5663 H   0  0  0  0  0  0  0  0  0  0  0  0
   44.4807   29.7271   35.2186 H   0  0  0  0  0  0  0  0  0  0  0  0
   45.8153   29.9372   40.2342 H   0  0  0  0  0  0  0  0  0  0  0  0
   47.5978   30.6696   41.7687 H   0  0  0  0  0  0  0  0  0  0  0  0
   50.0743   35.9812   42.9212 H   0  0  0  0  0  0  0  0  0  0  0  0
  1  3  1  0
  2  1  1  0
  3  4  1  0
  4  5  1  0
  5  6  2  0
  6 12  1  0
  7  6  1  0
  7  8  2  0
  9  7  1  0
 10  4  1  0
 10  9  1  0
 11 10  2  0
 13  1  1  0
 14 13  1  0
 14 19  1  0
 15 14  2  0
 16 15  1  0
 16 17  2  0
 17 18  1  0
 18 19  2  0
 18 20  1  0
 20 24  1  0
 20 21  2  0
 21 22  1  0
 23 22  2  0
 23 25  1  0
 24 23  1  0
 25 26  2  0
 25 29  1  0
 26 27  1  0
 27 28  1  0
 29 28  2  0
  1 30  1  1
  2 31  1  0
  2 32  1  0
  2 33  1  0
  3 34  1  0
  3 35  1  0
  5 36  1  0
  9 37  1  0
 12 38  1  0
 12 39  1  0
 12 40  1  0
 15 41  1  0
 16 42  1  0
 21 43  1  0
 22 44  1  0
 28 45  1  0
M  ISO  8  30   8  31   8  32   8  33   8  34   8  35   8  36  14  37   9
M  ISO  8  38   8  39   8  40   8  41  14  42  14  43  14  44  14  45  14
M  END
>  <minimizedAffinity>  (1) 
-4.85009623

>  <minimizedRMSD>  (1) 
3.36772776

$$$$
