
     RDKit          3D

 42 44  0  0  1  0  0  0  0  0999 V2000
   44.5560   32.4270   40.0500 C   0  0  2  0  0  0  0  0  0  0  0  0
   44.6910   31.6130   38.8180 C   0  0  0  0  0  0  0  0  0  0  0  0
   43.0960   32.8040   40.1770 C   0  0  0  0  0  0  0  0  0  0  0  0
   42.3550   32.0330   41.1190 N   0  0  0  0  0  0  0  0  0  0  0  0
   42.9580   31.0630   41.7910 C   0  0  0  0  0  0  0  0  0  0  0  0
   42.3590   30.2630   42.7370 C   0  0  0  0  0  0  0  0  0  0  0  0
   41.0040   30.5310   42.9720 C   0  0  0  0  0  0  0  0  0  0  0  0
   40.3800   29.8350   43.8310 O   0  0  0  0  0  0  0  0  0  0  0  0
   40.3690   31.5020   42.3090 N   0  0  0  0  0  0  0  0  0  0  0  0
   41.0270   32.2470   41.3940 C   0  0  0  0  0  0  0  0  0  0  0  0
   40.4320   33.1670   40.7610 O   0  0  0  0  0  0  0  0  0  0  0  0
   43.1100   29.2100   43.4450 C   0  0  0  0  0  0  0  0  0  0  0  0
   45.3600   33.6150   40.0690 O   0  0  0  0  0  0  0  0  0  0  0  0
   46.2590   33.8280   41.0370 C   0  0  0  0  0  0  0  0  0  0  0  0
   47.4240   34.5060   40.7660 C   0  0  0  0  0  0  0  0  0  0  0  0
   48.3440   34.7170   41.7870 C   0  0  0  0  0  0  0  0  0  0  0  0
   48.0490   34.2370   43.0340 N   0  0  0  0  0  0  0  0  0  0  0  0
   46.9200   33.5860   43.2740 C   0  0  0  0  0  0  0  0  0  0  0  0
   46.0530   33.3950   42.2810 N   0  0  0  0  0  0  0  0  0  0  0  0
   46.6520   33.0770   44.6680 C   0  0  0  0  0  0  0  0  0  0  0  0
   47.2020   31.8640   45.1490 C   0  0  0  0  0  0  0  0  0  0  0  0
   46.8980   31.5000   46.4200 C   0  0  0  0  0  0  0  0  0  0  0  0
   46.0940   32.2570   47.2280 C   0  0  0  0  0  0  0  0  0  0  0  0
   45.6870   33.6990   46.0580 S   0  0  0  0  0  0  0  0  0  0  0  0
   45.5700   32.2510   48.4950 C   0  0  0  0  0  0  0  0  0  0  0  0
   44.7140   31.4030   48.8620 O   0  0  0  0  0  0  0  0  0  0  0  0
   44.9162   31.8197   40.8935 H   0  0  0  0  0  0  0  0  0  0  0  0
   44.8654   30.5616   39.0905 H   0  0  0  0  0  0  0  0  0  0  0  0
   43.7678   31.6898   38.2248 H   0  0  0  0  0  0  0  0  0  0  0  0
   45.5399   31.9837   38.2248 H   0  0  0  0  0  0  0  0  0  0  0  0
   43.0413   33.8596   40.4816 H   0  0  0  0  0  0  0  0  0  0  0  0
   42.6414   32.6090   39.1945 H   0  0  0  0  0  0  0  0  0  0  0  0
   44.0216   30.8830   41.5756 H   0  0  0  0  0  0  0  0  0  0  0  0
   39.3726   31.6834   42.4965 H   0  0  0  0  0  0  0  0  0  0  0  0
   43.0076   29.3536   44.5308 H   0  0  0  0  0  0  0  0  0  0  0  0
   42.7101   28.2239   43.1662 H   0  0  0  0  0  0  0  0  0  0  0  0
   44.1726   29.2669   43.1662 H   0  0  0  0  0  0  0  0  0  0  0  0
   47.6264   34.8781   39.7508 H   0  0  0  0  0  0  0  0  0  0  0  0
   49.2842   35.2556   41.5973 H   0  0  0  0  0  0  0  0  0  0  0  0
   47.8509   31.2407   44.5162 H   0  0  0  0  0  0  0  0  0  0  0  0
   47.3133   30.5614   46.8158 H   0  0  0  0  0  0  0  0  0  0  0  0
   45.9081   33.0114   49.2143 H   0  0  0  0  0  0  0  0  0  0  0  0
  1 13  1  0
  1  3  1  0
  2  1  1  0
  3  4  1  0
  4 10  1  0
  4  5  1  0
  5  6  2  0
  6  7  1  0
  6 12  1  0
  7  8  2  0
  9  7  1  0
 10  9  1  0
 11 10  2  0
 13 14  1  0
 14 19  1  0
 15 14  2  0
 15 16  1  0
 16 17  2  0
 17 18  1  0
 18 20  1  0
 19 18  2  0
 20 21  2  0
 20 24  1  0
 21 22  1  0
 22 23  2  0
 23 25  1  0
 24 23  1  0
 25 26  2  0
  1 27  1  1
  2 28  1  0
  2 29  1  0
  2 30  1  0
  3 31  1  0
  3 32  1  0
  5 33  1  0
  9 34  1  0
 12 35  1  0
 12 36  1  0
 12 37  1  0
 15 38  1  0
 16 39  1  0
 21 40  1  0
 22 41  1  0
 25 42  1  0
M  ISO  8  27   8  28   8  29   8  30   8  31   8  32   8  33  14  34   9
M  ISO  8  35   8  36   8  37   8  38  14  39  14  40  14  41  14  42   6
M  END
>  <minimizedAffinity>  (1) 
-4.76024866

>  <minimizedRMSD>  (1) 
4.77049112

$$$$
