
     RDKit          3D

 47 50  0  0  1  0  0  0  0  0999 V2000
   41.4570   31.6020   38.7940 C   0  0  2  0  0  0  0  0  0  0  0  0
   40.1990   30.8230   38.6910 C   0  0  0  0  0  0  0  0  0  0  0  0
   41.1190   32.9030   39.4860 C   0  0  0  0  0  0  0  0  0  0  0  0
   42.2170   33.5450   40.1360 N   0  0  0  0  0  0  0  0  0  0  0  0
   42.8560   32.9150   41.1160 C   0  0  0  0  0  0  0  0  0  0  0  0
   43.9360   33.4140   41.8090 C   0  0  0  0  0  0  0  0  0  0  0  0
   44.3550   34.6920   41.4100 C   0  0  0  0  0  0  0  0  0  0  0  0
   45.3450   35.2260   41.9960 O   0  0  0  0  0  0  0  0  0  0  0  0
   43.7250   35.3550   40.4200 N   0  0  0  0  0  0  0  0  0  0  0  0
   42.6740   34.7950   39.7920 C   0  0  0  0  0  0  0  0  0  0  0  0
   42.0750   35.4060   38.8630 O   0  0  0  0  0  0  0  0  0  0  0  0
   44.5910   32.6410   42.8820 C   0  0  0  0  0  0  0  0  0  0  0  0
   42.0910   31.8800   37.5380 O   0  0  0  0  0  0  0  0  0  0  0  0
   43.3950   31.6360   37.3540 C   0  0  0  0  0  0  0  0  0  0  0  0
   43.8230   30.9570   36.2390 C   0  0  0  0  0  0  0  0  0  0  0  0
   45.1820   30.7150   36.0660 C   0  0  0  0  0  0  0  0  0  0  0  0
   46.0480   31.1720   37.0290 N   0  0  0  0  0  0  0  0  0  0  0  0
   45.6130   31.8230   38.0910 C   0  0  0  0  0  0  0  0  0  0  0  0
   44.3020   32.0430   38.2370 N   0  0  0  0  0  0  0  0  0  0  0  0
   46.6260   32.2980   39.1190 C   0  0  0  0  0  0  0  0  0  0  0  0
   47.0440   31.4740   40.1920 C   0  0  0  0  0  0  0  0  0  0  0  0
   47.9400   32.0070   41.0500 C   0  0  0  0  0  0  0  0  0  0  0  0
   48.4450   33.2640   40.9310 C   0  0  0  0  0  0  0  0  0  0  0  0
   47.5220   33.8230   39.3530 S   0  0  0  0  0  0  0  0  0  0  0  0
   49.3400   34.1890   41.5410 C   0  0  0  0  0  0  0  0  0  0  0  0
   48.7970   34.8460   42.7880 C   0  0  0  0  0  0  0  0  0  0  0  0
   48.9820   35.6100   41.5210 C   0  0  0  0  0  0  0  0  0  0  0  0
   42.1814   30.9932   39.3549 H   0  0  0  0  0  0  0  0  0  0  0  0
   39.8268   30.5925   39.7001 H   0  0  0  0  0  0  0  0  0  0  0  0
   39.4458   31.4130   38.1482 H   0  0  0  0  0  0  0  0  0  0  0  0
   40.3915   29.8858   38.1482 H   0  0  0  0  0  0  0  0  0  0  0  0
   40.7165   33.5957   38.7322 H   0  0  0  0  0  0  0  0  0  0  0  0
   40.3980   32.6513   40.2778 H   0  0  0  0  0  0  0  0  0  0  0  0
   42.4932   31.9150   41.3960 H   0  0  0  0  0  0  0  0  0  0  0  0
   44.0486   36.2928   40.1431 H   0  0  0  0  0  0  0  0  0  0  0  0
   44.2663   33.0242   43.8606 H   0  0  0  0  0  0  0  0  0  0  0  0
   44.3122   31.5807   42.7926 H   0  0  0  0  0  0  0  0  0  0  0  0
   45.6827   32.7419   42.7926 H   0  0  0  0  0  0  0  0  0  0  0  0
   43.0975   30.6077   35.4896 H   0  0  0  0  0  0  0  0  0  0  0  0
   45.5523   30.1732   35.1832 H   0  0  0  0  0  0  0  0  0  0  0  0
   46.6584   30.4518   40.3200 H   0  0  0  0  0  0  0  0  0  0  0  0
   48.2810   31.3890   41.8937 H   0  0  0  0  0  0  0  0  0  0  0  0
   50.2465   33.6334   41.2587 H   0  0  0  0  0  0  0  0  0  0  0  0
   47.7857   34.6038   43.1466 H   0  0  0  0  0  0  0  0  0  0  0  0
   49.1334   34.9562   43.8295 H   0  0  0  0  0  0  0  0  0  0  0  0
   49.7730   36.3714   41.4531 H   0  0  0  0  0  0  0  0  0  0  0  0
   48.3244   36.2289   40.8929 H   0  0  0  0  0  0  0  0  0  0  0  0
  1  3  1  0
  2  1  1  0
  3  4  1  0
  4  5  1  0
  5  6  2  0
  6 12  1  0
  7  6  1  0
  7  8  2  0
  9  7  1  0
 10  4  1  0
 10  9  1  0
 11 10  2  0
 13  1  1  0
 14 13  1  0
 14 19  1  0
 15 14  2  0
 16 15  1  0
 16 17  2  0
 17 18  1  0
 18 19  2  0
 18 20  1  0
 20 24  1  0
 20 21  2  0
 21 22  1  0
 23 22  2  0
 23 25  1  0
 24 23  1  0
 25 26  1  0
 27 25  1  0
 27 26  1  0
  1 28  1  1
  2 29  1  0
  2 30  1  0
  2 31  1  0
  3 32  1  0
  3 33  1  0
  5 34  1  0
  9 35  1  0
 12 36  1  0
 12 37  1  0
 12 38  1  0
 15 39  1  0
 16 40  1  0
 21 41  1  0
 22 42  1  0
 25 43  1  0
 26 44  1  0
 26 45  1  0
 27 46  1  0
 27 47  1  0
M  ISO  8  28   8  29   8  30   8  31   8  32   8  33   8  34  14  35   9
M  ISO  8  36   8  37   8  38   8  39  14  40  14  41  14  42  14  43  13
M  ISO  4  44  13  45  13  46  13  47  13
M  END
>  <minimizedAffinity>  (1) 
-4.70735025

>  <minimizedRMSD>  (1) 
2.68737721

$$$$
