
     RDKit          3D

 31 34  0  0  0  0  0  0  0  0999 V2000
   46.7500   34.7840   42.0060 C   0  0  0  0  0  0  0  0  0  0  0  0
   48.0040   35.2960   41.8030 C   0  0  0  0  0  0  0  0  0  0  0  0
   48.7170   35.1840   40.6370 C   0  0  0  0  0  0  0  0  0  0  0  0
   48.1350   34.5170   39.6080 N   0  0  0  0  0  0  0  0  0  0  0  0
   46.9190   34.0110   39.7800 C   0  0  0  0  0  0  0  0  0  0  0  0
   46.2300   34.1270   40.9280 N   0  0  0  0  0  0  0  0  0  0  0  0
   46.2750   33.3010   38.7160 N   0  0  0  0  0  0  0  0  0  0  0  0
   45.0350   32.7830   38.6560 C   0  0  0  0  0  0  0  0  0  0  0  0
   44.8430   32.1920   37.4500 N   0  0  0  0  0  0  0  0  0  0  0  0
   45.9690   32.3470   36.7610 C   0  0  0  0  0  0  0  0  0  0  0  0
   46.4070   31.9880   35.5120 C   0  0  0  0  0  0  0  0  0  0  0  0
   47.6460   32.2950   35.0750 N   0  0  0  0  0  0  0  0  0  0  0  0
   48.5120   32.9720   35.8540 C   0  0  0  0  0  0  0  0  0  0  0  0
   48.1020   33.3300   37.0770 N   0  0  0  0  0  0  0  0  0  0  0  0
   46.8670   33.0270   37.5180 C   0  0  0  0  0  0  0  0  0  0  0  0
   44.4780   35.9420   44.7870 C   0  0  0  0  0  0  0  0  0  0  0  0
   45.1190   35.9440   43.5340 C   0  0  0  0  0  0  0  0  0  0  0  0
   46.0130   34.9160   43.2530 C   0  0  0  0  0  0  0  0  0  0  0  0
   46.2100   33.9810   44.2000 N   0  0  0  0  0  0  0  0  0  0  0  0
   45.5960   33.9870   45.3870 C   0  0  0  0  0  0  0  0  0  0  0  0
   44.7230   34.9720   45.6880 N   0  0  0  0  0  0  0  0  0  0  0  0
   45.5600   31.2720   34.6220 N   0  0  0  0  0  0  0  0  0  0  0  0
   48.4741   35.8373   42.6373 H   0  0  0  0  0  0  0  0  0  0  0  0
   49.7229   35.6184   40.5392 H   0  0  0  0  0  0  0  0  0  0  0  0
   44.2891   32.8313   39.4631 H   0  0  0  0  0  0  0  0  0  0  0  0
   49.5220   33.2222   35.4971 H   0  0  0  0  0  0  0  0  0  0  0  0
   43.7669   36.7442   45.0336 H   0  0  0  0  0  0  0  0  0  0  0  0
   44.9187   36.7362   42.7976 H   0  0  0  0  0  0  0  0  0  0  0  0
   45.8015   33.1908   46.1176 H   0  0  0  0  0  0  0  0  0  0  0  0
   45.9011   31.0083   33.6866 H   0  0  0  0  0  0  0  0  0  0  0  0
   44.6054   31.0170   34.9128 H   0  0  0  0  0  0  0  0  0  0  0  0
  1 18  1  0
  2  1  2  0
  3  2  1  0
  4  5  1  0
  4  3  2  0
  5  6  2  0
  6  1  1  0
  7  5  1  0
  8  7  1  0
  9  8  2  0
 10  9  1  0
 10 15  2  0
 11 10  1  0
 12 11  2  0
 12 13  1  0
 13 14  2  0
 14 15  1  0
 15  7  1  0
 16 21  2  0
 17 16  1  0
 18 17  2  0
 18 19  1  0
 19 20  2  0
 20 21  1  0
 22 11  1  0
  2 23  1  0
  3 24  1  0
  8 25  1  0
 13 26  1  0
 16 27  1  0
 17 28  1  0
 20 29  1  0
 22 30  1  0
 22 31  1  0
M  ISO  7  23  14  24  14  25  14  26  14  27  14  28  14  29  14
M  END
>  <minimizedAffinity>  (1) 
-6.21637535

>  <minimizedRMSD>  (1) 
0.298389435

$$$$
