
     RDKit          3D

 28 30  0  0  0  0  0  0  0  0999 V2000
   46.9500   34.8320   42.0380 C   0  0  0  0  0  0  0  0  0  0  0  0
   48.1750   35.4350   41.9130 C   0  0  0  0  0  0  0  0  0  0  0  0
   48.9300   35.4460   40.7630 C   0  0  0  0  0  0  0  0  0  0  0  0
   48.4040   34.8050   39.6750 N   0  0  0  0  0  0  0  0  0  0  0  0
   47.2200   34.2210   39.7870 C   0  0  0  0  0  0  0  0  0  0  0  0
   46.4900   34.2150   40.9180 N   0  0  0  0  0  0  0  0  0  0  0  0
   46.7520   33.5790   38.6050 N   0  0  0  0  0  0  0  0  0  0  0  0
   45.6590   32.7890   38.8030 C   0  0  0  0  0  0  0  0  0  0  0  0
   45.0910   32.1010   37.7500 C   0  0  0  0  0  0  0  0  0  0  0  0
   45.7200   32.2910   36.5360 C   0  0  0  0  0  0  0  0  0  0  0  0
   45.2480   31.6860   35.5200 O   0  0  0  0  0  0  0  0  0  0  0  0
   46.8000   33.0660   36.3180 N   0  0  0  0  0  0  0  0  0  0  0  0
   47.3050   33.7090   37.3860 C   0  0  0  0  0  0  0  0  0  0  0  0
   48.3060   34.4550   37.2990 O   0  0  0  0  0  0  0  0  0  0  0  0
   44.5330   35.6490   44.8320 C   0  0  0  0  0  0  0  0  0  0  0  0
   45.1830   35.7670   43.5870 C   0  0  0  0  0  0  0  0  0  0  0  0
   46.1880   34.8450   43.2730 C   0  0  0  0  0  0  0  0  0  0  0  0
   46.4610   33.9050   44.1960 N   0  0  0  0  0  0  0  0  0  0  0  0
   45.8420   33.7950   45.3790 C   0  0  0  0  0  0  0  0  0  0  0  0
   44.8640   34.6780   45.7030 N   0  0  0  0  0  0  0  0  0  0  0  0
   48.5838   35.9472   42.7964 H   0  0  0  0  0  0  0  0  0  0  0  0
   49.9089   35.9459   40.7204 H   0  0  0  0  0  0  0  0  0  0  0  0
   45.2261   32.6991   39.8102 H   0  0  0  0  0  0  0  0  0  0  0  0
   44.2092   31.4542   37.8684 H   0  0  0  0  0  0  0  0  0  0  0  0
   47.2177   33.1613   35.3813 H   0  0  0  0  0  0  0  0  0  0  0  0
   43.7402   36.3641   45.0967 H   0  0  0  0  0  0  0  0  0  0  0  0
   44.9074   36.5635   42.8801 H   0  0  0  0  0  0  0  0  0  0  0  0
   46.1239   32.9964   46.0810 H   0  0  0  0  0  0  0  0  0  0  0  0
  1 17  1  0
  2  1  2  0
  3  2  1  0
  4  5  1  0
  4  3  2  0
  5  6  2  0
  6  1  1  0
  7  8  1  0
  7  5  1  0
  9  8  2  0
 10  9  1  0
 11 10  2  0
 12 10  1  0
 12 13  1  0
 13  7  1  0
 14 13  2  0
 15 20  2  0
 16 15  1  0
 17 16  2  0
 17 18  1  0
 18 19  2  0
 19 20  1  0
  2 21  1  0
  3 22  1  0
  8 23  1  0
  9 24  1  0
 12 25  1  0
 15 26  1  0
 16 27  1  0
 19 28  1  0
M  ISO  8  21  14  22  14  23  14  24  14  25   9  26  14  27  14  28  14
M  END
>  <minimizedAffinity>  (1) 
-5.96707535

>  <minimizedRMSD>  (1) 
0.59065026

$$$$
