
     RDKit          3D

 32 35  0  0  0  0  0  0  0  0999 V2000
   46.7490   34.7820   42.0720 C   0  0  0  0  0  0  0  0  0  0  0  0
   48.0000   35.3260   41.8830 C   0  0  0  0  0  0  0  0  0  0  0  0
   48.7330   35.2280   40.7220 C   0  0  0  0  0  0  0  0  0  0  0  0
   48.1690   34.5430   39.6950 N   0  0  0  0  0  0  0  0  0  0  0  0
   46.9540   34.0070   39.8560 C   0  0  0  0  0  0  0  0  0  0  0  0
   46.2600   34.1150   40.9980 N   0  0  0  0  0  0  0  0  0  0  0  0
   46.4000   33.2820   38.7180 C   0  0  0  0  0  0  0  0  0  0  0  0
   45.1420   32.7190   38.6580 C   0  0  0  0  0  0  0  0  0  0  0  0
   44.9460   32.1180   37.4500 N   0  0  0  0  0  0  0  0  0  0  0  0
   46.0850   32.2970   36.7330 C   0  0  0  0  0  0  0  0  0  0  0  0
   46.4600   31.9120   35.4590 C   0  0  0  0  0  0  0  0  0  0  0  0
   47.7050   32.2140   34.9210 C   0  0  0  0  0  0  0  0  0  0  0  0
   48.6090   32.9300   35.6920 C   0  0  0  0  0  0  0  0  0  0  0  0
   48.2020   33.3050   36.9730 C   0  0  0  0  0  0  0  0  0  0  0  0
   46.9820   33.0110   37.5060 C   0  0  0  0  0  0  0  0  0  0  0  0
   44.4600   35.9390   44.8430 C   0  0  0  0  0  0  0  0  0  0  0  0
   45.1120   35.9240   43.6080 C   0  0  0  0  0  0  0  0  0  0  0  0
   46.0100   34.9100   43.3150 C   0  0  0  0  0  0  0  0  0  0  0  0
   46.2140   33.9690   44.2560 N   0  0  0  0  0  0  0  0  0  0  0  0
   45.5920   33.9740   45.4490 C   0  0  0  0  0  0  0  0  0  0  0  0
   44.7130   34.9570   45.7460 N   0  0  0  0  0  0  0  0  0  0  0  0
   48.4465   35.8798   42.7220 H   0  0  0  0  0  0  0  0  0  0  0  0
   49.7299   35.6839   40.6308 H   0  0  0  0  0  0  0  0  0  0  0  0
   44.4012   32.7505   39.4705 H   0  0  0  0  0  0  0  0  0  0  0  0
   44.0971   31.6233   37.1408 H   0  0  0  0  0  0  0  0  0  0  0  0
   45.7440   31.3439   34.8469 H   0  0  0  0  0  0  0  0  0  0  0  0
   47.9688   31.8914   33.9030 H   0  0  0  0  0  0  0  0  0  0  0  0
   49.6064   33.1916   35.3090 H   0  0  0  0  0  0  0  0  0  0  0  0
   48.9108   33.8742   37.5924 H   0  0  0  0  0  0  0  0  0  0  0  0
   43.7463   36.7410   45.0826 H   0  0  0  0  0  0  0  0  0  0  0  0
   44.9133   36.7150   42.8698 H   0  0  0  0  0  0  0  0  0  0  0  0
   45.7984   33.1796   46.1813 H   0  0  0  0  0  0  0  0  0  0  0  0
  1 18  1  0
  2  1  2  0
  3  2  1  0
  4  5  1  0
  4  3  2  0
  5  6  2  0
  6  1  1  0
  7  5  1  0
  8  7  2  0
  9  8  1  0
 10  9  1  0
 10 15  2  0
 11 10  1  0
 12 11  2  0
 12 13  1  0
 13 14  2  0
 14 15  1  0
 15  7  1  0
 16 21  2  0
 17 16  1  0
 18 17  2  0
 18 19  1  0
 19 20  2  0
 20 21  1  0
  2 22  1  0
  3 23  1  0
  8 24  1  0
  9 25  1  0
 11 26  1  0
 12 27  1  0
 13 28  1  0
 14 29  1  0
 16 30  1  0
 17 31  1  0
 20 32  1  0
M  ISO  8  22  14  23  14  24  14  25   9  26  14  27  14  28  14  29  14
M  ISO  3  30  14  31  14  32  14
M  END
>  <minimizedAffinity>  (1) 
-5.80700922

>  <minimizedRMSD>  (1) 
2.15196824

$$$$
