
     RDKit          3D

 32 34  0  0  0  0  0  0  0  0999 V2000
   46.6480   34.6870   42.0450 C   0  0  0  0  0  0  0  0  0  0  0  0
   47.8700   35.2500   41.7810 C   0  0  0  0  0  0  0  0  0  0  0  0
   48.5650   35.0870   40.6050 C   0  0  0  0  0  0  0  0  0  0  0  0
   47.9970   34.3200   39.6520 N   0  0  0  0  0  0  0  0  0  0  0  0
   46.8030   33.7620   39.8940 C   0  0  0  0  0  0  0  0  0  0  0  0
   46.1410   33.9310   41.0430 N   0  0  0  0  0  0  0  0  0  0  0  0
   46.2130   32.9540   38.8790 N   0  0  0  0  0  0  0  0  0  0  0  0
   45.1000   32.0560   39.1340 C   0  0  0  0  0  0  0  0  0  0  0  0
   43.9730   32.3110   38.1590 C   0  0  0  0  0  0  0  0  0  0  0  0
   44.4030   32.4760   36.8030 N   0  0  0  0  0  0  0  0  0  0  0  0
   45.5420   33.3290   36.6220 C   0  0  0  0  0  0  0  0  0  0  0  0
   46.7010   32.9820   37.5090 C   0  0  0  0  0  0  0  0  0  0  0  0
   44.4640   35.9970   44.8410 C   0  0  0  0  0  0  0  0  0  0  0  0
   45.0840   35.9410   43.5740 C   0  0  0  0  0  0  0  0  0  0  0  0
   45.9390   34.8790   43.3020 C   0  0  0  0  0  0  0  0  0  0  0  0
   46.1200   33.9670   44.2760 N   0  0  0  0  0  0  0  0  0  0  0  0
   45.5370   34.0110   45.4820 C   0  0  0  0  0  0  0  0  0  0  0  0
   44.6970   35.0450   45.7600 N   0  0  0  0  0  0  0  0  0  0  0  0
   48.3259   35.8748   42.5631 H   0  0  0  0  0  0  0  0  0  0  0  0
   49.5443   35.5629   40.4483 H   0  0  0  0  0  0  0  0  0  0  0  0
   45.4428   31.0164   39.0257 H   0  0  0  0  0  0  0  0  0  0  0  0
   44.7307   32.2319   40.1551 H   0  0  0  0  0  0  0  0  0  0  0  0
   43.2796   31.4581   38.2008 H   0  0  0  0  0  0  0  0  0  0  0  0
   43.4990   33.2568   38.4602 H   0  0  0  0  0  0  0  0  0  0  0  0
   44.6388   31.5460   36.4283 H   0  0  0  0  0  0  0  0  0  0  0  0
   45.8706   33.2524   35.5750 H   0  0  0  0  0  0  0  0  0  0  0  0
   45.2264   34.3484   36.8888 H   0  0  0  0  0  0  0  0  0  0  0  0
   47.1021   31.9955   37.2334 H   0  0  0  0  0  0  0  0  0  0  0  0
   47.5062   33.7236   37.4006 H   0  0  0  0  0  0  0  0  0  0  0  0
   43.7835   36.8281   45.0782 H   0  0  0  0  0  0  0  0  0  0  0  0
   44.8951   36.7192   42.8198 H   0  0  0  0  0  0  0  0  0  0  0  0
   45.7331   33.2289   46.2303 H   0  0  0  0  0  0  0  0  0  0  0  0
  1 15  1  0
  2  1  2  0
  3  2  1  0
  4  5  1  0
  4  3  2  0
  5  6  2  0
  6  1  1  0
  7  8  1  0
  7  5  1  0
  9  8  1  0
 10  9  1  0
 11 10  1  0
 11 12  1  0
 12  7  1  0
 13 18  2  0
 14 13  1  0
 15 14  2  0
 15 16  1  0
 16 17  2  0
 17 18  1  0
  2 19  1  0
  3 20  1  0
  8 21  1  0
  8 22  1  0
  9 23  1  0
  9 24  1  0
 10 25  1  0
 11 26  1  0
 11 27  1  0
 12 28  1  0
 12 29  1  0
 13 30  1  0
 14 31  1  0
 17 32  1  0
M  ISO  8  19  14  20  14  21  13  22  13  23  13  24  13  25   5  26  13
M  ISO  6  27  13  28  13  29  13  30  14  31  14  32  14
M  END
>  <minimizedAffinity>  (1) 
-5.51214409

>  <minimizedRMSD>  (1) 
0.139109269

$$$$
