
     RDKit          3D

 24 26  0  0  0  0  0  0  0  0999 V2000
   46.7280   34.7630   42.0390 C   0  0  0  0  0  0  0  0  0  0  0  0
   47.9700   35.2940   41.8250 C   0  0  0  0  0  0  0  0  0  0  0  0
   48.6830   35.1730   40.6580 C   0  0  0  0  0  0  0  0  0  0  0  0
   48.0990   34.4700   39.6390 N   0  0  0  0  0  0  0  0  0  0  0  0
   46.8950   33.9510   39.8350 C   0  0  0  0  0  0  0  0  0  0  0  0
   46.2090   34.0750   40.9800 N   0  0  0  0  0  0  0  0  0  0  0  0
   46.1850   33.2000   38.8540 N   0  0  0  0  0  0  0  0  0  0  0  0
   45.1480   32.3740   38.8910 C   0  0  0  0  0  0  0  0  0  0  0  0
   44.8660   31.9170   37.6390 N   0  0  0  0  0  0  0  0  0  0  0  0
   45.7750   32.4970   36.8360 C   0  0  0  0  0  0  0  0  0  0  0  0
   46.5900   33.2910   37.5920 N   0  0  0  0  0  0  0  0  0  0  0  0
   44.4630   35.9600   44.8250 C   0  0  0  0  0  0  0  0  0  0  0  0
   45.1060   35.9360   43.5800 C   0  0  0  0  0  0  0  0  0  0  0  0
   45.9960   34.9060   43.2880 C   0  0  0  0  0  0  0  0  0  0  0  0
   46.2000   33.9600   44.2380 N   0  0  0  0  0  0  0  0  0  0  0  0
   45.5720   33.9970   45.4330 C   0  0  0  0  0  0  0  0  0  0  0  0
   44.7130   34.9810   45.7300 N   0  0  0  0  0  0  0  0  0  0  0  0
   48.4314   35.8594   42.6481 H   0  0  0  0  0  0  0  0  0  0  0  0
   49.6811   35.6219   40.5466 H   0  0  0  0  0  0  0  0  0  0  0  0
   44.5954   32.0978   39.8012 H   0  0  0  0  0  0  0  0  0  0  0  0
   45.8502   32.3553   35.7478 H   0  0  0  0  0  0  0  0  0  0  0  0
   43.7585   36.7693   45.0673 H   0  0  0  0  0  0  0  0  0  0  0  0
   44.9090   36.7249   42.8392 H   0  0  0  0  0  0  0  0  0  0  0  0
   45.7687   33.2075   46.1733 H   0  0  0  0  0  0  0  0  0  0  0  0
  1 14  1  0
  2  1  2  0
  3  2  1  0
  4  5  1  0
  4  3  2  0
  5  6  2  0
  6  1  1  0
  7  8  1  0
  7  5  1  0
  9  8  2  0
 10 11  2  0
 10  9  1  0
 11  7  1  0
 12 17  2  0
 13 12  1  0
 14 13  2  0
 14 15  1  0
 15 16  2  0
 16 17  1  0
  2 18  1  0
  3 19  1  0
  8 20  1  0
 10 21  1  0
 12 22  1  0
 13 23  1  0
 16 24  1  0
M  ISO  7  18  14  19  14  20  14  21  14  22  14  23  14  24  14
M  END
>  <minimizedAffinity>  (1) 
-5.18900728

>  <minimizedRMSD>  (1) 
0.166500509

$$$$
