
     RDKit          3D

 34 36  0  0  0  0  0  0  0  0999 V2000
   46.7030   34.7270   42.1150 C   0  0  0  0  0  0  0  0  0  0  0  0
   47.8910   35.3550   41.8470 C   0  0  0  0  0  0  0  0  0  0  0  0
   48.6050   35.2040   40.6790 C   0  0  0  0  0  0  0  0  0  0  0  0
   48.0810   34.3700   39.7350 N   0  0  0  0  0  0  0  0  0  0  0  0
   46.9300   33.7560   39.9800 C   0  0  0  0  0  0  0  0  0  0  0  0
   46.2460   33.9120   41.1200 N   0  0  0  0  0  0  0  0  0  0  0  0
   44.4500   35.9820   44.8790 C   0  0  0  0  0  0  0  0  0  0  0  0
   45.0920   35.9420   43.6310 C   0  0  0  0  0  0  0  0  0  0  0  0
   45.9680   34.9040   43.3550 C   0  0  0  0  0  0  0  0  0  0  0  0
   46.1540   33.9770   44.3190 N   0  0  0  0  0  0  0  0  0  0  0  0
   45.5410   34.0130   45.5140 C   0  0  0  0  0  0  0  0  0  0  0  0
   44.6830   35.0240   45.7940 N   0  0  0  0  0  0  0  0  0  0  0  0
   46.3630   32.8450   38.9410 C   0  0  0  0  0  0  0  0  0  0  0  0
   46.7870   33.3480   37.6120 C   0  0  0  0  0  0  0  0  0  0  0  0
   45.9110   32.9990   36.4660 C   0  0  0  0  0  0  0  0  0  0  0  0
   44.7800   32.0450   36.8360 C   0  0  0  0  0  0  0  0  0  0  0  0
   44.0450   32.7900   37.9550 C   0  0  0  0  0  0  0  0  0  0  0  0
   44.9060   32.7090   39.1830 C   0  0  0  0  0  0  0  0  0  0  0  0
   48.3021   36.0249   42.6166 H   0  0  0  0  0  0  0  0  0  0  0  0
   49.5556   35.7324   40.5145 H   0  0  0  0  0  0  0  0  0  0  0  0
   43.7529   36.8010   45.1097 H   0  0  0  0  0  0  0  0  0  0  0  0
   44.9021   36.7246   42.8817 H   0  0  0  0  0  0  0  0  0  0  0  0
   45.7341   33.2277   46.2596 H   0  0  0  0  0  0  0  0  0  0  0  0
   46.7439   31.8140   38.9860 H   0  0  0  0  0  0  0  0  0  0  0  0
   46.8408   34.4451   37.6706 H   0  0  0  0  0  0  0  0  0  0  0  0
   47.7490   32.8561   37.4058 H   0  0  0  0  0  0  0  0  0  0  0  0
   46.5271   32.5242   35.6882 H   0  0  0  0  0  0  0  0  0  0  0  0
   45.4465   33.9328   36.1164 H   0  0  0  0  0  0  0  0  0  0  0  0
   44.1158   31.8688   35.9771 H   0  0  0  0  0  0  0  0  0  0  0  0
   45.1373   31.0508   37.1422 H   0  0  0  0  0  0  0  0  0  0  0  0
   43.8923   33.8416   37.6705 H   0  0  0  0  0  0  0  0  0  0  0  0
   43.0580   32.3411   38.1400 H   0  0  0  0  0  0  0  0  0  0  0  0
   44.7294   31.7332   39.6590 H   0  0  0  0  0  0  0  0  0  0  0  0
   44.6197   33.5631   39.8143 H   0  0  0  0  0  0  0  0  0  0  0  0
  1  9  1  0
  2  1  2  0
  3  2  1  0
  4  5  1  0
  4  3  2  0
  5  6  2  0
  6  1  1  0
  7 12  2  0
  8  7  1  0
  9  8  2  0
  9 10  1  0
 10 11  2  0
 11 12  1  0
 13 18  1  0
 13  5  1  0
 14 13  1  0
 15 16  1  0
 15 14  1  0
 16 17  1  0
 17 18  1  0
  2 19  1  0
  3 20  1  0
  7 21  1  0
  8 22  1  0
 11 23  1  0
 13 24  1  0
 14 25  1  0
 14 26  1  0
 15 27  1  0
 15 28  1  0
 16 29  1  0
 16 30  1  0
 17 31  1  0
 17 32  1  0
 18 33  1  0
 18 34  1  0
M  ISO  8  19  14  20  14  21  14  22  14  23  14  24  13  25  13  26  13
M  ISO  8  27  13  28  13  29  13  30  13  31  13  32  13  33  13  34  13
M  END
>  <minimizedAffinity>  (1) 
-5.14409208

>  <minimizedRMSD>  (1) 
0.343804032

$$$$
