
     RDKit          3D

 41 44  0  0  1  0  0  0  0  0999 V2000
   44.5460   33.4940   42.7510 C   0  0  0  0  0  0  0  0  0  0  0  0
   44.4690   32.1230   42.8410 C   0  0  0  0  0  0  0  0  0  0  0  0
   43.4840   31.4450   42.1860 C   0  0  0  0  0  0  0  0  0  0  0  0
   42.5620   32.0610   41.4410 N   0  0  0  0  0  0  0  0  0  0  0  0
   42.6400   33.3880   41.3570 C   0  0  0  0  0  0  0  0  0  0  0  0
   43.5940   34.0760   41.9860 N   0  0  0  0  0  0  0  0  0  0  0  0
   46.9760   34.4580   42.9780 C   0  0  1  0  0  0  0  0  0  0  0  0
   46.0360   35.6100   42.8820 C   0  0  0  0  0  0  0  0  0  0  0  0
   45.5380   34.3810   43.4320 C   0  0  1  0  0  0  0  0  0  0  0  0
   47.9690   33.9380   39.4330 C   0  0  0  0  0  0  0  0  0  0  0  0
   47.5120   34.5770   40.6340 C   0  0  0  0  0  0  0  0  0  0  0  0
   47.4480   33.7850   41.7800 C   0  0  0  0  0  0  0  0  0  0  0  0
   47.8070   32.4800   41.7160 N   0  0  0  0  0  0  0  0  0  0  0  0
   48.2290   31.9010   40.5940 C   0  0  0  0  0  0  0  0  0  0  0  0
   48.3160   32.6190   39.4370 N   0  0  0  0  0  0  0  0  0  0  0  0
   41.6250   34.1040   40.5540 C   0  0  1  0  0  0  0  0  0  0  0  0
   40.5360   34.5650   41.4530 C   0  0  0  0  0  0  0  0  0  0  0  0
   42.2260   35.2680   39.7900 C   0  0  0  0  0  0  0  0  0  0  0  0
   41.9070   35.0410   38.3260 C   0  0  0  0  0  0  0  0  0  0  0  0
   40.4810   35.0670   37.8480 C   0  0  0  0  0  0  0  0  0  0  0  0
   41.3580   36.2230   37.5300 C   0  0  0  0  0  0  0  0  0  0  0  0
   45.2054   31.5716   43.4441 H   0  0  0  0  0  0  0  0  0  0  0  0
   43.4471   30.3492   42.2744 H   0  0  0  0  0  0  0  0  0  0  0  0
   47.9556   34.2564   43.4360 H   0  0  0  0  0  0  0  0  0  0  0  0
   46.1757   36.4823   43.5375 H   0  0  0  0  0  0  0  0  0  0  0  0
   45.7128   36.2676   42.0615 H   0  0  0  0  0  0  0  0  0  0  0  0
   45.0169   34.1238   44.3660 H   0  0  0  0  0  0  0  0  0  0  0  0
   48.0401   34.5173   38.5006 H   0  0  0  0  0  0  0  0  0  0  0  0
   47.2263   35.6391   40.6498 H   0  0  0  0  0  0  0  0  0  0  0  0
   48.5093   30.8373   40.5997 H   0  0  0  0  0  0  0  0  0  0  0  0
   41.2175   33.4116   39.8027 H   0  0  0  0  0  0  0  0  0  0  0  0
   40.8452   34.4341   42.5005 H   0  0  0  0  0  0  0  0  0  0  0  0
   40.3283   35.6282   41.2621 H   0  0  0  0  0  0  0  0  0  0  0  0
   39.6281   33.9740   41.2621 H   0  0  0  0  0  0  0  0  0  0  0  0
   41.7827   36.2149   40.1319 H   0  0  0  0  0  0  0  0  0  0  0  0
   43.3122   35.3288   39.9529 H   0  0  0  0  0  0  0  0  0  0  0  0
   42.7387   34.3275   38.2297 H   0  0  0  0  0  0  0  0  0  0  0  0
   40.1619   34.3865   37.0448 H   0  0  0  0  0  0  0  0  0  0  0  0
   39.5029   34.9555   38.3389 H   0  0  0  0  0  0  0  0  0  0  0  0
   41.6917   36.3924   36.4956 H   0  0  0  0  0  0  0  0  0  0  0  0
   41.3016   37.3099   37.6894 H   0  0  0  0  0  0  0  0  0  0  0  0
  1  2  2  0
  1  9  1  0
  3  2  1  0
  4  3  2  0
  5  4  1  0
  5  6  2  0
  6  1  1  0
  7  9  1  0
  8  7  1  0
  8  9  1  0
 10 15  2  0
 10 11  1  0
 11 12  2  0
 12  7  1  0
 13 12  1  0
 14 13  2  0
 15 14  1  0
 16  5  1  0
 16 17  1  0
 18 16  1  0
 19 18  1  0
 20 19  1  0
 21 20  1  0
 21 19  1  0
  2 22  1  0
  3 23  1  0
  7 24  1  1
  8 25  1  0
  8 26  1  0
  9 27  1  1
 10 28  1  0
 11 29  1  0
 14 30  1  0
 16 31  1  6
 17 32  1  0
 17 33  1  0
 17 34  1  0
 18 35  1  0
 18 36  1  0
 19 37  1  0
 20 38  1  0
 20 39  1  0
 21 40  1  0
 21 41  1  0
M  ISO  8  22  14  23  14  24  13  25  13  26  13  27  13  28  14  29  14
M  ISO  8  30  14  31   8  32   8  33   8  34   8  35   8  36   8  37  13
M  ISO  4  38  13  39  13  40  13  41  13
M  END
>  <minimizedAffinity>  (1) 
-4.97737026

>  <minimizedRMSD>  (1) 
1.08624184

$$$$
