
     RDKit          3D

 31 33  0  0  0  0  0  0  0  0999 V2000
   46.7490   34.7510   42.0290 C   0  0  0  0  0  0  0  0  0  0  0  0
   47.9510   35.3580   41.7770 C   0  0  0  0  0  0  0  0  0  0  0  0
   48.6710   35.2310   40.6130 C   0  0  0  0  0  0  0  0  0  0  0  0
   48.1410   34.4410   39.6410 N   0  0  0  0  0  0  0  0  0  0  0  0
   46.9690   33.8360   39.8620 C   0  0  0  0  0  0  0  0  0  0  0  0
   46.2900   33.9770   41.0020 N   0  0  0  0  0  0  0  0  0  0  0  0
   44.4730   35.9830   44.7750 C   0  0  0  0  0  0  0  0  0  0  0  0
   45.1230   35.9550   43.5300 C   0  0  0  0  0  0  0  0  0  0  0  0
   46.0140   34.9060   43.2640 C   0  0  0  0  0  0  0  0  0  0  0  0
   46.1980   33.9780   44.2210 N   0  0  0  0  0  0  0  0  0  0  0  0
   45.5730   34.0080   45.4150 C   0  0  0  0  0  0  0  0  0  0  0  0
   44.7140   35.0040   45.6950 N   0  0  0  0  0  0  0  0  0  0  0  0
   46.3920   32.9720   38.7980 C   0  0  0  0  0  0  0  0  0  0  0  0
   46.7710   33.3980   37.4100 C   0  0  0  0  0  0  0  0  0  0  0  0
   45.6400   32.9630   36.5090 C   0  0  0  0  0  0  0  0  0  0  0  0
   44.5670   32.4050   37.4310 C   0  0  0  0  0  0  0  0  0  0  0  0
   44.8800   33.0660   38.7670 C   0  0  0  0  0  0  0  0  0  0  0  0
   48.3726   35.9964   42.5673 H   0  0  0  0  0  0  0  0  0  0  0  0
   49.6332   35.7455   40.4738 H   0  0  0  0  0  0  0  0  0  0  0  0
   43.7688   36.7951   45.0088 H   0  0  0  0  0  0  0  0  0  0  0  0
   44.9370   36.7386   42.7807 H   0  0  0  0  0  0  0  0  0  0  0  0
   45.7651   33.2200   46.1581 H   0  0  0  0  0  0  0  0  0  0  0  0
   46.7774   31.9721   39.0461 H   0  0  0  0  0  0  0  0  0  0  0  0
   46.8935   34.4903   37.3670 H   0  0  0  0  0  0  0  0  0  0  0  0
   47.7251   32.9467   37.1000 H   0  0  0  0  0  0  0  0  0  0  0  0
   45.2497   33.8213   35.9425 H   0  0  0  0  0  0  0  0  0  0  0  0
   45.9723   32.2143   35.7748 H   0  0  0  0  0  0  0  0  0  0  0  0
   43.5619   32.6815   37.0797 H   0  0  0  0  0  0  0  0  0  0  0  0
   44.5697   31.3062   37.4816 H   0  0  0  0  0  0  0  0  0  0  0  0
   44.5411   34.1123   38.7878 H   0  0  0  0  0  0  0  0  0  0  0  0
   44.3819   32.5978   39.6288 H   0  0  0  0  0  0  0  0  0  0  0  0
  1  9  1  0
  2  1  2  0
  3  2  1  0
  4  5  1  0
  4  3  2  0
  5  6  2  0
  6  1  1  0
  7 12  2  0
  8  7  1  0
  9  8  2  0
  9 10  1  0
 10 11  2  0
 11 12  1  0
 13  5  1  0
 14 13  1  0
 15 14  1  0
 15 16  1  0
 16 17  1  0
 17 13  1  0
  2 18  1  0
  3 19  1  0
  7 20  1  0
  8 21  1  0
 11 22  1  0
 13 23  1  0
 14 24  1  0
 14 25  1  0
 15 26  1  0
 15 27  1  0
 16 28  1  0
 16 29  1  0
 17 30  1  0
 17 31  1  0
M  ISO  8  18  14  19  14  20  14  21  14  22  14  23  13  24  13  25  13
M  ISO  6  26  13  27  13  28  13  29  13  30  13  31  13
M  END
>  <minimizedAffinity>  (1) 
-5.11124802

>  <minimizedRMSD>  (1) 
0.421977252

$$$$
