
     RDKit          3D

 28 30  0  0  0  0  0  0  0  0999 V2000
   46.7370   34.7860   42.0520 C   0  0  0  0  0  0  0  0  0  0  0  0
   47.9910   35.3110   41.8630 C   0  0  0  0  0  0  0  0  0  0  0  0
   48.7260   35.2020   40.7100 C   0  0  0  0  0  0  0  0  0  0  0  0
   48.1620   34.5250   39.6880 N   0  0  0  0  0  0  0  0  0  0  0  0
   46.9440   34.0040   39.8450 C   0  0  0  0  0  0  0  0  0  0  0  0
   46.2450   34.1260   40.9850 N   0  0  0  0  0  0  0  0  0  0  0  0
   44.4620   35.9490   44.8330 C   0  0  0  0  0  0  0  0  0  0  0  0
   45.1040   35.9480   43.5860 C   0  0  0  0  0  0  0  0  0  0  0  0
   45.9930   34.9290   43.2980 C   0  0  0  0  0  0  0  0  0  0  0  0
   46.1930   33.9800   44.2480 N   0  0  0  0  0  0  0  0  0  0  0  0
   45.5740   33.9840   45.4430 C   0  0  0  0  0  0  0  0  0  0  0  0
   44.7110   34.9660   45.7350 N   0  0  0  0  0  0  0  0  0  0  0  0
   46.3200   33.2660   38.7450 C   0  0  0  0  0  0  0  0  0  0  0  0
   45.1980   32.4780   38.9830 C   0  0  0  0  0  0  0  0  0  0  0  0
   44.5760   31.7620   37.9690 C   0  0  0  0  0  0  0  0  0  0  0  0
   45.1200   31.8680   36.7030 C   0  0  0  0  0  0  0  0  0  0  0  0
   46.2300   32.6310   36.3950 C   0  0  0  0  0  0  0  0  0  0  0  0
   46.8160   33.3270   37.4430 C   0  0  0  0  0  0  0  0  0  0  0  0
   48.4417   35.8621   42.7015 H   0  0  0  0  0  0  0  0  0  0  0  0
   49.7287   35.6459   40.6225 H   0  0  0  0  0  0  0  0  0  0  0  0
   43.7521   36.7517   45.0815 H   0  0  0  0  0  0  0  0  0  0  0  0
   44.9042   36.7422   42.8516 H   0  0  0  0  0  0  0  0  0  0  0  0
   45.7751   33.1872   46.1742 H   0  0  0  0  0  0  0  0  0  0  0  0
   44.7922   32.4207   40.0038 H   0  0  0  0  0  0  0  0  0  0  0  0
   43.6908   31.1389   38.1644 H   0  0  0  0  0  0  0  0  0  0  0  0
   44.6380   31.3086   35.8876 H   0  0  0  0  0  0  0  0  0  0  0  0
   46.6289   32.6841   35.3713 H   0  0  0  0  0  0  0  0  0  0  0  0
   47.7013   33.9475   37.2399 H   0  0  0  0  0  0  0  0  0  0  0  0
  1  9  1  0
  2  1  2  0
  3  2  1  0
  4  5  1  0
  4  3  2  0
  5  6  2  0
  6  1  1  0
  7 12  2  0
  8  7  1  0
  9  8  2  0
  9 10  1  0
 10 11  2  0
 11 12  1  0
 13 14  2  0
 13  5  1  0
 15 14  1  0
 16 15  2  0
 17 16  1  0
 17 18  2  0
 18 13  1  0
  2 19  1  0
  3 20  1  0
  7 21  1  0
  8 22  1  0
 11 23  1  0
 14 24  1  0
 15 25  1  0
 16 26  1  0
 17 27  1  0
 18 28  1  0
M  ISO  8  19  14  20  14  21  14  22  14  23  14  24  14  25  14  26  14
M  ISO  2  27  14  28  14
M  END
>  <minimizedAffinity>  (1) 
-5.10598183

>  <minimizedRMSD>  (1) 
0.815768123

$$$$
