
     RDKit          3D

 26 28  0  0  0  0  0  0  0  0999 V2000
   46.7320   34.7390   42.0180 C   0  0  0  0  0  0  0  0  0  0  0  0
   47.9740   35.3130   41.8030 C   0  0  0  0  0  0  0  0  0  0  0  0
   48.6850   35.1980   40.6320 C   0  0  0  0  0  0  0  0  0  0  0  0
   48.1280   34.4780   39.6360 N   0  0  0  0  0  0  0  0  0  0  0  0
   46.9310   33.9160   39.8230 C   0  0  0  0  0  0  0  0  0  0  0  0
   46.2360   34.0290   40.9710 N   0  0  0  0  0  0  0  0  0  0  0  0
   44.4730   35.9600   44.8010 C   0  0  0  0  0  0  0  0  0  0  0  0
   45.1170   35.9180   43.5650 C   0  0  0  0  0  0  0  0  0  0  0  0
   46.0070   34.8800   43.2710 C   0  0  0  0  0  0  0  0  0  0  0  0
   46.2060   33.9430   44.2220 N   0  0  0  0  0  0  0  0  0  0  0  0
   45.5820   33.9830   45.4190 C   0  0  0  0  0  0  0  0  0  0  0  0
   44.7180   34.9840   45.7120 N   0  0  0  0  0  0  0  0  0  0  0  0
   46.3300   33.1370   38.7430 C   0  0  0  0  0  0  0  0  0  0  0  0
   46.7520   33.3110   37.4270 C   0  0  0  0  0  0  0  0  0  0  0  0
   46.2510   32.6290   36.3440 C   0  0  0  0  0  0  0  0  0  0  0  0
   45.2750   31.7250   36.6010 N   0  0  0  0  0  0  0  0  0  0  0  0
   44.8520   31.5430   37.8810 C   0  0  0  0  0  0  0  0  0  0  0  0
   45.3690   32.2330   38.9160 N   0  0  0  0  0  0  0  0  0  0  0  0
   48.4198   35.8979   42.6210 H   0  0  0  0  0  0  0  0  0  0  0  0
   49.6693   35.6742   40.5117 H   0  0  0  0  0  0  0  0  0  0  0  0
   43.7734   36.7759   45.0355 H   0  0  0  0  0  0  0  0  0  0  0  0
   44.9245   36.7033   42.8192 H   0  0  0  0  0  0  0  0  0  0  0  0
   45.7771   33.1959   46.1623 H   0  0  0  0  0  0  0  0  0  0  0  0
   47.5456   34.0495   37.2406 H   0  0  0  0  0  0  0  0  0  0  0  0
   46.6222   32.8074   35.3240 H   0  0  0  0  0  0  0  0  0  0  0  0
   44.0595   30.8061   38.0779 H   0  0  0  0  0  0  0  0  0  0  0  0
  1  9  1  0
  2  1  2  0
  3  2  1  0
  4  5  1  0
  4  3  2  0
  5  6  2  0
  6  1  1  0
  7 12  2  0
  8  7  1  0
  9  8  2  0
  9 10  1  0
 10 11  2  0
 11 12  1  0
 13 18  1  0
 13  5  1  0
 14 13  2  0
 15 16  2  0
 15 14  1  0
 16 17  1  0
 17 18  2  0
  2 19  1  0
  3 20  1  0
  7 21  1  0
  8 22  1  0
 11 23  1  0
 14 24  1  0
 15 25  1  0
 17 26  1  0
M  ISO  8  19  14  20  14  21  14  22  14  23  14  24  14  25  14  26  14
M  END
>  <minimizedAffinity>  (1) 
-5.07283354

>  <minimizedRMSD>  (1) 
0.12476474

$$$$
