
     RDKit          3D

 24 26  0  0  0  0  0  0  0  0999 V2000
   46.7430   34.7550   42.0230 C   0  0  0  0  0  0  0  0  0  0  0  0
   47.9710   35.3110   41.7930 C   0  0  0  0  0  0  0  0  0  0  0  0
   48.6900   35.1910   40.6180 C   0  0  0  0  0  0  0  0  0  0  0  0
   48.1300   34.4690   39.6250 N   0  0  0  0  0  0  0  0  0  0  0  0
   46.9360   33.9200   39.8270 C   0  0  0  0  0  0  0  0  0  0  0  0
   46.2460   34.0410   40.9710 N   0  0  0  0  0  0  0  0  0  0  0  0
   44.4720   35.9680   44.7780 C   0  0  0  0  0  0  0  0  0  0  0  0
   45.1160   35.9440   43.5410 C   0  0  0  0  0  0  0  0  0  0  0  0
   46.0110   34.9000   43.2690 C   0  0  0  0  0  0  0  0  0  0  0  0
   46.2100   33.9630   44.2160 N   0  0  0  0  0  0  0  0  0  0  0  0
   45.5850   33.9930   45.4080 C   0  0  0  0  0  0  0  0  0  0  0  0
   44.7130   34.9970   45.6910 N   0  0  0  0  0  0  0  0  0  0  0  0
   46.1820   33.1030   38.8510 C   0  0  0  0  0  0  0  0  0  0  0  0
   45.1540   32.1070   39.1210 C   0  0  0  0  0  0  0  0  0  0  0  0
   44.7190   31.5500   37.4180 S   0  0  0  0  0  0  0  0  0  0  0  0
   45.9930   32.7530   36.6820 C   0  0  0  0  0  0  0  0  0  0  0  0
   46.4510   33.2720   37.5730 N   0  0  0  0  0  0  0  0  0  0  0  0
   48.4218   35.8994   42.6058 H   0  0  0  0  0  0  0  0  0  0  0  0
   49.6760   35.6637   40.4979 H   0  0  0  0  0  0  0  0  0  0  0  0
   43.7660   36.7782   45.0128 H   0  0  0  0  0  0  0  0  0  0  0  0
   44.9254   36.7286   42.7939 H   0  0  0  0  0  0  0  0  0  0  0  0
   45.7795   33.2064   46.1519 H   0  0  0  0  0  0  0  0  0  0  0  0
   44.7449   31.7747   40.0865 H   0  0  0  0  0  0  0  0  0  0  0  0
   46.2317   32.9091   35.6196 H   0  0  0  0  0  0  0  0  0  0  0  0
  1  9  1  0
  2  1  2  0
  3  2  1  0
  4  5  1  0
  4  3  2  0
  5  6  2  0
  6  1  1  0
  7 12  2  0
  8  7  1  0
  9  8  2  0
  9 10  1  0
 10 11  2  0
 11 12  1  0
 13 14  2  0
 13  5  1  0
 15 14  1  0
 16 15  1  0
 16 17  2  0
 17 13  1  0
  2 18  1  0
  3 19  1  0
  7 20  1  0
  8 21  1  0
 11 22  1  0
 14 23  1  0
 16 24  1  0
M  ISO  7  18  14  19  14  20  14  21  14  22  14  23  14  24  14
M  END
>  <minimizedAffinity>  (1) 
-4.92310524

>  <minimizedRMSD>  (1) 
0.47699815

$$$$
