
     RDKit          3D

 25 27  0  0  0  0  0  0  0  0999 V2000
   46.7260   34.7670   42.0010 C   0  0  0  0  0  0  0  0  0  0  0  0
   47.9750   35.3230   41.7960 C   0  0  0  0  0  0  0  0  0  0  0  0
   48.7040   35.1980   40.6330 C   0  0  0  0  0  0  0  0  0  0  0  0
   48.1480   34.4770   39.6270 N   0  0  0  0  0  0  0  0  0  0  0  0
   46.9370   33.9320   39.8120 C   0  0  0  0  0  0  0  0  0  0  0  0
   46.2520   34.0690   40.9520 N   0  0  0  0  0  0  0  0  0  0  0  0
   44.4730   35.9670   44.7830 C   0  0  0  0  0  0  0  0  0  0  0  0
   45.1150   35.9470   43.5290 C   0  0  0  0  0  0  0  0  0  0  0  0
   45.9950   34.9210   43.2380 C   0  0  0  0  0  0  0  0  0  0  0  0
   46.1980   33.9680   44.1960 N   0  0  0  0  0  0  0  0  0  0  0  0
   45.5780   33.9970   45.3900 C   0  0  0  0  0  0  0  0  0  0  0  0
   44.7160   34.9970   45.6830 N   0  0  0  0  0  0  0  0  0  0  0  0
   46.1970   33.1220   38.8200 C   0  0  0  0  0  0  0  0  0  0  0  0
   45.1760   32.2040   38.8070 C   0  0  0  0  0  0  0  0  0  0  0  0
   45.0100   31.8570   37.4640 C   0  0  0  0  0  0  0  0  0  0  0  0
   45.9030   32.5480   36.7220 N   0  0  0  0  0  0  0  0  0  0  0  0
   46.6280   33.3200   37.5470 N   0  0  0  0  0  0  0  0  0  0  0  0
   48.4175   35.9053   42.6177 H   0  0  0  0  0  0  0  0  0  0  0  0
   49.6949   35.6632   40.5249 H   0  0  0  0  0  0  0  0  0  0  0  0
   43.7711   36.7781   45.0269 H   0  0  0  0  0  0  0  0  0  0  0  0
   44.9185   36.7381   42.7904 H   0  0  0  0  0  0  0  0  0  0  0  0
   45.7727   33.2059   46.1290 H   0  0  0  0  0  0  0  0  0  0  0  0
   44.6097   31.8232   39.6697 H   0  0  0  0  0  0  0  0  0  0  0  0
   44.2732   31.1390   37.0745 H   0  0  0  0  0  0  0  0  0  0  0  0
   46.0093   32.4921   35.6990 H   0  0  0  0  0  0  0  0  0  0  0  0
  1  9  1  0
  2  1  2  0
  3  2  1  0
  4  5  1  0
  4  3  2  0
  5  6  2  0
  6  1  1  0
  7 12  2  0
  8  7  1  0
  9  8  2  0
  9 10  1  0
 10 11  2  0
 11 12  1  0
 13  5  1  0
 14 13  1  0
 15 14  2  0
 16 15  1  0
 16 17  1  0
 17 13  2  0
  2 18  1  0
  3 19  1  0
  7 20  1  0
  8 21  1  0
 11 22  1  0
 14 23  1  0
 15 24  1  0
 16 25  1  0
M  ISO  8  18  14  19  14  20  14  21  14  22  14  23  14  24  14  25   9
M  END
>  <minimizedAffinity>  (1) 
-4.91622114

>  <minimizedRMSD>  (1) 
0.213367984

$$$$
