
     RDKit          3D

 30 31  0  0  0  0  0  0  0  0999 V2000
   46.7520   34.7590   41.9920 C   0  0  0  0  0  0  0  0  0  0  0  0
   47.9780   35.3680   41.7640 C   0  0  0  0  0  0  0  0  0  0  0  0
   48.7010   35.2410   40.6040 C   0  0  0  0  0  0  0  0  0  0  0  0
   48.1710   34.4650   39.6220 N   0  0  0  0  0  0  0  0  0  0  0  0
   46.9870   33.8700   39.8270 C   0  0  0  0  0  0  0  0  0  0  0  0
   46.3060   34.0120   40.9650 N   0  0  0  0  0  0  0  0  0  0  0  0
   44.4770   35.9570   44.7600 C   0  0  0  0  0  0  0  0  0  0  0  0
   45.1290   35.9230   43.5160 C   0  0  0  0  0  0  0  0  0  0  0  0
   46.0160   34.9090   43.2280 C   0  0  0  0  0  0  0  0  0  0  0  0
   46.2230   33.9610   44.1900 N   0  0  0  0  0  0  0  0  0  0  0  0
   45.6030   33.9860   45.3830 C   0  0  0  0  0  0  0  0  0  0  0  0
   44.7270   34.9880   45.6680 N   0  0  0  0  0  0  0  0  0  0  0  0
   46.4070   33.0210   38.7540 C   0  0  0  0  0  0  0  0  0  0  0  0
   44.8990   33.0820   38.7700 C   0  0  0  0  0  0  0  0  0  0  0  0
   46.8960   33.4580   37.3780 C   0  0  0  0  0  0  0  0  0  0  0  0
   46.7920   31.5630   38.9350 C   0  0  0  0  0  0  0  0  0  0  0  0
   48.3980   35.9936   42.5654 H   0  0  0  0  0  0  0  0  0  0  0  0
   49.6694   35.7464   40.4746 H   0  0  0  0  0  0  0  0  0  0  0  0
   43.7688   36.7658   44.9929 H   0  0  0  0  0  0  0  0  0  0  0  0
   44.9309   36.7074   42.7707 H   0  0  0  0  0  0  0  0  0  0  0  0
   45.8030   33.1997   46.1257 H   0  0  0  0  0  0  0  0  0  0  0  0
   44.5436   33.0964   39.8109 H   0  0  0  0  0  0  0  0  0  0  0  0
   44.5635   33.9945   38.2554 H   0  0  0  0  0  0  0  0  0  0  0  0
   44.4909   32.1996   38.2554 H   0  0  0  0  0  0  0  0  0  0  0  0
   47.7117   34.1870   37.4932 H   0  0  0  0  0  0  0  0  0  0  0  0
   47.2631   32.5815   36.8239 H   0  0  0  0  0  0  0  0  0  0  0  0
   46.0661   33.9209   36.8239 H   0  0  0  0  0  0  0  0  0  0  0  0
   46.8534   31.3305   40.0084 H   0  0  0  0  0  0  0  0  0  0  0  0
   46.0323   30.9220   38.4638 H   0  0  0  0  0  0  0  0  0  0  0  0
   47.7691   31.3806   38.4638 H   0  0  0  0  0  0  0  0  0  0  0  0
  1  9  1  0
  2  1  2  0
  3  2  1  0
  4  5  1  0
  4  3  2  0
  5  6  2  0
  6  1  1  0
  7 12  2  0
  8  7  1  0
  9  8  2  0
  9 10  1  0
 10 11  2  0
 11 12  1  0
 13 14  1  0
 13 16  1  0
 13  5  1  0
 15 13  1  0
  2 17  1  0
  3 18  1  0
  7 19  1  0
  8 20  1  0
 11 21  1  0
 14 22  1  0
 14 23  1  0
 14 24  1  0
 15 25  1  0
 15 26  1  0
 15 27  1  0
 16 28  1  0
 16 29  1  0
 16 30  1  0
M  ISO  8  17  14  18  14  19  14  20  14  21  14  22   8  23   8  24   8
M  ISO  6  25   8  26   8  27   8  28   8  29   8  30   8
M  END
>  <minimizedAffinity>  (1) 
-4.81488562

>  <minimizedRMSD>  (1) 
0.501118064

$$$$
