
     RDKit          3D

 25 27  0  0  0  0  0  0  0  0999 V2000
   46.7620   34.7790   42.0490 C   0  0  0  0  0  0  0  0  0  0  0  0
   47.9980   35.3500   41.8400 C   0  0  0  0  0  0  0  0  0  0  0  0
   48.7110   35.2410   40.6680 C   0  0  0  0  0  0  0  0  0  0  0  0
   48.1490   34.5210   39.6570 N   0  0  0  0  0  0  0  0  0  0  0  0
   46.9630   33.9660   39.8420 C   0  0  0  0  0  0  0  0  0  0  0  0
   46.2820   34.0850   40.9990 N   0  0  0  0  0  0  0  0  0  0  0  0
   44.4720   35.9300   44.8220 C   0  0  0  0  0  0  0  0  0  0  0  0
   45.1210   35.9200   43.5870 C   0  0  0  0  0  0  0  0  0  0  0  0
   46.0260   34.9030   43.2900 C   0  0  0  0  0  0  0  0  0  0  0  0
   46.2250   33.9650   44.2410 N   0  0  0  0  0  0  0  0  0  0  0  0
   45.6020   33.9710   45.4310 C   0  0  0  0  0  0  0  0  0  0  0  0
   44.7290   34.9430   45.7300 N   0  0  0  0  0  0  0  0  0  0  0  0
   46.3270   33.1710   38.7490 C   0  0  0  0  0  0  0  0  0  0  0  0
   47.0380   33.2080   37.4390 C   0  0  0  0  0  0  0  0  0  0  0  0
   47.0950   31.9540   38.2230 C   0  0  0  0  0  0  0  0  0  0  0  0
   48.4433   35.9298   42.6619 H   0  0  0  0  0  0  0  0  0  0  0  0
   49.6961   35.7165   40.5520 H   0  0  0  0  0  0  0  0  0  0  0  0
   43.7562   36.7297   45.0633 H   0  0  0  0  0  0  0  0  0  0  0  0
   44.9190   36.7118   42.8507 H   0  0  0  0  0  0  0  0  0  0  0  0
   45.8089   33.1758   46.1623 H   0  0  0  0  0  0  0  0  0  0  0  0
   45.3015   33.3443   39.1071 H   0  0  0  0  0  0  0  0  0  0  0  0
   47.9437   33.8224   37.3287 H   0  0  0  0  0  0  0  0  0  0  0  0
   46.7353   33.4545   36.4106 H   0  0  0  0  0  0  0  0  0  0  0  0
   46.5490   31.0630   37.8795 H   0  0  0  0  0  0  0  0  0  0  0  0
   47.8982   31.3094   38.6096 H   0  0  0  0  0  0  0  0  0  0  0  0
  1  9  1  0
  2  1  2  0
  3  2  1  0
  4  5  1  0
  4  3  2  0
  5  6  2  0
  6  1  1  0
  7 12  2  0
  8  7  1  0
  9  8  2  0
  9 10  1  0
 10 11  2  0
 11 12  1  0
 13  5  1  0
 14 15  1  0
 14 13  1  0
 15 13  1  0
  2 16  1  0
  3 17  1  0
  7 18  1  0
  8 19  1  0
 11 20  1  0
 13 21  1  0
 14 22  1  0
 14 23  1  0
 15 24  1  0
 15 25  1  0
M  ISO  8  16  14  17  14  18  14  19  14  20  14  21  13  22  13  23  13
M  ISO  2  24  13  25  13
M  END
>  <minimizedAffinity>  (1) 
-4.6608057

>  <minimizedRMSD>  (1) 
0.169120654

$$$$
