
     RDKit          3D

 21 22  0  0  0  0  0  0  0  0999 V2000
   46.7330   34.7470   42.0880 C   0  0  0  0  0  0  0  0  0  0  0  0
   47.9540   35.3400   41.8660 C   0  0  0  0  0  0  0  0  0  0  0  0
   48.6700   35.2210   40.6920 C   0  0  0  0  0  0  0  0  0  0  0  0
   48.1270   34.4730   39.7090 N   0  0  0  0  0  0  0  0  0  0  0  0
   46.9410   33.8890   39.9060 C   0  0  0  0  0  0  0  0  0  0  0  0
   46.2470   34.0070   41.0480 N   0  0  0  0  0  0  0  0  0  0  0  0
   44.4580   35.9480   44.8550 C   0  0  0  0  0  0  0  0  0  0  0  0
   45.1030   35.9280   43.6090 C   0  0  0  0  0  0  0  0  0  0  0  0
   46.0010   34.8900   43.3310 C   0  0  0  0  0  0  0  0  0  0  0  0
   46.1910   33.9650   44.2900 N   0  0  0  0  0  0  0  0  0  0  0  0
   45.5690   33.9900   45.4840 C   0  0  0  0  0  0  0  0  0  0  0  0
   44.6990   34.9830   45.7730 N   0  0  0  0  0  0  0  0  0  0  0  0
   46.3360   33.0610   38.8220 C   0  0  0  0  0  0  0  0  0  0  0  0
   48.3870   35.9471   42.6747 H   0  0  0  0  0  0  0  0  0  0  0  0
   49.6439   35.7159   40.5630 H   0  0  0  0  0  0  0  0  0  0  0  0
   43.7492   36.7563   45.0881 H   0  0  0  0  0  0  0  0  0  0  0  0
   44.9068   36.7133   42.8642 H   0  0  0  0  0  0  0  0  0  0  0  0
   45.7691   33.2017   46.2246 H   0  0  0  0  0  0  0  0  0  0  0  0
   45.7429   32.2492   39.2684 H   0  0  0  0  0  0  0  0  0  0  0  0
   45.6844   33.6916   38.1993 H   0  0  0  0  0  0  0  0  0  0  0  0
   47.1348   32.6318   38.1993 H   0  0  0  0  0  0  0  0  0  0  0  0
  1  9  1  0
  2  1  2  0
  3  2  1  0
  4  5  1  0
  4  3  2  0
  5  6  2  0
  6  1  1  0
  7 12  2  0
  8  7  1  0
  9  8  2  0
  9 10  1  0
 10 11  2  0
 11 12  1  0
 13  5  1  0
  2 14  1  0
  3 15  1  0
  7 16  1  0
  8 17  1  0
 11 18  1  0
 13 19  1  0
 13 20  1  0
 13 21  1  0
M  ISO  8  14  14  15  14  16  14  17  14  18  14  19   8  20   8  21   8
M  END
>  <minimizedAffinity>  (1) 
-4.56170082

>  <minimizedRMSD>  (1) 
0.0321434587

$$$$
