
     RDKit          3D

 20 21  0  0  0  0  0  0  0  0999 V2000
   46.7600   34.7600   42.0210 C   0  0  0  0  0  0  0  0  0  0  0  0
   47.9710   35.3510   41.7900 C   0  0  0  0  0  0  0  0  0  0  0  0
   48.6860   35.2190   40.6110 C   0  0  0  0  0  0  0  0  0  0  0  0
   48.1500   34.4600   39.6320 N   0  0  0  0  0  0  0  0  0  0  0  0
   46.9620   33.8730   39.8380 C   0  0  0  0  0  0  0  0  0  0  0  0
   46.2840   34.0090   40.9820 N   0  0  0  0  0  0  0  0  0  0  0  0
   44.4740   35.9700   44.7710 C   0  0  0  0  0  0  0  0  0  0  0  0
   45.1230   35.9540   43.5270 C   0  0  0  0  0  0  0  0  0  0  0  0
   46.0180   34.9080   43.2650 C   0  0  0  0  0  0  0  0  0  0  0  0
   46.2130   33.9730   44.2120 N   0  0  0  0  0  0  0  0  0  0  0  0
   45.5760   34.0130   45.3990 C   0  0  0  0  0  0  0  0  0  0  0  0
   44.7130   34.9990   45.6850 N   0  0  0  0  0  0  0  0  0  0  0  0
   46.3680   33.0500   38.7900 C   0  0  0  0  0  0  0  0  0  0  0  0
   46.4810   33.3330   37.5570 O   0  0  0  0  0  0  0  0  0  0  0  0
   48.4043   35.9695   42.5898 H   0  0  0  0  0  0  0  0  0  0  0  0
   49.6581   35.7161   40.4771 H   0  0  0  0  0  0  0  0  0  0  0  0
   43.7652   36.7777   45.0060 H   0  0  0  0  0  0  0  0  0  0  0  0
   44.9349   36.7390   42.7798 H   0  0  0  0  0  0  0  0  0  0  0  0
   45.7665   33.2260   46.1436 H   0  0  0  0  0  0  0  0  0  0  0  0
   45.8018   32.1520   39.0781 H   0  0  0  0  0  0  0  0  0  0  0  0
  1  9  1  0
  2  1  2  0
  3  2  1  0
  4  5  1  0
  4  3  2  0
  5  6  2  0
  6  1  1  0
  7 12  2  0
  8  7  1  0
  9  8  2  0
  9 10  1  0
 10 11  2  0
 11 12  1  0
 13  5  1  0
 14 13  2  0
  2 15  1  0
  3 16  1  0
  7 17  1  0
  8 18  1  0
 11 19  1  0
 13 20  1  0
M  ISO  6  15  14  16  14  17  14  18  14  19  14  20   6
M  END
>  <minimizedAffinity>  (1) 
-4.50962782

>  <minimizedRMSD>  (1) 
0.324008852

$$$$
