
     RDKit          3D

 38 41  0  0  0  0  0  0  0  0999 V2000
   46.7750   34.7810   42.0850 C   0  0  0  0  0  0  0  0  0  0  0  0
   48.0220   35.3240   41.9040 C   0  0  0  0  0  0  0  0  0  0  0  0
   48.7440   35.2170   40.7370 C   0  0  0  0  0  0  0  0  0  0  0  0
   48.1870   34.5370   39.7120 N   0  0  0  0  0  0  0  0  0  0  0  0
   46.9860   34.0100   39.8750 C   0  0  0  0  0  0  0  0  0  0  0  0
   46.2640   34.1050   41.0150 N   0  0  0  0  0  0  0  0  0  0  0  0
   44.4570   35.9320   44.8550 C   0  0  0  0  0  0  0  0  0  0  0  0
   45.1170   35.9320   43.6060 C   0  0  0  0  0  0  0  0  0  0  0  0
   46.0210   34.9040   43.3370 C   0  0  0  0  0  0  0  0  0  0  0  0
   46.2290   33.9510   44.2790 N   0  0  0  0  0  0  0  0  0  0  0  0
   45.5820   33.9830   45.4550 C   0  0  0  0  0  0  0  0  0  0  0  0
   44.7010   34.9620   45.7520 N   0  0  0  0  0  0  0  0  0  0  0  0
   46.2440   33.2450   38.8610 C   0  0  0  0  0  0  0  0  0  0  0  0
   46.8700   32.8830   37.6730 C   0  0  0  0  0  0  0  0  0  0  0  0
   45.9620   32.1670   36.8800 C   0  0  0  0  0  0  0  0  0  0  0  0
   44.8110   32.1550   37.6920 C   0  0  0  0  0  0  0  0  0  0  0  0
   45.0320   32.7840   38.8060 O   0  0  0  0  0  0  0  0  0  0  0  0
   41.2670   30.2070   36.3820 C   0  0  0  0  0  0  0  0  0  0  0  0
   41.2330   31.0250   37.4990 C   0  0  0  0  0  0  0  0  0  0  0  0
   42.3740   31.6710   37.9480 C   0  0  0  0  0  0  0  0  0  0  0  0
   43.5690   31.5100   37.2840 C   0  0  0  0  0  0  0  0  0  0  0  0
   43.5600   30.6890   36.1760 C   0  0  0  0  0  0  0  0  0  0  0  0
   42.4500   30.0260   35.6950 C   0  0  0  0  0  0  0  0  0  0  0  0
   39.8250   29.3830   35.8060 S   0  0  0  0  0  0  0  0  0  0  0  0
   38.6050   30.1290   36.2800 O   0  0  0  0  0  0  0  0  0  0  0  0
   39.8950   29.3680   34.3060 O   0  0  0  0  0  0  0  0  0  0  0  0
   48.4715   35.8778   42.7414 H   0  0  0  0  0  0  0  0  0  0  0  0
   49.7417   35.6704   40.6425 H   0  0  0  0  0  0  0  0  0  0  0  0
   43.7394   36.7305   45.0945 H   0  0  0  0  0  0  0  0  0  0  0  0
   44.9233   36.7217   42.8651 H   0  0  0  0  0  0  0  0  0  0  0  0
   45.7745   33.1920   46.1948 H   0  0  0  0  0  0  0  0  0  0  0  0
   47.9089   33.1199   37.3998 H   0  0  0  0  0  0  0  0  0  0  0  0
   46.1101   31.7283   35.8822 H   0  0  0  0  0  0  0  0  0  0  0  0
   40.2847   31.1643   38.0388 H   0  0  0  0  0  0  0  0  0  0  0  0
   42.3245   32.3149   38.8385 H   0  0  0  0  0  0  0  0  0  0  0  0
   44.5084   30.5527   35.6356 H   0  0  0  0  0  0  0  0  0  0  0  0
   42.5054   29.3825   34.8046 H   0  0  0  0  0  0  0  0  0  0  0  0
   39.7483   28.1017   36.2849 H   0  0  0  0  0  0  0  0  0  0  0  0
  1  9  1  0
  2  1  2  0
  3  2  1  0
  4  5  1  0
  4  3  2  0
  5  6  2  0
  6  1  1  0
  7 12  2  0
  8  7  1  0
  9  8  2  0
  9 10  1  0
 10 11  2  0
 11 12  1  0
 13  5  1  0
 14 13  2  0
 15 14  1  0
 15 16  2  0
 16 17  1  0
 17 13  1  0
 18 19  2  0
 19 20  1  0
 21 16  1  0
 21 20  2  0
 22 21  1  0
 23 22  2  0
 23 18  1  0
 24 25  2  0
 24 18  1  0
 26 24  2  0
  2 27  1  0
  3 28  1  0
  7 29  1  0
  8 30  1  0
 11 31  1  0
 14 32  1  0
 15 33  1  0
 19 34  1  0
 20 35  1  0
 22 36  1  0
 23 37  1  0
 24 38  1  0
M  ISO  8  27  14  28  14  29  14  30  14  31  14  32  14  33  14  34  14
M  ISO  4  35  14  36  14  37  14  38  11
M  END
>  <minimizedAffinity>  (1) 
-5.67424345

>  <minimizedRMSD>  (1) 
1.25203574

$$$$
