
     RDKit          3D

 35 38  0  0  0  0  0  0  0  0999 V2000
   46.6940   34.7320   42.0100 C   0  0  0  0  0  0  0  0  0  0  0  0
   47.9580   35.1950   41.8050 C   0  0  0  0  0  0  0  0  0  0  0  0
   48.6530   35.0530   40.6300 C   0  0  0  0  0  0  0  0  0  0  0  0
   48.0390   34.4120   39.6160 N   0  0  0  0  0  0  0  0  0  0  0  0
   46.7950   33.9500   39.8040 C   0  0  0  0  0  0  0  0  0  0  0  0
   46.1000   34.0850   40.9560 N   0  0  0  0  0  0  0  0  0  0  0  0
   44.4670   35.9800   44.8070 C   0  0  0  0  0  0  0  0  0  0  0  0
   45.1000   35.9460   43.5440 C   0  0  0  0  0  0  0  0  0  0  0  0
   45.9700   34.8940   43.2750 C   0  0  0  0  0  0  0  0  0  0  0  0
   46.1600   33.9660   44.2300 N   0  0  0  0  0  0  0  0  0  0  0  0
   45.5550   34.0010   45.4300 C   0  0  0  0  0  0  0  0  0  0  0  0
   44.7070   35.0110   45.7210 N   0  0  0  0  0  0  0  0  0  0  0  0
   46.0240   33.2370   38.8010 C   0  0  0  0  0  0  0  0  0  0  0  0
   46.5470   32.9920   37.5260 C   0  0  0  0  0  0  0  0  0  0  0  0
   45.6140   32.2950   36.7670 C   0  0  0  0  0  0  0  0  0  0  0  0
   44.5530   32.1570   37.6520 C   0  0  0  0  0  0  0  0  0  0  0  0
   44.8250   32.7120   38.8160 O   0  0  0  0  0  0  0  0  0  0  0  0
   43.2970   31.4810   37.3320 C   0  0  0  0  0  0  0  0  0  0  0  0
   42.1390   31.7130   38.0370 C   0  0  0  0  0  0  0  0  0  0  0  0
   40.9670   31.0610   37.7150 C   0  0  0  0  0  0  0  0  0  0  0  0
   40.9410   30.1610   36.6700 C   0  0  0  0  0  0  0  0  0  0  0  0
   42.0820   29.8890   35.9240 C   0  0  0  0  0  0  0  0  0  0  0  0
   43.2110   30.5820   36.3110 C   0  0  0  0  0  0  0  0  0  0  0  0
   48.4549   35.7173   42.6359 H   0  0  0  0  0  0  0  0  0  0  0  0
   49.6738   35.4479   40.5200 H   0  0  0  0  0  0  0  0  0  0  0  0
   43.7744   36.7996   45.0490 H   0  0  0  0  0  0  0  0  0  0  0  0
   44.9103   36.7289   42.7949 H   0  0  0  0  0  0  0  0  0  0  0  0
   45.7496   33.2114   46.1707 H   0  0  0  0  0  0  0  0  0  0  0  0
   47.5431   33.3031   37.1781 H   0  0  0  0  0  0  0  0  0  0  0  0
   45.6956   31.9421   35.7283 H   0  0  0  0  0  0  0  0  0  0  0  0
   42.1477   32.4301   38.8711 H   0  0  0  0  0  0  0  0  0  0  0  0
   40.0518   31.2590   38.2923 H   0  0  0  0  0  0  0  0  0  0  0  0
   39.9996   29.6488   36.4223 H   0  0  0  0  0  0  0  0  0  0  0  0
   42.0848   29.1746   35.0875 H   0  0  0  0  0  0  0  0  0  0  0  0
   44.1313   30.3902   35.7398 H   0  0  0  0  0  0  0  0  0  0  0  0
  1  9  1  0
  2  1  2  0
  3  2  1  0
  4  5  1  0
  4  3  2  0
  5  6  2  0
  6  1  1  0
  7 12  2  0
  8  7  1  0
  9  8  2  0
  9 10  1  0
 10 11  2  0
 11 12  1  0
 13 17  1  0
 13  5  1  0
 14 13  2  0
 15 14  1  0
 15 16  2  0
 16 17  1  0
 18 16  1  0
 18 19  2  0
 20 19  1  0
 21 20  2  0
 22 23  2  0
 22 21  1  0
 23 18  1  0
  2 24  1  0
  3 25  1  0
  7 26  1  0
  8 27  1  0
 11 28  1  0
 14 29  1  0
 15 30  1  0
 19 31  1  0
 20 32  1  0
 21 33  1  0
 22 34  1  0
 23 35  1  0
M  ISO  8  24  14  25  14  26  14  27  14  28  14  29  14  30  14  31  14
M  ISO  4  32  14  33  14  34  14  35  14
M  END
>  <minimizedAffinity>  (1) 
-5.54471684

>  <minimizedRMSD>  (1) 
0.905083954

$$$$
