
     RDKit          3D

 32 34  0  0  0  0  0  0  0  0999 V2000
   46.6560   34.7120   42.0590 C   0  0  0  0  0  0  0  0  0  0  0  0
   47.9270   35.2000   41.8440 C   0  0  0  0  0  0  0  0  0  0  0  0
   48.6160   35.0630   40.6640 C   0  0  0  0  0  0  0  0  0  0  0  0
   48.0140   34.4090   39.6540 N   0  0  0  0  0  0  0  0  0  0  0  0
   46.7770   33.9300   39.8540 C   0  0  0  0  0  0  0  0  0  0  0  0
   46.0780   34.0550   41.0100 N   0  0  0  0  0  0  0  0  0  0  0  0
   44.4560   35.9760   44.8590 C   0  0  0  0  0  0  0  0  0  0  0  0
   45.0710   35.9490   43.5920 C   0  0  0  0  0  0  0  0  0  0  0  0
   45.9460   34.8750   43.3250 C   0  0  0  0  0  0  0  0  0  0  0  0
   46.1640   33.9260   44.2690 N   0  0  0  0  0  0  0  0  0  0  0  0
   45.5330   34.0140   45.4750 C   0  0  0  0  0  0  0  0  0  0  0  0
   44.6980   35.0170   45.7650 N   0  0  0  0  0  0  0  0  0  0  0  0
   46.0070   33.1990   38.8540 C   0  0  0  0  0  0  0  0  0  0  0  0
   46.6270   32.5720   37.7790 C   0  0  0  0  0  0  0  0  0  0  0  0
   45.6600   31.9560   36.9920 C   0  0  0  0  0  0  0  0  0  0  0  0
   44.4790   32.2520   37.6490 C   0  0  0  0  0  0  0  0  0  0  0  0
   44.7300   32.9740   38.7200 O   0  0  0  0  0  0  0  0  0  0  0  0
   43.1400   31.8980   37.3310 N   0  0  0  0  0  0  0  0  0  0  0  0
   42.0350   32.5100   37.9830 C   0  0  0  0  0  0  0  0  0  0  0  0
   42.0500   33.7820   38.0860 N   0  0  0  0  0  0  0  0  0  0  0  0
   40.9460   31.7440   38.4950 N   0  0  0  0  0  0  0  0  0  0  0  0
   42.7600   34.4460   37.7590 H   0  0  0  0  0  0  0  0  0  0  0  0
   48.4207   35.7330   42.6699 H   0  0  0  0  0  0  0  0  0  0  0  0
   49.6292   35.4754   40.5481 H   0  0  0  0  0  0  0  0  0  0  0  0
   43.7668   36.7960   45.1092 H   0  0  0  0  0  0  0  0  0  0  0  0
   44.8774   36.7313   42.8433 H   0  0  0  0  0  0  0  0  0  0  0  0
   45.7166   33.2367   46.2314 H   0  0  0  0  0  0  0  0  0  0  0  0
   47.7093   32.5644   37.5825 H   0  0  0  0  0  0  0  0  0  0  0  0
   45.8003   31.3737   36.0694 H   0  0  0  0  0  0  0  0  0  0  0  0
   42.9662   31.1816   36.6117 H   0  0  0  0  0  0  0  0  0  0  0  0
   40.1592   32.2162   38.9627 H   0  0  0  0  0  0  0  0  0  0  0  0
   40.9465   30.7187   38.3969 H   0  0  0  0  0  0  0  0  0  0  0  0
  1  9  1  0
  2  1  2  0
  3  2  1  0
  4  5  1  0
  4  3  2  0
  5  6  2  0
  6  1  1  0
  7 12  2  0
  8  7  1  0
  9  8  2  0
  9 10  1  0
 10 11  2  0
 11 12  1  0
 13  5  1  0
 14 13  2  0
 15 16  2  0
 15 14  1  0
 16 17  1  0
 17 13  1  0
 18 16  1  0
 18 19  1  0
 19 20  2  0
 19 21  1  0
 22 20  1  0
  2 23  1  0
  3 24  1  0
  7 25  1  0
  8 26  1  0
 11 27  1  0
 14 28  1  0
 15 29  1  0
 18 30  1  0
 21 31  1  0
 21 32  1  0
M  ISO  7  23  14  24  14  25  14  26  14  27  14  28  14  29  14
M  END
>  <minimizedAffinity>  (1) 
-5.51813269

>  <minimizedRMSD>  (1) 
0.931353688

$$$$
