
     RDKit          3D

 32 35  0  0  0  0  0  0  0  0999 V2000
   46.7880   34.7900   42.0510 C   0  0  0  0  0  0  0  0  0  0  0  0
   48.0330   35.3050   41.8730 C   0  0  0  0  0  0  0  0  0  0  0  0
   48.7570   35.1990   40.7030 C   0  0  0  0  0  0  0  0  0  0  0  0
   48.1860   34.5420   39.6740 N   0  0  0  0  0  0  0  0  0  0  0  0
   46.9560   34.0290   39.8360 C   0  0  0  0  0  0  0  0  0  0  0  0
   46.2470   34.1300   40.9770 N   0  0  0  0  0  0  0  0  0  0  0  0
   44.4650   35.9460   44.8080 C   0  0  0  0  0  0  0  0  0  0  0  0
   45.1210   35.9560   43.5620 C   0  0  0  0  0  0  0  0  0  0  0  0
   46.0320   34.9120   43.3030 C   0  0  0  0  0  0  0  0  0  0  0  0
   46.2370   33.9630   44.2400 N   0  0  0  0  0  0  0  0  0  0  0  0
   45.5820   33.9940   45.4290 C   0  0  0  0  0  0  0  0  0  0  0  0
   44.7040   34.9750   45.7140 N   0  0  0  0  0  0  0  0  0  0  0  0
   46.2250   33.2970   38.8050 C   0  0  0  0  0  0  0  0  0  0  0  0
   46.7900   33.0330   37.5630 C   0  0  0  0  0  0  0  0  0  0  0  0
   45.8870   32.3280   36.7770 C   0  0  0  0  0  0  0  0  0  0  0  0
   44.7820   32.2080   37.6450 C   0  0  0  0  0  0  0  0  0  0  0  0
   45.0370   32.7790   38.7800 O   0  0  0  0  0  0  0  0  0  0  0  0
   43.5250   31.5470   37.3360 C   0  0  0  0  0  0  0  0  0  0  0  0
   43.2740   30.6590   36.3510 C   0  0  0  0  0  0  0  0  0  0  0  0
   42.0530   30.1170   36.1770 C   0  0  0  0  0  0  0  0  0  0  0  0
   41.0580   30.5770   37.1360 C   0  0  0  0  0  0  0  0  0  0  0  0
   42.0100   31.7540   38.1950 S   0  0  0  0  0  0  0  0  0  0  0  0
   48.4934   35.8410   42.7161 H   0  0  0  0  0  0  0  0  0  0  0  0
   49.7631   35.6347   40.6135 H   0  0  0  0  0  0  0  0  0  0  0  0
   43.7456   36.7432   45.0468 H   0  0  0  0  0  0  0  0  0  0  0  0
   44.9303   36.7463   42.8210 H   0  0  0  0  0  0  0  0  0  0  0  0
   45.7715   33.2050   46.1717 H   0  0  0  0  0  0  0  0  0  0  0  0
   47.7998   33.3364   37.2496 H   0  0  0  0  0  0  0  0  0  0  0  0
   46.0035   31.9597   35.7470 H   0  0  0  0  0  0  0  0  0  0  0  0
   44.0891   30.3698   35.6714 H   0  0  0  0  0  0  0  0  0  0  0  0
   41.8276   29.3916   35.3814 H   0  0  0  0  0  0  0  0  0  0  0  0
   39.9980   30.2929   37.2114 H   0  0  0  0  0  0  0  0  0  0  0  0
  1  9  1  0
  2  1  2  0
  3  2  1  0
  4  5  1  0
  4  3  2  0
  5  6  2  0
  6  1  1  0
  7 12  2  0
  8  7  1  0
  9  8  2  0
  9 10  1  0
 10 11  2  0
 11 12  1  0
 13  5  1  0
 14 13  2  0
 15 14  1  0
 15 16  2  0
 16 17  1  0
 17 13  1  0
 18 16  1  0
 18 22  1  0
 19 18  2  0
 20 19  1  0
 20 21  2  0
 21 22  1  0
  2 23  1  0
  3 24  1  0
  7 25  1  0
  8 26  1  0
 11 27  1  0
 14 28  1  0
 15 29  1  0
 19 30  1  0
 20 31  1  0
 21 32  1  0
M  ISO  8  23  14  24  14  25  14  26  14  27  14  28  14  29  14  30  14
M  ISO  2  31  14  32  14
M  END
>  <minimizedAffinity>  (1) 
-5.34680986

>  <minimizedRMSD>  (1) 
0.668894708

$$$$
