
     RDKit          3D

 38 41  0  0  0  0  0  0  0  0999 V2000
   46.7620   34.7770   42.0850 C   0  0  0  0  0  0  0  0  0  0  0  0
   48.0290   35.2850   41.9170 C   0  0  0  0  0  0  0  0  0  0  0  0
   48.7540   35.1790   40.7540 C   0  0  0  0  0  0  0  0  0  0  0  0
   48.1870   34.5360   39.7150 N   0  0  0  0  0  0  0  0  0  0  0  0
   46.9510   34.0360   39.8660 C   0  0  0  0  0  0  0  0  0  0  0  0
   46.2350   34.1380   41.0070 N   0  0  0  0  0  0  0  0  0  0  0  0
   44.4540   35.9390   44.8480 C   0  0  0  0  0  0  0  0  0  0  0  0
   45.1050   35.9450   43.5980 C   0  0  0  0  0  0  0  0  0  0  0  0
   46.0160   34.9050   43.3270 C   0  0  0  0  0  0  0  0  0  0  0  0
   46.2170   33.9670   44.2690 N   0  0  0  0  0  0  0  0  0  0  0  0
   45.5740   33.9930   45.4590 C   0  0  0  0  0  0  0  0  0  0  0  0
   44.7030   34.9610   45.7570 N   0  0  0  0  0  0  0  0  0  0  0  0
   46.2220   33.3200   38.8340 C   0  0  0  0  0  0  0  0  0  0  0  0
   46.6840   33.2620   37.5230 C   0  0  0  0  0  0  0  0  0  0  0  0
   45.7980   32.5150   36.7470 C   0  0  0  0  0  0  0  0  0  0  0  0
   44.8220   32.1560   37.6680 C   0  0  0  0  0  0  0  0  0  0  0  0
   45.0960   32.6350   38.8620 O   0  0  0  0  0  0  0  0  0  0  0  0
   43.6850   31.3680   37.3270 N   0  0  0  0  0  0  0  0  0  0  0  0
   43.6070   30.7710   36.0060 C   0  0  0  0  0  0  0  0  0  0  0  0
   42.5750   29.6490   36.1510 C   0  0  0  0  0  0  0  0  0  0  0  0
   41.3670   30.2690   36.3590 O   0  0  0  0  0  0  0  0  0  0  0  0
   41.3090   31.0180   37.5080 C   0  0  0  0  0  0  0  0  0  0  0  0
   42.6080   31.1440   38.2540 C   0  0  0  0  0  0  0  0  0  0  0  0
   48.4911   35.8090   42.7666 H   0  0  0  0  0  0  0  0  0  0  0  0
   49.7648   35.6056   40.6743 H   0  0  0  0  0  0  0  0  0  0  0  0
   43.7356   36.7360   45.0903 H   0  0  0  0  0  0  0  0  0  0  0  0
   44.9084   36.7353   42.8586 H   0  0  0  0  0  0  0  0  0  0  0  0
   45.7724   33.2010   46.1961 H   0  0  0  0  0  0  0  0  0  0  0  0
   47.6071   33.7333   37.1547 H   0  0  0  0  0  0  0  0  0  0  0  0
   45.8571   32.2715   35.6759 H   0  0  0  0  0  0  0  0  0  0  0  0
   44.5837   30.3641   35.7052 H   0  0  0  0  0  0  0  0  0  0  0  0
   43.3242   31.5014   35.2336 H   0  0  0  0  0  0  0  0  0  0  0  0
   42.5398   29.0415   35.2346 H   0  0  0  0  0  0  0  0  0  0  0  0
   42.8289   28.9734   36.9811 H   0  0  0  0  0  0  0  0  0  0  0  0
   40.9714   32.0296   37.2385 H   0  0  0  0  0  0  0  0  0  0  0  0
   40.6185   30.4906   38.1826 H   0  0  0  0  0  0  0  0  0  0  0  0
   42.7972   30.2176   38.8160 H   0  0  0  0  0  0  0  0  0  0  0  0
   42.5456   31.9943   38.9491 H   0  0  0  0  0  0  0  0  0  0  0  0
  1  9  1  0
  2  1  2  0
  3  2  1  0
  4  5  1  0
  4  3  2  0
  5  6  2  0
  6  1  1  0
  7 12  2  0
  8  7  1  0
  9  8  2  0
  9 10  1  0
 10 11  2  0
 11 12  1  0
 13 17  1  0
 13  5  1  0
 14 13  2  0
 15 14  1  0
 15 16  2  0
 16 17  1  0
 18 16  1  0
 18 23  1  0
 19 20  1  0
 19 18  1  0
 20 21  1  0
 21 22  1  0
 22 23  1  0
  2 24  1  0
  3 25  1  0
  7 26  1  0
  8 27  1  0
 11 28  1  0
 14 29  1  0
 15 30  1  0
 19 31  1  0
 19 32  1  0
 20 33  1  0
 20 34  1  0
 22 35  1  0
 22 36  1  0
 23 37  1  0
 23 38  1  0
M  ISO  8  24  14  25  14  26  14  27  14  28  14  29  14  30  14  31  13
M  ISO  7  32  13  33  13  34  13  35  13  36  13  37  13  38  13
M  END
>  <minimizedAffinity>  (1) 
-5.32015276

>  <minimizedRMSD>  (1) 
0.578677595

$$$$
