
     RDKit          3D

 32 35  0  0  0  0  0  0  0  0999 V2000
   46.7630   34.7730   42.1030 C   0  0  0  0  0  0  0  0  0  0  0  0
   48.0280   35.2470   41.9320 C   0  0  0  0  0  0  0  0  0  0  0  0
   48.7440   35.1360   40.7620 C   0  0  0  0  0  0  0  0  0  0  0  0
   48.1600   34.5180   39.7170 N   0  0  0  0  0  0  0  0  0  0  0  0
   46.9230   34.0480   39.8670 C   0  0  0  0  0  0  0  0  0  0  0  0
   46.2030   34.1520   41.0180 N   0  0  0  0  0  0  0  0  0  0  0  0
   44.4490   35.9440   44.8620 C   0  0  0  0  0  0  0  0  0  0  0  0
   45.1140   35.9230   43.6260 C   0  0  0  0  0  0  0  0  0  0  0  0
   46.0180   34.8980   43.3450 C   0  0  0  0  0  0  0  0  0  0  0  0
   46.2200   33.9530   44.2930 N   0  0  0  0  0  0  0  0  0  0  0  0
   45.5630   33.9960   45.4860 C   0  0  0  0  0  0  0  0  0  0  0  0
   44.6970   34.9700   45.7630 N   0  0  0  0  0  0  0  0  0  0  0  0
   46.1530   33.3560   38.8310 C   0  0  0  0  0  0  0  0  0  0  0  0
   46.6650   33.2260   37.5420 C   0  0  0  0  0  0  0  0  0  0  0  0
   45.7510   32.5350   36.7520 C   0  0  0  0  0  0  0  0  0  0  0  0
   44.7030   32.2820   37.6510 C   0  0  0  0  0  0  0  0  0  0  0  0
   44.9880   32.7770   38.8310 O   0  0  0  0  0  0  0  0  0  0  0  0
   43.5240   31.5820   37.2680 N   0  0  0  0  0  0  0  0  0  0  0  0
   42.3950   31.8180   37.9710 C   0  0  0  0  0  0  0  0  0  0  0  0
   41.3650   31.0370   37.4370 C   0  0  0  0  0  0  0  0  0  0  0  0
   41.9120   30.3430   36.4130 N   0  0  0  0  0  0  0  0  0  0  0  0
   43.2080   30.6830   36.3270 C   0  0  0  0  0  0  0  0  0  0  0  0
   48.5084   35.7509   42.7836 H   0  0  0  0  0  0  0  0  0  0  0  0
   49.7639   35.5403   40.6823 H   0  0  0  0  0  0  0  0  0  0  0  0
   43.7330   36.7462   45.0940 H   0  0  0  0  0  0  0  0  0  0  0  0
   44.9233   36.7109   42.8825 H   0  0  0  0  0  0  0  0  0  0  0  0
   45.7511   33.2120   46.2343 H   0  0  0  0  0  0  0  0  0  0  0  0
   47.6385   33.6092   37.2021 H   0  0  0  0  0  0  0  0  0  0  0  0
   45.8299   32.2571   35.6906 H   0  0  0  0  0  0  0  0  0  0  0  0
   42.3013   32.5092   38.8216 H   0  0  0  0  0  0  0  0  0  0  0  0
   40.3208   30.9955   37.7805 H   0  0  0  0  0  0  0  0  0  0  0  0
   43.9131   30.2788   35.5857 H   0  0  0  0  0  0  0  0  0  0  0  0
  1  9  1  0
  2  1  2  0
  3  2  1  0
  4  5  1  0
  4  3  2  0
  5  6  2  0
  6  1  1  0
  7 12  2  0
  8  7  1  0
  9  8  2  0
  9 10  1  0
 10 11  2  0
 11 12  1  0
 13  5  1  0
 14 13  2  0
 15 14  1  0
 15 16  2  0
 16 17  1  0
 17 13  1  0
 18 16  1  0
 18 19  1  0
 20 19  2  0
 21 20  1  0
 22 21  2  0
 22 18  1  0
  2 23  1  0
  3 24  1  0
  7 25  1  0
  8 26  1  0
 11 27  1  0
 14 28  1  0
 15 29  1  0
 19 30  1  0
 20 31  1  0
 22 32  1  0
M  ISO  8  23  14  24  14  25  14  26  14  27  14  28  14  29  14  30  14
M  ISO  2  31  14  32  14
M  END
>  <minimizedAffinity>  (1) 
-5.29265881

>  <minimizedRMSD>  (1) 
0.611158609

$$$$
