
     RDKit          3D

 31 34  0  0  0  0  0  0  0  0999 V2000
   46.7890   34.7880   42.0770 C   0  0  0  0  0  0  0  0  0  0  0  0
   48.0390   35.2920   41.9080 C   0  0  0  0  0  0  0  0  0  0  0  0
   48.7620   35.1850   40.7420 C   0  0  0  0  0  0  0  0  0  0  0  0
   48.1960   34.5400   39.7020 N   0  0  0  0  0  0  0  0  0  0  0  0
   46.9750   34.0440   39.8550 C   0  0  0  0  0  0  0  0  0  0  0  0
   46.2510   34.1410   40.9950 N   0  0  0  0  0  0  0  0  0  0  0  0
   44.4590   35.9350   44.8300 C   0  0  0  0  0  0  0  0  0  0  0  0
   45.1210   35.9380   43.5890 C   0  0  0  0  0  0  0  0  0  0  0  0
   46.0290   34.9100   43.3260 C   0  0  0  0  0  0  0  0  0  0  0  0
   46.2200   33.9780   44.2670 N   0  0  0  0  0  0  0  0  0  0  0  0
   45.5770   33.9890   45.4520 C   0  0  0  0  0  0  0  0  0  0  0  0
   44.6920   34.9690   45.7370 N   0  0  0  0  0  0  0  0  0  0  0  0
   46.2150   33.3150   38.8240 C   0  0  0  0  0  0  0  0  0  0  0  0
   46.8110   33.0630   37.5810 C   0  0  0  0  0  0  0  0  0  0  0  0
   45.8840   32.3600   36.7870 C   0  0  0  0  0  0  0  0  0  0  0  0
   44.7740   32.2450   37.6490 C   0  0  0  0  0  0  0  0  0  0  0  0
   45.0190   32.8050   38.7920 O   0  0  0  0  0  0  0  0  0  0  0  0
   43.5430   31.6050   37.3270 N   0  0  0  0  0  0  0  0  0  0  0  0
   42.3540   31.8540   37.9030 C   0  0  0  0  0  0  0  0  0  0  0  0
   41.3990   31.0640   37.3530 N   0  0  0  0  0  0  0  0  0  0  0  0
   42.0140   30.3190   36.4230 C   0  0  0  0  0  0  0  0  0  0  0  0
   43.3110   30.6520   36.4130 N   0  0  0  0  0  0  0  0  0  0  0  0
   48.5020   35.8183   42.7557 H   0  0  0  0  0  0  0  0  0  0  0  0
   49.7720   35.6131   40.6608 H   0  0  0  0  0  0  0  0  0  0  0  0
   43.7400   36.7344   45.0625 H   0  0  0  0  0  0  0  0  0  0  0  0
   44.9291   36.7272   42.8471 H   0  0  0  0  0  0  0  0  0  0  0  0
   45.7738   33.1970   46.1895 H   0  0  0  0  0  0  0  0  0  0  0  0
   47.8254   33.3619   37.2783 H   0  0  0  0  0  0  0  0  0  0  0  0
   45.9972   31.9936   35.7560 H   0  0  0  0  0  0  0  0  0  0  0  0
   42.1814   32.5898   38.7023 H   0  0  0  0  0  0  0  0  0  0  0  0
   41.5361   29.5652   35.7800 H   0  0  0  0  0  0  0  0  0  0  0  0
  1  9  1  0
  2  1  2  0
  3  2  1  0
  4  5  1  0
  4  3  2  0
  5  6  2  0
  6  1  1  0
  7 12  2  0
  8  7  1  0
  9  8  2  0
  9 10  1  0
 10 11  2  0
 11 12  1  0
 13  5  1  0
 14 13  2  0
 15 14  1  0
 15 16  2  0
 16 17  1  0
 17 13  1  0
 18 16  1  0
 18 19  1  0
 20 19  2  0
 21 20  1  0
 22 21  2  0
 22 18  1  0
  2 23  1  0
  3 24  1  0
  7 25  1  0
  8 26  1  0
 11 27  1  0
 14 28  1  0
 15 29  1  0
 19 30  1  0
 21 31  1  0
M  ISO  8  23  14  24  14  25  14  26  14  27  14  28  14  29  14  30  14
M  ISO  1  31  14
M  END
>  <minimizedAffinity>  (1) 
-5.28167868

>  <minimizedRMSD>  (1) 
0.6851511

$$$$
