
     RDKit          3D

 37 39  0  0  0  0  0  0  0  0999 V2000
   46.7810   34.7800   42.0550 C   0  0  0  0  0  0  0  0  0  0  0  0
   48.0220   35.3080   41.8700 C   0  0  0  0  0  0  0  0  0  0  0  0
   48.7390   35.2040   40.7090 C   0  0  0  0  0  0  0  0  0  0  0  0
   48.1800   34.5380   39.6810 N   0  0  0  0  0  0  0  0  0  0  0  0
   46.9710   34.0160   39.8390 C   0  0  0  0  0  0  0  0  0  0  0  0
   46.2630   34.1180   40.9830 N   0  0  0  0  0  0  0  0  0  0  0  0
   44.4650   35.9380   44.8110 C   0  0  0  0  0  0  0  0  0  0  0  0
   45.1210   35.9290   43.5780 C   0  0  0  0  0  0  0  0  0  0  0  0
   46.0290   34.9030   43.3080 C   0  0  0  0  0  0  0  0  0  0  0  0
   46.2260   33.9750   44.2460 N   0  0  0  0  0  0  0  0  0  0  0  0
   45.5790   34.0010   45.4370 C   0  0  0  0  0  0  0  0  0  0  0  0
   44.6990   34.9810   45.7210 N   0  0  0  0  0  0  0  0  0  0  0  0
   46.2390   33.2680   38.8160 C   0  0  0  0  0  0  0  0  0  0  0  0
   46.6860   33.2590   37.4860 C   0  0  0  0  0  0  0  0  0  0  0  0
   45.7840   32.4630   36.7530 C   0  0  0  0  0  0  0  0  0  0  0  0
   44.8520   32.0480   37.7030 C   0  0  0  0  0  0  0  0  0  0  0  0
   45.1540   32.5340   38.8660 O   0  0  0  0  0  0  0  0  0  0  0  0
   43.7010   31.1840   37.4050 C   0  0  0  0  0  0  0  0  0  0  0  0
   43.8440   29.8780   38.1840 C   0  0  0  0  0  0  0  0  0  0  0  0
   42.4190   31.8860   37.8540 C   0  0  0  0  0  0  0  0  0  0  0  0
   43.5400   30.8350   35.9570 C   0  0  0  0  0  0  0  0  0  0  0  0
   48.4784   35.8541   42.7087 H   0  0  0  0  0  0  0  0  0  0  0  0
   49.7403   35.6504   40.6185 H   0  0  0  0  0  0  0  0  0  0  0  0
   43.7474   36.7401   45.0386 H   0  0  0  0  0  0  0  0  0  0  0  0
   44.9261   36.7152   42.8337 H   0  0  0  0  0  0  0  0  0  0  0  0
   45.7746   33.2134   46.1796 H   0  0  0  0  0  0  0  0  0  0  0  0
   47.5729   33.7757   37.0905 H   0  0  0  0  0  0  0  0  0  0  0  0
   45.8092   32.2242   35.6795 H   0  0  0  0  0  0  0  0  0  0  0  0
   43.8208   30.0903   39.2631 H   0  0  0  0  0  0  0  0  0  0  0  0
   43.0143   29.2038   37.9250 H   0  0  0  0  0  0  0  0  0  0  0  0
   44.7999   29.3993   37.9250 H   0  0  0  0  0  0  0  0  0  0  0  0
   42.3787   31.9081   38.9530 H   0  0  0  0  0  0  0  0  0  0  0  0
   42.4094   32.9152   37.4660 H   0  0  0  0  0  0  0  0  0  0  0  0
   41.5466   31.3397   37.4660 H   0  0  0  0  0  0  0  0  0  0  0  0
   43.0807   29.8394   35.8687 H   0  0  0  0  0  0  0  0  0  0  0  0
   42.8950   31.5809   35.4696 H   0  0  0  0  0  0  0  0  0  0  0  0
   44.5261   30.8285   35.4696 H   0  0  0  0  0  0  0  0  0  0  0  0
  1  9  1  0
  2  1  2  0
  3  2  1  0
  4  5  1  0
  4  3  2  0
  5  6  2  0
  6  1  1  0
  7 12  2  0
  8  7  1  0
  9  8  2  0
  9 10  1  0
 10 11  2  0
 11 12  1  0
 13 17  1  0
 13  5  1  0
 14 13  2  0
 15 14  1  0
 15 16  2  0
 16 17  1  0
 18 16  1  0
 18 20  1  0
 18 19  1  0
 21 18  1  0
  2 22  1  0
  3 23  1  0
  7 24  1  0
  8 25  1  0
 11 26  1  0
 14 27  1  0
 15 28  1  0
 19 29  1  0
 19 30  1  0
 19 31  1  0
 20 32  1  0
 20 33  1  0
 20 34  1  0
 21 35  1  0
 21 36  1  0
 21 37  1  0
M  ISO  8  22  14  23  14  24  14  25  14  26  14  27  14  28  14  29   8
M  ISO  8  30   8  31   8  32   8  33   8  34   8  35   8  36   8  37   8
M  END
>  <minimizedAffinity>  (1) 
-5.19971514

>  <minimizedRMSD>  (1) 
0.282747775

$$$$
