
     RDKit          3D

 28 30  0  0  0  0  0  0  0  0999 V2000
   46.7660   34.7720   42.0920 C   0  0  0  0  0  0  0  0  0  0  0  0
   48.0280   35.2720   41.9260 C   0  0  0  0  0  0  0  0  0  0  0  0
   48.7550   35.1700   40.7640 C   0  0  0  0  0  0  0  0  0  0  0  0
   48.1860   34.5330   39.7180 N   0  0  0  0  0  0  0  0  0  0  0  0
   46.9640   34.0460   39.8670 C   0  0  0  0  0  0  0  0  0  0  0  0
   46.2390   34.1410   41.0090 N   0  0  0  0  0  0  0  0  0  0  0  0
   44.4480   35.9390   44.8560 C   0  0  0  0  0  0  0  0  0  0  0  0
   45.1050   35.9330   43.6130 C   0  0  0  0  0  0  0  0  0  0  0  0
   46.0160   34.8980   43.3460 C   0  0  0  0  0  0  0  0  0  0  0  0
   46.2200   33.9620   44.2850 N   0  0  0  0  0  0  0  0  0  0  0  0
   45.5720   33.9930   45.4750 C   0  0  0  0  0  0  0  0  0  0  0  0
   44.7010   34.9640   45.7590 N   0  0  0  0  0  0  0  0  0  0  0  0
   46.1920   33.3270   38.8410 C   0  0  0  0  0  0  0  0  0  0  0  0
   46.6910   33.2490   37.5260 C   0  0  0  0  0  0  0  0  0  0  0  0
   45.7810   32.5200   36.7500 C   0  0  0  0  0  0  0  0  0  0  0  0
   44.7740   32.2060   37.6840 C   0  0  0  0  0  0  0  0  0  0  0  0
   45.0590   32.6880   38.8540 O   0  0  0  0  0  0  0  0  0  0  0  0
   43.5960   31.4340   37.3050 C   0  0  0  0  0  0  0  0  0  0  0  0
   43.6850   30.2200   37.0100 O   0  0  0  0  0  0  0  0  0  0  0  0
   42.3450   32.0360   37.2640 O   0  0  0  0  0  0  0  0  0  0  0  0
   48.4918   35.7899   42.7785 H   0  0  0  0  0  0  0  0  0  0  0  0
   49.7674   35.5935   40.6885 H   0  0  0  0  0  0  0  0  0  0  0  0
   43.7285   36.7362   45.0942 H   0  0  0  0  0  0  0  0  0  0  0  0
   44.9104   36.7190   42.8685 H   0  0  0  0  0  0  0  0  0  0  0  0
   45.7668   33.2059   46.2183 H   0  0  0  0  0  0  0  0  0  0  0  0
   47.6351   33.6864   37.1691 H   0  0  0  0  0  0  0  0  0  0  0  0
   45.8380   32.2590   35.6829 H   0  0  0  0  0  0  0  0  0  0  0  0
   41.5492   31.5067   37.0060 H   0  0  0  0  0  0  0  0  0  0  0  0
  1  9  1  0
  2  1  2  0
  3  2  1  0
  4  5  1  0
  4  3  2  0
  5  6  2  0
  6  1  1  0
  7 12  2  0
  8  7  1  0
  9  8  2  0
  9 10  1  0
 10 11  2  0
 11 12  1  0
 13 17  1  0
 13  5  1  0
 14 13  2  0
 15 14  1  0
 15 16  2  0
 16 17  1  0
 18 16  1  0
 19 18  2  0
 20 18  1  0
  2 21  1  0
  3 22  1  0
  7 23  1  0
  8 24  1  0
 11 25  1  0
 14 26  1  0
 15 27  1  0
 20 28  1  0
M  ISO  8  21  14  22  14  23  14  24  14  25  14  26  14  27  14  28   3
M  END
>  <minimizedAffinity>  (1) 
-5.17713118

>  <minimizedRMSD>  (1) 
0.714252472

$$$$
