
     RDKit          3D

 26 28  0  0  0  0  0  0  0  0999 V2000
   46.7910   34.7840   42.0760 C   0  0  0  0  0  0  0  0  0  0  0  0
   48.0150   35.3510   41.8770 C   0  0  0  0  0  0  0  0  0  0  0  0
   48.7380   35.2500   40.7090 C   0  0  0  0  0  0  0  0  0  0  0  0
   48.2020   34.5450   39.6950 N   0  0  0  0  0  0  0  0  0  0  0  0
   47.0030   33.9830   39.8750 C   0  0  0  0  0  0  0  0  0  0  0  0
   46.2850   34.0760   41.0180 N   0  0  0  0  0  0  0  0  0  0  0  0
   44.4660   35.9310   44.8230 C   0  0  0  0  0  0  0  0  0  0  0  0
   45.1230   35.9350   43.5870 C   0  0  0  0  0  0  0  0  0  0  0  0
   46.0390   34.9020   43.3190 C   0  0  0  0  0  0  0  0  0  0  0  0
   46.2400   33.9660   44.2580 N   0  0  0  0  0  0  0  0  0  0  0  0
   45.5870   33.9880   45.4510 C   0  0  0  0  0  0  0  0  0  0  0  0
   44.7040   34.9660   45.7330 N   0  0  0  0  0  0  0  0  0  0  0  0
   46.2980   33.1910   38.8660 C   0  0  0  0  0  0  0  0  0  0  0  0
   46.6480   33.2780   37.5210 C   0  0  0  0  0  0  0  0  0  0  0  0
   45.8270   32.4270   36.7830 C   0  0  0  0  0  0  0  0  0  0  0  0
   45.0070   31.8610   37.7600 C   0  0  0  0  0  0  0  0  0  0  0  0
   45.3160   32.3320   38.9460 O   0  0  0  0  0  0  0  0  0  0  0  0
   43.9820   30.9260   37.6020 O   0  0  0  0  0  0  0  0  0  0  0  0
   48.4543   35.9275   42.7044 H   0  0  0  0  0  0  0  0  0  0  0  0
   49.7224   35.7303   40.6079 H   0  0  0  0  0  0  0  0  0  0  0  0
   43.7442   36.7280   45.0551 H   0  0  0  0  0  0  0  0  0  0  0  0
   44.9283   36.7242   42.8459 H   0  0  0  0  0  0  0  0  0  0  0  0
   45.7817   33.1996   46.1929 H   0  0  0  0  0  0  0  0  0  0  0  0
   47.4437   33.9153   37.1078 H   0  0  0  0  0  0  0  0  0  0  0  0
   45.8258   32.2462   35.6980 H   0  0  0  0  0  0  0  0  0  0  0  0
   43.4763   30.6078   38.3914 H   0  0  0  0  0  0  0  0  0  0  0  0
  1  9  1  0
  2  1  2  0
  3  2  1  0
  4  5  1  0
  4  3  2  0
  5  6  2  0
  6  1  1  0
  7 12  2  0
  8  7  1  0
  9  8  2  0
  9 10  1  0
 10 11  2  0
 11 12  1  0
 13 17  1  0
 13  5  1  0
 14 13  2  0
 15 14  1  0
 15 16  2  0
 16 17  1  0
 18 16  1  0
  2 19  1  0
  3 20  1  0
  7 21  1  0
  8 22  1  0
 11 23  1  0
 14 24  1  0
 15 25  1  0
 18 26  1  0
M  ISO  8  19  14  20  14  21  14  22  14  23  14  24  14  25  14  26   3
M  END
>  <minimizedAffinity>  (1) 
-5.00097513

>  <minimizedRMSD>  (1) 
0.034939371

$$$$
