
     RDKit          3D

 42 45  0  0  1  0  0  0  0  0999 V2000
   44.8700   33.4860   42.8080 C   0  0  0  0  0  0  0  0  0  0  0  0
   44.6520   32.1450   43.0340 C   0  0  0  0  0  0  0  0  0  0  0  0
   43.5670   31.5240   42.4920 C   0  0  0  0  0  0  0  0  0  0  0  0
   42.6800   32.1680   41.7340 N   0  0  0  0  0  0  0  0  0  0  0  0
   42.8890   33.4700   41.5120 C   0  0  0  0  0  0  0  0  0  0  0  0
   43.9450   34.0970   42.0320 N   0  0  0  0  0  0  0  0  0  0  0  0
   47.3540   34.3310   42.7130 C   0  0  1  0  0  0  0  0  0  0  0  0
   46.4660   35.5280   42.7450 C   0  0  0  0  0  0  0  0  0  0  0  0
   45.9870   34.3180   43.3530 C   0  0  1  0  0  0  0  0  0  0  0  0
   47.8220   33.7970   39.0620 C   0  0  0  0  0  0  0  0  0  0  0  0
   47.5590   34.4510   40.3110 C   0  0  0  0  0  0  0  0  0  0  0  0
   47.6290   33.6520   41.4530 C   0  0  0  0  0  0  0  0  0  0  0  0
   47.9300   32.3360   41.3510 N   0  0  0  0  0  0  0  0  0  0  0  0
   48.1710   31.7480   40.1740 C   0  0  0  0  0  0  0  0  0  0  0  0
   48.1210   32.4680   39.0170 N   0  0  0  0  0  0  0  0  0  0  0  0
   41.9160   34.2130   40.6940 C   0  0  1  0  0  0  0  0  0  0  0  0
   41.3400   35.3150   41.5060 C   0  0  0  0  0  0  0  0  0  0  0  0
   42.5310   34.7420   39.4170 C   0  0  0  0  0  0  0  0  0  0  0  0
   42.9330   33.5780   38.5890 C   0  0  0  0  0  0  0  0  0  0  0  0
   41.9080   32.7130   38.2210 C   0  0  0  0  0  0  0  0  0  0  0  0
   42.1660   31.5880   37.4450 C   0  0  0  0  0  0  0  0  0  0  0  0
   43.4290   31.3230   37.0390 N   0  0  0  0  0  0  0  0  0  0  0  0
   44.4040   32.1620   37.4010 C   0  0  0  0  0  0  0  0  0  0  0  0
   44.1460   33.2300   38.1380 N   0  0  0  0  0  0  0  0  0  0  0  0
   45.3570   31.5727   43.6549 H   0  0  0  0  0  0  0  0  0  0  0  0
   43.4177   30.4518   42.6873 H   0  0  0  0  0  0  0  0  0  0  0  0
   48.3733   34.0759   43.0384 H   0  0  0  0  0  0  0  0  0  0  0  0
   46.7328   36.3868   43.3785 H   0  0  0  0  0  0  0  0  0  0  0  0
   46.0693   36.2076   41.9764 H   0  0  0  0  0  0  0  0  0  0  0  0
   45.5831   34.0762   44.3472 H   0  0  0  0  0  0  0  0  0  0  0  0
   47.7819   34.3759   38.1275 H   0  0  0  0  0  0  0  0  0  0  0  0
   47.3157   35.5224   40.3657 H   0  0  0  0  0  0  0  0  0  0  0  0
   48.4114   30.6752   40.1391 H   0  0  0  0  0  0  0  0  0  0  0  0
   41.1161   33.5219   40.3900 H   0  0  0  0  0  0  0  0  0  0  0  0
   41.4605   35.0845   42.5748 H   0  0  0  0  0  0  0  0  0  0  0  0
   41.8624   36.2544   41.2723 H   0  0  0  0  0  0  0  0  0  0  0  0
   40.2705   35.4223   41.2723 H   0  0  0  0  0  0  0  0  0  0  0  0
   41.7952   35.3520   38.8724 H   0  0  0  0  0  0  0  0  0  0  0  0
   43.4043   35.3711   39.6439 H   0  0  0  0  0  0  0  0  0  0  0  0
   40.8787   32.9216   38.5483 H   0  0  0  0  0  0  0  0  0  0  0  0
   41.3439   30.9143   37.1616 H   0  0  0  0  0  0  0  0  0  0  0  0
   45.4372   31.9616   37.0812 H   0  0  0  0  0  0  0  0  0  0  0  0
  1  2  2  0
  1  9  1  0
  3  2  1  0
  4  3  2  0
  5  4  1  0
  5  6  2  0
  6  1  1  0
  7  8  1  0
  7  9  1  0
  8  9  1  0
 10 11  2  0
 11 12  1  0
 12  7  1  0
 13 12  2  0
 14 13  1  0
 15 10  1  0
 15 14  2  0
 16 17  1  0
 16  5  1  0
 18 16  1  0
 19 18  1  0
 20 19  2  0
 21 20  1  0
 22 23  1  0
 22 21  2  0
 23 24  2  0
 24 19  1  0
  2 25  1  0
  3 26  1  0
  7 27  1  1
  8 28  1  0
  8 29  1  0
  9 30  1  1
 10 31  1  0
 11 32  1  0
 14 33  1  0
 16 34  1  6
 17 35  1  0
 17 36  1  0
 17 37  1  0
 18 38  1  0
 18 39  1  0
 20 40  1  0
 21 41  1  0
 23 42  1  0
M  ISO  8  25  14  26  14  27  13  28  13  29  13  30  13  31  14  32  14
M  ISO  8  33  14  34   8  35   8  36   8  37   8  38   8  39   8  40  14
M  ISO  2  41  14  42  14
M  END
>  <minimizedAffinity>  (1) 
-4.60352087

>  <minimizedRMSD>  (1) 
0.577605247

$$$$
