
     RDKit          3D

 45 49  0  0  0  0  0  0  0  0999 V2000
   45.7580   33.1230   38.9060 C   0  0  0  0  0  0  0  0  0  0  0  0
   46.1130   33.0560   37.5700 C   0  0  0  0  0  0  0  0  0  0  0  0
   45.1400   32.3070   36.8710 C   0  0  0  0  0  0  0  0  0  0  0  0
   44.2500   31.9730   37.8780 C   0  0  0  0  0  0  0  0  0  0  0  0
   44.6380   32.4560   39.0160 O   0  0  0  0  0  0  0  0  0  0  0  0
   46.5590   34.6430   42.0800 C   0  0  0  0  0  0  0  0  0  0  0  0
   47.8260   35.0910   41.8170 C   0  0  0  0  0  0  0  0  0  0  0  0
   48.4800   34.9300   40.6150 C   0  0  0  0  0  0  0  0  0  0  0  0
   47.8230   34.2810   39.6260 N   0  0  0  0  0  0  0  0  0  0  0  0
   46.5800   33.8350   39.8680 C   0  0  0  0  0  0  0  0  0  0  0  0
   45.9470   33.9970   41.0460 N   0  0  0  0  0  0  0  0  0  0  0  0
   44.4510   36.0140   44.9100 C   0  0  0  0  0  0  0  0  0  0  0  0
   45.0580   35.9070   43.6490 C   0  0  0  0  0  0  0  0  0  0  0  0
   45.8930   34.8280   43.3590 C   0  0  0  0  0  0  0  0  0  0  0  0
   46.0970   33.9050   44.3140 N   0  0  0  0  0  0  0  0  0  0  0  0
   45.4980   34.0320   45.5270 C   0  0  0  0  0  0  0  0  0  0  0  0
   44.6880   35.0600   45.8370 N   0  0  0  0  0  0  0  0  0  0  0  0
   43.0470   31.1640   37.5680 C   0  0  0  0  0  0  0  0  0  0  0  0
   41.7810   31.9600   37.7380 C   0  0  0  0  0  0  0  0  0  0  0  0
   41.3120   32.0760   39.1240 C   0  0  0  0  0  0  0  0  0  0  0  0
   41.1220   31.1510   40.0510 N   0  0  0  0  0  0  0  0  0  0  0  0
   40.6790   31.4350   41.2880 C   0  0  0  0  0  0  0  0  0  0  0  0
   40.4050   32.7040   41.6400 N   0  0  0  0  0  0  0  0  0  0  0  0
   40.5720   33.7090   40.7540 C   0  0  0  0  0  0  0  0  0  0  0  0
   40.2660   34.9760   41.2000 C   0  0  0  0  0  0  0  0  0  0  0  0
   40.4280   36.0200   40.3130 C   0  0  0  0  0  0  0  0  0  0  0  0
   40.8810   35.7680   39.0330 C   0  0  0  0  0  0  0  0  0  0  0  0
   41.1670   34.4750   38.6570 C   0  0  0  0  0  0  0  0  0  0  0  0
   41.0290   33.3770   39.4950 C   0  0  0  0  0  0  0  0  0  0  0  0
   47.0089   33.5126   37.1239 H   0  0  0  0  0  0  0  0  0  0  0  0
   45.0998   32.0541   35.8012 H   0  0  0  0  0  0  0  0  0  0  0  0
   48.3595   35.6167   42.6226 H   0  0  0  0  0  0  0  0  0  0  0  0
   49.4994   35.3151   40.4648 H   0  0  0  0  0  0  0  0  0  0  0  0
   43.7911   36.8633   45.1405 H   0  0  0  0  0  0  0  0  0  0  0  0
   44.8744   36.6777   42.8859 H   0  0  0  0  0  0  0  0  0  0  0  0
   45.6836   33.2604   46.2887 H   0  0  0  0  0  0  0  0  0  0  0  0
   43.0165   30.2972   38.2445 H   0  0  0  0  0  0  0  0  0  0  0  0
   43.1114   30.8429   36.5179 H   0  0  0  0  0  0  0  0  0  0  0  0
   41.9589   32.9739   37.3503 H   0  0  0  0  0  0  0  0  0  0  0  0
   40.9969   31.4185   37.1885 H   0  0  0  0  0  0  0  0  0  0  0  0
   40.5396   30.6237   42.0177 H   0  0  0  0  0  0  0  0  0  0  0  0
   39.9060   35.1487   42.2250 H   0  0  0  0  0  0  0  0  0  0  0  0
   40.1972   37.0495   40.6241 H   0  0  0  0  0  0  0  0  0  0  0  0
   41.0123   36.5945   38.3191 H   0  0  0  0  0  0  0  0  0  0  0  0
   41.5261   34.3016   37.6318 H   0  0  0  0  0  0  0  0  0  0  0  0
  1  5  1  0
  1 10  1  0
  2  1  2  0
  3  2  1  0
  3  4  2  0
  4  5  1  0
  6 14  1  0
  7  6  2  0
  8  7  1  0
  9 10  1  0
  9  8  2  0
 10 11  2  0
 11  6  1  0
 12 17  2  0
 13 12  1  0
 14 13  2  0
 14 15  1  0
 15 16  2  0
 16 17  1  0
 18 19  1  0
 18  4  1  0
 19 20  1  0
 20 29  1  0
 20 21  2  0
 21 22  1  0
 22 23  2  0
 24 25  2  0
 24 23  1  0
 26 25  1  0
 27 26  2  0
 28 27  1  0
 28 29  2  0
 29 24  1  0
  2 30  1  0
  3 31  1  0
  7 32  1  0
  8 33  1  0
 12 34  1  0
 13 35  1  0
 16 36  1  0
 18 37  1  0
 18 38  1  0
 19 39  1  0
 19 40  1  0
 22 41  1  0
 25 42  1  0
 26 43  1  0
 27 44  1  0
 28 45  1  0
M  ISO  8  30  14  31  14  32  14  33  14  34  14  35  14  36  14  37   8
M  ISO  8  38   8  39   8  40   8  41  14  42  14  43  14  44  14  45  14
M  END
>  <minimizedAffinity>  (1) 
-6.83745813

>  <minimizedRMSD>  (1) 
0.98989737

$$$$
