
     RDKit          3D

 45 49  0  0  0  0  0  0  0  0999 V2000
   46.5010   33.3230   38.9320 C   0  0  0  0  0  0  0  0  0  0  0  0
   47.1500   33.0690   37.7200 C   0  0  0  0  0  0  0  0  0  0  0  0
   46.2830   32.2920   36.9190 C   0  0  0  0  0  0  0  0  0  0  0  0
   45.1790   32.1390   37.7150 C   0  0  0  0  0  0  0  0  0  0  0  0
   45.3140   32.7380   38.8820 O   0  0  0  0  0  0  0  0  0  0  0  0
   46.8820   34.8580   42.1790 C   0  0  0  0  0  0  0  0  0  0  0  0
   48.1180   35.4420   42.0190 C   0  0  0  0  0  0  0  0  0  0  0  0
   48.8690   35.3730   40.8750 C   0  0  0  0  0  0  0  0  0  0  0  0
   48.3660   34.6840   39.8290 N   0  0  0  0  0  0  0  0  0  0  0  0
   47.1670   34.1060   39.9560 C   0  0  0  0  0  0  0  0  0  0  0  0
   46.4200   34.1680   41.0760 N   0  0  0  0  0  0  0  0  0  0  0  0
   44.4630   35.9030   44.8750 C   0  0  0  0  0  0  0  0  0  0  0  0
   45.1580   35.9260   43.6670 C   0  0  0  0  0  0  0  0  0  0  0  0
   46.0980   34.9340   43.4090 C   0  0  0  0  0  0  0  0  0  0  0  0
   46.3010   33.9940   44.3220 N   0  0  0  0  0  0  0  0  0  0  0  0
   45.6240   33.9660   45.4990 C   0  0  0  0  0  0  0  0  0  0  0  0
   44.7070   34.9170   45.7780 N   0  0  0  0  0  0  0  0  0  0  0  0
   43.9710   31.3740   37.3020 C   0  0  0  0  0  0  0  0  0  0  0  0
   42.9070   31.3580   38.3480 C   0  0  0  0  0  0  0  0  0  0  0  0
   41.8400   32.3210   38.1250 C   0  0  0  0  0  0  0  0  0  0  0  0
   42.3890   33.6190   38.2870 C   0  0  0  0  0  0  0  0  0  0  0  0
   41.4250   34.5840   38.2140 N   0  0  0  0  0  0  0  0  0  0  0  0
   40.2350   33.9560   38.0020 C   0  0  0  0  0  0  0  0  0  0  0  0
   38.9070   34.2620   37.7610 C   0  0  0  0  0  0  0  0  0  0  0  0
   37.9350   33.2970   37.4810 C   0  0  0  0  0  0  0  0  0  0  0  0
   38.3320   31.9360   37.4440 C   0  0  0  0  0  0  0  0  0  0  0  0
   39.6590   31.5990   37.6940 C   0  0  0  0  0  0  0  0  0  0  0  0
   40.5150   32.6360   37.9530 C   0  0  0  0  0  0  0  0  0  0  0  0
   48.1566   33.4129   37.4397 H   0  0  0  0  0  0  0  0  0  0  0  0
   46.4533   31.9045   35.9037 H   0  0  0  0  0  0  0  0  0  0  0  0
   48.5321   36.0037   42.8694 H   0  0  0  0  0  0  0  0  0  0  0  0
   49.8513   35.8639   40.8110 H   0  0  0  0  0  0  0  0  0  0  0  0
   43.7183   36.6815   45.0971 H   0  0  0  0  0  0  0  0  0  0  0  0
   44.9657   36.7178   42.9280 H   0  0  0  0  0  0  0  0  0  0  0  0
   45.8233   33.1661   46.2273 H   0  0  0  0  0  0  0  0  0  0  0  0
   43.5600   31.8326   36.3905 H   0  0  0  0  0  0  0  0  0  0  0  0
   44.2823   30.3327   37.1324 H   0  0  0  0  0  0  0  0  0  0  0  0
   42.4639   30.3515   38.3746 H   0  0  0  0  0  0  0  0  0  0  0  0
   43.3906   31.6347   39.2964 H   0  0  0  0  0  0  0  0  0  0  0  0
   43.4574   33.8229   38.4509 H   0  0  0  0  0  0  0  0  0  0  0  0
   41.5711   35.5997   38.3029 H   0  0  0  0  0  0  0  0  0  0  0  0
   38.6007   35.3181   37.7913 H   0  0  0  0  0  0  0  0  0  0  0  0
   36.8901   33.5856   37.2944 H   0  0  0  0  0  0  0  0  0  0  0  0
   37.5951   31.1510   37.2189 H   0  0  0  0  0  0  0  0  0  0  0  0
   40.0023   30.5540   37.6841 H   0  0  0  0  0  0  0  0  0  0  0  0
  1 10  1  0
  2  1  2  0
  3  4  2  0
  3  2  1  0
  4  5  1  0
  5  1  1  0
  6 14  1  0
  7  6  2  0
  8  7  1  0
  9 10  1  0
  9  8  2  0
 10 11  2  0
 11  6  1  0
 12 17  2  0
 13 12  1  0
 14 13  2  0
 14 15  1  0
 15 16  2  0
 16 17  1  0
 18  4  1  0
 18 19  1  0
 20 21  2  0
 20 19  1  0
 22 21  1  0
 23 22  1  0
 24 23  2  0
 25 24  1  0
 26 25  2  0
 26 27  1  0
 27 28  2  0
 28 23  1  0
 28 20  1  0
  2 29  1  0
  3 30  1  0
  7 31  1  0
  8 32  1  0
 12 33  1  0
 13 34  1  0
 16 35  1  0
 18 36  1  0
 18 37  1  0
 19 38  1  0
 19 39  1  0
 21 40  1  0
 22 41  1  0
 24 42  1  0
 25 43  1  0
 26 44  1  0
 27 45  1  0
M  ISO  8  29  14  30  14  31  14  32  14  33  14  34  14  35  14  36   8
M  ISO  8  37   8  38   8  39   8  40  14  41   9  42  14  43  14  44  14
M  ISO  1  45  14
M  END
>  <minimizedAffinity>  (1) 
-6.79773283

>  <minimizedRMSD>  (1) 
1.54938698

$$$$
