
     RDKit          3D

 45 49  0  0  0  0  0  0  0  0999 V2000
   45.7250   33.0890   38.9730 C   0  0  0  0  0  0  0  0  0  0  0  0
   46.2460   32.6600   37.7580 C   0  0  0  0  0  0  0  0  0  0  0  0
   45.2370   31.9940   37.0370 C   0  0  0  0  0  0  0  0  0  0  0  0
   44.1500   32.0760   37.9030 C   0  0  0  0  0  0  0  0  0  0  0  0
   44.4820   32.7100   38.9920 O   0  0  0  0  0  0  0  0  0  0  0  0
   46.5370   34.6540   42.1260 C   0  0  0  0  0  0  0  0  0  0  0  0
   47.7950   35.0930   41.8650 C   0  0  0  0  0  0  0  0  0  0  0  0
   48.4490   34.9090   40.6620 C   0  0  0  0  0  0  0  0  0  0  0  0
   47.7910   34.2470   39.6770 N   0  0  0  0  0  0  0  0  0  0  0  0
   46.5470   33.8110   39.9280 C   0  0  0  0  0  0  0  0  0  0  0  0
   45.9180   33.9940   41.1010 N   0  0  0  0  0  0  0  0  0  0  0  0
   44.4420   36.0500   44.9520 C   0  0  0  0  0  0  0  0  0  0  0  0
   45.0350   35.9700   43.6710 C   0  0  0  0  0  0  0  0  0  0  0  0
   45.8620   34.8600   43.4070 C   0  0  0  0  0  0  0  0  0  0  0  0
   46.0500   33.9440   44.3600 N   0  0  0  0  0  0  0  0  0  0  0  0
   45.4680   34.0480   45.5790 C   0  0  0  0  0  0  0  0  0  0  0  0
   44.6700   35.0910   45.8780 N   0  0  0  0  0  0  0  0  0  0  0  0
   42.8540   31.4760   37.5020 C   0  0  0  0  0  0  0  0  0  0  0  0
   41.7270   32.4920   37.6710 C   0  0  0  0  0  0  0  0  0  0  0  0
   40.5770   31.7430   38.1990 N   0  0  0  0  0  0  0  0  0  0  0  0
   39.9200   30.7280   37.6100 C   0  0  0  0  0  0  0  0  0  0  0  0
   38.9470   30.3720   38.4780 N   0  0  0  0  0  0  0  0  0  0  0  0
   39.0140   31.1560   39.5660 C   0  0  0  0  0  0  0  0  0  0  0  0
   38.2840   31.2250   40.7230 C   0  0  0  0  0  0  0  0  0  0  0  0
   37.3160   30.4560   40.9570 O   0  0  0  0  0  0  0  0  0  0  0  0
   38.6410   32.1610   41.6210 N   0  0  0  0  0  0  0  0  0  0  0  0
   39.6520   33.0400   41.4920 C   0  0  0  0  0  0  0  0  0  0  0  0
   39.9490   33.9940   42.5050 N   0  0  0  0  0  0  0  0  0  0  0  0
   40.3610   32.9620   40.3490 N   0  0  0  0  0  0  0  0  0  0  0  0
   40.0440   32.0360   39.4100 C   0  0  0  0  0  0  0  0  0  0  0  0
   47.2796   32.8157   37.4153 H   0  0  0  0  0  0  0  0  0  0  0  0
   45.2931   31.5275   36.0424 H   0  0  0  0  0  0  0  0  0  0  0  0
   48.3282   35.6301   42.6633 H   0  0  0  0  0  0  0  0  0  0  0  0
   49.4704   35.2870   40.5076 H   0  0  0  0  0  0  0  0  0  0  0  0
   43.7890   36.9004   45.1978 H   0  0  0  0  0  0  0  0  0  0  0  0
   44.8577   36.7442   42.9100 H   0  0  0  0  0  0  0  0  0  0  0  0
   45.6497   33.2699   46.3350 H   0  0  0  0  0  0  0  0  0  0  0  0
   42.6494   30.5983   38.1328 H   0  0  0  0  0  0  0  0  0  0  0  0
   42.9099   31.1748   36.4455 H   0  0  0  0  0  0  0  0  0  0  0  0
   42.0263   33.2798   38.3779 H   0  0  0  0  0  0  0  0  0  0  0  0
   41.4827   32.9828   36.7174 H   0  0  0  0  0  0  0  0  0  0  0  0
   40.1305   30.2810   36.6272 H   0  0  0  0  0  0  0  0  0  0  0  0
   38.0886   32.2095   42.4890 H   0  0  0  0  0  0  0  0  0  0  0  0
   40.7293   34.6542   42.3779 H   0  0  0  0  0  0  0  0  0  0  0  0
   39.3837   34.0244   43.3655 H   0  0  0  0  0  0  0  0  0  0  0  0
  1  5  1  0
  1 10  1  0
  2  1  2  0
  3  2  1  0
  3  4  2  0
  4  5  1  0
  6 14  1  0
  7  6  2  0
  8  7  1  0
  9 10  1  0
  9  8  2  0
 10 11  2  0
 11  6  1  0
 12 17  2  0
 13 12  1  0
 14 13  2  0
 14 15  1  0
 15 16  2  0
 16 17  1  0
 18 19  1  0
 18  4  1  0
 19 20  1  0
 20 30  1  0
 21 20  1  0
 21 22  2  0
 22 23  1  0
 23 24  1  0
 24 25  2  0
 24 26  1  0
 27 26  1  0
 27 28  1  0
 29 27  2  0
 30 23  2  0
 30 29  1  0
  2 31  1  0
  3 32  1  0
  7 33  1  0
  8 34  1  0
 12 35  1  0
 13 36  1  0
 16 37  1  0
 18 38  1  0
 18 39  1  0
 19 40  1  0
 19 41  1  0
 21 42  1  0
 26 43  1  0
 28 44  1  0
 28 45  1  0
M  ISO  8  31  14  32  14  33  14  34  14  35  14  36  14  37  14  38   8
M  ISO  5  39   8  40   8  41   8  42  14  43   9
M  END
>  <minimizedAffinity>  (1) 
-6.72660398

>  <minimizedRMSD>  (1) 
2.12880516

$$$$
