
     RDKit          3D

 42 46  0  0  0  0  0  0  0  0999 V2000
   45.6920   33.2350   38.9150 C   0  0  0  0  0  0  0  0  0  0  0  0
   46.1430   33.0130   37.6130 C   0  0  0  0  0  0  0  0  0  0  0  0
   45.1400   32.3740   36.8780 C   0  0  0  0  0  0  0  0  0  0  0  0
   44.1150   32.2480   37.8190 C   0  0  0  0  0  0  0  0  0  0  0  0
   44.4770   32.7540   38.9680 O   0  0  0  0  0  0  0  0  0  0  0  0
   46.5450   34.6660   42.1160 C   0  0  0  0  0  0  0  0  0  0  0  0
   47.8290   35.0560   41.8780 C   0  0  0  0  0  0  0  0  0  0  0  0
   48.4830   34.8750   40.6700 C   0  0  0  0  0  0  0  0  0  0  0  0
   47.8050   34.2740   39.6660 N   0  0  0  0  0  0  0  0  0  0  0  0
   46.5470   33.8890   39.8900 C   0  0  0  0  0  0  0  0  0  0  0  0
   45.9030   34.0620   41.0670 N   0  0  0  0  0  0  0  0  0  0  0  0
   44.4400   36.0390   44.9460 C   0  0  0  0  0  0  0  0  0  0  0  0
   45.0360   35.9670   43.6600 C   0  0  0  0  0  0  0  0  0  0  0  0
   45.8710   34.8630   43.3900 C   0  0  0  0  0  0  0  0  0  0  0  0
   46.0590   33.9440   44.3510 N   0  0  0  0  0  0  0  0  0  0  0  0
   45.4680   34.0600   45.5590 C   0  0  0  0  0  0  0  0  0  0  0  0
   44.6670   35.0880   45.8620 N   0  0  0  0  0  0  0  0  0  0  0  0
   42.8140   31.6150   37.4960 C   0  0  0  0  0  0  0  0  0  0  0  0
   41.8420   31.7350   38.6350 C   0  0  0  0  0  0  0  0  0  0  0  0
   41.0540   32.9130   38.6710 N   0  0  0  0  0  0  0  0  0  0  0  0
   40.0710   33.3880   37.9050 C   0  0  0  0  0  0  0  0  0  0  0  0
   39.5860   34.5640   38.3320 N   0  0  0  0  0  0  0  0  0  0  0  0
   40.2710   34.8960   39.4350 C   0  0  0  0  0  0  0  0  0  0  0  0
   40.2310   35.9680   40.3060 C   0  0  0  0  0  0  0  0  0  0  0  0
   41.0800   36.0160   41.3640 N   0  0  0  0  0  0  0  0  0  0  0  0
   41.9640   35.0040   41.5530 C   0  0  0  0  0  0  0  0  0  0  0  0
   42.0070   33.9580   40.7080 N   0  0  0  0  0  0  0  0  0  0  0  0
   41.1670   33.8760   39.6340 C   0  0  0  0  0  0  0  0  0  0  0  0
   47.1328   33.2965   37.2257 H   0  0  0  0  0  0  0  0  0  0  0  0
   45.1542   32.0522   35.8262 H   0  0  0  0  0  0  0  0  0  0  0  0
   48.3800   35.5445   42.6952 H   0  0  0  0  0  0  0  0  0  0  0  0
   49.5217   35.2098   40.5319 H   0  0  0  0  0  0  0  0  0  0  0  0
   43.7835   36.8861   45.1938 H   0  0  0  0  0  0  0  0  0  0  0  0
   44.8535   36.7432   42.9022 H   0  0  0  0  0  0  0  0  0  0  0  0
   45.6506   33.2851   46.3181 H   0  0  0  0  0  0  0  0  0  0  0  0
   42.3877   32.1077   36.6097 H   0  0  0  0  0  0  0  0  0  0  0  0
   42.9898   30.5460   37.3052 H   0  0  0  0  0  0  0  0  0  0  0  0
   41.1571   30.8759   38.5821 H   0  0  0  0  0  0  0  0  0  0  0  0
   42.4605   31.7699   39.5439 H   0  0  0  0  0  0  0  0  0  0  0  0
   39.6951   32.8674   37.0118 H   0  0  0  0  0  0  0  0  0  0  0  0
   39.5107   36.7830   40.1419 H   0  0  0  0  0  0  0  0  0  0  0  0
   42.6546   35.0393   42.4085 H   0  0  0  0  0  0  0  0  0  0  0  0
  1  5  1  0
  1 10  1  0
  2  1  2  0
  3  2  1  0
  3  4  2  0
  4  5  1  0
  6 14  1  0
  7  6  2  0
  8  7  1  0
  9 10  1  0
  9  8  2  0
 10 11  2  0
 11  6  1  0
 12 17  2  0
 13 12  1  0
 14 13  2  0
 14 15  1  0
 15 16  2  0
 16 17  1  0
 18  4  1  0
 18 19  1  0
 19 20  1  0
 20 28  1  0
 21 22  2  0
 21 20  1  0
 22 23  1  0
 23 28  2  0
 23 24  1  0
 24 25  2  0
 25 26  1  0
 27 26  2  0
 28 27  1  0
  2 29  1  0
  3 30  1  0
  7 31  1  0
  8 32  1  0
 12 33  1  0
 13 34  1  0
 16 35  1  0
 18 36  1  0
 18 37  1  0
 19 38  1  0
 19 39  1  0
 21 40  1  0
 24 41  1  0
 26 42  1  0
M  ISO  8  29  14  30  14  31  14  32  14  33  14  34  14  35  14  36   8
M  ISO  6  37   8  38   8  39   8  40  14  41  14  42  14
M  END
>  <minimizedAffinity>  (1) 
-6.46141481

>  <minimizedRMSD>  (1) 
2.46513987

$$$$
