
     RDKit          3D

 40 43  0  0  0  0  0  0  0  0999 V2000
   45.2060   32.9840   38.9020 C   0  0  0  0  0  0  0  0  0  0  0  0
   45.6210   32.4570   37.6840 C   0  0  0  0  0  0  0  0  0  0  0  0
   44.5330   31.8780   37.0200 C   0  0  0  0  0  0  0  0  0  0  0  0
   43.4920   32.1080   37.9210 C   0  0  0  0  0  0  0  0  0  0  0  0
   43.9210   32.7410   38.9800 O   0  0  0  0  0  0  0  0  0  0  0  0
   46.3100   34.5010   41.9850 C   0  0  0  0  0  0  0  0  0  0  0  0
   47.5890   34.8370   41.6440 C   0  0  0  0  0  0  0  0  0  0  0  0
   48.1500   34.5910   40.4070 C   0  0  0  0  0  0  0  0  0  0  0  0
   47.3950   33.9800   39.4720 N   0  0  0  0  0  0  0  0  0  0  0  0
   46.1410   33.6450   39.7950 C   0  0  0  0  0  0  0  0  0  0  0  0
   45.5880   33.8830   41.0010 N   0  0  0  0  0  0  0  0  0  0  0  0
   44.4710   36.0630   44.8980 C   0  0  0  0  0  0  0  0  0  0  0  0
   44.9820   35.9060   43.5970 C   0  0  0  0  0  0  0  0  0  0  0  0
   45.7370   34.7670   43.2880 C   0  0  0  0  0  0  0  0  0  0  0  0
   45.9340   33.8730   44.2690 N   0  0  0  0  0  0  0  0  0  0  0  0
   45.4340   34.0450   45.5130 C   0  0  0  0  0  0  0  0  0  0  0  0
   44.7150   35.1180   45.8280 N   0  0  0  0  0  0  0  0  0  0  0  0
   42.0980   31.6440   37.6160 C   0  0  0  0  0  0  0  0  0  0  0  0
   41.0970   32.7170   38.0080 C   0  0  0  0  0  0  0  0  0  0  0  0
   40.0640   32.2360   38.9300 C   0  0  0  0  0  0  0  0  0  0  0  0
   39.1550   31.2300   38.6660 C   0  0  0  0  0  0  0  0  0  0  0  0
   38.2540   30.9120   39.6580 C   0  0  0  0  0  0  0  0  0  0  0  0
   38.1890   31.5220   40.8940 C   0  0  0  0  0  0  0  0  0  0  0  0
   39.1400   32.5300   41.0840 C   0  0  0  0  0  0  0  0  0  0  0  0
   40.0440   32.8730   40.1350 N   0  0  0  0  0  0  0  0  0  0  0  0
   46.6510   32.4901   37.2994 H   0  0  0  0  0  0  0  0  0  0  0  0
   44.5056   31.3734   36.0430 H   0  0  0  0  0  0  0  0  0  0  0  0
   48.2110   35.3348   42.4025 H   0  0  0  0  0  0  0  0  0  0  0  0
   49.1871   34.8861   40.1896 H   0  0  0  0  0  0  0  0  0  0  0  0
   43.8758   36.9516   45.1551 H   0  0  0  0  0  0  0  0  0  0  0  0
   44.7906   36.6703   42.8294 H   0  0  0  0  0  0  0  0  0  0  0  0
   45.6260   33.2811   46.2809 H   0  0  0  0  0  0  0  0  0  0  0  0
   42.0096   31.4391   36.5389 H   0  0  0  0  0  0  0  0  0  0  0  0
   41.8886   30.7280   38.1879 H   0  0  0  0  0  0  0  0  0  0  0  0
   41.6406   33.5418   38.4920 H   0  0  0  0  0  0  0  0  0  0  0  0
   40.5881   33.0402   37.0879 H   0  0  0  0  0  0  0  0  0  0  0  0
   39.1509   30.7030   37.7005 H   0  0  0  0  0  0  0  0  0  0  0  0
   37.5306   30.1101   39.4489 H   0  0  0  0  0  0  0  0  0  0  0  0
   37.4539   31.2403   41.6623 H   0  0  0  0  0  0  0  0  0  0  0  0
   39.1545   33.0667   42.0441 H   0  0  0  0  0  0  0  0  0  0  0  0
  1  5  1  0
  1 10  1  0
  2  1  2  0
  3  2  1  0
  3  4  2  0
  4  5  1  0
  6 14  1  0
  7  6  2  0
  8  7  1  0
  9 10  1  0
  9  8  2  0
 10 11  2  0
 11  6  1  0
 12 17  2  0
 13 12  1  0
 14 13  2  0
 14 15  1  0
 15 16  2  0
 16 17  1  0
 18  4  1  0
 18 19  1  0
 19 20  1  0
 20 25  1  0
 21 20  2  0
 21 22  1  0
 22 23  2  0
 23 24  1  0
 25 24  2  0
  2 26  1  0
  3 27  1  0
  7 28  1  0
  8 29  1  0
 12 30  1  0
 13 31  1  0
 16 32  1  0
 18 33  1  0
 18 34  1  0
 19 35  1  0
 19 36  1  0
 21 37  1  0
 22 38  1  0
 23 39  1  0
 24 40  1  0
M  ISO  8  26  14  27  14  28  14  29  14  30  14  31  14  32  14  33   8
M  ISO  7  34   8  35   8  36   8  37  14  38  14  39  14  40  14
M  END
>  <minimizedAffinity>  (1) 
-5.65753937

>  <minimizedRMSD>  (1) 
1.66111767

$$$$
