
     RDKit          3D

 41 44  0  0  0  0  0  0  0  0999 V2000
   46.2520   33.3240   38.8400 C   0  0  0  0  0  0  0  0  0  0  0  0
   46.7690   33.2110   37.5470 C   0  0  0  0  0  0  0  0  0  0  0  0
   45.8780   32.4770   36.7650 C   0  0  0  0  0  0  0  0  0  0  0  0
   44.8530   32.1870   37.6590 C   0  0  0  0  0  0  0  0  0  0  0  0
   45.1060   32.6900   38.8350 O   0  0  0  0  0  0  0  0  0  0  0  0
   46.8100   34.7780   42.0960 C   0  0  0  0  0  0  0  0  0  0  0  0
   48.0470   35.3020   41.9300 C   0  0  0  0  0  0  0  0  0  0  0  0
   48.7730   35.2170   40.7570 C   0  0  0  0  0  0  0  0  0  0  0  0
   48.2090   34.5680   39.7110 N   0  0  0  0  0  0  0  0  0  0  0  0
   46.9870   34.0450   39.8640 C   0  0  0  0  0  0  0  0  0  0  0  0
   46.2690   34.1260   41.0100 N   0  0  0  0  0  0  0  0  0  0  0  0
   44.4610   35.9270   44.8420 C   0  0  0  0  0  0  0  0  0  0  0  0
   45.1360   35.9100   43.6160 C   0  0  0  0  0  0  0  0  0  0  0  0
   46.0610   34.8790   43.3420 C   0  0  0  0  0  0  0  0  0  0  0  0
   46.2470   33.9590   44.2780 N   0  0  0  0  0  0  0  0  0  0  0  0
   45.5810   33.9960   45.4590 C   0  0  0  0  0  0  0  0  0  0  0  0
   44.6970   34.9630   45.7480 N   0  0  0  0  0  0  0  0  0  0  0  0
   43.6460   31.3950   37.2540 C   0  0  0  0  0  0  0  0  0  0  0  0
   42.4240   31.8630   38.0430 C   0  0  0  0  0  0  0  0  0  0  0  0
   41.1660   31.2660   37.5570 C   0  0  0  0  0  0  0  0  0  0  0  0
   41.0850   30.1520   36.7460 C   0  0  0  0  0  0  0  0  0  0  0  0
   39.8230   29.7240   36.3840 C   0  0  0  0  0  0  0  0  0  0  0  0
   38.6620   30.3520   36.7890 C   0  0  0  0  0  0  0  0  0  0  0  0
   38.7440   31.4820   37.6120 C   0  0  0  0  0  0  0  0  0  0  0  0
   40.0110   31.8980   37.9670 C   0  0  0  0  0  0  0  0  0  0  0  0
   47.7244   33.6329   37.2017 H   0  0  0  0  0  0  0  0  0  0  0  0
   45.9644   32.1970   35.7047 H   0  0  0  0  0  0  0  0  0  0  0  0
   48.5028   35.8282   42.7817 H   0  0  0  0  0  0  0  0  0  0  0  0
   49.7758   35.6618   40.6759 H   0  0  0  0  0  0  0  0  0  0  0  0
   43.7394   36.7272   45.0633 H   0  0  0  0  0  0  0  0  0  0  0  0
   44.9469   36.6958   42.8698 H   0  0  0  0  0  0  0  0  0  0  0  0
   45.7716   33.2086   46.2031 H   0  0  0  0  0  0  0  0  0  0  0  0
   43.4614   31.5367   36.1789 H   0  0  0  0  0  0  0  0  0  0  0  0
   43.8256   30.3305   37.4650 H   0  0  0  0  0  0  0  0  0  0  0  0
   42.5599   31.5852   39.0986 H   0  0  0  0  0  0  0  0  0  0  0  0
   42.3445   32.9526   37.9144 H   0  0  0  0  0  0  0  0  0  0  0  0
   41.9884   29.6269   36.4023 H   0  0  0  0  0  0  0  0  0  0  0  0
   39.7383   28.8366   35.7395 H   0  0  0  0  0  0  0  0  0  0  0  0
   37.6822   29.9684   36.4683 H   0  0  0  0  0  0  0  0  0  0  0  0
   37.8439   32.0113   37.9580 H   0  0  0  0  0  0  0  0  0  0  0  0
   40.1048   32.7832   38.6132 H   0  0  0  0  0  0  0  0  0  0  0  0
  1 10  1  0
  2  1  2  0
  3  2  1  0
  3  4  2  0
  4  5  1  0
  5  1  1  0
  6 14  1  0
  7  6  2  0
  8  7  1  0
  9 10  1  0
  9  8  2  0
 10 11  2  0
 11  6  1  0
 12 17  2  0
 13 12  1  0
 14 13  2  0
 14 15  1  0
 15 16  2  0
 16 17  1  0
 18  4  1  0
 18 19  1  0
 20 25  1  0
 20 19  1  0
 21 20  2  0
 22 21  1  0
 22 23  2  0
 23 24  1  0
 24 25  2  0
  2 26  1  0
  3 27  1  0
  7 28  1  0
  8 29  1  0
 12 30  1  0
 13 31  1  0
 16 32  1  0
 18 33  1  0
 18 34  1  0
 19 35  1  0
 19 36  1  0
 21 37  1  0
 22 38  1  0
 23 39  1  0
 24 40  1  0
 25 41  1  0
M  ISO  8  26  14  27  14  28  14  29  14  30  14  31  14  32  14  33   8
M  ISO  8  34   8  35   8  36   8  37  14  38  14  39  14  40  14  41  14
M  END
>  <minimizedAffinity>  (1) 
-5.59641171

>  <minimizedRMSD>  (1) 
0.267423272

$$$$
