
     RDKit          3D

 44 47  0  0  0  0  0  0  0  0999 V2000
   45.4470   33.1120   38.8770 C   0  0  0  0  0  0  0  0  0  0  0  0
   45.8490   32.8740   37.5620 C   0  0  0  0  0  0  0  0  0  0  0  0
   44.8080   32.2320   36.8850 C   0  0  0  0  0  0  0  0  0  0  0  0
   43.8200   32.1240   37.8660 C   0  0  0  0  0  0  0  0  0  0  0  0
   44.2300   32.6400   38.9850 O   0  0  0  0  0  0  0  0  0  0  0  0
   46.4230   34.6050   42.0190 C   0  0  0  0  0  0  0  0  0  0  0  0
   47.7090   34.9620   41.7290 C   0  0  0  0  0  0  0  0  0  0  0  0
   48.3260   34.7400   40.5100 C   0  0  0  0  0  0  0  0  0  0  0  0
   47.6070   34.1300   39.5440 N   0  0  0  0  0  0  0  0  0  0  0  0
   46.3540   33.7750   39.8040 C   0  0  0  0  0  0  0  0  0  0  0  0
   45.7490   33.9920   40.9960 N   0  0  0  0  0  0  0  0  0  0  0  0
   44.4780   36.0750   44.9010 C   0  0  0  0  0  0  0  0  0  0  0  0
   45.0240   35.9760   43.5960 C   0  0  0  0  0  0  0  0  0  0  0  0
   45.7960   34.8490   43.3080 C   0  0  0  0  0  0  0  0  0  0  0  0
   45.9810   33.9280   44.2690 N   0  0  0  0  0  0  0  0  0  0  0  0
   45.4430   34.0590   45.5050 C   0  0  0  0  0  0  0  0  0  0  0  0
   44.6970   35.1220   45.8180 N   0  0  0  0  0  0  0  0  0  0  0  0
   42.5060   31.4900   37.5780 C   0  0  0  0  0  0  0  0  0  0  0  0
   41.3700   32.3910   37.9990 C   0  0  0  0  0  0  0  0  0  0  0  0
   41.1630   32.4230   39.4140 N   0  0  0  0  0  0  0  0  0  0  0  0
   41.0270   33.7600   39.9200 C   0  0  0  0  0  0  0  0  0  0  0  0
   39.8740   33.9990   40.8260 C   0  0  0  0  0  0  0  0  0  0  0  0
   39.6010   33.0200   41.7440 O   0  0  0  0  0  0  0  0  0  0  0  0
   40.0850   31.7780   41.4260 C   0  0  0  0  0  0  0  0  0  0  0  0
   40.1400   31.5590   39.9120 C   0  0  0  0  0  0  0  0  0  0  0  0
   46.8232   33.1464   37.1299 H   0  0  0  0  0  0  0  0  0  0  0  0
   44.7752   31.8952   35.8384 H   0  0  0  0  0  0  0  0  0  0  0  0
   48.2936   35.4593   42.5170 H   0  0  0  0  0  0  0  0  0  0  0  0
   49.3667   35.0501   40.3344 H   0  0  0  0  0  0  0  0  0  0  0  0
   43.8643   36.9487   45.1654 H   0  0  0  0  0  0  0  0  0  0  0  0
   44.8464   36.7559   42.8409 H   0  0  0  0  0  0  0  0  0  0  0  0
   45.6226   33.2802   46.2607 H   0  0  0  0  0  0  0  0  0  0  0  0
   42.4294   31.2942   36.4983 H   0  0  0  0  0  0  0  0  0  0  0  0
   42.4375   30.5496   38.1445 H   0  0  0  0  0  0  0  0  0  0  0  0
   41.5901   33.4127   37.6559 H   0  0  0  0  0  0  0  0  0  0  0  0
   40.4520   31.9882   37.5462 H   0  0  0  0  0  0  0  0  0  0  0  0
   41.9459   34.0059   40.4725 H   0  0  0  0  0  0  0  0  0  0  0  0
   40.8484   34.3939   39.0390 H   0  0  0  0  0  0  0  0  0  0  0  0
   40.0716   34.9291   41.3791 H   0  0  0  0  0  0  0  0  0  0  0  0
   38.9922   34.0342   40.1693 H   0  0  0  0  0  0  0  0  0  0  0  0
   41.0999   31.6754   41.8376 H   0  0  0  0  0  0  0  0  0  0  0  0
   39.4060   31.0266   41.8554 H   0  0  0  0  0  0  0  0  0  0  0  0
   39.1720   31.8138   39.4558 H   0  0  0  0  0  0  0  0  0  0  0  0
   40.3545   30.5077   39.6697 H   0  0  0  0  0  0  0  0  0  0  0  0
  1  5  1  0
  1 10  1  0
  2  1  2  0
  3  2  1  0
  3  4  2  0
  4  5  1  0
  6 14  1  0
  7  6  2  0
  8  7  1  0
  9 10  1  0
  9  8  2  0
 10 11  2  0
 11  6  1  0
 12 17  2  0
 13 12  1  0
 14 13  2  0
 14 15  1  0
 15 16  2  0
 16 17  1  0
 18  4  1  0
 18 19  1  0
 19 20  1  0
 20 25  1  0
 20 21  1  0
 21 22  1  0
 22 23  1  0
 24 23  1  0
 25 24  1  0
  2 26  1  0
  3 27  1  0
  7 28  1  0
  8 29  1  0
 12 30  1  0
 13 31  1  0
 16 32  1  0
 18 33  1  0
 18 34  1  0
 19 35  1  0
 19 36  1  0
 21 37  1  0
 21 38  1  0
 22 39  1  0
 22 40  1  0
 24 41  1  0
 24 42  1  0
 25 43  1  0
 25 44  1  0
M  ISO  8  26  14  27  14  28  14  29  14  30  14  31  14  32  14  33   8
M  ISO  8  34   8  35   8  36   8  37  13  38  13  39  13  40  13  41  13
M  ISO  3  42  13  43  13  44  13
M  END
>  <minimizedAffinity>  (1) 
-5.55817986

>  <minimizedRMSD>  (1) 
1.93753946

$$$$
