
     RDKit          3D

 39 42  0  0  0  0  0  0  0  0999 V2000
   45.1550   32.9970   38.9260 C   0  0  0  0  0  0  0  0  0  0  0  0
   45.5770   32.4480   37.7090 C   0  0  0  0  0  0  0  0  0  0  0  0
   44.4760   31.8890   37.0560 C   0  0  0  0  0  0  0  0  0  0  0  0
   43.4340   32.1410   37.9390 C   0  0  0  0  0  0  0  0  0  0  0  0
   43.8610   32.7780   39.0000 O   0  0  0  0  0  0  0  0  0  0  0  0
   46.2970   34.4980   42.0040 C   0  0  0  0  0  0  0  0  0  0  0  0
   47.5720   34.8200   41.6550 C   0  0  0  0  0  0  0  0  0  0  0  0
   48.1330   34.5740   40.4170 C   0  0  0  0  0  0  0  0  0  0  0  0
   47.3620   33.9690   39.4810 N   0  0  0  0  0  0  0  0  0  0  0  0
   46.1020   33.6460   39.8130 C   0  0  0  0  0  0  0  0  0  0  0  0
   45.5600   33.8880   41.0180 N   0  0  0  0  0  0  0  0  0  0  0  0
   44.4710   36.0660   44.9270 C   0  0  0  0  0  0  0  0  0  0  0  0
   44.9790   35.9060   43.6170 C   0  0  0  0  0  0  0  0  0  0  0  0
   45.7260   34.7670   43.3140 C   0  0  0  0  0  0  0  0  0  0  0  0
   45.9220   33.8820   44.2860 N   0  0  0  0  0  0  0  0  0  0  0  0
   45.4310   34.0440   45.5370 C   0  0  0  0  0  0  0  0  0  0  0  0
   44.7140   35.1200   45.8600 N   0  0  0  0  0  0  0  0  0  0  0  0
   42.0300   31.7120   37.6500 C   0  0  0  0  0  0  0  0  0  0  0  0
   41.0570   32.8360   37.9960 C   0  0  0  0  0  0  0  0  0  0  0  0
   40.1500   32.4830   39.0920 C   0  0  0  0  0  0  0  0  0  0  0  0
   39.1030   31.5960   38.9560 C   0  0  0  0  0  0  0  0  0  0  0  0
   38.3380   31.3710   40.0960 C   0  0  0  0  0  0  0  0  0  0  0  0
   38.6340   32.0020   41.2460 N   0  0  0  0  0  0  0  0  0  0  0  0
   39.6570   32.8670   41.3690 C   0  0  0  0  0  0  0  0  0  0  0  0
   40.4240   33.1080   40.2750 N   0  0  0  0  0  0  0  0  0  0  0  0
   46.6091   32.4557   37.3285 H   0  0  0  0  0  0  0  0  0  0  0  0
   44.4425   31.3762   36.0834 H   0  0  0  0  0  0  0  0  0  0  0  0
   48.2006   35.3110   42.4124 H   0  0  0  0  0  0  0  0  0  0  0  0
   49.1723   34.8600   40.1978 H   0  0  0  0  0  0  0  0  0  0  0  0
   43.8803   36.9573   45.1852 H   0  0  0  0  0  0  0  0  0  0  0  0
   44.7880   36.6687   42.8477 H   0  0  0  0  0  0  0  0  0  0  0  0
   45.6269   33.2753   46.2991 H   0  0  0  0  0  0  0  0  0  0  0  0
   41.9371   31.4662   36.5818 H   0  0  0  0  0  0  0  0  0  0  0  0
   41.7907   30.8280   38.2594 H   0  0  0  0  0  0  0  0  0  0  0  0
   41.6357   33.7239   38.2905 H   0  0  0  0  0  0  0  0  0  0  0  0
   40.4415   33.0281   37.1048 H   0  0  0  0  0  0  0  0  0  0  0  0
   38.8852   31.0952   38.0011 H   0  0  0  0  0  0  0  0  0  0  0  0
   37.4877   30.6742   40.0565 H   0  0  0  0  0  0  0  0  0  0  0  0
   39.8659   33.3643   42.3277 H   0  0  0  0  0  0  0  0  0  0  0  0
  1  5  1  0
  1 10  1  0
  2  1  2  0
  3  2  1  0
  3  4  2  0
  4  5  1  0
  6 14  1  0
  7  6  2  0
  8  7  1  0
  9 10  1  0
  9  8  2  0
 10 11  2  0
 11  6  1  0
 12 17  2  0
 13 12  1  0
 14 13  2  0
 14 15  1  0
 15 16  2  0
 16 17  1  0
 18  4  1  0
 18 19  1  0
 19 20  1  0
 20 25  1  0
 21 20  2  0
 21 22  1  0
 22 23  2  0
 23 24  1  0
 25 24  2  0
  2 26  1  0
  3 27  1  0
  7 28  1  0
  8 29  1  0
 12 30  1  0
 13 31  1  0
 16 32  1  0
 18 33  1  0
 18 34  1  0
 19 35  1  0
 19 36  1  0
 21 37  1  0
 22 38  1  0
 24 39  1  0
M  ISO  8  26  14  27  14  28  14  29  14  30  14  31  14  32  14  33   8
M  ISO  6  34   8  35   8  36   8  37  14  38  14  39  14
M  END
>  <minimizedAffinity>  (1) 
-5.51480961

>  <minimizedRMSD>  (1) 
1.84426951

$$$$
