
     RDKit          3D

 43 46  0  0  0  0  0  0  0  0999 V2000
   45.1160   32.9690   38.8980 C   0  0  0  0  0  0  0  0  0  0  0  0
   45.5170   32.4190   37.6920 C   0  0  0  0  0  0  0  0  0  0  0  0
   44.4010   31.8640   37.0430 C   0  0  0  0  0  0  0  0  0  0  0  0
   43.3670   32.1320   37.9450 C   0  0  0  0  0  0  0  0  0  0  0  0
   43.8210   32.7620   38.9850 O   0  0  0  0  0  0  0  0  0  0  0  0
   46.2790   34.4680   41.9730 C   0  0  0  0  0  0  0  0  0  0  0  0
   47.5560   34.7900   41.6250 C   0  0  0  0  0  0  0  0  0  0  0  0
   48.1010   34.5330   40.3720 C   0  0  0  0  0  0  0  0  0  0  0  0
   47.3260   33.9340   39.4460 N   0  0  0  0  0  0  0  0  0  0  0  0
   46.0720   33.6160   39.7820 C   0  0  0  0  0  0  0  0  0  0  0  0
   45.5280   33.8590   40.9940 N   0  0  0  0  0  0  0  0  0  0  0  0
   44.4780   36.0710   44.8970 C   0  0  0  0  0  0  0  0  0  0  0  0
   44.9740   35.9040   43.5920 C   0  0  0  0  0  0  0  0  0  0  0  0
   45.7200   34.7440   43.2880 C   0  0  0  0  0  0  0  0  0  0  0  0
   45.9290   33.8390   44.2620 N   0  0  0  0  0  0  0  0  0  0  0  0
   45.4280   34.0470   45.5120 C   0  0  0  0  0  0  0  0  0  0  0  0
   44.7160   35.1360   45.8330 N   0  0  0  0  0  0  0  0  0  0  0  0
   41.9820   31.7010   37.6360 C   0  0  0  0  0  0  0  0  0  0  0  0
   40.9880   32.7420   38.1150 C   0  0  0  0  0  0  0  0  0  0  0  0
   40.5460   32.3720   39.4460 N   0  0  0  0  0  0  0  0  0  0  0  0
   39.2420   31.8330   39.4510 C   0  0  0  0  0  0  0  0  0  0  0  0
   38.5260   32.4790   40.6000 C   0  0  0  0  0  0  0  0  0  0  0  0
   39.6370   33.1230   41.4390 C   0  0  0  0  0  0  0  0  0  0  0  0
   40.7050   33.3930   40.4080 C   0  0  0  0  0  0  0  0  0  0  0  0
   46.5461   32.4169   37.3036 H   0  0  0  0  0  0  0  0  0  0  0  0
   44.3531   31.3494   36.0720 H   0  0  0  0  0  0  0  0  0  0  0  0
   48.1913   35.2806   42.3771 H   0  0  0  0  0  0  0  0  0  0  0  0
   49.1399   34.8118   40.1418 H   0  0  0  0  0  0  0  0  0  0  0  0
   43.8945   36.9678   45.1523 H   0  0  0  0  0  0  0  0  0  0  0  0
   44.7841   36.6645   42.8203 H   0  0  0  0  0  0  0  0  0  0  0  0
   45.6155   33.2908   46.2886 H   0  0  0  0  0  0  0  0  0  0  0  0
   41.8762   31.5713   36.5488 H   0  0  0  0  0  0  0  0  0  0  0  0
   41.7799   30.7498   38.1501 H   0  0  0  0  0  0  0  0  0  0  0  0
   41.4699   33.7304   38.1446 H   0  0  0  0  0  0  0  0  0  0  0  0
   40.1287   32.7886   37.4299 H   0  0  0  0  0  0  0  0  0  0  0  0
   38.7305   32.0637   38.5049 H   0  0  0  0  0  0  0  0  0  0  0  0
   39.2614   30.7382   39.5556 H   0  0  0  0  0  0  0  0  0  0  0  0
   37.8213   33.2422   40.2381 H   0  0  0  0  0  0  0  0  0  0  0  0
   37.9326   31.7565   41.1796 H   0  0  0  0  0  0  0  0  0  0  0  0
   39.2916   34.0561   41.9081 H   0  0  0  0  0  0  0  0  0  0  0  0
   39.9799   32.4929   42.2729 H   0  0  0  0  0  0  0  0  0  0  0  0
   41.7048   33.3431   40.8640 H   0  0  0  0  0  0  0  0  0  0  0  0
   40.6113   34.3964   39.9670 H   0  0  0  0  0  0  0  0  0  0  0  0
  1  5  1  0
  1 10  1  0
  2  1  2  0
  3  2  1  0
  3  4  2  0
  4  5  1  0
  6 14  1  0
  7  6  2  0
  8  7  1  0
  9 10  1  0
  9  8  2  0
 10 11  2  0
 11  6  1  0
 12 17  2  0
 13 12  1  0
 14 13  2  0
 14 15  1  0
 15 16  2  0
 16 17  1  0
 18  4  1  0
 18 19  1  0
 19 20  1  0
 20 21  1  0
 20 24  1  0
 21 22  1  0
 22 23  1  0
 24 23  1  0
  2 25  1  0
  3 26  1  0
  7 27  1  0
  8 28  1  0
 12 29  1  0
 13 30  1  0
 16 31  1  0
 18 32  1  0
 18 33  1  0
 19 34  1  0
 19 35  1  0
 21 36  1  0
 21 37  1  0
 22 38  1  0
 22 39  1  0
 23 40  1  0
 23 41  1  0
 24 42  1  0
 24 43  1  0
M  ISO  8  25  14  26  14  27  14  28  14  29  14  30  14  31  14  32   8
M  ISO  8  33   8  34   8  35   8  36  13  37  13  38  13  39  13  40  13
M  ISO  3  41  13  42  13  43  13
M  END
>  <minimizedAffinity>  (1) 
-5.40178442

>  <minimizedRMSD>  (1) 
1.23701096

$$$$
