
     RDKit          3D

 38 41  0  0  0  0  0  0  0  0999 V2000
   45.6410   33.2120   38.9660 C   0  0  0  0  0  0  0  0  0  0  0  0
   46.0680   33.0040   37.6570 C   0  0  0  0  0  0  0  0  0  0  0  0
   45.0540   32.3560   36.9440 C   0  0  0  0  0  0  0  0  0  0  0  0
   44.0520   32.2140   37.9070 C   0  0  0  0  0  0  0  0  0  0  0  0
   44.4450   32.7180   39.0330 O   0  0  0  0  0  0  0  0  0  0  0  0
   46.5170   34.6630   42.1540 C   0  0  0  0  0  0  0  0  0  0  0  0
   47.7940   35.0560   41.9040 C   0  0  0  0  0  0  0  0  0  0  0  0
   48.4400   34.8710   40.6960 C   0  0  0  0  0  0  0  0  0  0  0  0
   47.7570   34.2620   39.7020 N   0  0  0  0  0  0  0  0  0  0  0  0
   46.5020   33.8720   39.9340 C   0  0  0  0  0  0  0  0  0  0  0  0
   45.8660   34.0520   41.1170 N   0  0  0  0  0  0  0  0  0  0  0  0
   44.4470   36.0460   45.0050 C   0  0  0  0  0  0  0  0  0  0  0  0
   45.0290   35.9770   43.7140 C   0  0  0  0  0  0  0  0  0  0  0  0
   45.8480   34.8670   43.4390 C   0  0  0  0  0  0  0  0  0  0  0  0
   46.0400   33.9380   44.3930 N   0  0  0  0  0  0  0  0  0  0  0  0
   45.4640   34.0510   45.6050 C   0  0  0  0  0  0  0  0  0  0  0  0
   44.6770   35.0760   45.9330 N   0  0  0  0  0  0  0  0  0  0  0  0
   42.7720   31.5610   37.5560 C   0  0  0  0  0  0  0  0  0  0  0  0
   41.5930   32.3460   38.0260 C   0  0  0  0  0  0  0  0  0  0  0  0
   41.3420   32.2140   39.4650 C   0  0  0  0  0  0  0  0  0  0  0  0
   41.1580   31.2080   40.3600 C   0  0  0  0  0  0  0  0  0  0  0  0
   40.9930   31.6830   41.6480 C   0  0  0  0  0  0  0  0  0  0  0  0
   41.0880   33.0320   41.4920 N   0  0  0  0  0  0  0  0  0  0  0  0
   41.2900   33.3290   40.2280 N   0  0  0  0  0  0  0  0  0  0  0  0
   47.0454   33.3014   37.2493 H   0  0  0  0  0  0  0  0  0  0  0  0
   45.0473   32.0384   35.8909 H   0  0  0  0  0  0  0  0  0  0  0  0
   48.3483   35.5526   42.7141 H   0  0  0  0  0  0  0  0  0  0  0  0
   49.4765   35.2087   40.5488 H   0  0  0  0  0  0  0  0  0  0  0  0
   43.7990   36.8971   45.2614 H   0  0  0  0  0  0  0  0  0  0  0  0
   44.8480   36.7575   42.9603 H   0  0  0  0  0  0  0  0  0  0  0  0
   45.6501   33.2669   46.3537 H   0  0  0  0  0  0  0  0  0  0  0  0
   42.7154   31.4567   36.4624 H   0  0  0  0  0  0  0  0  0  0  0  0
   42.7452   30.5800   38.0528 H   0  0  0  0  0  0  0  0  0  0  0  0
   41.7679   33.4079   37.7984 H   0  0  0  0  0  0  0  0  0  0  0  0
   40.7096   31.9492   37.5043 H   0  0  0  0  0  0  0  0  0  0  0  0
   41.1422   30.1414   40.0914 H   0  0  0  0  0  0  0  0  0  0  0  0
   40.8259   31.1108   42.5725 H   0  0  0  0  0  0  0  0  0  0  0  0
   41.0125   33.7203   42.2545 H   0  0  0  0  0  0  0  0  0  0  0  0
  1  5  1  0
  1 10  1  0
  2  1  2  0
  3  2  1  0
  3  4  2  0
  4  5  1  0
  6 14  1  0
  7  6  2  0
  8  7  1  0
  9 10  1  0
  9  8  2  0
 10 11  2  0
 11  6  1  0
 12 17  2  0
 13 12  1  0
 14 13  2  0
 14 15  1  0
 15 16  2  0
 16 17  1  0
 18  4  1  0
 18 19  1  0
 19 20  1  0
 20 24  2  0
 20 21  1  0
 21 22  2  0
 23 22  1  0
 24 23  1  0
  2 25  1  0
  3 26  1  0
  7 27  1  0
  8 28  1  0
 12 29  1  0
 13 30  1  0
 16 31  1  0
 18 32  1  0
 18 33  1  0
 19 34  1  0
 19 35  1  0
 21 36  1  0
 22 37  1  0
 23 38  1  0
M  ISO  8  25  14  26  14  27  14  28  14  29  14  30  14  31  14  32   8
M  ISO  6  33   8  34   8  35   8  36  14  37  14  38   9
M  END
>  <minimizedAffinity>  (1) 
-5.33445024

>  <minimizedRMSD>  (1) 
0.640580297

$$$$
