
     RDKit          3D

 38 41  0  0  0  0  0  0  0  0999 V2000
   45.1790   33.0040   38.9240 C   0  0  0  0  0  0  0  0  0  0  0  0
   45.5750   32.5130   37.6890 C   0  0  0  0  0  0  0  0  0  0  0  0
   44.4870   31.9360   37.0290 C   0  0  0  0  0  0  0  0  0  0  0  0
   43.4620   32.1290   37.9570 C   0  0  0  0  0  0  0  0  0  0  0  0
   43.9050   32.7380   39.0160 O   0  0  0  0  0  0  0  0  0  0  0  0
   46.2920   34.4990   42.0110 C   0  0  0  0  0  0  0  0  0  0  0  0
   47.5770   34.8310   41.6670 C   0  0  0  0  0  0  0  0  0  0  0  0
   48.1390   34.5860   40.4280 C   0  0  0  0  0  0  0  0  0  0  0  0
   47.3700   33.9830   39.4960 N   0  0  0  0  0  0  0  0  0  0  0  0
   46.1210   33.6550   39.8190 C   0  0  0  0  0  0  0  0  0  0  0  0
   45.5640   33.8880   41.0240 N   0  0  0  0  0  0  0  0  0  0  0  0
   44.4740   36.0700   44.9270 C   0  0  0  0  0  0  0  0  0  0  0  0
   44.9780   35.9150   43.6200 C   0  0  0  0  0  0  0  0  0  0  0  0
   45.7240   34.7650   43.3240 C   0  0  0  0  0  0  0  0  0  0  0  0
   45.9170   33.8820   44.2920 N   0  0  0  0  0  0  0  0  0  0  0  0
   45.4310   34.0370   45.5460 C   0  0  0  0  0  0  0  0  0  0  0  0
   44.7170   35.1190   45.8620 N   0  0  0  0  0  0  0  0  0  0  0  0
   42.0690   31.6610   37.6790 C   0  0  0  0  0  0  0  0  0  0  0  0
   41.0650   32.7340   38.0190 C   0  0  0  0  0  0  0  0  0  0  0  0
   40.5850   32.6420   39.4060 C   0  0  0  0  0  0  0  0  0  0  0  0
   40.0730   33.8180   39.9360 C   0  0  0  0  0  0  0  0  0  0  0  0
   39.6710   33.5530   41.2400 C   0  0  0  0  0  0  0  0  0  0  0  0
   39.9600   32.2240   41.4400 C   0  0  0  0  0  0  0  0  0  0  0  0
   40.4840   31.7500   40.3520 O   0  0  0  0  0  0  0  0  0  0  0  0
   46.5974   32.5696   37.2872 H   0  0  0  0  0  0  0  0  0  0  0  0
   44.4483   31.4565   36.0398 H   0  0  0  0  0  0  0  0  0  0  0  0
   48.2014   35.3244   42.4264 H   0  0  0  0  0  0  0  0  0  0  0  0
   49.1781   34.8727   40.2086 H   0  0  0  0  0  0  0  0  0  0  0  0
   43.8844   36.9612   45.1880 H   0  0  0  0  0  0  0  0  0  0  0  0
   44.7906   36.6781   42.8502 H   0  0  0  0  0  0  0  0  0  0  0  0
   45.6256   33.2676   46.3077 H   0  0  0  0  0  0  0  0  0  0  0  0
   41.9796   31.4087   36.6121 H   0  0  0  0  0  0  0  0  0  0  0  0
   41.8638   30.7768   38.3004 H   0  0  0  0  0  0  0  0  0  0  0  0
   41.5375   33.7168   37.8744 H   0  0  0  0  0  0  0  0  0  0  0  0
   40.1969   32.5991   37.3570 H   0  0  0  0  0  0  0  0  0  0  0  0
   39.9987   34.7854   39.4177 H   0  0  0  0  0  0  0  0  0  0  0  0
   39.2194   34.2548   41.9567 H   0  0  0  0  0  0  0  0  0  0  0  0
   39.7778   31.6583   42.3657 H   0  0  0  0  0  0  0  0  0  0  0  0
  1  5  1  0
  1 10  1  0
  2  1  2  0
  3  2  1  0
  3  4  2  0
  4  5  1  0
  6 14  1  0
  7  6  2  0
  8  7  1  0
  9 10  1  0
  9  8  2  0
 10 11  2  0
 11  6  1  0
 12 17  2  0
 13 12  1  0
 14 13  2  0
 14 15  1  0
 15 16  2  0
 16 17  1  0
 18  4  1  0
 18 19  1  0
 19 20  1  0
 20 21  2  0
 20 24  1  0
 21 22  1  0
 22 23  2  0
 24 23  1  0
  2 25  1  0
  3 26  1  0
  7 27  1  0
  8 28  1  0
 12 29  1  0
 13 30  1  0
 16 31  1  0
 18 32  1  0
 18 33  1  0
 19 34  1  0
 19 35  1  0
 21 36  1  0
 22 37  1  0
 23 38  1  0
M  ISO  8  25  14  26  14  27  14  28  14  29  14  30  14  31  14  32   8
M  ISO  6  33   8  34   8  35   8  36  14  37  14  38  14
M  END
>  <minimizedAffinity>  (1) 
-5.33210516

>  <minimizedRMSD>  (1) 
1.17739177

$$$$
