
     RDKit          3D

 38 41  0  0  0  0  0  0  0  0999 V2000
   46.0090   33.2090   38.8580 C   0  0  0  0  0  0  0  0  0  0  0  0
   46.5560   32.9110   37.6090 C   0  0  0  0  0  0  0  0  0  0  0  0
   45.5960   32.2150   36.8520 C   0  0  0  0  0  0  0  0  0  0  0  0
   44.5250   32.1500   37.7300 C   0  0  0  0  0  0  0  0  0  0  0  0
   44.7910   32.7250   38.8630 O   0  0  0  0  0  0  0  0  0  0  0  0
   46.6790   34.7110   42.0730 C   0  0  0  0  0  0  0  0  0  0  0  0
   47.9410   35.1960   41.8510 C   0  0  0  0  0  0  0  0  0  0  0  0
   48.6300   35.0640   40.6640 C   0  0  0  0  0  0  0  0  0  0  0  0
   48.0240   34.4150   39.6540 N   0  0  0  0  0  0  0  0  0  0  0  0
   46.7950   33.9330   39.8490 C   0  0  0  0  0  0  0  0  0  0  0  0
   46.1050   34.0580   41.0160 N   0  0  0  0  0  0  0  0  0  0  0  0
   44.4590   35.9770   44.8530 C   0  0  0  0  0  0  0  0  0  0  0  0
   45.0920   35.9230   43.6050 C   0  0  0  0  0  0  0  0  0  0  0  0
   45.9720   34.8630   43.3310 C   0  0  0  0  0  0  0  0  0  0  0  0
   46.1630   33.9550   44.2790 N   0  0  0  0  0  0  0  0  0  0  0  0
   45.5460   34.0140   45.4860 C   0  0  0  0  0  0  0  0  0  0  0  0
   44.7030   35.0120   45.7740 N   0  0  0  0  0  0  0  0  0  0  0  0
   43.2520   31.4660   37.3060 C   0  0  0  0  0  0  0  0  0  0  0  0
   42.0760   32.0330   38.0990 C   0  0  0  0  0  0  0  0  0  0  0  0
   40.8240   31.4530   37.6590 N   0  0  0  0  0  0  0  0  0  0  0  0
   40.6720   30.3130   36.9250 C   0  0  0  0  0  0  0  0  0  0  0  0
   39.2950   30.1690   36.7550 C   0  0  0  0  0  0  0  0  0  0  0  0
   38.6820   31.2110   37.3840 N   0  0  0  0  0  0  0  0  0  0  0  0
   39.6480   31.9960   37.9390 C   0  0  0  0  0  0  0  0  0  0  0  0
   47.5691   33.1762   37.2725 H   0  0  0  0  0  0  0  0  0  0  0  0
   45.6748   31.8232   35.8272 H   0  0  0  0  0  0  0  0  0  0  0  0
   48.4385   35.7269   42.6760 H   0  0  0  0  0  0  0  0  0  0  0  0
   49.6430   35.4764   40.5469 H   0  0  0  0  0  0  0  0  0  0  0  0
   43.7663   36.7993   45.0854 H   0  0  0  0  0  0  0  0  0  0  0  0
   44.9027   36.7000   42.8497 H   0  0  0  0  0  0  0  0  0  0  0  0
   45.7410   33.2330   46.2356 H   0  0  0  0  0  0  0  0  0  0  0  0
   43.0853   31.6363   36.2321 H   0  0  0  0  0  0  0  0  0  0  0  0
   43.3359   30.3864   37.4994 H   0  0  0  0  0  0  0  0  0  0  0  0
   42.2206   31.8089   39.1662 H   0  0  0  0  0  0  0  0  0  0  0  0
   42.0349   33.1199   37.9350 H   0  0  0  0  0  0  0  0  0  0  0  0
   41.4648   29.6500   36.5483 H   0  0  0  0  0  0  0  0  0  0  0  0
   38.7923   29.3570   36.2091 H   0  0  0  0  0  0  0  0  0  0  0  0
   39.4811   32.9170   38.5169 H   0  0  0  0  0  0  0  0  0  0  0  0
  1  5  1  0
  1 10  1  0
  2  1  2  0
  3  2  1  0
  3  4  2  0
  4  5  1  0
  6 14  1  0
  7  6  2  0
  8  7  1  0
  9 10  1  0
  9  8  2  0
 10 11  2  0
 11  6  1  0
 12 17  2  0
 13 12  1  0
 14 13  2  0
 14 15  1  0
 15 16  2  0
 16 17  1  0
 18  4  1  0
 18 19  1  0
 20 24  1  0
 20 19  1  0
 21 20  1  0
 22 21  2  0
 22 23  1  0
 23 24  2  0
  2 25  1  0
  3 26  1  0
  7 27  1  0
  8 28  1  0
 12 29  1  0
 13 30  1  0
 16 31  1  0
 18 32  1  0
 18 33  1  0
 19 34  1  0
 19 35  1  0
 21 36  1  0
 22 37  1  0
 24 38  1  0
M  ISO  8  25  14  26  14  27  14  28  14  29  14  30  14  31  14  32   8
M  ISO  6  33   8  34   8  35   8  36  14  37  14  38  14
M  END
>  <minimizedAffinity>  (1) 
-5.17700958

>  <minimizedRMSD>  (1) 
0.368206471

$$$$
