
     RDKit          3D

 33 35  0  0  0  0  0  0  0  0999 V2000
   46.6860   34.7350   42.0880 C   0  0  0  0  0  0  0  0  0  0  0  0
   47.9560   35.2010   41.8840 C   0  0  0  0  0  0  0  0  0  0  0  0
   48.6560   35.0720   40.7030 C   0  0  0  0  0  0  0  0  0  0  0  0
   48.0450   34.4410   39.6750 N   0  0  0  0  0  0  0  0  0  0  0  0
   46.8050   33.9790   39.8520 C   0  0  0  0  0  0  0  0  0  0  0  0
   46.1170   34.1050   41.0100 N   0  0  0  0  0  0  0  0  0  0  0  0
   44.4480   35.9660   44.8750 C   0  0  0  0  0  0  0  0  0  0  0  0
   45.0870   35.9300   43.6180 C   0  0  0  0  0  0  0  0  0  0  0  0
   45.9680   34.8830   43.3420 C   0  0  0  0  0  0  0  0  0  0  0  0
   46.1630   33.9660   44.2810 N   0  0  0  0  0  0  0  0  0  0  0  0
   45.5470   34.0030   45.4900 C   0  0  0  0  0  0  0  0  0  0  0  0
   44.6910   35.0020   45.7850 N   0  0  0  0  0  0  0  0  0  0  0  0
   46.0250   33.2850   38.8460 C   0  0  0  0  0  0  0  0  0  0  0  0
   46.5010   33.1830   37.5310 C   0  0  0  0  0  0  0  0  0  0  0  0
   45.5600   32.4700   36.7750 C   0  0  0  0  0  0  0  0  0  0  0  0
   44.5580   32.1850   37.7070 C   0  0  0  0  0  0  0  0  0  0  0  0
   44.8660   32.6700   38.8820 O   0  0  0  0  0  0  0  0  0  0  0  0
   43.3390   31.4250   37.3310 C   0  0  0  0  0  0  0  0  0  0  0  0
   42.1070   32.0160   38.0070 C   0  0  0  0  0  0  0  0  0  0  0  0
   42.1150   33.4460   37.9840 N   0  0  0  0  0  0  0  0  0  0  0  0
   48.4533   35.7143   42.7202 H   0  0  0  0  0  0  0  0  0  0  0  0
   49.6768   35.4689   40.6007 H   0  0  0  0  0  0  0  0  0  0  0  0
   43.7501   36.7823   45.1130 H   0  0  0  0  0  0  0  0  0  0  0  0
   44.8946   36.7124   42.8692 H   0  0  0  0  0  0  0  0  0  0  0  0
   45.7468   33.2154   46.2314 H   0  0  0  0  0  0  0  0  0  0  0  0
   47.4507   33.5926   37.1565 H   0  0  0  0  0  0  0  0  0  0  0  0
   45.6003   32.2007   35.7092 H   0  0  0  0  0  0  0  0  0  0  0  0
   43.2082   31.4687   36.2397 H   0  0  0  0  0  0  0  0  0  0  0  0
   43.4568   30.3817   37.6592 H   0  0  0  0  0  0  0  0  0  0  0  0
   41.2086   31.6578   37.4829 H   0  0  0  0  0  0  0  0  0  0  0  0
   42.1103   31.6940   39.0588 H   0  0  0  0  0  0  0  0  0  0  0  0
   42.1170   33.8049   38.9494 H   0  0  0  0  0  0  0  0  0  0  0  0
   42.9579   33.7768   37.4930 H   0  0  0  0  0  0  0  0  0  0  0  0
  1  9  1  0
  2  1  2  0
  3  2  1  0
  4  5  1  0
  4  3  2  0
  5  6  2  0
  6  1  1  0
  7 12  2  0
  8  7  1  0
  9  8  2  0
  9 10  1  0
 10 11  2  0
 11 12  1  0
 13 17  1  0
 13  5  1  0
 14 13  2  0
 15 14  1  0
 15 16  2  0
 16 17  1  0
 18 16  1  0
 18 19  1  0
 20 19  1  0
  2 21  1  0
  3 22  1  0
  7 23  1  0
  8 24  1  0
 11 25  1  0
 14 26  1  0
 15 27  1  0
 18 28  1  0
 18 29  1  0
 19 30  1  0
 19 31  1  0
 20 32  1  0
 20 33  1  0
M  ISO  8  21  14  22  14  23  14  24  14  25  14  26  14  27  14  28   8
M  ISO  5  29   8  30   8  31   8  32   5  33   5
M  END
>  <minimizedAffinity>  (1) 
-5.08071184

>  <minimizedRMSD>  (1) 
0.0874797106

$$$$
