
     RDKit          3D

 39 42  0  0  1  0  0  0  0  0999 V2000
   44.7030   33.5910   42.8190 C   0  0  0  0  0  0  0  0  0  0  0  0
   44.5450   32.2310   42.9730 C   0  0  0  0  0  0  0  0  0  0  0  0
   43.5080   31.5860   42.3700 C   0  0  0  0  0  0  0  0  0  0  0  0
   42.6080   32.2230   41.6150 N   0  0  0  0  0  0  0  0  0  0  0  0
   42.7660   33.5310   41.4700 C   0  0  0  0  0  0  0  0  0  0  0  0
   43.7710   34.1930   42.0460 N   0  0  0  0  0  0  0  0  0  0  0  0
   47.1760   34.4620   42.9190 C   0  0  1  0  0  0  0  0  0  0  0  0
   46.2750   35.6490   42.8510 C   0  0  0  0  0  0  0  0  0  0  0  0
   45.7600   34.4440   43.4390 C   0  0  1  0  0  0  0  0  0  0  0  0
   47.9430   33.8630   39.3280 C   0  0  0  0  0  0  0  0  0  0  0  0
   47.5680   34.5340   40.5400 C   0  0  0  0  0  0  0  0  0  0  0  0
   47.5630   33.7670   41.6960 C   0  0  0  0  0  0  0  0  0  0  0  0
   47.8990   32.4550   41.6510 N   0  0  0  0  0  0  0  0  0  0  0  0
   48.2460   31.8470   40.5100 C   0  0  0  0  0  0  0  0  0  0  0  0
   48.2730   32.5380   39.3380 N   0  0  0  0  0  0  0  0  0  0  0  0
   41.7750   34.2770   40.6480 C   0  0  1  0  0  0  0  0  0  0  0  0
   41.3250   35.4730   41.4080 C   0  0  0  0  0  0  0  0  0  0  0  0
   42.3330   34.6730   39.2990 C   0  0  0  0  0  0  0  0  0  0  0  0
   42.5510   33.4260   38.5170 C   0  0  0  0  0  0  0  0  0  0  0  0
   43.7580   33.0310   38.0840 N   0  0  0  0  0  0  0  0  0  0  0  0
   43.6120   31.9210   37.4420 O   0  0  0  0  0  0  0  0  0  0  0  0
   42.3380   31.5750   37.4410 C   0  0  0  0  0  0  0  0  0  0  0  0
   41.6690   32.5060   38.1080 N   0  0  0  0  0  0  0  0  0  0  0  0
   45.2602   31.6631   43.5862 H   0  0  0  0  0  0  0  0  0  0  0  0
   43.4075   30.4996   42.5098 H   0  0  0  0  0  0  0  0  0  0  0  0
   48.1654   34.2239   43.3366 H   0  0  0  0  0  0  0  0  0  0  0  0
   46.4766   36.5227   43.4882 H   0  0  0  0  0  0  0  0  0  0  0  0
   45.9382   36.3094   42.0383 H   0  0  0  0  0  0  0  0  0  0  0  0
   45.2759   34.2143   44.3997 H   0  0  0  0  0  0  0  0  0  0  0  0
   47.9648   34.4221   38.3809 H   0  0  0  0  0  0  0  0  0  0  0  0
   47.2987   35.6005   40.5517 H   0  0  0  0  0  0  0  0  0  0  0  0
   48.5116   30.7796   40.5199 H   0  0  0  0  0  0  0  0  0  0  0  0
   40.9187   33.6164   40.4472 H   0  0  0  0  0  0  0  0  0  0  0  0
   41.4007   35.2718   42.4868 H   0  0  0  0  0  0  0  0  0  0  0  0
   41.9613   36.3323   41.1498 H   0  0  0  0  0  0  0  0  0  0  0  0
   40.2801   35.6998   41.1498 H   0  0  0  0  0  0  0  0  0  0  0  0
   41.6185   35.3243   38.7744 H   0  0  0  0  0  0  0  0  0  0  0  0
   43.2779   35.2232   39.4189 H   0  0  0  0  0  0  0  0  0  0  0  0
   41.9090   30.6772   36.9720 H   0  0  0  0  0  0  0  0  0  0  0  0
  1  2  2  0
  1  9  1  0
  3  2  1  0
  4  3  2  0
  5  4  1  0
  5  6  2  0
  6  1  1  0
  7  9  1  0
  8  7  1  0
  8  9  1  0
 10 15  2  0
 10 11  1  0
 11 12  2  0
 12  7  1  0
 13 12  1  0
 14 13  2  0
 15 14  1  0
 16 17  1  0
 16  5  1  0
 18 16  1  0
 19 18  1  0
 20 19  2  0
 21 20  1  0
 22 21  1  0
 22 23  2  0
 23 19  1  0
  2 24  1  0
  3 25  1  0
  7 26  1  1
  8 27  1  0
  8 28  1  0
  9 29  1  1
 10 30  1  0
 11 31  1  0
 14 32  1  0
 16 33  1  6
 17 34  1  0
 17 35  1  0
 17 36  1  0
 18 37  1  0
 18 38  1  0
 22 39  1  0
M  ISO  8  24  14  25  14  26  13  27  13  28  13  29  13  30  14  31  14
M  ISO  8  32  14  33   8  34   8  35   8  36   8  37   8  38   8  39  14
M  END
>  <minimizedAffinity>  (1) 
-4.47551918

>  <minimizedRMSD>  (1) 
0.510136306

$$$$
