
     RDKit          3D

 35 37  0  0  1  0  0  0  0  0999 V2000
   44.0080   33.8110   42.3320 C   0  0  0  0  0  0  0  0  0  0  0  0
   43.9430   32.4390   42.2140 C   0  0  0  0  0  0  0  0  0  0  0  0
   43.0960   31.8680   41.3130 C   0  0  0  0  0  0  0  0  0  0  0  0
   42.3000   32.5860   40.5140 N   0  0  0  0  0  0  0  0  0  0  0  0
   42.3680   33.9060   40.6340 C   0  0  0  0  0  0  0  0  0  0  0  0
   43.1880   34.4970   41.5050 N   0  0  0  0  0  0  0  0  0  0  0  0
   46.3580   34.6160   43.1760 C   0  0  1  0  0  0  0  0  0  0  0  0
   45.5130   35.8230   42.9650 C   0  0  0  0  0  0  0  0  0  0  0  0
   44.8540   34.5890   43.2870 C   0  0  1  0  0  0  0  0  0  0  0  0
   48.0620   34.2780   39.8880 C   0  0  0  0  0  0  0  0  0  0  0  0
   47.3700   34.8610   41.0020 C   0  0  0  0  0  0  0  0  0  0  0  0
   47.0640   34.0040   42.0610 C   0  0  0  0  0  0  0  0  0  0  0  0
   47.4190   32.6980   42.0010 N   0  0  0  0  0  0  0  0  0  0  0  0
   48.0630   32.1760   40.9540 C   0  0  0  0  0  0  0  0  0  0  0  0
   48.3940   32.9550   39.8860 N   0  0  0  0  0  0  0  0  0  0  0  0
   41.4890   34.7420   39.7770 C   0  0  1  0  0  0  0  0  0  0  0  0
   40.9040   35.8300   40.5970 C   0  0  0  0  0  0  0  0  0  0  0  0
   42.2210   35.3000   38.5780 C   0  0  0  0  0  0  0  0  0  0  0  0
   43.2570   34.4520   38.1880 O   0  0  0  0  0  0  0  0  0  0  0  0
   44.5772   31.8034   42.8495 H   0  0  0  0  0  0  0  0  0  0  0  0
   43.0656   30.7709   41.2397 H   0  0  0  0  0  0  0  0  0  0  0  0
   47.1975   34.3264   43.8251 H   0  0  0  0  0  0  0  0  0  0  0  0
   45.5338   36.6377   43.7038 H   0  0  0  0  0  0  0  0  0  0  0  0
   45.4127   36.5540   42.1492 H   0  0  0  0  0  0  0  0  0  0  0  0
   44.1237   34.2962   44.0558 H   0  0  0  0  0  0  0  0  0  0  0  0
   48.3280   34.9060   39.0249 H   0  0  0  0  0  0  0  0  0  0  0  0
   47.0954   35.9260   41.0205 H   0  0  0  0  0  0  0  0  0  0  0  0
   48.3284   31.1085   40.9537 H   0  0  0  0  0  0  0  0  0  0  0  0
   40.6851   34.1049   39.3797 H   0  0  0  0  0  0  0  0  0  0  0  0
   41.0310   35.5939   41.6638 H   0  0  0  0  0  0  0  0  0  0  0  0
   41.4146   36.7770   40.3678 H   0  0  0  0  0  0  0  0  0  0  0  0
   39.8325   35.9263   40.3678 H   0  0  0  0  0  0  0  0  0  0  0  0
   41.5130   35.4109   37.7435 H   0  0  0  0  0  0  0  0  0  0  0  0
   42.6495   36.2757   38.8509 H   0  0  0  0  0  0  0  0  0  0  0  0
   43.7042   34.0860   38.9918 H   0  0  0  0  0  0  0  0  0  0  0  0
  1  9  1  0
  2  1  2  0
  3  2  1  0
  4  5  1  0
  4  3  2  0
  5  6  2  0
  6  1  1  0
  7  9  1  0
  8  7  1  0
  8  9  1  0
 10 11  2  0
 11 12  1  0
 12  7  1  0
 13 12  2  0
 14 13  1  0
 15 10  1  0
 15 14  2  0
 16 17  1  0
 16  5  1  0
 18 16  1  0
 19 18  1  0
  2 20  1  0
  3 21  1  0
  7 22  1  1
  8 23  1  0
  8 24  1  0
  9 25  1  1
 10 26  1  0
 11 27  1  0
 14 28  1  0
 16 29  1  6
 17 30  1  0
 17 31  1  0
 17 32  1  0
 18 33  1  0
 18 34  1  0
 19 35  1  0
M  ISO  8  20  14  21  14  22  13  23  13  24  13  25  13  26  14  27  14
M  ISO  8  28  14  29   8  30   8  31   8  32   8  33   8  34   8  35   3
M  END
>  <minimizedAffinity>  (1) 
-4.46768236

>  <minimizedRMSD>  (1) 
0.631670237

$$$$
