
     RDKit          3D

 50 53  0  0  1  0  0  0  0  0999 V2000
   45.9130   33.0000   39.0140 C   0  0  0  0  0  0  0  0  0  0  0  0
   46.1860   33.0380   37.6440 C   0  0  0  0  0  0  0  0  0  0  0  0
   45.3060   32.1950   36.9810 C   0  0  0  0  0  0  0  0  0  0  0  0
   44.5350   31.6830   38.0050 C   0  0  0  0  0  0  0  0  0  0  0  0
   44.9160   32.1720   39.1620 O   0  0  0  0  0  0  0  0  0  0  0  0
   46.6070   34.6880   42.1260 C   0  0  0  0  0  0  0  0  0  0  0  0
   47.8390   35.2020   41.8660 C   0  0  0  0  0  0  0  0  0  0  0  0
   48.5120   35.0300   40.6710 C   0  0  0  0  0  0  0  0  0  0  0  0
   47.9060   34.3070   39.7030 N   0  0  0  0  0  0  0  0  0  0  0  0
   46.6950   33.7970   39.9490 C   0  0  0  0  0  0  0  0  0  0  0  0
   46.0370   33.9630   41.1110 N   0  0  0  0  0  0  0  0  0  0  0  0
   44.4460   36.0390   44.9330 C   0  0  0  0  0  0  0  0  0  0  0  0
   45.0670   35.9540   43.6750 C   0  0  0  0  0  0  0  0  0  0  0  0
   45.9080   34.8800   43.3970 C   0  0  0  0  0  0  0  0  0  0  0  0
   46.0840   33.9700   44.3630 N   0  0  0  0  0  0  0  0  0  0  0  0
   45.4780   34.0640   45.5740 C   0  0  0  0  0  0  0  0  0  0  0  0
   44.6620   35.0950   45.8600 N   0  0  0  0  0  0  0  0  0  0  0  0
   43.4360   30.7100   37.7310 C   0  0  0  0  0  0  0  0  0  0  0  0
   42.2270   31.4200   37.1330 C   0  0  0  0  0  0  0  0  0  0  0  0
   41.4020   32.0870   38.2320 C   0  0  1  0  0  0  0  0  0  0  0  0
   41.6930   33.5570   38.4640 C   0  0  0  0  0  0  0  0  0  0  0  0
   40.3930   33.0840   37.8690 C   0  0  2  0  0  0  0  0  0  0  0  0
   39.1610   33.3170   38.7090 C   0  0  0  0  0  0  0  0  0  0  0  0
   37.9300   33.3340   37.8300 C   0  0  0  0  0  0  0  0  0  0  0  0
   39.2010   34.6200   39.4750 C   0  0  0  0  0  0  0  0  0  0  0  0
   38.9880   32.2010   39.7180 C   0  0  0  0  0  0  0  0  0  0  0  0
   46.9733   33.6404   37.1672 H   0  0  0  0  0  0  0  0  0  0  0  0
   45.2391   31.9858   35.9031 H   0  0  0  0  0  0  0  0  0  0  0  0
   48.3299   35.7906   42.6550 H   0  0  0  0  0  0  0  0  0  0  0  0
   49.5088   35.4675   40.5128 H   0  0  0  0  0  0  0  0  0  0  0  0
   43.7793   36.8845   45.1581 H   0  0  0  0  0  0  0  0  0  0  0  0
   44.8899   36.7302   42.9159 H   0  0  0  0  0  0  0  0  0  0  0  0
   45.6564   33.2869   46.3318 H   0  0  0  0  0  0  0  0  0  0  0  0
   43.7952   29.9491   37.0225 H   0  0  0  0  0  0  0  0  0  0  0  0
   43.1368   30.2373   38.6781 H   0  0  0  0  0  0  0  0  0  0  0  0
   42.5716   32.1864   36.4231 H   0  0  0  0  0  0  0  0  0  0  0  0
   41.5990   30.6797   36.6157 H   0  0  0  0  0  0  0  0  0  0  0  0
   41.3697   31.1740   38.8446 H   0  0  0  0  0  0  0  0  0  0  0  0
   41.7211   33.9633   39.4858 H   0  0  0  0  0  0  0  0  0  0  0  0
   42.4858   34.2609   38.1708 H   0  0  0  0  0  0  0  0  0  0  0  0
   39.8242   33.2482   36.9419 H   0  0  0  0  0  0  0  0  0  0  0  0
   37.0290   33.3464   38.4610 H   0  0  0  0  0  0  0  0  0  0  0  0
   37.9453   34.2320   37.1949 H   0  0  0  0  0  0  0  0  0  0  0  0
   37.9205   32.4359   37.1949 H   0  0  0  0  0  0  0  0  0  0  0  0
   39.1946   34.4108   40.5549 H   0  0  0  0  0  0  0  0  0  0  0  0
   40.1165   35.1710   39.2137 H   0  0  0  0  0  0  0  0  0  0  0  0
   38.3210   35.2261   39.2137 H   0  0  0  0  0  0  0  0  0  0  0  0
   39.0520   32.6136   40.7357 H   0  0  0  0  0  0  0  0  0  0  0  0
   38.0056   31.7270   39.5756 H   0  0  0  0  0  0  0  0  0  0  0  0
   39.7807   31.4518   39.5756 H   0  0  0  0  0  0  0  0  0  0  0  0
  1  5  1  0
  1 10  1  0
  2  1  2  0
  3  2  1  0
  3  4  2  0
  4  5  1  0
  6 14  1  0
  7  6  2  0
  8  7  1  0
  9 10  1  0
  9  8  2  0
 10 11  2  0
 11  6  1  0
 12 17  2  0
 13 12  1  0
 14 13  2  0
 14 15  1  0
 15 16  2  0
 16 17  1  0
 18  4  1  0
 19 18  1  0
 19 20  1  0
 20 21  1  0
 22 20  1  0
 22 21  1  0
 22 23  1  0
 23 25  1  0
 23 26  1  0
 24 23  1  0
  2 27  1  0
  3 28  1  0
  7 29  1  0
  8 30  1  0
 12 31  1  0
 13 32  1  0
 16 33  1  0
 18 34  1  0
 18 35  1  0
 19 36  1  0
 19 37  1  0
 20 38  1  1
 21 39  1  0
 21 40  1  0
 22 41  1  6
 24 42  1  0
 24 43  1  0
 24 44  1  0
 25 45  1  0
 25 46  1  0
 25 47  1  0
 26 48  1  0
 26 49  1  0
 26 50  1  0
M  ISO  8  27  14  28  14  29  14  30  14  31  14  32  14  33  14  34   8
M  ISO  8  35   8  36   8  37   8  38  13  39  13  40  13  41  13  42   8
M  ISO  8  43   8  44   8  45   8  46   8  47   8  48   8  49   8  50   8
M  END
>  <minimizedAffinity>  (1) 
-6.03833103

>  <minimizedRMSD>  (1) 
2.0230484

$$$$
