
     RDKit          3D

 40 43  0  0  1  0  0  0  0  0999 V2000
   44.7070   33.4990   42.8290 C   0  0  0  0  0  0  0  0  0  0  0  0
   44.5640   32.1430   43.0190 C   0  0  0  0  0  0  0  0  0  0  0  0
   43.5410   31.4690   42.4210 C   0  0  0  0  0  0  0  0  0  0  0  0
   42.6460   32.0720   41.6370 N   0  0  0  0  0  0  0  0  0  0  0  0
   42.7850   33.3910   41.4510 C   0  0  0  0  0  0  0  0  0  0  0  0
   43.7770   34.0680   42.0260 N   0  0  0  0  0  0  0  0  0  0  0  0
   47.1550   34.4430   42.8970 C   0  0  1  0  0  0  0  0  0  0  0  0
   46.2210   35.6020   42.8330 C   0  0  0  0  0  0  0  0  0  0  0  0
   45.7460   34.3870   43.4350 C   0  0  1  0  0  0  0  0  0  0  0  0
   47.8970   33.8370   39.3040 C   0  0  0  0  0  0  0  0  0  0  0  0
   47.5160   34.5080   40.5130 C   0  0  0  0  0  0  0  0  0  0  0  0
   47.5520   33.7460   41.6820 C   0  0  0  0  0  0  0  0  0  0  0  0
   47.9290   32.4470   41.6380 N   0  0  0  0  0  0  0  0  0  0  0  0
   48.2810   31.8410   40.4990 C   0  0  0  0  0  0  0  0  0  0  0  0
   48.2710   32.5240   39.3210 N   0  0  0  0  0  0  0  0  0  0  0  0
   41.8010   34.0910   40.6000 C   0  0  1  0  0  0  0  0  0  0  0  0
   41.2880   35.2720   41.3430 C   0  0  0  0  0  0  0  0  0  0  0  0
   42.3870   34.5030   39.2700 C   0  0  0  0  0  0  0  0  0  0  0  0
   42.8430   33.3460   38.4740 C   0  0  0  0  0  0  0  0  0  0  0  0
   44.2490   33.1700   38.0960 C   0  0  0  0  0  0  0  0  0  0  0  0
   44.1790   31.5590   37.1180 S   0  0  0  0  0  0  0  0  0  0  0  0
   42.3100   31.4780   37.4270 C   0  0  0  0  0  0  0  0  0  0  0  0
   42.0490   32.3840   38.0350 N   0  0  0  0  0  0  0  0  0  0  0  0
   45.2783   31.6010   43.6561 H   0  0  0  0  0  0  0  0  0  0  0  0
   43.4501   30.3861   42.5916 H   0  0  0  0  0  0  0  0  0  0  0  0
   48.1570   34.2391   43.3024 H   0  0  0  0  0  0  0  0  0  0  0  0
   46.4057   36.4851   43.4623 H   0  0  0  0  0  0  0  0  0  0  0  0
   45.8561   36.2471   42.0202 H   0  0  0  0  0  0  0  0  0  0  0  0
   45.2795   34.1503   44.4027 H   0  0  0  0  0  0  0  0  0  0  0  0
   47.8878   34.3870   38.3514 H   0  0  0  0  0  0  0  0  0  0  0  0
   47.2121   35.5652   40.5187 H   0  0  0  0  0  0  0  0  0  0  0  0
   48.5809   30.7828   40.5138 H   0  0  0  0  0  0  0  0  0  0  0  0
   40.9757   33.4003   40.3725 H   0  0  0  0  0  0  0  0  0  0  0  0
   41.3680   35.0879   42.4245 H   0  0  0  0  0  0  0  0  0  0  0  0
   41.8820   36.1588   41.0771 H   0  0  0  0  0  0  0  0  0  0  0  0
   40.2344   35.4432   41.0771 H   0  0  0  0  0  0  0  0  0  0  0  0
   41.6192   35.0448   38.6982 H   0  0  0  0  0  0  0  0  0  0  0  0
   43.2624   35.1381   39.4711 H   0  0  0  0  0  0  0  0  0  0  0  0
   45.1153   33.8087   38.3229 H   0  0  0  0  0  0  0  0  0  0  0  0
   41.6182   30.6969   37.0788 H   0  0  0  0  0  0  0  0  0  0  0  0
  1  2  2  0
  1  9  1  0
  3  2  1  0
  4  3  2  0
  5  4  1  0
  5  6  2  0
  6  1  1  0
  7  9  1  0
  8  7  1  0
  8  9  1  0
 10 15  2  0
 10 11  1  0
 11 12  2  0
 12  7  1  0
 13 12  1  0
 14 13  2  0
 15 14  1  0
 16 17  1  0
 16  5  1  0
 18 16  1  0
 19 18  1  0
 20 19  2  0
 21 22  1  0
 21 20  1  0
 22 23  2  0
 23 19  1  0
  2 24  1  0
  3 25  1  0
  7 26  1  1
  8 27  1  0
  8 28  1  0
  9 29  1  1
 10 30  1  0
 11 31  1  0
 14 32  1  0
 16 33  1  6
 17 34  1  0
 17 35  1  0
 17 36  1  0
 18 37  1  0
 18 38  1  0
 20 39  1  0
 22 40  1  0
M  ISO  8  24  14  25  14  26  13  27  13  28  13  29  13  30  14  31  14
M  ISO  8  32  14  33   8  34   8  35   8  36   8  37   8  38   8  39  14
M  ISO  1  40  14
M  END
>  <minimizedAffinity>  (1) 
-4.43350267

>  <minimizedRMSD>  (1) 
0.567254424

$$$$
