
     RDKit          3D

 41 44  0  0  1  0  0  0  0  0999 V2000
   44.9320   32.9360   38.9620 C   0  0  0  0  0  0  0  0  0  0  0  0
   45.3160   32.2350   37.8290 C   0  0  0  0  0  0  0  0  0  0  0  0
   44.1850   31.7350   37.1750 C   0  0  0  0  0  0  0  0  0  0  0  0
   43.1570   32.1950   38.0010 C   0  0  0  0  0  0  0  0  0  0  0  0
   43.6380   32.8770   39.0090 O   0  0  0  0  0  0  0  0  0  0  0  0
   46.2040   34.4120   41.9940 C   0  0  0  0  0  0  0  0  0  0  0  0
   47.4720   34.6960   41.6310 C   0  0  0  0  0  0  0  0  0  0  0  0
   47.9990   34.4270   40.3770 C   0  0  0  0  0  0  0  0  0  0  0  0
   47.1830   33.8460   39.4760 N   0  0  0  0  0  0  0  0  0  0  0  0
   45.9260   33.5610   39.8260 C   0  0  0  0  0  0  0  0  0  0  0  0
   45.4120   33.8240   41.0470 N   0  0  0  0  0  0  0  0  0  0  0  0
   44.4790   36.0430   44.9490 C   0  0  0  0  0  0  0  0  0  0  0  0
   44.9440   35.8650   43.6310 C   0  0  0  0  0  0  0  0  0  0  0  0
   45.6720   34.7070   43.3240 C   0  0  0  0  0  0  0  0  0  0  0  0
   45.8820   33.8360   44.3110 N   0  0  0  0  0  0  0  0  0  0  0  0
   45.4340   34.0150   45.5720 C   0  0  0  0  0  0  0  0  0  0  0  0
   44.7350   35.1100   45.8940 N   0  0  0  0  0  0  0  0  0  0  0  0
   41.7460   31.8810   37.6650 C   0  0  0  0  0  0  0  0  0  0  0  0
   40.8130   32.9270   38.2620 C   0  0  0  0  0  0  0  0  0  0  0  0
   39.3620   32.5690   37.9550 C   0  0  1  0  0  0  0  0  0  0  0  0
   38.3440   33.1310   38.9450 C   0  0  0  0  0  0  0  0  0  0  0  0
   38.4230   33.6100   37.5300 C   0  0  2  0  0  0  0  0  0  0  0  0
   37.3530   33.2480   36.5260 C   0  0  0  0  0  0  0  0  0  0  0  0
   46.3543   32.0933   37.4946 H   0  0  0  0  0  0  0  0  0  0  0  0
   44.1220   31.1374   36.2536 H   0  0  0  0  0  0  0  0  0  0  0  0
   48.1282   35.1702   42.3757 H   0  0  0  0  0  0  0  0  0  0  0  0
   49.0407   34.6777   40.1280 H   0  0  0  0  0  0  0  0  0  0  0  0
   43.9054   36.9445   45.2105 H   0  0  0  0  0  0  0  0  0  0  0  0
   44.7397   36.6202   42.8577 H   0  0  0  0  0  0  0  0  0  0  0  0
   45.6449   33.2560   46.3397 H   0  0  0  0  0  0  0  0  0  0  0  0
   41.6273   31.8712   36.5715 H   0  0  0  0  0  0  0  0  0  0  0  0
   41.4906   30.8955   38.0815 H   0  0  0  0  0  0  0  0  0  0  0  0
   40.9564   32.9631   39.3520 H   0  0  0  0  0  0  0  0  0  0  0  0
   41.0432   33.9087   37.8224 H   0  0  0  0  0  0  0  0  0  0  0  0
   39.6286   31.5871   37.5368 H   0  0  0  0  0  0  0  0  0  0  0  0
   37.4941   32.5166   39.2769 H   0  0  0  0  0  0  0  0  0  0  0  0
   38.3850   33.5979   39.9401 H   0  0  0  0  0  0  0  0  0  0  0  0
   38.5173   34.6094   37.0803 H   0  0  0  0  0  0  0  0  0  0  0  0
   36.4408   32.9394   37.0576 H   0  0  0  0  0  0  0  0  0  0  0  0
   37.1319   34.1213   35.8948 H   0  0  0  0  0  0  0  0  0  0  0  0
   37.7075   32.4198   35.8948 H   0  0  0  0  0  0  0  0  0  0  0  0
  1  5  1  0
  1 10  1  0
  2  1  2  0
  3  2  1  0
  3  4  2  0
  4  5  1  0
  6 14  1  0
  7  6  2  0
  8  7  1  0
  9 10  1  0
  9  8  2  0
 10 11  2  0
 11  6  1  0
 12 17  2  0
 13 12  1  0
 14 13  2  0
 14 15  1  0
 15 16  2  0
 16 17  1  0
 18  4  1  0
 18 19  1  0
 20 19  1  0
 20 21  1  0
 22 20  1  0
 22 21  1  0
 23 22  1  0
  2 24  1  0
  3 25  1  0
  7 26  1  0
  8 27  1  0
 12 28  1  0
 13 29  1  0
 16 30  1  0
 18 31  1  0
 18 32  1  0
 19 33  1  0
 19 34  1  0
 20 35  1  6
 21 36  1  0
 21 37  1  0
 22 38  1  1
 23 39  1  0
 23 40  1  0
 23 41  1  0
M  ISO  8  24  14  25  14  26  14  27  14  28  14  29  14  30  14  31   8
M  ISO  8  32   8  33   8  34   8  35  13  36  13  37  13  38  13  39   8
M  ISO  2  40   8  41   8
M  END
>  <minimizedAffinity>  (1) 
-5.45882893

>  <minimizedRMSD>  (1) 
0.144240662

$$$$
