
     RDKit          3D

 52 56  0  0  1  0  0  0  0  0999 V2000
   45.2870   32.7330   38.7260 C   0  0  0  0  0  0  0  0  0  0  0  0
   45.4670   32.6930   37.3470 C   0  0  0  0  0  0  0  0  0  0  0  0
   44.4700   31.9160   36.7750 C   0  0  0  0  0  0  0  0  0  0  0  0
   43.7260   31.5220   37.8740 C   0  0  0  0  0  0  0  0  0  0  0  0
   44.2310   32.0140   38.9750 O   0  0  0  0  0  0  0  0  0  0  0  0
   46.3510   34.4520   41.7190 C   0  0  0  0  0  0  0  0  0  0  0  0
   47.6020   34.8370   41.3550 C   0  0  0  0  0  0  0  0  0  0  0  0
   48.1760   34.5640   40.1200 C   0  0  0  0  0  0  0  0  0  0  0  0
   47.4290   33.8680   39.2310 N   0  0  0  0  0  0  0  0  0  0  0  0
   46.1990   33.4840   39.5770 C   0  0  0  0  0  0  0  0  0  0  0  0
   45.6430   33.7500   40.7770 N   0  0  0  0  0  0  0  0  0  0  0  0
   44.5380   36.1080   44.5900 C   0  0  0  0  0  0  0  0  0  0  0  0
   45.0480   35.9240   43.3000 C   0  0  0  0  0  0  0  0  0  0  0  0
   45.7750   34.7500   43.0170 C   0  0  0  0  0  0  0  0  0  0  0  0
   45.9330   33.8780   44.0070 N   0  0  0  0  0  0  0  0  0  0  0  0
   45.4270   34.0800   45.2470 C   0  0  0  0  0  0  0  0  0  0  0  0
   44.7360   35.1730   45.5550 N   0  0  0  0  0  0  0  0  0  0  0  0
   42.5340   30.6550   37.7020 C   0  0  0  0  0  0  0  0  0  0  0  0
   41.2540   31.4380   37.9360 C   0  0  0  0  0  0  0  0  0  0  0  0
   40.0280   30.5380   37.6680 C   0  0  1  0  0  0  0  0  0  0  0  0
   38.6960   31.1980   37.9800 C   0  0  0  0  0  0  0  0  0  0  0  0
   39.1220   30.8960   36.5740 C   0  0  2  0  0  0  0  0  0  0  0  0
   38.4990   29.8500   35.8260 N   0  0  0  0  0  0  0  0  0  0  0  0
   39.4190   28.7940   35.4650 C   0  0  0  0  0  0  0  0  0  0  0  0
   38.7960   28.0200   34.3160 C   0  0  0  0  0  0  0  0  0  0  0  0
   38.9330   28.8590   33.1480 N   0  0  0  0  0  0  0  0  0  0  0  0
   38.3580   30.1490   33.3720 C   0  0  0  0  0  0  0  0  0  0  0  0
   37.6870   30.2750   34.7170 C   0  0  0  0  0  0  0  0  0  0  0  0
   46.2739   33.1985   36.7962 H   0  0  0  0  0  0  0  0  0  0  0  0
   44.3106   31.6737   35.7139 H   0  0  0  0  0  0  0  0  0  0  0  0
   48.1993   35.4017   42.0860 H   0  0  0  0  0  0  0  0  0  0  0  0
   49.1946   34.8992   39.8746 H   0  0  0  0  0  0  0  0  0  0  0  0
   43.9702   37.0203   44.8252 H   0  0  0  0  0  0  0  0  0  0  0  0
   44.8844   36.6824   42.5202 H   0  0  0  0  0  0  0  0  0  0  0  0
   45.5927   33.3172   46.0220 H   0  0  0  0  0  0  0  0  0  0  0  0
   42.5271   30.2516   36.6787 H   0  0  0  0  0  0  0  0  0  0  0  0
   42.5851   29.8385   38.4374 H   0  0  0  0  0  0  0  0  0  0  0  0
   41.2272   31.7893   38.9780 H   0  0  0  0  0  0  0  0  0  0  0  0
   41.2268   32.2986   37.2514 H   0  0  0  0  0  0  0  0  0  0  0  0
   40.5460   29.6064   37.9396 H   0  0  0  0  0  0  0  0  0  0  0  0
   37.8870   30.6206   38.4513 H   0  0  0  0  0  0  0  0  0  0  0  0
   38.3682   32.0922   38.5303 H   0  0  0  0  0  0  0  0  0  0  0  0
   39.2018   31.5052   35.6616 H   0  0  0  0  0  0  0  0  0  0  0  0
   40.3808   29.2250   35.1499 H   0  0  0  0  0  0  0  0  0  0  0  0
   39.6050   28.1315   36.3232 H   0  0  0  0  0  0  0  0  0  0  0  0
   39.3250   27.0673   34.1660 H   0  0  0  0  0  0  0  0  0  0  0  0
   37.7415   27.7802   34.5175 H   0  0  0  0  0  0  0  0  0  0  0  0
   38.4548   28.4107   32.3535 H   0  0  0  0  0  0  0  0  0  0  0  0
   39.1559   30.9034   33.3073 H   0  0  0  0  0  0  0  0  0  0  0  0
   37.5839   30.2995   32.6051 H   0  0  0  0  0  0  0  0  0  0  0  0
   37.4192   31.3308   34.8708 H   0  0  0  0  0  0  0  0  0  0  0  0
   36.8108   29.6104   34.6953 H   0  0  0  0  0  0  0  0  0  0  0  0
  1  5  1  0
  1 10  1  0
  2  1  2  0
  3  2  1  0
  3  4  2  0
  4  5  1  0
  6 14  1  0
  7  6  2  0
  8  7  1  0
  9 10  1  0
  9  8  2  0
 10 11  2  0
 11  6  1  0
 12 17  2  0
 13 12  1  0
 14 13  2  0
 14 15  1  0
 15 16  2  0
 16 17  1  0
 18  4  1  0
 18 19  1  0
 20 19  1  0
 20 21  1  0
 22 20  1  0
 22 21  1  0
 23 22  1  0
 24 23  1  0
 25 24  1  0
 26 27  1  0
 26 25  1  0
 27 28  1  0
 28 23  1  0
  2 29  1  0
  3 30  1  0
  7 31  1  0
  8 32  1  0
 12 33  1  0
 13 34  1  0
 16 35  1  0
 18 36  1  0
 18 37  1  0
 19 38  1  0
 19 39  1  0
 20 40  1  1
 21 41  1  0
 21 42  1  0
 22 43  1  6
 24 44  1  0
 24 45  1  0
 25 46  1  0
 25 47  1  0
 26 48  1  0
 27 49  1  0
 27 50  1  0
 28 51  1  0
 28 52  1  0
M  ISO  8  29  14  30  14  31  14  32  14  33  14  34  14  35  14  36   8
M  ISO  8  37   8  38   8  39   8  40  13  41  13  42  13  43  13  44  13
M  ISO  8  45  13  46  13  47  13  48   5  49  13  50  13  51  13  52  13
M  END
>  <minimizedAffinity>  (1) 
-5.33620787

>  <minimizedRMSD>  (1) 
2.63123417

$$$$
