
     RDKit          3D

 39 42  0  0  1  0  0  0  0  0999 V2000
   45.1420   32.9290   38.8100 C   0  0  0  0  0  0  0  0  0  0  0  0
   45.5560   32.3620   37.6100 C   0  0  0  0  0  0  0  0  0  0  0  0
   44.4550   31.7880   36.9630 C   0  0  0  0  0  0  0  0  0  0  0  0
   43.4200   32.0580   37.8470 C   0  0  0  0  0  0  0  0  0  0  0  0
   43.8610   32.7150   38.8940 O   0  0  0  0  0  0  0  0  0  0  0  0
   46.3050   34.5020   41.8380 C   0  0  0  0  0  0  0  0  0  0  0  0
   47.5810   34.8070   41.5030 C   0  0  0  0  0  0  0  0  0  0  0  0
   48.1420   34.5160   40.2630 C   0  0  0  0  0  0  0  0  0  0  0  0
   47.3650   33.8960   39.3490 N   0  0  0  0  0  0  0  0  0  0  0  0
   46.1110   33.5970   39.6770 C   0  0  0  0  0  0  0  0  0  0  0  0
   45.5460   33.8740   40.8850 N   0  0  0  0  0  0  0  0  0  0  0  0
   44.5160   36.1730   44.7380 C   0  0  0  0  0  0  0  0  0  0  0  0
   45.0240   35.9870   43.4320 C   0  0  0  0  0  0  0  0  0  0  0  0
   45.7290   34.8150   43.1490 C   0  0  0  0  0  0  0  0  0  0  0  0
   45.8860   33.9280   44.1330 N   0  0  0  0  0  0  0  0  0  0  0  0
   45.3900   34.1240   45.3760 C   0  0  0  0  0  0  0  0  0  0  0  0
   44.7140   35.2290   45.6820 N   0  0  0  0  0  0  0  0  0  0  0  0
   42.0310   31.6130   37.5470 C   0  0  0  0  0  0  0  0  0  0  0  0
   41.0250   32.5420   38.2030 C   0  0  0  0  0  0  0  0  0  0  0  0
   39.6050   32.0480   37.9040 C   0  0  1  0  0  0  0  0  0  0  0  0
   38.5920   32.3140   39.0270 C   0  0  0  0  0  0  0  0  0  0  0  0
   38.5170   33.0310   37.7170 C   0  0  1  0  0  0  0  0  0  0  0  0
   38.9070   34.3420   37.6000 O   0  0  0  0  0  0  0  0  0  0  0  0
   46.5877   32.3640   37.2284 H   0  0  0  0  0  0  0  0  0  0  0  0
   44.4195   31.2582   35.9997 H   0  0  0  0  0  0  0  0  0  0  0  0
   48.2085   35.3124   42.2519 H   0  0  0  0  0  0  0  0  0  0  0  0
   49.1846   34.7824   40.0349 H   0  0  0  0  0  0  0  0  0  0  0  0
   43.9585   37.0885   44.9852 H   0  0  0  0  0  0  0  0  0  0  0  0
   44.8673   36.7495   42.6548 H   0  0  0  0  0  0  0  0  0  0  0  0
   45.5481   33.3564   46.1479 H   0  0  0  0  0  0  0  0  0  0  0  0
   41.8751   31.6205   36.4581 H   0  0  0  0  0  0  0  0  0  0  0  0
   41.8886   30.5963   37.9419 H   0  0  0  0  0  0  0  0  0  0  0  0
   41.1889   32.5512   39.2907 H   0  0  0  0  0  0  0  0  0  0  0  0
   41.1512   33.5598   37.8053 H   0  0  0  0  0  0  0  0  0  0  0  0
   39.9526   31.1887   37.3117 H   0  0  0  0  0  0  0  0  0  0  0  0
   37.8403   31.5542   39.2871 H   0  0  0  0  0  0  0  0  0  0  0  0
   38.6490   32.6106   40.0847 H   0  0  0  0  0  0  0  0  0  0  0  0
   37.6893   33.1776   37.0075 H   0  0  0  0  0  0  0  0  0  0  0  0
   39.0234   34.7334   38.5019 H   0  0  0  0  0  0  0  0  0  0  0  0
  1  5  1  0
  1 10  1  0
  2  1  2  0
  3  2  1  0
  3  4  2  0
  4  5  1  0
  6 14  1  0
  7  6  2  0
  8  7  1  0
  9 10  1  0
  9  8  2  0
 10 11  2  0
 11  6  1  0
 12 17  2  0
 13 12  1  0
 14 13  2  0
 14 15  1  0
 15 16  2  0
 16 17  1  0
 18  4  1  0
 18 19  1  0
 20 19  1  0
 20 21  1  0
 22 20  1  0
 22 21  1  0
 23 22  1  0
  2 24  1  0
  3 25  1  0
  7 26  1  0
  8 27  1  0
 12 28  1  0
 13 29  1  0
 16 30  1  0
 18 31  1  0
 18 32  1  0
 19 33  1  0
 19 34  1  0
 20 35  1  6
 21 36  1  0
 21 37  1  0
 22 38  1  6
 23 39  1  0
M  ISO  8  24  14  25  14  26  14  27  14  28  14  29  14  30  14  31   8
M  ISO  8  32   8  33   8  34   8  35  13  36  13  37  13  38  13  39   3
M  END
>  <minimizedAffinity>  (1) 
-5.32856655

>  <minimizedRMSD>  (1) 
0.436252952

$$$$
