
     RDKit          3D

 50 54  0  0  1  0  0  0  0  0999 V2000
   45.9660   33.2560   38.8290 C   0  0  0  0  0  0  0  0  0  0  0  0
   46.4270   33.1150   37.5180 C   0  0  0  0  0  0  0  0  0  0  0  0
   45.4850   32.4210   36.7730 C   0  0  0  0  0  0  0  0  0  0  0  0
   44.4910   32.1790   37.6990 C   0  0  0  0  0  0  0  0  0  0  0  0
   44.8000   32.6740   38.8730 O   0  0  0  0  0  0  0  0  0  0  0  0
   46.6760   34.7080   42.0560 C   0  0  0  0  0  0  0  0  0  0  0  0
   47.9430   35.1690   41.8490 C   0  0  0  0  0  0  0  0  0  0  0  0
   48.6350   35.0380   40.6640 C   0  0  0  0  0  0  0  0  0  0  0  0
   48.0040   34.4060   39.6430 N   0  0  0  0  0  0  0  0  0  0  0  0
   46.7690   33.9520   39.8310 C   0  0  0  0  0  0  0  0  0  0  0  0
   46.0930   34.0810   40.9840 N   0  0  0  0  0  0  0  0  0  0  0  0
   44.4530   35.9730   44.8550 C   0  0  0  0  0  0  0  0  0  0  0  0
   45.0870   35.9180   43.6030 C   0  0  0  0  0  0  0  0  0  0  0  0
   45.9650   34.8620   43.3210 C   0  0  0  0  0  0  0  0  0  0  0  0
   46.1560   33.9490   44.2720 N   0  0  0  0  0  0  0  0  0  0  0  0
   45.5390   34.0110   45.4780 C   0  0  0  0  0  0  0  0  0  0  0  0
   44.6910   35.0170   45.7700 N   0  0  0  0  0  0  0  0  0  0  0  0
   43.2550   31.4390   37.3170 C   0  0  0  0  0  0  0  0  0  0  0  0
   42.0900   31.8220   38.2180 C   0  0  0  0  0  0  0  0  0  0  0  0
   40.9970   30.7450   38.1640 C   0  0  1  0  0  0  0  0  0  0  0  0
   39.6790   31.1540   38.8030 C   0  0  0  0  0  0  0  0  0  0  0  0
   39.8120   30.9850   37.3120 C   0  0  2  0  0  0  0  0  0  0  0  0
   39.1080   29.9420   36.6400 N   0  0  0  0  0  0  0  0  0  0  0  0
   38.2660   30.3890   35.5760 C   0  0  0  0  0  0  0  0  0  0  0  0
   38.6700   29.6330   34.3320 C   0  0  0  0  0  0  0  0  0  0  0  0
   39.3780   28.4070   34.8540 C   0  0  0  0  0  0  0  0  0  0  0  0
   39.9220   28.8610   36.1870 C   0  0  0  0  0  0  0  0  0  0  0  0
   47.3863   33.4946   37.1364 H   0  0  0  0  0  0  0  0  0  0  0  0
   45.5212   32.1355   35.7113 H   0  0  0  0  0  0  0  0  0  0  0  0
   48.4462   35.6794   42.6834 H   0  0  0  0  0  0  0  0  0  0  0  0
   49.6566   35.4298   40.5510 H   0  0  0  0  0  0  0  0  0  0  0  0
   43.7625   36.7973   45.0868 H   0  0  0  0  0  0  0  0  0  0  0  0
   44.8963   36.6969   42.8500 H   0  0  0  0  0  0  0  0  0  0  0  0
   45.7332   33.2299   46.2278 H   0  0  0  0  0  0  0  0  0  0  0  0
   42.9985   31.6807   36.2750 H   0  0  0  0  0  0  0  0  0  0  0  0
   43.4437   30.3609   37.4271 H   0  0  0  0  0  0  0  0  0  0  0  0
   42.4495   31.9224   39.2527 H   0  0  0  0  0  0  0  0  0  0  0  0
   41.6684   32.7768   37.8708 H   0  0  0  0  0  0  0  0  0  0  0  0
   41.7041   29.9072   38.2533 H   0  0  0  0  0  0  0  0  0  0  0  0
   39.1007   30.4282   39.3935 H   0  0  0  0  0  0  0  0  0  0  0  0
   39.3476   31.9577   39.4770 H   0  0  0  0  0  0  0  0  0  0  0  0
   39.6349   31.6156   36.4283 H   0  0  0  0  0  0  0  0  0  0  0  0
   37.2131   30.1810   35.8170 H   0  0  0  0  0  0  0  0  0  0  0  0
   38.3746   31.4730   35.4241 H   0  0  0  0  0  0  0  0  0  0  0  0
   39.3462   30.2384   33.7105 H   0  0  0  0  0  0  0  0  0  0  0  0
   37.8092   29.3818   33.6948 H   0  0  0  0  0  0  0  0  0  0  0  0
   38.6755   27.5699   34.9796 H   0  0  0  0  0  0  0  0  0  0  0  0
   40.1595   28.0387   34.1731 H   0  0  0  0  0  0  0  0  0  0  0  0
   39.8822   28.0329   36.9100 H   0  0  0  0  0  0  0  0  0  0  0  0
   40.9695   29.1816   36.0876 H   0  0  0  0  0  0  0  0  0  0  0  0
  1  5  1  0
  1 10  1  0
  2  1  2  0
  3  2  1  0
  3  4  2  0
  4  5  1  0
  6 14  1  0
  7  6  2  0
  8  7  1  0
  9 10  1  0
  9  8  2  0
 10 11  2  0
 11  6  1  0
 12 17  2  0
 13 12  1  0
 14 13  2  0
 14 15  1  0
 15 16  2  0
 16 17  1  0
 18  4  1  0
 18 19  1  0
 20 19  1  0
 20 21  1  0
 22 20  1  0
 22 21  1  0
 23 24  1  0
 23 22  1  0
 25 26  1  0
 25 24  1  0
 26 27  1  0
 27 23  1  0
  2 28  1  0
  3 29  1  0
  7 30  1  0
  8 31  1  0
 12 32  1  0
 13 33  1  0
 16 34  1  0
 18 35  1  0
 18 36  1  0
 19 37  1  0
 19 38  1  0
 20 39  1  1
 21 40  1  0
 21 41  1  0
 22 42  1  6
 24 43  1  0
 24 44  1  0
 25 45  1  0
 25 46  1  0
 26 47  1  0
 26 48  1  0
 27 49  1  0
 27 50  1  0
M  ISO  8  28  14  29  14  30  14  31  14  32  14  33  14  34  14  35   8
M  ISO  8  36   8  37   8  38   8  39  13  40  13  41  13  42  13  43  13
M  ISO  7  44  13  45  13  46  13  47  13  48  13  49  13  50  13
M  END
>  <minimizedAffinity>  (1) 
-5.26176214

>  <minimizedRMSD>  (1) 
2.0174458

$$$$
