
     RDKit          3D

 51 55  0  0  1  0  0  0  0  0999 V2000
   45.9740   33.2290   38.8390 C   0  0  0  0  0  0  0  0  0  0  0  0
   46.4600   33.0210   37.5460 C   0  0  0  0  0  0  0  0  0  0  0  0
   45.5180   32.3260   36.8010 C   0  0  0  0  0  0  0  0  0  0  0  0
   44.4880   32.1490   37.7120 C   0  0  0  0  0  0  0  0  0  0  0  0
   44.7890   32.6820   38.8690 O   0  0  0  0  0  0  0  0  0  0  0  0
   46.6800   34.7150   42.0450 C   0  0  0  0  0  0  0  0  0  0  0  0
   47.9340   35.1810   41.8380 C   0  0  0  0  0  0  0  0  0  0  0  0
   48.6300   35.0420   40.6430 C   0  0  0  0  0  0  0  0  0  0  0  0
   48.0040   34.3990   39.6360 N   0  0  0  0  0  0  0  0  0  0  0  0
   46.7700   33.9400   39.8340 C   0  0  0  0  0  0  0  0  0  0  0  0
   46.0900   34.0700   40.9840 N   0  0  0  0  0  0  0  0  0  0  0  0
   44.4540   35.9740   44.8490 C   0  0  0  0  0  0  0  0  0  0  0  0
   45.0940   35.9170   43.5950 C   0  0  0  0  0  0  0  0  0  0  0  0
   45.9660   34.8720   43.3090 C   0  0  0  0  0  0  0  0  0  0  0  0
   46.1470   33.9660   44.2670 N   0  0  0  0  0  0  0  0  0  0  0  0
   45.5330   34.0210   45.4710 C   0  0  0  0  0  0  0  0  0  0  0  0
   44.6970   35.0080   45.7650 N   0  0  0  0  0  0  0  0  0  0  0  0
   43.2500   31.4320   37.3130 C   0  0  0  0  0  0  0  0  0  0  0  0
   42.1210   31.7260   38.2820 C   0  0  0  0  0  0  0  0  0  0  0  0
   41.0050   30.7000   38.1110 C   0  0  1  0  0  0  0  0  0  0  0  0
   39.6650   31.1020   38.7440 C   0  0  0  0  0  0  0  0  0  0  0  0
   39.8360   30.9920   37.2740 C   0  0  2  0  0  0  0  0  0  0  0  0
   39.1470   29.9480   36.5760 N   0  0  0  0  0  0  0  0  0  0  0  0
   39.9970   28.8510   36.2300 C   0  0  0  0  0  0  0  0  0  0  0  0
   39.4680   27.9070   35.2280 C   0  0  0  0  0  0  0  0  0  0  0  0
   38.2010   28.2190   34.7480 O   0  0  0  0  0  0  0  0  0  0  0  0
   38.2460   29.5430   34.3090 C   0  0  0  0  0  0  0  0  0  0  0  0
   38.2480   30.3880   35.5770 C   0  0  0  0  0  0  0  0  0  0  0  0
   47.4396   33.3568   37.1751 H   0  0  0  0  0  0  0  0  0  0  0  0
   45.5742   31.9983   35.7525 H   0  0  0  0  0  0  0  0  0  0  0  0
   48.4336   35.7025   42.6678 H   0  0  0  0  0  0  0  0  0  0  0  0
   49.6486   35.4397   40.5235 H   0  0  0  0  0  0  0  0  0  0  0  0
   43.7624   36.7971   45.0815 H   0  0  0  0  0  0  0  0  0  0  0  0
   44.9043   36.6976   42.8436 H   0  0  0  0  0  0  0  0  0  0  0  0
   45.7297   33.2365   46.2165 H   0  0  0  0  0  0  0  0  0  0  0  0
   42.9538   31.7575   36.3048 H   0  0  0  0  0  0  0  0  0  0  0  0
   43.4503   30.3504   37.3229 H   0  0  0  0  0  0  0  0  0  0  0  0
   42.5039   31.6793   39.3122 H   0  0  0  0  0  0  0  0  0  0  0  0
   41.7221   32.7304   38.0770 H   0  0  0  0  0  0  0  0  0  0  0  0
   41.7060   29.8530   38.1455 H   0  0  0  0  0  0  0  0  0  0  0  0
   39.0641   30.3599   39.2901 H   0  0  0  0  0  0  0  0  0  0  0  0
   39.3247   31.8807   39.4424 H   0  0  0  0  0  0  0  0  0  0  0  0
   39.6769   31.6694   36.4220 H   0  0  0  0  0  0  0  0  0  0  0  0
   40.9367   29.2659   35.8366 H   0  0  0  0  0  0  0  0  0  0  0  0
   40.1117   28.2652   37.1540 H   0  0  0  0  0  0  0  0  0  0  0  0
   40.1624   27.8878   34.3751 H   0  0  0  0  0  0  0  0  0  0  0  0
   39.3777   26.9347   35.7344 H   0  0  0  0  0  0  0  0  0  0  0  0
   39.1598   29.7240   33.7241 H   0  0  0  0  0  0  0  0  0  0  0  0
   37.3957   29.7871   33.6552 H   0  0  0  0  0  0  0  0  0  0  0  0
   38.5178   31.4184   35.3023 H   0  0  0  0  0  0  0  0  0  0  0  0
   37.2391   30.3065   36.0076 H   0  0  0  0  0  0  0  0  0  0  0  0
  1  5  1  0
  1 10  1  0
  2  1  2  0
  3  2  1  0
  3  4  2  0
  4  5  1  0
  6 14  1  0
  7  6  2  0
  8  7  1  0
  9 10  1  0
  9  8  2  0
 10 11  2  0
 11  6  1  0
 12 17  2  0
 13 12  1  0
 14 13  2  0
 14 15  1  0
 15 16  2  0
 16 17  1  0
 18  4  1  0
 18 19  1  0
 20 19  1  0
 20 21  1  0
 22 20  1  0
 22 21  1  0
 23 22  1  0
 24 23  1  0
 25 24  1  0
 26 25  1  0
 27 26  1  0
 27 28  1  0
 28 23  1  0
  2 29  1  0
  3 30  1  0
  7 31  1  0
  8 32  1  0
 12 33  1  0
 13 34  1  0
 16 35  1  0
 18 36  1  0
 18 37  1  0
 19 38  1  0
 19 39  1  0
 20 40  1  1
 21 41  1  0
 21 42  1  0
 22 43  1  6
 24 44  1  0
 24 45  1  0
 25 46  1  0
 25 47  1  0
 27 48  1  0
 27 49  1  0
 28 50  1  0
 28 51  1  0
M  ISO  8  29  14  30  14  31  14  32  14  33  14  34  14  35  14  36   8
M  ISO  8  37   8  38   8  39   8  40  13  41  13  42  13  43  13  44  13
M  ISO  7  45  13  46  13  47  13  48  13  49  13  50  13  51  13
M  END
>  <minimizedAffinity>  (1) 
-5.22602797

>  <minimizedRMSD>  (1) 
2.53970909

$$$$
