
     RDKit          3D

 27 29  0  0  0  0  0  0  0  0999 V2000
   47.4800   33.6510   42.8090 C   0  0  0  0  0  0  0  0  0  0  0  0
   47.9930   34.3170   41.5920 C   0  0  0  0  0  0  0  0  0  0  0  0
   48.7970   35.4350   41.4760 C   0  0  0  0  0  0  0  0  0  0  0  0
   48.9740   35.6260   40.1560 N   0  0  0  0  0  0  0  0  0  0  0  0
   48.3230   34.6860   39.4470 C   0  0  0  0  0  0  0  0  0  0  0  0
   48.2210   34.4860   38.0820 C   0  0  0  0  0  0  0  0  0  0  0  0
   47.4690   33.4150   37.6000 C   0  0  0  0  0  0  0  0  0  0  0  0
   46.8200   32.5430   38.4790 C   0  0  0  0  0  0  0  0  0  0  0  0
   46.9390   32.7690   39.8460 C   0  0  0  0  0  0  0  0  0  0  0  0
   47.6810   33.8260   40.3390 C   0  0  0  0  0  0  0  0  0  0  0  0
   46.4160   34.4490   43.4610 C   0  0  0  0  0  0  0  0  0  0  0  0
   45.9870   34.0450   44.7270 C   0  0  0  0  0  0  0  0  0  0  0  0
   44.9770   34.7870   45.3670 C   0  0  0  0  0  0  0  0  0  0  0  0
   44.4650   35.8720   44.7110 N   0  0  0  0  0  0  0  0  0  0  0  0
   44.9150   36.2200   43.4880 C   0  0  0  0  0  0  0  0  0  0  0  0
   45.8790   35.5350   42.8460 N   0  0  0  0  0  0  0  0  0  0  0  0
   48.3098   33.5156   43.5183 H   0  0  0  0  0  0  0  0  0  0  0  0
   47.0513   32.6815   42.5154 H   0  0  0  0  0  0  0  0  0  0  0  0
   49.2079   36.0438   42.2948 H   0  0  0  0  0  0  0  0  0  0  0  0
   49.5318   36.3879   39.7444 H   0  0  0  0  0  0  0  0  0  0  0  0
   48.7289   35.1662   37.3825 H   0  0  0  0  0  0  0  0  0  0  0  0
   47.3855   33.2544   36.5150 H   0  0  0  0  0  0  0  0  0  0  0  0
   46.2286   31.6973   38.0980 H   0  0  0  0  0  0  0  0  0  0  0  0
   46.4320   32.0925   40.5498 H   0  0  0  0  0  0  0  0  0  0  0  0
   46.4299   33.1640   45.2145 H   0  0  0  0  0  0  0  0  0  0  0  0
   44.6106   34.5029   46.3645 H   0  0  0  0  0  0  0  0  0  0  0  0
   44.4759   37.0999   42.9952 H   0  0  0  0  0  0  0  0  0  0  0  0
  1 11  1  0
  2  1  1  0
  3  2  2  0
  4  3  1  0
  5  4  1  0
  5 10  2  0
  6  5  1  0
  7  6  2  0
  7  8  1  0
  8  9  2  0
  9 10  1  0
 10  2  1  0
 11 12  2  0
 12 13  1  0
 14 13  2  0
 15 14  1  0
 16 11  1  0
 16 15  2  0
  1 17  1  0
  1 18  1  0
  3 19  1  0
  4 20  1  0
  6 21  1  0
  7 22  1  0
  8 23  1  0
  9 24  1  0
 12 25  1  0
 13 26  1  0
 15 27  1  0
M  ISO  8  17   8  18   8  19  14  20   9  21  14  22  14  23  14  24  14
M  ISO  3  25  14  26  14  27  14
M  END
>  <minimizedAffinity>  (1) 
-5.15385437

>  <minimizedRMSD>  (1) 
3.31305814

$$$$
