
     RDKit          3D

 24 25  0  0  0  0  0  0  0  0999 V2000
   46.2180   34.7090   41.7870 C   0  0  0  0  0  0  0  0  0  0  0  0
   47.5700   34.1830   41.8200 N   0  0  0  0  0  0  0  0  0  0  0  0
   48.4980   35.0720   42.2610 C   0  0  0  0  0  0  0  0  0  0  0  0
   49.8090   34.7120   42.3440 C   0  0  0  0  0  0  0  0  0  0  0  0
   50.2040   33.4280   41.9750 C   0  0  0  0  0  0  0  0  0  0  0  0
   51.5720   33.0730   42.0680 N   0  0  0  0  0  0  0  0  0  0  0  0
   49.2440   32.5670   41.5380 N   0  0  0  0  0  0  0  0  0  0  0  0
   47.9540   32.9440   41.4650 C   0  0  0  0  0  0  0  0  0  0  0  0
   47.0380   32.1700   41.0650 O   0  0  0  0  0  0  0  0  0  0  0  0
   45.6710   34.9140   43.1510 C   0  0  0  0  0  0  0  0  0  0  0  0
   45.8470   33.8880   44.0820 C   0  0  0  0  0  0  0  0  0  0  0  0
   45.3310   34.0790   45.3670 C   0  0  0  0  0  0  0  0  0  0  0  0
   44.6920   35.2400   45.6470 N   0  0  0  0  0  0  0  0  0  0  0  0
   44.5420   36.2150   44.7120 C   0  0  0  0  0  0  0  0  0  0  0  0
   45.0270   36.0580   43.4670 N   0  0  0  0  0  0  0  0  0  0  0  0
   46.2243   35.6732   41.2577 H   0  0  0  0  0  0  0  0  0  0  0  0
   45.5798   33.9772   41.2700 H   0  0  0  0  0  0  0  0  0  0  0  0
   48.1892   36.0868   42.5523 H   0  0  0  0  0  0  0  0  0  0  0  0
   50.5561   35.4353   42.7025 H   0  0  0  0  0  0  0  0  0  0  0  0
   51.8781   32.1272   41.7985 H   0  0  0  0  0  0  0  0  0  0  0  0
   52.2607   33.7607   42.4051 H   0  0  0  0  0  0  0  0  0  0  0  0
   46.3740   32.9607   43.8131 H   0  0  0  0  0  0  0  0  0  0  0  0
   45.4418   33.3009   46.1366 H   0  0  0  0  0  0  0  0  0  0  0  0
   44.0171   37.1447   44.9768 H   0  0  0  0  0  0  0  0  0  0  0  0
  1  2  1  0
  1 10  1  0
  2  3  1  0
  3  4  2  0
  5  6  1  0
  5  4  1  0
  7  5  2  0
  8  7  1  0
  8  2  1  0
  9  8  2  0
 10 15  1  0
 10 11  2  0
 11 12  1  0
 12 13  2  0
 14 13  1  0
 15 14  2  0
  1 16  1  0
  1 17  1  0
  3 18  1  0
  4 19  1  0
  6 20  1  0
  6 21  1  0
 11 22  1  0
 12 23  1  0
 14 24  1  0
M  ISO  7  16   8  17   8  18  14  19  14  22  14  23  14  24  14
M  END
>  <minimizedAffinity>  (1) 
-4.69387054

>  <minimizedRMSD>  (1) 
2.50080347

$$$$
