
     RDKit          3D

 30 32  0  0  1  0  0  0  0  0999 V2000
   47.6730   33.9760   42.2290 C   0  0  2  0  0  0  0  0  0  0  0  0
   48.9760   33.7390   42.8510 C   0  0  2  0  0  0  0  0  0  0  0  0
   49.8910   34.8970   42.4530 C   0  0  0  0  0  0  0  0  0  0  0  0
   49.0550   35.9050   41.7040 C   0  0  0  0  0  0  0  0  0  0  0  0
   47.9460   35.0790   41.1620 C   0  0  0  0  0  0  0  0  0  0  0  0
   46.6020   34.5220   43.0810 C   0  0  0  0  0  0  0  0  0  0  0  0
   46.3110   33.8900   44.3020 C   0  0  0  0  0  0  0  0  0  0  0  0
   45.3170   34.4110   45.1280 C   0  0  0  0  0  0  0  0  0  0  0  0
   44.6750   35.5410   44.6730 N   0  0  0  0  0  0  0  0  0  0  0  0
   44.9740   36.1250   43.4970 C   0  0  0  0  0  0  0  0  0  0  0  0
   45.9290   35.6170   42.7130 N   0  0  0  0  0  0  0  0  0  0  0  0
   49.5860   32.4150   42.3820 C   0  0  0  0  0  0  0  0  0  0  0  0
   50.9860   32.5330   41.8570 C   0  0  0  0  0  0  0  0  0  0  0  0
   49.8630   32.2310   40.8960 C   0  0  0  0  0  0  0  0  0  0  0  0
   47.3103   32.9952   41.8877 H   0  0  0  0  0  0  0  0  0  0  0  0
   48.8588   33.6785   43.9431 H   0  0  0  0  0  0  0  0  0  0  0  0
   50.3208   35.3613   43.3528 H   0  0  0  0  0  0  0  0  0  0  0  0
   50.7169   34.5364   41.8223 H   0  0  0  0  0  0  0  0  0  0  0  0
   48.6740   36.6841   42.3806 H   0  0  0  0  0  0  0  0  0  0  0  0
   49.6166   36.4427   40.9259 H   0  0  0  0  0  0  0  0  0  0  0  0
   47.0479   35.6960   41.0112 H   0  0  0  0  0  0  0  0  0  0  0  0
   48.2077   34.6416   40.1872 H   0  0  0  0  0  0  0  0  0  0  0  0
   46.8649   32.9889   44.6040 H   0  0  0  0  0  0  0  0  0  0  0  0
   45.0594   33.9452   46.0906 H   0  0  0  0  0  0  0  0  0  0  0  0
   44.4285   37.0260   43.1799 H   0  0  0  0  0  0  0  0  0  0  0  0
   49.0579   31.8092   43.1331 H   0  0  0  0  0  0  0  0  0  0  0  0
   51.4801   33.5154   41.8307 H   0  0  0  0  0  0  0  0  0  0  0  0
   51.9456   32.0532   42.0998 H   0  0  0  0  0  0  0  0  0  0  0  0
   49.5338   32.9934   40.1747 H   0  0  0  0  0  0  0  0  0  0  0  0
   49.6590   31.4449   40.1541 H   0  0  0  0  0  0  0  0  0  0  0  0
  1  2  1  0
  1  6  1  0
  3  2  1  0
  4  3  1  0
  5  4  1  0
  5  1  1  0
  6  7  2  0
  7  8  1  0
  9  8  2  0
 10  9  1  0
 11  6  1  0
 11 10  2  0
 12  2  1  0
 13 12  1  0
 14 13  1  0
 14 12  1  0
  1 15  1  6
  2 16  1  1
  3 17  1  0
  3 18  1  0
  4 19  1  0
  4 20  1  0
  5 21  1  0
  5 22  1  0
  7 23  1  0
  8 24  1  0
 10 25  1  0
 12 26  1  0
 13 27  1  0
 13 28  1  0
 14 29  1  0
 14 30  1  0
M  ISO  8  15  13  16  13  17  13  18  13  19  13  20  13  21  13  22  13
M  ISO  8  23  14  24  14  25  14  26  13  27  13  28  13  29  13  30  13
M  END
>  <minimizedAffinity>  (1) 
-5.1812911

>  <minimizedRMSD>  (1) 
3.93431735

$$$$
