
     RDKit          3D

 23 24  0  0  0  0  0  0  0  0999 V2000
   46.5870   34.6260   41.7330 C   0  0  0  0  0  0  0  0  0  0  0  0
   45.9230   34.8610   43.0350 C   0  0  0  0  0  0  0  0  0  0  0  0
   46.0050   33.8770   44.0210 C   0  0  0  0  0  0  0  0  0  0  0  0
   45.3770   34.1030   45.2460 C   0  0  0  0  0  0  0  0  0  0  0  0
   44.7070   35.2750   45.4350 N   0  0  0  0  0  0  0  0  0  0  0  0
   44.6450   36.2160   44.4520 C   0  0  0  0  0  0  0  0  0  0  0  0
   45.2440   36.0140   43.2690 N   0  0  0  0  0  0  0  0  0  0  0  0
   48.0010   34.2160   41.9260 C   0  0  0  0  0  0  0  0  0  0  0  0
   49.0050   35.0510   42.4240 C   0  0  0  0  0  0  0  0  0  0  0  0
   50.3010   34.6050   42.5780 C   0  0  0  0  0  0  0  0  0  0  0  0
   50.6650   33.3170   42.2460 C   0  0  0  0  0  0  0  0  0  0  0  0
   49.6850   32.4810   41.7520 C   0  0  0  0  0  0  0  0  0  0  0  0
   48.3800   32.9140   41.5930 C   0  0  0  0  0  0  0  0  0  0  0  0
   46.5583   35.5530   41.1415 H   0  0  0  0  0  0  0  0  0  0  0  0
   46.0554   33.8187   41.2079 H   0  0  0  0  0  0  0  0  0  0  0  0
   46.5538   32.9418   43.8360 H   0  0  0  0  0  0  0  0  0  0  0  0
   45.4217   33.3487   46.0454 H   0  0  0  0  0  0  0  0  0  0  0  0
   44.0970   37.1529   44.6306 H   0  0  0  0  0  0  0  0  0  0  0  0
   48.7562   36.0866   42.6992 H   0  0  0  0  0  0  0  0  0  0  0  0
   51.0621   35.2928   42.9750 H   0  0  0  0  0  0  0  0  0  0  0  0
   51.7008   32.9683   42.3707 H   0  0  0  0  0  0  0  0  0  0  0  0
   49.9464   31.4481   41.4786 H   0  0  0  0  0  0  0  0  0  0  0  0
   47.6261   32.2182   41.1962 H   0  0  0  0  0  0  0  0  0  0  0  0
  1  8  1  0
  1  2  1  0
  2  7  1  0
  2  3  2  0
  3  4  1  0
  4  5  2  0
  6  5  1  0
  7  6  2  0
  8  9  2  0
  9 10  1  0
 11 10  2  0
 12 11  1  0
 13 12  2  0
 13  8  1  0
  1 14  1  0
  1 15  1  0
  3 16  1  0
  4 17  1  0
  6 18  1  0
  9 19  1  0
 10 20  1  0
 11 21  1  0
 12 22  1  0
 13 23  1  0
M  ISO  8  14   8  15   8  16  14  17  14  18  14  19  14  20  14  21  14
M  ISO  2  22  14  23  14
M  END
>  <minimizedAffinity>  (1) 
-4.62959671

>  <minimizedRMSD>  (1) 
1.73343277

$$$$
