
     RDKit          3D

 14 14  0  0  0  0  0  0  0  0999 V2000
   46.0180   34.8920   43.1440 C   0  0  0  0  0  0  0  0  0  0  0  0
   46.1980   33.8920   44.1170 C   0  0  0  0  0  0  0  0  0  0  0  0
   45.5210   34.0310   45.3340 C   0  0  0  0  0  0  0  0  0  0  0  0
   44.7310   35.1130   45.5140 N   0  0  0  0  0  0  0  0  0  0  0  0
   44.5800   36.0530   44.5600 C   0  0  0  0  0  0  0  0  0  0  0  0
   45.2170   35.9460   43.3830 N   0  0  0  0  0  0  0  0  0  0  0  0
   46.7360   34.7430   41.8560 C   0  0  0  0  0  0  0  0  0  0  0  0
   47.9320   35.4810   41.9400 O   0  0  0  0  0  0  0  0  0  0  0  0
   46.8509   33.0273   43.9271 H   0  0  0  0  0  0  0  0  0  0  0  0
   45.6294   33.2762   46.1268 H   0  0  0  0  0  0  0  0  0  0  0  0
   43.9271   36.9181   44.7479 H   0  0  0  0  0  0  0  0  0  0  0  0
   46.1148   35.1300   41.0348 H   0  0  0  0  0  0  0  0  0  0  0  0
   46.9527   33.6828   41.6583 H   0  0  0  0  0  0  0  0  0  0  0  0
   48.1649   35.6247   42.8914 H   0  0  0  0  0  0  0  0  0  0  0  0
  1  6  2  0
  1  2  1  0
  2  3  2  0
  3  4  1  0
  5  4  2  0
  6  5  1  0
  7  8  1  0
  7  1  1  0
  2  9  1  0
  3 10  1  0
  5 11  1  0
  7 12  1  0
  7 13  1  0
  8 14  1  0
M  ISO  6   9  14  10  14  11  14  12   8  13   8  14   3
M  END
>  <minimizedAffinity>  (1) 
-3.07718015

>  <minimizedRMSD>  (1) 
0.166386768

$$$$
