
     RDKit          3D

 35 36  0  0  0  0  0  0  0  0999 V2000
   46.7390   32.2410   44.4900 N   0  0  0  0  0  0  0  0  0  0  0  0
   45.7220   33.0630   44.7220 C   0  0  0  0  0  0  0  0  0  0  0  0
   45.6520   34.2780   44.0300 C   0  0  0  0  0  0  0  0  0  0  0  0
   46.6370   34.5870   43.1290 C   0  0  0  0  0  0  0  0  0  0  0  0
   46.6200   35.6650   42.4760 O   0  0  0  0  0  0  0  0  0  0  0  0
   47.6460   33.7320   42.9260 N   0  0  0  0  0  0  0  0  0  0  0  0
   47.6690   32.5940   43.6030 C   0  0  0  0  0  0  0  0  0  0  0  0
   48.6560   31.8380   43.3450 O   0  0  0  0  0  0  0  0  0  0  0  0
   48.6780   34.0880   41.9690 C   0  0  0  0  0  0  0  0  0  0  0  0
   48.1830   34.8720   40.7920 C   0  0  0  0  0  0  0  0  0  0  0  0
   49.2790   32.8150   41.3730 C   0  0  0  0  0  0  0  0  0  0  0  0
   49.8160   34.8770   42.5750 C   0  0  0  0  0  0  0  0  0  0  0  0
   46.9210   30.9420   45.1520 C   0  0  0  0  0  0  0  0  0  0  0  0
   46.5360   31.0080   46.5940 C   0  0  0  0  0  0  0  0  0  0  0  0
   47.3750   31.7140   47.4590 C   0  0  0  0  0  0  0  0  0  0  0  0
   47.0260   31.7840   48.8030 C   0  0  0  0  0  0  0  0  0  0  0  0
   45.8830   31.1610   49.2140 N   0  0  0  0  0  0  0  0  0  0  0  0
   45.0890   30.4800   48.3280 C   0  0  0  0  0  0  0  0  0  0  0  0
   45.4040   30.3980   47.0330 N   0  0  0  0  0  0  0  0  0  0  0  0
   44.9431   32.7921   45.4500 H   0  0  0  0  0  0  0  0  0  0  0  0
   44.8188   34.9741   44.2069 H   0  0  0  0  0  0  0  0  0  0  0  0
   47.6269   35.7527   41.1457 H   0  0  0  0  0  0  0  0  0  0  0  0
   49.0388   35.1989   40.1831 H   0  0  0  0  0  0  0  0  0  0  0  0
   47.5199   34.2399   40.1831 H   0  0  0  0  0  0  0  0  0  0  0  0
   49.5958   32.1440   42.1851 H   0  0  0  0  0  0  0  0  0  0  0  0
   48.5247   32.3090   40.7525 H   0  0  0  0  0  0  0  0  0  0  0  0
   50.1490   33.0759   40.7525 H   0  0  0  0  0  0  0  0  0  0  0  0
   49.7504   34.8315   43.6721 H   0  0  0  0  0  0  0  0  0  0  0  0
   50.7746   34.4487   42.2470 H   0  0  0  0  0  0  0  0  0  0  0  0
   49.7512   35.9249   42.2470 H   0  0  0  0  0  0  0  0  0  0  0  0
   46.2938   30.1921   44.6478 H   0  0  0  0  0  0  0  0  0  0  0  0
   47.9841   30.6666   45.0891 H   0  0  0  0  0  0  0  0  0  0  0  0
   48.2879   32.2018   47.0867 H   0  0  0  0  0  0  0  0  0  0  0  0
   47.6573   32.3297   49.5197 H   0  0  0  0  0  0  0  0  0  0  0  0
   44.1732   29.9909   48.6915 H   0  0  0  0  0  0  0  0  0  0  0  0
  1  2  1  0
  1 13  1  0
  3  2  2  0
  4  3  1  0
  5  4  2  0
  6  4  1  0
  6  7  1  0
  7  1  1  0
  8  7  2  0
  9 12  1  0
  9  6  1  0
 10  9  1  0
 11  9  1  0
 13 14  1  0
 14 19  1  0
 14 15  2  0
 15 16  1  0
 16 17  2  0
 18 17  1  0
 19 18  2  0
  2 20  1  0
  3 21  1  0
 10 22  1  0
 10 23  1  0
 10 24  1  0
 11 25  1  0
 11 26  1  0
 11 27  1  0
 12 28  1  0
 12 29  1  0
 12 30  1  0
 13 31  1  0
 13 32  1  0
 15 33  1  0
 16 34  1  0
 18 35  1  0
M  ISO  8  20  14  21  14  22   8  23   8  24   8  25   8  26   8  27   8
M  ISO  8  28   8  29   8  30   8  31   8  32   8  33  14  34  14  35  14
M  END
>  <minimizedAffinity>  (1) 
-4.95655537

>  <minimizedRMSD>  (1) 
6.40288258

$$$$
