
     RDKit          3D

 29 30  0  0  0  0  0  0  0  0999 V2000
   46.3200   33.1510   44.3430 N   0  0  0  0  0  0  0  0  0  0  0  0
   47.0630   32.1430   43.9030 C   0  0  0  0  0  0  0  0  0  0  0  0
   47.5050   31.1700   44.8160 C   0  0  0  0  0  0  0  0  0  0  0  0
   47.1490   31.2950   46.1530 C   0  0  0  0  0  0  0  0  0  0  0  0
   47.5180   30.4530   47.0110 O   0  0  0  0  0  0  0  0  0  0  0  0
   46.3910   32.3310   46.5730 N   0  0  0  0  0  0  0  0  0  0  0  0
   46.0110   33.2120   45.6450 C   0  0  0  0  0  0  0  0  0  0  0  0
   45.2950   34.1760   46.0950 O   0  0  0  0  0  0  0  0  0  0  0  0
   45.8180   34.2030   43.4760 C   0  0  0  0  0  0  0  0  0  0  0  0
   46.6720   34.3830   42.2610 C   0  0  0  0  0  0  0  0  0  0  0  0
   47.8320   35.1400   42.3770 C   0  0  0  0  0  0  0  0  0  0  0  0
   48.6170   35.3010   41.2410 C   0  0  0  0  0  0  0  0  0  0  0  0
   48.2190   34.7150   40.0790 N   0  0  0  0  0  0  0  0  0  0  0  0
   47.0800   33.9840   40.0110 C   0  0  0  0  0  0  0  0  0  0  0  0
   46.3140   33.8190   41.0880 N   0  0  0  0  0  0  0  0  0  0  0  0
   46.0390   32.4290   47.9750 C   0  0  0  0  0  0  0  0  0  0  0  0
   44.8290   31.6200   48.3380 C   0  0  0  0  0  0  0  0  0  0  0  0
   47.3293   32.0701   42.8382 H   0  0  0  0  0  0  0  0  0  0  0  0
   48.1219   30.3244   44.4778 H   0  0  0  0  0  0  0  0  0  0  0  0
   44.7974   33.9440   43.1576 H   0  0  0  0  0  0  0  0  0  0  0  0
   45.8307   35.1455   44.0430 H   0  0  0  0  0  0  0  0  0  0  0  0
   48.1193   35.5965   43.3357 H   0  0  0  0  0  0  0  0  0  0  0  0
   49.5439   35.8919   41.2807 H   0  0  0  0  0  0  0  0  0  0  0  0
   46.7852   33.5224   39.0570 H   0  0  0  0  0  0  0  0  0  0  0  0
   46.8899   32.0739   48.5748 H   0  0  0  0  0  0  0  0  0  0  0  0
   45.8010   33.4833   48.1795 H   0  0  0  0  0  0  0  0  0  0  0  0
   44.7419   31.5617   49.4330 H   0  0  0  0  0  0  0  0  0  0  0  0
   43.9297   32.0992   47.9236 H   0  0  0  0  0  0  0  0  0  0  0  0
   44.9281   30.6059   47.9236 H   0  0  0  0  0  0  0  0  0  0  0  0
  1  7  1  0
  2  1  1  0
  2  3  2  0
  3  4  1  0
  4  6  1  0
  4  5  2  0
  6 16  1  0
  7  8  2  0
  7  6  1  0
  9  1  1  0
 10 11  2  0
 10  9  1  0
 12 11  1  0
 13 12  2  0
 14 13  1  0
 14 15  2  0
 15 10  1  0
 16 17  1  0
  2 18  1  0
  3 19  1  0
  9 20  1  0
  9 21  1  0
 11 22  1  0
 12 23  1  0
 14 24  1  0
 16 25  1  0
 16 26  1  0
 17 27  1  0
 17 28  1  0
 17 29  1  0
M  ISO  8  18  14  19  14  20   8  21   8  22  14  23  14  24  14  25   8
M  ISO  4  26   8  27   8  28   8  29   8
M  END
>  <minimizedAffinity>  (1) 
-4.27258348

>  <minimizedRMSD>  (1) 
1.73218

$$$$
