
     RDKit          3D

 35 37  0  0  1  0  0  0  0  0999 V2000
   47.5890   34.5500   41.1610 C   0  0  2  0  0  0  0  0  0  0  0  0
   47.7880   33.2170   40.5770 C   0  0  2  0  0  0  0  0  0  0  0  0
   48.5460   32.3930   41.6110 C   0  0  0  0  0  0  0  0  0  0  0  0
   48.5920   33.1750   42.8860 C   0  0  0  0  0  0  0  0  0  0  0  0
   48.5090   34.5840   42.4210 C   0  0  0  0  0  0  0  0  0  0  0  0
   46.2420   34.8570   41.6750 C   0  0  0  0  0  0  0  0  0  0  0  0
   45.1240   34.3180   41.0200 C   0  0  0  0  0  0  0  0  0  0  0  0
   43.8490   34.5820   41.5160 C   0  0  0  0  0  0  0  0  0  0  0  0
   43.7790   35.3710   42.6410 N   0  0  0  0  0  0  0  0  0  0  0  0
   44.8650   35.8750   43.2510 C   0  0  0  0  0  0  0  0  0  0  0  0
   46.0740   35.6140   42.7640 N   0  0  0  0  0  0  0  0  0  0  0  0
   48.4750   33.3230   39.3330 N   0  0  0  0  0  0  0  0  0  0  0  0
   47.7890   33.9710   38.2620 C   0  0  0  0  0  0  0  0  0  0  0  0
   48.8310   33.8500   37.1460 C   0  0  0  0  0  0  0  0  0  0  0  0
   49.3740   32.4670   37.3530 C   0  0  0  0  0  0  0  0  0  0  0  0
   49.2150   32.2390   38.8550 C   0  0  0  0  0  0  0  0  0  0  0  0
   47.7897   35.2704   40.3543 H   0  0  0  0  0  0  0  0  0  0  0  0
   46.8346   32.7186   40.3476 H   0  0  0  0  0  0  0  0  0  0  0  0
   48.0281   31.4371   41.7784 H   0  0  0  0  0  0  0  0  0  0  0  0
   49.5657   32.1817   41.2567 H   0  0  0  0  0  0  0  0  0  0  0  0
   47.7404   32.9226   43.5349 H   0  0  0  0  0  0  0  0  0  0  0  0
   49.4907   32.9703   43.4864 H   0  0  0  0  0  0  0  0  0  0  0  0
   49.5080   34.9622   42.1582 H   0  0  0  0  0  0  0  0  0  0  0  0
   48.1108   35.2498   43.2009 H   0  0  0  0  0  0  0  0  0  0  0  0
   45.2530   33.6933   40.1239 H   0  0  0  0  0  0  0  0  0  0  0  0
   42.9457   34.1806   41.0334 H   0  0  0  0  0  0  0  0  0  0  0  0
   44.7541   36.5005   44.1490 H   0  0  0  0  0  0  0  0  0  0  0  0
   46.8555   33.4496   38.0037 H   0  0  0  0  0  0  0  0  0  0  0  0
   47.4696   35.0008   38.4800 H   0  0  0  0  0  0  0  0  0  0  0  0
   49.6210   34.6074   37.2567 H   0  0  0  0  0  0  0  0  0  0  0  0
   48.4153   34.0105   36.1403 H   0  0  0  0  0  0  0  0  0  0  0  0
   48.7946   31.7279   36.7802 H   0  0  0  0  0  0  0  0  0  0  0  0
   50.4147   32.3614   37.0127 H   0  0  0  0  0  0  0  0  0  0  0  0
   48.6789   31.2973   39.0439 H   0  0  0  0  0  0  0  0  0  0  0  0
   50.1911   32.1651   39.3567 H   0  0  0  0  0  0  0  0  0  0  0  0
  1  6  1  0
  1  5  1  0
  2  1  1  0
  2  3  1  0
  3  4  1  0
  5  4  1  0
  6 11  2  0
  7  8  2  0
  7  6  1  0
  8  9  1  0
  9 10  2  0
 11 10  1  0
 12 13  1  0
 12  2  1  0
 14 15  1  0
 14 13  1  0
 15 16  1  0
 16 12  1  0
  1 17  1  6
  2 18  1  6
  3 19  1  0
  3 20  1  0
  4 21  1  0
  4 22  1  0
  5 23  1  0
  5 24  1  0
  7 25  1  0
  8 26  1  0
 10 27  1  0
 13 28  1  0
 13 29  1  0
 14 30  1  0
 14 31  1  0
 15 32  1  0
 15 33  1  0
 16 34  1  0
 16 35  1  0
M  ISO  8  17  13  18  13  19  13  20  13  21  13  22  13  23  13  24  13
M  ISO  8  25  14  26  14  27  14  28  13  29  13  30  13  31  13  32  13
M  ISO  3  33  13  34  13  35  13
M  END
>  <minimizedAffinity>  (1) 
-4.23673296

>  <minimizedRMSD>  (1) 
2.96019721

$$$$
