
     RDKit          3D

 43 45  0  0  1  0  0  0  0  0999 V2000
   44.1370   31.9720   40.3330 N   0  0  0  0  0  0  0  0  0  0  0  0
   43.5520   31.4240   41.3760 C   0  0  0  0  0  0  0  0  0  0  0  0
   43.9500   31.8300   42.6710 C   0  0  0  0  0  0  0  0  0  0  0  0
   44.9300   32.7820   42.8030 C   0  0  0  0  0  0  0  0  0  0  0  0
   45.2910   33.1490   43.9390 O   0  0  0  0  0  0  0  0  0  0  0  0
   45.5120   33.3290   41.7290 N   0  0  0  0  0  0  0  0  0  0  0  0
   45.0960   32.9050   40.5260 C   0  0  0  0  0  0  0  0  0  0  0  0
   45.6700   33.4430   39.5240 O   0  0  0  0  0  0  0  0  0  0  0  0
   43.8120   31.6350   38.9490 C   0  0  0  0  0  0  0  0  0  0  0  0
   42.4340   32.0430   38.5930 C   0  0  0  0  0  0  0  0  0  0  0  0
   41.5390   31.0590   38.1980 C   0  0  0  0  0  0  0  0  0  0  0  0
   40.2490   31.4520   37.8660 C   0  0  0  0  0  0  0  0  0  0  0  0
   39.9200   32.7720   37.9420 N   0  0  0  0  0  0  0  0  0  0  0  0
   40.8210   33.7000   38.3310 C   0  0  0  0  0  0  0  0  0  0  0  0
   42.0700   33.3510   38.6570 N   0  0  0  0  0  0  0  0  0  0  0  0
   46.5480   34.3440   41.8530 C   0  0  2  0  0  0  0  0  0  0  0  0
   47.3820   34.4950   40.6210 C   0  0  0  0  0  0  0  0  0  0  0  0
   47.4690   34.0920   43.0130 C   0  0  0  0  0  0  0  0  0  0  0  0
   48.6490   33.3450   42.6500 N   0  0  0  0  0  0  0  0  0  0  0  0
   48.6230   32.0070   42.4030 C   0  0  0  0  0  0  0  0  0  0  0  0
   49.7380   31.3040   42.0620 C   0  0  0  0  0  0  0  0  0  0  0  0
   50.9270   31.9820   41.9680 C   0  0  0  0  0  0  0  0  0  0  0  0
   52.1920   31.4580   41.6330 N   0  0  0  0  0  0  0  0  0  0  0  0
   50.9340   33.3040   42.2160 N   0  0  0  0  0  0  0  0  0  0  0  0
   49.8370   34.0090   42.5530 C   0  0  0  0  0  0  0  0  0  0  0  0
   49.8470   35.2460   42.7850 O   0  0  0  0  0  0  0  0  0  0  0  0
   42.7678   30.6641   41.2434 H   0  0  0  0  0  0  0  0  0  0  0  0
   43.4798   31.3881   43.5619 H   0  0  0  0  0  0  0  0  0  0  0  0
   44.5193   32.1494   38.2818 H   0  0  0  0  0  0  0  0  0  0  0  0
   43.8852   30.5432   38.8366 H   0  0  0  0  0  0  0  0  0  0  0  0
   41.8413   30.0025   38.1494 H   0  0  0  0  0  0  0  0  0  0  0  0
   39.5039   30.7086   37.5464 H   0  0  0  0  0  0  0  0  0  0  0  0
   40.5231   34.7578   38.3803 H   0  0  0  0  0  0  0  0  0  0  0  0
   45.9881   35.2760   42.0201 H   0  0  0  0  0  0  0  0  0  0  0  0
   48.4272   34.6842   40.9067 H   0  0  0  0  0  0  0  0  0  0  0  0
   47.3261   33.5721   40.0250 H   0  0  0  0  0  0  0  0  0  0  0  0
   47.0061   35.3397   40.0250 H   0  0  0  0  0  0  0  0  0  0  0  0
   47.7827   35.0615   43.4274 H   0  0  0  0  0  0  0  0  0  0  0  0
   46.9134   33.4894   43.7466 H   0  0  0  0  0  0  0  0  0  0  0  0
   47.6645   31.4730   42.4819 H   0  0  0  0  0  0  0  0  0  0  0  0
   49.6869   30.2226   41.8673 H   0  0  0  0  0  0  0  0  0  0  0  0
   53.0133   32.0785   41.5968 H   0  0  0  0  0  0  0  0  0  0  0  0
   52.2950   30.4546   41.4244 H   0  0  0  0  0  0  0  0  0  0  0  0
  1  7  1  0
  1  2  1  0
  2  3  2  0
  3  4  1  0
  4  5  2  0
  6 16  1  0
  6  4  1  0
  7  6  1  0
  8  7  2  0
  9  1  1  0
 10 15  1  0
 10  9  1  0
 11 10  2  0
 12 13  2  0
 12 11  1  0
 13 14  1  0
 14 15  2  0
 16 18  1  0
 17 16  1  0
 19 18  1  0
 20 19  1  0
 21 20  2  0
 22 21  1  0
 22 24  2  0
 23 22  1  0
 24 25  1  0
 25 19  1  0
 25 26  2  0
  2 27  1  0
  3 28  1  0
  9 29  1  0
  9 30  1  0
 11 31  1  0
 12 32  1  0
 14 33  1  0
 16 34  1  1
 17 35  1  0
 17 36  1  0
 17 37  1  0
 18 38  1  0
 18 39  1  0
 20 40  1  0
 21 41  1  0
 23 42  1  0
 23 43  1  0
M  ISO  8  27  14  28  14  29   8  30   8  31  14  32  14  33  14  34   8
M  ISO  7  35   8  36   8  37   8  38   8  39   8  40  14  41  14
M  END
>  <minimizedAffinity>  (1) 
-4.6923728

>  <minimizedRMSD>  (1) 
7.81817961

$$$$
