
     RDKit          3D

 33 34  0  0  1  0  0  0  0  0999 V2000
   46.0270   32.5750   44.1570 N   0  0  0  0  0  0  0  0  0  0  0  0
   46.4680   31.4210   43.6910 C   0  0  0  0  0  0  0  0  0  0  0  0
   46.9840   30.4830   44.6140 C   0  0  0  0  0  0  0  0  0  0  0  0
   47.0100   30.7940   45.9490 C   0  0  0  0  0  0  0  0  0  0  0  0
   47.4650   29.9650   46.7690 O   0  0  0  0  0  0  0  0  0  0  0  0
   46.5560   31.9720   46.3950 N   0  0  0  0  0  0  0  0  0  0  0  0
   46.0800   32.8190   45.4700 C   0  0  0  0  0  0  0  0  0  0  0  0
   45.6550   33.9330   45.9330 O   0  0  0  0  0  0  0  0  0  0  0  0
   45.4770   33.6110   43.2900 C   0  0  0  0  0  0  0  0  0  0  0  0
   46.4670   34.0680   42.2690 C   0  0  0  0  0  0  0  0  0  0  0  0
   47.5150   34.8750   42.6780 C   0  0  0  0  0  0  0  0  0  0  0  0
   48.4280   35.2900   41.7070 C   0  0  0  0  0  0  0  0  0  0  0  0
   48.2490   34.8890   40.4260 N   0  0  0  0  0  0  0  0  0  0  0  0
   47.2100   34.0980   40.0710 C   0  0  0  0  0  0  0  0  0  0  0  0
   46.3320   33.6930   40.9750 N   0  0  0  0  0  0  0  0  0  0  0  0
   46.5730   32.3250   47.8030 C   0  0  2  0  0  0  0  0  0  0  0  0
   47.8330   32.0000   48.5060 C   0  0  0  0  0  0  0  0  0  0  0  0
   45.4340   31.6210   48.5570 C   0  0  0  0  0  0  0  0  0  0  0  0
   44.2190   32.2980   48.2950 O   0  0  0  0  0  0  0  0  0  0  0  0
   46.4348   31.1959   42.6148 H   0  0  0  0  0  0  0  0  0  0  0  0
   47.3618   29.5110   44.2639 H   0  0  0  0  0  0  0  0  0  0  0  0
   44.5930   33.2094   42.7730 H   0  0  0  0  0  0  0  0  0  0  0  0
   45.2119   34.4747   43.9175 H   0  0  0  0  0  0  0  0  0  0  0  0
   47.6242   35.1781   43.7298 H   0  0  0  0  0  0  0  0  0  0  0  0
   49.2789   35.9323   41.9780 H   0  0  0  0  0  0  0  0  0  0  0  0
   47.0940   33.7888   39.0217 H   0  0  0  0  0  0  0  0  0  0  0  0
   46.4554   33.4187   47.8077 H   0  0  0  0  0  0  0  0  0  0  0  0
   47.6680   32.0425   49.5927 H   0  0  0  0  0  0  0  0  0  0  0  0
   48.1597   30.9882   48.2241 H   0  0  0  0  0  0  0  0  0  0  0  0
   48.6084   32.7275   48.2241 H   0  0  0  0  0  0  0  0  0  0  0  0
   45.3557   30.5781   48.2162 H   0  0  0  0  0  0  0  0  0  0  0  0
   45.6405   31.6338   49.6374 H   0  0  0  0  0  0  0  0  0  0  0  0
   43.7848   32.5399   49.1512 H   0  0  0  0  0  0  0  0  0  0  0  0
  1  7  1  0
  2  1  1  0
  2  3  2  0
  3  4  1  0
  4  6  1  0
  4  5  2  0
  6 16  1  0
  7  8  2  0
  7  6  1  0
  9  1  1  0
 10 11  2  0
 10  9  1  0
 12 11  1  0
 13 12  2  0
 14 13  1  0
 14 15  2  0
 15 10  1  0
 16 17  1  0
 16 18  1  0
 19 18  1  0
  2 20  1  0
  3 21  1  0
  9 22  1  0
  9 23  1  0
 11 24  1  0
 12 25  1  0
 14 26  1  0
 16 27  1  6
 17 28  1  0
 17 29  1  0
 17 30  1  0
 18 31  1  0
 18 32  1  0
 19 33  1  0
M  ISO  8  20  14  21  14  22   8  23   8  24  14  25  14  26  14  27   8
M  ISO  6  28   8  29   8  30   8  31   8  32   8  33   3
M  END
>  <minimizedAffinity>  (1) 
-4.65359688

>  <minimizedRMSD>  (1) 
0.5981673

$$$$
