
     RDKit          3D

 42 44  0  0  1  0  0  0  0  0999 V2000
   45.7740   31.3780   44.1970 N   0  0  0  0  0  0  0  0  0  0  0  0
   45.8410   30.0530   44.2770 C   0  0  0  0  0  0  0  0  0  0  0  0
   44.9110   29.2830   43.5420 C   0  0  0  0  0  0  0  0  0  0  0  0
   43.9700   29.9200   42.7700 C   0  0  0  0  0  0  0  0  0  0  0  0
   43.1420   29.2570   42.1160 O   0  0  0  0  0  0  0  0  0  0  0  0
   43.9230   31.2560   42.7050 N   0  0  0  0  0  0  0  0  0  0  0  0
   44.8270   31.9410   43.4210 C   0  0  0  0  0  0  0  0  0  0  0  0
   44.7520   33.2040   43.3350 O   0  0  0  0  0  0  0  0  0  0  0  0
   46.6810   32.2630   44.9100 C   0  0  0  0  0  0  0  0  0  0  0  0
   46.6670   32.0190   46.3700 C   0  0  0  0  0  0  0  0  0  0  0  0
   45.6720   32.6180   47.1180 C   0  0  0  0  0  0  0  0  0  0  0  0
   45.6620   32.3860   48.4940 C   0  0  0  0  0  0  0  0  0  0  0  0
   46.6250   31.5880   49.0320 N   0  0  0  0  0  0  0  0  0  0  0  0
   47.5830   31.0200   48.2600 C   0  0  0  0  0  0  0  0  0  0  0  0
   47.6050   31.2320   46.9470 N   0  0  0  0  0  0  0  0  0  0  0  0
   42.9380   31.9510   41.8940 C   0  0  2  0  0  0  0  0  0  0  0  0
   41.5440   31.4400   42.0720 C   0  0  0  0  0  0  0  0  0  0  0  0
   43.2550   31.8950   40.4140 C   0  0  0  0  0  0  0  0  0  0  0  0
   42.7560   33.1180   39.7630 N   0  0  0  0  0  0  0  0  0  0  0  0
   42.9180   34.3760   40.1870 C   0  0  0  0  0  0  0  0  0  0  0  0
   42.3760   35.4070   39.4460 C   0  0  0  0  0  0  0  0  0  0  0  0
   41.6700   35.2040   38.2780 C   0  0  0  0  0  0  0  0  0  0  0  0
   41.2170   36.1880   37.6720 O   0  0  0  0  0  0  0  0  0  0  0  0
   41.5300   33.9220   37.8870 N   0  0  0  0  0  0  0  0  0  0  0  0
   42.0610   32.9350   38.6170 C   0  0  0  0  0  0  0  0  0  0  0  0
   41.8750   31.7550   38.1630 O   0  0  0  0  0  0  0  0  0  0  0  0
   46.6040   29.5659   44.9020 H   0  0  0  0  0  0  0  0  0  0  0  0
   44.9405   28.1843   43.5877 H   0  0  0  0  0  0  0  0  0  0  0  0
   47.7020   32.1020   44.5336 H   0  0  0  0  0  0  0  0  0  0  0  0
   46.3493   33.2974   44.7371 H   0  0  0  0  0  0  0  0  0  0  0  0
   44.9123   33.2571   46.6443 H   0  0  0  0  0  0  0  0  0  0  0  0
   44.8898   32.8398   49.1326 H   0  0  0  0  0  0  0  0  0  0  0  0
   48.3480   30.3790   48.7225 H   0  0  0  0  0  0  0  0  0  0  0  0
   42.9924   32.9880   42.2569 H   0  0  0  0  0  0  0  0  0  0  0  0
   41.3181   31.3572   43.1454 H   0  0  0  0  0  0  0  0  0  0  0  0
   40.8351   32.1367   41.6008 H   0  0  0  0  0  0  0  0  0  0  0  0
   41.4533   30.4502   41.6008 H   0  0  0  0  0  0  0  0  0  0  0  0
   44.3436   31.8221   40.2738 H   0  0  0  0  0  0  0  0  0  0  0  0
   42.7701   31.0150   39.9662 H   0  0  0  0  0  0  0  0  0  0  0  0
   43.4747   34.5860   41.1122 H   0  0  0  0  0  0  0  0  0  0  0  0
   42.5133   36.4382   39.8033 H   0  0  0  0  0  0  0  0  0  0  0  0
   41.0128   33.7017   37.0239 H   0  0  0  0  0  0  0  0  0  0  0  0
  1  2  1  0
  1  9  1  0
  3  2  2  0
  4  3  1  0
  5  4  2  0
  6  4  1  0
  6  7  1  0
  7  1  1  0
  8  7  2  0
  9 10  1  0
 10 15  1  0
 10 11  2  0
 11 12  1  0
 12 13  2  0
 14 13  1  0
 15 14  2  0
 16 17  1  0
 16  6  1  0
 18 16  1  0
 19 20  1  0
 19 18  1  0
 21 20  2  0
 22 21  1  0
 23 22  2  0
 24 22  1  0
 24 25  1  0
 25 19  1  0
 26 25  2  0
  2 27  1  0
  3 28  1  0
  9 29  1  0
  9 30  1  0
 11 31  1  0
 12 32  1  0
 14 33  1  0
 16 34  1  1
 17 35  1  0
 17 36  1  0
 17 37  1  0
 18 38  1  0
 18 39  1  0
 20 40  1  0
 21 41  1  0
 24 42  1  0
M  ISO  8  27  14  28  14  29   8  30   8  31  14  32  14  33  14  34   8
M  ISO  8  35   8  36   8  37   8  38   8  39   8  40  14  41  14  42   9
M  END
>  <minimizedAffinity>  (1) 
-4.63238716

>  <minimizedRMSD>  (1) 
8.83793259

$$$$
