
     RDKit          3D

 45 47  0  0  1  0  0  0  0  0999 V2000
   46.7930   32.2800   41.1510 N   0  0  0  0  0  0  0  0  0  0  0  0
   45.6920   32.3210   40.4220 C   0  0  0  0  0  0  0  0  0  0  0  0
   44.6850   31.3730   40.6750 C   0  0  0  0  0  0  0  0  0  0  0  0
   44.8700   30.4370   41.6640 C   0  0  0  0  0  0  0  0  0  0  0  0
   43.9800   29.5890   41.8970 O   0  0  0  0  0  0  0  0  0  0  0  0
   46.0050   30.4140   42.3970 N   0  0  0  0  0  0  0  0  0  0  0  0
   46.9160   31.3500   42.0960 C   0  0  0  0  0  0  0  0  0  0  0  0
   47.9720   31.2910   42.8110 O   0  0  0  0  0  0  0  0  0  0  0  0
   47.8990   33.2170   40.9720 C   0  0  0  0  0  0  0  0  0  0  0  0
   48.3300   33.3060   39.5600 C   0  0  0  0  0  0  0  0  0  0  0  0
   49.0240   32.2380   39.0250 C   0  0  0  0  0  0  0  0  0  0  0  0
   49.4290   32.3200   37.6920 C   0  0  0  0  0  0  0  0  0  0  0  0
   49.1250   33.4430   36.9850 N   0  0  0  0  0  0  0  0  0  0  0  0
   48.4400   34.4760   37.5500 C   0  0  0  0  0  0  0  0  0  0  0  0
   48.0500   34.4040   38.8170 N   0  0  0  0  0  0  0  0  0  0  0  0
   46.2000   29.4260   43.4450 C   0  0  2  0  0  0  0  0  0  0  0  0
   46.5720   28.0820   42.9430 C   0  0  0  0  0  0  0  0  0  0  0  0
   44.9950   29.3010   44.3470 C   0  0  0  0  0  0  0  0  0  0  0  0
   45.2320   29.7040   45.7080 N   0  0  0  0  0  0  0  0  0  0  0  0
   45.9540   30.8270   45.9450 C   0  0  0  0  0  0  0  0  0  0  0  0
   46.2730   31.3340   47.1870 C   0  0  0  0  0  0  0  0  0  0  0  0
   47.0720   32.5740   47.3490 C   0  0  0  0  0  0  0  0  0  0  0  0
   45.8270   30.6520   48.3010 C   0  0  0  0  0  0  0  0  0  0  0  0
   46.0590   31.0240   49.4730 O   0  0  0  0  0  0  0  0  0  0  0  0
   45.1100   29.5390   48.0640 N   0  0  0  0  0  0  0  0  0  0  0  0
   44.8260   29.0850   46.8300 C   0  0  0  0  0  0  0  0  0  0  0  0
   44.1470   28.0350   46.6930 O   0  0  0  0  0  0  0  0  0  0  0  0
   45.5660   33.0793   39.6352 H   0  0  0  0  0  0  0  0  0  0  0  0
   43.7561   31.3805   40.0858 H   0  0  0  0  0  0  0  0  0  0  0  0
   47.5773   34.2138   41.3081 H   0  0  0  0  0  0  0  0  0  0  0  0
   48.7513   32.8519   41.5639 H   0  0  0  0  0  0  0  0  0  0  0  0
   49.2507   31.3490   39.6319 H   0  0  0  0  0  0  0  0  0  0  0  0
   49.9827   31.4939   37.2220 H   0  0  0  0  0  0  0  0  0  0  0  0
   48.2094   35.3720   36.9550 H   0  0  0  0  0  0  0  0  0  0  0  0
   47.0516   29.8134   44.0235 H   0  0  0  0  0  0  0  0  0  0  0  0
   46.7577   27.4110   43.7946 H   0  0  0  0  0  0  0  0  0  0  0  0
   45.7516   27.6792   42.3309 H   0  0  0  0  0  0  0  0  0  0  0  0
   47.4828   28.1584   42.3309 H   0  0  0  0  0  0  0  0  0  0  0  0
   44.1904   29.9288   43.9366 H   0  0  0  0  0  0  0  0  0  0  0  0
   44.7308   28.2336   44.3751 H   0  0  0  0  0  0  0  0  0  0  0  0
   46.3176   31.3831   45.0684 H   0  0  0  0  0  0  0  0  0  0  0  0
   47.2081   32.7852   48.4199 H   0  0  0  0  0  0  0  0  0  0  0  0
   48.0551   32.4415   46.8736 H   0  0  0  0  0  0  0  0  0  0  0  0
   46.5451   33.4144   46.8736 H   0  0  0  0  0  0  0  0  0  0  0  0
   44.7591   29.0049   48.8718 H   0  0  0  0  0  0  0  0  0  0  0  0
  1  7  1  0
  2  3  2  0
  2  1  1  0
  3  4  1  0
  4  5  2  0
  4  6  1  0
  6 16  1  0
  7  6  1  0
  7  8  2  0
  9  1  1  0
 10  9  1  0
 11 10  2  0
 12 11  1  0
 13 14  1  0
 13 12  2  0
 14 15  2  0
 15 10  1  0
 16 18  1  0
 17 16  1  0
 18 19  1  0
 19 20  1  0
 19 26  1  0
 20 21  2  0
 21 22  1  0
 21 23  1  0
 23 24  2  0
 25 23  1  0
 26 25  1  0
 27 26  2  0
  2 28  1  0
  3 29  1  0
  9 30  1  0
  9 31  1  0
 11 32  1  0
 12 33  1  0
 14 34  1  0
 16 35  1  1
 17 36  1  0
 17 37  1  0
 17 38  1  0
 18 39  1  0
 18 40  1  0
 20 41  1  0
 22 42  1  0
 22 43  1  0
 22 44  1  0
 25 45  1  0
M  ISO  8  28  14  29  14  30   8  31   8  32  14  33  14  34  14  35   8
M  ISO  8  36   8  37   8  38   8  39   8  40   8  41  14  42   8  43   8
M  ISO  2  44   8  45   9
M  END
>  <minimizedAffinity>  (1) 
-4.08393621

>  <minimizedRMSD>  (1) 
4.47099304

$$$$
