
     RDKit          3D

 36 38  0  0  1  0  0  0  0  0999 V2000
   45.0430   33.5590   42.3290 C   0  0  2  0  0  0  0  0  0  0  0  0
   44.2340   34.7150   41.9360 C   0  0  2  0  0  0  0  0  0  0  0  0
   44.2430   35.7120   43.0960 C   0  0  0  0  0  0  0  0  0  0  0  0
   45.1780   35.1650   44.1450 C   0  0  0  0  0  0  0  0  0  0  0  0
   45.1860   33.7050   43.8690 C   0  0  0  0  0  0  0  0  0  0  0  0
   46.4200   33.4880   41.8170 C   0  0  0  0  0  0  0  0  0  0  0  0
   46.7760   34.2940   40.7220 C   0  0  0  0  0  0  0  0  0  0  0  0
   48.0840   34.2550   40.2330 C   0  0  0  0  0  0  0  0  0  0  0  0
   48.9530   33.4100   40.8720 N   0  0  0  0  0  0  0  0  0  0  0  0
   48.5780   32.6420   41.9300 C   0  0  0  0  0  0  0  0  0  0  0  0
   47.3280   32.6880   42.3860 N   0  0  0  0  0  0  0  0  0  0  0  0
   42.8140   34.3810   41.7560 N   0  0  0  0  0  0  0  0  0  0  0  0
   42.6610   33.1660   40.9800 C   0  0  0  0  0  0  0  0  0  0  0  0
   41.3640   33.2710   40.2170 C   0  0  0  0  0  0  0  0  0  0  0  0
   41.4700   34.1690   39.1360 O   0  0  0  0  0  0  0  0  0  0  0  0
   42.4460   35.1070   39.4710 C   0  0  0  0  0  0  0  0  0  0  0  0
   42.2360   35.4540   40.9320 C   0  0  0  0  0  0  0  0  0  0  0  0
   44.5355   32.6687   41.9293 H   0  0  0  0  0  0  0  0  0  0  0  0
   44.6585   35.0946   40.9949 H   0  0  0  0  0  0  0  0  0  0  0  0
   44.5993   36.6927   42.7477 H   0  0  0  0  0  0  0  0  0  0  0  0
   43.2307   35.8448   43.5054 H   0  0  0  0  0  0  0  0  0  0  0  0
   46.1858   35.5921   44.0357 H   0  0  0  0  0  0  0  0  0  0  0  0
   44.8627   35.4072   45.1706 H   0  0  0  0  0  0  0  0  0  0  0  0
   44.3436   33.2151   44.3791 H   0  0  0  0  0  0  0  0  0  0  0  0
   46.1090   33.2311   44.2344 H   0  0  0  0  0  0  0  0  0  0  0  0
   46.0292   34.9515   40.2529 H   0  0  0  0  0  0  0  0  0  0  0  0
   48.4002   34.8713   39.3785 H   0  0  0  0  0  0  0  0  0  0  0  0
   49.3117   31.9790   42.4117 H   0  0  0  0  0  0  0  0  0  0  0  0
   43.5014   33.0612   40.2781 H   0  0  0  0  0  0  0  0  0  0  0  0
   42.6505   32.2857   41.6395 H   0  0  0  0  0  0  0  0  0  0  0  0
   41.0957   32.2768   39.8303 H   0  0  0  0  0  0  0  0  0  0  0  0
   40.5906   33.6473   40.9027 H   0  0  0  0  0  0  0  0  0  0  0  0
   43.4487   34.6795   39.3235 H   0  0  0  0  0  0  0  0  0  0  0  0
   42.3673   36.0025   38.8371 H   0  0  0  0  0  0  0  0  0  0  0  0
   42.7342   36.4073   41.1620 H   0  0  0  0  0  0  0  0  0  0  0  0
   41.1613   35.5539   41.1442 H   0  0  0  0  0  0  0  0  0  0  0  0
  1  5  1  0
  2  1  1  0
  2  3  1  0
  3  4  1  0
  5  4  1  0
  6  1  1  0
  6 11  1  0
  7  6  2  0
  8  7  1  0
  8  9  2  0
  9 10  1  0
 10 11  2  0
 12  2  1  0
 13 12  1  0
 14 13  1  0
 15 16  1  0
 15 14  1  0
 16 17  1  0
 17 12  1  0
  1 18  1  1
  2 19  1  6
  3 20  1  0
  3 21  1  0
  4 22  1  0
  4 23  1  0
  5 24  1  0
  5 25  1  0
  7 26  1  0
  8 27  1  0
 10 28  1  0
 13 29  1  0
 13 30  1  0
 14 31  1  0
 14 32  1  0
 16 33  1  0
 16 34  1  0
 17 35  1  0
 17 36  1  0
M  ISO  8  18  13  19  13  20  13  21  13  22  13  23  13  24  13  25  13
M  ISO  8  26  14  27  14  28  14  29  13  30  13  31  13  32  13  33  13
M  ISO  3  34  13  35  13  36  13
M  END
>  <minimizedAffinity>  (1) 
-4.05406904

>  <minimizedRMSD>  (1) 
5.27243376

$$$$
