
     RDKit          3D

 48 50  0  0  1  0  0  0  0  0999 V2000
   45.7970   32.7770   43.1840 N   0  0  0  0  0  0  0  0  0  0  0  0
   44.7030   32.0580   42.9420 C   0  0  0  0  0  0  0  0  0  0  0  0
   44.6930   30.6990   43.3190 C   0  0  0  0  0  0  0  0  0  0  0  0
   45.7940   30.1500   43.9190 C   0  0  0  0  0  0  0  0  0  0  0  0
   45.7870   28.9580   44.2500 O   0  0  0  0  0  0  0  0  0  0  0  0
   46.8850   30.8880   44.1540 N   0  0  0  0  0  0  0  0  0  0  0  0
   46.8360   32.1800   43.7720 C   0  0  0  0  0  0  0  0  0  0  0  0
   47.8860   32.8550   44.0090 O   0  0  0  0  0  0  0  0  0  0  0  0
   45.9100   34.1810   42.8350 C   0  0  0  0  0  0  0  0  0  0  0  0
   46.7870   34.3850   41.6460 C   0  0  0  0  0  0  0  0  0  0  0  0
   47.8800   35.2630   41.7810 C   0  0  0  0  0  0  0  0  0  0  0  0
   48.6850   35.4400   40.6630 C   0  0  0  0  0  0  0  0  0  0  0  0
   48.3780   34.7660   39.5120 N   0  0  0  0  0  0  0  0  0  0  0  0
   47.3110   33.9300   39.4330 C   0  0  0  0  0  0  0  0  0  0  0  0
   46.5320   33.7480   40.4890 N   0  0  0  0  0  0  0  0  0  0  0  0
   48.0530   30.3170   44.7890 C   0  0  2  0  0  0  0  0  0  0  0  0
   48.6590   29.1850   44.0500 C   0  0  0  0  0  0  0  0  0  0  0  0
   47.8160   29.8820   46.1980 C   0  0  0  0  0  0  0  0  0  0  0  0
   47.4610   31.0280   47.1220 C   0  0  2  0  0  0  0  0  0  0  0  0
   48.3150   31.0450   48.3950 C   0  0  0  0  0  0  0  0  0  0  0  0
   46.8740   30.7690   48.4480 C   0  0  1  0  0  0  0  0  0  0  0  0
   46.0010   31.8690   49.0130 C   0  0  0  0  0  0  0  0  0  0  0  0
   44.8160   31.2810   49.7700 C   0  0  0  0  0  0  0  0  0  0  0  0
   45.4100   32.6030   47.8100 C   0  0  0  0  0  0  0  0  0  0  0  0
   43.8263   32.5138   42.4587 H   0  0  0  0  0  0  0  0  0  0  0  0
   43.8022   30.0815   43.1312 H   0  0  0  0  0  0  0  0  0  0  0  0
   44.9076   34.5743   42.6103 H   0  0  0  0  0  0  0  0  0  0  0  0
   46.3594   34.7112   43.6876 H   0  0  0  0  0  0  0  0  0  0  0  0
   48.0864   35.7841   42.7275 H   0  0  0  0  0  0  0  0  0  0  0  0
   49.5555   36.1113   40.7020 H   0  0  0  0  0  0  0  0  0  0  0  0
   47.0933   33.4037   38.4919 H   0  0  0  0  0  0  0  0  0  0  0  0
   48.7619   31.1581   44.7818 H   0  0  0  0  0  0  0  0  0  0  0  0
   49.0531   28.4487   44.7659 H   0  0  0  0  0  0  0  0  0  0  0  0
   47.8951   28.7090   43.4177 H   0  0  0  0  0  0  0  0  0  0  0  0
   49.4787   29.5568   43.4177 H   0  0  0  0  0  0  0  0  0  0  0  0
   46.9890   29.1568   46.2060 H   0  0  0  0  0  0  0  0  0  0  0  0
   48.7538   29.4415   46.5673 H   0  0  0  0  0  0  0  0  0  0  0  0
   47.1734   31.7024   46.3020 H   0  0  0  0  0  0  0  0  0  0  0  0
   49.0401   30.2401   48.5858 H   0  0  0  0  0  0  0  0  0  0  0  0
   48.9948   31.7645   48.8749 H   0  0  0  0  0  0  0  0  0  0  0  0
   46.2716   29.9512   48.8702 H   0  0  0  0  0  0  0  0  0  0  0  0
   46.5946   32.5077   49.6837 H   0  0  0  0  0  0  0  0  0  0  0  0
   44.9923   31.3685   50.8522 H   0  0  0  0  0  0  0  0  0  0  0  0
   43.9010   31.8296   49.5020 H   0  0  0  0  0  0  0  0  0  0  0  0
   44.6994   30.2205   49.5020 H   0  0  0  0  0  0  0  0  0  0  0  0
   44.7562   33.4150   48.1609 H   0  0  0  0  0  0  0  0  0  0  0  0
   46.2238   33.0244   47.2016 H   0  0  0  0  0  0  0  0  0  0  0  0
   44.8246   31.8979   47.2016 H   0  0  0  0  0  0  0  0  0  0  0  0
  1  7  1  0
  2  1  1  0
  2  3  2  0
  3  4  1  0
  4  6  1  0
  4  5  2  0
  6 16  1  0
  7  8  2  0
  7  6  1  0
  9  1  1  0
 10 11  2  0
 10  9  1  0
 12 11  1  0
 13 12  2  0
 14 13  1  0
 14 15  2  0
 15 10  1  0
 16 18  1  0
 17 16  1  0
 18 19  1  0
 19 20  1  0
 19 21  1  0
 20 21  1  0
 21 22  1  0
 22 23  1  0
 24 22  1  0
  2 25  1  0
  3 26  1  0
  9 27  1  0
  9 28  1  0
 11 29  1  0
 12 30  1  0
 14 31  1  0
 16 32  1  1
 17 33  1  0
 17 34  1  0
 17 35  1  0
 18 36  1  0
 18 37  1  0
 19 38  1  6
 20 39  1  0
 20 40  1  0
 21 41  1  6
 22 42  1  0
 23 43  1  0
 23 44  1  0
 23 45  1  0
 24 46  1  0
 24 47  1  0
 24 48  1  0
M  ISO  8  25  14  26  14  27   8  28   8  29  14  30  14  31  14  32   8
M  ISO  8  33   8  34   8  35   8  36   8  37   8  38  13  39  13  40  13
M  ISO  8  41  13  42   8  43   8  44   8  45   8  46   8  47   8  48   8
M  END
>  <minimizedAffinity>  (1) 
-4.37175751

>  <minimizedRMSD>  (1) 
1.59796584

$$$$
