
     RDKit          3D

 46 49  0  0  1  0  0  0  0  0999 V2000
   43.3470   33.0880   41.4710 N   0  0  0  0  0  0  0  0  0  0  0  0
   43.2920   34.4020   41.5850 C   0  0  0  0  0  0  0  0  0  0  0  0
   42.8640   35.1570   40.4680 C   0  0  0  0  0  0  0  0  0  0  0  0
   42.5200   34.5050   39.3100 C   0  0  0  0  0  0  0  0  0  0  0  0
   42.1440   35.1640   38.3280 O   0  0  0  0  0  0  0  0  0  0  0  0
   42.5840   33.1760   39.2240 N   0  0  0  0  0  0  0  0  0  0  0  0
   42.9980   32.5130   40.3160 C   0  0  0  0  0  0  0  0  0  0  0  0
   43.0490   31.2420   40.2020 O   0  0  0  0  0  0  0  0  0  0  0  0
   43.7760   32.2360   42.5720 C   0  0  0  0  0  0  0  0  0  0  0  0
   45.1680   32.5480   43.0200 C   0  0  0  0  0  0  0  0  0  0  0  0
   46.2540   32.1420   42.2400 C   0  0  0  0  0  0  0  0  0  0  0  0
   47.5240   32.4530   42.6960 C   0  0  0  0  0  0  0  0  0  0  0  0
   47.6550   33.1310   43.8670 N   0  0  0  0  0  0  0  0  0  0  0  0
   46.5740   33.5070   44.5930 C   0  0  0  0  0  0  0  0  0  0  0  0
   45.3490   33.2220   44.1810 N   0  0  0  0  0  0  0  0  0  0  0  0
   42.2230   32.4910   38.0050 C   0  0  2  0  0  0  0  0  0  0  0  0
   40.9690   31.7020   38.0740 C   0  0  0  0  0  0  0  0  0  0  0  0
   43.3080   31.5910   37.4770 C   0  0  0  0  0  0  0  0  0  0  0  0
   44.5820   32.3100   37.1460 C   0  0  2  0  0  0  0  0  0  0  0  0
   45.6630   31.3680   36.5990 C   0  0  0  0  0  0  0  0  0  0  0  0
   45.8070   32.0650   37.9030 C   0  0  1  0  0  0  0  0  0  0  0  0
   46.8590   33.0610   37.9680 N   0  0  0  0  0  0  0  0  0  0  0  0
   47.5680   33.5880   36.9530 C   0  0  0  0  0  0  0  0  0  0  0  0
   48.4820   34.5160   37.4640 C   0  0  0  0  0  0  0  0  0  0  0  0
   48.2990   34.5290   38.8060 N   0  0  0  0  0  0  0  0  0  0  0  0
   47.3160   33.6470   39.1030 C   0  0  0  0  0  0  0  0  0  0  0  0
   43.5723   34.8979   42.5260 H   0  0  0  0  0  0  0  0  0  0  0  0
   42.8075   36.2540   40.5266 H   0  0  0  0  0  0  0  0  0  0  0  0
   43.0903   32.3811   43.4198 H   0  0  0  0  0  0  0  0  0  0  0  0
   43.7612   31.1946   42.2180 H   0  0  0  0  0  0  0  0  0  0  0  0
   46.1054   31.5949   41.2974 H   0  0  0  0  0  0  0  0  0  0  0  0
   48.4128   32.1561   42.1198 H   0  0  0  0  0  0  0  0  0  0  0  0
   46.7165   34.0555   45.5358 H   0  0  0  0  0  0  0  0  0  0  0  0
   42.0625   33.3310   37.3132 H   0  0  0  0  0  0  0  0  0  0  0  0
   40.6998   31.5326   39.1270 H   0  0  0  0  0  0  0  0  0  0  0  0
   40.1603   32.2543   37.5731 H   0  0  0  0  0  0  0  0  0  0  0  0
   41.1169   30.7339   37.5731 H   0  0  0  0  0  0  0  0  0  0  0  0
   43.5277   30.8286   38.2389 H   0  0  0  0  0  0  0  0  0  0  0  0
   42.9339   31.1533   36.5397 H   0  0  0  0  0  0  0  0  0  0  0  0
   44.0696   33.2415   36.8634 H   0  0  0  0  0  0  0  0  0  0  0  0
   45.4891   30.2824   36.5651 H   0  0  0  0  0  0  0  0  0  0  0  0
   46.2521   31.2941   35.6730 H   0  0  0  0  0  0  0  0  0  0  0  0
   45.9697   31.7666   38.9492 H   0  0  0  0  0  0  0  0  0  0  0  0
   47.4481   33.3302   35.8904 H   0  0  0  0  0  0  0  0  0  0  0  0
   49.2046   35.1152   36.8906 H   0  0  0  0  0  0  0  0  0  0  0  0
   46.9426   33.4363   40.1160 H   0  0  0  0  0  0  0  0  0  0  0  0
  1  2  1  0
  1  9  1  0
  3  2  2  0
  4  3  1  0
  5  4  2  0
  6  4  1  0
  6  7  1  0
  7  1  1  0
  8  7  2  0
  9 10  1  0
 10 15  2  0
 11 12  2  0
 11 10  1  0
 12 13  1  0
 13 14  2  0
 15 14  1  0
 16 17  1  0
 16  6  1  0
 18 16  1  0
 19 18  1  0
 19 21  1  0
 20 19  1  0
 20 21  1  0
 21 22  1  0
 22 26  1  0
 23 24  2  0
 23 22  1  0
 24 25  1  0
 25 26  2  0
  2 27  1  0
  3 28  1  0
  9 29  1  0
  9 30  1  0
 11 31  1  0
 12 32  1  0
 14 33  1  0
 16 34  1  6
 17 35  1  0
 17 36  1  0
 17 37  1  0
 18 38  1  0
 18 39  1  0
 19 40  1  6
 20 41  1  0
 20 42  1  0
 21 43  1  1
 23 44  1  0
 24 45  1  0
 26 46  1  0
M  ISO  8  27  14  28  14  29   8  30   8  31  14  32  14  33  14  34   8
M  ISO  8  35   8  36   8  37   8  38   8  39   8  40  13  41  13  42  13
M  ISO  4  43  13  44  14  45  14  46  14
M  END
>  <minimizedAffinity>  (1) 
-4.3066864

>  <minimizedRMSD>  (1) 
8.90867424

$$$$
