
     RDKit          3D

 46 49  0  0  1  0  0  0  0  0999 V2000
   45.8030   32.8420   43.1680 N   0  0  0  0  0  0  0  0  0  0  0  0
   44.6300   32.2820   42.9380 C   0  0  0  0  0  0  0  0  0  0  0  0
   44.4780   30.8990   43.2020 C   0  0  0  0  0  0  0  0  0  0  0  0
   45.5400   30.1880   43.6850 C   0  0  0  0  0  0  0  0  0  0  0  0
   45.4060   28.9750   43.9170 O   0  0  0  0  0  0  0  0  0  0  0  0
   46.7120   30.7730   43.9100 N   0  0  0  0  0  0  0  0  0  0  0  0
   46.8110   32.0940   43.6430 C   0  0  0  0  0  0  0  0  0  0  0  0
   47.9350   32.6180   43.8670 O   0  0  0  0  0  0  0  0  0  0  0  0
   46.0740   34.2630   42.9320 C   0  0  0  0  0  0  0  0  0  0  0  0
   46.9170   34.4730   41.7280 C   0  0  0  0  0  0  0  0  0  0  0  0
   48.0090   35.3280   41.8070 C   0  0  0  0  0  0  0  0  0  0  0  0
   48.7760   35.5000   40.6590 C   0  0  0  0  0  0  0  0  0  0  0  0
   48.4300   34.8370   39.5320 N   0  0  0  0  0  0  0  0  0  0  0  0
   47.3500   34.0030   39.4850 C   0  0  0  0  0  0  0  0  0  0  0  0
   46.6110   33.8320   40.5750 N   0  0  0  0  0  0  0  0  0  0  0  0
   47.8460   30.0190   44.4240 C   0  0  2  0  0  0  0  0  0  0  0  0
   48.2960   28.9100   43.5530 C   0  0  0  0  0  0  0  0  0  0  0  0
   47.6120   29.4750   45.7940 C   0  0  0  0  0  0  0  0  0  0  0  0
   47.6830   30.5160   46.8840 C   0  0  2  0  0  0  0  0  0  0  0  0
   48.6370   30.1370   48.0000 C   0  0  0  0  0  0  0  0  0  0  0  0
   47.1730   30.2570   48.2270 C   0  0  1  0  0  0  0  0  0  0  0  0
   46.6220   31.3500   49.1090 C   0  0  0  0  0  0  0  0  0  0  0  0
   45.1740   31.3290   49.5170 C   0  0  0  0  0  0  0  0  0  0  0  0
   45.7070   32.3900   48.5750 C   0  0  0  0  0  0  0  0  0  0  0  0
   43.7895   32.8762   42.5500 H   0  0  0  0  0  0  0  0  0  0  0  0
   43.5138   30.4018   43.0199 H   0  0  0  0  0  0  0  0  0  0  0  0
   45.1180   34.7891   42.7930 H   0  0  0  0  0  0  0  0  0  0  0  0
   46.6195   34.6554   43.8029 H   0  0  0  0  0  0  0  0  0  0  0  0
   48.2581   35.8498   42.7427 H   0  0  0  0  0  0  0  0  0  0  0  0
   49.6515   36.1659   40.6678 H   0  0  0  0  0  0  0  0  0  0  0  0
   47.0944   33.4776   38.5530 H   0  0  0  0  0  0  0  0  0  0  0  0
   48.6461   30.7733   44.4539 H   0  0  0  0  0  0  0  0  0  0  0  0
   48.6369   28.0698   44.1758 H   0  0  0  0  0  0  0  0  0  0  0  0
   47.4605   28.5803   42.9180 H   0  0  0  0  0  0  0  0  0  0  0  0
   49.1250   29.2557   42.9180 H   0  0  0  0  0  0  0  0  0  0  0  0
   46.6130   29.0152   45.8184 H   0  0  0  0  0  0  0  0  0  0  0  0
   48.4149   28.7496   45.9916 H   0  0  0  0  0  0  0  0  0  0  0  0
   47.5094   31.3495   46.1875 H   0  0  0  0  0  0  0  0  0  0  0  0
   49.1203   29.1489   48.0054 H   0  0  0  0  0  0  0  0  0  0  0  0
   49.5425   30.5745   48.4458 H   0  0  0  0  0  0  0  0  0  0  0  0
   46.3896   29.5932   48.6216 H   0  0  0  0  0  0  0  0  0  0  0  0
   47.5836   31.3800   49.6424 H   0  0  0  0  0  0  0  0  0  0  0  0
   44.5048   30.5412   49.1409 H   0  0  0  0  0  0  0  0  0  0  0  0
   44.6281   31.3307   50.4720 H   0  0  0  0  0  0  0  0  0  0  0  0
   45.7999   33.4315   48.9165 H   0  0  0  0  0  0  0  0  0  0  0  0
   45.4352   32.7433   47.5694 H   0  0  0  0  0  0  0  0  0  0  0  0
  1  7  1  0
  2  1  1  0
  2  3  2  0
  3  4  1  0
  4  6  1  0
  4  5  2  0
  6 16  1  0
  7  8  2  0
  7  6  1  0
  9  1  1  0
 10 11  2  0
 10  9  1  0
 12 11  1  0
 13 12  2  0
 14 13  1  0
 14 15  2  0
 15 10  1  0
 16 18  1  0
 17 16  1  0
 18 19  1  0
 19 20  1  0
 19 21  1  0
 20 21  1  0
 21 22  1  0
 22 23  1  0
 24 22  1  0
 24 23  1  0
  2 25  1  0
  3 26  1  0
  9 27  1  0
  9 28  1  0
 11 29  1  0
 12 30  1  0
 14 31  1  0
 16 32  1  1
 17 33  1  0
 17 34  1  0
 17 35  1  0
 18 36  1  0
 18 37  1  0
 19 38  1  6
 20 39  1  0
 20 40  1  0
 21 41  1  6
 22 42  1  0
 23 43  1  0
 23 44  1  0
 24 45  1  0
 24 46  1  0
M  ISO  8  25  14  26  14  27   8  28   8  29  14  30  14  31  14  32   8
M  ISO  8  33   8  34   8  35   8  36   8  37   8  38  13  39  13  40  13
M  ISO  6  41  13  42  13  43  13  44  13  45  13  46  13
M  END
>  <minimizedAffinity>  (1) 
-4.30188179

>  <minimizedRMSD>  (1) 
1.90039337

$$$$
