
     RDKit          3D

 42 44  0  0  1  0  0  0  0  0999 V2000
   45.5680   32.7850   43.2690 N   0  0  0  0  0  0  0  0  0  0  0  0
   44.5790   32.0100   42.8540 C   0  0  0  0  0  0  0  0  0  0  0  0
   44.5610   30.6480   43.2770 C   0  0  0  0  0  0  0  0  0  0  0  0
   45.5620   30.1960   44.0920 C   0  0  0  0  0  0  0  0  0  0  0  0
   45.5470   29.0100   44.4610 O   0  0  0  0  0  0  0  0  0  0  0  0
   46.5470   31.0030   44.4940 N   0  0  0  0  0  0  0  0  0  0  0  0
   46.5090   32.2680   44.0630 C   0  0  0  0  0  0  0  0  0  0  0  0
   47.4650   33.0130   44.4650 O   0  0  0  0  0  0  0  0  0  0  0  0
   45.6670   34.1890   42.8860 C   0  0  0  0  0  0  0  0  0  0  0  0
   46.6230   34.3880   41.7550 C   0  0  0  0  0  0  0  0  0  0  0  0
   47.7340   35.2250   41.9610 C   0  0  0  0  0  0  0  0  0  0  0  0
   48.6000   35.3840   40.8850 C   0  0  0  0  0  0  0  0  0  0  0  0
   48.3360   34.7390   39.7140 N   0  0  0  0  0  0  0  0  0  0  0  0
   47.2540   33.9440   39.5670 C   0  0  0  0  0  0  0  0  0  0  0  0
   46.4070   33.7730   40.5820 N   0  0  0  0  0  0  0  0  0  0  0  0
   47.6080   30.5170   45.3590 C   0  0  2  0  0  0  0  0  0  0  0  0
   48.5100   29.5160   44.7190 C   0  0  0  0  0  0  0  0  0  0  0  0
   47.1120   29.9320   46.6430 C   0  0  0  0  0  0  0  0  0  0  0  0
   46.6690   30.9740   47.6350 C   0  0  2  0  0  0  0  0  0  0  0  0
   47.5130   30.9730   48.9070 C   0  0  0  0  0  0  0  0  0  0  0  0
   46.0840   30.5890   48.9260 C   0  0  1  0  0  0  0  0  0  0  0  0
   45.0960   31.5350   49.5900 C   0  0  0  0  0  0  0  0  0  0  0  0
   43.7897   32.4066   42.1985 H   0  0  0  0  0  0  0  0  0  0  0  0
   43.7555   29.9725   42.9532 H   0  0  0  0  0  0  0  0  0  0  0  0
   44.6727   34.5456   42.5791 H   0  0  0  0  0  0  0  0  0  0  0  0
   46.0390   34.7551   43.7527 H   0  0  0  0  0  0  0  0  0  0  0  0
   47.9089   35.7279   42.9236 H   0  0  0  0  0  0  0  0  0  0  0  0
   49.4896   36.0242   40.9780 H   0  0  0  0  0  0  0  0  0  0  0  0
   47.0715   33.4368   38.6081 H   0  0  0  0  0  0  0  0  0  0  0  0
   48.1828   31.4314   45.5676 H   0  0  0  0  0  0  0  0  0  0  0  0
   49.0296   28.9394   45.4985 H   0  0  0  0  0  0  0  0  0  0  0  0
   47.9156   28.8340   44.0933 H   0  0  0  0  0  0  0  0  0  0  0  0
   49.2500   30.0365   44.0933 H   0  0  0  0  0  0  0  0  0  0  0  0
   46.2585   29.2745   46.4214 H   0  0  0  0  0  0  0  0  0  0  0  0
   47.9490   29.3817   47.0974 H   0  0  0  0  0  0  0  0  0  0  0  0
   46.3378   31.6786   46.8579 H   0  0  0  0  0  0  0  0  0  0  0  0
   48.2934   30.2118   49.0537 H   0  0  0  0  0  0  0  0  0  0  0  0
   48.1375   31.7070   49.4373 H   0  0  0  0  0  0  0  0  0  0  0  0
   45.5320   29.7050   49.2778 H   0  0  0  0  0  0  0  0  0  0  0  0
   45.1849   31.4499   50.6831 H   0  0  0  0  0  0  0  0  0  0  0  0
   45.3153   32.5685   49.2836 H   0  0  0  0  0  0  0  0  0  0  0  0
   44.0730   31.2710   49.2836 H   0  0  0  0  0  0  0  0  0  0  0  0
  1  7  1  0
  2  1  1  0
  2  3  2  0
  3  4  1  0
  4  5  2  0
  4  6  1  0
  6 16  1  0
  7  8  2  0
  7  6  1  0
  9  1  1  0
 10 11  2  0
 10  9  1  0
 12 11  1  0
 13 12  2  0
 14 13  1  0
 14 15  2  0
 15 10  1  0
 16 18  1  0
 17 16  1  0
 18 19  1  0
 19 20  1  0
 19 21  1  0
 20 21  1  0
 21 22  1  0
  2 23  1  0
  3 24  1  0
  9 25  1  0
  9 26  1  0
 11 27  1  0
 12 28  1  0
 14 29  1  0
 16 30  1  1
 17 31  1  0
 17 32  1  0
 17 33  1  0
 18 34  1  0
 18 35  1  0
 19 36  1  6
 20 37  1  0
 20 38  1  0
 21 39  1  6
 22 40  1  0
 22 41  1  0
 22 42  1  0
M  ISO  8  23  14  24  14  25   8  26   8  27  14  28  14  29  14  30   8
M  ISO  8  31   8  32   8  33   8  34   8  35   8  36  13  37  13  38  13
M  ISO  4  39  13  40   8  41   8  42   8
M  END
>  <minimizedAffinity>  (1) 
-4.25536871

>  <minimizedRMSD>  (1) 
0.953023136

$$$$
