
     RDKit          3D

 24 25  0  0  1  0  0  0  0  0999 V2000
   48.4310   33.3020   41.5150 C   0  0  2  0  0  0  0  0  0  0  0  0
   48.1720   34.2380   40.4260 C   0  0  2  0  0  0  0  0  0  0  0  0
   48.7690   35.5940   40.8140 C   0  0  0  0  0  0  0  0  0  0  0  0
   49.4480   35.4160   42.1470 C   0  0  0  0  0  0  0  0  0  0  0  0
   48.7940   34.2150   42.7220 C   0  0  0  0  0  0  0  0  0  0  0  0
   49.5690   32.3840   41.3850 C   0  0  0  0  0  0  0  0  0  0  0  0
   49.9910   32.0030   40.0780 C   0  0  0  0  0  0  0  0  0  0  0  0
   51.0830   31.1440   39.9600 C   0  0  0  0  0  0  0  0  0  0  0  0
   51.6810   30.7170   41.1120 N   0  0  0  0  0  0  0  0  0  0  0  0
   51.2460   31.1040   42.3440 C   0  0  0  0  0  0  0  0  0  0  0  0
   50.2060   31.9230   42.4650 N   0  0  0  0  0  0  0  0  0  0  0  0
   46.7680   34.4900   40.4400 O   0  0  0  0  0  0  0  0  0  0  0  0
   47.5420   32.6572   41.5785 H   0  0  0  0  0  0  0  0  0  0  0  0
   48.5639   33.8427   39.4772 H   0  0  0  0  0  0  0  0  0  0  0  0
   49.5010   35.9139   40.0578 H   0  0  0  0  0  0  0  0  0  0  0  0
   47.9850   36.3632   40.8744 H   0  0  0  0  0  0  0  0  0  0  0  0
   50.5276   35.2496   42.0173 H   0  0  0  0  0  0  0  0  0  0  0  0
   49.3536   36.3012   42.7931 H   0  0  0  0  0  0  0  0  0  0  0  0
   47.8849   34.5013   43.2711 H   0  0  0  0  0  0  0  0  0  0  0  0
   49.4560   33.6980   43.4323 H   0  0  0  0  0  0  0  0  0  0  0  0
   49.4686   32.3771   39.1852 H   0  0  0  0  0  0  0  0  0  0  0  0
   51.4500   30.8215   38.9745 H   0  0  0  0  0  0  0  0  0  0  0  0
   51.7591   30.7361   43.2448 H   0  0  0  0  0  0  0  0  0  0  0  0
   46.4522   34.5467   41.3766 H   0  0  0  0  0  0  0  0  0  0  0  0
  1  5  1  0
  2 12  1  0
  2  3  1  0
  2  1  1  0
  3  4  1  0
  4  5  1  0
  6  1  1  0
  6 11  1  0
  7  6  2  0
  8  7  1  0
  8  9  2  0
  9 10  1  0
 10 11  2  0
  1 13  1  1
  2 14  1  6
  3 15  1  0
  3 16  1  0
  4 17  1  0
  4 18  1  0
  5 19  1  0
  5 20  1  0
  7 21  1  0
  8 22  1  0
 10 23  1  0
 12 24  1  0
M  ISO  8  13  13  14  13  15  13  16  13  17  13  18  13  19  13  20  13
M  ISO  4  21  14  22  14  23  14  24   3
M  END
>  <minimizedAffinity>  (1) 
-3.4288528

>  <minimizedRMSD>  (1) 
4.27182865

$$$$
