
     RDKit          3D

 11 11  0  0  0  0  0  0  0  0999 V2000
   44.3010   35.7300   44.2600 C   0  0  0  0  0  0  0  0  0  0  0  0
   44.5020   34.8740   43.1480 C   0  0  0  0  0  0  0  0  0  0  0  0
   45.1290   33.6450   43.3580 C   0  0  0  0  0  0  0  0  0  0  0  0
   45.5230   33.3180   44.6330 N   0  0  0  0  0  0  0  0  0  0  0  0
   45.3090   34.1680   45.6610 C   0  0  0  0  0  0  0  0  0  0  0  0
   44.7120   35.3520   45.4860 N   0  0  0  0  0  0  0  0  0  0  0  0
   43.9620   35.3590   41.4960 S   0  0  0  0  0  0  0  0  0  0  0  0
   43.8089   36.7040   44.1216 H   0  0  0  0  0  0  0  0  0  0  0  0
   45.3040   32.9531   42.5209 H   0  0  0  0  0  0  0  0  0  0  0  0
   45.6350   33.8781   46.6708 H   0  0  0  0  0  0  0  0  0  0  0  0
   42.9455   36.2719   41.5975 H   0  0  0  0  0  0  0  0  0  0  0  0
  1  6  2  0
  2  3  2  0
  2  1  1  0
  3  4  1  0
  4  5  2  0
  6  5  1  0
  7  2  1  0
  1  8  1  0
  3  9  1  0
  5 10  1  0
  7 11  1  0
M  ISO  4   8  14   9  14  10  14  11  11
M  END
>  <minimizedAffinity>  (1) 
-2.51812863

>  <minimizedRMSD>  (1) 
1.06256914

$$$$
