
     RDKit          3D

 25 26  0  0  1  0  0  0  0  0999 V2000
   49.1770   33.6850   42.6660 C   0  0  2  0  0  0  0  0  0  0  0  0
   47.7460   33.9330   42.4630 C   0  0  2  0  0  0  0  0  0  0  0  0
   47.6430   35.3530   41.9220 C   0  0  0  0  0  0  0  0  0  0  0  0
   49.0030   35.8050   41.5020 C   0  0  0  0  0  0  0  0  0  0  0  0
   49.8650   35.0680   42.4800 C   0  0  0  0  0  0  0  0  0  0  0  0
   49.8370   32.8070   41.6810 C   0  0  0  0  0  0  0  0  0  0  0  0
   49.0590   32.2470   40.6530 C   0  0  0  0  0  0  0  0  0  0  0  0
   49.6680   31.4350   39.6960 C   0  0  0  0  0  0  0  0  0  0  0  0
   51.0150   31.2350   39.8300 N   0  0  0  0  0  0  0  0  0  0  0  0
   51.7440   31.7770   40.8180 C   0  0  0  0  0  0  0  0  0  0  0  0
   51.1480   32.5520   41.7250 N   0  0  0  0  0  0  0  0  0  0  0  0
   46.9490   33.8230   43.7440 C   0  0  0  0  0  0  0  0  0  0  0  0
   46.0070   34.5900   43.9340 O   0  0  0  0  0  0  0  0  0  0  0  0
   49.2684   33.1947   43.6464 H   0  0  0  0  0  0  0  0  0  0  0  0
   47.3305   33.1806   41.7765 H   0  0  0  0  0  0  0  0  0  0  0  0
   46.9634   35.3713   41.0573 H   0  0  0  0  0  0  0  0  0  0  0  0
   47.2490   36.0230   42.7004 H   0  0  0  0  0  0  0  0  0  0  0  0
   49.2246   35.5096   40.4658 H   0  0  0  0  0  0  0  0  0  0  0  0
   49.1402   36.8964   41.5099 H   0  0  0  0  0  0  0  0  0  0  0  0
   50.8821   34.9426   42.0802 H   0  0  0  0  0  0  0  0  0  0  0  0
   49.9639   35.6101   43.4320 H   0  0  0  0  0  0  0  0  0  0  0  0
   47.9785   32.4474   40.6035 H   0  0  0  0  0  0  0  0  0  0  0  0
   49.0946   30.9788   38.8756 H   0  0  0  0  0  0  0  0  0  0  0  0
   52.8251   31.5834   40.8792 H   0  0  0  0  0  0  0  0  0  0  0  0
   47.2094   33.0650   44.4974 H   0  0  0  0  0  0  0  0  0  0  0  0
  2  1  1  0
  2 12  1  0
  3  2  1  0
  4  3  1  0
  4  5  1  0
  5  1  1  0
  6 11  1  0
  6  1  1  0
  7  6  2  0
  8  9  2  0
  8  7  1  0
  9 10  1  0
 10 11  2  0
 12 13  2  0
  1 14  1  1
  2 15  1  6
  3 16  1  0
  3 17  1  0
  4 18  1  0
  4 19  1  0
  5 20  1  0
  5 21  1  0
  7 22  1  0
  8 23  1  0
 10 24  1  0
 12 25  1  0
M  ISO  8  14  13  15  13  16  13  17  13  18  13  19  13  20  13  21  13
M  ISO  4  22  14  23  14  24  14  25   6
M  END
>  <minimizedAffinity>  (1) 
-4.1132164

>  <minimizedRMSD>  (1) 
4.73349476

$$$$
