
     RDKit          3D

 14 14  0  0  0  0  0  0  0  0999 V2000
   45.2560   35.8820   42.9350 C   0  0  0  0  0  0  0  0  0  0  0  0
   46.0680   34.7160   42.7990 C   0  0  0  0  0  0  0  0  0  0  0  0
   46.2180   33.8560   43.8790 C   0  0  0  0  0  0  0  0  0  0  0  0
   45.5710   34.1730   45.0440 N   0  0  0  0  0  0  0  0  0  0  0  0
   44.8090   35.2900   45.1330 C   0  0  0  0  0  0  0  0  0  0  0  0
   44.6530   36.1270   44.1040 N   0  0  0  0  0  0  0  0  0  0  0  0
   46.8870   34.3740   41.2270 S   0  0  0  0  0  0  0  0  0  0  0  0
   48.5070   35.2030   41.2250 C   0  0  0  0  0  0  0  0  0  0  0  0
   48.4730   36.2730   42.0990 F   0  0  0  0  0  0  0  0  0  0  0  0
   48.8020   35.7250   39.9670 F   0  0  0  0  0  0  0  0  0  0  0  0
   49.5150   34.3340   41.5710 F   0  0  0  0  0  0  0  0  0  0  0  0
   45.1274   36.5717   42.0878 H   0  0  0  0  0  0  0  0  0  0  0  0
   46.8364   32.9496   43.8014 H   0  0  0  0  0  0  0  0  0  0  0  0
   44.3026   35.5146   46.0833 H   0  0  0  0  0  0  0  0  0  0  0  0
  1  6  2  0
  2  1  1  0
  2  3  2  0
  3  4  1  0
  4  5  2  0
  6  5  1  0
  7  2  1  0
  8  7  1  0
  8 11  1  0
  8  9  1  0
 10  8  1  0
  1 12  1  0
  3 13  1  0
  5 14  1  0
M  ISO  3  12  14  13  14  14  14
M  END
>  <minimizedAffinity>  (1) 
-4.02763271

>  <minimizedRMSD>  (1) 
2.83682489

$$$$
