
     RDKit          3D

 18 19  0  0  0  0  0  0  0  0999 V2000
   44.2830   35.7180   44.3000 C   0  0  0  0  0  0  0  0  0  0  0  0
   44.4030   34.9100   43.1340 C   0  0  0  0  0  0  0  0  0  0  0  0
   45.0430   33.6740   43.2360 C   0  0  0  0  0  0  0  0  0  0  0  0
   45.5310   33.2900   44.4670 N   0  0  0  0  0  0  0  0  0  0  0  0
   45.3940   34.0890   45.5390 C   0  0  0  0  0  0  0  0  0  0  0  0
   44.7830   35.2830   45.4680 N   0  0  0  0  0  0  0  0  0  0  0  0
   43.7420   35.4750   41.5660 S   0  0  0  0  0  0  0  0  0  0  0  0
   42.0490   34.9350   41.4060 C   0  0  0  0  0  0  0  0  0  0  0  0
   41.1790   35.8090   40.7690 C   0  0  0  0  0  0  0  0  0  0  0  0
   39.9500   35.2660   40.7250 N   0  0  0  0  0  0  0  0  0  0  0  0
   40.0550   34.0680   41.3280 C   0  0  0  0  0  0  0  0  0  0  0  0
   41.3170   33.8580   41.7430 N   0  0  0  0  0  0  0  0  0  0  0  0
   43.7822   36.6958   44.2444 H   0  0  0  0  0  0  0  0  0  0  0  0
   45.1552   33.0227   42.3567 H   0  0  0  0  0  0  0  0  0  0  0  0
   45.7956   33.7539   46.5067 H   0  0  0  0  0  0  0  0  0  0  0  0
   41.4529   36.7939   40.3629 H   0  0  0  0  0  0  0  0  0  0  0  0
   39.2247   33.3592   41.4628 H   0  0  0  0  0  0  0  0  0  0  0  0
   41.6621   33.0201   42.2326 H   0  0  0  0  0  0  0  0  0  0  0  0
  1  6  2  0
  2  3  2  0
  2  1  1  0
  3  4  1  0
  4  5  2  0
  6  5  1  0
  7  2  1  0
  8  7  1  0
  8 12  1  0
  9  8  2  0
 10  9  1  0
 10 11  2  0
 11 12  1  0
  1 13  1  0
  3 14  1  0
  5 15  1  0
  9 16  1  0
 11 17  1  0
 12 18  1  0
M  ISO  6  13  14  14  14  15  14  16  14  17  14  18   9
M  END
>  <minimizedAffinity>  (1) 
-3.87667608

>  <minimizedRMSD>  (1) 
0.991720498

$$$$
