
     RDKit          3D

 18 19  0  0  0  0  0  0  0  0999 V2000
   45.5810   33.8990   43.6410 C   0  0  0  0  0  0  0  0  0  0  0  0
   45.6020   33.4470   44.9780 C   0  0  0  0  0  0  0  0  0  0  0  0
   45.0890   34.2550   45.9820 C   0  0  0  0  0  0  0  0  0  0  0  0
   44.5790   35.4720   45.6300 N   0  0  0  0  0  0  0  0  0  0  0  0
   44.5760   35.8740   44.3390 C   0  0  0  0  0  0  0  0  0  0  0  0
   45.0650   35.1070   43.3670 N   0  0  0  0  0  0  0  0  0  0  0  0
   46.2950   31.8180   45.3750 S   0  0  0  0  0  0  0  0  0  0  0  0
   46.3450   31.6830   47.1490 C   0  0  0  0  0  0  0  0  0  0  0  0
   47.5920   31.4380   47.7110 C   0  0  0  0  0  0  0  0  0  0  0  0
   47.4440   31.3630   49.0830 C   0  0  0  0  0  0  0  0  0  0  0  0
   46.1180   31.5640   49.3160 N   0  0  0  0  0  0  0  0  0  0  0  0
   45.4740   31.7520   48.1790 N   0  0  0  0  0  0  0  0  0  0  0  0
   45.9826   33.2689   42.8338 H   0  0  0  0  0  0  0  0  0  0  0  0
   45.0929   33.9251   47.0313 H   0  0  0  0  0  0  0  0  0  0  0  0
   44.1589   36.8598   44.0855 H   0  0  0  0  0  0  0  0  0  0  0  0
   48.5360   31.3233   47.1581 H   0  0  0  0  0  0  0  0  0  0  0  0
   48.2313   31.1796   49.8290 H   0  0  0  0  0  0  0  0  0  0  0  0
   45.6791   31.5687   50.2478 H   0  0  0  0  0  0  0  0  0  0  0  0
  1  2  2  0
  2  7  1  0
  2  3  1  0
  4  3  2  0
  5  4  1  0
  6  1  1  0
  6  5  2  0
  7  8  1  0
  8  9  1  0
  8 12  2  0
  9 10  2  0
 10 11  1  0
 12 11  1  0
  1 13  1  0
  3 14  1  0
  5 15  1  0
  9 16  1  0
 10 17  1  0
 11 18  1  0
M  ISO  6  13  14  14  14  15  14  16  14  17  14  18   9
M  END
>  <minimizedAffinity>  (1) 
-3.81113005

>  <minimizedRMSD>  (1) 
6.97370672

$$$$
