
     RDKit          3D

 17 18  0  0  0  0  0  0  0  0999 V2000
   45.9370   33.8260   45.5500 C   0  0  0  0  0  0  0  0  0  0  0  0
   46.7470   33.3680   44.4880 C   0  0  0  0  0  0  0  0  0  0  0  0
   47.2520   32.0620   44.5460 C   0  0  0  0  0  0  0  0  0  0  0  0
   46.9260   31.2960   45.6430 N   0  0  0  0  0  0  0  0  0  0  0  0
   46.1490   31.7720   46.6330 C   0  0  0  0  0  0  0  0  0  0  0  0
   45.6570   33.0250   46.5930 N   0  0  0  0  0  0  0  0  0  0  0  0
   47.1460   34.4090   43.0760 S   0  0  0  0  0  0  0  0  0  0  0  0
   45.5900   34.6580   42.1830 C   0  0  0  0  0  0  0  0  0  0  0  0
   44.6960   35.5930   42.5870 C   0  0  0  0  0  0  0  0  0  0  0  0
   43.3300   35.4320   41.3640 S   0  0  0  0  0  0  0  0  0  0  0  0
   44.2980   34.0280   40.4740 C   0  0  0  0  0  0  0  0  0  0  0  0
   45.3900   33.8860   41.1380 N   0  0  0  0  0  0  0  0  0  0  0  0
   45.5311   34.8480   45.5238 H   0  0  0  0  0  0  0  0  0  0  0  0
   47.8875   31.6621   43.7421 H   0  0  0  0  0  0  0  0  0  0  0  0
   45.9113   31.1258   47.4908 H   0  0  0  0  0  0  0  0  0  0  0  0
   44.7692   36.2826   43.4409 H   0  0  0  0  0  0  0  0  0  0  0  0
   43.9832   33.4645   39.5833 H   0  0  0  0  0  0  0  0  0  0  0  0
  1  6  2  0
  2  3  2  0
  2  1  1  0
  3  4  1  0
  4  5  2  0
  6  5  1  0
  7  2  1  0
  8  9  2  0
  8  7  1  0
 10  9  1  0
 11 12  2  0
 11 10  1  0
 12  8  1  0
  1 13  1  0
  3 14  1  0
  5 15  1  0
  9 16  1  0
 11 17  1  0
M  ISO  5  13  14  14  14  15  14  16  14  17  14
M  END
>  <minimizedAffinity>  (1) 
-3.08402848

>  <minimizedRMSD>  (1) 
3.49314594

$$$$
