
     RDKit          3D

 25 27  0  0  0  0  0  0  0  0999 V2000
   45.6120   34.0090   40.2850 N   0  0  0  0  0  0  0  0  0  0  0  0
   44.3060   34.1370   40.1060 N   0  0  0  0  0  0  0  0  0  0  0  0
   43.7960   34.8480   41.1490 C   0  0  0  0  0  0  0  0  0  0  0  0
   44.8590   35.1220   41.9320 C   0  0  0  0  0  0  0  0  0  0  0  0
   46.0190   34.6130   41.4250 C   0  0  0  0  0  0  0  0  0  0  0  0
   47.3470   34.6960   41.9670 C   0  0  0  0  0  0  0  0  0  0  0  0
   48.4140   35.3210   41.3560 C   0  0  0  0  0  0  0  0  0  0  0  0
   49.5070   35.1800   42.1940 C   0  0  0  0  0  0  0  0  0  0  0  0
   49.0870   34.4880   43.2750 N   0  0  0  0  0  0  0  0  0  0  0  0
   47.7930   34.2000   43.1350 N   0  0  0  0  0  0  0  0  0  0  0  0
   42.1250   35.3050   41.4110 S   0  0  0  0  0  0  0  0  0  0  0  0
   41.3890   35.5740   38.7280 C   0  0  0  0  0  0  0  0  0  0  0  0
   41.1100   34.9670   39.9580 C   0  0  0  0  0  0  0  0  0  0  0  0
   40.0310   34.0910   40.0490 C   0  0  0  0  0  0  0  0  0  0  0  0
   39.2840   33.8540   38.9430 N   0  0  0  0  0  0  0  0  0  0  0  0
   39.5850   34.4640   37.7600 C   0  0  0  0  0  0  0  0  0  0  0  0
   40.6270   35.3180   37.6490 N   0  0  0  0  0  0  0  0  0  0  0  0
   46.2395   33.5116   39.6371 H   0  0  0  0  0  0  0  0  0  0  0  0
   44.7980   35.6906   42.8717 H   0  0  0  0  0  0  0  0  0  0  0  0
   48.3993   35.8356   40.3839 H   0  0  0  0  0  0  0  0  0  0  0  0
   50.5237   35.5593   42.0137 H   0  0  0  0  0  0  0  0  0  0  0  0
   49.6734   34.2246   44.0798 H   0  0  0  0  0  0  0  0  0  0  0  0
   42.2392   36.2668   38.6427 H   0  0  0  0  0  0  0  0  0  0  0  0
   39.7890   33.5995   41.0029 H   0  0  0  0  0  0  0  0  0  0  0  0
   38.9649   34.2558   36.8756 H   0  0  0  0  0  0  0  0  0  0  0  0
  1  5  1  0
  2  1  1  0
  2  3  2  0
  3 11  1  0
  3  4  1  0
  5  4  2  0
  5  6  1  0
  6 10  2  0
  7  6  1  0
  7  8  2  0
  8  9  1  0
 10  9  1  0
 12 13  2  0
 13 14  1  0
 13 11  1  0
 15 14  2  0
 16 15  1  0
 17 16  2  0
 17 12  1  0
  1 18  1  0
  4 19  1  0
  7 20  1  0
  8 21  1  0
  9 22  1  0
 12 23  1  0
 14 24  1  0
 16 25  1  0
M  ISO  8  18   9  19  14  20  14  21  14  22   9  23  14  24  14  25  14
M  END
>  <minimizedAffinity>  (1) 
-5.22886372

>  <minimizedRMSD>  (1) 
7.91133738

$$$$
