
     RDKit          3D

 26 28  0  0  0  0  0  0  0  0999 V2000
   43.7680   34.4790   40.0390 N   0  0  0  0  0  0  0  0  0  0  0  0
   44.7020   34.7590   40.9130 N   0  0  0  0  0  0  0  0  0  0  0  0
   44.1190   35.3720   41.9870 C   0  0  0  0  0  0  0  0  0  0  0  0
   42.8040   35.4240   41.6770 C   0  0  0  0  0  0  0  0  0  0  0  0
   42.5390   34.8690   40.4520 C   0  0  0  0  0  0  0  0  0  0  0  0
   41.2700   34.7290   39.7600 C   0  0  0  0  0  0  0  0  0  0  0  0
   41.2780   34.7290   38.3800 C   0  0  0  0  0  0  0  0  0  0  0  0
   40.0610   34.5950   37.7440 C   0  0  0  0  0  0  0  0  0  0  0  0
   38.9380   34.4730   38.4770 N   0  0  0  0  0  0  0  0  0  0  0  0
   38.9780   34.4780   39.8380 C   0  0  0  0  0  0  0  0  0  0  0  0
   40.1490   34.6060   40.5280 N   0  0  0  0  0  0  0  0  0  0  0  0
   44.8980   35.9620   43.4490 S   0  0  0  0  0  0  0  0  0  0  0  0
   45.1670   34.3040   45.6870 C   0  0  0  0  0  0  0  0  0  0  0  0
   45.6200   34.6180   44.3860 C   0  0  0  0  0  0  0  0  0  0  0  0
   46.6460   33.8420   43.8630 C   0  0  0  0  0  0  0  0  0  0  0  0
   47.1800   32.8200   44.6030 N   0  0  0  0  0  0  0  0  0  0  0  0
   46.6980   32.5730   45.8460 C   0  0  0  0  0  0  0  0  0  0  0  0
   45.7070   33.3010   46.3820 N   0  0  0  0  0  0  0  0  0  0  0  0
   43.9482   34.0139   39.1378 H   0  0  0  0  0  0  0  0  0  0  0  0
   42.0358   35.8610   42.3319 H   0  0  0  0  0  0  0  0  0  0  0  0
   42.2142   34.8314   37.8117 H   0  0  0  0  0  0  0  0  0  0  0  0
   40.0084   34.5879   36.6453 H   0  0  0  0  0  0  0  0  0  0  0  0
   38.0374   34.3757   40.3991 H   0  0  0  0  0  0  0  0  0  0  0  0
   44.3554   34.8964   46.1345 H   0  0  0  0  0  0  0  0  0  0  0  0
   47.0305   34.0481   42.8532 H   0  0  0  0  0  0  0  0  0  0  0  0
   47.1329   31.7505   46.4328 H   0  0  0  0  0  0  0  0  0  0  0  0
  1  5  1  0
  1  2  1  0
  2  3  2  0
  3 12  1  0
  4  3  1  0
  5  4  2  0
  6  5  1  0
  6 11  1  0
  7  6  2  0
  8  7  1  0
  8  9  2  0
  9 10  1  0
 10 11  2  0
 12 14  1  0
 13 18  2  0
 14 13  1  0
 15 14  2  0
 15 16  1  0
 16 17  2  0
 17 18  1  0
  1 19  1  0
  4 20  1  0
  7 21  1  0
  8 22  1  0
 10 23  1  0
 13 24  1  0
 15 25  1  0
 17 26  1  0
M  ISO  8  19   9  20  14  21  14  22  14  23  14  24  14  25  14  26  14
M  END
>  <minimizedAffinity>  (1) 
-5.22114229

>  <minimizedRMSD>  (1) 
2.76572347

$$$$
