
     RDKit          3D

 21 22  0  0  0  0  0  0  0  0999 V2000
   42.3770   34.2580   39.6240 N   0  0  0  0  0  0  0  0  0  0  0  0
   43.6520   34.1060   39.8830 N   0  0  0  0  0  0  0  0  0  0  0  0
   43.9370   34.8120   41.0300 C   0  0  0  0  0  0  0  0  0  0  0  0
   42.7570   35.3660   41.3980 C   0  0  0  0  0  0  0  0  0  0  0  0
   41.7400   35.0370   40.5290 C   0  0  0  0  0  0  0  0  0  0  0  0
   40.3040   35.4070   40.5280 C   0  0  0  0  0  0  0  0  0  0  0  0
   40.1030   36.7490   40.8810 F   0  0  0  0  0  0  0  0  0  0  0  0
   39.6090   34.6400   41.4580 F   0  0  0  0  0  0  0  0  0  0  0  0
   39.7020   35.2360   39.2980 F   0  0  0  0  0  0  0  0  0  0  0  0
   45.4990   34.9590   41.8400 S   0  0  0  0  0  0  0  0  0  0  0  0
   44.6670   35.5930   44.4380 C   0  0  0  0  0  0  0  0  0  0  0  0
   45.3290   34.6580   43.6070 C   0  0  0  0  0  0  0  0  0  0  0  0
   45.8540   33.4860   44.1850 C   0  0  0  0  0  0  0  0  0  0  0  0
   45.7020   33.2990   45.5280 N   0  0  0  0  0  0  0  0  0  0  0  0
   45.0610   34.2270   46.2690 C   0  0  0  0  0  0  0  0  0  0  0  0
   44.5500   35.3490   45.7600 N   0  0  0  0  0  0  0  0  0  0  0  0
   41.9072   33.8285   38.8142 H   0  0  0  0  0  0  0  0  0  0  0  0
   42.6263   36.0029   42.2853 H   0  0  0  0  0  0  0  0  0  0  0  0
   44.2494   36.5152   44.0078 H   0  0  0  0  0  0  0  0  0  0  0  0
   46.3745   32.7387   43.5681 H   0  0  0  0  0  0  0  0  0  0  0  0
   44.9544   34.0488   47.3492 H   0  0  0  0  0  0  0  0  0  0  0  0
  1  2  1  0
  1  5  1  0
  2  3  2  0
  3  4  1  0
  3 10  1  0
  5  4  2  0
  6  5  1  0
  6  7  1  0
  6  8  1  0
  9  6  1  0
 10 12  1  0
 11 16  2  0
 12 13  2  0
 12 11  1  0
 13 14  1  0
 14 15  2  0
 16 15  1  0
  1 17  1  0
  4 18  1  0
 11 19  1  0
 13 20  1  0
 15 21  1  0
M  ISO  5  17   9  18  14  19  14  20  14  21  14
M  END
>  <minimizedAffinity>  (1) 
-4.86582851

>  <minimizedRMSD>  (1) 
1.55299687

$$$$
