
     RDKit          3D

 25 27  0  0  0  0  0  0  0  0999 V2000
   44.0290   35.5850   41.6570 S   0  0  0  0  0  0  0  0  0  0  0  0
   44.3450   35.7320   44.4400 C   0  0  0  0  0  0  0  0  0  0  0  0
   44.5400   34.9930   43.2630 C   0  0  0  0  0  0  0  0  0  0  0  0
   45.1640   33.7400   43.3820 C   0  0  0  0  0  0  0  0  0  0  0  0
   45.5560   33.2830   44.6020 N   0  0  0  0  0  0  0  0  0  0  0  0
   45.3330   34.0600   45.7050 C   0  0  0  0  0  0  0  0  0  0  0  0
   44.7380   35.2650   45.6290 N   0  0  0  0  0  0  0  0  0  0  0  0
   40.8610   33.4570   40.8480 N   0  0  0  0  0  0  0  0  0  0  0  0
   42.0820   33.5820   41.3610 N   0  0  0  0  0  0  0  0  0  0  0  0
   42.4930   34.8750   41.1730 C   0  0  0  0  0  0  0  0  0  0  0  0
   41.4680   35.4920   40.5360 C   0  0  0  0  0  0  0  0  0  0  0  0
   40.4260   34.6370   40.3140 C   0  0  0  0  0  0  0  0  0  0  0  0
   39.0980   34.7300   39.6920 C   0  0  0  0  0  0  0  0  0  0  0  0
   38.8500   34.1410   38.3680 C   0  0  0  0  0  0  0  0  0  0  0  0
   38.2860   33.4760   39.6140 C   0  0  0  0  0  0  0  0  0  0  0  0
   43.8582   36.7168   44.3827 H   0  0  0  0  0  0  0  0  0  0  0  0
   45.3363   33.1262   42.4856 H   0  0  0  0  0  0  0  0  0  0  0  0
   45.6513   33.6869   46.6896 H   0  0  0  0  0  0  0  0  0  0  0  0
   40.3145   32.5840   40.8527 H   0  0  0  0  0  0  0  0  0  0  0  0
   41.4744   36.5500   40.2351 H   0  0  0  0  0  0  0  0  0  0  0  0
   38.9489   35.7396   40.1025 H   0  0  0  0  0  0  0  0  0  0  0  0
   39.6730   33.6647   37.8150 H   0  0  0  0  0  0  0  0  0  0  0  0
   38.4253   34.5063   37.4213 H   0  0  0  0  0  0  0  0  0  0  0  0
   37.2049   33.5019   39.8154 H   0  0  0  0  0  0  0  0  0  0  0  0
   38.3394   32.4739   40.0646 H   0  0  0  0  0  0  0  0  0  0  0  0
  1  3  1  0
  2  7  2  0
  3  4  2  0
  3  2  1  0
  4  5  1  0
  5  6  2  0
  7  6  1  0
  8  9  1  0
 10  9  2  0
 10  1  1  0
 11 10  1  0
 12 11  2  0
 12  8  1  0
 13 12  1  0
 14 15  1  0
 14 13  1  0
 15 13  1  0
  2 16  1  0
  4 17  1  0
  6 18  1  0
  8 19  1  0
 11 20  1  0
 13 21  1  0
 14 22  1  0
 14 23  1  0
 15 24  1  0
 15 25  1  0
M  ISO  8  16  14  17  14  18  14  19   9  20  14  21  13  22  13  23  13
M  ISO  2  24  13  25  13
M  END
>  <minimizedAffinity>  (1) 
-4.78971624

>  <minimizedRMSD>  (1) 
0.66104418

$$$$
