
     RDKit          3D

 25 27  0  0  0  0  0  0  0  0999 V2000
   40.3450   35.1010   41.2550 N   0  0  0  0  0  0  0  0  0  0  0  0
   41.4470   35.4790   41.8710 N   0  0  0  0  0  0  0  0  0  0  0  0
   42.5290   35.0940   41.1240 C   0  0  0  0  0  0  0  0  0  0  0  0
   41.9930   34.4780   40.0520 C   0  0  0  0  0  0  0  0  0  0  0  0
   40.6270   34.4610   40.0960 C   0  0  0  0  0  0  0  0  0  0  0  0
   39.7210   33.9030   39.1510 N   0  0  0  0  0  0  0  0  0  0  0  0
   39.0850   32.7280   39.3080 C   0  0  0  0  0  0  0  0  0  0  0  0
   38.2960   32.5370   38.1780 C   0  0  0  0  0  0  0  0  0  0  0  0
   38.4790   33.6050   37.3670 N   0  0  0  0  0  0  0  0  0  0  0  0
   39.3490   34.4300   37.9720 C   0  0  0  0  0  0  0  0  0  0  0  0
   44.2340   35.3420   41.4720 S   0  0  0  0  0  0  0  0  0  0  0  0
   44.3560   35.7740   44.2190 C   0  0  0  0  0  0  0  0  0  0  0  0
   44.6300   34.8880   43.1660 C   0  0  0  0  0  0  0  0  0  0  0  0
   45.2120   33.6630   43.4600 C   0  0  0  0  0  0  0  0  0  0  0  0
   45.4950   33.3580   44.7510 N   0  0  0  0  0  0  0  0  0  0  0  0
   45.2130   34.2480   45.7510 C   0  0  0  0  0  0  0  0  0  0  0  0
   44.6480   35.4440   45.4850 N   0  0  0  0  0  0  0  0  0  0  0  0
   39.3929   35.2705   41.6094 H   0  0  0  0  0  0  0  0  0  0  0  0
   42.5862   34.0396   39.2360 H   0  0  0  0  0  0  0  0  0  0  0  0
   39.1722   32.0469   40.1674 H   0  0  0  0  0  0  0  0  0  0  0  0
   37.6423   31.6748   37.9798 H   0  0  0  0  0  0  0  0  0  0  0  0
   39.7025   35.3890   37.5653 H   0  0  0  0  0  0  0  0  0  0  0  0
   43.8966   36.7499   44.0033 H   0  0  0  0  0  0  0  0  0  0  0  0
   45.4410   32.9481   42.6560 H   0  0  0  0  0  0  0  0  0  0  0  0
   45.4514   33.9835   46.7918 H   0  0  0  0  0  0  0  0  0  0  0  0
  1  2  1  0
  3 11  1  0
  3  2  2  0
  4  5  2  0
  4  3  1  0
  5  1  1  0
  6  7  1  0
  6  5  1  0
  8  7  2  0
  9 10  2  0
  9  8  1  0
 10  6  1  0
 11 13  1  0
 12 17  2  0
 13 14  2  0
 13 12  1  0
 14 15  1  0
 15 16  2  0
 17 16  1  0
  1 18  1  0
  4 19  1  0
  7 20  1  0
  8 21  1  0
 10 22  1  0
 12 23  1  0
 14 24  1  0
 16 25  1  0
M  ISO  8  18   9  19  14  20  14  21  14  22  14  23  14  24  14  25  14
M  END
>  <minimizedAffinity>  (1) 
-4.67947245

>  <minimizedRMSD>  (1) 
2.115376

$$$$
