
     RDKit          3D

 29 32  0  0  0  0  0  0  0  0999 V2000
   41.9850   32.7280   40.7550 N   0  0  0  0  0  0  0  0  0  0  0  0
   43.0150   33.0360   41.5130 N   0  0  0  0  0  0  0  0  0  0  0  0
   43.3580   34.3400   41.2650 C   0  0  0  0  0  0  0  0  0  0  0  0
   42.4700   34.7620   40.3280 C   0  0  0  0  0  0  0  0  0  0  0  0
   41.5850   33.7850   39.9730 C   0  0  0  0  0  0  0  0  0  0  0  0
   40.4960   33.7230   39.0640 N   0  0  0  0  0  0  0  0  0  0  0  0
   39.7290   34.7680   38.6960 C   0  0  0  0  0  0  0  0  0  0  0  0
   38.8050   34.3550   37.8350 N   0  0  0  0  0  0  0  0  0  0  0  0
   38.9550   33.0340   37.6280 C   0  0  0  0  0  0  0  0  0  0  0  0
   38.2480   32.1490   36.8260 C   0  0  0  0  0  0  0  0  0  0  0  0
   38.6220   30.8480   36.8100 N   0  0  0  0  0  0  0  0  0  0  0  0
   39.6820   30.4860   37.5890 C   0  0  0  0  0  0  0  0  0  0  0  0
   40.3740   31.3620   38.3750 N   0  0  0  0  0  0  0  0  0  0  0  0
   40.0260   32.6610   38.4140 C   0  0  0  0  0  0  0  0  0  0  0  0
   44.6690   35.2600   42.0090 S   0  0  0  0  0  0  0  0  0  0  0  0
   44.4760   35.4550   44.7870 C   0  0  0  0  0  0  0  0  0  0  0  0
   44.9640   34.7230   43.6890 C   0  0  0  0  0  0  0  0  0  0  0  0
   45.6930   33.5550   43.9530 C   0  0  0  0  0  0  0  0  0  0  0  0
   45.9050   33.1670   45.2480 N   0  0  0  0  0  0  0  0  0  0  0  0
   45.4040   33.9220   46.2620 C   0  0  0  0  0  0  0  0  0  0  0  0
   44.7070   35.0380   46.0440 N   0  0  0  0  0  0  0  0  0  0  0  0
   41.5315   31.8032   40.7483 H   0  0  0  0  0  0  0  0  0  0  0  0
   42.4645   35.7766   39.9031 H   0  0  0  0  0  0  0  0  0  0  0  0
   39.8490   35.8016   39.0527 H   0  0  0  0  0  0  0  0  0  0  0  0
   37.4015   32.4974   36.2161 H   0  0  0  0  0  0  0  0  0  0  0  0
   39.9959   29.4318   37.5835 H   0  0  0  0  0  0  0  0  0  0  0  0
   43.9004   36.3766   44.6154 H   0  0  0  0  0  0  0  0  0  0  0  0
   46.0926   32.9534   43.1233 H   0  0  0  0  0  0  0  0  0  0  0  0
   45.5799   33.6008   47.2992 H   0  0  0  0  0  0  0  0  0  0  0  0
  1  2  1  0
  3  2  2  0
  3 15  1  0
  4  3  1  0
  5  4  2  0
  5  1  1  0
  6  5  1  0
  7  6  1  0
  8  7  2  0
  9  8  1  0
  9 14  2  0
 10  9  1  0
 11 10  2  0
 11 12  1  0
 12 13  2  0
 13 14  1  0
 14  6  1  0
 15 17  1  0
 16 21  2  0
 17 18  2  0
 17 16  1  0
 18 19  1  0
 19 20  2  0
 21 20  1  0
  1 22  1  0
  4 23  1  0
  7 24  1  0
 10 25  1  0
 12 26  1  0
 16 27  1  0
 18 28  1  0
 20 29  1  0
M  ISO  8  22   9  23  14  24  14  25  14  26  14  27  14  28  14  29  14
M  END
>  <minimizedAffinity>  (1) 
-4.5739212

>  <minimizedRMSD>  (1) 
2.66483402

$$$$
