
     RDKit          3D

 25 27  0  0  0  0  0  0  0  0999 V2000
   46.3080   34.3090   41.5330 N   0  0  0  0  0  0  0  0  0  0  0  0
   46.1570   33.9390   40.2840 N   0  0  0  0  0  0  0  0  0  0  0  0
   44.8430   33.6440   40.0480 C   0  0  0  0  0  0  0  0  0  0  0  0
   44.2400   33.8690   41.2450 C   0  0  0  0  0  0  0  0  0  0  0  0
   45.1280   34.2890   42.2040 C   0  0  0  0  0  0  0  0  0  0  0  0
   44.9600   34.6470   43.6070 C   0  0  0  0  0  0  0  0  0  0  0  0
   44.6290   35.9020   44.0770 C   0  0  0  0  0  0  0  0  0  0  0  0
   44.5480   35.9100   45.4310 N   0  0  0  0  0  0  0  0  0  0  0  0
   44.8360   34.6440   45.7830 C   0  0  0  0  0  0  0  0  0  0  0  0
   45.0890   33.8580   44.7020 N   0  0  0  0  0  0  0  0  0  0  0  0
   44.1240   33.1040   38.5460 S   0  0  0  0  0  0  0  0  0  0  0  0
   42.1500   35.0830   38.3750 C   0  0  0  0  0  0  0  0  0  0  0  0
   42.4520   33.7060   38.3650 C   0  0  0  0  0  0  0  0  0  0  0  0
   41.3960   32.8140   38.2070 C   0  0  0  0  0  0  0  0  0  0  0  0
   40.1200   33.2890   38.0700 N   0  0  0  0  0  0  0  0  0  0  0  0
   39.8950   34.6280   38.0880 C   0  0  0  0  0  0  0  0  0  0  0  0
   40.8910   35.5000   38.2370 N   0  0  0  0  0  0  0  0  0  0  0  0
   47.2087   34.5807   41.9523 H   0  0  0  0  0  0  0  0  0  0  0  0
   43.1637   33.7304   41.4248 H   0  0  0  0  0  0  0  0  0  0  0  0
   44.4540   36.7799   43.4377 H   0  0  0  0  0  0  0  0  0  0  0  0
   44.8637   34.2864   46.8229 H   0  0  0  0  0  0  0  0  0  0  0  0
   45.3316   32.8570   44.7132 H   0  0  0  0  0  0  0  0  0  0  0  0
   42.9586   35.8186   38.4975 H   0  0  0  0  0  0  0  0  0  0  0  0
   41.5862   31.7307   38.1923 H   0  0  0  0  0  0  0  0  0  0  0  0
   38.8663   35.0014   37.9770 H   0  0  0  0  0  0  0  0  0  0  0  0
  1  5  1  0
  2  1  1  0
  3  2  2  0
  3  4  1  0
  4  5  2  0
  5  6  1  0
  6  7  2  0
  6 10  1  0
  7  8  1  0
  8  9  2  0
 10  9  1  0
 11  3  1  0
 13 12  2  0
 13 11  1  0
 14 13  1  0
 15 16  1  0
 15 14  2  0
 16 17  2  0
 17 12  1  0
  1 18  1  0
  4 19  1  0
  7 20  1  0
  9 21  1  0
 10 22  1  0
 12 23  1  0
 14 24  1  0
 16 25  1  0
M  ISO  8  18   9  19  14  20  14  21  14  22   9  23  14  24  14  25  14
M  END
>  <minimizedAffinity>  (1) 
-4.40560293

>  <minimizedRMSD>  (1) 
6.99374962

$$$$
