
     RDKit          3D

 25 26  0  0  0  0  0  0  0  0999 V2000
   41.7590   33.6150   40.7760 N   0  0  0  0  0  0  0  0  0  0  0  0
   42.8200   33.5350   41.5400 N   0  0  0  0  0  0  0  0  0  0  0  0
   43.6730   34.5580   41.2390 C   0  0  0  0  0  0  0  0  0  0  0  0
   43.0390   35.2380   40.2500 C   0  0  0  0  0  0  0  0  0  0  0  0
   41.8330   34.6880   39.9230 C   0  0  0  0  0  0  0  0  0  0  0  0
   40.8660   35.0790   38.9590 N   0  0  0  0  0  0  0  0  0  0  0  0
   40.2440   34.1270   38.1050 C   0  0  0  0  0  0  0  0  0  0  0  0
   40.9390   33.1060   37.7350 N   0  0  0  0  0  0  0  0  0  0  0  0
   38.8960   34.3390   37.6980 N   0  0  0  0  0  0  0  0  0  0  0  0
   40.6280   32.3390   37.1230 H   0  0  0  0  0  0  0  0  0  0  0  0
   45.2260   34.8930   41.9750 S   0  0  0  0  0  0  0  0  0  0  0  0
   44.5860   35.4520   44.6270 C   0  0  0  0  0  0  0  0  0  0  0  0
   45.2080   34.5720   43.7350 C   0  0  0  0  0  0  0  0  0  0  0  0
   45.8190   33.4280   44.2570 C   0  0  0  0  0  0  0  0  0  0  0  0
   45.7850   33.2170   45.5990 N   0  0  0  0  0  0  0  0  0  0  0  0
   45.1720   34.0950   46.4200 C   0  0  0  0  0  0  0  0  0  0  0  0
   44.5700   35.2140   45.9540 N   0  0  0  0  0  0  0  0  0  0  0  0
   40.9685   32.9556   40.8109 H   0  0  0  0  0  0  0  0  0  0  0  0
   43.4520   36.1347   39.7648 H   0  0  0  0  0  0  0  0  0  0  0  0
   40.6098   36.0732   38.8767 H   0  0  0  0  0  0  0  0  0  0  0  0
   38.4317   33.6586   37.0797 H   0  0  0  0  0  0  0  0  0  0  0  0
   38.3853   35.1728   38.0219 H   0  0  0  0  0  0  0  0  0  0  0  0
   44.0992   36.3581   44.2372 H   0  0  0  0  0  0  0  0  0  0  0  0
   46.3197   32.7095   43.5914 H   0  0  0  0  0  0  0  0  0  0  0  0
   45.1612   33.8951   47.5016 H   0  0  0  0  0  0  0  0  0  0  0  0
  1  2  1  0
  3  2  2  0
  3 11  1  0
  4  3  1  0
  5  4  2  0
  5  1  1  0
  6  5  1  0
  7  6  1  0
  8  7  2  0
  9  7  1  0
 10  8  1  0
 11 13  1  0
 12 17  2  0
 13 14  2  0
 13 12  1  0
 14 15  1  0
 15 16  2  0
 17 16  1  0
  1 18  1  0
  4 19  1  0
  6 20  1  0
  9 21  1  0
  9 22  1  0
 12 23  1  0
 14 24  1  0
 16 25  1  0
M  ISO  5  18   9  19  14  23  14  24  14  25  14
M  END
>  <minimizedAffinity>  (1) 
-4.3476944

>  <minimizedRMSD>  (1) 
1.89940333

$$$$
