
     RDKit          3D

 20 21  0  0  0  0  0  0  0  0999 V2000
   43.9230   35.5200   41.6760 S   0  0  0  0  0  0  0  0  0  0  0  0
   44.3150   35.7040   44.4320 C   0  0  0  0  0  0  0  0  0  0  0  0
   44.5000   34.9420   43.2700 C   0  0  0  0  0  0  0  0  0  0  0  0
   45.1490   33.7060   43.3810 C   0  0  0  0  0  0  0  0  0  0  0  0
   45.5730   33.2990   44.6140 N   0  0  0  0  0  0  0  0  0  0  0  0
   45.3670   34.0780   45.7020 C   0  0  0  0  0  0  0  0  0  0  0  0
   44.7470   35.2680   45.6200 N   0  0  0  0  0  0  0  0  0  0  0  0
   40.9190   33.2060   40.8190 N   0  0  0  0  0  0  0  0  0  0  0  0
   42.1350   33.4060   41.2830 N   0  0  0  0  0  0  0  0  0  0  0  0
   42.4350   34.7380   41.1930 C   0  0  0  0  0  0  0  0  0  0  0  0
   41.3380   35.3190   40.6510 C   0  0  0  0  0  0  0  0  0  0  0  0
   40.3550   34.3780   40.3990 C   0  0  0  0  0  0  0  0  0  0  0  0
   39.0640   34.6810   39.8240 C   0  0  0  0  0  0  0  0  0  0  0  0
   38.1040   33.8640   39.8570 O   0  0  0  0  0  0  0  0  0  0  0  0
   43.8060   36.6769   44.3654 H   0  0  0  0  0  0  0  0  0  0  0  0
   45.3138   33.0764   42.4942 H   0  0  0  0  0  0  0  0  0  0  0  0
   45.7178   33.7263   46.6835 H   0  0  0  0  0  0  0  0  0  0  0  0
   40.4543   32.2877   40.7780 H   0  0  0  0  0  0  0  0  0  0  0  0
   41.2414   36.3942   40.4396 H   0  0  0  0  0  0  0  0  0  0  0  0
   38.9137   35.6578   39.3410 H   0  0  0  0  0  0  0  0  0  0  0  0
  1  3  1  0
  2  7  2  0
  3  4  2  0
  3  2  1  0
  4  5  1  0
  5  6  2  0
  7  6  1  0
  8  9  1  0
 10  9  2  0
 10  1  1  0
 11 10  1  0
 12 11  2  0
 12  8  1  0
 13 14  2  0
 13 12  1  0
  2 15  1  0
  4 16  1  0
  6 17  1  0
  8 18  1  0
 11 19  1  0
 13 20  1  0
M  ISO  6  15  14  16  14  17  14  18   9  19  14  20   6
M  END
>  <minimizedAffinity>  (1) 
-4.06396723

>  <minimizedRMSD>  (1) 
0.57719022

$$$$
