
     RDKit          3D

 19 20  0  0  0  0  0  0  0  0999 V2000
   43.8510   35.5610   41.4910 S   0  0  0  0  0  0  0  0  0  0  0  0
   44.2890   35.7970   44.2430 C   0  0  0  0  0  0  0  0  0  0  0  0
   44.4310   35.0020   43.0920 C   0  0  0  0  0  0  0  0  0  0  0  0
   45.0440   33.7420   43.2240 C   0  0  0  0  0  0  0  0  0  0  0  0
   45.4740   33.3490   44.4620 N   0  0  0  0  0  0  0  0  0  0  0  0
   45.3100   34.1610   45.5360 C   0  0  0  0  0  0  0  0  0  0  0  0
   44.7230   35.3720   45.4260 N   0  0  0  0  0  0  0  0  0  0  0  0
   40.6080   33.4820   40.8820 N   0  0  0  0  0  0  0  0  0  0  0  0
   41.8400   33.5820   41.3160 N   0  0  0  0  0  0  0  0  0  0  0  0
   42.2770   34.8690   41.1020 C   0  0  0  0  0  0  0  0  0  0  0  0
   41.2380   35.5090   40.5250 C   0  0  0  0  0  0  0  0  0  0  0  0
   40.1630   34.6580   40.3690 C   0  0  0  0  0  0  0  0  0  0  0  0
   38.9150   34.9490   39.8150 O   0  0  0  0  0  0  0  0  0  0  0  0
   43.8119   36.7850   44.1638 H   0  0  0  0  0  0  0  0  0  0  0  0
   45.1747   33.0869   42.3501 H   0  0  0  0  0  0  0  0  0  0  0  0
   45.6642   33.8245   46.5216 H   0  0  0  0  0  0  0  0  0  0  0  0
   40.0470   32.6192   40.9245 H   0  0  0  0  0  0  0  0  0  0  0  0
   41.2470   36.5659   40.2204 H   0  0  0  0  0  0  0  0  0  0  0  0
   38.2216   34.2446   39.7597 H   0  0  0  0  0  0  0  0  0  0  0  0
  1  3  1  0
  2  7  2  0
  3  4  2  0
  3  2  1  0
  4  5  1  0
  5  6  2  0
  7  6  1  0
  8  9  1  0
 10  9  2  0
 10  1  1  0
 11 10  1  0
 12 11  2  0
 12  8  1  0
 13 12  1  0
  2 14  1  0
  4 15  1  0
  6 16  1  0
  8 17  1  0
 11 18  1  0
 13 19  1  0
M  ISO  6  14  14  15  14  16  14  17   9  18  14  19   3
M  END
>  <minimizedAffinity>  (1) 
-3.96769857

>  <minimizedRMSD>  (1) 
0.398461848

$$$$
