
     RDKit          3D

 39 43  0  0  1  0  0  0  0  0999 V2000
   38.9200   34.4060   39.7570 C   0  0  1  0  0  0  0  0  0  0  0  0
   38.7390   34.2500   38.2960 C   0  0  0  0  0  0  0  0  0  0  0  0
   38.2450   33.2110   39.3180 C   0  0  1  0  0  0  0  0  0  0  0  0
   38.7150   31.9150   38.9790 N   0  0  0  0  0  0  0  0  0  0  0  0
   39.4290   31.4290   37.9150 C   0  0  0  0  0  0  0  0  0  0  0  0
   39.6080   30.1070   38.0530 N   0  0  0  0  0  0  0  0  0  0  0  0
   39.0180   29.7480   39.1870 C   0  0  0  0  0  0  0  0  0  0  0  0
   38.9090   28.4960   39.7940 C   0  0  0  0  0  0  0  0  0  0  0  0
   39.4280   27.4930   39.2410 O   0  0  0  0  0  0  0  0  0  0  0  0
   38.2520   28.3690   40.9660 N   0  0  0  0  0  0  0  0  0  0  0  0
   37.6980   29.4650   41.5490 C   0  0  0  0  0  0  0  0  0  0  0  0
   37.0130   29.2890   42.7830 N   0  0  0  0  0  0  0  0  0  0  0  0
   37.7850   30.6890   40.9880 N   0  0  0  0  0  0  0  0  0  0  0  0
   38.4400   30.8550   39.8080 C   0  0  0  0  0  0  0  0  0  0  0  0
   40.6660   33.2530   40.9900 N   0  0  0  0  0  0  0  0  0  0  0  0
   41.8970   33.3990   41.4490 N   0  0  0  0  0  0  0  0  0  0  0  0
   42.3410   34.6590   41.1070 C   0  0  0  0  0  0  0  0  0  0  0  0
   41.3050   35.2340   40.4270 C   0  0  0  0  0  0  0  0  0  0  0  0
   40.2460   34.3620   40.3470 C   0  0  0  0  0  0  0  0  0  0  0  0
   43.9080   35.4020   41.4590 S   0  0  0  0  0  0  0  0  0  0  0  0
   44.3030   35.7520   44.2120 C   0  0  0  0  0  0  0  0  0  0  0  0
   44.4670   34.9150   43.0920 C   0  0  0  0  0  0  0  0  0  0  0  0
   45.0920   33.6720   43.2960 C   0  0  0  0  0  0  0  0  0  0  0  0
   45.5050   33.3370   44.5560 N   0  0  0  0  0  0  0  0  0  0  0  0
   45.3130   34.1970   45.5890 C   0  0  0  0  0  0  0  0  0  0  0  0
   44.7190   35.3910   45.4260 N   0  0  0  0  0  0  0  0  0  0  0  0
   38.6569   35.1931   40.4790 H   0  0  0  0  0  0  0  0  0  0  0  0
   39.5996   34.0295   37.6473 H   0  0  0  0  0  0  0  0  0  0  0  0
   38.2918   34.8403   37.4827 H   0  0  0  0  0  0  0  0  0  0  0  0
   37.3654   32.7466   39.7877 H   0  0  0  0  0  0  0  0  0  0  0  0
   39.7998   32.0328   37.0736 H   0  0  0  0  0  0  0  0  0  0  0  0
   38.1707   27.4463   41.4165 H   0  0  0  0  0  0  0  0  0  0  0  0
   36.5814   30.0979   43.2523 H   0  0  0  0  0  0  0  0  0  0  0  0
   36.9486   28.3527   43.2073 H   0  0  0  0  0  0  0  0  0  0  0  0
   40.0996   32.4009   41.1083 H   0  0  0  0  0  0  0  0  0  0  0  0
   41.3169   36.2494   40.0041 H   0  0  0  0  0  0  0  0  0  0  0  0
   43.8183   36.7308   44.0818 H   0  0  0  0  0  0  0  0  0  0  0  0
   45.2463   32.9798   42.4552 H   0  0  0  0  0  0  0  0  0  0  0  0
   45.6553   33.9064   46.5932 H   0  0  0  0  0  0  0  0  0  0  0  0
  1 19  1  0
  2  3  1  0
  2  1  1  0
  3  1  1  0
  4  3  1  0
  4 14  1  0
  5  6  2  0
  5  4  1  0
  6  7  1  0
  7  8  1  0
  7 14  2  0
  8 10  1  0
  9  8  2  0
 10 11  1  0
 11 12  1  0
 13 11  2  0
 14 13  1  0
 15 16  1  0
 17 16  2  0
 17 20  1  0
 18 17  1  0
 19 18  2  0
 19 15  1  0
 20 22  1  0
 21 26  2  0
 22 23  2  0
 22 21  1  0
 23 24  1  0
 24 25  2  0
 26 25  1  0
  1 27  1  1
  2 28  1  0
  2 29  1  0
  3 30  1  1
  5 31  1  0
 10 32  1  0
 12 33  1  0
 12 34  1  0
 15 35  1  0
 18 36  1  0
 21 37  1  0
 23 38  1  0
 25 39  1  0
M  ISO  8  27  13  28  13  29  13  30  13  31  14  32   9  35   9  36  14
M  ISO  3  37  14  38  14  39  14
M  END
>  <minimizedAffinity>  (1) 
-6.30139589

>  <minimizedRMSD>  (1) 
1.03022611

$$$$
