
     RDKit          3D

 34 36  0  0  1  0  0  0  0  0999 V2000
   43.2010   33.7910   39.6470 N   0  0  0  0  0  0  0  0  0  0  0  0
   44.4080   33.5830   40.1640 N   0  0  0  0  0  0  0  0  0  0  0  0
   44.6750   34.6210   41.0320 C   0  0  0  0  0  0  0  0  0  0  0  0
   43.5820   35.4390   41.0010 C   0  0  0  0  0  0  0  0  0  0  0  0
   42.6370   34.9420   40.1380 C   0  0  0  0  0  0  0  0  0  0  0  0
   41.3090   35.3930   39.7170 C   0  0  1  0  0  0  0  0  0  0  0  0
   41.0980   35.8210   38.3100 C   0  0  0  0  0  0  0  0  0  0  0  0
   40.5330   34.5210   38.8360 C   0  0  2  0  0  0  0  0  0  0  0  0
   39.0700   34.4000   38.7830 C   0  0  0  0  0  0  0  0  0  0  0  0
   38.3980   33.8430   39.9940 C   0  0  0  0  0  0  0  0  0  0  0  0
   38.6630   33.6000   37.5480 C   0  0  0  0  0  0  0  0  0  0  0  0
   46.1380   34.8640   41.9980 S   0  0  0  0  0  0  0  0  0  0  0  0
   44.9210   35.2330   44.4740 C   0  0  0  0  0  0  0  0  0  0  0  0
   45.8340   34.5040   43.7150 C   0  0  0  0  0  0  0  0  0  0  0  0
   46.5100   33.4590   44.3730 C   0  0  0  0  0  0  0  0  0  0  0  0
   46.2640   33.1970   45.6860 N   0  0  0  0  0  0  0  0  0  0  0  0
   45.3570   33.9600   46.3480 C   0  0  0  0  0  0  0  0  0  0  0  0
   44.6940   34.9610   45.7630 N   0  0  0  0  0  0  0  0  0  0  0  0
   42.7467   33.1675   38.9645 H   0  0  0  0  0  0  0  0  0  0  0  0
   43.4740   36.3650   41.5848 H   0  0  0  0  0  0  0  0  0  0  0  0
   41.1280   35.8691   40.6920 H   0  0  0  0  0  0  0  0  0  0  0  0
   41.9353   35.8132   37.5967 H   0  0  0  0  0  0  0  0  0  0  0  0
   40.6894   36.7122   37.8112 H   0  0  0  0  0  0  0  0  0  0  0  0
   40.6053   33.4370   38.6636 H   0  0  0  0  0  0  0  0  0  0  0  0
   38.7138   35.4396   38.7340 H   0  0  0  0  0  0  0  0  0  0  0  0
   38.8807   34.2431   40.8978 H   0  0  0  0  0  0  0  0  0  0  0  0
   37.3359   34.1292   39.9883 H   0  0  0  0  0  0  0  0  0  0  0  0
   38.4822   32.7462   39.9883 H   0  0  0  0  0  0  0  0  0  0  0  0
   38.1848   32.6601   37.8611 H   0  0  0  0  0  0  0  0  0  0  0  0
   37.9550   34.1890   36.9465 H   0  0  0  0  0  0  0  0  0  0  0  0
   39.5560   33.3745   36.9465 H   0  0  0  0  0  0  0  0  0  0  0  0
   44.3701   36.0576   43.9980 H   0  0  0  0  0  0  0  0  0  0  0  0
   47.2420   32.8500   43.8223 H   0  0  0  0  0  0  0  0  0  0  0  0
   45.1603   33.7452   47.4087 H   0  0  0  0  0  0  0  0  0  0  0  0
  1  5  1  0
  1  2  1  0
  2  3  2  0
  3 12  1  0
  4  3  1  0
  5  4  2  0
  6  5  1  0
  7  8  1  0
  7  6  1  0
  8  6  1  0
  9  8  1  0
  9 10  1  0
 11  9  1  0
 12 14  1  0
 13 18  2  0
 14 15  2  0
 14 13  1  0
 15 16  1  0
 16 17  2  0
 18 17  1  0
  1 19  1  0
  4 20  1  0
  6 21  1  1
  7 22  1  0
  7 23  1  0
  8 24  1  6
  9 25  1  0
 10 26  1  0
 10 27  1  0
 10 28  1  0
 11 29  1  0
 11 30  1  0
 11 31  1  0
 13 32  1  0
 15 33  1  0
 17 34  1  0
M  ISO  8  19   9  20  14  21  13  22  13  23  13  24  13  25   8  26   8
M  ISO  8  27   8  28   8  29   8  30   8  31   8  32  14  33  14  34  14
M  END
>  <minimizedAffinity>  (1) 
-5.51567221

>  <minimizedRMSD>  (1) 
2.24802756

$$$$
