
     RDKit          3D

 39 42  0  0  1  0  0  0  0  0999 V2000
   41.2060   33.5180   40.7850 N   0  0  0  0  0  0  0  0  0  0  0  0
   42.4240   33.6140   41.2950 N   0  0  0  0  0  0  0  0  0  0  0  0
   42.7440   34.9510   41.3710 C   0  0  0  0  0  0  0  0  0  0  0  0
   41.6520   35.6140   40.8820 C   0  0  0  0  0  0  0  0  0  0  0  0
   40.6870   34.7340   40.5130 C   0  0  0  0  0  0  0  0  0  0  0  0
   39.3530   34.8400   39.9290 C   0  0  1  0  0  0  0  0  0  0  0  0
   39.0510   34.3560   38.5820 C   0  0  0  0  0  0  0  0  0  0  0  0
   38.4810   33.6780   39.8360 C   0  0  1  0  0  0  0  0  0  0  0  0
   38.7710   32.2950   39.8260 N   0  0  0  0  0  0  0  0  0  0  0  0
   38.1900   31.7070   41.0240 C   0  0  0  0  0  0  0  0  0  0  0  0
   38.2220   30.2330   41.0630 C   0  0  0  0  0  0  0  0  0  0  0  0
   37.5800   29.6760   39.8620 N   0  0  0  0  0  0  0  0  0  0  0  0
   38.4440   30.0960   38.7850 C   0  0  0  0  0  0  0  0  0  0  0  0
   38.3280   31.5950   38.6410 C   0  0  0  0  0  0  0  0  0  0  0  0
   44.2390   35.6870   41.9690 S   0  0  0  0  0  0  0  0  0  0  0  0
   44.4260   35.5690   44.7600 C   0  0  0  0  0  0  0  0  0  0  0  0
   44.7140   34.9420   43.5310 C   0  0  0  0  0  0  0  0  0  0  0  0
   45.3880   33.7070   43.5560 C   0  0  0  0  0  0  0  0  0  0  0  0
   45.7370   33.1690   44.7630 N   0  0  0  0  0  0  0  0  0  0  0  0
   45.4330   33.8190   45.9140 C   0  0  0  0  0  0  0  0  0  0  0  0
   44.7880   35.0020   45.9220 N   0  0  0  0  0  0  0  0  0  0  0  0
   40.7162   32.6276   40.6170 H   0  0  0  0  0  0  0  0  0  0  0  0
   41.5678   36.7077   40.7994 H   0  0  0  0  0  0  0  0  0  0  0  0
   39.2642   35.8259   40.4087 H   0  0  0  0  0  0  0  0  0  0  0  0
   39.8274   33.8558   37.9845 H   0  0  0  0  0  0  0  0  0  0  0  0
   38.6342   34.7916   37.6619 H   0  0  0  0  0  0  0  0  0  0  0  0
   37.5729   33.4763   40.4231 H   0  0  0  0  0  0  0  0  0  0  0  0
   38.7447   32.0852   41.8953 H   0  0  0  0  0  0  0  0  0  0  0  0
   37.1286   31.9956   41.0292 H   0  0  0  0  0  0  0  0  0  0  0  0
   39.2675   29.8938   41.1059 H   0  0  0  0  0  0  0  0  0  0  0  0
   37.6765   29.8868   41.9533 H   0  0  0  0  0  0  0  0  0  0  0  0
   37.5318   28.6485   39.9146 H   0  0  0  0  0  0  0  0  0  0  0  0
   39.4846   29.8239   39.0153 H   0  0  0  0  0  0  0  0  0  0  0  0
   38.1492   29.6013   37.8478 H   0  0  0  0  0  0  0  0  0  0  0  0
   38.9439   31.9174   37.7885 H   0  0  0  0  0  0  0  0  0  0  0  0
   37.2666   31.8373   38.4835 H   0  0  0  0  0  0  0  0  0  0  0  0
   43.8985   36.5342   44.7673 H   0  0  0  0  0  0  0  0  0  0  0  0
   45.6300   33.1832   42.6195 H   0  0  0  0  0  0  0  0  0  0  0  0
   45.7228   33.3651   46.8732 H   0  0  0  0  0  0  0  0  0  0  0  0
  1  2  1  0
  2  3  2  0
  3 15  1  0
  4  3  1  0
  5  1  1  0
  5  4  2  0
  6  5  1  0
  7  8  1  0
  7  6  1  0
  8  6  1  0
  9  8  1  0
  9 10  1  0
 10 11  1  0
 12 11  1  0
 13 12  1  0
 14 13  1  0
 14  9  1  0
 15 17  1  0
 16 21  2  0
 17 18  2  0
 17 16  1  0
 18 19  1  0
 19 20  2  0
 20 21  1  0
  1 22  1  0
  4 23  1  0
  6 24  1  6
  7 25  1  0
  7 26  1  0
  8 27  1  6
 10 28  1  0
 10 29  1  0
 11 30  1  0
 11 31  1  0
 12 32  1  0
 13 33  1  0
 13 34  1  0
 14 35  1  0
 14 36  1  0
 16 37  1  0
 18 38  1  0
 20 39  1  0
M  ISO  8  22   9  23  14  24  13  25  13  26  13  27  13  28  13  29  13
M  ISO  8  30  13  31  13  32   5  33  13  34  13  35  13  36  13  37  14
M  ISO  2  38  14  39  14
M  END
>  <minimizedAffinity>  (1) 
-5.49829674

>  <minimizedRMSD>  (1) 
0.904238939

$$$$
