
     RDKit          3D

 27 29  0  0  1  0  0  0  0  0999 V2000
   41.1160   33.4180   40.7290 N   0  0  0  0  0  0  0  0  0  0  0  0
   42.2410   33.6240   41.4130 N   0  0  0  0  0  0  0  0  0  0  0  0
   42.7030   34.8790   41.0730 C   0  0  0  0  0  0  0  0  0  0  0  0
   41.8090   35.3880   40.1740 C   0  0  0  0  0  0  0  0  0  0  0  0
   40.8080   34.5000   39.9390 C   0  0  0  0  0  0  0  0  0  0  0  0
   39.6130   34.4920   39.0840 C   0  0  1  0  0  0  0  0  0  0  0  0
   39.7480   34.7500   37.6230 C   0  0  0  0  0  0  0  0  0  0  0  0
   39.4220   33.3570   38.1600 C   0  0  2  0  0  0  0  0  0  0  0  0
   38.0950   32.9080   37.7630 N   0  0  0  0  0  0  0  0  0  0  0  0
   44.1670   35.6610   41.6740 S   0  0  0  0  0  0  0  0  0  0  0  0
   44.3750   35.7290   44.4500 C   0  0  0  0  0  0  0  0  0  0  0  0
   44.6250   35.0240   43.2740 C   0  0  0  0  0  0  0  0  0  0  0  0
   45.2530   33.7880   43.4220 C   0  0  0  0  0  0  0  0  0  0  0  0
   45.5950   33.3160   44.6550 N   0  0  0  0  0  0  0  0  0  0  0  0
   45.3140   34.0680   45.7480 C   0  0  0  0  0  0  0  0  0  0  0  0
   44.7130   35.2580   45.6500 N   0  0  0  0  0  0  0  0  0  0  0  0
   40.5503   32.5590   40.7850 H   0  0  0  0  0  0  0  0  0  0  0  0
   41.8887   36.3799   39.7052 H   0  0  0  0  0  0  0  0  0  0  0  0
   39.0104   34.9513   39.8814 H   0  0  0  0  0  0  0  0  0  0  0  0
   40.7358   34.9581   37.1861 H   0  0  0  0  0  0  0  0  0  0  0  0
   39.2892   35.4416   36.9010 H   0  0  0  0  0  0  0  0  0  0  0  0
   39.8431   32.3408   38.1585 H   0  0  0  0  0  0  0  0  0  0  0  0
   37.5313   32.7173   38.6037 H   0  0  0  0  0  0  0  0  0  0  0  0
   37.6380   33.6412   37.2022 H   0  0  0  0  0  0  0  0  0  0  0  0
   43.8808   36.7096   44.3853 H   0  0  0  0  0  0  0  0  0  0  0  0
   45.4762   33.1840   42.5302 H   0  0  0  0  0  0  0  0  0  0  0  0
   45.5883   33.6880   46.7432 H   0  0  0  0  0  0  0  0  0  0  0  0
  1  2  1  0
  3  2  2  0
  3 10  1  0
  4  3  1  0
  5  4  2  0
  5  1  1  0
  6  5  1  0
  7  8  1  0
  7  6  1  0
  8  6  1  0
  9  8  1  0
 10 12  1  0
 11 16  2  0
 12 13  2  0
 12 11  1  0
 13 14  1  0
 14 15  2  0
 16 15  1  0
  1 17  1  0
  4 18  1  0
  6 19  1  1
  7 20  1  0
  7 21  1  0
  8 22  1  1
  9 23  1  0
  9 24  1  0
 11 25  1  0
 13 26  1  0
 15 27  1  0
M  ISO  8  17   9  18  14  19  13  20  13  21  13  22  13  23   5  24   5
M  ISO  3  25  14  26  14  27  14
M  END
>  <minimizedAffinity>  (1) 
-4.64854288

>  <minimizedRMSD>  (1) 
0.880107343

$$$$
