
     RDKit          3D

 42 45  0  0  1  0  0  0  0  0999 V2000
   42.4560   33.4460   41.0090 N   0  0  0  0  0  0  0  0  0  0  0  0
   43.6200   33.3400   41.6350 N   0  0  0  0  0  0  0  0  0  0  0  0
   44.1320   34.6270   41.7590 C   0  0  0  0  0  0  0  0  0  0  0  0
   43.2240   35.4870   41.1830 C   0  0  0  0  0  0  0  0  0  0  0  0
   42.1790   34.7730   40.7130 C   0  0  0  0  0  0  0  0  0  0  0  0
   40.9310   35.1420   39.9970 C   0  0  1  0  0  0  0  0  0  0  0  0
   41.0120   35.4810   38.5350 C   0  0  0  0  0  0  0  0  0  0  0  0
   40.3850   34.1910   39.0320 C   0  0  2  0  0  0  0  0  0  0  0  0
   38.9030   34.0820   38.7740 C   0  0  0  0  0  0  0  0  0  0  0  0
   38.5780   32.7200   38.7230 F   0  0  0  0  0  0  0  0  0  0  0  0
   38.5910   34.6130   37.5400 F   0  0  0  0  0  0  0  0  0  0  0  0
   38.1870   34.7070   39.7420 F   0  0  0  0  0  0  0  0  0  0  0  0
   45.6690   35.1170   42.5100 S   0  0  0  0  0  0  0  0  0  0  0  0
   45.1350   34.5520   45.1650 C   0  0  0  0  0  0  0  0  0  0  0  0
   45.9130   34.2740   44.0540 C   0  0  0  0  0  0  0  0  0  0  0  0
   46.8790   33.3010   44.2480 C   0  0  0  0  0  0  0  0  0  0  0  0
   47.0380   32.6740   45.4450 N   0  0  0  0  0  0  0  0  0  0  0  0
   46.2330   33.0130   46.4700 C   0  0  0  0  0  0  0  0  0  0  0  0
   45.2880   33.9410   46.3410 N   0  0  0  0  0  0  0  0  0  0  0  0
   46.3750   32.3750   47.7330 N   0  0  0  0  0  0  0  0  0  0  0  0
   45.2660   31.8820   48.5250 C   0  0  0  0  0  0  0  0  0  0  0  0
   45.3830   30.3990   48.7920 C   0  0  0  0  0  0  0  0  0  0  0  0
   46.6580   29.8690   48.3580 N   0  0  0  0  0  0  0  0  0  0  0  0
   47.7570   30.6830   48.8150 C   0  0  0  0  0  0  0  0  0  0  0  0
   47.6390   32.1360   48.3910 C   0  0  0  0  0  0  0  0  0  0  0  0
   41.8421   32.6528   40.7748 H   0  0  0  0  0  0  0  0  0  0  0  0
   43.3325   36.5796   41.1165 H   0  0  0  0  0  0  0  0  0  0  0  0
   40.5313   35.6597   40.8814 H   0  0  0  0  0  0  0  0  0  0  0  0
   41.9801   35.4635   38.0131 H   0  0  0  0  0  0  0  0  0  0  0  0
   40.6940   36.3208   37.8996 H   0  0  0  0  0  0  0  0  0  0  0  0
   40.5334   33.1080   38.9091 H   0  0  0  0  0  0  0  0  0  0  0  0
   44.3496   35.3167   45.0732 H   0  0  0  0  0  0  0  0  0  0  0  0
   47.5369   33.0270   43.4101 H   0  0  0  0  0  0  0  0  0  0  0  0
   45.2494   32.4167   49.4862 H   0  0  0  0  0  0  0  0  0  0  0  0
   44.3383   32.0557   47.9601 H   0  0  0  0  0  0  0  0  0  0  0  0
   45.2744   30.2230   49.8724 H   0  0  0  0  0  0  0  0  0  0  0  0
   44.5915   29.8880   48.2242 H   0  0  0  0  0  0  0  0  0  0  0  0
   46.7691   28.9165   48.7340 H   0  0  0  0  0  0  0  0  0  0  0  0
   47.7908   30.6406   49.9137 H   0  0  0  0  0  0  0  0  0  0  0  0
   48.6740   30.2818   48.3588 H   0  0  0  0  0  0  0  0  0  0  0  0
   48.4583   32.3776   47.6979 H   0  0  0  0  0  0  0  0  0  0  0  0
   47.6971   32.7716   49.2869 H   0  0  0  0  0  0  0  0  0  0  0  0
  1  2  1  0
  2  3  2  0
  3 13  1  0
  4  3  1  0
  5  1  1  0
  5  4  2  0
  6  5  1  0
  7  8  1  0
  7  6  1  0
  8  6  1  0
  9  8  1  0
  9 12  1  0
 10  9  1  0
 11  9  1  0
 13 15  1  0
 14 19  2  0
 15 16  2  0
 15 14  1  0
 16 17  1  0
 17 18  2  0
 18 20  1  0
 19 18  1  0
 20 25  1  0
 20 21  1  0
 21 22  1  0
 23 22  1  0
 23 24  1  0
 25 24  1  0
  1 26  1  0
  4 27  1  0
  6 28  1  1
  7 29  1  0
  7 30  1  0
  8 31  1  6
 14 32  1  0
 16 33  1  0
 21 34  1  0
 21 35  1  0
 22 36  1  0
 22 37  1  0
 23 38  1  0
 24 39  1  0
 24 40  1  0
 25 41  1  0
 25 42  1  0
M  ISO  8  26   9  27  14  28  13  29  13  30  13  31  13  32  14  33  14
M  ISO  8  34  13  35  13  36  13  37  13  38   5  39  13  40  13  41  13
M  ISO  1  42  13
M  END
>  <minimizedAffinity>  (1) 
-7.06043005

>  <minimizedRMSD>  (1) 
0.640641928

$$$$
