
     RDKit          3D

 38 41  0  0  1  0  0  0  0  0999 V2000
   42.4800   33.7890   40.0210 N   0  0  0  0  0  0  0  0  0  0  0  0
   43.5890   33.9880   40.7240 N   0  0  0  0  0  0  0  0  0  0  0  0
   43.4750   35.2410   41.3160 C   0  0  0  0  0  0  0  0  0  0  0  0
   42.2610   35.7670   40.9370 C   0  0  0  0  0  0  0  0  0  0  0  0
   41.6310   34.8790   40.1340 C   0  0  0  0  0  0  0  0  0  0  0  0
   40.3280   34.8960   39.4260 C   0  0  1  0  0  0  0  0  0  0  0  0
   40.3220   34.9580   37.9240 C   0  0  0  0  0  0  0  0  0  0  0  0
   39.9320   33.7020   38.6810 C   0  0  2  0  0  0  0  0  0  0  0  0
   38.4860   33.3030   38.5260 C   0  0  0  0  0  0  0  0  0  0  0  0
   38.4210   31.9130   38.4380 F   0  0  0  0  0  0  0  0  0  0  0  0
   37.9770   33.7940   37.3480 F   0  0  0  0  0  0  0  0  0  0  0  0
   37.7360   33.7500   39.5700 F   0  0  0  0  0  0  0  0  0  0  0  0
   44.6580   36.0490   42.3720 S   0  0  0  0  0  0  0  0  0  0  0  0
   44.6250   35.2870   45.0310 C   0  0  0  0  0  0  0  0  0  0  0  0
   45.0940   35.0110   43.7440 C   0  0  0  0  0  0  0  0  0  0  0  0
   45.9020   33.8910   43.6360 C   0  0  0  0  0  0  0  0  0  0  0  0
   46.2090   33.1220   44.7190 N   0  0  0  0  0  0  0  0  0  0  0  0
   45.7120   33.4650   45.9230 C   0  0  0  0  0  0  0  0  0  0  0  0
   44.9330   34.5280   46.0860 N   0  0  0  0  0  0  0  0  0  0  0  0
   46.0160   32.6710   47.1100 C   0  0  0  0  0  0  0  0  0  0  0  0
   45.0550   32.2700   48.0110 C   0  0  0  0  0  0  0  0  0  0  0  0
   45.3510   31.5180   49.1330 C   0  0  0  0  0  0  0  0  0  0  0  0
   46.6670   31.1350   49.3870 C   0  0  0  0  0  0  0  0  0  0  0  0
   47.6660   31.5140   48.5090 C   0  0  0  0  0  0  0  0  0  0  0  0
   47.3050   32.2540   47.4270 C   0  0  0  0  0  0  0  0  0  0  0  0
   42.2788   32.9430   39.4690 H   0  0  0  0  0  0  0  0  0  0  0  0
   41.8672   36.7491   41.2379 H   0  0  0  0  0  0  0  0  0  0  0  0
   39.8638   35.5009   40.2188 H   0  0  0  0  0  0  0  0  0  0  0  0
   41.2689   34.9989   37.3657 H   0  0  0  0  0  0  0  0  0  0  0  0
   39.8542   35.5982   37.1616 H   0  0  0  0  0  0  0  0  0  0  0  0
   40.2593   32.6542   38.7509 H   0  0  0  0  0  0  0  0  0  0  0  0
   43.9771   36.1632   45.1811 H   0  0  0  0  0  0  0  0  0  0  0  0
   46.3063   33.6150   42.6509 H   0  0  0  0  0  0  0  0  0  0  0  0
   44.0092   32.5597   47.8308 H   0  0  0  0  0  0  0  0  0  0  0  0
   44.5485   31.2222   49.8247 H   0  0  0  0  0  0  0  0  0  0  0  0
   46.9087   30.5367   50.2778 H   0  0  0  0  0  0  0  0  0  0  0  0
   48.7142   31.2273   48.6797 H   0  0  0  0  0  0  0  0  0  0  0  0
   48.1082   32.5512   46.7367 H   0  0  0  0  0  0  0  0  0  0  0  0
  1  5  1  0
  1  2  1  0
  2  3  2  0
  3 13  1  0
  4  3  1  0
  5  4  2  0
  6  5  1  0
  7  8  1  0
  7  6  1  0
  8  6  1  0
  9  8  1  0
  9 12  1  0
 10  9  1  0
 11  9  1  0
 13 15  1  0
 14 19  2  0
 15 14  1  0
 16 15  2  0
 16 17  1  0
 17 18  2  0
 18 19  1  0
 18 20  1  0
 20 25  1  0
 20 21  2  0
 21 22  1  0
 22 23  2  0
 24 23  1  0
 25 24  2  0
  1 26  1  0
  4 27  1  0
  6 28  1  1
  7 29  1  0
  7 30  1  0
  8 31  1  6
 14 32  1  0
 16 33  1  0
 21 34  1  0
 22 35  1  0
 23 36  1  0
 24 37  1  0
 25 38  1  0
M  ISO  8  26   9  27  14  28  13  29  13  30  13  31  13  32  14  33  14
M  ISO  5  34  14  35  14  36  14  37  14  38  14
M  END
>  <minimizedAffinity>  (1) 
-6.90699911

>  <minimizedRMSD>  (1) 
0.912108779

$$$$
