
     RDKit          3D

 35 38  0  0  1  0  0  0  0  0999 V2000
   42.6480   33.9000   39.9710 N   0  0  0  0  0  0  0  0  0  0  0  0
   43.7580   34.0790   40.6790 N   0  0  0  0  0  0  0  0  0  0  0  0
   43.6050   35.2470   41.3920 C   0  0  0  0  0  0  0  0  0  0  0  0
   42.3610   35.7510   41.0790 C   0  0  0  0  0  0  0  0  0  0  0  0
   41.7500   34.9310   40.1990 C   0  0  0  0  0  0  0  0  0  0  0  0
   40.4400   34.9530   39.5060 C   0  0  1  0  0  0  0  0  0  0  0  0
   40.4230   34.9700   38.0020 C   0  0  0  0  0  0  0  0  0  0  0  0
   40.0030   33.7510   38.7990 C   0  0  2  0  0  0  0  0  0  0  0  0
   38.5480   33.3890   38.6750 C   0  0  0  0  0  0  0  0  0  0  0  0
   38.4540   31.9990   38.5870 F   0  0  0  0  0  0  0  0  0  0  0  0
   38.0340   33.9000   37.4920 F   0  0  0  0  0  0  0  0  0  0  0  0
   37.8290   33.8570   39.7350 F   0  0  0  0  0  0  0  0  0  0  0  0
   44.7680   35.9930   42.5050 S   0  0  0  0  0  0  0  0  0  0  0  0
   44.6900   35.2320   45.1770 C   0  0  0  0  0  0  0  0  0  0  0  0
   45.0990   34.9090   43.8950 C   0  0  0  0  0  0  0  0  0  0  0  0
   45.7920   33.7020   43.7180 C   0  0  0  0  0  0  0  0  0  0  0  0
   46.0350   32.9040   44.7780 N   0  0  0  0  0  0  0  0  0  0  0  0
   45.6110   33.2710   46.0020 C   0  0  0  0  0  0  0  0  0  0  0  0
   44.9460   34.4220   46.2030 N   0  0  0  0  0  0  0  0  0  0  0  0
   45.8010   32.5120   47.2540 C   0  0  0  0  0  0  0  0  0  0  0  0
   44.9920   32.1360   48.2400 C   0  0  0  0  0  0  0  0  0  0  0  0
   45.4630   31.4190   49.3020 C   0  0  0  0  0  0  0  0  0  0  0  0
   46.8840   31.1200   49.2440 C   0  0  0  0  0  0  0  0  0  0  0  0
   47.3760   31.9420   47.6090 S   0  0  0  0  0  0  0  0  0  0  0  0
   42.4781   33.1043   39.3394 H   0  0  0  0  0  0  0  0  0  0  0  0
   41.9322   36.6793   41.4844 H   0  0  0  0  0  0  0  0  0  0  0  0
   39.9987   35.5886   40.2878 H   0  0  0  0  0  0  0  0  0  0  0  0
   41.3659   34.9658   37.4354 H   0  0  0  0  0  0  0  0  0  0  0  0
   39.9678   35.6006   37.2241 H   0  0  0  0  0  0  0  0  0  0  0  0
   40.3005   32.6962   38.8937 H   0  0  0  0  0  0  0  0  0  0  0  0
   44.1454   36.1717   45.3513 H   0  0  0  0  0  0  0  0  0  0  0  0
   46.1368   33.4068   42.7160 H   0  0  0  0  0  0  0  0  0  0  0  0
   43.9267   32.4069   48.1994 H   0  0  0  0  0  0  0  0  0  0  0  0
   44.8198   31.0943   50.1332 H   0  0  0  0  0  0  0  0  0  0  0  0
   47.5082   30.5642   49.9592 H   0  0  0  0  0  0  0  0  0  0  0  0
  1  5  1  0
  1  2  1  0
  2  3  2  0
  3 13  1  0
  4  3  1  0
  5  4  2  0
  6  5  1  0
  7  8  1  0
  7  6  1  0
  8  6  1  0
  9  8  1  0
  9 12  1  0
 10  9  1  0
 11  9  1  0
 13 15  1  0
 14 19  2  0
 15 14  1  0
 16 15  2  0
 16 17  1  0
 17 18  2  0
 18 19  1  0
 18 20  1  0
 20 24  1  0
 20 21  2  0
 21 22  1  0
 23 22  2  0
 24 23  1  0
  1 25  1  0
  4 26  1  0
  6 27  1  1
  7 28  1  0
  7 29  1  0
  8 30  1  6
 14 31  1  0
 16 32  1  0
 21 33  1  0
 22 34  1  0
 23 35  1  0
M  ISO  8  25   9  26  14  27  13  28  13  29  13  30  13  31  14  32  14
M  ISO  3  33  14  34  14  35  14
M  END
>  <minimizedAffinity>  (1) 
-6.53717136

>  <minimizedRMSD>  (1) 
0.857492805

$$$$
