
     RDKit          3D

 35 38  0  0  1  0  0  0  0  0999 V2000
   42.6160   33.6080   41.0880 N   0  0  0  0  0  0  0  0  0  0  0  0
   43.7330   33.4980   41.7900 N   0  0  0  0  0  0  0  0  0  0  0  0
   44.2240   34.7860   41.9680 C   0  0  0  0  0  0  0  0  0  0  0  0
   43.3510   35.6460   41.3430 C   0  0  0  0  0  0  0  0  0  0  0  0
   42.3450   34.9340   40.7910 C   0  0  0  0  0  0  0  0  0  0  0  0
   41.1470   35.3040   39.9970 C   0  0  1  0  0  0  0  0  0  0  0  0
   41.2980   35.4980   38.5140 C   0  0  0  0  0  0  0  0  0  0  0  0
   40.5800   34.2980   39.1000 C   0  0  2  0  0  0  0  0  0  0  0  0
   39.1050   34.2430   38.7940 C   0  0  0  0  0  0  0  0  0  0  0  0
   38.7100   32.9040   38.7920 F   0  0  0  0  0  0  0  0  0  0  0  0
   38.8640   34.7400   37.5230 F   0  0  0  0  0  0  0  0  0  0  0  0
   38.3870   34.9490   39.7130 F   0  0  0  0  0  0  0  0  0  0  0  0
   45.7050   35.2780   42.8260 S   0  0  0  0  0  0  0  0  0  0  0  0
   45.2020   34.4200   45.4060 C   0  0  0  0  0  0  0  0  0  0  0  0
   45.9620   34.2630   44.2590 C   0  0  0  0  0  0  0  0  0  0  0  0
   46.9190   33.2650   44.3310 C   0  0  0  0  0  0  0  0  0  0  0  0
   47.0880   32.5060   45.4510 N   0  0  0  0  0  0  0  0  0  0  0  0
   46.2980   32.7350   46.5180 C   0  0  0  0  0  0  0  0  0  0  0  0
   45.3650   33.6780   46.5040 N   0  0  0  0  0  0  0  0  0  0  0  0
   46.4600   31.9210   47.7510 C   0  0  0  0  0  0  0  0  0  0  0  0
   45.3620   30.8410   47.9110 C   0  0  0  0  0  0  0  0  0  0  0  0
   45.4940   32.0400   48.8460 C   0  0  0  0  0  0  0  0  0  0  0  0
   42.0267   32.8135   40.8008 H   0  0  0  0  0  0  0  0  0  0  0  0
   43.4557   36.7401   41.2997 H   0  0  0  0  0  0  0  0  0  0  0  0
   40.7483   35.9238   40.8137 H   0  0  0  0  0  0  0  0  0  0  0  0
   42.2810   35.3781   38.0352 H   0  0  0  0  0  0  0  0  0  0  0  0
   41.0519   36.2906   37.7921 H   0  0  0  0  0  0  0  0  0  0  0  0
   40.6690   33.2018   39.0818 H   0  0  0  0  0  0  0  0  0  0  0  0
   44.4232   35.1968   45.4128 H   0  0  0  0  0  0  0  0  0  0  0  0
   47.5623   33.0789   43.4584 H   0  0  0  0  0  0  0  0  0  0  0  0
   47.5587   31.9720   47.7352 H   0  0  0  0  0  0  0  0  0  0  0  0
   44.5295   30.7806   47.1945 H   0  0  0  0  0  0  0  0  0  0  0  0
   45.3323   29.7468   48.0198 H   0  0  0  0  0  0  0  0  0  0  0  0
   45.8265   31.8864   49.8832 H   0  0  0  0  0  0  0  0  0  0  0  0
   44.8051   32.8322   49.1743 H   0  0  0  0  0  0  0  0  0  0  0  0
  1  2  1  0
  2  3  2  0
  3 13  1  0
  4  3  1  0
  5  1  1  0
  5  4  2  0
  6  5  1  0
  7  8  1  0
  7  6  1  0
  8  6  1  0
  9  8  1  0
  9 12  1  0
 10  9  1  0
 11  9  1  0
 13 15  1  0
 14 19  2  0
 15 16  2  0
 15 14  1  0
 16 17  1  0
 17 18  2  0
 18 20  1  0
 19 18  1  0
 20 21  1  0
 20 22  1  0
 21 22  1  0
  1 23  1  0
  4 24  1  0
  6 25  1  1
  7 26  1  0
  7 27  1  0
  8 28  1  1
 14 29  1  0
 16 30  1  0
 20 31  1  0
 21 32  1  0
 21 33  1  0
 22 34  1  0
 22 35  1  0
M  ISO  8  23   9  24  14  25  13  26  13  27  13  28  13  29  14  30  14
M  ISO  5  31  13  32  13  33  13  34  13  35  13
M  END
>  <minimizedAffinity>  (1) 
-6.06847763

>  <minimizedRMSD>  (1) 
0.644253612

$$$$
