
     RDKit          3D

 34 36  0  0  1  0  0  0  0  0999 V2000
   42.5390   33.5630   41.0940 N   0  0  0  0  0  0  0  0  0  0  0  0
   43.6850   33.4730   41.7500 N   0  0  0  0  0  0  0  0  0  0  0  0
   44.1300   34.7750   41.9580 C   0  0  0  0  0  0  0  0  0  0  0  0
   43.1960   35.6180   41.3960 C   0  0  0  0  0  0  0  0  0  0  0  0
   42.2000   34.8870   40.8550 C   0  0  0  0  0  0  0  0  0  0  0  0
   40.9620   35.2180   40.1270 C   0  0  1  0  0  0  0  0  0  0  0  0
   41.0540   35.6130   38.6810 C   0  0  0  0  0  0  0  0  0  0  0  0
   40.4670   34.2820   39.1180 C   0  0  2  0  0  0  0  0  0  0  0  0
   38.9960   34.1380   38.8260 C   0  0  0  0  0  0  0  0  0  0  0  0
   38.7090   32.7620   38.7950 F   0  0  0  0  0  0  0  0  0  0  0  0
   38.7000   34.6350   37.5700 F   0  0  0  0  0  0  0  0  0  0  0  0
   38.2390   34.7540   39.7670 F   0  0  0  0  0  0  0  0  0  0  0  0
   45.6170   35.2970   42.7820 S   0  0  0  0  0  0  0  0  0  0  0  0
   45.1720   34.4370   45.3690 C   0  0  0  0  0  0  0  0  0  0  0  0
   45.9250   34.2920   44.2150 C   0  0  0  0  0  0  0  0  0  0  0  0
   46.9100   33.3210   44.2750 C   0  0  0  0  0  0  0  0  0  0  0  0
   47.1110   32.5740   45.3960 N   0  0  0  0  0  0  0  0  0  0  0  0
   46.3310   32.7820   46.4740 C   0  0  0  0  0  0  0  0  0  0  0  0
   45.3730   33.7000   46.4680 N   0  0  0  0  0  0  0  0  0  0  0  0
   46.6200   31.9220   47.6520 C   0  0  0  0  0  0  0  0  0  0  0  0
   45.7760   32.2760   48.8510 C   0  0  0  0  0  0  0  0  0  0  0  0
   41.9724   32.7550   40.7992 H   0  0  0  0  0  0  0  0  0  0  0  0
   43.2538   36.7165   41.3896 H   0  0  0  0  0  0  0  0  0  0  0  0
   40.5266   35.6834   41.0235 H   0  0  0  0  0  0  0  0  0  0  0  0
   42.0307   35.6507   38.1763 H   0  0  0  0  0  0  0  0  0  0  0  0
   40.7152   36.4637   38.0715 H   0  0  0  0  0  0  0  0  0  0  0  0
   40.6568   33.2100   38.9608 H   0  0  0  0  0  0  0  0  0  0  0  0
   44.3725   35.1923   45.3826 H   0  0  0  0  0  0  0  0  0  0  0  0
   47.5466   33.1484   43.3947 H   0  0  0  0  0  0  0  0  0  0  0  0
   46.4234   30.8745   47.3799 H   0  0  0  0  0  0  0  0  0  0  0  0
   47.6731   32.0792   47.9283 H   0  0  0  0  0  0  0  0  0  0  0  0
   46.3310   32.0432   49.7717 H   0  0  0  0  0  0  0  0  0  0  0  0
   45.5381   33.3497   48.8278 H   0  0  0  0  0  0  0  0  0  0  0  0
   44.8433   31.6932   48.8278 H   0  0  0  0  0  0  0  0  0  0  0  0
  1  2  1  0
  2  3  2  0
  3 13  1  0
  4  3  1  0
  5  1  1  0
  5  4  2  0
  6  5  1  0
  7  8  1  0
  7  6  1  0
  8  6  1  0
  9  8  1  0
  9 12  1  0
 10  9  1  0
 11  9  1  0
 13 15  1  0
 14 19  2  0
 15 16  2  0
 15 14  1  0
 16 17  1  0
 17 18  2  0
 18 20  1  0
 19 18  1  0
 20 21  1  0
  1 22  1  0
  4 23  1  0
  6 24  1  1
  7 25  1  0
  7 26  1  0
  8 27  1  6
 14 28  1  0
 16 29  1  0
 20 30  1  0
 20 31  1  0
 21 32  1  0
 21 33  1  0
 21 34  1  0
M  ISO  8  22   9  23  14  24  13  25  13  26  13  27  13  28  14  29  14
M  ISO  5  30   8  31   8  32   8  33   8  34   8
M  END
>  <minimizedAffinity>  (1) 
-5.7926898

>  <minimizedRMSD>  (1) 
0.476658225

$$$$
