
     RDKit          3D

 29 31  0  0  1  0  0  0  0  0999 V2000
   42.2720   33.5500   41.0420 N   0  0  0  0  0  0  0  0  0  0  0  0
   43.4030   33.5980   41.7240 N   0  0  0  0  0  0  0  0  0  0  0  0
   43.7250   34.9440   41.8630 C   0  0  0  0  0  0  0  0  0  0  0  0
   42.7360   35.6680   41.2370 C   0  0  0  0  0  0  0  0  0  0  0  0
   41.8210   34.8220   40.7190 C   0  0  0  0  0  0  0  0  0  0  0  0
   40.5770   35.0030   39.9510 C   0  0  1  0  0  0  0  0  0  0  0  0
   40.6630   35.2070   38.4640 C   0  0  0  0  0  0  0  0  0  0  0  0
   40.1290   33.9230   39.0730 C   0  0  2  0  0  0  0  0  0  0  0  0
   38.6650   33.6630   38.8070 C   0  0  0  0  0  0  0  0  0  0  0  0
   38.4880   32.2850   38.6720 F   0  0  0  0  0  0  0  0  0  0  0  0
   38.3000   34.2270   37.5960 F   0  0  0  0  0  0  0  0  0  0  0  0
   37.8870   34.1560   39.8030 F   0  0  0  0  0  0  0  0  0  0  0  0
   45.1390   35.6440   42.6900 S   0  0  0  0  0  0  0  0  0  0  0  0
   45.0570   34.5930   45.2460 C   0  0  0  0  0  0  0  0  0  0  0  0
   45.6820   34.5840   44.0110 C   0  0  0  0  0  0  0  0  0  0  0  0
   46.7410   33.6990   43.9010 C   0  0  0  0  0  0  0  0  0  0  0  0
   47.1240   32.9060   44.9350 N   0  0  0  0  0  0  0  0  0  0  0  0
   46.4560   32.9830   46.1020 C   0  0  0  0  0  0  0  0  0  0  0  0
   45.4340   33.8140   46.2630 N   0  0  0  0  0  0  0  0  0  0  0  0
   46.8890   31.9770   47.5180 S   0  0  0  0  0  0  0  0  0  0  0  0
   41.7869   32.6791   40.7831 H   0  0  0  0  0  0  0  0  0  0  0  0
   42.6974   36.7652   41.1694 H   0  0  0  0  0  0  0  0  0  0  0  0
   40.1165   35.5644   40.7773 H   0  0  0  0  0  0  0  0  0  0  0  0
   41.6408   35.2185   37.9602 H   0  0  0  0  0  0  0  0  0  0  0  0
   40.2936   35.9544   37.7464 H   0  0  0  0  0  0  0  0  0  0  0  0
   40.3656   32.8489   39.0553 H   0  0  0  0  0  0  0  0  0  0  0  0
   44.2078   35.2756   45.3972 H   0  0  0  0  0  0  0  0  0  0  0  0
   47.2880   33.6363   42.9487 H   0  0  0  0  0  0  0  0  0  0  0  0
   46.5955   32.6588   48.6695 H   0  0  0  0  0  0  0  0  0  0  0  0
  1  2  1  0
  2  3  2  0
  3 13  1  0
  4  3  1  0
  5  1  1  0
  5  4  2  0
  6  5  1  0
  7  8  1  0
  7  6  1  0
  8  6  1  0
  9  8  1  0
  9 12  1  0
 10  9  1  0
 11  9  1  0
 13 15  1  0
 14 19  2  0
 15 14  1  0
 16 15  2  0
 16 17  1  0
 17 18  2  0
 18 19  1  0
 18 20  1  0
  1 21  1  0
  4 22  1  0
  6 23  1  1
  7 24  1  0
  7 25  1  0
  8 26  1  1
 14 27  1  0
 16 28  1  0
 20 29  1  0
M  ISO  8  21   9  22  14  23  13  24  13  25  13  26  13  27  14  28  14
M  ISO  1  29  11
M  END
>  <minimizedAffinity>  (1) 
-5.6286025

>  <minimizedRMSD>  (1) 
0.158423752

$$$$
