
     RDKit          3D

 39 42  0  0  1  0  0  0  0  0999 V2000
   49.1360   33.5250   42.5980 C   0  0  2  0  0  0  0  0  0  0  0  0
   47.7440   33.7680   42.3600 C   0  0  2  0  0  0  0  0  0  0  0  0
   47.6610   35.2480   41.9060 C   0  0  0  0  0  0  0  0  0  0  0  0
   49.0430   35.7400   41.6350 C   0  0  0  0  0  0  0  0  0  0  0  0
   49.8320   34.9230   42.5800 C   0  0  0  0  0  0  0  0  0  0  0  0
   49.8810   32.7340   41.5940 C   0  0  0  0  0  0  0  0  0  0  0  0
   49.1590   32.2920   40.4580 C   0  0  0  0  0  0  0  0  0  0  0  0
   49.8370   31.5860   39.4710 C   0  0  0  0  0  0  0  0  0  0  0  0
   51.1840   31.3670   39.6800 N   0  0  0  0  0  0  0  0  0  0  0  0
   51.8430   31.7900   40.7590 C   0  0  0  0  0  0  0  0  0  0  0  0
   51.1760   32.4660   41.6950 N   0  0  0  0  0  0  0  0  0  0  0  0
   46.8280   33.5790   43.5180 C   0  0  0  0  0  0  0  0  0  0  0  0
   46.1900   34.4780   43.9670 O   0  0  0  0  0  0  0  0  0  0  0  0
   46.5800   32.3230   44.2150 C   0  0  0  0  0  0  0  0  0  0  0  0
   46.6710   31.0140   43.7930 C   0  0  0  0  0  0  0  0  0  0  0  0
   46.3200   30.1400   44.7470 N   0  0  0  0  0  0  0  0  0  0  0  0
   45.9860   30.8390   45.8310 C   0  0  0  0  0  0  0  0  0  0  0  0
   45.5540   30.4680   47.0880 C   0  0  0  0  0  0  0  0  0  0  0  0
   45.2690   31.3920   48.0450 C   0  0  0  0  0  0  0  0  0  0  0  0
   45.4050   32.7390   47.7920 C   0  0  0  0  0  0  0  0  0  0  0  0
   45.8310   33.0860   46.5490 C   0  0  0  0  0  0  0  0  0  0  0  0
   46.1420   32.1950   45.5160 C   0  0  0  0  0  0  0  0  0  0  0  0
   49.1602   32.9462   43.5331 H   0  0  0  0  0  0  0  0  0  0  0  0
   47.4024   33.0248   41.6246 H   0  0  0  0  0  0  0  0  0  0  0  0
   47.0551   35.3216   40.9908 H   0  0  0  0  0  0  0  0  0  0  0  0
   47.1924   35.8572   42.6930 H   0  0  0  0  0  0  0  0  0  0  0  0
   49.3407   35.5506   40.5931 H   0  0  0  0  0  0  0  0  0  0  0  0
   49.1682   36.8252   41.7645 H   0  0  0  0  0  0  0  0  0  0  0  0
   50.8722   34.8310   42.2342 H   0  0  0  0  0  0  0  0  0  0  0  0
   49.8682   35.3757   43.5819 H   0  0  0  0  0  0  0  0  0  0  0  0
   48.0840   32.5032   40.3590 H   0  0  0  0  0  0  0  0  0  0  0  0
   49.3258   31.2200   38.5684 H   0  0  0  0  0  0  0  0  0  0  0  0
   52.9175   31.5851   40.8750 H   0  0  0  0  0  0  0  0  0  0  0  0
   46.9959   30.7189   42.7843 H   0  0  0  0  0  0  0  0  0  0  0  0
   46.3103   29.1139   44.6581 H   0  0  0  0  0  0  0  0  0  0  0  0
   45.4373   29.3995   47.3218 H   0  0  0  0  0  0  0  0  0  0  0  0
   44.9250   31.0585   49.0352 H   0  0  0  0  0  0  0  0  0  0  0  0
   45.1801   33.4960   48.5577 H   0  0  0  0  0  0  0  0  0  0  0  0
   45.9407   34.1597   46.3368 H   0  0  0  0  0  0  0  0  0  0  0  0
  2  1  1  0
  2 12  1  0
  3  2  1  0
  4  3  1  0
  4  5  1  0
  5  1  1  0
  6 11  1  0
  6  1  1  0
  7  6  2  0
  8  9  2  0
  8  7  1  0
  9 10  1  0
 10 11  2  0
 12 13  2  0
 12 14  1  0
 14 22  1  0
 15 14  2  0
 15 16  1  0
 16 17  1  0
 17 18  2  0
 18 19  1  0
 20 19  2  0
 21 20  1  0
 22 17  1  0
 22 21  2  0
  1 23  1  1
  2 24  1  6
  3 25  1  0
  3 26  1  0
  4 27  1  0
  4 28  1  0
  5 29  1  0
  5 30  1  0
  7 31  1  0
  8 32  1  0
 10 33  1  0
 15 34  1  0
 16 35  1  0
 18 36  1  0
 19 37  1  0
 20 38  1  0
 21 39  1  0
M  ISO  8  23  13  24  13  25  13  26  13  27  13  28  13  29  13  30  13
M  ISO  8  31  14  32  14  33  14  34  14  35   9  36  14  37  14  38  14
M  ISO  1  39  14
M  END
>  <minimizedAffinity>  (1) 
-5.94346571

>  <minimizedRMSD>  (1) 
0.842407763

$$$$
