
     RDKit          3D

 38 41  0  0  1  0  0  0  0  0999 V2000
   45.4340   35.7150   43.0700 S   0  0  0  0  0  0  0  0  0  0  0  0
   45.3210   34.2510   45.3850 C   0  0  0  0  0  0  0  0  0  0  0  0
   45.9300   34.4020   44.1550 C   0  0  0  0  0  0  0  0  0  0  0  0
   46.9390   33.4730   43.8320 C   0  0  0  0  0  0  0  0  0  0  0  0
   47.2720   32.4870   44.7120 N   0  0  0  0  0  0  0  0  0  0  0  0
   46.6180   32.4200   45.8970 C   0  0  0  0  0  0  0  0  0  0  0  0
   45.6660   33.2690   46.2420 N   0  0  0  0  0  0  0  0  0  0  0  0
   46.9610   31.3700   46.8550 C   0  0  0  0  0  0  0  0  0  0  0  0
   47.9140   30.3620   46.6490 C   0  0  0  0  0  0  0  0  0  0  0  0
   47.9890   29.5520   47.7310 N   0  0  0  0  0  0  0  0  0  0  0  0
   47.0880   30.0450   48.6150 C   0  0  0  0  0  0  0  0  0  0  0  0
   46.4850   31.1240   48.0830 N   0  0  0  0  0  0  0  0  0  0  0  0
   45.4670   31.9160   48.7310 C   0  0  0  0  0  0  0  0  0  0  0  0
   44.2370   31.7850   48.0720 F   0  0  0  0  0  0  0  0  0  0  0  0
   45.8260   33.2390   48.9040 F   0  0  0  0  0  0  0  0  0  0  0  0
   45.2190   31.4360   50.0130 F   0  0  0  0  0  0  0  0  0  0  0  0
   43.0510   34.3730   40.2870 N   0  0  0  0  0  0  0  0  0  0  0  0
   44.2720   34.5780   40.7610 N   0  0  0  0  0  0  0  0  0  0  0  0
   44.1250   35.1950   41.9840 C   0  0  0  0  0  0  0  0  0  0  0  0
   42.7860   35.3450   42.2140 C   0  0  0  0  0  0  0  0  0  0  0  0
   42.0920   34.8450   41.1830 C   0  0  0  0  0  0  0  0  0  0  0  0
   40.6390   34.7300   40.8580 C   0  0  1  0  0  0  0  0  0  0  0  0
   39.9250   35.9890   40.3910 C   0  0  0  0  0  0  0  0  0  0  0  0
   40.2280   34.8320   39.4730 C   0  0  2  0  0  0  0  0  0  0  0  0
   39.0330   34.1040   38.9440 C   0  0  0  0  0  0  0  0  0  0  0  0
   39.3940   32.7750   38.7060 F   0  0  0  0  0  0  0  0  0  0  0  0
   38.6440   34.6260   37.7300 F   0  0  0  0  0  0  0  0  0  0  0  0
   37.9910   34.1800   39.8130 F   0  0  0  0  0  0  0  0  0  0  0  0
   44.5277   34.9555   45.6754 H   0  0  0  0  0  0  0  0  0  0  0  0
   47.4600   33.5438   42.8658 H   0  0  0  0  0  0  0  0  0  0  0  0
   48.5163   30.2458   45.7359 H   0  0  0  0  0  0  0  0  0  0  0  0
   46.8817   29.6282   49.6119 H   0  0  0  0  0  0  0  0  0  0  0  0
   42.8399   33.9272   39.3828 H   0  0  0  0  0  0  0  0  0  0  0  0
   42.3451   35.8064   43.1099 H   0  0  0  0  0  0  0  0  0  0  0  0
   40.4719   33.9885   41.6531 H   0  0  0  0  0  0  0  0  0  0  0  0
   38.8917   36.1941   40.7075 H   0  0  0  0  0  0  0  0  0  0  0  0
   40.1313   37.0694   40.4018 H   0  0  0  0  0  0  0  0  0  0  0  0
   40.7815   34.6694   38.5364 H   0  0  0  0  0  0  0  0  0  0  0  0
  1  3  1  0
  2  7  2  0
  3  2  1  0
  4  3  2  0
  4  5  1  0
  5  6  2  0
  6  7  1  0
  6  8  1  0
  8 12  1  0
  9  8  2  0
  9 10  1  0
 10 11  2  0
 12 11  1  0
 12 13  1  0
 13 15  1  0
 13 16  1  0
 14 13  1  0
 17 18  1  0
 17 21  1  0
 18 19  2  0
 19 20  1  0
 19  1  1  0
 21 20  2  0
 22 21  1  0
 23 22  1  0
 24 23  1  0
 24 22  1  0
 25 24  1  0
 25 28  1  0
 26 25  1  0
 27 25  1  0
  2 29  1  0
  4 30  1  0
  9 31  1  0
 11 32  1  0
 17 33  1  0
 20 34  1  0
 22 35  1  1
 23 36  1  0
 23 37  1  0
 24 38  1  6
M  ISO  8  29  14  30  14  31  14  32  14  33   9  34  14  35  13  36  13
M  ISO  2  37  13  38  13
M  END
>  <minimizedAffinity>  (1) 
-6.73475838

>  <minimizedRMSD>  (1) 
1.60502183

$$$$
