
     RDKit          3D

 20 21  0  0  0  0  0  0  0  0999 V2000
   44.6570   36.0760   44.1100 C   0  0  0  0  0  0  0  0  0  0  0  0
   45.1940   35.7990   42.8340 C   0  0  0  0  0  0  0  0  0  0  0  0
   46.0010   34.6460   42.7140 C   0  0  0  0  0  0  0  0  0  0  0  0
   46.2170   33.8780   43.8100 N   0  0  0  0  0  0  0  0  0  0  0  0
   45.6730   34.1910   45.0200 C   0  0  0  0  0  0  0  0  0  0  0  0
   44.9050   35.2790   45.1560 N   0  0  0  0  0  0  0  0  0  0  0  0
   45.8810   33.4050   46.1880 N   0  0  0  0  0  0  0  0  0  0  0  0
   46.8840   32.5060   46.1410 C   0  0  0  0  0  0  0  0  0  0  0  0
   47.1960   31.6770   47.2010 C   0  0  0  0  0  0  0  0  0  0  0  0
   46.4510   31.7710   48.3610 C   0  0  0  0  0  0  0  0  0  0  0  0
   46.6350   31.0730   49.3950 O   0  0  0  0  0  0  0  0  0  0  0  0
   45.4520   32.6810   48.3780 N   0  0  0  0  0  0  0  0  0  0  0  0
   45.1710   33.4750   47.3290 C   0  0  0  0  0  0  0  0  0  0  0  0
   44.2430   34.3110   47.3650 O   0  0  0  0  0  0  0  0  0  0  0  0
   44.0225   36.9641   44.2470 H   0  0  0  0  0  0  0  0  0  0  0  0
   44.9929   36.4519   41.9719 H   0  0  0  0  0  0  0  0  0  0  0  0
   46.4475   34.3753   41.7458 H   0  0  0  0  0  0  0  0  0  0  0  0
   47.4795   32.4291   45.2193 H   0  0  0  0  0  0  0  0  0  0  0  0
   48.0224   30.9552   47.1231 H   0  0  0  0  0  0  0  0  0  0  0  0
   44.8812   32.7705   49.2307 H   0  0  0  0  0  0  0  0  0  0  0  0
  1  6  2  0
  2  1  1  0
  3  2  2  0
  3  4  1  0
  4  5  2  0
  5  6  1  0
  5  7  1  0
  7 13  1  0
  8  7  1  0
  8  9  2  0
  9 10  1  0
 10 12  1  0
 10 11  2  0
 13 14  2  0
 13 12  1  0
  1 15  1  0
  2 16  1  0
  3 17  1  0
  8 18  1  0
  9 19  1  0
 12 20  1  0
M  ISO  6  15  14  16  14  17  14  18  14  19  14  20   9
M  END
>  <minimizedAffinity>  (1) 
-4.87502623

>  <minimizedRMSD>  (1) 
0.788246453

$$$$
