
     RDKit          3D

 27 29  0  0  0  0  0  0  0  0999 V2000
   44.5240   36.0410   43.8810 C   0  0  0  0  0  0  0  0  0  0  0  0
   44.5720   35.9220   42.4660 C   0  0  0  0  0  0  0  0  0  0  0  0
   45.1780   34.7580   41.9260 C   0  0  0  0  0  0  0  0  0  0  0  0
   45.6800   33.8200   42.7810 N   0  0  0  0  0  0  0  0  0  0  0  0
   45.5990   34.0010   44.1310 C   0  0  0  0  0  0  0  0  0  0  0  0
   45.0320   35.0910   44.6830 N   0  0  0  0  0  0  0  0  0  0  0  0
   46.1140   33.0400   45.0550 N   0  0  0  0  0  0  0  0  0  0  0  0
   46.9520   32.1040   44.5620 C   0  0  0  0  0  0  0  0  0  0  0  0
   47.5210   31.1190   45.3370 C   0  0  0  0  0  0  0  0  0  0  0  0
   47.2250   31.0840   46.6770 C   0  0  0  0  0  0  0  0  0  0  0  0
   47.6760   30.2380   47.5000 O   0  0  0  0  0  0  0  0  0  0  0  0
   46.3850   32.0300   47.1460 N   0  0  0  0  0  0  0  0  0  0  0  0
   45.8410   32.9820   46.3760 C   0  0  0  0  0  0  0  0  0  0  0  0
   45.0690   33.8450   46.8290 O   0  0  0  0  0  0  0  0  0  0  0  0
   46.0180   32.0700   48.5430 C   0  0  0  0  0  0  0  0  0  0  0  0
   45.9480   30.9040   49.4120 C   0  0  0  0  0  0  0  0  0  0  0  0
   44.6700   31.3830   48.8100 C   0  0  0  0  0  0  0  0  0  0  0  0
   44.0601   36.9317   44.3299 H   0  0  0  0  0  0  0  0  0  0  0  0
   44.1549   36.7031   41.8134 H   0  0  0  0  0  0  0  0  0  0  0  0
   45.2421   34.6142   40.8373 H   0  0  0  0  0  0  0  0  0  0  0  0
   47.1919   32.1295   43.4888 H   0  0  0  0  0  0  0  0  0  0  0  0
   48.1986   30.3755   44.8920 H   0  0  0  0  0  0  0  0  0  0  0  0
   46.5257   33.0345   48.6913 H   0  0  0  0  0  0  0  0  0  0  0  0
   46.3817   29.9506   49.0758 H   0  0  0  0  0  0  0  0  0  0  0  0
   46.2751   30.7025   50.4427 H   0  0  0  0  0  0  0  0  0  0  0  0
   43.9092   31.8733   49.4352 H   0  0  0  0  0  0  0  0  0  0  0  0
   43.8692   30.9438   48.1969 H   0  0  0  0  0  0  0  0  0  0  0  0
  1  6  2  0
  2  1  1  0
  3  2  2  0
  3  4  1  0
  4  5  2  0
  5  6  1  0
  5  7  1  0
  7 13  1  0
  8  7  1  0
  8  9  2  0
  9 10  1  0
 10 12  1  0
 10 11  2  0
 12 15  1  0
 13 14  2  0
 13 12  1  0
 15 17  1  0
 15 16  1  0
 17 16  1  0
  1 18  1  0
  2 19  1  0
  3 20  1  0
  8 21  1  0
  9 22  1  0
 15 23  1  0
 16 24  1  0
 16 25  1  0
 17 26  1  0
 17 27  1  0
M  ISO  8  18  14  19  14  20  14  21  14  22  14  23  13  24  13  25  13
M  ISO  2  26  13  27  13
M  END
>  <minimizedAffinity>  (1) 
-4.93481398

>  <minimizedRMSD>  (1) 
1.48290634

$$$$
