
     RDKit          3D

 26 27  0  0  0  0  0  0  0  0999 V2000
   44.4680   35.8590   44.4300 C   0  0  0  0  0  0  0  0  0  0  0  0
   44.5690   35.7450   43.0200 C   0  0  0  0  0  0  0  0  0  0  0  0
   45.2130   34.6050   42.5080 C   0  0  0  0  0  0  0  0  0  0  0  0
   45.7000   33.6870   43.3680 N   0  0  0  0  0  0  0  0  0  0  0  0
   45.5800   33.8390   44.7200 C   0  0  0  0  0  0  0  0  0  0  0  0
   44.9700   34.9160   45.2420 N   0  0  0  0  0  0  0  0  0  0  0  0
   46.0820   32.8910   45.6430 N   0  0  0  0  0  0  0  0  0  0  0  0
   46.9530   31.9700   45.1680 C   0  0  0  0  0  0  0  0  0  0  0  0
   47.5120   30.9940   45.9670 C   0  0  0  0  0  0  0  0  0  0  0  0
   47.1780   30.9430   47.3080 C   0  0  0  0  0  0  0  0  0  0  0  0
   47.6300   30.0970   48.1150 O   0  0  0  0  0  0  0  0  0  0  0  0
   46.3110   31.8700   47.7490 N   0  0  0  0  0  0  0  0  0  0  0  0
   45.7730   32.8180   46.9580 C   0  0  0  0  0  0  0  0  0  0  0  0
   44.9730   33.6640   47.3960 O   0  0  0  0  0  0  0  0  0  0  0  0
   45.8980   31.8980   49.1490 C   0  0  0  0  0  0  0  0  0  0  0  0
   44.7840   30.9200   49.4230 C   0  0  0  0  0  0  0  0  0  0  0  0
   43.9688   36.7368   44.8661 H   0  0  0  0  0  0  0  0  0  0  0  0
   44.1596   36.5181   42.3532 H   0  0  0  0  0  0  0  0  0  0  0  0
   45.3182   34.4637   41.4222 H   0  0  0  0  0  0  0  0  0  0  0  0
   47.2259   32.0010   44.1028 H   0  0  0  0  0  0  0  0  0  0  0  0
   48.2162   30.2638   45.5417 H   0  0  0  0  0  0  0  0  0  0  0  0
   46.7613   31.6406   49.7802 H   0  0  0  0  0  0  0  0  0  0  0  0
   45.5295   32.9091   49.3769 H   0  0  0  0  0  0  0  0  0  0  0  0
   44.6547   30.8065   50.5095 H   0  0  0  0  0  0  0  0  0  0  0  0
   43.8497   31.2949   48.9797 H   0  0  0  0  0  0  0  0  0  0  0  0
   45.0348   29.9450   48.9797 H   0  0  0  0  0  0  0  0  0  0  0  0
  1  6  2  0
  2  1  1  0
  3  2  2  0
  3  4  1  0
  4  5  2  0
  5  6  1  0
  5  7  1  0
  7 13  1  0
  8  7  1  0
  8  9  2  0
  9 10  1  0
 10 12  1  0
 10 11  2  0
 12 15  1  0
 13 14  2  0
 13 12  1  0
 15 16  1  0
  1 17  1  0
  2 18  1  0
  3 19  1  0
  8 20  1  0
  9 21  1  0
 15 22  1  0
 15 23  1  0
 16 24  1  0
 16 25  1  0
 16 26  1  0
M  ISO  8  17  14  18  14  19  14  20  14  21  14  22   8  23   8  24   8
M  ISO  2  25   8  26   8
M  END
>  <minimizedAffinity>  (1) 
-4.874722

>  <minimizedRMSD>  (1) 
1.15549946

$$$$
