
     RDKit          3D

 49 53  0  0  1  0  0  0  0  0999 V2000
   49.8600   29.1340   48.1060 C   0  0  1  0  0  0  0  0  0  0  0  0
   50.8750   29.1340   47.0390 C   0  0  0  0  0  0  0  0  0  0  0  0
   49.9660   29.0570   45.7930 C   0  0  0  0  0  0  0  0  0  0  0  0
   49.1940   27.8050   46.1620 C   0  0  0  0  0  0  0  0  0  0  0  0
   48.8340   28.1670   47.6120 C   0  0  2  0  0  0  0  0  0  0  0  0
   51.5820   32.7270   53.0990 C   0  0  0  0  0  0  0  0  0  0  0  0
   52.3600   32.4230   54.2390 C   0  0  0  0  0  0  0  0  0  0  0  0
   52.7120   31.0630   54.4390 C   0  0  0  0  0  0  0  0  0  0  0  0
   52.3030   30.1410   53.5580 N   0  0  0  0  0  0  0  0  0  0  0  0
   51.5420   30.5140   52.4600 C   0  0  0  0  0  0  0  0  0  0  0  0
   51.1920   31.7830   52.2410 N   0  0  0  0  0  0  0  0  0  0  0  0
   51.1170   29.5160   51.5120 N   0  0  0  0  0  0  0  0  0  0  0  0
   51.1760   28.2340   51.8690 C   0  0  0  0  0  0  0  0  0  0  0  0
   50.8060   27.2140   51.0210 C   0  0  0  0  0  0  0  0  0  0  0  0
   50.3610   27.5300   49.7640 C   0  0  0  0  0  0  0  0  0  0  0  0
   50.0080   26.6580   48.9370 O   0  0  0  0  0  0  0  0  0  0  0  0
   50.3180   28.8360   49.4490 N   0  0  0  0  0  0  0  0  0  0  0  0
   50.6770   29.7970   50.2800 C   0  0  0  0  0  0  0  0  0  0  0  0
   50.6180   30.9800   49.9470 O   0  0  0  0  0  0  0  0  0  0  0  0
   47.4470   28.5810   47.5730 C   0  0  0  0  0  0  0  0  0  0  0  0
   46.4430   27.6860   47.2590 C   0  0  0  0  0  0  0  0  0  0  0  0
   45.1040   28.0050   47.1750 C   0  0  0  0  0  0  0  0  0  0  0  0
   44.6800   29.2910   47.4090 C   0  0  0  0  0  0  0  0  0  0  0  0
   45.6270   30.2400   47.7290 C   0  0  0  0  0  0  0  0  0  0  0  0
   45.2610   31.5490   47.9780 C   0  0  0  0  0  0  0  0  0  0  0  0
   46.1770   32.5280   48.3030 C   0  0  0  0  0  0  0  0  0  0  0  0
   47.5240   32.1590   48.3790 C   0  0  0  0  0  0  0  0  0  0  0  0
   47.8690   30.8490   48.1260 C   0  0  0  0  0  0  0  0  0  0  0  0
   46.9490   29.8740   47.8000 C   0  0  0  0  0  0  0  0  0  0  0  0
   49.4791   30.1544   48.2603 H   0  0  0  0  0  0  0  0  0  0  0  0
   51.4753   30.0557   47.0484 H   0  0  0  0  0  0  0  0  0  0  0  0
   51.6219   28.3300   47.1142 H   0  0  0  0  0  0  0  0  0  0  0  0
   50.5430   28.9308   44.8650 H   0  0  0  0  0  0  0  0  0  0  0  0
   49.3595   29.9510   45.5856 H   0  0  0  0  0  0  0  0  0  0  0  0
   48.2998   27.6715   45.5355 H   0  0  0  0  0  0  0  0  0  0  0  0
   49.7366   26.8572   46.0305 H   0  0  0  0  0  0  0  0  0  0  0  0
   48.8769   27.3567   48.3547 H   0  0  0  0  0  0  0  0  0  0  0  0
   51.2899   33.7713   52.9140 H   0  0  0  0  0  0  0  0  0  0  0  0
   52.6791   33.2072   54.9413 H   0  0  0  0  0  0  0  0  0  0  0  0
   53.3156   30.7686   55.3102 H   0  0  0  0  0  0  0  0  0  0  0  0
   51.5333   27.9809   52.8781 H   0  0  0  0  0  0  0  0  0  0  0  0
   50.8665   26.1650   51.3466 H   0  0  0  0  0  0  0  0  0  0  0  0
   46.7324   26.6433   47.0616 H   0  0  0  0  0  0  0  0  0  0  0  0
   44.3712   27.2256   46.9192 H   0  0  0  0  0  0  0  0  0  0  0  0
   43.6144   29.5557   47.3428 H   0  0  0  0  0  0  0  0  0  0  0  0
   44.1971   31.8212   47.9146 H   0  0  0  0  0  0  0  0  0  0  0  0
   45.8590   33.5632   48.4957 H   0  0  0  0  0  0  0  0  0  0  0  0
   48.2941   32.9011   48.6361 H   0  0  0  0  0  0  0  0  0  0  0  0
   48.9304   30.5668   48.1870 H   0  0  0  0  0  0  0  0  0  0  0  0
  1 17  1  0
  2  1  1  0
  3  4  1  0
  3  2  1  0
  4  5  1  0
  5  1  1  0
  6  7  2  0
  7  8  1  0
  9  8  2  0
 10  9  1  0
 11 10  2  0
 11  6  1  0
 12 13  1  0
 12 10  1  0
 14 13  2  0
 15 14  1  0
 16 15  2  0
 17 15  1  0
 17 18  1  0
 18 12  1  0
 19 18  2  0
 20  5  1  0
 20 29  1  0
 21 20  2  0
 22 21  1  0
 22 23  2  0
 23 24  1  0
 24 29  2  0
 24 25  1  0
 25 26  2  0
 26 27  1  0
 28 27  2  0
 29 28  1  0
  1 30  1  1
  2 31  1  0
  2 32  1  0
  3 33  1  0
  3 34  1  0
  4 35  1  0
  4 36  1  0
  5 37  1  1
  6 38  1  0
  7 39  1  0
  8 40  1  0
 13 41  1  0
 14 42  1  0
 21 43  1  0
 22 44  1  0
 23 45  1  0
 25 46  1  0
 26 47  1  0
 27 48  1  0
 28 49  1  0
M  ISO  8  30  13  31  13  32  13  33  13  34  13  35  13  36  13  37  13
M  ISO  8  38  14  39  14  40  14  41  14  42  14  43  14  44  14  45  14
M  ISO  4  46  14  47  14  48  14  49  14
M  END
>  <minimizedAffinity>  (1) 
-6.24106359

>  <minimizedRMSD>  (1) 
7.43545103

$$$$
