
     RDKit          3D

 45 48  0  0  1  0  0  0  0  0999 V2000
   44.5470   35.7320   43.7970 C   0  0  0  0  0  0  0  0  0  0  0  0
   44.3600   35.9570   42.4160 C   0  0  0  0  0  0  0  0  0  0  0  0
   44.9470   35.0340   41.5270 C   0  0  0  0  0  0  0  0  0  0  0  0
   45.6490   33.9940   42.0050 N   0  0  0  0  0  0  0  0  0  0  0  0
   45.8000   33.8230   43.3580 C   0  0  0  0  0  0  0  0  0  0  0  0
   45.2490   34.6920   44.2380 N   0  0  0  0  0  0  0  0  0  0  0  0
   46.5400   32.7220   43.8960 N   0  0  0  0  0  0  0  0  0  0  0  0
   47.3350   32.0440   43.0570 C   0  0  0  0  0  0  0  0  0  0  0  0
   48.0920   30.9620   43.4650 C   0  0  0  0  0  0  0  0  0  0  0  0
   48.0200   30.5770   44.7840 C   0  0  0  0  0  0  0  0  0  0  0  0
   48.6770   29.6050   45.2260 O   0  0  0  0  0  0  0  0  0  0  0  0
   47.2130   31.2850   45.5840 N   0  0  0  0  0  0  0  0  0  0  0  0
   46.4980   32.3160   45.1660 C   0  0  0  0  0  0  0  0  0  0  0  0
   45.7670   32.9440   45.9340 O   0  0  0  0  0  0  0  0  0  0  0  0
   47.1600   30.8510   46.9610 C   0  0  1  0  0  0  0  0  0  0  0  0
   47.5790   31.8160   47.9950 C   0  0  0  0  0  0  0  0  0  0  0  0
   47.0460   31.0710   49.2550 C   0  0  0  0  0  0  0  0  0  0  0  0
   45.5990   30.9880   48.8200 C   0  0  0  0  0  0  0  0  0  0  0  0
   45.7870   30.4450   47.3920 C   0  0  2  0  0  0  0  0  0  0  0  0
   45.4920   29.0810   47.4690 N   0  0  0  0  0  0  0  0  0  0  0  0
   44.4030   28.5130   46.7950 C   0  0  0  0  0  0  0  0  0  0  0  0
   44.4960   27.0670   47.3200 C   0  0  0  0  0  0  0  0  0  0  0  0
   46.0010   26.8320   47.2660 C   0  0  0  0  0  0  0  0  0  0  0  0
   46.6020   28.2020   47.4760 C   0  0  0  0  0  0  0  0  0  0  0  0
   44.1036   36.4302   44.5222 H   0  0  0  0  0  0  0  0  0  0  0  0
   43.7803   36.8168   42.0489 H   0  0  0  0  0  0  0  0  0  0  0  0
   44.8299   35.1658   40.4412 H   0  0  0  0  0  0  0  0  0  0  0  0
   47.3870   32.3603   42.0047 H   0  0  0  0  0  0  0  0  0  0  0  0
   48.7351   30.4228   42.7539 H   0  0  0  0  0  0  0  0  0  0  0  0
   47.8837   30.0237   46.9173 H   0  0  0  0  0  0  0  0  0  0  0  0
   48.6713   31.9428   48.0223 H   0  0  0  0  0  0  0  0  0  0  0  0
   47.2086   32.8431   47.8611 H   0  0  0  0  0  0  0  0  0  0  0  0
   47.5046   30.0794   49.3833 H   0  0  0  0  0  0  0  0  0  0  0  0
   47.2417   31.5457   50.2278 H   0  0  0  0  0  0  0  0  0  0  0  0
   45.0217   30.2944   49.4489 H   0  0  0  0  0  0  0  0  0  0  0  0
   45.0369   31.9310   48.8895 H   0  0  0  0  0  0  0  0  0  0  0  0
   45.1261   30.8422   46.6075 H   0  0  0  0  0  0  0  0  0  0  0  0
   43.4530   28.9904   47.0770 H   0  0  0  0  0  0  0  0  0  0  0  0
   44.4294   28.6134   45.6999 H   0  0  0  0  0  0  0  0  0  0  0  0
   44.1113   26.9850   48.3473 H   0  0  0  0  0  0  0  0  0  0  0  0
   43.9033   26.3385   46.7473 H   0  0  0  0  0  0  0  0  0  0  0  0
   46.3162   26.1422   48.0627 H   0  0  0  0  0  0  0  0  0  0  0  0
   46.3206   26.3743   46.3181 H   0  0  0  0  0  0  0  0  0  0  0  0
   47.2992   28.4497   46.6620 H   0  0  0  0  0  0  0  0  0  0  0  0
   47.1806   28.2663   48.4093 H   0  0  0  0  0  0  0  0  0  0  0  0
  1  6  2  0
  2  1  1  0
  3  4  1  0
  3  2  2  0
  4  5  2  0
  5  7  1  0
  5  6  1  0
  7 13  1  0
  8  9  2  0
  8  7  1  0
  9 10  1  0
 10 11  2  0
 10 12  1  0
 12 15  1  0
 13 12  1  0
 13 14  2  0
 15 19  1  0
 15 16  1  0
 16 17  1  0
 18 17  1  0
 19 20  1  0
 19 18  1  0
 20 21  1  0
 20 24  1  0
 21 22  1  0
 23 22  1  0
 23 24  1  0
  1 25  1  0
  2 26  1  0
  3 27  1  0
  8 28  1  0
  9 29  1  0
 15 30  1  6
 16 31  1  0
 16 32  1  0
 17 33  1  0
 17 34  1  0
 18 35  1  0
 18 36  1  0
 19 37  1  6
 21 38  1  0
 21 39  1  0
 22 40  1  0
 22 41  1  0
 23 42  1  0
 23 43  1  0
 24 44  1  0
 24 45  1  0
M  ISO  8  25  14  26  14  27  14  28  14  29  14  30  13  31  13  32  13
M  ISO  8  33  13  34  13  35  13  36  13  37  13  38  13  39  13  40  13
M  ISO  5  41  13  42  13  43  13  44  13  45  13
M  END
>  <minimizedAffinity>  (1) 
-5.26458931

>  <minimizedRMSD>  (1) 
3.00879169

$$$$
