
     RDKit          3D

 44 48  0  0  1  0  0  0  0  0999 V2000
   47.0490   29.9860   46.6540 C   0  0  1  0  0  0  0  0  0  0  0  0
   47.3400   30.8020   47.8430 C   0  0  0  0  0  0  0  0  0  0  0  0
   46.0920   30.4390   48.7030 C   0  0  0  0  0  0  0  0  0  0  0  0
   45.0270   30.8700   47.7120 C   0  0  0  0  0  0  0  0  0  0  0  0
   45.5640   30.1770   46.4390 C   0  0  2  0  0  0  0  0  0  0  0  0
   47.3590   34.8020   42.4770 C   0  0  0  0  0  0  0  0  0  0  0  0
   47.8130   34.8450   41.1270 C   0  0  0  0  0  0  0  0  0  0  0  0
   48.4450   33.6880   40.6260 C   0  0  0  0  0  0  0  0  0  0  0  0
   48.5940   32.6100   41.4180 N   0  0  0  0  0  0  0  0  0  0  0  0
   48.1350   32.6270   42.7110 C   0  0  0  0  0  0  0  0  0  0  0  0
   47.5220   33.7150   43.2360 N   0  0  0  0  0  0  0  0  0  0  0  0
   48.2830   31.5090   43.5800 N   0  0  0  0  0  0  0  0  0  0  0  0
   49.2170   30.5960   43.2460 C   0  0  0  0  0  0  0  0  0  0  0  0
   49.4670   29.4740   44.0080 C   0  0  0  0  0  0  0  0  0  0  0  0
   48.7220   29.2900   45.1570 C   0  0  0  0  0  0  0  0  0  0  0  0
   48.8830   28.2940   45.9140 O   0  0  0  0  0  0  0  0  0  0  0  0
   47.7970   30.2260   45.4550 N   0  0  0  0  0  0  0  0  0  0  0  0
   47.5850   31.2930   44.6980 C   0  0  0  0  0  0  0  0  0  0  0  0
   46.7240   32.1250   45.0120 O   0  0  0  0  0  0  0  0  0  0  0  0
   44.8220   28.9320   46.3980 N   0  0  0  0  0  0  0  0  0  0  0  0
   43.6320   28.5940   45.9400 C   0  0  0  0  0  0  0  0  0  0  0  0
   43.3560   27.2920   46.1210 N   0  0  0  0  0  0  0  0  0  0  0  0
   44.4400   26.7790   46.7300 C   0  0  0  0  0  0  0  0  0  0  0  0
   44.6800   25.4740   47.1430 C   0  0  0  0  0  0  0  0  0  0  0  0
   45.8660   25.1740   47.7480 N   0  0  0  0  0  0  0  0  0  0  0  0
   46.7660   26.1840   47.9180 C   0  0  0  0  0  0  0  0  0  0  0  0
   46.5350   27.4530   47.5160 N   0  0  0  0  0  0  0  0  0  0  0  0
   45.3600   27.7910   46.9080 C   0  0  0  0  0  0  0  0  0  0  0  0
   47.3679   28.9539   46.8613 H   0  0  0  0  0  0  0  0  0  0  0  0
   48.2785   30.4995   48.3306 H   0  0  0  0  0  0  0  0  0  0  0  0
   47.4869   31.8757   47.6541 H   0  0  0  0  0  0  0  0  0  0  0  0
   46.0401   29.3641   48.9306 H   0  0  0  0  0  0  0  0  0  0  0  0
   46.0404   30.8991   49.7008 H   0  0  0  0  0  0  0  0  0  0  0  0
   44.0309   30.4970   47.9926 H   0  0  0  0  0  0  0  0  0  0  0  0
   44.8811   31.9569   47.6261 H   0  0  0  0  0  0  0  0  0  0  0  0
   45.4400   30.7200   45.4904 H   0  0  0  0  0  0  0  0  0  0  0  0
   46.8622   35.6854   42.9045 H   0  0  0  0  0  0  0  0  0  0  0  0
   47.6766   35.7408   40.5033 H   0  0  0  0  0  0  0  0  0  0  0  0
   48.8153   33.6667   39.5904 H   0  0  0  0  0  0  0  0  0  0  0  0
   49.8034   30.7523   42.3286 H   0  0  0  0  0  0  0  0  0  0  0  0
   50.2368   28.7470   43.7098 H   0  0  0  0  0  0  0  0  0  0  0  0
   42.9400   29.3024   45.4612 H   0  0  0  0  0  0  0  0  0  0  0  0
   43.9229   24.6920   46.9841 H   0  0  0  0  0  0  0  0  0  0  0  0
   47.7252   25.9549   48.4053 H   0  0  0  0  0  0  0  0  0  0  0  0
  1  2  1  0
  2  3  1  0
  4  3  1  0
  5  1  1  0
  5  4  1  0
  6 11  2  0
  7  6  1  0
  8  7  2  0
  8  9  1  0
  9 10  2  0
 10 11  1  0
 10 12  1  0
 12 18  1  0
 13 12  1  0
 13 14  2  0
 14 15  1  0
 15 17  1  0
 15 16  2  0
 17  1  1  0
 18 19  2  0
 18 17  1  0
 20  5  1  0
 20 28  1  0
 21 22  2  0
 21 20  1  0
 22 23  1  0
 23 28  2  0
 23 24  1  0
 24 25  2  0
 25 26  1  0
 27 26  2  0
 28 27  1  0
  1 29  1  1
  2 30  1  0
  2 31  1  0
  3 32  1  0
  3 33  1  0
  4 34  1  0
  4 35  1  0
  5 36  1  6
  6 37  1  0
  7 38  1  0
  8 39  1  0
 13 40  1  0
 14 41  1  0
 21 42  1  0
 24 43  1  0
 26 44  1  0
M  ISO  8  29  13  30  13  31  13  32  13  33  13  34  13  35  13  36  13
M  ISO  8  37  14  38  14  39  14  40  14  41  14  42  14  43  14  44  14
M  END
>  <minimizedAffinity>  (1) 
-4.95316267

>  <minimizedRMSD>  (1) 
4.39596224

$$$$
