
     RDKit          3D

 38 41  0  0  1  0  0  0  0  0999 V2000
   46.1140   34.1400   45.0340 C   0  0  2  0  0  0  0  0  0  0  0  0
   44.8990   35.0110   45.4480 C   0  0  0  0  0  0  0  0  0  0  0  0
   44.2990   35.8930   44.4730 C   0  0  0  0  0  0  0  0  0  0  0  0
   44.8620   35.9290   43.1260 C   0  0  0  0  0  0  0  0  0  0  0  0
   46.0640   35.1270   42.8660 C   0  0  0  0  0  0  0  0  0  0  0  0
   45.9910   33.8170   43.6270 C   0  0  1  0  0  0  0  0  0  0  0  0
   46.9160   32.9360   42.9220 C   0  0  0  0  0  0  0  0  0  0  0  0
   46.5350   31.7080   42.3470 C   0  0  0  0  0  0  0  0  0  0  0  0
   47.5860   31.1610   41.7670 N   0  0  0  0  0  0  0  0  0  0  0  0
   48.6880   31.8950   41.8790 C   0  0  0  0  0  0  0  0  0  0  0  0
   49.9830   31.7570   41.4570 C   0  0  0  0  0  0  0  0  0  0  0  0
   50.9040   32.7350   41.7480 C   0  0  0  0  0  0  0  0  0  0  0  0
   50.4850   33.8330   42.4640 C   0  0  0  0  0  0  0  0  0  0  0  0
   49.1850   33.9860   42.8960 C   0  0  0  0  0  0  0  0  0  0  0  0
   48.2770   32.9970   42.5940 C   0  0  0  0  0  0  0  0  0  0  0  0
   45.3340   32.9740   47.0870 C   0  0  0  0  0  0  0  0  0  0  0  0
   46.1950   33.0340   45.9830 C   0  0  0  0  0  0  0  0  0  0  0  0
   47.1580   32.0050   45.8260 C   0  0  0  0  0  0  0  0  0  0  0  0
   47.2160   31.0180   46.7330 N   0  0  0  0  0  0  0  0  0  0  0  0
   46.3650   30.9860   47.7980 C   0  0  0  0  0  0  0  0  0  0  0  0
   45.4450   31.9520   47.9630 N   0  0  0  0  0  0  0  0  0  0  0  0
   47.0899   34.6434   45.0989 H   0  0  0  0  0  0  0  0  0  0  0  0
   44.4990   34.9580   46.4713 H   0  0  0  0  0  0  0  0  0  0  0  0
   43.4376   36.5231   44.7395 H   0  0  0  0  0  0  0  0  0  0  0  0
   44.0802   35.5826   42.4340 H   0  0  0  0  0  0  0  0  0  0  0  0
   45.1884   36.9705   42.9893 H   0  0  0  0  0  0  0  0  0  0  0  0
   46.1361   34.9183   41.7884 H   0  0  0  0  0  0  0  0  0  0  0  0
   46.9499   35.6878   43.1986 H   0  0  0  0  0  0  0  0  0  0  0  0
   45.0602   33.2311   43.6437 H   0  0  0  0  0  0  0  0  0  0  0  0
   45.5243   31.2750   42.3768 H   0  0  0  0  0  0  0  0  0  0  0  0
   47.5555   30.2558   41.2765 H   0  0  0  0  0  0  0  0  0  0  0  0
   50.2855   30.8663   40.8868 H   0  0  0  0  0  0  0  0  0  0  0  0
   51.9490   32.6424   41.4171 H   0  0  0  0  0  0  0  0  0  0  0  0
   51.2164   34.6197   42.7009 H   0  0  0  0  0  0  0  0  0  0  0  0
   48.8812   34.8756   43.4673 H   0  0  0  0  0  0  0  0  0  0  0  0
   44.5731   33.7537   47.2391 H   0  0  0  0  0  0  0  0  0  0  0  0
   47.8494   32.0159   44.9705 H   0  0  0  0  0  0  0  0  0  0  0  0
   46.4318   30.1646   48.5266 H   0  0  0  0  0  0  0  0  0  0  0  0
  1  2  1  0
  1 17  1  0
  3  2  2  0
  4  3  1  0
  5  4  1  0
  5  6  1  0
  6  1  1  0
  7  6  1  0
  8  7  2  0
  9 10  1  0
  9  8  1  0
 10 15  2  0
 11 12  2  0
 11 10  1  0
 12 13  1  0
 13 14  2  0
 15 14  1  0
 15  7  1  0
 16 21  2  0
 17 16  1  0
 18 17  2  0
 18 19  1  0
 19 20  2  0
 20 21  1  0
  1 22  1  6
  2 23  1  0
  3 24  1  0
  4 25  1  0
  4 26  1  0
  5 27  1  0
  5 28  1  0
  6 29  1  1
  8 30  1  0
  9 31  1  0
 11 32  1  0
 12 33  1  0
 13 34  1  0
 14 35  1  0
 16 36  1  0
 18 37  1  0
 20 38  1  0
M  ISO  8  22  13  23  13  24  13  25  13  26  13  27  13  28  13  29  13
M  ISO  8  30  14  31   9  32  14  33  14  34  14  35  14  36  14  37  14
M  ISO  1  38  14
M  END
>  <minimizedAffinity>  (1) 
-5.72516823

>  <minimizedRMSD>  (1) 
0.905125618

$$$$
