
     RDKit          3D

 38 41  0  0  1  0  0  0  0  0999 V2000
   46.6240   34.7180   42.6710 C   0  0  2  0  0  0  0  0  0  0  0  0
   46.7470   34.0270   43.9960 C   0  0  0  0  0  0  0  0  0  0  0  0
   45.7470   34.2950   45.0040 C   0  0  0  0  0  0  0  0  0  0  0  0
   44.6540   35.2200   44.7140 C   0  0  0  0  0  0  0  0  0  0  0  0
   44.7160   35.9530   43.4400 C   0  0  0  0  0  0  0  0  0  0  0  0
   45.2220   35.0870   42.3410 C   0  0  2  0  0  0  0  0  0  0  0  0
   44.3750   33.9750   42.0300 N   0  0  0  0  0  0  0  0  0  0  0  0
   44.1150   32.7870   42.6260 C   0  0  0  0  0  0  0  0  0  0  0  0
   43.2220   32.0930   41.9090 N   0  0  0  0  0  0  0  0  0  0  0  0
   42.9020   32.8570   40.8280 C   0  0  0  0  0  0  0  0  0  0  0  0
   42.0250   32.5730   39.8010 C   0  0  0  0  0  0  0  0  0  0  0  0
   41.3640   31.5040   39.7240 O   0  0  0  0  0  0  0  0  0  0  0  0
   41.8530   33.4760   38.8200 N   0  0  0  0  0  0  0  0  0  0  0  0
   42.5590   34.6270   38.8940 C   0  0  0  0  0  0  0  0  0  0  0  0
   42.4940   35.6790   37.9440 N   0  0  0  0  0  0  0  0  0  0  0  0
   43.4070   34.8790   39.9060 N   0  0  0  0  0  0  0  0  0  0  0  0
   43.6260   34.0300   40.9120 C   0  0  0  0  0  0  0  0  0  0  0  0
   47.7690   32.6320   41.9670 C   0  0  0  0  0  0  0  0  0  0  0  0
   47.2860   33.9090   41.6130 C   0  0  0  0  0  0  0  0  0  0  0  0
   47.4690   34.3490   40.2740 C   0  0  0  0  0  0  0  0  0  0  0  0
   48.1010   33.5100   39.4140 N   0  0  0  0  0  0  0  0  0  0  0  0
   48.5490   32.2890   39.7990 C   0  0  0  0  0  0  0  0  0  0  0  0
   48.3800   31.8580   41.0730 N   0  0  0  0  0  0  0  0  0  0  0  0
   47.1529   35.6804   42.7341 H   0  0  0  0  0  0  0  0  0  0  0  0
   47.5774   33.3337   44.1956 H   0  0  0  0  0  0  0  0  0  0  0  0
   45.8085   33.8042   45.9865 H   0  0  0  0  0  0  0  0  0  0  0  0
   43.7194   34.6399   44.7173 H   0  0  0  0  0  0  0  0  0  0  0  0
   44.7234   35.9949   45.4916 H   0  0  0  0  0  0  0  0  0  0  0  0
   43.7073   36.3073   43.1812 H   0  0  0  0  0  0  0  0  0  0  0  0
   45.4075   36.7999   43.5605 H   0  0  0  0  0  0  0  0  0  0  0  0
   45.2075   35.6497   41.3960 H   0  0  0  0  0  0  0  0  0  0  0  0
   44.5721   32.4415   43.5650 H   0  0  0  0  0  0  0  0  0  0  0  0
   41.2058   33.2973   38.0389 H   0  0  0  0  0  0  0  0  0  0  0  0
   43.0658   36.5259   38.0734 H   0  0  0  0  0  0  0  0  0  0  0  0
   41.8750   35.5958   37.1250 H   0  0  0  0  0  0  0  0  0  0  0  0
   47.6388   32.2702   42.9976 H   0  0  0  0  0  0  0  0  0  0  0  0
   47.1107   35.3358   39.9457 H   0  0  0  0  0  0  0  0  0  0  0  0
   49.0555   31.6408   39.0687 H   0  0  0  0  0  0  0  0  0  0  0  0
  1  2  1  0
  2  3  2  0
  4  3  1  0
  5  4  1  0
  6  1  1  0
  6  5  1  0
  7  6  1  0
  7  8  1  0
  9  8  2  0
 10 17  2  0
 10  9  1  0
 11 10  1  0
 12 11  2  0
 13 14  1  0
 13 11  1  0
 14 16  2  0
 15 14  1  0
 16 17  1  0
 17  7  1  0
 19 18  2  0
 19  1  1  0
 20 19  1  0
 21 22  1  0
 21 20  2  0
 22 23  2  0
 23 18  1  0
  1 24  1  1
  2 25  1  0
  3 26  1  0
  4 27  1  0
  4 28  1  0
  5 29  1  0
  5 30  1  0
  6 31  1  6
  8 32  1  0
 13 33  1  0
 15 34  1  0
 15 35  1  0
 18 36  1  0
 20 37  1  0
 22 38  1  0
M  ISO  8  24  13  25  13  26  13  27  13  28  13  29  13  30  13  31  13
M  ISO  5  32  14  33   9  36  14  37  14  38  14
M  END
>  <minimizedAffinity>  (1) 
-5.71413326

>  <minimizedRMSD>  (1) 
4.20239162

$$$$
