
     RDKit          3D

 38 41  0  0  1  0  0  0  0  0999 V2000
   46.0800   34.2540   45.1740 C   0  0  2  0  0  0  0  0  0  0  0  0
   44.7840   35.0890   45.4440 C   0  0  0  0  0  0  0  0  0  0  0  0
   44.2180   35.8890   44.3560 C   0  0  0  0  0  0  0  0  0  0  0  0
   44.8840   35.8680   43.0640 C   0  0  0  0  0  0  0  0  0  0  0  0
   46.1750   35.1470   42.9730 C   0  0  0  0  0  0  0  0  0  0  0  0
   46.0890   33.8780   43.7890 C   0  0  1  0  0  0  0  0  0  0  0  0
   46.7390   32.7580   43.1320 C   0  0  0  0  0  0  0  0  0  0  0  0
   46.1460   31.5590   42.8060 N   0  0  0  0  0  0  0  0  0  0  0  0
   46.7560   30.5690   42.1790 C   0  0  0  0  0  0  0  0  0  0  0  0
   48.0350   30.6370   41.7910 N   0  0  0  0  0  0  0  0  0  0  0  0
   48.7210   31.7570   42.0530 C   0  0  0  0  0  0  0  0  0  0  0  0
   50.0390   31.8290   41.6610 C   0  0  0  0  0  0  0  0  0  0  0  0
   50.7760   32.9640   41.9230 C   0  0  0  0  0  0  0  0  0  0  0  0
   50.1790   34.0370   42.5840 C   0  0  0  0  0  0  0  0  0  0  0  0
   48.8760   33.8920   42.9370 C   0  0  0  0  0  0  0  0  0  0  0  0
   48.0840   32.7880   42.7070 C   0  0  0  0  0  0  0  0  0  0  0  0
   45.1660   33.1330   47.2150 C   0  0  0  0  0  0  0  0  0  0  0  0
   46.1050   33.2100   46.1950 C   0  0  0  0  0  0  0  0  0  0  0  0
   47.1270   32.2410   46.1670 C   0  0  0  0  0  0  0  0  0  0  0  0
   47.1690   31.2880   47.1040 N   0  0  0  0  0  0  0  0  0  0  0  0
   46.2330   31.2360   48.0930 C   0  0  0  0  0  0  0  0  0  0  0  0
   45.2600   32.1450   48.1340 N   0  0  0  0  0  0  0  0  0  0  0  0
   47.0385   34.7821   45.2853 H   0  0  0  0  0  0  0  0  0  0  0  0
   44.3062   35.0751   46.4347 H   0  0  0  0  0  0  0  0  0  0  0  0
   43.3109   36.4912   44.5125 H   0  0  0  0  0  0  0  0  0  0  0  0
   44.1944   35.4015   42.3451 H   0  0  0  0  0  0  0  0  0  0  0  0
   45.1346   36.9195   42.8601 H   0  0  0  0  0  0  0  0  0  0  0  0
   46.3841   34.8964   41.9225 H   0  0  0  0  0  0  0  0  0  0  0  0
   46.9841   35.7836   43.3605 H   0  0  0  0  0  0  0  0  0  0  0  0
   45.1732   33.2707   43.8393 H   0  0  0  0  0  0  0  0  0  0  0  0
   46.1890   29.6505   41.9670 H   0  0  0  0  0  0  0  0  0  0  0  0
   50.5041   30.9802   41.1384 H   0  0  0  0  0  0  0  0  0  0  0  0
   51.8296   33.0230   41.6123 H   0  0  0  0  0  0  0  0  0  0  0  0
   50.7375   34.9576   42.8088 H   0  0  0  0  0  0  0  0  0  0  0  0
   48.4062   34.7393   43.4579 H   0  0  0  0  0  0  0  0  0  0  0  0
   44.3517   33.8701   47.2752 H   0  0  0  0  0  0  0  0  0  0  0  0
   47.8899   32.2683   45.3750 H   0  0  0  0  0  0  0  0  0  0  0  0
   46.2808   30.4450   48.8560 H   0  0  0  0  0  0  0  0  0  0  0  0
  1  2  1  0
  1 18  1  0
  3  2  2  0
  4  3  1  0
  5  4  1  0
  5  6  1  0
  6  1  1  0
  7  6  1  0
  8  7  2  0
  9  8  1  0
 10 11  1  0
 10  9  2  0
 11 16  2  0
 12 13  2  0
 12 11  1  0
 13 14  1  0
 14 15  2  0
 16 15  1  0
 16  7  1  0
 17 22  2  0
 18 17  1  0
 19 18  2  0
 19 20  1  0
 20 21  2  0
 21 22  1  0
  1 23  1  6
  2 24  1  0
  3 25  1  0
  4 26  1  0
  4 27  1  0
  5 28  1  0
  5 29  1  0
  6 30  1  6
  9 31  1  0
 12 32  1  0
 13 33  1  0
 14 34  1  0
 15 35  1  0
 17 36  1  0
 19 37  1  0
 21 38  1  0
M  ISO  8  23  13  24  13  25  13  26  13  27  13  28  13  29  13  30  13
M  ISO  8  31  14  32  14  33  14  34  14  35  14  36  14  37  14  38  14
M  END
>  <minimizedAffinity>  (1) 
-5.69150686

>  <minimizedRMSD>  (1) 
1.13870454

$$$$
