
     RDKit          3D

 37 39  0  0  1  0  0  0  0  0999 V2000
   46.5710   34.7630   43.0230 C   0  0  2  0  0  0  0  0  0  0  0  0
   46.4110   33.8800   44.2250 C   0  0  0  0  0  0  0  0  0  0  0  0
   45.3950   34.2430   45.1830 C   0  0  0  0  0  0  0  0  0  0  0  0
   44.5600   35.4320   44.9660 C   0  0  0  0  0  0  0  0  0  0  0  0
   44.9940   36.3360   43.8880 C   0  0  0  0  0  0  0  0  0  0  0  0
   45.3700   35.5290   42.6580 C   0  0  2  0  0  0  0  0  0  0  0  0
   47.4660   32.6470   42.0720 C   0  0  0  0  0  0  0  0  0  0  0  0
   47.2270   34.0140   41.9350 C   0  0  0  0  0  0  0  0  0  0  0  0
   47.6400   34.6380   40.7380 C   0  0  0  0  0  0  0  0  0  0  0  0
   48.2430   33.8850   39.7890 N   0  0  0  0  0  0  0  0  0  0  0  0
   48.4590   32.5570   39.9570 C   0  0  0  0  0  0  0  0  0  0  0  0
   48.0640   31.9540   41.1050 N   0  0  0  0  0  0  0  0  0  0  0  0
   41.9710   33.8080   40.7040 C   0  0  0  0  0  0  0  0  0  0  0  0
   42.1870   35.1700   40.7100 C   0  0  0  0  0  0  0  0  0  0  0  0
   43.3020   35.6480   41.3620 C   0  0  0  0  0  0  0  0  0  0  0  0
   44.2530   34.8620   42.0320 C   0  0  0  0  0  0  0  0  0  0  0  0
   43.9370   33.5280   41.9590 C   0  0  0  0  0  0  0  0  0  0  0  0
   42.8500   32.9660   41.3330 C   0  0  0  0  0  0  0  0  0  0  0  0
   40.5850   33.1320   39.8990 S   0  0  0  0  0  0  0  0  0  0  0  0
   39.6760   32.4190   40.8570 O   0  0  0  0  0  0  0  0  0  0  0  0
   39.7750   34.2440   39.2610 O   0  0  0  0  0  0  0  0  0  0  0  0
   47.2538   35.5842   43.2864 H   0  0  0  0  0  0  0  0  0  0  0  0
   47.0429   32.9914   44.3703 H   0  0  0  0  0  0  0  0  0  0  0  0
   45.2448   33.6258   46.0811 H   0  0  0  0  0  0  0  0  0  0  0  0
   43.5418   35.0898   44.7291 H   0  0  0  0  0  0  0  0  0  0  0  0
   44.6324   36.0192   45.8933 H   0  0  0  0  0  0  0  0  0  0  0  0
   44.1735   37.0240   43.6362 H   0  0  0  0  0  0  0  0  0  0  0  0
   45.8692   36.9099   44.2265 H   0  0  0  0  0  0  0  0  0  0  0  0
   45.6522   36.1517   41.7963 H   0  0  0  0  0  0  0  0  0  0  0  0
   47.1556   32.1330   42.9936 H   0  0  0  0  0  0  0  0  0  0  0  0
   47.4751   35.7140   40.5800 H   0  0  0  0  0  0  0  0  0  0  0  0
   48.9519   31.9723   39.1663 H   0  0  0  0  0  0  0  0  0  0  0  0
   41.4883   35.8555   40.2081 H   0  0  0  0  0  0  0  0  0  0  0  0
   43.4607   36.7365   41.3574 H   0  0  0  0  0  0  0  0  0  0  0  0
   44.6296   32.8327   42.4559 H   0  0  0  0  0  0  0  0  0  0  0  0
   42.6912   31.8775   41.3369 H   0  0  0  0  0  0  0  0  0  0  0  0
   41.0552   32.2454   38.9664 H   0  0  0  0  0  0  0  0  0  0  0  0
  1  2  1  0
  2  3  2  0
  4  3  1  0
  5  4  1  0
  6  1  1  0
  6  5  1  0
  8  7  2  0
  8  1  1  0
  9  8  1  0
 10 11  1  0
 10  9  2  0
 11 12  2  0
 12  7  1  0
 13 14  2  0
 13 18  1  0
 14 15  1  0
 15 16  2  0
 16  6  1  0
 17 16  1  0
 18 17  2  0
 19 13  1  0
 19 20  2  0
 21 19  2  0
  1 22  1  1
  2 23  1  0
  3 24  1  0
  4 25  1  0
  4 26  1  0
  5 27  1  0
  5 28  1  0
  6 29  1  6
  7 30  1  0
  9 31  1  0
 11 32  1  0
 14 33  1  0
 15 34  1  0
 17 35  1  0
 18 36  1  0
 19 37  1  0
M  ISO  8  22  13  23  13  24  13  25  13  26  13  27  13  28  13  29  13
M  ISO  8  30  14  31  14  32  14  33  14  34  14  35  14  36  14  37  11
M  END
>  <minimizedAffinity>  (1) 
-5.6498003

>  <minimizedRMSD>  (1) 
4.42095518

$$$$
