
     RDKit          3D

 32 34  0  0  1  0  0  0  0  0999 V2000
   46.2940   34.0450   44.7400 C   0  0  2  0  0  0  0  0  0  0  0  0
   44.9930   34.7320   45.1430 C   0  0  0  0  0  0  0  0  0  0  0  0
   44.4230   35.7200   44.2660 C   0  0  0  0  0  0  0  0  0  0  0  0
   45.1050   36.0540   43.0190 C   0  0  0  0  0  0  0  0  0  0  0  0
   46.4440   35.4450   42.8200 C   0  0  0  0  0  0  0  0  0  0  0  0
   46.3670   33.9740   43.2630 C   0  0  1  0  0  0  0  0  0  0  0  0
   46.9640   32.7110   46.7390 C   0  0  0  0  0  0  0  0  0  0  0  0
   46.3830   32.7840   45.4710 C   0  0  0  0  0  0  0  0  0  0  0  0
   45.8870   31.5800   44.9110 C   0  0  0  0  0  0  0  0  0  0  0  0
   45.9960   30.4370   45.6130 N   0  0  0  0  0  0  0  0  0  0  0  0
   46.5710   30.4200   46.8450 C   0  0  0  0  0  0  0  0  0  0  0  0
   47.0470   31.5500   47.3930 N   0  0  0  0  0  0  0  0  0  0  0  0
   47.6390   33.4760   42.6800 C   0  0  0  0  0  0  0  0  0  0  0  0
   48.7960   34.2480   42.8790 C   0  0  0  0  0  0  0  0  0  0  0  0
   49.9730   33.7750   42.3000 C   0  0  0  0  0  0  0  0  0  0  0  0
   50.0140   32.6450   41.5870 N   0  0  0  0  0  0  0  0  0  0  0  0
   48.8810   31.9310   41.4160 C   0  0  0  0  0  0  0  0  0  0  0  0
   47.7080   32.3220   41.9450 N   0  0  0  0  0  0  0  0  0  0  0  0
   47.1970   34.6057   45.0231 H   0  0  0  0  0  0  0  0  0  0  0  0
   44.4975   34.4756   46.0910 H   0  0  0  0  0  0  0  0  0  0  0  0
   43.4803   36.2200   44.5331 H   0  0  0  0  0  0  0  0  0  0  0  0
   44.4620   35.7295   42.1876 H   0  0  0  0  0  0  0  0  0  0  0  0
   45.2789   37.1394   43.0606 H   0  0  0  0  0  0  0  0  0  0  0  0
   46.7256   35.5009   41.7581 H   0  0  0  0  0  0  0  0  0  0  0  0
   47.2004   35.9830   43.4103 H   0  0  0  0  0  0  0  0  0  0  0  0
   45.5345   33.3243   42.9550 H   0  0  0  0  0  0  0  0  0  0  0  0
   47.3596   33.6248   47.2064 H   0  0  0  0  0  0  0  0  0  0  0  0
   45.4190   31.5799   43.9155 H   0  0  0  0  0  0  0  0  0  0  0  0
   46.6470   29.4721   47.3979 H   0  0  0  0  0  0  0  0  0  0  0  0
   48.7743   35.1799   43.4630 H   0  0  0  0  0  0  0  0  0  0  0  0
   50.9000   34.3517   42.4346 H   0  0  0  0  0  0  0  0  0  0  0  0
   48.9184   31.0027   40.8270 H   0  0  0  0  0  0  0  0  0  0  0  0
  1  2  1  0
  1  8  1  0
  3  2  2  0
  4  3  1  0
  5  4  1  0
  5  6  1  0
  6  1  1  0
  7 12  2  0
  8  7  1  0
  9  8  2  0
  9 10  1  0
 10 11  2  0
 11 12  1  0
 13 14  2  0
 13  6  1  0
 15 14  1  0
 16 15  2  0
 17 16  1  0
 17 18  2  0
 18 13  1  0
  1 19  1  1
  2 20  1  0
  3 21  1  0
  4 22  1  0
  4 23  1  0
  5 24  1  0
  5 25  1  0
  6 26  1  6
  7 27  1  0
  9 28  1  0
 11 29  1  0
 14 30  1  0
 15 31  1  0
 17 32  1  0
M  ISO  8  19  13  20  13  21  13  22  13  23  13  24  13  25  13  26  13
M  ISO  6  27  14  28  14  29  14  30  14  31  14  32  14
M  END
>  <minimizedAffinity>  (1) 
-4.86689091

>  <minimizedRMSD>  (1) 
1.32617617

$$$$
