
     RDKit          3D

 31 33  0  0  1  0  0  0  0  0999 V2000
   45.9230   33.8780   45.2520 C   0  0  2  0  0  0  0  0  0  0  0  0
   44.8500   34.9050   45.5040 C   0  0  0  0  0  0  0  0  0  0  0  0
   44.5660   35.8550   44.4400 C   0  0  0  0  0  0  0  0  0  0  0  0
   45.3040   35.7760   43.1880 C   0  0  0  0  0  0  0  0  0  0  0  0
   46.4180   34.8280   43.1160 C   0  0  0  0  0  0  0  0  0  0  0  0
   46.0840   33.5400   43.8290 C   0  0  2  0  0  0  0  0  0  0  0  0
   45.2860   32.9920   47.4840 C   0  0  0  0  0  0  0  0  0  0  0  0
   45.7560   32.7570   46.1910 C   0  0  0  0  0  0  0  0  0  0  0  0
   46.0640   31.4390   45.8330 C   0  0  0  0  0  0  0  0  0  0  0  0
   45.8970   30.4490   46.7430 N   0  0  0  0  0  0  0  0  0  0  0  0
   45.4390   30.7080   47.9910 C   0  0  0  0  0  0  0  0  0  0  0  0
   45.1370   31.9770   48.3490 N   0  0  0  0  0  0  0  0  0  0  0  0
   45.0750   32.7350   43.1750 C   0  0  0  0  0  0  0  0  0  0  0  0
   44.9300   31.3690   43.0510 C   0  0  0  0  0  0  0  0  0  0  0  0
   43.8000   31.0080   42.3480 C   0  0  0  0  0  0  0  0  0  0  0  0
   43.2530   32.1990   42.0430 N   0  0  0  0  0  0  0  0  0  0  0  0
   43.9710   33.1950   42.5090 N   0  0  0  0  0  0  0  0  0  0  0  0
   46.9117   34.3054   45.4754 H   0  0  0  0  0  0  0  0  0  0  0  0
   44.3018   34.9352   46.4572 H   0  0  0  0  0  0  0  0  0  0  0  0
   43.7974   36.6292   44.5808 H   0  0  0  0  0  0  0  0  0  0  0  0
   44.5870   35.5017   42.4002 H   0  0  0  0  0  0  0  0  0  0  0  0
   45.7717   36.7654   43.0766 H   0  0  0  0  0  0  0  0  0  0  0  0
   46.6347   34.6082   42.0602 H   0  0  0  0  0  0  0  0  0  0  0  0
   47.2934   35.2805   43.6049 H   0  0  0  0  0  0  0  0  0  0  0  0
   46.9006   32.8055   43.7693 H   0  0  0  0  0  0  0  0  0  0  0  0
   45.0359   34.0167   47.7962 H   0  0  0  0  0  0  0  0  0  0  0  0
   46.4375   31.2097   44.8241 H   0  0  0  0  0  0  0  0  0  0  0  0
   45.3128   29.8874   48.7126 H   0  0  0  0  0  0  0  0  0  0  0  0
   45.6422   30.6426   43.4696 H   0  0  0  0  0  0  0  0  0  0  0  0
   43.4370   29.9999   42.0991 H   0  0  0  0  0  0  0  0  0  0  0  0
   42.3793   32.3151   41.5100 H   0  0  0  0  0  0  0  0  0  0  0  0
  1  2  1  0
  1  8  1  0
  3  2  2  0
  4  3  1  0
  5  4  1  0
  5  6  1  0
  6  1  1  0
  7 12  2  0
  8  7  1  0
  9  8  2  0
  9 10  1  0
 10 11  2  0
 11 12  1  0
 13  6  1  0
 14 13  1  0
 15 14  2  0
 16 15  1  0
 16 17  1  0
 17 13  2  0
  1 18  1  1
  2 19  1  0
  3 20  1  0
  4 21  1  0
  4 22  1  0
  5 23  1  0
  5 24  1  0
  6 25  1  1
  7 26  1  0
  9 27  1  0
 11 28  1  0
 14 29  1  0
 15 30  1  0
 16 31  1  0
M  ISO  8  18  13  19  13  20  13  21  13  22  13  23  13  24  13  25  13
M  ISO  6  26  14  27  14  28  14  29  14  30  14  31   9
M  END
>  <minimizedAffinity>  (1) 
-4.82122183

>  <minimizedRMSD>  (1) 
0.071231477

$$$$
