
     RDKit          3D

 33 35  0  0  1  0  0  0  0  0999 V2000
   46.1310   34.1070   44.9680 C   0  0  2  0  0  0  0  0  0  0  0  0
   44.9080   34.9280   45.3130 C   0  0  0  0  0  0  0  0  0  0  0  0
   44.4730   35.8590   44.2990 C   0  0  0  0  0  0  0  0  0  0  0  0
   45.1840   35.9870   43.0250 C   0  0  0  0  0  0  0  0  0  0  0  0
   46.3710   35.1490   42.8330 C   0  0  0  0  0  0  0  0  0  0  0  0
   46.1770   33.8010   43.5050 C   0  0  2  0  0  0  0  0  0  0  0  0
   45.3850   32.8770   46.9830 C   0  0  0  0  0  0  0  0  0  0  0  0
   46.2180   32.9580   45.8670 C   0  0  0  0  0  0  0  0  0  0  0  0
   47.1330   31.9100   45.6630 C   0  0  0  0  0  0  0  0  0  0  0  0
   47.1690   30.8790   46.5430 N   0  0  0  0  0  0  0  0  0  0  0  0
   46.3440   30.8360   47.6160 C   0  0  0  0  0  0  0  0  0  0  0  0
   45.4600   31.8310   47.8290 N   0  0  0  0  0  0  0  0  0  0  0  0
   45.0360   33.0610   42.9720 C   0  0  0  0  0  0  0  0  0  0  0  0
   44.7700   31.7270   43.2750 C   0  0  0  0  0  0  0  0  0  0  0  0
   43.7140   30.9730   42.8070 C   0  0  0  0  0  0  0  0  0  0  0  0
   42.8290   31.5890   41.9550 C   0  0  0  0  0  0  0  0  0  0  0  0
   43.0720   32.9090   41.6390 C   0  0  0  0  0  0  0  0  0  0  0  0
   44.1190   33.5720   42.1350 N   0  0  0  0  0  0  0  0  0  0  0  0
   47.0525   34.6821   45.1415 H   0  0  0  0  0  0  0  0  0  0  0  0
   44.3840   34.8224   46.2744 H   0  0  0  0  0  0  0  0  0  0  0  0
   43.5887   36.4856   44.4873 H   0  0  0  0  0  0  0  0  0  0  0  0
   44.4724   35.7415   42.2229 H   0  0  0  0  0  0  0  0  0  0  0  0
   45.5616   37.0201   43.0137 H   0  0  0  0  0  0  0  0  0  0  0  0
   46.5382   34.9974   41.7564 H   0  0  0  0  0  0  0  0  0  0  0  0
   47.2407   35.6513   43.2816 H   0  0  0  0  0  0  0  0  0  0  0  0
   46.9980   33.0982   43.2998 H   0  0  0  0  0  0  0  0  0  0  0  0
   44.6565   33.6785   47.1751 H   0  0  0  0  0  0  0  0  0  0  0  0
   47.8127   31.9264   44.7983 H   0  0  0  0  0  0  0  0  0  0  0  0
   46.3953   29.9880   48.3147 H   0  0  0  0  0  0  0  0  0  0  0  0
   45.4729   31.2248   43.9559 H   0  0  0  0  0  0  0  0  0  0  0  0
   43.5855   29.9216   43.1036 H   0  0  0  0  0  0  0  0  0  0  0  0
   41.9627   31.0513   41.5422 H   0  0  0  0  0  0  0  0  0  0  0  0
   42.3831   33.4308   40.9585 H   0  0  0  0  0  0  0  0  0  0  0  0
  1  2  1  0
  1  8  1  0
  3  2  2  0
  4  3  1  0
  5  4  1  0
  5  6  1  0
  6  1  1  0
  7 12  2  0
  8  7  1  0
  9  8  2  0
  9 10  1  0
 10 11  2  0
 11 12  1  0
 13 14  2  0
 13  6  1  0
 15 14  1  0
 16 15  2  0
 17 16  1  0
 17 18  2  0
 18 13  1  0
  1 19  1  1
  2 20  1  0
  3 21  1  0
  4 22  1  0
  4 23  1  0
  5 24  1  0
  5 25  1  0
  6 26  1  1
  7 27  1  0
  9 28  1  0
 11 29  1  0
 14 30  1  0
 15 31  1  0
 16 32  1  0
 17 33  1  0
M  ISO  8  19  13  20  13  21  13  22  13  23  13  24  13  25  13  26  13
M  ISO  7  27  14  28  14  29  14  30  14  31  14  32  14  33  14
M  END
>  <minimizedAffinity>  (1) 
-4.72300959

>  <minimizedRMSD>  (1) 
0.615538836

$$$$
