
     RDKit          3D

 29 31  0  0  1  0  0  0  0  0999 V2000
   45.9600   33.9330   45.0400 C   0  0  2  0  0  0  0  0  0  0  0  0
   44.8890   34.9150   45.4730 C   0  0  0  0  0  0  0  0  0  0  0  0
   44.4060   35.9010   44.5410 C   0  0  0  0  0  0  0  0  0  0  0  0
   44.9700   35.9470   43.1890 C   0  0  0  0  0  0  0  0  0  0  0  0
   46.1840   35.1210   42.9870 C   0  0  0  0  0  0  0  0  0  0  0  0
   45.9050   33.7240   43.5720 C   0  0  1  0  0  0  0  0  0  0  0  0
   45.6140   32.8290   47.2520 C   0  0  0  0  0  0  0  0  0  0  0  0
   45.8580   32.7410   45.8790 C   0  0  0  0  0  0  0  0  0  0  0  0
   46.0050   31.4410   45.3360 C   0  0  0  0  0  0  0  0  0  0  0  0
   45.9040   30.3720   46.1520 N   0  0  0  0  0  0  0  0  0  0  0  0
   45.6640   30.5180   47.4820 C   0  0  0  0  0  0  0  0  0  0  0  0
   45.5210   31.7390   48.0230 N   0  0  0  0  0  0  0  0  0  0  0  0
   47.0560   32.9930   42.9810 C   0  0  0  0  0  0  0  0  0  0  0  0
   48.3600   33.1730   43.2570 N   0  0  0  0  0  0  0  0  0  0  0  0
   49.1000   32.3800   42.5510 O   0  0  0  0  0  0  0  0  0  0  0  0
   48.2800   31.6770   41.8090 C   0  0  0  0  0  0  0  0  0  0  0  0
   46.9950   32.0110   42.0310 N   0  0  0  0  0  0  0  0  0  0  0  0
   46.9771   34.3194   45.2021 H   0  0  0  0  0  0  0  0  0  0  0  0
   44.4827   34.8745   46.4944 H   0  0  0  0  0  0  0  0  0  0  0  0
   43.6221   36.6121   44.8407 H   0  0  0  0  0  0  0  0  0  0  0  0
   44.1993   35.5981   42.4860 H   0  0  0  0  0  0  0  0  0  0  0  0
   45.2767   36.9897   43.0197 H   0  0  0  0  0  0  0  0  0  0  0  0
   46.4067   35.0393   41.9129 H   0  0  0  0  0  0  0  0  0  0  0  0
   47.0494   35.5810   43.4864 H   0  0  0  0  0  0  0  0  0  0  0  0
   44.9615   33.1955   43.3707 H   0  0  0  0  0  0  0  0  0  0  0  0
   45.4951   33.8212   47.7117 H   0  0  0  0  0  0  0  0  0  0  0  0
   46.1992   31.3050   44.2618 H   0  0  0  0  0  0  0  0  0  0  0  0
   45.5861   29.6267   48.1220 H   0  0  0  0  0  0  0  0  0  0  0  0
   48.6025   30.9076   41.0920 H   0  0  0  0  0  0  0  0  0  0  0  0
  1  2  1  0
  1  8  1  0
  3  2  2  0
  4  3  1  0
  5  4  1  0
  5  6  1  0
  6  1  1  0
  7 12  2  0
  8  7  1  0
  9  8  2  0
  9 10  1  0
 10 11  2  0
 11 12  1  0
 13 14  2  0
 13  6  1  0
 15 14  1  0
 16 17  2  0
 16 15  1  0
 17 13  1  0
  1 18  1  6
  2 19  1  0
  3 20  1  0
  4 21  1  0
  4 22  1  0
  5 23  1  0
  5 24  1  0
  6 25  1  1
  7 26  1  0
  9 27  1  0
 11 28  1  0
 16 29  1  0
M  ISO  8  18  13  19  13  20  13  21  13  22  13  23  13  24  13  25  13
M  ISO  4  26  14  27  14  28  14  29  14
M  END
>  <minimizedAffinity>  (1) 
-4.6397872

>  <minimizedRMSD>  (1) 
0.544495285

$$$$
