
     RDKit          3D

 37 39  0  0  1  0  0  0  0  0999 V2000
   49.0700   33.6780   42.6640 C   0  0  2  0  0  0  0  0  0  0  0  0
   47.6810   33.9480   42.4360 C   0  0  2  0  0  0  0  0  0  0  0  0
   47.6250   35.3780   41.8820 C   0  0  0  0  0  0  0  0  0  0  0  0
   49.0040   35.8030   41.4940 C   0  0  0  0  0  0  0  0  0  0  0  0
   49.8050   35.0650   42.5090 C   0  0  0  0  0  0  0  0  0  0  0  0
   49.7890   32.8000   41.7370 C   0  0  0  0  0  0  0  0  0  0  0  0
   49.0250   32.1880   40.7160 C   0  0  0  0  0  0  0  0  0  0  0  0
   49.6780   31.3820   39.7950 C   0  0  0  0  0  0  0  0  0  0  0  0
   51.0380   31.2390   39.9490 N   0  0  0  0  0  0  0  0  0  0  0  0
   51.7440   31.8200   40.9160 C   0  0  0  0  0  0  0  0  0  0  0  0
   51.0980   32.5840   41.7830 N   0  0  0  0  0  0  0  0  0  0  0  0
   46.8270   33.8840   43.6760 C   0  0  0  0  0  0  0  0  0  0  0  0
   46.0050   34.7480   43.9110 O   0  0  0  0  0  0  0  0  0  0  0  0
   46.8640   32.8750   44.6590 N   0  0  0  0  0  0  0  0  0  0  0  0
   46.5240   33.2220   46.0260 C   0  0  0  0  0  0  0  0  0  0  0  0
   46.0220   31.9630   46.6910 C   0  0  0  0  0  0  0  0  0  0  0  0
   46.1990   30.8820   45.6540 C   0  0  0  0  0  0  0  0  0  0  0  0
   47.1870   31.4400   44.6520 C   0  0  0  0  0  0  0  0  0  0  0  0
   49.0836   33.1656   43.6373 H   0  0  0  0  0  0  0  0  0  0  0  0
   47.2806   33.1810   41.7567 H   0  0  0  0  0  0  0  0  0  0  0  0
   46.9683   35.4065   41.0000 H   0  0  0  0  0  0  0  0  0  0  0  0
   47.2280   36.0589   42.6494 H   0  0  0  0  0  0  0  0  0  0  0  0
   49.2542   35.4877   40.4703 H   0  0  0  0  0  0  0  0  0  0  0  0
   49.1646   36.8912   41.4830 H   0  0  0  0  0  0  0  0  0  0  0  0
   50.8376   34.9203   42.1585 H   0  0  0  0  0  0  0  0  0  0  0  0
   49.8740   35.6094   43.4623 H   0  0  0  0  0  0  0  0  0  0  0  0
   47.9384   32.3475   40.6538 H   0  0  0  0  0  0  0  0  0  0  0  0
   49.1346   30.8810   38.9803 H   0  0  0  0  0  0  0  0  0  0  0  0
   52.8310   31.6700   40.9926 H   0  0  0  0  0  0  0  0  0  0  0  0
   47.4137   33.5980   46.5524 H   0  0  0  0  0  0  0  0  0  0  0  0
   45.7576   34.0107   46.0510 H   0  0  0  0  0  0  0  0  0  0  0  0
   46.6137   31.7376   47.5905 H   0  0  0  0  0  0  0  0  0  0  0  0
   44.9763   32.0558   47.0195 H   0  0  0  0  0  0  0  0  0  0  0  0
   46.5965   29.9667   46.1169 H   0  0  0  0  0  0  0  0  0  0  0  0
   45.2443   30.6124   45.1787 H   0  0  0  0  0  0  0  0  0  0  0  0
   47.0334   31.0020   43.6547 H   0  0  0  0  0  0  0  0  0  0  0  0
   48.2364   31.2235   44.9008 H   0  0  0  0  0  0  0  0  0  0  0  0
  2  1  1  0
  2 12  1  0
  3  2  1  0
  4  3  1  0
  4  5  1  0
  5  1  1  0
  6 11  1  0
  6  1  1  0
  7  6  2  0
  8  9  2  0
  8  7  1  0
  9 10  1  0
 10 11  2  0
 12 13  2  0
 12 14  1  0
 14 15  1  0
 15 16  1  0
 17 16  1  0
 18 14  1  0
 18 17  1  0
  1 19  1  1
  2 20  1  6
  3 21  1  0
  3 22  1  0
  4 23  1  0
  4 24  1  0
  5 25  1  0
  5 26  1  0
  7 27  1  0
  8 28  1  0
 10 29  1  0
 15 30  1  0
 15 31  1  0
 16 32  1  0
 16 33  1  0
 17 34  1  0
 17 35  1  0
 18 36  1  0
 18 37  1  0
M  ISO  8  19  13  20  13  21  13  22  13  23  13  24  13  25  13  26  13
M  ISO  8  27  14  28  14  29  14  30  13  31  13  32  13  33  13  34  13
M  ISO  3  35  13  36  13  37  13
M  END
>  <minimizedAffinity>  (1) 
-5.24133682

>  <minimizedRMSD>  (1) 
0.234407321

$$$$
