
     RDKit          3D

 33 34  0  0  1  0  0  0  0  0999 V2000
   46.0610   33.9550   45.0000 C   0  0  2  0  0  0  0  0  0  0  0  0
   44.9390   34.9020   45.3280 C   0  0  0  0  0  0  0  0  0  0  0  0
   44.4650   35.8150   44.2900 C   0  0  0  0  0  0  0  0  0  0  0  0
   45.0640   35.7830   42.9640 C   0  0  0  0  0  0  0  0  0  0  0  0
   46.3480   35.0760   42.8970 C   0  0  0  0  0  0  0  0  0  0  0  0
   46.3150   33.7410   43.5840 C   0  0  1  0  0  0  0  0  0  0  0  0
   45.6150   32.9240   47.1870 C   0  0  0  0  0  0  0  0  0  0  0  0
   45.8840   32.7340   45.8290 C   0  0  0  0  0  0  0  0  0  0  0  0
   46.0210   31.4320   45.3330 C   0  0  0  0  0  0  0  0  0  0  0  0
   45.8930   30.3750   46.1840 N   0  0  0  0  0  0  0  0  0  0  0  0
   45.6320   30.5900   47.5040 C   0  0  0  0  0  0  0  0  0  0  0  0
   45.4950   31.8490   47.9910 N   0  0  0  0  0  0  0  0  0  0  0  0
   47.7290   33.2420   43.2790 C   0  0  0  0  0  0  0  0  0  0  0  0
   48.6840   34.3260   42.8700 C   0  0  0  0  0  0  0  0  0  0  0  0
   47.5880   32.2540   42.1180 C   0  0  0  0  0  0  0  0  0  0  0  0
   47.0172   34.4247   45.2740 H   0  0  0  0  0  0  0  0  0  0  0  0
   44.4843   34.9071   46.3296 H   0  0  0  0  0  0  0  0  0  0  0  0
   43.6556   36.5263   44.5109 H   0  0  0  0  0  0  0  0  0  0  0  0
   44.3607   35.2849   42.2805 H   0  0  0  0  0  0  0  0  0  0  0  0
   45.2653   36.8277   42.6846 H   0  0  0  0  0  0  0  0  0  0  0  0
   46.6087   34.9206   41.8397 H   0  0  0  0  0  0  0  0  0  0  0  0
   47.0944   35.6961   43.4150 H   0  0  0  0  0  0  0  0  0  0  0  0
   45.5402   33.0279   43.2658 H   0  0  0  0  0  0  0  0  0  0  0  0
   45.5025   33.9393   47.5951 H   0  0  0  0  0  0  0  0  0  0  0  0
   46.2300   31.2636   44.2663 H   0  0  0  0  0  0  0  0  0  0  0  0
   45.5310   29.7313   48.1840 H   0  0  0  0  0  0  0  0  0  0  0  0
   48.1476   32.7985   44.1945 H   0  0  0  0  0  0  0  0  0  0  0  0
   49.1040   34.8027   43.7680 H   0  0  0  0  0  0  0  0  0  0  0  0
   49.4978   33.8910   42.2712 H   0  0  0  0  0  0  0  0  0  0  0  0
   48.1499   35.0785   42.2712 H   0  0  0  0  0  0  0  0  0  0  0  0
   47.4431   31.2388   42.5160 H   0  0  0  0  0  0  0  0  0  0  0  0
   46.7207   32.5336   41.5019 H   0  0  0  0  0  0  0  0  0  0  0  0
   48.4989   32.2798   41.5019 H   0  0  0  0  0  0  0  0  0  0  0  0
  1  2  1  0
  1  8  1  0
  3  2  2  0
  4  3  1  0
  5  4  1  0
  5  6  1  0
  6  1  1  0
  7 12  2  0
  8  7  1  0
  9  8  2  0
  9 10  1  0
 10 11  2  0
 11 12  1  0
 13  6  1  0
 14 13  1  0
 15 13  1  0
  1 16  1  1
  2 17  1  0
  3 18  1  0
  4 19  1  0
  4 20  1  0
  5 21  1  0
  5 22  1  0
  6 23  1  6
  7 24  1  0
  9 25  1  0
 11 26  1  0
 13 27  1  0
 14 28  1  0
 14 29  1  0
 14 30  1  0
 15 31  1  0
 15 32  1  0
 15 33  1  0
M  ISO  8  16  13  17  13  18  13  19  13  20  13  21  13  22  13  23  13
M  ISO  8  24  14  25  14  26  14  27   8  28   8  29   8  30   8  31   8
M  ISO  2  32   8  33   8
M  END
>  <minimizedAffinity>  (1) 
-4.58565187

>  <minimizedRMSD>  (1) 
0.475138336

$$$$
