
     RDKit          3D

 31 33  0  0  1  0  0  0  0  0999 V2000
   46.1750   33.8200   45.5300 C   0  0  2  0  0  0  0  0  0  0  0  0
   44.9920   34.7410   45.7100 C   0  0  0  0  0  0  0  0  0  0  0  0
   44.5900   35.5320   44.5610 C   0  0  0  0  0  0  0  0  0  0  0  0
   45.3150   35.4010   43.3040 C   0  0  0  0  0  0  0  0  0  0  0  0
   46.5200   34.5680   43.2930 C   0  0  0  0  0  0  0  0  0  0  0  0
   46.3150   33.3300   44.1390 C   0  0  2  0  0  0  0  0  0  0  0  0
   45.1020   32.7770   47.4990 C   0  0  0  0  0  0  0  0  0  0  0  0
   46.1590   32.7950   46.5870 C   0  0  0  0  0  0  0  0  0  0  0  0
   47.1930   31.8300   46.7210 C   0  0  0  0  0  0  0  0  0  0  0  0
   47.0890   30.9400   47.7380 N   0  0  0  0  0  0  0  0  0  0  0  0
   46.0510   30.9470   48.6090 C   0  0  0  0  0  0  0  0  0  0  0  0
   45.0670   31.8660   48.4800 N   0  0  0  0  0  0  0  0  0  0  0  0
   45.3810   32.4550   43.5750 C   0  0  0  0  0  0  0  0  0  0  0  0
   44.2930   32.5970   42.7640 C   0  0  0  0  0  0  0  0  0  0  0  0
   43.5420   31.5360   42.3380 C   0  0  0  0  0  0  0  0  0  0  0  0
   43.9520   30.2240   42.7910 C   0  0  0  0  0  0  0  0  0  0  0  0
   45.4650   30.6520   43.8470 S   0  0  0  0  0  0  0  0  0  0  0  0
   47.1127   34.3787   45.6666 H   0  0  0  0  0  0  0  0  0  0  0  0
   44.4584   34.8095   46.6694 H   0  0  0  0  0  0  0  0  0  0  0  0
   43.7414   36.2275   44.6391 H   0  0  0  0  0  0  0  0  0  0  0  0
   44.6176   34.9785   42.5657 H   0  0  0  0  0  0  0  0  0  0  0  0
   45.6787   36.4163   43.0874 H   0  0  0  0  0  0  0  0  0  0  0  0
   46.7428   34.2671   42.2587 H   0  0  0  0  0  0  0  0  0  0  0  0
   47.3578   35.1480   43.7075 H   0  0  0  0  0  0  0  0  0  0  0  0
   47.1592   32.6255   44.1704 H   0  0  0  0  0  0  0  0  0  0  0  0
   44.2923   33.5163   47.4111 H   0  0  0  0  0  0  0  0  0  0  0  0
   48.0453   31.8060   46.0260 H   0  0  0  0  0  0  0  0  0  0  0  0
   46.0086   30.2057   49.4206 H   0  0  0  0  0  0  0  0  0  0  0  0
   44.0075   33.6083   42.4387 H   0  0  0  0  0  0  0  0  0  0  0  0
   42.6690   31.6733   41.6830 H   0  0  0  0  0  0  0  0  0  0  0  0
   43.5048   29.2416   42.5789 H   0  0  0  0  0  0  0  0  0  0  0  0
  1  2  1  0
  1  8  1  0
  3  2  2  0
  4  3  1  0
  5  4  1  0
  5  6  1  0
  6  1  1  0
  7 12  2  0
  8  9  2  0
  8  7  1  0
  9 10  1  0
 10 11  2  0
 12 11  1  0
 13 17  1  0
 13  6  1  0
 14 13  2  0
 15 14  1  0
 15 16  2  0
 16 17  1  0
  1 18  1  1
  2 19  1  0
  3 20  1  0
  4 21  1  0
  4 22  1  0
  5 23  1  0
  5 24  1  0
  6 25  1  1
  7 26  1  0
  9 27  1  0
 11 28  1  0
 14 29  1  0
 15 30  1  0
 16 31  1  0
M  ISO  8  18  13  19  13  20  13  21  13  22  13  23  13  24  13  25  13
M  ISO  6  26  14  27  14  28  14  29  14  30  14  31  14
M  END
>  <minimizedAffinity>  (1) 
-4.57904339

>  <minimizedRMSD>  (1) 
0.814840674

$$$$
