
     RDKit          3D

 31 33  0  0  1  0  0  0  0  0999 V2000
   46.0890   34.1000   45.0880 C   0  0  2  0  0  0  0  0  0  0  0  0
   44.9290   34.9820   45.4620 C   0  0  0  0  0  0  0  0  0  0  0  0
   44.4160   35.8720   44.4460 C   0  0  0  0  0  0  0  0  0  0  0  0
   45.0120   35.8900   43.1170 C   0  0  0  0  0  0  0  0  0  0  0  0
   46.2420   35.1080   42.9180 C   0  0  0  0  0  0  0  0  0  0  0  0
   46.1390   33.7990   43.6420 C   0  0  2  0  0  0  0  0  0  0  0  0
   45.2860   32.8650   47.0720 C   0  0  0  0  0  0  0  0  0  0  0  0
   46.1660   32.9580   45.9950 C   0  0  0  0  0  0  0  0  0  0  0  0
   47.1330   31.9380   45.8350 C   0  0  0  0  0  0  0  0  0  0  0  0
   47.1510   30.9170   46.7460 N   0  0  0  0  0  0  0  0  0  0  0  0
   46.2740   30.8680   47.7790 C   0  0  0  0  0  0  0  0  0  0  0  0
   45.3450   31.8400   47.9400 N   0  0  0  0  0  0  0  0  0  0  0  0
   45.1430   32.9250   43.1420 N   0  0  0  0  0  0  0  0  0  0  0  0
   45.0240   31.6190   43.4170 C   0  0  0  0  0  0  0  0  0  0  0  0
   43.9180   31.1840   42.7110 C   0  0  0  0  0  0  0  0  0  0  0  0
   43.3840   32.2140   42.0260 N   0  0  0  0  0  0  0  0  0  0  0  0
   44.1490   33.2720   42.3020 C   0  0  0  0  0  0  0  0  0  0  0  0
   47.0303   34.6492   45.2376 H   0  0  0  0  0  0  0  0  0  0  0  0
   44.4887   34.9505   46.4695 H   0  0  0  0  0  0  0  0  0  0  0  0
   43.5720   36.5386   44.6770 H   0  0  0  0  0  0  0  0  0  0  0  0
   44.2593   35.5069   42.4122 H   0  0  0  0  0  0  0  0  0  0  0  0
   45.3135   36.9357   42.9571 H   0  0  0  0  0  0  0  0  0  0  0  0
   46.3846   34.9200   41.8436 H   0  0  0  0  0  0  0  0  0  0  0  0
   47.0982   35.6738   43.3140 H   0  0  0  0  0  0  0  0  0  0  0  0
   47.0317   33.1852   43.4516 H   0  0  0  0  0  0  0  0  0  0  0  0
   44.5264   33.6477   47.2149 H   0  0  0  0  0  0  0  0  0  0  0  0
   47.8504   31.9648   45.0016 H   0  0  0  0  0  0  0  0  0  0  0  0
   46.3175   30.0317   48.4922 H   0  0  0  0  0  0  0  0  0  0  0  0
   45.6728   31.0169   44.0701 H   0  0  0  0  0  0  0  0  0  0  0  0
   43.5326   30.1537   42.7088 H   0  0  0  0  0  0  0  0  0  0  0  0
   43.9903   34.2838   41.9005 H   0  0  0  0  0  0  0  0  0  0  0  0
  1  2  1  0
  1  8  1  0
  3  2  2  0
  4  3  1  0
  5  4  1  0
  5  6  1  0
  6  1  1  0
  7 12  2  0
  8  7  1  0
  9  8  2  0
  9 10  1  0
 10 11  2  0
 11 12  1  0
 13 14  1  0
 13  6  1  0
 15 14  2  0
 16 17  2  0
 16 15  1  0
 17 13  1  0
  1 18  1  1
  2 19  1  0
  3 20  1  0
  4 21  1  0
  4 22  1  0
  5 23  1  0
  5 24  1  0
  6 25  1  1
  7 26  1  0
  9 27  1  0
 11 28  1  0
 14 29  1  0
 15 30  1  0
 17 31  1  0
M  ISO  8  18  13  19  13  20  13  21  13  22  13  23  13  24  13  25  13
M  ISO  6  26  14  27  14  28  14  29  14  30  14  31  14
M  END
>  <minimizedAffinity>  (1) 
-4.54376745

>  <minimizedRMSD>  (1) 
0.621288776

$$$$
