
     RDKit          3D

 27 28  0  0  1  0  0  0  0  0999 V2000
   46.4170   33.5420   45.7920 C   0  0  2  0  0  0  0  0  0  0  0  0
   45.1670   34.3760   45.7110 C   0  0  0  0  0  0  0  0  0  0  0  0
   44.9390   35.0600   44.4570 C   0  0  0  0  0  0  0  0  0  0  0  0
   45.8990   34.9220   43.3440 C   0  0  0  0  0  0  0  0  0  0  0  0
   47.0760   34.0810   43.5680 C   0  0  0  0  0  0  0  0  0  0  0  0
   46.7360   32.9170   44.4760 C   0  0  2  0  0  0  0  0  0  0  0  0
   45.1740   32.6100   47.7740 C   0  0  0  0  0  0  0  0  0  0  0  0
   46.3110   32.6380   46.9360 C   0  0  0  0  0  0  0  0  0  0  0  0
   47.3570   31.7370   47.2520 C   0  0  0  0  0  0  0  0  0  0  0  0
   47.1950   30.9230   48.3210 N   0  0  0  0  0  0  0  0  0  0  0  0
   46.1000   30.9340   49.0850 C   0  0  0  0  0  0  0  0  0  0  0  0
   45.0990   31.7730   48.8100 N   0  0  0  0  0  0  0  0  0  0  0  0
   45.7320   32.0060   43.8910 C   0  0  0  0  0  0  0  0  0  0  0  0
   46.2980   31.5020   42.7060 F   0  0  0  0  0  0  0  0  0  0  0  0
   44.5520   32.5810   43.4810 F   0  0  0  0  0  0  0  0  0  0  0  0
   45.4030   30.9250   44.6380 F   0  0  0  0  0  0  0  0  0  0  0  0
   47.3030   34.1632   45.9896 H   0  0  0  0  0  0  0  0  0  0  0  0
   44.4677   34.4605   46.5559 H   0  0  0  0  0  0  0  0  0  0  0  0
   44.0441   35.6873   44.3318 H   0  0  0  0  0  0  0  0  0  0  0  0
   46.2578   35.9306   43.0912 H   0  0  0  0  0  0  0  0  0  0  0  0
   45.3358   34.4106   42.5495 H   0  0  0  0  0  0  0  0  0  0  0  0
   47.4324   33.6937   42.6021 H   0  0  0  0  0  0  0  0  0  0  0  0
   47.8585   34.6874   44.0475 H   0  0  0  0  0  0  0  0  0  0  0  0
   47.5664   32.2094   44.6164 H   0  0  0  0  0  0  0  0  0  0  0  0
   44.3350   33.2910   47.5684 H   0  0  0  0  0  0  0  0  0  0  0  0
   48.2744   31.6999   46.6462 H   0  0  0  0  0  0  0  0  0  0  0  0
   46.0227   30.2500   49.9430 H   0  0  0  0  0  0  0  0  0  0  0  0
  1  8  1  0
  2  1  1  0
  3  2  2  0
  4  5  1  0
  4  3  1  0
  5  6  1  0
  6  1  1  0
  7 12  2  0
  8  9  2  0
  8  7  1  0
  9 10  1  0
 10 11  2  0
 12 11  1  0
 13  6  1  0
 13 16  1  0
 14 13  1  0
 15 13  1  0
  1 17  1  1
  2 18  1  0
  3 19  1  0
  4 20  1  0
  4 21  1  0
  5 22  1  0
  5 23  1  0
  6 24  1  1
  7 25  1  0
  9 26  1  0
 11 27  1  0
M  ISO  8  17  13  18  13  19  13  20  13  21  13  22  13  23  13  24  13
M  ISO  3  25  14  26  14  27  14
M  END
>  <minimizedAffinity>  (1) 
-4.52528286

>  <minimizedRMSD>  (1) 
1.32623518

$$$$
