
     RDKit          3D

 30 32  0  0  1  0  0  0  0  0999 V2000
   46.1800   34.1210   45.0380 C   0  0  2  0  0  0  0  0  0  0  0  0
   44.9300   34.9260   45.3130 C   0  0  0  0  0  0  0  0  0  0  0  0
   44.4410   35.7610   44.2330 C   0  0  0  0  0  0  0  0  0  0  0  0
   45.1390   35.8110   42.9470 C   0  0  0  0  0  0  0  0  0  0  0  0
   46.4250   35.0650   42.8520 C   0  0  0  0  0  0  0  0  0  0  0  0
   46.3000   33.7620   43.5930 C   0  0  2  0  0  0  0  0  0  0  0  0
   45.3210   32.9120   47.0150 C   0  0  0  0  0  0  0  0  0  0  0  0
   46.2240   32.9520   45.9520 C   0  0  0  0  0  0  0  0  0  0  0  0
   47.1470   31.8800   45.8090 C   0  0  0  0  0  0  0  0  0  0  0  0
   47.0920   30.8760   46.7210 N   0  0  0  0  0  0  0  0  0  0  0  0
   46.2020   30.8650   47.7430 C   0  0  0  0  0  0  0  0  0  0  0  0
   45.3230   31.8850   47.8810 N   0  0  0  0  0  0  0  0  0  0  0  0
   45.2040   32.9720   43.1060 N   0  0  0  0  0  0  0  0  0  0  0  0
   45.0000   31.6850   43.3940 C   0  0  0  0  0  0  0  0  0  0  0  0
   43.8990   31.2260   42.7960 N   0  0  0  0  0  0  0  0  0  0  0  0
   43.3790   32.2710   42.0920 C   0  0  0  0  0  0  0  0  0  0  0  0
   44.2170   33.3000   42.3230 N   0  0  0  0  0  0  0  0  0  0  0  0
   47.0682   34.7349   45.2484 H   0  0  0  0  0  0  0  0  0  0  0  0
   44.4167   34.8805   46.2848 H   0  0  0  0  0  0  0  0  0  0  0  0
   43.5337   36.3648   44.3819 H   0  0  0  0  0  0  0  0  0  0  0  0
   44.4602   35.4028   42.1837 H   0  0  0  0  0  0  0  0  0  0  0  0
   45.4081   36.8682   42.8062 H   0  0  0  0  0  0  0  0  0  0  0  0
   46.6571   34.8660   41.7953 H   0  0  0  0  0  0  0  0  0  0  0  0
   47.2328   35.6653   43.2960 H   0  0  0  0  0  0  0  0  0  0  0  0
   47.1786   33.1190   43.4363 H   0  0  0  0  0  0  0  0  0  0  0  0
   44.5987   33.7313   47.1455 H   0  0  0  0  0  0  0  0  0  0  0  0
   47.8796   31.8647   44.9886 H   0  0  0  0  0  0  0  0  0  0  0  0
   46.1940   30.0294   48.4584 H   0  0  0  0  0  0  0  0  0  0  0  0
   45.6542   31.0812   44.0401 H   0  0  0  0  0  0  0  0  0  0  0  0
   42.4717   32.2735   41.4701 H   0  0  0  0  0  0  0  0  0  0  0  0
  1  2  1  0
  1  8  1  0
  3  2  2  0
  4  3  1  0
  5  4  1  0
  5  6  1  0
  6  1  1  0
  7 12  2  0
  8  7  1  0
  9  8  2  0
  9 10  1  0
 10 11  2  0
 11 12  1  0
 13 14  1  0
 13  6  1  0
 15 14  2  0
 16 17  2  0
 16 15  1  0
 17 13  1  0
  1 18  1  1
  2 19  1  0
  3 20  1  0
  4 21  1  0
  4 22  1  0
  5 23  1  0
  5 24  1  0
  6 25  1  1
  7 26  1  0
  9 27  1  0
 11 28  1  0
 14 29  1  0
 16 30  1  0
M  ISO  8  18  13  19  13  20  13  21  13  22  13  23  13  24  13  25  13
M  ISO  5  26  14  27  14  28  14  29  14  30  14
M  END
>  <minimizedAffinity>  (1) 
-4.48609686

>  <minimizedRMSD>  (1) 
0.647533059

$$$$
