
     RDKit          3D

 36 37  0  0  1  0  0  0  0  0999 V2000
   46.0690   34.0030   44.1110 C   0  0  2  0  0  0  0  0  0  0  0  0
   45.1300   35.0080   44.7080 C   0  0  0  0  0  0  0  0  0  0  0  0
   44.2980   35.8130   43.8090 C   0  0  0  0  0  0  0  0  0  0  0  0
   44.3700   35.6000   42.3850 C   0  0  0  0  0  0  0  0  0  0  0  0
   45.5660   34.9380   41.9220 C   0  0  0  0  0  0  0  0  0  0  0  0
   46.0350   33.7750   42.7050 C   0  0  1  0  0  0  0  0  0  0  0  0
   46.6360   33.0290   46.2980 C   0  0  0  0  0  0  0  0  0  0  0  0
   46.1360   32.8290   45.0140 C   0  0  0  0  0  0  0  0  0  0  0  0
   45.7870   31.5470   44.6150 C   0  0  0  0  0  0  0  0  0  0  0  0
   45.9390   30.4980   45.4860 N   0  0  0  0  0  0  0  0  0  0  0  0
   46.4320   30.7150   46.7380 C   0  0  0  0  0  0  0  0  0  0  0  0
   46.7710   31.9690   47.1260 N   0  0  0  0  0  0  0  0  0  0  0  0
   47.4670   33.6920   42.1100 C   0  0  0  0  0  0  0  0  0  0  0  0
   47.4090   34.4000   40.7400 C   0  0  0  0  0  0  0  0  0  0  0  0
   48.4880   34.3890   42.9280 C   0  0  0  0  0  0  0  0  0  0  0  0
   47.9470   32.3230   41.8220 C   0  0  0  0  0  0  0  0  0  0  0  0
   47.0658   34.4670   44.0774 H   0  0  0  0  0  0  0  0  0  0  0  0
   45.0668   35.1385   45.7984 H   0  0  0  0  0  0  0  0  0  0  0  0
   43.6212   36.5769   44.2194 H   0  0  0  0  0  0  0  0  0  0  0  0
   43.5057   34.9876   42.0885 H   0  0  0  0  0  0  0  0  0  0  0  0
   44.3781   36.6001   41.9270 H   0  0  0  0  0  0  0  0  0  0  0  0
   45.3776   34.5924   40.8949 H   0  0  0  0  0  0  0  0  0  0  0  0
   46.3641   35.6887   42.0194 H   0  0  0  0  0  0  0  0  0  0  0  0
   45.4033   32.8776   42.6306 H   0  0  0  0  0  0  0  0  0  0  0  0
   46.9178   34.0376   46.6346 H   0  0  0  0  0  0  0  0  0  0  0  0
   45.3899   31.3722   43.6042 H   0  0  0  0  0  0  0  0  0  0  0  0
   46.5549   29.8722   47.4341 H   0  0  0  0  0  0  0  0  0  0  0  0
   47.3200   35.4858   40.8919 H   0  0  0  0  0  0  0  0  0  0  0  0
   48.3280   34.1827   40.1758 H   0  0  0  0  0  0  0  0  0  0  0  0
   46.5377   34.0361   40.1758 H   0  0  0  0  0  0  0  0  0  0  0  0
   48.2679   34.2387   43.9952 H   0  0  0  0  0  0  0  0  0  0  0  0
   49.4833   33.9810   42.6979 H   0  0  0  0  0  0  0  0  0  0  0  0
   48.4705   35.4645   42.6979 H   0  0  0  0  0  0  0  0  0  0  0  0
   48.1328   31.7930   42.7678 H   0  0  0  0  0  0  0  0  0  0  0  0
   47.1850   31.7817   41.2420 H   0  0  0  0  0  0  0  0  0  0  0  0
   48.8801   32.3761   41.2420 H   0  0  0  0  0  0  0  0  0  0  0  0
  1  2  1  0
  1  8  1  0
  3  2  2  0
  4  3  1  0
  5  4  1  0
  5  6  1  0
  6  1  1  0
  7 12  2  0
  8  7  1  0
  9  8  2  0
  9 10  1  0
 10 11  2  0
 11 12  1  0
 13  6  1  0
 13 15  1  0
 14 13  1  0
 16 13  1  0
  1 17  1  6
  2 18  1  0
  3 19  1  0
  4 20  1  0
  4 21  1  0
  5 22  1  0
  5 23  1  0
  6 24  1  1
  7 25  1  0
  9 26  1  0
 11 27  1  0
 14 28  1  0
 14 29  1  0
 14 30  1  0
 15 31  1  0
 15 32  1  0
 15 33  1  0
 16 34  1  0
 16 35  1  0
 16 36  1  0
M  ISO  8  17  13  18  13  19  13  20  13  21  13  22  13  23  13  24  13
M  ISO  8  25  14  26  14  27  14  28   8  29   8  30   8  31   8  32   8
M  ISO  4  33   8  34   8  35   8  36   8
M  END
>  <minimizedAffinity>  (1) 
-4.4241991

>  <minimizedRMSD>  (1) 
1.73711789

$$$$
