
     RDKit          3D

 41 43  0  0  1  0  0  0  0  0999 V2000
   49.0860   33.5320   42.4710 C   0  0  2  0  0  0  0  0  0  0  0  0
   47.7490   33.9370   42.1690 C   0  0  2  0  0  0  0  0  0  0  0  0
   47.8530   35.4470   41.8570 C   0  0  0  0  0  0  0  0  0  0  0  0
   49.2890   35.8070   41.6720 C   0  0  0  0  0  0  0  0  0  0  0  0
   49.9210   34.8520   42.6190 C   0  0  0  0  0  0  0  0  0  0  0  0
   49.8240   32.7380   41.4740 C   0  0  0  0  0  0  0  0  0  0  0  0
   49.1190   32.3480   40.3180 C   0  0  0  0  0  0  0  0  0  0  0  0
   49.8100   31.6300   39.3470 C   0  0  0  0  0  0  0  0  0  0  0  0
   51.1400   31.3540   39.5950 N   0  0  0  0  0  0  0  0  0  0  0  0
   51.7800   31.7350   40.6990 C   0  0  0  0  0  0  0  0  0  0  0  0
   51.1050   32.4180   41.6090 N   0  0  0  0  0  0  0  0  0  0  0  0
   46.7240   33.7630   43.2420 C   0  0  0  0  0  0  0  0  0  0  0  0
   47.0370   33.7160   44.4040 O   0  0  0  0  0  0  0  0  0  0  0  0
   45.2980   33.6540   42.9690 C   0  0  0  0  0  0  0  0  0  0  0  0
   44.5800   34.8890   43.4780 C   0  0  0  0  0  0  0  0  0  0  0  0
   44.4270   35.9480   42.4130 C   0  0  0  0  0  0  0  0  0  0  0  0
   43.2820   35.4670   41.5210 C   0  0  0  0  0  0  0  0  0  0  0  0
   43.5970   34.0420   41.1710 C   0  0  0  0  0  0  0  0  0  0  0  0
   45.0230   33.6400   41.4640 C   0  0  0  0  0  0  0  0  0  0  0  0
   48.9774   32.8822   43.3519 H   0  0  0  0  0  0  0  0  0  0  0  0
   47.3940   33.2899   41.3534 H   0  0  0  0  0  0  0  0  0  0  0  0
   47.2947   35.6727   40.9365 H   0  0  0  0  0  0  0  0  0  0  0  0
   47.4283   36.0284   42.6886 H   0  0  0  0  0  0  0  0  0  0  0  0
   49.6222   35.6364   40.6377 H   0  0  0  0  0  0  0  0  0  0  0  0
   49.5276   36.8652   41.8544 H   0  0  0  0  0  0  0  0  0  0  0  0
   49.8647   35.2330   43.6494 H   0  0  0  0  0  0  0  0  0  0  0  0
   50.9880   34.6958   42.4020 H   0  0  0  0  0  0  0  0  0  0  0  0
   48.0569   32.6029   40.1875 H   0  0  0  0  0  0  0  0  0  0  0  0
   49.3179   31.2965   38.4215 H   0  0  0  0  0  0  0  0  0  0  0  0
   52.8413   31.4884   40.8502 H   0  0  0  0  0  0  0  0  0  0  0  0
   44.9548   32.7280   43.4535 H   0  0  0  0  0  0  0  0  0  0  0  0
   43.5801   34.5958   43.8303 H   0  0  0  0  0  0  0  0  0  0  0  0
   45.1854   35.3168   44.2907 H   0  0  0  0  0  0  0  0  0  0  0  0
   44.1784   36.9180   42.8682 H   0  0  0  0  0  0  0  0  0  0  0  0
   45.3567   36.0908   41.8426 H   0  0  0  0  0  0  0  0  0  0  0  0
   42.3262   35.5247   42.0624 H   0  0  0  0  0  0  0  0  0  0  0  0
   43.1859   36.0902   40.6197 H   0  0  0  0  0  0  0  0  0  0  0  0
   43.4113   33.9003   40.0961 H   0  0  0  0  0  0  0  0  0  0  0  0
   42.9519   33.4094   41.7984 H   0  0  0  0  0  0  0  0  0  0  0  0
   45.1979   32.6258   41.0757 H   0  0  0  0  0  0  0  0  0  0  0  0
   45.6973   34.3603   40.9776 H   0  0  0  0  0  0  0  0  0  0  0  0
  1  5  1  0
  2  1  1  0
  2 12  1  0
  3  2  1  0
  4  3  1  0
  4  5  1  0
  6 11  1  0
  6  1  1  0
  7  6  2  0
  8  9  2  0
  8  7  1  0
  9 10  1  0
 10 11  2  0
 12 13  2  0
 14 12  1  0
 14 15  1  0
 16 15  1  0
 17 16  1  0
 18 19  1  0
 18 17  1  0
 19 14  1  0
  1 20  1  1
  2 21  1  6
  3 22  1  0
  3 23  1  0
  4 24  1  0
  4 25  1  0
  5 26  1  0
  5 27  1  0
  7 28  1  0
  8 29  1  0
 10 30  1  0
 14 31  1  0
 15 32  1  0
 15 33  1  0
 16 34  1  0
 16 35  1  0
 17 36  1  0
 17 37  1  0
 18 38  1  0
 18 39  1  0
 19 40  1  0
 19 41  1  0
M  ISO  8  20  13  21  13  22  13  23  13  24  13  25  13  26  13  27  13
M  ISO  8  28  14  29  14  30  14  31  13  32  13  33  13  34  13  35  13
M  ISO  6  36  13  37  13  38  13  39  13  40  13  41  13
M  END
>  <minimizedAffinity>  (1) 
-5.23813152

>  <minimizedRMSD>  (1) 
3.16619992

$$$$
