
     RDKit          3D

 30 31  0  0  1  0  0  0  0  0999 V2000
   46.0520   34.0520   45.2670 C   0  0  2  0  0  0  0  0  0  0  0  0
   44.8760   34.9360   45.4870 C   0  0  0  0  0  0  0  0  0  0  0  0
   44.4930   35.7760   44.3730 C   0  0  0  0  0  0  0  0  0  0  0  0
   45.2450   35.7280   43.1000 C   0  0  0  0  0  0  0  0  0  0  0  0
   46.4430   34.8780   43.0800 C   0  0  0  0  0  0  0  0  0  0  0  0
   46.1210   33.5810   43.8460 C   0  0  2  0  0  0  0  0  0  0  0  0
   45.2100   33.0070   47.4010 C   0  0  0  0  0  0  0  0  0  0  0  0
   46.0750   32.9850   46.2870 C   0  0  0  0  0  0  0  0  0  0  0  0
   46.9560   31.9050   46.1820 C   0  0  0  0  0  0  0  0  0  0  0  0
   46.9220   30.9580   47.1430 N   0  0  0  0  0  0  0  0  0  0  0  0
   46.0890   31.0070   48.1840 C   0  0  0  0  0  0  0  0  0  0  0  0
   45.2410   32.0280   48.3080 N   0  0  0  0  0  0  0  0  0  0  0  0
   44.8590   33.0080   43.2920 C   0  0  0  0  0  0  0  0  0  0  0  0
   44.9020   31.5300   43.0060 C   0  0  0  0  0  0  0  0  0  0  0  0
   46.9845   34.6184   45.4069 H   0  0  0  0  0  0  0  0  0  0  0  0
   44.3292   34.9502   46.4414 H   0  0  0  0  0  0  0  0  0  0  0  0
   43.6347   36.4566   44.4736 H   0  0  0  0  0  0  0  0  0  0  0  0
   44.5609   35.3603   42.3210 H   0  0  0  0  0  0  0  0  0  0  0  0
   45.6113   36.7526   42.9385 H   0  0  0  0  0  0  0  0  0  0  0  0
   46.7142   34.6400   42.0409 H   0  0  0  0  0  0  0  0  0  0  0  0
   47.2889   35.3997   43.5516 H   0  0  0  0  0  0  0  0  0  0  0  0
   46.8472   32.7591   43.7611 H   0  0  0  0  0  0  0  0  0  0  0  0
   44.5021   33.8400   47.5237 H   0  0  0  0  0  0  0  0  0  0  0  0
   47.6582   31.8289   45.3387 H   0  0  0  0  0  0  0  0  0  0  0  0
   46.1019   30.2065   48.9384 H   0  0  0  0  0  0  0  0  0  0  0  0
   44.0534   33.1916   44.0182 H   0  0  0  0  0  0  0  0  0  0  0  0
   44.6959   33.5036   42.3236 H   0  0  0  0  0  0  0  0  0  0  0  0
   44.9182   30.9733   43.9546 H   0  0  0  0  0  0  0  0  0  0  0  0
   44.0118   31.2425   42.4273 H   0  0  0  0  0  0  0  0  0  0  0  0
   45.8074   31.2947   42.4273 H   0  0  0  0  0  0  0  0  0  0  0  0
  1  2  1  0
  1  8  1  0
  3  2  2  0
  4  3  1  0
  5  4  1  0
  5  6  1  0
  6  1  1  0
  7 12  2  0
  8  7  1  0
  9  8  2  0
  9 10  1  0
 10 11  2  0
 11 12  1  0
 13  6  1  0
 14 13  1  0
  1 15  1  1
  2 16  1  0
  3 17  1  0
  4 18  1  0
  4 19  1  0
  5 20  1  0
  5 21  1  0
  6 22  1  1
  7 23  1  0
  9 24  1  0
 11 25  1  0
 13 26  1  0
 13 27  1  0
 14 28  1  0
 14 29  1  0
 14 30  1  0
M  ISO  8  15  13  16  13  17  13  18  13  19  13  20  13  21  13  22  13
M  ISO  8  23  14  24  14  25  14  26   8  27   8  28   8  29   8  30   8
M  END
>  <minimizedAffinity>  (1) 
-4.25928545

>  <minimizedRMSD>  (1) 
0.719892859

$$$$
