
     RDKit          3D

 32 34  0  0  1  0  0  0  0  0999 V2000
   48.9830   33.6780   42.8810 C   0  0  2  0  0  0  0  0  0  0  0  0
   47.5770   33.8740   42.6630 C   0  0  2  0  0  0  0  0  0  0  0  0
   47.4720   35.2220   41.9180 C   0  0  0  0  0  0  0  0  0  0  0  0
   48.8220   35.6140   41.4320 C   0  0  0  0  0  0  0  0  0  0  0  0
   49.6770   35.0360   42.4990 C   0  0  0  0  0  0  0  0  0  0  0  0
   49.6880   32.6840   42.0670 C   0  0  0  0  0  0  0  0  0  0  0  0
   48.8980   31.6640   41.4840 C   0  0  0  0  0  0  0  0  0  0  0  0
   49.5310   30.7290   40.6700 C   0  0  0  0  0  0  0  0  0  0  0  0
   50.8930   30.8670   40.4930 N   0  0  0  0  0  0  0  0  0  0  0  0
   51.6120   31.8360   41.0560 C   0  0  0  0  0  0  0  0  0  0  0  0
   50.9920   32.7160   41.8250 N   0  0  0  0  0  0  0  0  0  0  0  0
   46.7150   33.9440   43.8800 C   0  0  0  0  0  0  0  0  0  0  0  0
   45.8400   34.7490   44.0390 O   0  0  0  0  0  0  0  0  0  0  0  0
   46.8660   33.0130   44.9900 C   0  0  0  0  0  0  0  0  0  0  0  0
   47.0190   31.6440   45.0220 C   0  0  0  0  0  0  0  0  0  0  0  0
   47.1080   31.1820   46.2810 N   0  0  0  0  0  0  0  0  0  0  0  0
   47.0160   32.2360   47.0790 C   0  0  0  0  0  0  0  0  0  0  0  0
   46.8690   33.3430   46.2940 N   0  0  0  0  0  0  0  0  0  0  0  0
   49.0448   33.3255   43.9212 H   0  0  0  0  0  0  0  0  0  0  0  0
   47.2025   32.9942   42.1192 H   0  0  0  0  0  0  0  0  0  0  0  0
   46.7881   35.1182   41.0627 H   0  0  0  0  0  0  0  0  0  0  0  0
   47.0841   35.9936   42.5993 H   0  0  0  0  0  0  0  0  0  0  0  0
   49.0439   35.1706   40.4501 H   0  0  0  0  0  0  0  0  0  0  0  0
   48.9550   36.6947   41.2756 H   0  0  0  0  0  0  0  0  0  0  0  0
   50.6960   34.8582   42.1248 H   0  0  0  0  0  0  0  0  0  0  0  0
   49.7734   35.7096   43.3632 H   0  0  0  0  0  0  0  0  0  0  0  0
   47.8149   31.6119   41.6690 H   0  0  0  0  0  0  0  0  0  0  0  0
   48.9698   29.9148   40.1883 H   0  0  0  0  0  0  0  0  0  0  0  0
   52.6966   31.9033   40.8856 H   0  0  0  0  0  0  0  0  0  0  0  0
   47.0629   31.0069   44.1264 H   0  0  0  0  0  0  0  0  0  0  0  0
   47.0517   32.2214   48.1783 H   0  0  0  0  0  0  0  0  0  0  0  0
   46.7731   34.3038   46.6527 H   0  0  0  0  0  0  0  0  0  0  0  0
  2  1  1  0
  2 12  1  0
  3  2  1  0
  4  3  1  0
  4  5  1  0
  5  1  1  0
  6  1  1  0
  7  6  2  0
  8  7  1  0
  9  8  2  0
  9 10  1  0
 10 11  2  0
 11  6  1  0
 12 13  2  0
 12 14  1  0
 14 15  2  0
 14 18  1  0
 15 16  1  0
 16 17  2  0
 18 17  1  0
  1 19  1  1
  2 20  1  6
  3 21  1  0
  3 22  1  0
  4 23  1  0
  4 24  1  0
  5 25  1  0
  5 26  1  0
  7 27  1  0
  8 28  1  0
 10 29  1  0
 15 30  1  0
 17 31  1  0
 18 32  1  0
M  ISO  8  19  13  20  13  21  13  22  13  23  13  24  13  25  13  26  13
M  ISO  6  27  14  28  14  29  14  30  14  31  14  32   9
M  END
>  <minimizedAffinity>  (1) 
-5.22277069

>  <minimizedRMSD>  (1) 
0.87622422

$$$$
