
     RDKit          3D

 38 40  0  0  1  0  0  0  0  0999 V2000
   47.9770   32.9900   42.0740 C   0  0  2  0  0  0  0  0  0  0  0  0
   49.4640   32.8970   42.3180 C   0  0  0  0  0  0  0  0  0  0  0  0
   50.2680   34.0790   42.3460 C   0  0  0  0  0  0  0  0  0  0  0  0
   49.6460   35.3610   42.1550 C   0  0  0  0  0  0  0  0  0  0  0  0
   48.1900   35.4350   42.0300 C   0  0  0  0  0  0  0  0  0  0  0  0
   47.4520   34.2730   42.4890 C   0  0  1  0  0  0  0  0  0  0  0  0
   46.4180   31.0920   41.9170 C   0  0  0  0  0  0  0  0  0  0  0  0
   47.3090   31.8200   42.7000 C   0  0  0  0  0  0  0  0  0  0  0  0
   47.5010   31.4160   44.0370 C   0  0  0  0  0  0  0  0  0  0  0  0
   46.8250   30.3540   44.5080 N   0  0  0  0  0  0  0  0  0  0  0  0
   45.9660   29.6660   43.7300 C   0  0  0  0  0  0  0  0  0  0  0  0
   45.7660   30.0290   42.4530 N   0  0  0  0  0  0  0  0  0  0  0  0
   46.0830   34.5320   42.0420 N   0  0  0  0  0  0  0  0  0  0  0  0
   45.5360   34.2960   40.8190 N   0  0  0  0  0  0  0  0  0  0  0  0
   44.2540   34.6280   40.9210 C   0  0  0  0  0  0  0  0  0  0  0  0
   44.0130   35.0700   42.2100 C   0  0  0  0  0  0  0  0  0  0  0  0
   45.2080   35.0100   42.9320 C   0  0  0  0  0  0  0  0  0  0  0  0
   45.1410   35.5530   44.2440 N   0  0  0  0  0  0  0  0  0  0  0  0
   44.9030   34.8640   45.4670 C   0  0  0  0  0  0  0  0  0  0  0  0
   45.3440   33.6280   45.4680 N   0  0  0  0  0  0  0  0  0  0  0  0
   44.2420   35.4780   46.5960 N   0  0  0  0  0  0  0  0  0  0  0  0
   45.2470   32.9970   46.2830 H   0  0  0  0  0  0  0  0  0  0  0  0
   47.7632   32.9436   40.9960 H   0  0  0  0  0  0  0  0  0  0  0  0
   49.9317   31.9139   42.4752 H   0  0  0  0  0  0  0  0  0  0  0  0
   51.3531   34.0081   42.5122 H   0  0  0  0  0  0  0  0  0  0  0  0
   49.9272   35.9863   43.0152 H   0  0  0  0  0  0  0  0  0  0  0  0
   50.0107   35.6851   41.1691 H   0  0  0  0  0  0  0  0  0  0  0  0
   47.8461   36.3032   42.6113 H   0  0  0  0  0  0  0  0  0  0  0  0
   47.9884   35.5070   40.9510 H   0  0  0  0  0  0  0  0  0  0  0  0
   47.5291   34.1635   43.5808 H   0  0  0  0  0  0  0  0  0  0  0  0
   46.2430   31.3767   40.8690 H   0  0  0  0  0  0  0  0  0  0  0  0
   48.1973   31.9646   44.6884 H   0  0  0  0  0  0  0  0  0  0  0  0
   45.4255   28.8019   44.1438 H   0  0  0  0  0  0  0  0  0  0  0  0
   43.5081   34.5625   40.1151 H   0  0  0  0  0  0  0  0  0  0  0  0
   43.0431   35.4114   42.6009 H   0  0  0  0  0  0  0  0  0  0  0  0
   45.2820   36.5705   44.3192 H   0  0  0  0  0  0  0  0  0  0  0  0
   44.0921   34.9388   47.4607 H   0  0  0  0  0  0  0  0  0  0  0  0
   43.9208   36.4548   46.5360 H   0  0  0  0  0  0  0  0  0  0  0  0
  1  2  1  0
  1  6  1  0
  1  8  1  0
  2  3  2  0
  4  3  1  0
  5  4  1  0
  5  6  1  0
  7 12  2  0
  7  8  1  0
  8  9  2  0
  9 10  1  0
 11 10  2  0
 12 11  1  0
 13  6  1  0
 13 17  1  0
 14 15  2  0
 14 13  1  0
 15 16  1  0
 16 17  2  0
 17 18  1  0
 18 19  1  0
 19 20  2  0
 19 21  1  0
 20 22  1  0
  1 23  1  6
  2 24  1  0
  3 25  1  0
  4 26  1  0
  4 27  1  0
  5 28  1  0
  5 29  1  0
  6 30  1  1
  7 31  1  0
  9 32  1  0
 11 33  1  0
 15 34  1  0
 16 35  1  0
 18 36  1  0
 21 37  1  0
 21 38  1  0
M  ISO  8  23  13  24  13  25  13  26  13  27  13  28  13  29  13  30  13
M  ISO  5  31  14  32  14  33  14  34  14  35  14
M  END
>  <minimizedAffinity>  (1) 
-5.74553871

>  <minimizedRMSD>  (1) 
4.59118223

$$$$
