
     RDKit          3D

 38 41  0  0  1  0  0  0  0  0999 V2000
   46.0350   33.6220   44.5700 C   0  0  2  0  0  0  0  0  0  0  0  0
   45.3070   34.7120   45.3100 C   0  0  0  0  0  0  0  0  0  0  0  0
   44.4700   35.6370   44.5980 C   0  0  0  0  0  0  0  0  0  0  0  0
   44.3140   35.4950   43.1780 C   0  0  0  0  0  0  0  0  0  0  0  0
   45.0100   34.4360   42.4820 C   0  0  0  0  0  0  0  0  0  0  0  0
   45.4090   33.3170   43.3120 C   0  0  1  0  0  0  0  0  0  0  0  0
   46.9050   32.6750   46.6620 C   0  0  0  0  0  0  0  0  0  0  0  0
   46.2170   32.4510   45.4690 C   0  0  0  0  0  0  0  0  0  0  0  0
   45.7670   31.1480   45.1900 C   0  0  0  0  0  0  0  0  0  0  0  0
   46.0120   30.1630   46.0730 N   0  0  0  0  0  0  0  0  0  0  0  0
   46.6780   30.3950   47.2190 C   0  0  0  0  0  0  0  0  0  0  0  0
   47.1160   31.6300   47.5070 N   0  0  0  0  0  0  0  0  0  0  0  0
   46.1990   32.4630   42.4240 N   0  0  0  0  0  0  0  0  0  0  0  0
   45.8480   31.2310   41.9400 N   0  0  0  0  0  0  0  0  0  0  0  0
   46.8040   30.8960   41.0980 C   0  0  0  0  0  0  0  0  0  0  0  0
   47.7360   31.9230   41.0690 C   0  0  0  0  0  0  0  0  0  0  0  0
   47.3360   32.9430   41.9500 C   0  0  0  0  0  0  0  0  0  0  0  0
   48.3190   34.0020   42.0480 C   0  0  0  0  0  0  0  0  0  0  0  0
   48.4610   35.2480   41.4700 C   0  0  0  0  0  0  0  0  0  0  0  0
   49.4850   36.0130   41.9370 C   0  0  0  0  0  0  0  0  0  0  0  0
   50.0020   35.1940   42.8510 N   0  0  0  0  0  0  0  0  0  0  0  0
   49.3450   34.0800   42.9040 N   0  0  0  0  0  0  0  0  0  0  0  0
   47.0407   33.9694   44.2909 H   0  0  0  0  0  0  0  0  0  0  0  0
   45.4165   34.8006   46.4009 H   0  0  0  0  0  0  0  0  0  0  0  0
   43.9537   36.4461   45.1354 H   0  0  0  0  0  0  0  0  0  0  0  0
   43.2403   35.3491   42.9883 H   0  0  0  0  0  0  0  0  0  0  0  0
   44.7750   36.4100   42.7776 H   0  0  0  0  0  0  0  0  0  0  0  0
   44.3478   34.0549   41.6906 H   0  0  0  0  0  0  0  0  0  0  0  0
   45.9397   34.8802   42.0969 H   0  0  0  0  0  0  0  0  0  0  0  0
   44.5160   32.8056   43.7006 H   0  0  0  0  0  0  0  0  0  0  0  0
   47.2711   33.6809   46.9153 H   0  0  0  0  0  0  0  0  0  0  0  0
   45.2203   30.9364   44.2592 H   0  0  0  0  0  0  0  0  0  0  0  0
   46.8639   29.5695   47.9219 H   0  0  0  0  0  0  0  0  0  0  0  0
   46.8546   29.9628   40.5179 H   0  0  0  0  0  0  0  0  0  0  0  0
   48.6468   31.9371   40.4523 H   0  0  0  0  0  0  0  0  0  0  0  0
   47.7852   35.6019   40.6775 H   0  0  0  0  0  0  0  0  0  0  0  0
   49.7982   37.0253   41.6419 H   0  0  0  0  0  0  0  0  0  0  0  0
   50.8178   35.4177   43.4387 H   0  0  0  0  0  0  0  0  0  0  0  0
  1  2  1  0
  1  8  1  0
  3  2  2  0
  4  3  1  0
  5  4  1  0
  5  6  1  0
  6  1  1  0
  7 12  2  0
  8  7  1  0
  9  8  2  0
  9 10  1  0
 10 11  2  0
 11 12  1  0
 13  6  1  0
 14 13  1  0
 15 14  2  0
 16 15  1  0
 16 17  2  0
 17 18  1  0
 17 13  1  0
 18 22  2  0
 19 20  2  0
 19 18  1  0
 20 21  1  0
 21 22  1  0
  1 23  1  6
  2 24  1  0
  3 25  1  0
  4 26  1  0
  4 27  1  0
  5 28  1  0
  5 29  1  0
  6 30  1  1
  7 31  1  0
  9 32  1  0
 11 33  1  0
 15 34  1  0
 16 35  1  0
 19 36  1  0
 20 37  1  0
 21 38  1  0
M  ISO  8  23  13  24  13  25  13  26  13  27  13  28  13  29  13  30  13
M  ISO  8  31  14  32  14  33  14  34  14  35  14  36  14  37  14  38   9
M  END
>  <minimizedAffinity>  (1) 
-5.69130421

>  <minimizedRMSD>  (1) 
1.88337708

$$$$
