
     RDKit          3D

 38 41  0  0  1  0  0  0  0  0999 V2000
   45.7130   34.1240   44.8660 C   0  0  2  0  0  0  0  0  0  0  0  0
   44.8610   35.3280   45.1620 C   0  0  0  0  0  0  0  0  0  0  0  0
   44.0270   35.8970   44.1350 C   0  0  0  0  0  0  0  0  0  0  0  0
   43.9980   35.2860   42.8340 C   0  0  0  0  0  0  0  0  0  0  0  0
   44.8020   34.1050   42.5800 C   0  0  0  0  0  0  0  0  0  0  0  0
   45.1950   33.3590   43.7590 C   0  0  1  0  0  0  0  0  0  0  0  0
   47.0770   32.5750   46.1940 C   0  0  0  0  0  0  0  0  0  0  0  0
   45.9070   33.3420   46.1180 C   0  0  0  0  0  0  0  0  0  0  0  0
   45.0040   33.3090   47.1920 C   0  0  0  0  0  0  0  0  0  0  0  0
   45.2910   32.5420   48.2610 N   0  0  0  0  0  0  0  0  0  0  0  0
   46.4170   31.8080   48.3240 C   0  0  0  0  0  0  0  0  0  0  0  0
   47.2950   31.8250   47.3070 N   0  0  0  0  0  0  0  0  0  0  0  0
   46.0980   32.3260   43.2520 N   0  0  0  0  0  0  0  0  0  0  0  0
   45.8780   30.9770   43.2330 N   0  0  0  0  0  0  0  0  0  0  0  0
   46.9060   30.4540   42.5910 C   0  0  0  0  0  0  0  0  0  0  0  0
   47.7510   31.4900   42.2230 C   0  0  0  0  0  0  0  0  0  0  0  0
   47.2220   32.7180   42.6640 C   0  0  0  0  0  0  0  0  0  0  0  0
   48.1190   33.8330   42.3570 C   0  0  0  0  0  0  0  0  0  0  0  0
   48.0140   34.8890   41.4720 C   0  0  0  0  0  0  0  0  0  0  0  0
   49.0770   35.7440   41.4860 C   0  0  0  0  0  0  0  0  0  0  0  0
   49.8210   35.1130   42.4470 C   0  0  0  0  0  0  0  0  0  0  0  0
   49.2750   34.0450   42.9280 O   0  0  0  0  0  0  0  0  0  0  0  0
   46.7096   34.4441   44.5278 H   0  0  0  0  0  0  0  0  0  0  0  0
   44.8751   35.7755   46.1668 H   0  0  0  0  0  0  0  0  0  0  0  0
   43.4188   36.7894   44.3438 H   0  0  0  0  0  0  0  0  0  0  0  0
   42.9522   35.0100   42.6336 H   0  0  0  0  0  0  0  0  0  0  0  0
   44.4469   36.0488   42.1809 H   0  0  0  0  0  0  0  0  0  0  0  0
   44.2229   33.4329   41.9297 H   0  0  0  0  0  0  0  0  0  0  0  0
   45.7352   34.4646   42.1220 H   0  0  0  0  0  0  0  0  0  0  0  0
   44.3086   32.9331   44.2518 H   0  0  0  0  0  0  0  0  0  0  0  0
   47.8050   32.5795   45.3694 H   0  0  0  0  0  0  0  0  0  0  0  0
   44.0768   33.9001   47.1610 H   0  0  0  0  0  0  0  0  0  0  0  0
   46.6196   31.1913   49.2120 H   0  0  0  0  0  0  0  0  0  0  0  0
   47.0643   29.3852   42.3844 H   0  0  0  0  0  0  0  0  0  0  0  0
   48.6939   31.3703   41.6692 H   0  0  0  0  0  0  0  0  0  0  0  0
   47.1457   35.0286   40.8113 H   0  0  0  0  0  0  0  0  0  0  0  0
   49.2750   36.6571   40.9054 H   0  0  0  0  0  0  0  0  0  0  0  0
   50.8010   35.4840   42.7814 H   0  0  0  0  0  0  0  0  0  0  0  0
  1  2  1  0
  1  8  1  0
  3  2  2  0
  4  3  1  0
  5  4  1  0
  5  6  1  0
  6  1  1  0
  7 12  2  0
  8  7  1  0
  8  9  2  0
  9 10  1  0
 10 11  2  0
 12 11  1  0
 13  6  1  0
 14 13  1  0
 15 14  2  0
 16 15  1  0
 16 17  2  0
 17 13  1  0
 18 17  1  0
 18 22  1  0
 19 20  1  0
 19 18  2  0
 20 21  2  0
 21 22  1  0
  1 23  1  6
  2 24  1  0
  3 25  1  0
  4 26  1  0
  4 27  1  0
  5 28  1  0
  5 29  1  0
  6 30  1  1
  7 31  1  0
  9 32  1  0
 11 33  1  0
 15 34  1  0
 16 35  1  0
 19 36  1  0
 20 37  1  0
 21 38  1  0
M  ISO  8  23  13  24  13  25  13  26  13  27  13  28  13  29  13  30  13
M  ISO  8  31  14  32  14  33  14  34  14  35  14  36  14  37  14  38  14
M  END
>  <minimizedAffinity>  (1) 
-5.54503775

>  <minimizedRMSD>  (1) 
2.25463009

$$$$
