
     RDKit          3D

 34 36  0  0  1  0  0  0  0  0999 V2000
   46.0520   34.0210   43.9170 C   0  0  2  0  0  0  0  0  0  0  0  0
   44.9630   34.8970   44.4540 C   0  0  0  0  0  0  0  0  0  0  0  0
   44.2250   35.7400   43.5390 C   0  0  0  0  0  0  0  0  0  0  0  0
   44.4880   35.6870   42.1420 C   0  0  0  0  0  0  0  0  0  0  0  0
   45.4350   34.6910   41.6160 C   0  0  0  0  0  0  0  0  0  0  0  0
   45.8890   33.6860   42.5420 C   0  0  1  0  0  0  0  0  0  0  0  0
   46.9270   33.0930   46.0240 C   0  0  0  0  0  0  0  0  0  0  0  0
   46.2610   32.8880   44.8260 C   0  0  0  0  0  0  0  0  0  0  0  0
   45.8460   31.5810   44.5480 C   0  0  0  0  0  0  0  0  0  0  0  0
   46.0930   30.5850   45.4130 N   0  0  0  0  0  0  0  0  0  0  0  0
   46.7450   30.8180   46.5680 C   0  0  0  0  0  0  0  0  0  0  0  0
   47.1550   32.0600   46.8670 N   0  0  0  0  0  0  0  0  0  0  0  0
   47.0180   33.0700   41.8860 N   0  0  0  0  0  0  0  0  0  0  0  0
   47.1730   31.7850   41.5040 N   0  0  0  0  0  0  0  0  0  0  0  0
   48.3450   31.7530   40.8680 C   0  0  0  0  0  0  0  0  0  0  0  0
   48.8970   33.0200   40.8680 C   0  0  0  0  0  0  0  0  0  0  0  0
   48.0290   33.8610   41.5350 C   0  0  0  0  0  0  0  0  0  0  0  0
   48.5700   35.2260   41.6340 C   0  0  0  0  0  0  0  0  0  0  0  0
   47.9720   36.1950   42.3000 F   0  0  0  0  0  0  0  0  0  0  0  0
   49.8970   35.2400   42.1650 F   0  0  0  0  0  0  0  0  0  0  0  0
   48.8080   35.8020   40.3930 F   0  0  0  0  0  0  0  0  0  0  0  0
   46.9936   34.5894   43.8997 H   0  0  0  0  0  0  0  0  0  0  0  0
   44.7276   34.8995   45.5285 H   0  0  0  0  0  0  0  0  0  0  0  0
   43.4565   36.4256   43.9255 H   0  0  0  0  0  0  0  0  0  0  0  0
   43.5247   35.5062   41.6426 H   0  0  0  0  0  0  0  0  0  0  0  0
   44.9858   36.6465   41.9383 H   0  0  0  0  0  0  0  0  0  0  0  0
   44.9461   34.1755   40.7762 H   0  0  0  0  0  0  0  0  0  0  0  0
   46.3344   35.2610   41.3401 H   0  0  0  0  0  0  0  0  0  0  0  0
   45.0716   32.9737   42.7280 H   0  0  0  0  0  0  0  0  0  0  0  0
   47.2725   34.1026   46.2911 H   0  0  0  0  0  0  0  0  0  0  0  0
   45.3116   31.3675   43.6105 H   0  0  0  0  0  0  0  0  0  0  0  0
   46.9413   29.9906   47.2658 H   0  0  0  0  0  0  0  0  0  0  0  0
   48.8001   30.8597   40.4152 H   0  0  0  0  0  0  0  0  0  0  0  0
   49.8580   33.3074   40.4164 H   0  0  0  0  0  0  0  0  0  0  0  0
  1  2  1  0
  1  8  1  0
  3  2  2  0
  4  3  1  0
  5  4  1  0
  5  6  1  0
  6  1  1  0
  7 12  2  0
  8  7  1  0
  9  8  2  0
  9 10  1  0
 10 11  2  0
 11 12  1  0
 13  6  1  0
 14 13  1  0
 15 16  1  0
 15 14  2  0
 16 17  2  0
 17 18  1  0
 17 13  1  0
 18 20  1  0
 18 19  1  0
 21 18  1  0
  1 22  1  6
  2 23  1  0
  3 24  1  0
  4 25  1  0
  4 26  1  0
  5 27  1  0
  5 28  1  0
  6 29  1  1
  7 30  1  0
  9 31  1  0
 11 32  1  0
 15 33  1  0
 16 34  1  0
M  ISO  8  22  13  23  13  24  13  25  13  26  13  27  13  28  13  29  13
M  ISO  5  30  14  31  14  32  14  33  14  34  14
M  END
>  <minimizedAffinity>  (1) 
-5.2910223

>  <minimizedRMSD>  (1) 
1.39388633

$$$$
