
     RDKit          3D

 44 47  0  0  1  0  0  0  0  0999 V2000
   46.3040   33.3790   45.7940 C   0  0  2  0  0  0  0  0  0  0  0  0
   45.2630   34.4580   46.0180 C   0  0  0  0  0  0  0  0  0  0  0  0
   44.5610   35.0400   44.8820 C   0  0  0  0  0  0  0  0  0  0  0  0
   44.8510   34.5690   43.5480 C   0  0  0  0  0  0  0  0  0  0  0  0
   46.1310   33.8500   43.4460 C   0  0  0  0  0  0  0  0  0  0  0  0
   46.1610   32.7710   44.4760 C   0  0  1  0  0  0  0  0  0  0  0  0
   47.4460   32.5010   47.7770 C   0  0  0  0  0  0  0  0  0  0  0  0
   46.3270   32.4500   46.9330 C   0  0  0  0  0  0  0  0  0  0  0  0
   45.2990   31.5140   47.1910 C   0  0  0  0  0  0  0  0  0  0  0  0
   45.4360   30.6960   48.2540 N   0  0  0  0  0  0  0  0  0  0  0  0
   46.5310   30.7570   49.0680 C   0  0  0  0  0  0  0  0  0  0  0  0
   47.5220   31.6500   48.8280 N   0  0  0  0  0  0  0  0  0  0  0  0
   47.2840   31.9460   44.0600 N   0  0  0  0  0  0  0  0  0  0  0  0
   47.6790   30.7430   44.5290 N   0  0  0  0  0  0  0  0  0  0  0  0
   48.7470   30.3650   43.8470 C   0  0  0  0  0  0  0  0  0  0  0  0
   49.0160   31.3620   42.9330 C   0  0  0  0  0  0  0  0  0  0  0  0
   48.0670   32.3820   43.0750 C   0  0  0  0  0  0  0  0  0  0  0  0
   48.3900   33.3700   42.1130 N   0  0  0  0  0  0  0  0  0  0  0  0
   48.2270   33.2840   40.6600 C   0  0  0  0  0  0  0  0  0  0  0  0
   47.8750   34.6700   40.1900 C   0  0  0  0  0  0  0  0  0  0  0  0
   49.0110   35.4500   40.4550 O   0  0  0  0  0  0  0  0  0  0  0  0
   49.1330   35.7230   41.8040 C   0  0  0  0  0  0  0  0  0  0  0  0
   48.9960   34.5590   42.7030 C   0  0  0  0  0  0  0  0  0  0  0  0
   47.3112   33.8204   45.7692 H   0  0  0  0  0  0  0  0  0  0  0  0
   45.0377   34.8015   47.0384 H   0  0  0  0  0  0  0  0  0  0  0  0
   43.8150   35.8329   45.0392 H   0  0  0  0  0  0  0  0  0  0  0  0
   44.0441   33.8900   43.2351 H   0  0  0  0  0  0  0  0  0  0  0  0
   44.9244   35.4550   42.9002 H   0  0  0  0  0  0  0  0  0  0  0  0
   46.2271   33.4069   42.4438 H   0  0  0  0  0  0  0  0  0  0  0  0
   46.9652   34.5476   43.6117 H   0  0  0  0  0  0  0  0  0  0  0  0
   45.2510   32.1579   44.5539 H   0  0  0  0  0  0  0  0  0  0  0  0
   48.2530   33.2241   47.5875 H   0  0  0  0  0  0  0  0  0  0  0  0
   44.4124   31.4549   46.5426 H   0  0  0  0  0  0  0  0  0  0  0  0
   46.6095   30.0745   49.9271 H   0  0  0  0  0  0  0  0  0  0  0  0
   49.3136   29.4320   43.9830 H   0  0  0  0  0  0  0  0  0  0  0  0
   49.8436   31.3569   42.2084 H   0  0  0  0  0  0  0  0  0  0  0  0
   49.1641   32.9496   40.1910 H   0  0  0  0  0  0  0  0  0  0  0  0
   47.4450   32.5597   40.3882 H   0  0  0  0  0  0  0  0  0  0  0  0
   47.0055   35.0552   40.7428 H   0  0  0  0  0  0  0  0  0  0  0  0
   47.6062   34.6857   39.1235 H   0  0  0  0  0  0  0  0  0  0  0  0
   50.1258   36.1658   41.9718 H   0  0  0  0  0  0  0  0  0  0  0  0
   48.2995   36.3965   42.0525 H   0  0  0  0  0  0  0  0  0  0  0  0
   48.3763   34.8645   43.5590 H   0  0  0  0  0  0  0  0  0  0  0  0
   50.0216   34.2686   42.9748 H   0  0  0  0  0  0  0  0  0  0  0  0
  1  2  1  0
  1  8  1  0
  3  2  2  0
  4  3  1  0
  5  4  1  0
  5  6  1  0
  6  1  1  0
  7 12  2  0
  8  9  2  0
  8  7  1  0
  9 10  1  0
 10 11  2  0
 12 11  1  0
 13  6  1  0
 13 14  1  0
 15 14  2  0
 16 17  2  0
 16 15  1  0
 17 13  1  0
 18 23  1  0
 18 17  1  0
 19 18  1  0
 20 21  1  0
 20 19  1  0
 21 22  1  0
 22 23  1  0
  1 24  1  6
  2 25  1  0
  3 26  1  0
  4 27  1  0
  4 28  1  0
  5 29  1  0
  5 30  1  0
  6 31  1  1
  7 32  1  0
  9 33  1  0
 11 34  1  0
 15 35  1  0
 16 36  1  0
 19 37  1  0
 19 38  1  0
 20 39  1  0
 20 40  1  0
 22 41  1  0
 22 42  1  0
 23 43  1  0
 23 44  1  0
M  ISO  8  24  13  25  13  26  13  27  13  28  13  29  13  30  13  31  13
M  ISO  8  32  14  33  14  34  14  35  14  36  14  37  13  38  13  39  13
M  ISO  5  40  13  41  13  42  13  43  13  44  13
M  END
>  <minimizedAffinity>  (1) 
-5.12801027

>  <minimizedRMSD>  (1) 
2.4814074

$$$$
