
     RDKit          3D

 37 39  0  0  1  0  0  0  0  0999 V2000
   46.2500   33.8970   44.4370 C   0  0  2  0  0  0  0  0  0  0  0  0
   45.1670   34.7910   44.9610 C   0  0  0  0  0  0  0  0  0  0  0  0
   44.4760   35.6990   44.0610 C   0  0  0  0  0  0  0  0  0  0  0  0
   44.8100   35.6950   42.6660 C   0  0  0  0  0  0  0  0  0  0  0  0
   45.8390   34.7890   42.1750 C   0  0  0  0  0  0  0  0  0  0  0  0
   46.1480   33.6750   43.0310 C   0  0  1  0  0  0  0  0  0  0  0  0
   46.9040   32.7540   46.5150 C   0  0  0  0  0  0  0  0  0  0  0  0
   46.3080   32.6700   45.2670 C   0  0  0  0  0  0  0  0  0  0  0  0
   45.8160   31.4160   44.8650 C   0  0  0  0  0  0  0  0  0  0  0  0
   45.9350   30.3540   45.6820 N   0  0  0  0  0  0  0  0  0  0  0  0
   46.5210   30.4650   46.8890 C   0  0  0  0  0  0  0  0  0  0  0  0
   46.9980   31.6500   47.2980 N   0  0  0  0  0  0  0  0  0  0  0  0
   47.2690   33.0120   42.3940 N   0  0  0  0  0  0  0  0  0  0  0  0
   47.3090   31.7830   41.8170 N   0  0  0  0  0  0  0  0  0  0  0  0
   48.5120   31.6550   41.3060 C   0  0  0  0  0  0  0  0  0  0  0  0
   49.2190   32.8160   41.5720 C   0  0  0  0  0  0  0  0  0  0  0  0
   48.4110   33.7150   42.2930 C   0  0  0  0  0  0  0  0  0  0  0  0
   49.1140   34.9090   42.7160 C   0  0  0  0  0  0  0  0  0  0  0  0
   49.1550   35.9750   41.5630 C   0  0  0  0  0  0  0  0  0  0  0  0
   47.2251   34.3966   44.5349 H   0  0  0  0  0  0  0  0  0  0  0  0
   44.8953   34.7598   46.0265 H   0  0  0  0  0  0  0  0  0  0  0  0
   43.7047   36.3824   44.4456 H   0  0  0  0  0  0  0  0  0  0  0  0
   43.8868   35.4573   42.1172 H   0  0  0  0  0  0  0  0  0  0  0  0
   45.2461   36.6917   42.5032 H   0  0  0  0  0  0  0  0  0  0  0  0
   45.5032   34.3887   41.2070 H   0  0  0  0  0  0  0  0  0  0  0  0
   46.7609   35.3861   42.1146 H   0  0  0  0  0  0  0  0  0  0  0  0
   45.2699   33.0160   43.0996 H   0  0  0  0  0  0  0  0  0  0  0  0
   47.3011   33.7161   46.8711 H   0  0  0  0  0  0  0  0  0  0  0  0
   45.3339   31.3032   43.8827 H   0  0  0  0  0  0  0  0  0  0  0  0
   46.6087   29.5830   47.5404 H   0  0  0  0  0  0  0  0  0  0  0  0
   48.8921   30.7781   40.7614 H   0  0  0  0  0  0  0  0  0  0  0  0
   50.2579   33.0071   41.2652 H   0  0  0  0  0  0  0  0  0  0  0  0
   48.5989   35.3405   43.5869 H   0  0  0  0  0  0  0  0  0  0  0  0
   50.1467   34.6343   42.9768 H   0  0  0  0  0  0  0  0  0  0  0  0
   49.1938   36.9845   41.9982 H   0  0  0  0  0  0  0  0  0  0  0  0
   50.0474   35.8090   40.9417 H   0  0  0  0  0  0  0  0  0  0  0  0
   48.2525   35.8780   40.9417 H   0  0  0  0  0  0  0  0  0  0  0  0
  1  2  1  0
  1  8  1  0
  3  2  2  0
  4  3  1  0
  5  4  1  0
  5  6  1  0
  6  1  1  0
  7 12  2  0
  8  7  1  0
  9  8  2  0
  9 10  1  0
 10 11  2  0
 11 12  1  0
 13  6  1  0
 14 13  1  0
 15 16  1  0
 15 14  2  0
 16 17  2  0
 17 13  1  0
 17 18  1  0
 19 18  1  0
  1 20  1  6
  2 21  1  0
  3 22  1  0
  4 23  1  0
  4 24  1  0
  5 25  1  0
  5 26  1  0
  6 27  1  1
  7 28  1  0
  9 29  1  0
 11 30  1  0
 15 31  1  0
 16 32  1  0
 18 33  1  0
 18 34  1  0
 19 35  1  0
 19 36  1  0
 19 37  1  0
M  ISO  8  20  13  21  13  22  13  23  13  24  13  25  13  26  13  27  13
M  ISO  8  28  14  29  14  30  14  31  14  32  14  33   8  34   8  35   8
M  ISO  2  36   8  37   8
M  END
>  <minimizedAffinity>  (1) 
-5.0115037

>  <minimizedRMSD>  (1) 
0.830588341

$$$$
