
     RDKit          3D

 42 46  0  0  1  0  0  0  0  0999 V2000
   45.7650   33.8730   45.0550 C   0  0  2  0  0  0  0  0  0  0  0  0
   45.0310   35.1850   45.2750 C   0  0  0  0  0  0  0  0  0  0  0  0
   44.1350   35.6880   44.2310 C   0  0  0  0  0  0  0  0  0  0  0  0
   43.9390   34.9240   43.0170 C   0  0  0  0  0  0  0  0  0  0  0  0
   45.0150   33.9400   42.7880 C   0  0  0  0  0  0  0  0  0  0  0  0
   45.1370   33.0800   44.0060 C   0  0  1  0  0  0  0  0  0  0  0  0
   47.1730   32.4980   46.5200 C   0  0  0  0  0  0  0  0  0  0  0  0
   45.9770   33.1980   46.3410 C   0  0  0  0  0  0  0  0  0  0  0  0
   45.0350   33.2080   47.3880 C   0  0  0  0  0  0  0  0  0  0  0  0
   45.3220   32.5410   48.5230 N   0  0  0  0  0  0  0  0  0  0  0  0
   46.4810   31.8710   48.6760 C   0  0  0  0  0  0  0  0  0  0  0  0
   47.3930   31.8510   47.6880 N   0  0  0  0  0  0  0  0  0  0  0  0
   45.9340   31.9670   43.5370 N   0  0  0  0  0  0  0  0  0  0  0  0
   45.7670   30.6400   43.7700 N   0  0  0  0  0  0  0  0  0  0  0  0
   46.7240   29.9870   43.1300 C   0  0  0  0  0  0  0  0  0  0  0  0
   47.5060   30.9220   42.4840 C   0  0  0  0  0  0  0  0  0  0  0  0
   46.9900   32.1900   42.7540 C   0  0  0  0  0  0  0  0  0  0  0  0
   47.7590   33.1810   42.1270 N   0  0  0  0  0  0  0  0  0  0  0  0
   48.6640   34.1270   42.5310 C   0  0  0  0  0  0  0  0  0  0  0  0
   49.0880   34.8380   41.4950 N   0  0  0  0  0  0  0  0  0  0  0  0
   48.4930   34.4030   40.3870 C   0  0  0  0  0  0  0  0  0  0  0  0
   48.6410   34.8590   39.0950 C   0  0  0  0  0  0  0  0  0  0  0  0
   47.8980   34.2210   38.1460 N   0  0  0  0  0  0  0  0  0  0  0  0
   47.0830   33.2070   38.5330 C   0  0  0  0  0  0  0  0  0  0  0  0
   46.9570   32.7820   39.7960 N   0  0  0  0  0  0  0  0  0  0  0  0
   47.6490   33.3550   40.7690 C   0  0  0  0  0  0  0  0  0  0  0  0
   46.7749   34.0574   44.6599 H   0  0  0  0  0  0  0  0  0  0  0  0
   45.1709   35.7508   46.2079 H   0  0  0  0  0  0  0  0  0  0  0  0
   43.6115   36.6455   44.3693 H   0  0  0  0  0  0  0  0  0  0  0  0
   42.9807   34.3886   43.0881 H   0  0  0  0  0  0  0  0  0  0  0  0
   43.9466   35.6297   42.1733 H   0  0  0  0  0  0  0  0  0  0  0  0
   44.7683   33.3162   41.9162 H   0  0  0  0  0  0  0  0  0  0  0  0
   45.9658   34.4584   42.5952 H   0  0  0  0  0  0  0  0  0  0  0  0
   44.1962   32.7143   44.4433 H   0  0  0  0  0  0  0  0  0  0  0  0
   47.9276   32.4731   45.7200 H   0  0  0  0  0  0  0  0  0  0  0  0
   44.0836   33.7497   47.2812 H   0  0  0  0  0  0  0  0  0  0  0  0
   46.6826   31.3365   49.6160 H   0  0  0  0  0  0  0  0  0  0  0  0
   46.8694   28.8967   43.1158 H   0  0  0  0  0  0  0  0  0  0  0  0
   48.3867   30.7048   41.8618 H   0  0  0  0  0  0  0  0  0  0  0  0
   48.9931   34.2760   43.5700 H   0  0  0  0  0  0  0  0  0  0  0  0
   49.3184   35.6886   38.8440 H   0  0  0  0  0  0  0  0  0  0  0  0
   46.4874   32.7017   37.7585 H   0  0  0  0  0  0  0  0  0  0  0  0
  1  2  1  0
  1  8  1  0
  3  2  2  0
  4  3  1  0
  5  4  1  0
  5  6  1  0
  6  1  1  0
  7 12  2  0
  8  7  1  0
  8  9  2  0
  9 10  1  0
 10 11  2  0
 12 11  1  0
 13 14  1  0
 13  6  1  0
 15 14  2  0
 16 17  2  0
 16 15  1  0
 17 13  1  0
 18 19  1  0
 18 17  1  0
 20 19  2  0
 21 26  2  0
 21 20  1  0
 22 21  1  0
 23 24  1  0
 23 22  2  0
 24 25  2  0
 25 26  1  0
 26 18  1  0
  1 27  1  6
  2 28  1  0
  3 29  1  0
  4 30  1  0
  4 31  1  0
  5 32  1  0
  5 33  1  0
  6 34  1  1
  7 35  1  0
  9 36  1  0
 11 37  1  0
 15 38  1  0
 16 39  1  0
 19 40  1  0
 22 41  1  0
 24 42  1  0
M  ISO  8  27  13  28  13  29  13  30  13  31  13  32  13  33  13  34  13
M  ISO  8  35  14  36  14  37  14  38  14  39  14  40  14  41  14  42  14
M  END
>  <minimizedAffinity>  (1) 
-4.79661322

>  <minimizedRMSD>  (1) 
3.17360806

$$$$
