
     RDKit          3D

 38 40  0  0  1  0  0  0  0  0999 V2000
   49.0770   33.7130   42.7120 C   0  0  2  0  0  0  0  0  0  0  0  0
   47.6820   33.9680   42.5020 C   0  0  2  0  0  0  0  0  0  0  0  0
   47.6050   35.3790   41.8920 C   0  0  0  0  0  0  0  0  0  0  0  0
   48.9720   35.7960   41.4650 C   0  0  0  0  0  0  0  0  0  0  0  0
   49.7960   35.0990   42.4820 C   0  0  0  0  0  0  0  0  0  0  0  0
   49.7760   32.8070   41.8000 C   0  0  0  0  0  0  0  0  0  0  0  0
   48.9870   32.1390   40.8330 C   0  0  0  0  0  0  0  0  0  0  0  0
   49.6260   31.3010   39.9230 C   0  0  0  0  0  0  0  0  0  0  0  0
   50.9960   31.1810   40.0350 N   0  0  0  0  0  0  0  0  0  0  0  0
   51.7150   31.8220   40.9560 C   0  0  0  0  0  0  0  0  0  0  0  0
   51.0890   32.6150   41.8120 N   0  0  0  0  0  0  0  0  0  0  0  0
   46.8190   33.9240   43.7300 C   0  0  0  0  0  0  0  0  0  0  0  0
   45.9980   34.8030   43.9300 O   0  0  0  0  0  0  0  0  0  0  0  0
   46.9280   32.8550   44.6930 N   0  0  0  0  0  0  0  0  0  0  0  0
   47.0210   32.6960   46.1520 C   0  0  0  0  0  0  0  0  0  0  0  0
   45.7680   31.9960   46.5860 C   0  0  0  0  0  0  0  0  0  0  0  0
   45.9030   30.6660   46.1520 O   0  0  0  0  0  0  0  0  0  0  0  0
   45.9370   30.5910   44.7810 C   0  0  0  0  0  0  0  0  0  0  0  0
   46.9420   31.4890   44.1180 C   0  0  0  0  0  0  0  0  0  0  0  0
   49.1202   33.2396   43.7040 H   0  0  0  0  0  0  0  0  0  0  0  0
   47.2884   33.1661   41.8601 H   0  0  0  0  0  0  0  0  0  0  0  0
   46.9332   35.3686   41.0210 H   0  0  0  0  0  0  0  0  0  0  0  0
   47.2155   36.0870   42.6384 H   0  0  0  0  0  0  0  0  0  0  0  0
   49.2033   35.4488   40.4472 H   0  0  0  0  0  0  0  0  0  0  0  0
   49.1258   36.8842   41.4172 H   0  0  0  0  0  0  0  0  0  0  0  0
   50.8202   34.9461   42.1109 H   0  0  0  0  0  0  0  0  0  0  0  0
   49.8810   35.6793   43.4126 H   0  0  0  0  0  0  0  0  0  0  0  0
   47.8963   32.2785   40.8013 H   0  0  0  0  0  0  0  0  0  0  0  0
   49.0634   30.7585   39.1489 H   0  0  0  0  0  0  0  0  0  0  0  0
   52.8066   31.6949   41.0041 H   0  0  0  0  0  0  0  0  0  0  0  0
   47.9029   32.0926   46.4128 H   0  0  0  0  0  0  0  0  0  0  0  0
   47.1253   33.6703   46.6519 H   0  0  0  0  0  0  0  0  0  0  0  0
   45.6678   32.0335   47.6808 H   0  0  0  0  0  0  0  0  0  0  0  0
   44.8710   32.4713   46.1623 H   0  0  0  0  0  0  0  0  0  0  0  0
   46.1715   29.5530   44.5023 H   0  0  0  0  0  0  0  0  0  0  0  0
   44.9494   30.9263   44.4315 H   0  0  0  0  0  0  0  0  0  0  0  0
   46.7085   31.5526   43.0449 H   0  0  0  0  0  0  0  0  0  0  0  0
   47.9418   31.0607   44.2820 H   0  0  0  0  0  0  0  0  0  0  0  0
  2  1  1  0
  2 12  1  0
  3  2  1  0
  4  3  1  0
  4  5  1  0
  5  1  1  0
  6 11  1  0
  6  1  1  0
  7  6  2  0
  8  9  2  0
  8  7  1  0
  9 10  1  0
 10 11  2  0
 12 13  2  0
 12 14  1  0
 14 15  1  0
 15 16  1  0
 17 16  1  0
 18 17  1  0
 19 14  1  0
 19 18  1  0
  1 20  1  1
  2 21  1  6
  3 22  1  0
  3 23  1  0
  4 24  1  0
  4 25  1  0
  5 26  1  0
  5 27  1  0
  7 28  1  0
  8 29  1  0
 10 30  1  0
 15 31  1  0
 15 32  1  0
 16 33  1  0
 16 34  1  0
 18 35  1  0
 18 36  1  0
 19 37  1  0
 19 38  1  0
M  ISO  8  20  13  21  13  22  13  23  13  24  13  25  13  26  13  27  13
M  ISO  8  28  14  29  14  30  14  31  13  32  13  33  13  34  13  35  13
M  ISO  3  36  13  37  13  38  13
M  END
>  <minimizedAffinity>  (1) 
-5.12835836

>  <minimizedRMSD>  (1) 
0.236341864

$$$$
