
     RDKit          3D

 32 34  0  0  1  0  0  0  0  0999 V2000
   46.2930   34.0450   44.6760 C   0  0  2  0  0  0  0  0  0  0  0  0
   45.0580   34.7350   45.1910 C   0  0  0  0  0  0  0  0  0  0  0  0
   44.4290   35.7750   44.3860 C   0  0  0  0  0  0  0  0  0  0  0  0
   44.9730   36.1170   43.0910 C   0  0  0  0  0  0  0  0  0  0  0  0
   46.2370   35.4860   42.7050 C   0  0  0  0  0  0  0  0  0  0  0  0
   46.4170   34.1350   43.2350 C   0  0  1  0  0  0  0  0  0  0  0  0
   46.9630   32.4930   46.4620 C   0  0  0  0  0  0  0  0  0  0  0  0
   46.3520   32.6730   45.2280 C   0  0  0  0  0  0  0  0  0  0  0  0
   45.8450   31.5360   44.5640 C   0  0  0  0  0  0  0  0  0  0  0  0
   45.9680   30.3280   45.1400 N   0  0  0  0  0  0  0  0  0  0  0  0
   46.5640   30.1760   46.3390 C   0  0  0  0  0  0  0  0  0  0  0  0
   47.0530   31.2450   46.9890 N   0  0  0  0  0  0  0  0  0  0  0  0
   47.7080   33.7220   42.7050 N   0  0  0  0  0  0  0  0  0  0  0  0
   48.9570   34.0270   43.0960 N   0  0  0  0  0  0  0  0  0  0  0  0
   49.7890   33.3610   42.2880 C   0  0  0  0  0  0  0  0  0  0  0  0
   49.0320   32.6300   41.3810 C   0  0  0  0  0  0  0  0  0  0  0  0
   47.7010   32.8720   41.6590 C   0  0  0  0  0  0  0  0  0  0  0  0
   46.6850   31.9790   40.4750 S   0  0  0  0  0  0  0  0  0  0  0  0
   47.1900   34.5698   45.0366 H   0  0  0  0  0  0  0  0  0  0  0  0
   44.6336   34.4566   46.1669 H   0  0  0  0  0  0  0  0  0  0  0  0
   43.5395   36.3001   44.7644 H   0  0  0  0  0  0  0  0  0  0  0  0
   44.2226   35.8432   42.3347 H   0  0  0  0  0  0  0  0  0  0  0  0
   45.2020   37.1909   43.1558 H   0  0  0  0  0  0  0  0  0  0  0  0
   46.2759   35.4342   41.6069 H   0  0  0  0  0  0  0  0  0  0  0  0
   47.0421   36.1031   43.1304 H   0  0  0  0  0  0  0  0  0  0  0  0
   45.6151   33.4518   42.9184 H   0  0  0  0  0  0  0  0  0  0  0  0
   47.3713   33.3557   47.0088 H   0  0  0  0  0  0  0  0  0  0  0  0
   45.3541   31.6373   43.5849 H   0  0  0  0  0  0  0  0  0  0  0  0
   46.6502   29.1747   46.7862 H   0  0  0  0  0  0  0  0  0  0  0  0
   50.8877   33.3875   42.3339 H   0  0  0  0  0  0  0  0  0  0  0  0
   49.4218   31.9772   40.5861 H   0  0  0  0  0  0  0  0  0  0  0  0
   45.7879   31.1905   41.1461 H   0  0  0  0  0  0  0  0  0  0  0  0
  1  2  1  0
  1  8  1  0
  3  2  2  0
  4  3  1  0
  5  4  1  0
  5  6  1  0
  6  1  1  0
  7 12  2  0
  8  7  1  0
  9 10  1  0
  9  8  2  0
 10 11  2  0
 11 12  1  0
 13 14  1  0
 13  6  1  0
 15 14  2  0
 16 17  2  0
 16 15  1  0
 17 13  1  0
 18 17  1  0
  1 19  1  1
  2 20  1  0
  3 21  1  0
  4 22  1  0
  4 23  1  0
  5 24  1  0
  5 25  1  0
  6 26  1  6
  7 27  1  0
  9 28  1  0
 11 29  1  0
 15 30  1  0
 16 31  1  0
 18 32  1  0
M  ISO  8  19  13  20  13  21  13  22  13  23  13  24  13  25  13  26  13
M  ISO  6  27  14  28  14  29  14  30  14  31  14  32  11
M  END
>  <minimizedAffinity>  (1) 
-4.63073874

>  <minimizedRMSD>  (1) 
1.6083734

$$$$
