
     RDKit          3D

 46 49  0  0  1  0  0  0  0  0999 V2000
   46.1430   33.4870   45.4940 C   0  0  2  0  0  0  0  0  0  0  0  0
   45.2820   34.7350   45.5640 C   0  0  0  0  0  0  0  0  0  0  0  0
   44.5800   35.2010   44.3760 C   0  0  0  0  0  0  0  0  0  0  0  0
   44.6980   34.4610   43.1400 C   0  0  0  0  0  0  0  0  0  0  0  0
   45.8510   33.5420   43.1110 C   0  0  0  0  0  0  0  0  0  0  0  0
   45.8040   32.6800   44.3290 C   0  0  1  0  0  0  0  0  0  0  0  0
   47.3330   32.2140   47.2170 C   0  0  0  0  0  0  0  0  0  0  0  0
   46.1280   32.7880   46.7850 C   0  0  0  0  0  0  0  0  0  0  0  0
   44.9720   32.6580   47.5880 C   0  0  0  0  0  0  0  0  0  0  0  0
   45.0670   31.9810   48.7490 N   0  0  0  0  0  0  0  0  0  0  0  0
   46.2450   31.4280   49.1560 C   0  0  0  0  0  0  0  0  0  0  0  0
   47.3520   31.5450   48.3990 N   0  0  0  0  0  0  0  0  0  0  0  0
   46.7540   31.6220   44.0240 N   0  0  0  0  0  0  0  0  0  0  0  0
   48.0280   31.6980   43.6180 N   0  0  0  0  0  0  0  0  0  0  0  0
   48.5040   30.4720   43.4730 C   0  0  0  0  0  0  0  0  0  0  0  0
   47.4820   29.6050   43.8020 C   0  0  0  0  0  0  0  0  0  0  0  0
   46.3610   30.3600   44.1540 C   0  0  0  0  0  0  0  0  0  0  0  0
   45.3150   29.4660   44.4830 N   0  0  0  0  0  0  0  0  0  0  0  0
   44.9980   29.3560   45.9010 C   0  0  0  0  0  0  0  0  0  0  0  0
   44.2060   28.0820   46.1090 C   0  0  0  0  0  0  0  0  0  0  0  0
   42.8390   28.1540   45.4370 C   0  0  0  0  0  0  0  0  0  0  0  0
   43.0260   28.8830   44.1260 C   0  0  0  0  0  0  0  0  0  0  0  0
   44.4290   28.6140   43.6620 C   0  0  0  0  0  0  0  0  0  0  0  0
   47.1967   33.7571   45.3302 H   0  0  0  0  0  0  0  0  0  0  0  0
   45.1883   35.2869   46.5109 H   0  0  0  0  0  0  0  0  0  0  0  0
   43.9635   36.1110   44.4191 H   0  0  0  0  0  0  0  0  0  0  0  0
   43.7799   33.8720   42.9981 H   0  0  0  0  0  0  0  0  0  0  0  0
   44.8509   35.1965   42.3365 H   0  0  0  0  0  0  0  0  0  0  0  0
   45.8011   32.9132   42.2099 H   0  0  0  0  0  0  0  0  0  0  0  0
   46.7889   34.1164   43.0932 H   0  0  0  0  0  0  0  0  0  0  0  0
   44.8219   32.2478   44.5711 H   0  0  0  0  0  0  0  0  0  0  0  0
   48.2457   32.3041   46.6097 H   0  0  0  0  0  0  0  0  0  0  0  0
   44.0156   33.1000   47.2719 H   0  0  0  0  0  0  0  0  0  0  0  0
   46.2911   30.8822   50.1099 H   0  0  0  0  0  0  0  0  0  0  0  0
   49.5194   30.1967   43.1519 H   0  0  0  0  0  0  0  0  0  0  0  0
   47.5403   28.5066   43.7892 H   0  0  0  0  0  0  0  0  0  0  0  0
   45.9270   29.3176   46.4888 H   0  0  0  0  0  0  0  0  0  0  0  0
   44.4115   30.2269   46.2289 H   0  0  0  0  0  0  0  0  0  0  0  0
   44.7689   27.2383   45.6832 H   0  0  0  0  0  0  0  0  0  0  0  0
   44.0512   27.9460   47.1895 H   0  0  0  0  0  0  0  0  0  0  0  0
   42.4550   27.1397   45.2533 H   0  0  0  0  0  0  0  0  0  0  0  0
   42.1152   28.6794   46.0773 H   0  0  0  0  0  0  0  0  0  0  0  0
   42.3057   28.5112   43.3824 H   0  0  0  0  0  0  0  0  0  0  0  0
   42.8579   29.9626   44.2531 H   0  0  0  0  0  0  0  0  0  0  0  0
   44.6804   27.5531   43.8080 H   0  0  0  0  0  0  0  0  0  0  0  0
   44.5430   28.8384   42.5912 H   0  0  0  0  0  0  0  0  0  0  0  0
  1  2  1  0
  1  8  1  0
  3  2  2  0
  4  3  1  0
  5  4  1  0
  5  6  1  0
  6  1  1  0
  7 12  2  0
  8  7  1  0
  8  9  2  0
  9 10  1  0
 10 11  2  0
 12 11  1  0
 13 17  1  0
 13  6  1  0
 14 13  1  0
 15 14  2  0
 15 16  1  0
 16 17  2  0
 17 18  1  0
 18 19  1  0
 19 20  1  0
 21 20  1  0
 22 21  1  0
 23 22  1  0
 23 18  1  0
  1 24  1  6
  2 25  1  0
  3 26  1  0
  4 27  1  0
  4 28  1  0
  5 29  1  0
  5 30  1  0
  6 31  1  1
  7 32  1  0
  9 33  1  0
 11 34  1  0
 15 35  1  0
 16 36  1  0
 19 37  1  0
 19 38  1  0
 20 39  1  0
 20 40  1  0
 21 41  1  0
 21 42  1  0
 22 43  1  0
 22 44  1  0
 23 45  1  0
 23 46  1  0
M  ISO  8  24  13  25  13  26  13  27  13  28  13  29  13  30  13  31  13
M  ISO  8  32  14  33  14  34  14  35  14  36  14  37  13  38  13  39  13
M  ISO  7  40  13  41  13  42  13  43  13  44  13  45  13  46  13
M  END
>  <minimizedAffinity>  (1) 
-4.42597437

>  <minimizedRMSD>  (1) 
5.69430161

$$$$
