
     RDKit          3D

 33 35  0  0  1  0  0  0  0  0999 V2000
   49.0620   33.7520   42.7040 C   0  0  2  0  0  0  0  0  0  0  0  0
   47.6570   33.9850   42.4770 C   0  0  2  0  0  0  0  0  0  0  0  0
   47.5940   35.4090   41.8730 C   0  0  0  0  0  0  0  0  0  0  0  0
   48.9810   35.8280   41.4900 C   0  0  0  0  0  0  0  0  0  0  0  0
   49.7900   35.1170   42.5020 C   0  0  0  0  0  0  0  0  0  0  0  0
   49.7600   32.8370   41.7910 C   0  0  0  0  0  0  0  0  0  0  0  0
   48.9920   32.1560   40.8470 C   0  0  0  0  0  0  0  0  0  0  0  0
   49.5930   31.2760   39.9460 C   0  0  0  0  0  0  0  0  0  0  0  0
   50.9630   31.1510   40.0730 N   0  0  0  0  0  0  0  0  0  0  0  0
   51.6820   31.8150   40.9880 C   0  0  0  0  0  0  0  0  0  0  0  0
   51.0760   32.6470   41.8320 N   0  0  0  0  0  0  0  0  0  0  0  0
   46.7720   33.9490   43.6810 C   0  0  0  0  0  0  0  0  0  0  0  0
   45.9280   34.7830   43.8800 O   0  0  0  0  0  0  0  0  0  0  0  0
   46.9500   32.8320   44.6400 C   0  0  0  0  0  0  0  0  0  0  0  0
   46.7450   33.0920   46.0010 C   0  0  0  0  0  0  0  0  0  0  0  0
   46.8670   32.1790   47.0280 C   0  0  0  0  0  0  0  0  0  0  0  0
   47.2120   30.9330   46.6560 N   0  0  0  0  0  0  0  0  0  0  0  0
   47.4140   30.6660   45.3380 C   0  0  0  0  0  0  0  0  0  0  0  0
   47.2940   31.5630   44.3480 N   0  0  0  0  0  0  0  0  0  0  0  0
   49.0977   33.2964   43.7046 H   0  0  0  0  0  0  0  0  0  0  0  0
   47.2783   33.1707   41.8418 H   0  0  0  0  0  0  0  0  0  0  0  0
   46.9487   35.4054   40.9822 H   0  0  0  0  0  0  0  0  0  0  0  0
   47.1794   36.1119   42.6106 H   0  0  0  0  0  0  0  0  0  0  0  0
   49.2332   35.5005   40.4706 H   0  0  0  0  0  0  0  0  0  0  0  0
   49.1341   36.9172   41.4760 H   0  0  0  0  0  0  0  0  0  0  0  0
   50.8158   34.9592   42.1375 H   0  0  0  0  0  0  0  0  0  0  0  0
   49.8762   35.6853   43.4399 H   0  0  0  0  0  0  0  0  0  0  0  0
   47.9039   32.3137   40.8123 H   0  0  0  0  0  0  0  0  0  0  0  0
   49.0177   30.7221   39.1896 H   0  0  0  0  0  0  0  0  0  0  0  0
   52.7715   31.6728   41.0417 H   0  0  0  0  0  0  0  0  0  0  0  0
   46.4606   34.1184   46.2762 H   0  0  0  0  0  0  0  0  0  0  0  0
   46.6939   32.4513   48.0796 H   0  0  0  0  0  0  0  0  0  0  0  0
   47.6966   29.6389   45.0636 H   0  0  0  0  0  0  0  0  0  0  0  0
  2  1  1  0
  2 12  1  0
  3  2  1  0
  4  3  1  0
  4  5  1  0
  5  1  1  0
  6 11  1  0
  6  1  1  0
  7  6  2  0
  8  9  2  0
  8  7  1  0
  9 10  1  0
 10 11  2  0
 12 13  2  0
 12 14  1  0
 14 15  2  0
 15 16  1  0
 17 16  2  0
 18 17  1  0
 19 14  1  0
 19 18  2  0
  1 20  1  1
  2 21  1  6
  3 22  1  0
  3 23  1  0
  4 24  1  0
  4 25  1  0
  5 26  1  0
  5 27  1  0
  7 28  1  0
  8 29  1  0
 10 30  1  0
 15 31  1  0
 16 32  1  0
 18 33  1  0
M  ISO  8  20  13  21  13  22  13  23  13  24  13  25  13  26  13  27  13
M  ISO  6  28  14  29  14  30  14  31  14  32  14  33  14
M  END
>  <minimizedAffinity>  (1) 
-5.12222433

>  <minimizedRMSD>  (1) 
0.612244368

$$$$
