
     RDKit          3D

 37 40  0  0  0  0  0  0  0  0999 V2000
   47.5650   33.9890   39.5580 C   0  0  0  0  0  0  0  0  0  0  0  0
   46.3530   33.4510   39.9500 C   0  0  0  0  0  0  0  0  0  0  0  0
   45.7640   33.6950   41.1800 C   0  0  0  0  0  0  0  0  0  0  0  0
   46.4260   34.5160   42.0520 C   0  0  0  0  0  0  0  0  0  0  0  0
   47.6260   35.0420   41.6520 C   0  0  0  0  0  0  0  0  0  0  0  0
   48.2090   34.8050   40.4440 C   0  0  0  0  0  0  0  0  0  0  0  0
   44.4590   36.0670   44.8890 C   0  0  0  0  0  0  0  0  0  0  0  0
   45.0250   35.9060   43.6030 C   0  0  0  0  0  0  0  0  0  0  0  0
   45.8040   34.7710   43.3410 C   0  0  0  0  0  0  0  0  0  0  0  0
   45.9880   33.8680   44.3250 N   0  0  0  0  0  0  0  0  0  0  0  0
   45.4270   34.0530   45.5560 C   0  0  0  0  0  0  0  0  0  0  0  0
   44.6820   35.1260   45.8260 N   0  0  0  0  0  0  0  0  0  0  0  0
   48.2030   33.5590   37.9940 S   0  0  0  0  0  0  0  0  0  0  0  0
   47.0770   32.9980   37.1250 O   0  0  0  0  0  0  0  0  0  0  0  0
   48.8000   34.7760   37.3110 O   0  0  0  0  0  0  0  0  0  0  0  0
   49.4510   32.3650   38.1460 C   0  0  0  0  0  0  0  0  0  0  0  0
   50.1300   31.7900   37.0630 C   0  0  0  0  0  0  0  0  0  0  0  0
   51.0240   30.8670   37.4530 N   0  0  0  0  0  0  0  0  0  0  0  0
   50.9750   30.7940   38.7810 C   0  0  0  0  0  0  0  0  0  0  0  0
   51.6830   30.0320   39.6880 C   0  0  0  0  0  0  0  0  0  0  0  0
   51.4230   30.1910   41.0350 C   0  0  0  0  0  0  0  0  0  0  0  0
   50.4740   31.0960   41.4760 C   0  0  0  0  0  0  0  0  0  0  0  0
   49.7880   31.8370   40.5550 C   0  0  0  0  0  0  0  0  0  0  0  0
   50.0280   31.6970   39.1990 C   0  0  0  0  0  0  0  0  0  0  0  0
   45.8262   32.7914   39.2447 H   0  0  0  0  0  0  0  0  0  0  0  0
   44.7968   33.2440   41.4467 H   0  0  0  0  0  0  0  0  0  0  0  0
   48.1555   35.7016   42.3552 H   0  0  0  0  0  0  0  0  0  0  0  0
   49.1769   35.2606   40.1877 H   0  0  0  0  0  0  0  0  0  0  0  0
   43.8446   36.9495   45.1208 H   0  0  0  0  0  0  0  0  0  0  0  0
   44.8563   36.6603   42.8203 H   0  0  0  0  0  0  0  0  0  0  0  0
   45.5929   33.3013   46.3417 H   0  0  0  0  0  0  0  0  0  0  0  0
   49.9509   32.0637   36.0128 H   0  0  0  0  0  0  0  0  0  0  0  0
   51.6369   30.3152   36.8359 H   0  0  0  0  0  0  0  0  0  0  0  0
   52.4401   29.3116   39.3446 H   0  0  0  0  0  0  0  0  0  0  0  0
   51.9790   29.5888   41.7686 H   0  0  0  0  0  0  0  0  0  0  0  0
   50.2747   31.2172   42.5510 H   0  0  0  0  0  0  0  0  0  0  0  0
   49.0312   32.5580   40.8977 H   0  0  0  0  0  0  0  0  0  0  0  0
  1  2  2  0
  1  6  1  0
  2  3  1  0
  3  4  2  0
  4  9  1  0
  5  4  1  0
  6  5  2  0
  7 12  2  0
  8  7  1  0
  9  8  2  0
  9 10  1  0
 10 11  2  0
 11 12  1  0
 13 16  1  0
 13  1  1  0
 14 13  2  0
 15 13  2  0
 16 24  1  0
 17 18  1  0
 17 16  2  0
 18 19  1  0
 19 24  2  0
 19 20  1  0
 20 21  2  0
 21 22  1  0
 23 22  2  0
 24 23  1  0
  2 25  1  0
  3 26  1  0
  5 27  1  0
  6 28  1  0
  7 29  1  0
  8 30  1  0
 11 31  1  0
 17 32  1  0
 18 33  1  0
 20 34  1  0
 21 35  1  0
 22 36  1  0
 23 37  1  0
M  ISO  8  25  14  26  14  27  14  28  14  29  14  30  14  31  14  32  14
M  ISO  5  33   9  34  14  35  14  36  14  37  14
M  END
>  <minimizedAffinity>  (1) 
-5.85397863

>  <minimizedRMSD>  (1) 
1.66490698

$$$$
