
     RDKit          3D

 31 33  0  0  0  0  0  0  0  0999 V2000
   47.5340   34.0000   39.5630 C   0  0  0  0  0  0  0  0  0  0  0  0
   46.3130   33.5230   39.9250 C   0  0  0  0  0  0  0  0  0  0  0  0
   45.7320   33.7810   41.1490 C   0  0  0  0  0  0  0  0  0  0  0  0
   46.4090   34.5520   42.0510 C   0  0  0  0  0  0  0  0  0  0  0  0
   47.6350   35.0240   41.6750 C   0  0  0  0  0  0  0  0  0  0  0  0
   48.2300   34.7830   40.4690 C   0  0  0  0  0  0  0  0  0  0  0  0
   44.4510   36.0690   44.9050 C   0  0  0  0  0  0  0  0  0  0  0  0
   45.0080   35.9400   43.6000 C   0  0  0  0  0  0  0  0  0  0  0  0
   45.7820   34.8110   43.3370 C   0  0  0  0  0  0  0  0  0  0  0  0
   45.9750   33.8870   44.3260 N   0  0  0  0  0  0  0  0  0  0  0  0
   45.4240   34.0510   45.5570 C   0  0  0  0  0  0  0  0  0  0  0  0
   44.6720   35.1330   45.8340 N   0  0  0  0  0  0  0  0  0  0  0  0
   48.1930   33.5870   37.9810 S   0  0  0  0  0  0  0  0  0  0  0  0
   47.0450   33.0430   37.1180 O   0  0  0  0  0  0  0  0  0  0  0  0
   48.8080   34.7760   37.3360 O   0  0  0  0  0  0  0  0  0  0  0  0
   49.3990   32.3320   38.1560 C   0  0  0  0  0  0  0  0  0  0  0  0
   49.9850   31.7580   37.0250 C   0  0  0  0  0  0  0  0  0  0  0  0
   50.9300   30.7740   37.1970 C   0  0  0  0  0  0  0  0  0  0  0  0
   51.2940   30.3600   38.4390 N   0  0  0  0  0  0  0  0  0  0  0  0
   50.7070   30.9360   39.5190 C   0  0  0  0  0  0  0  0  0  0  0  0
   49.7720   31.9090   39.3640 N   0  0  0  0  0  0  0  0  0  0  0  0
   45.7611   32.9002   39.2056 H   0  0  0  0  0  0  0  0  0  0  0  0
   44.7405   33.3729   41.3947 H   0  0  0  0  0  0  0  0  0  0  0  0
   48.1844   35.6449   42.3980 H   0  0  0  0  0  0  0  0  0  0  0  0
   49.2213   35.1940   40.2274 H   0  0  0  0  0  0  0  0  0  0  0  0
   43.8340   36.9460   45.1504 H   0  0  0  0  0  0  0  0  0  0  0  0
   44.8335   36.7038   42.8279 H   0  0  0  0  0  0  0  0  0  0  0  0
   45.5939   33.2923   46.3351 H   0  0  0  0  0  0  0  0  0  0  0  0
   49.6959   32.0870   36.0160 H   0  0  0  0  0  0  0  0  0  0  0  0
   51.3991   30.3144   36.3146 H   0  0  0  0  0  0  0  0  0  0  0  0
   50.9916   30.6112   40.5307 H   0  0  0  0  0  0  0  0  0  0  0  0
  1  2  2  0
  1  6  1  0
  2  3  1  0
  3  4  2  0
  4  9  1  0
  5  4  1  0
  6  5  2  0
  7 12  2  0
  8  7  1  0
  9  8  2  0
  9 10  1  0
 10 11  2  0
 11 12  1  0
 13 16  1  0
 13  1  1  0
 14 13  2  0
 15 13  2  0
 16 21  2  0
 17 18  2  0
 17 16  1  0
 18 19  1  0
 19 20  2  0
 21 20  1  0
  2 22  1  0
  3 23  1  0
  5 24  1  0
  6 25  1  0
  7 26  1  0
  8 27  1  0
 11 28  1  0
 17 29  1  0
 18 30  1  0
 20 31  1  0
M  ISO  8  22  14  23  14  24  14  25  14  26  14  27  14  28  14  29  14
M  ISO  2  30  14  31  14
M  END
>  <minimizedAffinity>  (1) 
-5.56008577

>  <minimizedRMSD>  (1) 
1.66428292

$$$$
