
     RDKit          3D

 33 35  0  0  0  0  0  0  0  0999 V2000
   47.5170   33.9960   39.5560 C   0  0  0  0  0  0  0  0  0  0  0  0
   46.2990   33.5120   39.9260 C   0  0  0  0  0  0  0  0  0  0  0  0
   45.7270   33.7630   41.1580 C   0  0  0  0  0  0  0  0  0  0  0  0
   46.4090   34.5320   42.0560 C   0  0  0  0  0  0  0  0  0  0  0  0
   47.6310   35.0120   41.6760 C   0  0  0  0  0  0  0  0  0  0  0  0
   48.2180   34.7790   40.4660 C   0  0  0  0  0  0  0  0  0  0  0  0
   44.4510   36.0750   44.9020 C   0  0  0  0  0  0  0  0  0  0  0  0
   45.0120   35.9260   43.6060 C   0  0  0  0  0  0  0  0  0  0  0  0
   45.7890   34.7880   43.3450 C   0  0  0  0  0  0  0  0  0  0  0  0
   45.9770   33.8750   44.3330 N   0  0  0  0  0  0  0  0  0  0  0  0
   45.4190   34.0600   45.5620 C   0  0  0  0  0  0  0  0  0  0  0  0
   44.6700   35.1430   45.8340 N   0  0  0  0  0  0  0  0  0  0  0  0
   48.1760   33.6060   37.9740 S   0  0  0  0  0  0  0  0  0  0  0  0
   47.0360   33.0490   37.1240 O   0  0  0  0  0  0  0  0  0  0  0  0
   48.7890   34.8010   37.3380 O   0  0  0  0  0  0  0  0  0  0  0  0
   49.3970   32.3840   38.1960 C   0  0  0  0  0  0  0  0  0  0  0  0
   49.5350   31.8490   39.4810 C   0  0  0  0  0  0  0  0  0  0  0  0
   50.4550   30.8750   39.8210 C   0  0  0  0  0  0  0  0  0  0  0  0
   51.2790   30.4120   38.8230 C   0  0  0  0  0  0  0  0  0  0  0  0
   51.1560   30.9220   37.5670 C   0  0  0  0  0  0  0  0  0  0  0  0
   50.2310   31.9080   37.2110 C   0  0  0  0  0  0  0  0  0  0  0  0
   45.7433   32.8905   39.2084 H   0  0  0  0  0  0  0  0  0  0  0  0
   44.7392   33.3504   41.4109 H   0  0  0  0  0  0  0  0  0  0  0  0
   48.1820   35.6318   42.3986 H   0  0  0  0  0  0  0  0  0  0  0  0
   49.2066   35.1943   40.2206 H   0  0  0  0  0  0  0  0  0  0  0  0
   43.8370   36.9565   45.1383 H   0  0  0  0  0  0  0  0  0  0  0  0
   44.8415   36.6836   42.8269 H   0  0  0  0  0  0  0  0  0  0  0  0
   45.5846   33.3082   46.3477 H   0  0  0  0  0  0  0  0  0  0  0  0
   48.8694   32.2273   40.2708 H   0  0  0  0  0  0  0  0  0  0  0  0
   50.5248   30.4865   40.8477 H   0  0  0  0  0  0  0  0  0  0  0  0
   52.0300   29.6374   39.0371 H   0  0  0  0  0  0  0  0  0  0  0  0
   51.8251   30.5348   36.7845 H   0  0  0  0  0  0  0  0  0  0  0  0
   50.1722   32.2893   36.1809 H   0  0  0  0  0  0  0  0  0  0  0  0
  1  2  2  0
  1  6  1  0
  2  3  1  0
  3  4  2  0
  4  9  1  0
  5  4  1  0
  6  5  2  0
  7 12  2  0
  8  7  1  0
  9  8  2  0
  9 10  1  0
 10 11  2  0
 11 12  1  0
 13 16  1  0
 13  1  1  0
 14 13  2  0
 15 13  2  0
 16 17  2  0
 17 18  1  0
 19 18  2  0
 20 19  1  0
 21 20  2  0
 21 16  1  0
  2 22  1  0
  3 23  1  0
  5 24  1  0
  6 25  1  0
  7 26  1  0
  8 27  1  0
 11 28  1  0
 17 29  1  0
 18 30  1  0
 19 31  1  0
 20 32  1  0
 21 33  1  0
M  ISO  8  22  14  23  14  24  14  25  14  26  14  27  14  28  14  29  14
M  ISO  4  30  14  31  14  32  14  33  14
M  END
>  <minimizedAffinity>  (1) 
-5.54894876

>  <minimizedRMSD>  (1) 
1.62953067

$$$$
