
     RDKit          3D

 31 33  0  0  0  0  0  0  0  0999 V2000
   47.5090   33.9940   39.5680 C   0  0  0  0  0  0  0  0  0  0  0  0
   46.2900   33.5140   39.9280 C   0  0  0  0  0  0  0  0  0  0  0  0
   45.7100   33.7650   41.1580 C   0  0  0  0  0  0  0  0  0  0  0  0
   46.3910   34.5330   42.0600 C   0  0  0  0  0  0  0  0  0  0  0  0
   47.6170   35.0100   41.6880 C   0  0  0  0  0  0  0  0  0  0  0  0
   48.2150   34.7780   40.4770 C   0  0  0  0  0  0  0  0  0  0  0  0
   44.4470   36.0690   44.9150 C   0  0  0  0  0  0  0  0  0  0  0  0
   44.9950   35.9320   43.6110 C   0  0  0  0  0  0  0  0  0  0  0  0
   45.7690   34.7930   43.3490 C   0  0  0  0  0  0  0  0  0  0  0  0
   45.9610   33.8840   44.3330 N   0  0  0  0  0  0  0  0  0  0  0  0
   45.4190   34.0510   45.5720 C   0  0  0  0  0  0  0  0  0  0  0  0
   44.6730   35.1370   45.8460 N   0  0  0  0  0  0  0  0  0  0  0  0
   48.1750   33.6100   37.9830 S   0  0  0  0  0  0  0  0  0  0  0  0
   47.0270   33.0730   37.1210 O   0  0  0  0  0  0  0  0  0  0  0  0
   48.7910   34.8060   37.3520 O   0  0  0  0  0  0  0  0  0  0  0  0
   49.3940   32.3650   38.1470 C   0  0  0  0  0  0  0  0  0  0  0  0
   50.0400   31.8120   37.0590 C   0  0  0  0  0  0  0  0  0  0  0  0
   51.0050   30.8330   37.1090 C   0  0  0  0  0  0  0  0  0  0  0  0
   51.3110   30.4100   38.3510 N   0  0  0  0  0  0  0  0  0  0  0  0
   50.7050   30.9220   39.4370 C   0  0  0  0  0  0  0  0  0  0  0  0
   49.7490   31.8930   39.3730 N   0  0  0  0  0  0  0  0  0  0  0  0
   45.7373   32.8954   39.2056 H   0  0  0  0  0  0  0  0  0  0  0  0
   44.7199   33.3545   41.4054 H   0  0  0  0  0  0  0  0  0  0  0  0
   48.1649   35.6266   42.4157 H   0  0  0  0  0  0  0  0  0  0  0  0
   49.2052   35.1912   40.2346 H   0  0  0  0  0  0  0  0  0  0  0  0
   43.8327   36.9480   45.1598 H   0  0  0  0  0  0  0  0  0  0  0  0
   44.8183   36.6919   42.8356 H   0  0  0  0  0  0  0  0  0  0  0  0
   45.5920   33.2947   46.3518 H   0  0  0  0  0  0  0  0  0  0  0  0
   49.7580   32.1876   36.0643 H   0  0  0  0  0  0  0  0  0  0  0  0
   51.4880   30.4281   36.2075 H   0  0  0  0  0  0  0  0  0  0  0  0
   50.9948   30.5386   40.4264 H   0  0  0  0  0  0  0  0  0  0  0  0
  1  2  2  0
  1  6  1  0
  2  3  1  0
  3  4  2  0
  4  9  1  0
  5  4  1  0
  6  5  2  0
  7 12  2  0
  8  7  1  0
  9  8  2  0
  9 10  1  0
 10 11  2  0
 11 12  1  0
 13 16  1  0
 13  1  1  0
 14 13  2  0
 15 13  2  0
 16 21  2  0
 17 18  2  0
 17 16  1  0
 18 19  1  0
 19 20  2  0
 21 20  1  0
  2 22  1  0
  3 23  1  0
  5 24  1  0
  6 25  1  0
  7 26  1  0
  8 27  1  0
 11 28  1  0
 17 29  1  0
 18 30  1  0
 20 31  1  0
M  ISO  8  22  14  23  14  24  14  25  14  26  14  27  14  28  14  29  14
M  ISO  2  30  14  31  14
M  END
>  <minimizedAffinity>  (1) 
-5.54472256

>  <minimizedRMSD>  (1) 
1.58910108

$$$$
