
     RDKit          3D

 32 34  0  0  0  0  0  0  0  0999 V2000
   47.5220   33.9920   39.5500 C   0  0  0  0  0  0  0  0  0  0  0  0
   46.2920   33.5240   39.9010 C   0  0  0  0  0  0  0  0  0  0  0  0
   45.7150   33.7850   41.1300 C   0  0  0  0  0  0  0  0  0  0  0  0
   46.3930   34.5430   42.0380 C   0  0  0  0  0  0  0  0  0  0  0  0
   47.6260   35.0060   41.6690 C   0  0  0  0  0  0  0  0  0  0  0  0
   48.2230   34.7660   40.4650 C   0  0  0  0  0  0  0  0  0  0  0  0
   44.4550   36.0680   44.8960 C   0  0  0  0  0  0  0  0  0  0  0  0
   45.0030   35.9310   43.5910 C   0  0  0  0  0  0  0  0  0  0  0  0
   45.7690   34.8010   43.3240 C   0  0  0  0  0  0  0  0  0  0  0  0
   45.9660   33.8760   44.3140 N   0  0  0  0  0  0  0  0  0  0  0  0
   45.4230   34.0490   45.5500 C   0  0  0  0  0  0  0  0  0  0  0  0
   44.6790   35.1370   45.8220 N   0  0  0  0  0  0  0  0  0  0  0  0
   48.1860   33.5840   37.9800 S   0  0  0  0  0  0  0  0  0  0  0  0
   47.0560   33.0210   37.1160 O   0  0  0  0  0  0  0  0  0  0  0  0
   48.8160   34.7640   37.3330 O   0  0  0  0  0  0  0  0  0  0  0  0
   49.4080   32.3390   38.1860 C   0  0  0  0  0  0  0  0  0  0  0  0
   50.2060   31.9390   37.1420 C   0  0  0  0  0  0  0  0  0  0  0  0
   51.1720   30.9520   37.3130 C   0  0  0  0  0  0  0  0  0  0  0  0
   51.3690   30.3390   38.5220 C   0  0  0  0  0  0  0  0  0  0  0  0
   50.5500   30.7640   39.5540 C   0  0  0  0  0  0  0  0  0  0  0  0
   49.6210   31.7240   39.3600 N   0  0  0  0  0  0  0  0  0  0  0  0
   45.7343   32.9127   39.1762 H   0  0  0  0  0  0  0  0  0  0  0  0
   44.7193   33.3853   41.3727 H   0  0  0  0  0  0  0  0  0  0  0  0
   48.1783   35.6179   42.3974 H   0  0  0  0  0  0  0  0  0  0  0  0
   49.2189   35.1694   40.2294 H   0  0  0  0  0  0  0  0  0  0  0  0
   43.8425   36.9479   45.1423 H   0  0  0  0  0  0  0  0  0  0  0  0
   44.8269   36.6936   42.8180 H   0  0  0  0  0  0  0  0  0  0  0  0
   45.5934   33.2944   46.3320 H   0  0  0  0  0  0  0  0  0  0  0  0
   50.0794   32.4066   36.1544 H   0  0  0  0  0  0  0  0  0  0  0  0
   51.7936   30.6564   36.4549 H   0  0  0  0  0  0  0  0  0  0  0  0
   52.1304   29.5579   38.6640 H   0  0  0  0  0  0  0  0  0  0  0  0
   50.6582   30.3111   40.5506 H   0  0  0  0  0  0  0  0  0  0  0  0
  1  2  2  0
  1  6  1  0
  2  3  1  0
  3  4  2  0
  4  9  1  0
  5  4  1  0
  6  5  2  0
  7 12  2  0
  8  7  1  0
  9  8  2  0
  9 10  1  0
 10 11  2  0
 11 12  1  0
 13 16  1  0
 13  1  1  0
 14 13  2  0
 15 13  2  0
 16 21  2  0
 17 18  2  0
 17 16  1  0
 18 19  1  0
 19 20  2  0
 21 20  1  0
  2 22  1  0
  3 23  1  0
  5 24  1  0
  6 25  1  0
  7 26  1  0
  8 27  1  0
 11 28  1  0
 17 29  1  0
 18 30  1  0
 19 31  1  0
 20 32  1  0
M  ISO  8  22  14  23  14  24  14  25  14  26  14  27  14  28  14  29  14
M  ISO  3  30  14  31  14  32  14
M  END
>  <minimizedAffinity>  (1) 
-5.51694107

>  <minimizedRMSD>  (1) 
1.6127665

$$$$
