
     RDKit          3D

 29 31  0  0  0  0  0  0  0  0999 V2000
   47.4710   33.9110   39.4570 C   0  0  0  0  0  0  0  0  0  0  0  0
   46.2400   33.4630   39.8220 C   0  0  0  0  0  0  0  0  0  0  0  0
   45.6810   33.7330   41.0530 C   0  0  0  0  0  0  0  0  0  0  0  0
   46.3890   34.4800   41.9500 C   0  0  0  0  0  0  0  0  0  0  0  0
   47.6260   34.9220   41.5730 C   0  0  0  0  0  0  0  0  0  0  0  0
   48.2090   34.6730   40.3590 C   0  0  0  0  0  0  0  0  0  0  0  0
   44.4810   36.0780   44.8020 C   0  0  0  0  0  0  0  0  0  0  0  0
   45.0210   35.9130   43.4980 C   0  0  0  0  0  0  0  0  0  0  0  0
   45.7810   34.7600   43.2420 C   0  0  0  0  0  0  0  0  0  0  0  0
   45.9650   33.8700   44.2330 N   0  0  0  0  0  0  0  0  0  0  0  0
   45.4340   34.0580   45.4730 C   0  0  0  0  0  0  0  0  0  0  0  0
   44.7010   35.1570   45.7390 N   0  0  0  0  0  0  0  0  0  0  0  0
   48.1130   33.5060   37.8590 S   0  0  0  0  0  0  0  0  0  0  0  0
   48.3510   34.8270   37.1140 O   0  0  0  0  0  0  0  0  0  0  0  0
   49.3970   32.7660   37.9760 O   0  0  0  0  0  0  0  0  0  0  0  0
   46.9850   32.5330   36.9350 C   0  0  0  0  0  0  0  0  0  0  0  0
   45.7930   33.0100   36.3580 C   0  0  0  0  0  0  0  0  0  0  0  0
   45.0870   31.5190   35.5460 S   0  0  0  0  0  0  0  0  0  0  0  0
   46.5610   30.4820   36.1430 C   0  0  0  0  0  0  0  0  0  0  0  0
   47.2050   31.2470   36.7250 N   0  0  0  0  0  0  0  0  0  0  0  0
   45.6655   32.8592   39.1041 H   0  0  0  0  0  0  0  0  0  0  0  0
   44.6809   33.3528   41.3083 H   0  0  0  0  0  0  0  0  0  0  0  0
   48.1954   35.5220   42.2981 H   0  0  0  0  0  0  0  0  0  0  0  0
   49.2096   35.0556   40.1092 H   0  0  0  0  0  0  0  0  0  0  0  0
   43.8799   36.9684   45.0383 H   0  0  0  0  0  0  0  0  0  0  0  0
   44.8492   36.6648   42.7136 H   0  0  0  0  0  0  0  0  0  0  0  0
   45.6042   33.3094   46.2608 H   0  0  0  0  0  0  0  0  0  0  0  0
   45.3823   34.0301   36.3861 H   0  0  0  0  0  0  0  0  0  0  0  0
   46.7557   29.4123   35.9759 H   0  0  0  0  0  0  0  0  0  0  0  0
  1  2  2  0
  1  6  1  0
  2  3  1  0
  3  4  2  0
  4  9  1  0
  5  4  1  0
  6  5  2  0
  7 12  2  0
  8  7  1  0
  9  8  2  0
  9 10  1  0
 10 11  2  0
 11 12  1  0
 13 15  2  0
 13  1  1  0
 14 13  2  0
 16 13  1  0
 17 16  2  0
 18 19  1  0
 18 17  1  0
 19 20  2  0
 20 16  1  0
  2 21  1  0
  3 22  1  0
  5 23  1  0
  6 24  1  0
  7 25  1  0
  8 26  1  0
 11 27  1  0
 17 28  1  0
 19 29  1  0
M  ISO  8  21  14  22  14  23  14  24  14  25  14  26  14  27  14  28  14
M  ISO  1  29  14
M  END
>  <minimizedAffinity>  (1) 
-5.4440732

>  <minimizedRMSD>  (1) 
3.26743484

$$$$
