
     RDKit          3D

 39 41  0  0  0  0  0  0  0  0999 V2000
   47.5320   33.9730   39.5070 C   0  0  0  0  0  0  0  0  0  0  0  0
   46.3000   33.5220   39.8710 C   0  0  0  0  0  0  0  0  0  0  0  0
   45.7180   33.7770   41.0970 C   0  0  0  0  0  0  0  0  0  0  0  0
   46.4180   34.5250   42.0010 C   0  0  0  0  0  0  0  0  0  0  0  0
   47.6540   34.9720   41.6290 C   0  0  0  0  0  0  0  0  0  0  0  0
   48.2360   34.7270   40.4230 C   0  0  0  0  0  0  0  0  0  0  0  0
   44.4670   36.0830   44.8500 C   0  0  0  0  0  0  0  0  0  0  0  0
   45.0220   35.9330   43.5520 C   0  0  0  0  0  0  0  0  0  0  0  0
   45.7920   34.7910   43.2910 C   0  0  0  0  0  0  0  0  0  0  0  0
   45.9810   33.8720   44.2760 N   0  0  0  0  0  0  0  0  0  0  0  0
   45.4250   34.0620   45.5110 C   0  0  0  0  0  0  0  0  0  0  0  0
   44.6830   35.1520   45.7810 N   0  0  0  0  0  0  0  0  0  0  0  0
   48.1770   33.5740   37.9320 S   0  0  0  0  0  0  0  0  0  0  0  0
   47.1050   32.7820   37.1600 O   0  0  0  0  0  0  0  0  0  0  0  0
   48.5460   34.8000   37.1650 O   0  0  0  0  0  0  0  0  0  0  0  0
   49.5820   32.4960   38.0080 C   0  0  0  0  0  0  0  0  0  0  0  0
   49.2870   31.5420   39.1760 C   0  0  0  0  0  0  0  0  0  0  0  0
   50.5170   30.7510   39.5240 C   0  0  0  0  0  0  0  0  0  0  0  0
   50.9890   30.0390   38.2710 C   0  0  0  0  0  0  0  0  0  0  0  0
   49.9860   30.1810   37.1530 C   0  0  0  0  0  0  0  0  0  0  0  0
   49.7730   31.6610   36.7920 C   0  0  0  0  0  0  0  0  0  0  0  0
   45.7347   32.9187   39.1454 H   0  0  0  0  0  0  0  0  0  0  0  0
   44.7178   33.3884   41.3393 H   0  0  0  0  0  0  0  0  0  0  0  0
   48.2197   35.5731   42.3561 H   0  0  0  0  0  0  0  0  0  0  0  0
   49.2365   35.1181   40.1862 H   0  0  0  0  0  0  0  0  0  0  0  0
   43.8583   36.9677   45.0884 H   0  0  0  0  0  0  0  0  0  0  0  0
   44.8527   36.6912   42.7733 H   0  0  0  0  0  0  0  0  0  0  0  0
   45.5871   33.3105   46.2978 H   0  0  0  0  0  0  0  0  0  0  0  0
   50.4914   33.1057   38.1146 H   0  0  0  0  0  0  0  0  0  0  0  0
   48.9715   32.1273   40.0523 H   0  0  0  0  0  0  0  0  0  0  0  0
   48.4864   30.8484   38.8793 H   0  0  0  0  0  0  0  0  0  0  0  0
   51.3047   31.4272   39.8878 H   0  0  0  0  0  0  0  0  0  0  0  0
   50.2896   30.0208   40.3147 H   0  0  0  0  0  0  0  0  0  0  0  0
   51.9474   30.4735   37.9507 H   0  0  0  0  0  0  0  0  0  0  0  0
   51.1059   28.9696   38.5008 H   0  0  0  0  0  0  0  0  0  0  0  0
   50.3555   29.6437   36.2671 H   0  0  0  0  0  0  0  0  0  0  0  0
   49.0264   29.7586   37.4857 H   0  0  0  0  0  0  0  0  0  0  0  0
   50.6536   32.0254   36.2427 H   0  0  0  0  0  0  0  0  0  0  0  0
   48.8665   31.7387   36.1737 H   0  0  0  0  0  0  0  0  0  0  0  0
  1  2  2  0
  1  6  1  0
  2  3  1  0
  3  4  2  0
  4  9  1  0
  5  4  1  0
  6  5  2  0
  7 12  2  0
  8  7  1  0
  9  8  2  0
  9 10  1  0
 10 11  2  0
 11 12  1  0
 13 16  1  0
 13  1  1  0
 14 13  2  0
 15 13  2  0
 16 17  1  0
 17 18  1  0
 19 18  1  0
 20 19  1  0
 21 20  1  0
 21 16  1  0
  2 22  1  0
  3 23  1  0
  5 24  1  0
  6 25  1  0
  7 26  1  0
  8 27  1  0
 11 28  1  0
 16 29  1  0
 17 30  1  0
 17 31  1  0
 18 32  1  0
 18 33  1  0
 19 34  1  0
 19 35  1  0
 20 36  1  0
 20 37  1  0
 21 38  1  0
 21 39  1  0
M  ISO  8  22  14  23  14  24  14  25  14  26  14  27  14  28  14  29  13
M  ISO  8  30  13  31  13  32  13  33  13  34  13  35  13  36  13  37  13
M  ISO  2  38  13  39  13
M  END
>  <minimizedAffinity>  (1) 
-5.39403296

>  <minimizedRMSD>  (1) 
1.33918893

$$$$
