
     RDKit          3D

 39 42  0  0  0  0  0  0  0  0999 V2000
   47.1070   32.9910   41.3790 C   0  0  0  0  0  0  0  0  0  0  0  0
   46.1490   32.0410   41.5630 C   0  0  0  0  0  0  0  0  0  0  0  0
   44.8040   32.3460   41.5700 C   0  0  0  0  0  0  0  0  0  0  0  0
   44.4010   33.6420   41.3900 C   0  0  0  0  0  0  0  0  0  0  0  0
   45.3790   34.5750   41.2080 C   0  0  0  0  0  0  0  0  0  0  0  0
   46.7210   34.3160   41.1930 C   0  0  0  0  0  0  0  0  0  0  0  0
   40.6400   33.2800   41.2820 C   0  0  0  0  0  0  0  0  0  0  0  0
   42.0060   32.9240   41.2510 C   0  0  0  0  0  0  0  0  0  0  0  0
   42.9790   33.9190   41.4000 C   0  0  0  0  0  0  0  0  0  0  0  0
   42.5730   35.1900   41.5690 N   0  0  0  0  0  0  0  0  0  0  0  0
   41.2480   35.5070   41.5970 C   0  0  0  0  0  0  0  0  0  0  0  0
   40.3120   34.5710   41.4560 N   0  0  0  0  0  0  0  0  0  0  0  0
   48.8070   32.5230   41.4080 S   0  0  0  0  0  0  0  0  0  0  0  0
   49.6070   33.7060   41.9630 O   0  0  0  0  0  0  0  0  0  0  0  0
   49.0070   31.3090   42.2420 O   0  0  0  0  0  0  0  0  0  0  0  0
   49.3500   32.1830   39.7810 C   0  0  0  0  0  0  0  0  0  0  0  0
   48.5030   32.2670   38.6940 C   0  0  0  0  0  0  0  0  0  0  0  0
   48.8420   32.0180   37.3840 C   0  0  0  0  0  0  0  0  0  0  0  0
   50.1680   31.6500   37.1580 C   0  0  0  0  0  0  0  0  0  0  0  0
   51.0610   31.5510   38.2240 C   0  0  0  0  0  0  0  0  0  0  0  0
   52.3620   31.1810   37.9370 C   0  0  0  0  0  0  0  0  0  0  0  0
   53.2880   31.0710   38.9710 C   0  0  0  0  0  0  0  0  0  0  0  0
   52.8580   31.3400   40.2560 C   0  0  0  0  0  0  0  0  0  0  0  0
   51.5580   31.7150   40.5820 C   0  0  0  0  0  0  0  0  0  0  0  0
   50.6610   31.8160   39.5330 C   0  0  0  0  0  0  0  0  0  0  0  0
   46.4581   30.9957   41.7110 H   0  0  0  0  0  0  0  0  0  0  0  0
   44.0582   31.5514   41.7196 H   0  0  0  0  0  0  0  0  0  0  0  0
   45.0628   35.6184   41.0617 H   0  0  0  0  0  0  0  0  0  0  0  0
   47.4607   35.1159   41.0413 H   0  0  0  0  0  0  0  0  0  0  0  0
   39.8588   32.5143   41.1658 H   0  0  0  0  0  0  0  0  0  0  0  0
   42.3028   31.8741   41.1110 H   0  0  0  0  0  0  0  0  0  0  0  0
   40.9464   36.5553   41.7387 H   0  0  0  0  0  0  0  0  0  0  0  0
   47.4616   32.5598   38.8936 H   0  0  0  0  0  0  0  0  0  0  0  0
   48.1122   32.1039   36.5655 H   0  0  0  0  0  0  0  0  0  0  0  0
   50.5107   31.4370   36.1347 H   0  0  0  0  0  0  0  0  0  0  0  0
   52.6633   30.9750   36.8993 H   0  0  0  0  0  0  0  0  0  0  0  0
   54.3295   30.7790   38.7709 H   0  0  0  0  0  0  0  0  0  0  0  0
   53.5892   31.2523   41.0731 H   0  0  0  0  0  0  0  0  0  0  0  0
   51.2588   31.9206   41.6204 H   0  0  0  0  0  0  0  0  0  0  0  0
  1 13  1  0
  1  2  2  0
  2  3  1  0
  4  9  1  0
  4  3  2  0
  5  4  1  0
  6  5  2  0
  6  1  1  0
  7 12  2  0
  8  7  1  0
  8  9  2  0
  9 10  1  0
 10 11  2  0
 12 11  1  0
 13 14  2  0
 13 15  2  0
 16 13  1  0
 17 16  2  0
 18 17  1  0
 19 18  2  0
 19 20  1  0
 20 25  2  0
 21 20  1  0
 21 22  2  0
 22 23  1  0
 23 24  2  0
 25 16  1  0
 25 24  1  0
  2 26  1  0
  3 27  1  0
  5 28  1  0
  6 29  1  0
  7 30  1  0
  8 31  1  0
 11 32  1  0
 17 33  1  0
 18 34  1  0
 19 35  1  0
 21 36  1  0
 22 37  1  0
 23 38  1  0
 24 39  1  0
M  ISO  8  26  14  27  14  28  14  29  14  30  14  31  14  32  14  33  14
M  ISO  6  34  14  35  14  36  14  37  14  38  14  39  14
M  END
>  <minimizedAffinity>  (1) 
-4.96380091

>  <minimizedRMSD>  (1) 
3.85189056

$$$$
