
     RDKit          3D

 28 30  0  0  0  0  0  0  0  0999 V2000
   47.5360   33.9330   39.5290 C   0  0  0  0  0  0  0  0  0  0  0  0
   46.3070   33.4780   39.8950 C   0  0  0  0  0  0  0  0  0  0  0  0
   45.7420   33.7630   41.1230 C   0  0  0  0  0  0  0  0  0  0  0  0
   46.4330   34.5310   42.0160 C   0  0  0  0  0  0  0  0  0  0  0  0
   47.6660   34.9840   41.6420 C   0  0  0  0  0  0  0  0  0  0  0  0
   48.2530   34.7220   40.4390 C   0  0  0  0  0  0  0  0  0  0  0  0
   44.4600   36.1500   44.8150 C   0  0  0  0  0  0  0  0  0  0  0  0
   45.0360   35.9670   43.5310 C   0  0  0  0  0  0  0  0  0  0  0  0
   45.7970   34.8120   43.2950 C   0  0  0  0  0  0  0  0  0  0  0  0
   45.9530   33.9170   44.2920 N   0  0  0  0  0  0  0  0  0  0  0  0
   45.3830   34.1280   45.5140 C   0  0  0  0  0  0  0  0  0  0  0  0
   44.6500   35.2300   45.7580 N   0  0  0  0  0  0  0  0  0  0  0  0
   48.2090   33.5190   37.9580 S   0  0  0  0  0  0  0  0  0  0  0  0
   48.5500   34.8350   37.2530 O   0  0  0  0  0  0  0  0  0  0  0  0
   49.4120   32.6630   38.1020 O   0  0  0  0  0  0  0  0  0  0  0  0
   46.9720   32.7060   37.0310 C   0  0  0  0  0  0  0  0  0  0  0  0
   45.8360   33.1480   36.4610 N   0  0  0  0  0  0  0  0  0  0  0  0
   45.2220   32.1930   35.8720 O   0  0  0  0  0  0  0  0  0  0  0  0
   45.9000   31.0680   36.0100 C   0  0  0  0  0  0  0  0  0  0  0  0
   46.9880   31.3940   36.7320 N   0  0  0  0  0  0  0  0  0  0  0  0
   45.7405   32.8582   39.1844 H   0  0  0  0  0  0  0  0  0  0  0  0
   44.7450   33.3750   41.3790 H   0  0  0  0  0  0  0  0  0  0  0  0
   48.2240   35.6026   42.3603 H   0  0  0  0  0  0  0  0  0  0  0  0
   49.2505   35.1147   40.1925 H   0  0  0  0  0  0  0  0  0  0  0  0
   43.8601   37.0467   45.0297 H   0  0  0  0  0  0  0  0  0  0  0  0
   44.8890   36.7147   42.7377 H   0  0  0  0  0  0  0  0  0  0  0  0
   45.5251   33.3851   46.3127 H   0  0  0  0  0  0  0  0  0  0  0  0
   45.6323   30.0756   35.6182 H   0  0  0  0  0  0  0  0  0  0  0  0
  1  2  2  0
  1  6  1  0
  2  3  1  0
  3  4  2  0
  4  9  1  0
  5  4  1  0
  6  5  2  0
  7 12  2  0
  8  7  1  0
  9  8  2  0
  9 10  1  0
 10 11  2  0
 11 12  1  0
 13 15  2  0
 13  1  1  0
 14 13  2  0
 16 13  1  0
 17 16  2  0
 18 19  1  0
 18 17  1  0
 19 20  2  0
 20 16  1  0
  2 21  1  0
  3 22  1  0
  5 23  1  0
  6 24  1  0
  7 25  1  0
  8 26  1  0
 11 27  1  0
 19 28  1  0
M  ISO  8  21  14  22  14  23  14  24  14  25  14  26  14  27  14  28  14
M  END
>  <minimizedAffinity>  (1) 
-5.51213789

>  <minimizedRMSD>  (1) 
3.22063756

$$$$
