
     RDKit          3D

 39 42  0  0  0  0  0  0  0  0999 V2000
   47.5690   33.9580   39.5370 C   0  0  0  0  0  0  0  0  0  0  0  0
   46.3630   33.4610   39.9030 C   0  0  0  0  0  0  0  0  0  0  0  0
   45.7990   33.7310   41.1380 C   0  0  0  0  0  0  0  0  0  0  0  0
   46.4740   34.5250   42.0220 C   0  0  0  0  0  0  0  0  0  0  0  0
   47.6810   35.0170   41.6450 C   0  0  0  0  0  0  0  0  0  0  0  0
   48.2690   34.7740   40.4390 C   0  0  0  0  0  0  0  0  0  0  0  0
   44.4580   36.0700   44.8430 C   0  0  0  0  0  0  0  0  0  0  0  0
   45.0430   35.9130   43.5580 C   0  0  0  0  0  0  0  0  0  0  0  0
   45.8310   34.7760   43.3100 C   0  0  0  0  0  0  0  0  0  0  0  0
   46.0090   33.8720   44.2930 N   0  0  0  0  0  0  0  0  0  0  0  0
   45.4290   34.0570   45.5200 C   0  0  0  0  0  0  0  0  0  0  0  0
   44.6770   35.1340   45.7710 N   0  0  0  0  0  0  0  0  0  0  0  0
   48.2510   33.5850   37.9490 S   0  0  0  0  0  0  0  0  0  0  0  0
   48.8030   34.8840   37.3690 O   0  0  0  0  0  0  0  0  0  0  0  0
   49.3120   32.5530   38.0680 O   0  0  0  0  0  0  0  0  0  0  0  0
   46.9510   33.0310   36.9220 C   0  0  0  0  0  0  0  0  0  0  0  0
   45.6850   33.4300   36.7830 N   0  0  0  0  0  0  0  0  0  0  0  0
   45.0770   32.7400   35.9080 O   0  0  0  0  0  0  0  0  0  0  0  0
   45.8920   31.8210   35.3930 C   0  0  0  0  0  0  0  0  0  0  0  0
   47.0610   32.0280   36.0490 N   0  0  0  0  0  0  0  0  0  0  0  0
   45.5960   30.8480   34.3820 N   0  0  0  0  0  0  0  0  0  0  0  0
   46.6250   30.4740   33.6050 C   0  0  0  0  0  0  0  0  0  0  0  0
   46.3820   29.5400   32.6240 C   0  0  0  0  0  0  0  0  0  0  0  0
   45.0830   29.0890   32.5520 C   0  0  0  0  0  0  0  0  0  0  0  0
   44.7370   28.1250   31.5740 N   0  0  0  0  0  0  0  0  0  0  0  0
   44.0810   29.5030   33.3670 N   0  0  0  0  0  0  0  0  0  0  0  0
   44.3240   30.4160   34.3250 C   0  0  0  0  0  0  0  0  0  0  0  0
   43.4620   30.8560   35.1200 O   0  0  0  0  0  0  0  0  0  0  0  0
   45.8140   32.8220   39.1957 H   0  0  0  0  0  0  0  0  0  0  0  0
   44.8180   33.3109   41.4049 H   0  0  0  0  0  0  0  0  0  0  0  0
   48.2214   35.6546   42.3602 H   0  0  0  0  0  0  0  0  0  0  0  0
   49.2507   35.1996   40.1838 H   0  0  0  0  0  0  0  0  0  0  0  0
   43.8350   36.9476   45.0702 H   0  0  0  0  0  0  0  0  0  0  0  0
   44.8824   36.6664   42.7727 H   0  0  0  0  0  0  0  0  0  0  0  0
   45.5841   33.3084   46.3109 H   0  0  0  0  0  0  0  0  0  0  0  0
   47.6290   30.9000   33.7478 H   0  0  0  0  0  0  0  0  0  0  0  0
   47.1694   29.1794   31.9457 H   0  0  0  0  0  0  0  0  0  0  0  0
   43.7685   27.7803   31.5107 H   0  0  0  0  0  0  0  0  0  0  0  0
   45.4539   27.7686   30.9260 H   0  0  0  0  0  0  0  0  0  0  0  0
  1  2  2  0
  1  6  1  0
  2  3  1  0
  3  4  2  0
  4  9  1  0
  5  4  1  0
  6  5  2  0
  7 12  2  0
  8  7  1  0
  9  8  2  0
  9 10  1  0
 10 11  2  0
 11 12  1  0
 13 15  2  0
 13  1  1  0
 14 13  2  0
 16 13  1  0
 17 16  2  0
 18 17  1  0
 19 18  1  0
 19 20  2  0
 20 16  1  0
 21 19  1  0
 22 21  1  0
 23 22  2  0
 24 23  1  0
 24 26  2  0
 25 24  1  0
 26 27  1  0
 27 21  1  0
 27 28  2  0
  2 29  1  0
  3 30  1  0
  5 31  1  0
  6 32  1  0
  7 33  1  0
  8 34  1  0
 11 35  1  0
 22 36  1  0
 23 37  1  0
 25 38  1  0
 25 39  1  0
M  ISO  8  29  14  30  14  31  14  32  14  33  14  34  14  35  14  36  14
M  ISO  1  37  14
M  END
>  <minimizedAffinity>  (1) 
-7.09225845

>  <minimizedRMSD>  (1) 
1.21727085

$$$$
