
     RDKit          3D

 34 37  0  0  0  0  0  0  0  0999 V2000
   47.6310   33.9600   39.5370 C   0  0  0  0  0  0  0  0  0  0  0  0
   46.4480   33.4220   39.9150 C   0  0  0  0  0  0  0  0  0  0  0  0
   45.8660   33.6800   41.1420 C   0  0  0  0  0  0  0  0  0  0  0  0
   46.4910   34.5060   42.0250 C   0  0  0  0  0  0  0  0  0  0  0  0
   47.6880   35.0470   41.6360 C   0  0  0  0  0  0  0  0  0  0  0  0
   48.2910   34.8130   40.4340 C   0  0  0  0  0  0  0  0  0  0  0  0
   44.4570   36.0180   44.8340 C   0  0  0  0  0  0  0  0  0  0  0  0
   45.0470   35.8600   43.5570 C   0  0  0  0  0  0  0  0  0  0  0  0
   45.8480   34.7490   43.3010 C   0  0  0  0  0  0  0  0  0  0  0  0
   46.0380   33.8480   44.2930 N   0  0  0  0  0  0  0  0  0  0  0  0
   45.4610   34.0180   45.5150 C   0  0  0  0  0  0  0  0  0  0  0  0
   44.6840   35.0960   45.7640 N   0  0  0  0  0  0  0  0  0  0  0  0
   48.3280   33.5980   37.9580 S   0  0  0  0  0  0  0  0  0  0  0  0
   48.8570   34.9030   37.3820 O   0  0  0  0  0  0  0  0  0  0  0  0
   49.4110   32.5770   38.0830 O   0  0  0  0  0  0  0  0  0  0  0  0
   47.0430   33.0100   36.9230 C   0  0  0  0  0  0  0  0  0  0  0  0
   45.7370   33.3310   36.8520 N   0  0  0  0  0  0  0  0  0  0  0  0
   45.1630   32.6480   35.9410 O   0  0  0  0  0  0  0  0  0  0  0  0
   46.0240   31.8480   35.3600 C   0  0  0  0  0  0  0  0  0  0  0  0
   47.2150   32.0640   35.9680 N   0  0  0  0  0  0  0  0  0  0  0  0
   45.8970   30.9000   34.3080 N   0  0  0  0  0  0  0  0  0  0  0  0
   46.9540   30.7160   33.4690 C   0  0  0  0  0  0  0  0  0  0  0  0
   46.6930   29.7950   32.5280 N   0  0  0  0  0  0  0  0  0  0  0  0
   45.4170   29.3940   32.7970 C   0  0  0  0  0  0  0  0  0  0  0  0
   44.9360   30.0650   33.8780 N   0  0  0  0  0  0  0  0  0  0  0  0
   45.9275   32.7508   39.2160 H   0  0  0  0  0  0  0  0  0  0  0  0
   44.9018   33.2197   41.4037 H   0  0  0  0  0  0  0  0  0  0  0  0
   48.1994   35.7175   42.3424 H   0  0  0  0  0  0  0  0  0  0  0  0
   49.2561   35.2750   40.1789 H   0  0  0  0  0  0  0  0  0  0  0  0
   43.8216   36.8888   45.0529 H   0  0  0  0  0  0  0  0  0  0  0  0
   44.8741   36.6101   42.7712 H   0  0  0  0  0  0  0  0  0  0  0  0
   45.6286   33.2720   46.3059 H   0  0  0  0  0  0  0  0  0  0  0  0
   47.9078   31.2575   33.5525 H   0  0  0  0  0  0  0  0  0  0  0  0
   44.8591   28.6389   32.2238 H   0  0  0  0  0  0  0  0  0  0  0  0
  1  2  2  0
  1  6  1  0
  2  3  1  0
  3  4  2  0
  4  9  1  0
  5  4  1  0
  6  5  2  0
  7 12  2  0
  8  7  1  0
  9  8  2  0
  9 10  1  0
 10 11  2  0
 11 12  1  0
 13 15  2  0
 13  1  1  0
 14 13  2  0
 16 13  1  0
 17 16  2  0
 18 17  1  0
 19 18  1  0
 19 20  2  0
 20 16  1  0
 21 19  1  0
 22 21  1  0
 23 24  1  0
 23 22  2  0
 24 25  2  0
 25 21  1  0
  2 26  1  0
  3 27  1  0
  5 28  1  0
  6 29  1  0
  7 30  1  0
  8 31  1  0
 11 32  1  0
 22 33  1  0
 24 34  1  0
M  ISO  8  26  14  27  14  28  14  29  14  30  14  31  14  32  14  33  14
M  ISO  1  34  14
M  END
>  <minimizedAffinity>  (1) 
-6.54919338

>  <minimizedRMSD>  (1) 
1.14624953

$$$$
