
     RDKit          3D

 35 38  0  0  0  0  0  0  0  0999 V2000
   47.5990   33.9770   39.5540 C   0  0  0  0  0  0  0  0  0  0  0  0
   46.3930   33.4740   39.9240 C   0  0  0  0  0  0  0  0  0  0  0  0
   45.8170   33.7300   41.1470 C   0  0  0  0  0  0  0  0  0  0  0  0
   46.4760   34.5260   42.0470 C   0  0  0  0  0  0  0  0  0  0  0  0
   47.6950   35.0310   41.6680 C   0  0  0  0  0  0  0  0  0  0  0  0
   48.2900   34.7980   40.4720 C   0  0  0  0  0  0  0  0  0  0  0  0
   44.4560   36.0670   44.8540 C   0  0  0  0  0  0  0  0  0  0  0  0
   45.0460   35.8970   43.5820 C   0  0  0  0  0  0  0  0  0  0  0  0
   45.8340   34.7730   43.3280 C   0  0  0  0  0  0  0  0  0  0  0  0
   46.0170   33.8580   44.3160 N   0  0  0  0  0  0  0  0  0  0  0  0
   45.4290   34.0570   45.5350 C   0  0  0  0  0  0  0  0  0  0  0  0
   44.6720   35.1320   45.7890 N   0  0  0  0  0  0  0  0  0  0  0  0
   48.2800   33.6120   37.9770 S   0  0  0  0  0  0  0  0  0  0  0  0
   48.8080   34.9200   37.3870 O   0  0  0  0  0  0  0  0  0  0  0  0
   49.3860   32.6190   38.0910 O   0  0  0  0  0  0  0  0  0  0  0  0
   47.0030   33.0210   36.9580 C   0  0  0  0  0  0  0  0  0  0  0  0
   45.7150   33.3520   36.8320 N   0  0  0  0  0  0  0  0  0  0  0  0
   45.1320   32.6450   35.9400 O   0  0  0  0  0  0  0  0  0  0  0  0
   46.0010   31.7910   35.4100 C   0  0  0  0  0  0  0  0  0  0  0  0
   47.1500   32.0330   36.0440 N   0  0  0  0  0  0  0  0  0  0  0  0
   45.7340   30.8290   34.3790 N   0  0  0  0  0  0  0  0  0  0  0  0
   44.5280   30.4140   34.0730 N   0  0  0  0  0  0  0  0  0  0  0  0
   44.6070   29.5160   33.0680 C   0  0  0  0  0  0  0  0  0  0  0  0
   45.9700   29.4020   32.7700 C   0  0  0  0  0  0  0  0  0  0  0  0
   46.6780   30.2520   33.6210 C   0  0  0  0  0  0  0  0  0  0  0  0
   45.8517   32.8323   39.2132 H   0  0  0  0  0  0  0  0  0  0  0  0
   44.8367   33.2998   41.4000 H   0  0  0  0  0  0  0  0  0  0  0  0
   48.2277   35.6711   42.3867 H   0  0  0  0  0  0  0  0  0  0  0  0
   49.2711   35.2309   40.2268 H   0  0  0  0  0  0  0  0  0  0  0  0
   43.8333   36.9471   45.0721 H   0  0  0  0  0  0  0  0  0  0  0  0
   44.8851   36.6477   42.7942 H   0  0  0  0  0  0  0  0  0  0  0  0
   45.5825   33.3122   46.3298 H   0  0  0  0  0  0  0  0  0  0  0  0
   43.7741   28.9847   32.5842 H   0  0  0  0  0  0  0  0  0  0  0  0
   46.4082   28.7533   31.9972 H   0  0  0  0  0  0  0  0  0  0  0  0
   47.7655   30.4125   33.6610 H   0  0  0  0  0  0  0  0  0  0  0  0
  1  2  2  0
  1  6  1  0
  2  3  1  0
  3  4  2  0
  4  9  1  0
  5  4  1  0
  6  5  2  0
  7 12  2  0
  8  7  1  0
  9  8  2  0
  9 10  1  0
 10 11  2  0
 11 12  1  0
 13 15  2  0
 13  1  1  0
 14 13  2  0
 16 13  1  0
 17 16  2  0
 18 17  1  0
 19 18  1  0
 19 20  2  0
 20 16  1  0
 21 19  1  0
 22 21  1  0
 23 22  2  0
 24 23  1  0
 24 25  2  0
 25 21  1  0
  2 26  1  0
  3 27  1  0
  5 28  1  0
  6 29  1  0
  7 30  1  0
  8 31  1  0
 11 32  1  0
 23 33  1  0
 24 34  1  0
 25 35  1  0
M  ISO  8  26  14  27  14  28  14  29  14  30  14  31  14  32  14  33  14
M  ISO  2  34  14  35  14
M  END
>  <minimizedAffinity>  (1) 
-6.45905685

>  <minimizedRMSD>  (1) 
0.966327488

$$$$
