
     RDKit          3D

 36 39  0  0  0  0  0  0  0  0999 V2000
   47.5950   33.9710   39.5450 C   0  0  0  0  0  0  0  0  0  0  0  0
   46.3860   33.4720   39.9120 C   0  0  0  0  0  0  0  0  0  0  0  0
   45.8140   33.7370   41.1390 C   0  0  0  0  0  0  0  0  0  0  0  0
   46.4880   34.5370   42.0290 C   0  0  0  0  0  0  0  0  0  0  0  0
   47.6940   35.0320   41.6570 C   0  0  0  0  0  0  0  0  0  0  0  0
   48.2800   34.7840   40.4500 C   0  0  0  0  0  0  0  0  0  0  0  0
   44.4560   36.0660   44.8470 C   0  0  0  0  0  0  0  0  0  0  0  0
   45.0480   35.9150   43.5580 C   0  0  0  0  0  0  0  0  0  0  0  0
   45.8380   34.7850   43.3140 C   0  0  0  0  0  0  0  0  0  0  0  0
   46.0150   33.8780   44.3030 N   0  0  0  0  0  0  0  0  0  0  0  0
   45.4340   34.0530   45.5260 C   0  0  0  0  0  0  0  0  0  0  0  0
   44.6690   35.1430   45.7690 N   0  0  0  0  0  0  0  0  0  0  0  0
   48.2810   33.6000   37.9600 S   0  0  0  0  0  0  0  0  0  0  0  0
   48.8040   34.9000   37.3690 O   0  0  0  0  0  0  0  0  0  0  0  0
   49.3520   32.5740   38.0810 O   0  0  0  0  0  0  0  0  0  0  0  0
   46.9820   33.0180   36.9430 C   0  0  0  0  0  0  0  0  0  0  0  0
   45.6890   33.3910   36.8260 N   0  0  0  0  0  0  0  0  0  0  0  0
   45.0960   32.6720   35.9370 O   0  0  0  0  0  0  0  0  0  0  0  0
   45.9350   31.8030   35.4260 C   0  0  0  0  0  0  0  0  0  0  0  0
   47.1000   32.0150   36.0450 N   0  0  0  0  0  0  0  0  0  0  0  0
   45.6450   30.8120   34.3920 C   0  0  0  0  0  0  0  0  0  0  0  0
   44.3810   30.2600   34.3140 C   0  0  0  0  0  0  0  0  0  0  0  0
   44.2070   29.3350   33.3050 C   0  0  0  0  0  0  0  0  0  0  0  0
   45.2060   29.0040   32.4670 N   0  0  0  0  0  0  0  0  0  0  0  0
   46.4360   29.5540   32.5580 C   0  0  0  0  0  0  0  0  0  0  0  0
   46.6190   30.4550   33.5340 N   0  0  0  0  0  0  0  0  0  0  0  0
   45.8416   32.8313   39.2027 H   0  0  0  0  0  0  0  0  0  0  0  0
   44.8329   33.3140   41.4007 H   0  0  0  0  0  0  0  0  0  0  0  0
   48.2326   35.6721   42.3712 H   0  0  0  0  0  0  0  0  0  0  0  0
   49.2617   35.2114   40.1978 H   0  0  0  0  0  0  0  0  0  0  0  0
   43.8288   36.9414   45.0714 H   0  0  0  0  0  0  0  0  0  0  0  0
   44.8875   36.6692   42.7735 H   0  0  0  0  0  0  0  0  0  0  0  0
   45.5882   33.3049   46.3175 H   0  0  0  0  0  0  0  0  0  0  0  0
   43.5722   30.5377   35.0059 H   0  0  0  0  0  0  0  0  0  0  0  0
   43.2248   28.8552   33.1825 H   0  0  0  0  0  0  0  0  0  0  0  0
   47.2459   29.2771   31.8671 H   0  0  0  0  0  0  0  0  0  0  0  0
  1  2  2  0
  1  6  1  0
  2  3  1  0
  3  4  2  0
  4  9  1  0
  5  4  1  0
  6  5  2  0
  7 12  2  0
  8  7  1  0
  9  8  2  0
  9 10  1  0
 10 11  2  0
 11 12  1  0
 13 15  2  0
 13  1  1  0
 14 13  2  0
 16 13  1  0
 17 16  2  0
 18 17  1  0
 19 18  1  0
 19 20  2  0
 20 16  1  0
 21 19  1  0
 22 21  2  0
 23 22  1  0
 24 25  1  0
 24 23  2  0
 25 26  2  0
 26 21  1  0
  2 27  1  0
  3 28  1  0
  5 29  1  0
  6 30  1  0
  7 31  1  0
  8 32  1  0
 11 33  1  0
 22 34  1  0
 23 35  1  0
 25 36  1  0
M  ISO  8  27  14  28  14  29  14  30  14  31  14  32  14  33  14  34  14
M  ISO  2  35  14  36  14
M  END
>  <minimizedAffinity>  (1) 
-6.40844393

>  <minimizedRMSD>  (1) 
1.12987196

$$$$
