
     RDKit          3D

 33 36  0  0  0  0  0  0  0  0999 V2000
   47.6040   33.9810   39.5460 C   0  0  0  0  0  0  0  0  0  0  0  0
   46.4010   33.4710   39.9010 C   0  0  0  0  0  0  0  0  0  0  0  0
   45.8280   33.7340   41.1280 C   0  0  0  0  0  0  0  0  0  0  0  0
   46.4720   34.5270   42.0290 C   0  0  0  0  0  0  0  0  0  0  0  0
   47.6930   35.0390   41.6560 C   0  0  0  0  0  0  0  0  0  0  0  0
   48.2930   34.8020   40.4530 C   0  0  0  0  0  0  0  0  0  0  0  0
   44.4580   36.0660   44.8290 C   0  0  0  0  0  0  0  0  0  0  0  0
   45.0390   35.9170   43.5490 C   0  0  0  0  0  0  0  0  0  0  0  0
   45.8290   34.7770   43.3110 C   0  0  0  0  0  0  0  0  0  0  0  0
   46.0020   33.8810   44.2920 N   0  0  0  0  0  0  0  0  0  0  0  0
   45.4240   34.0630   45.5120 C   0  0  0  0  0  0  0  0  0  0  0  0
   44.6640   35.1420   45.7690 N   0  0  0  0  0  0  0  0  0  0  0  0
   48.2950   33.6130   37.9620 S   0  0  0  0  0  0  0  0  0  0  0  0
   48.8440   34.9140   37.3890 O   0  0  0  0  0  0  0  0  0  0  0  0
   49.3770   32.5960   38.0890 O   0  0  0  0  0  0  0  0  0  0  0  0
   47.0170   33.0390   36.9320 C   0  0  0  0  0  0  0  0  0  0  0  0
   45.7050   33.3530   36.8570 N   0  0  0  0  0  0  0  0  0  0  0  0
   45.1270   32.6770   35.9390 O   0  0  0  0  0  0  0  0  0  0  0  0
   45.9990   31.8820   35.3510 C   0  0  0  0  0  0  0  0  0  0  0  0
   47.1600   32.1180   35.9760 N   0  0  0  0  0  0  0  0  0  0  0  0
   45.8370   30.9220   34.2560 C   0  0  0  0  0  0  0  0  0  0  0  0
   44.7990   30.2760   33.7090 N   0  0  0  0  0  0  0  0  0  0  0  0
   45.2130   29.5200   32.7350 O   0  0  0  0  0  0  0  0  0  0  0  0
   46.5150   29.6380   32.6080 C   0  0  0  0  0  0  0  0  0  0  0  0
   46.9180   30.5120   33.5520 N   0  0  0  0  0  0  0  0  0  0  0  0
   45.8640   32.8271   39.1890 H   0  0  0  0  0  0  0  0  0  0  0  0
   44.8481   33.3020   41.3795 H   0  0  0  0  0  0  0  0  0  0  0  0
   48.2212   35.6824   42.3751 H   0  0  0  0  0  0  0  0  0  0  0  0
   49.2732   35.2352   40.2051 H   0  0  0  0  0  0  0  0  0  0  0  0
   43.8351   36.9452   45.0504 H   0  0  0  0  0  0  0  0  0  0  0  0
   44.8785   36.6694   42.7628 H   0  0  0  0  0  0  0  0  0  0  0  0
   45.5819   33.3134   46.3014 H   0  0  0  0  0  0  0  0  0  0  0  0
   47.1527   29.1236   31.8740 H   0  0  0  0  0  0  0  0  0  0  0  0
  1  2  2  0
  1  6  1  0
  2  3  1  0
  3  4  2  0
  4  9  1  0
  5  4  1  0
  6  5  2  0
  7 12  2  0
  8  7  1  0
  9  8  2  0
  9 10  1  0
 10 11  2  0
 11 12  1  0
 13 15  2  0
 13  1  1  0
 14 13  2  0
 16 13  1  0
 17 16  2  0
 18 17  1  0
 19 18  1  0
 19 20  2  0
 20 16  1  0
 21 19  1  0
 22 21  2  0
 23 22  1  0
 24 23  1  0
 24 25  2  0
 25 21  1  0
  2 26  1  0
  3 27  1  0
  5 28  1  0
  6 29  1  0
  7 30  1  0
  8 31  1  0
 11 32  1  0
 24 33  1  0
M  ISO  8  26  14  27  14  28  14  29  14  30  14  31  14  32  14  33  14
M  END
>  <minimizedAffinity>  (1) 
-6.29113436

>  <minimizedRMSD>  (1) 
1.31714571

$$$$
