
     RDKit          3D

 35 38  0  0  0  0  0  0  0  0999 V2000
   47.6030   33.9700   39.5210 C   0  0  0  0  0  0  0  0  0  0  0  0
   46.3910   33.4740   39.8860 C   0  0  0  0  0  0  0  0  0  0  0  0
   45.8130   33.7420   41.1110 C   0  0  0  0  0  0  0  0  0  0  0  0
   46.4710   34.5370   42.0020 C   0  0  0  0  0  0  0  0  0  0  0  0
   47.6890   35.0330   41.6300 C   0  0  0  0  0  0  0  0  0  0  0  0
   48.2850   34.7860   40.4310 C   0  0  0  0  0  0  0  0  0  0  0  0
   44.4560   36.0880   44.8080 C   0  0  0  0  0  0  0  0  0  0  0  0
   45.0400   35.9330   43.5240 C   0  0  0  0  0  0  0  0  0  0  0  0
   45.8240   34.7950   43.2810 C   0  0  0  0  0  0  0  0  0  0  0  0
   45.9880   33.9010   44.2700 N   0  0  0  0  0  0  0  0  0  0  0  0
   45.4110   34.0840   45.4890 C   0  0  0  0  0  0  0  0  0  0  0  0
   44.6550   35.1700   45.7420 N   0  0  0  0  0  0  0  0  0  0  0  0
   48.2920   33.5900   37.9390 S   0  0  0  0  0  0  0  0  0  0  0  0
   48.8180   34.8980   37.3580 O   0  0  0  0  0  0  0  0  0  0  0  0
   49.3630   32.5740   38.0780 O   0  0  0  0  0  0  0  0  0  0  0  0
   47.0050   33.0010   36.9220 C   0  0  0  0  0  0  0  0  0  0  0  0
   45.7000   33.3510   36.8250 N   0  0  0  0  0  0  0  0  0  0  0  0
   45.1130   32.6360   35.9280 O   0  0  0  0  0  0  0  0  0  0  0  0
   45.9650   31.8020   35.4000 C   0  0  0  0  0  0  0  0  0  0  0  0
   47.1300   32.0260   36.0110 N   0  0  0  0  0  0  0  0  0  0  0  0
   45.7400   30.7850   34.3300 C   0  0  0  0  0  0  0  0  0  0  0  0
   46.6370   30.3540   33.4590 C   0  0  0  0  0  0  0  0  0  0  0  0
   46.2880   29.4150   32.5300 C   0  0  0  0  0  0  0  0  0  0  0  0
   44.8960   28.9680   32.6050 C   0  0  0  0  0  0  0  0  0  0  0  0
   44.2520   29.9970   34.0530 S   0  0  0  0  0  0  0  0  0  0  0  0
   45.8483   32.8326   39.1760 H   0  0  0  0  0  0  0  0  0  0  0  0
   44.8305   33.3179   41.3657 H   0  0  0  0  0  0  0  0  0  0  0  0
   48.2231   35.6742   42.3467 H   0  0  0  0  0  0  0  0  0  0  0  0
   49.2687   35.2130   40.1859 H   0  0  0  0  0  0  0  0  0  0  0  0
   43.8378   36.9709   45.0278 H   0  0  0  0  0  0  0  0  0  0  0  0
   44.8819   36.6866   42.7384 H   0  0  0  0  0  0  0  0  0  0  0  0
   45.5642   33.3342   46.2792 H   0  0  0  0  0  0  0  0  0  0  0  0
   47.6626   30.7510   33.4825 H   0  0  0  0  0  0  0  0  0  0  0  0
   46.9970   29.0256   31.7845 H   0  0  0  0  0  0  0  0  0  0  0  0
   44.3665   28.2302   31.9843 H   0  0  0  0  0  0  0  0  0  0  0  0
  1  2  2  0
  1  6  1  0
  2  3  1  0
  3  4  2  0
  4  9  1  0
  5  4  1  0
  6  5  2  0
  7 12  2  0
  8  7  1  0
  9  8  2  0
  9 10  1  0
 10 11  2  0
 11 12  1  0
 13 15  2  0
 13  1  1  0
 14 13  2  0
 16 13  1  0
 17 16  2  0
 18 17  1  0
 19 18  1  0
 19 20  2  0
 20 16  1  0
 21 19  1  0
 22 21  2  0
 23 24  2  0
 23 22  1  0
 24 25  1  0
 25 21  1  0
  2 26  1  0
  3 27  1  0
  5 28  1  0
  6 29  1  0
  7 30  1  0
  8 31  1  0
 11 32  1  0
 22 33  1  0
 23 34  1  0
 24 35  1  0
M  ISO  8  26  14  27  14  28  14  29  14  30  14  31  14  32  14  33  14
M  ISO  2  34  14  35  14
M  END
>  <minimizedAffinity>  (1) 
-6.25197649

>  <minimizedRMSD>  (1) 
1.11355853

$$$$
