
     RDKit          3D

 34 37  0  0  0  0  0  0  0  0999 V2000
   47.6050   33.9590   39.5400 C   0  0  0  0  0  0  0  0  0  0  0  0
   46.4010   33.4280   39.9190 C   0  0  0  0  0  0  0  0  0  0  0  0
   45.8310   33.6850   41.1470 C   0  0  0  0  0  0  0  0  0  0  0  0
   46.4740   34.4970   42.0320 C   0  0  0  0  0  0  0  0  0  0  0  0
   47.6820   35.0280   41.6470 C   0  0  0  0  0  0  0  0  0  0  0  0
   48.2750   34.7960   40.4430 C   0  0  0  0  0  0  0  0  0  0  0  0
   44.4610   36.0350   44.8430 C   0  0  0  0  0  0  0  0  0  0  0  0
   45.0400   35.8780   43.5630 C   0  0  0  0  0  0  0  0  0  0  0  0
   45.8400   34.7420   43.3110 C   0  0  0  0  0  0  0  0  0  0  0  0
   46.0280   33.8390   44.3000 N   0  0  0  0  0  0  0  0  0  0  0  0
   45.4490   34.0270   45.5280 C   0  0  0  0  0  0  0  0  0  0  0  0
   44.6830   35.1060   45.7850 N   0  0  0  0  0  0  0  0  0  0  0  0
   48.2920   33.5980   37.9560 S   0  0  0  0  0  0  0  0  0  0  0  0
   48.8130   34.9060   37.3800 O   0  0  0  0  0  0  0  0  0  0  0  0
   49.3700   32.5720   38.0790 O   0  0  0  0  0  0  0  0  0  0  0  0
   47.0070   33.0060   36.9370 C   0  0  0  0  0  0  0  0  0  0  0  0
   45.7300   33.3600   36.7960 N   0  0  0  0  0  0  0  0  0  0  0  0
   45.1260   32.6590   35.9330 O   0  0  0  0  0  0  0  0  0  0  0  0
   45.9610   31.7660   35.4180 C   0  0  0  0  0  0  0  0  0  0  0  0
   47.1060   32.0070   36.0560 N   0  0  0  0  0  0  0  0  0  0  0  0
   45.6870   30.7450   34.3830 C   0  0  0  0  0  0  0  0  0  0  0  0
   44.4090   30.0120   34.2570 C   0  0  0  0  0  0  0  0  0  0  0  0
   44.7260   28.9350   32.8170 S   0  0  0  0  0  0  0  0  0  0  0  0
   46.4720   29.6140   32.6090 C   0  0  0  0  0  0  0  0  0  0  0  0
   46.6010   30.4310   33.4910 N   0  0  0  0  0  0  0  0  0  0  0  0
   45.8682   32.7708   39.2160 H   0  0  0  0  0  0  0  0  0  0  0  0
   44.8618   33.2368   41.4113 H   0  0  0  0  0  0  0  0  0  0  0  0
   48.2046   35.6840   42.3587 H   0  0  0  0  0  0  0  0  0  0  0  0
   49.2445   35.2490   40.1885 H   0  0  0  0  0  0  0  0  0  0  0  0
   43.8340   36.9112   45.0647 H   0  0  0  0  0  0  0  0  0  0  0  0
   44.8702   36.6281   42.7765 H   0  0  0  0  0  0  0  0  0  0  0  0
   45.6128   33.2818   46.3204 H   0  0  0  0  0  0  0  0  0  0  0  0
   43.5010   30.0943   34.8724 H   0  0  0  0  0  0  0  0  0  0  0  0
   47.2140   29.3284   31.8488 H   0  0  0  0  0  0  0  0  0  0  0  0
  1  2  2  0
  1  6  1  0
  2  3  1  0
  3  4  2  0
  4  9  1  0
  5  4  1  0
  6  5  2  0
  7 12  2  0
  8  7  1  0
  9  8  2  0
  9 10  1  0
 10 11  2  0
 11 12  1  0
 13 15  2  0
 13  1  1  0
 14 13  2  0
 16 13  1  0
 17 16  2  0
 18 17  1  0
 19 18  1  0
 19 20  2  0
 20 16  1  0
 21 19  1  0
 22 21  2  0
 23 22  1  0
 24 23  1  0
 24 25  2  0
 25 21  1  0
  2 26  1  0
  3 27  1  0
  5 28  1  0
  6 29  1  0
  7 30  1  0
  8 31  1  0
 11 32  1  0
 22 33  1  0
 24 34  1  0
M  ISO  8  26  14  27  14  28  14  29  14  30  14  31  14  32  14  33  14
M  ISO  1  34  14
M  END
>  <minimizedAffinity>  (1) 
-6.16123152

>  <minimizedRMSD>  (1) 
1.04918265

$$$$
