
     RDKit          3D

 44 47  0  0  0  0  0  0  0  0999 V2000
   47.5740   33.9660   39.5370 C   0  0  0  0  0  0  0  0  0  0  0  0
   46.3570   33.4580   39.9110 C   0  0  0  0  0  0  0  0  0  0  0  0
   45.7910   33.7220   41.1390 C   0  0  0  0  0  0  0  0  0  0  0  0
   46.4560   34.5170   42.0300 C   0  0  0  0  0  0  0  0  0  0  0  0
   47.6660   35.0160   41.6490 C   0  0  0  0  0  0  0  0  0  0  0  0
   48.2510   34.7760   40.4470 C   0  0  0  0  0  0  0  0  0  0  0  0
   44.4620   36.0640   44.8530 C   0  0  0  0  0  0  0  0  0  0  0  0
   45.0390   35.9080   43.5610 C   0  0  0  0  0  0  0  0  0  0  0  0
   45.8220   34.7690   43.3160 C   0  0  0  0  0  0  0  0  0  0  0  0
   45.9990   33.8710   44.3020 N   0  0  0  0  0  0  0  0  0  0  0  0
   45.4280   34.0600   45.5260 C   0  0  0  0  0  0  0  0  0  0  0  0
   44.6750   35.1420   45.7840 N   0  0  0  0  0  0  0  0  0  0  0  0
   48.2320   33.5900   37.9600 S   0  0  0  0  0  0  0  0  0  0  0  0
   48.8430   34.8890   37.4020 O   0  0  0  0  0  0  0  0  0  0  0  0
   49.2640   32.5220   38.0640 O   0  0  0  0  0  0  0  0  0  0  0  0
   46.9250   33.1080   36.9070 C   0  0  0  0  0  0  0  0  0  0  0  0
   45.6170   33.3760   36.9240 N   0  0  0  0  0  0  0  0  0  0  0  0
   45.0290   32.7990   35.9370 O   0  0  0  0  0  0  0  0  0  0  0  0
   45.9160   32.1200   35.2160 C   0  0  0  0  0  0  0  0  0  0  0  0
   47.0830   32.3260   35.8360 N   0  0  0  0  0  0  0  0  0  0  0  0
   45.5790   31.3220   33.9850 C   0  0  0  0  0  0  0  0  0  0  0  0
   44.3070   30.5470   34.1380 C   0  0  0  0  0  0  0  0  0  0  0  0
   44.4170   29.3980   35.1080 C   0  0  0  0  0  0  0  0  0  0  0  0
   45.7620   28.7560   35.1560 C   0  0  0  0  0  0  0  0  0  0  0  0
   46.6510   29.0330   33.9980 C   0  0  0  0  0  0  0  0  0  0  0  0
   46.6860   30.4430   33.5240 C   0  0  0  0  0  0  0  0  0  0  0  0
   45.8118   32.8154   39.2040 H   0  0  0  0  0  0  0  0  0  0  0  0
   44.8111   33.2961   41.4005 H   0  0  0  0  0  0  0  0  0  0  0  0
   48.2048   35.6561   42.3631 H   0  0  0  0  0  0  0  0  0  0  0  0
   49.2314   35.2087   40.1987 H   0  0  0  0  0  0  0  0  0  0  0  0
   43.8425   36.9445   45.0788 H   0  0  0  0  0  0  0  0  0  0  0  0
   44.8756   36.6603   42.7753 H   0  0  0  0  0  0  0  0  0  0  0  0
   45.5871   33.3122   46.3169 H   0  0  0  0  0  0  0  0  0  0  0  0
   45.4249   32.0716   33.1948 H   0  0  0  0  0  0  0  0  0  0  0  0
   43.5232   31.2310   34.4956 H   0  0  0  0  0  0  0  0  0  0  0  0
   44.0684   30.1182   33.1535 H   0  0  0  0  0  0  0  0  0  0  0  0
   44.1796   29.7738   36.1142 H   0  0  0  0  0  0  0  0  0  0  0  0
   43.7143   28.6265   34.7602 H   0  0  0  0  0  0  0  0  0  0  0  0
   46.2719   29.1077   36.0650 H   0  0  0  0  0  0  0  0  0  0  0  0
   45.5770   27.6718   35.1388 H   0  0  0  0  0  0  0  0  0  0  0  0
   47.6744   28.7488   34.2841 H   0  0  0  0  0  0  0  0  0  0  0  0
   46.2384   28.4496   33.1617 H   0  0  0  0  0  0  0  0  0  0  0  0
   46.6653   30.4272   32.4243 H   0  0  0  0  0  0  0  0  0  0  0  0
   47.6013   30.8742   33.9556 H   0  0  0  0  0  0  0  0  0  0  0  0
  1  2  2  0
  1  6  1  0
  2  3  1  0
  3  4  2  0
  4  9  1  0
  5  4  1  0
  6  5  2  0
  7 12  2  0
  8  7  1  0
  9  8  2  0
  9 10  1  0
 10 11  2  0
 11 12  1  0
 13 15  2  0
 13  1  1  0
 14 13  2  0
 16 17  2  0
 16 13  1  0
 18 17  1  0
 19 20  2  0
 19 18  1  0
 20 16  1  0
 21 22  1  0
 21 19  1  0
 22 23  1  0
 23 24  1  0
 25 24  1  0
 26 21  1  0
 26 25  1  0
  2 27  1  0
  3 28  1  0
  5 29  1  0
  6 30  1  0
  7 31  1  0
  8 32  1  0
 11 33  1  0
 21 34  1  0
 22 35  1  0
 22 36  1  0
 23 37  1  0
 23 38  1  0
 24 39  1  0
 24 40  1  0
 25 41  1  0
 25 42  1  0
 26 43  1  0
 26 44  1  0
M  ISO  8  27  14  28  14  29  14  30  14  31  14  32  14  33  14  34  13
M  ISO  8  35  13  36  13  37  13  38  13  39  13  40  13  41  13  42  13
M  ISO  2  43  13  44  13
M  END
>  <minimizedAffinity>  (1) 
-6.1131115

>  <minimizedRMSD>  (1) 
1.28998697

$$$$
