
     RDKit          3D

 41 44  0  0  0  0  0  0  0  0999 V2000
   47.5910   33.9420   39.5900 C   0  0  0  0  0  0  0  0  0  0  0  0
   46.3820   33.4360   39.9660 C   0  0  0  0  0  0  0  0  0  0  0  0
   45.8140   33.7110   41.1850 C   0  0  0  0  0  0  0  0  0  0  0  0
   46.4560   34.5110   42.0720 C   0  0  0  0  0  0  0  0  0  0  0  0
   47.6730   35.0190   41.6900 C   0  0  0  0  0  0  0  0  0  0  0  0
   48.2750   34.7740   40.4910 C   0  0  0  0  0  0  0  0  0  0  0  0
   44.4530   36.0770   44.8680 C   0  0  0  0  0  0  0  0  0  0  0  0
   45.0370   35.9020   43.5960 C   0  0  0  0  0  0  0  0  0  0  0  0
   45.8160   34.7740   43.3510 C   0  0  0  0  0  0  0  0  0  0  0  0
   45.9890   33.8810   44.3430 N   0  0  0  0  0  0  0  0  0  0  0  0
   45.4210   34.0630   45.5610 C   0  0  0  0  0  0  0  0  0  0  0  0
   44.6590   35.1550   45.8170 N   0  0  0  0  0  0  0  0  0  0  0  0
   48.2810   33.5660   38.0200 S   0  0  0  0  0  0  0  0  0  0  0  0
   48.7510   34.8770   37.3940 O   0  0  0  0  0  0  0  0  0  0  0  0
   49.4020   32.5900   38.1500 O   0  0  0  0  0  0  0  0  0  0  0  0
   47.0060   32.9020   37.0130 C   0  0  0  0  0  0  0  0  0  0  0  0
   45.8180   33.4060   36.6360 N   0  0  0  0  0  0  0  0  0  0  0  0
   45.1920   32.5700   35.8860 O   0  0  0  0  0  0  0  0  0  0  0  0
   45.9170   31.4830   35.7280 C   0  0  0  0  0  0  0  0  0  0  0  0
   47.0490   31.6890   36.4300 N   0  0  0  0  0  0  0  0  0  0  0  0
   45.5730   30.2680   34.9380 C   0  0  0  0  0  0  0  0  0  0  0  0
   45.0010   29.2040   35.8240 C   0  0  0  0  0  0  0  0  0  0  0  0
   43.5170   29.4690   35.9320 C   0  0  0  0  0  0  0  0  0  0  0  0
   43.2350   30.5060   34.8500 C   0  0  0  0  0  0  0  0  0  0  0  0
   44.4490   30.5420   33.9630 C   0  0  0  0  0  0  0  0  0  0  0  0
   45.8412   32.7825   39.2657 H   0  0  0  0  0  0  0  0  0  0  0  0
   44.8350   33.2811   41.4432 H   0  0  0  0  0  0  0  0  0  0  0  0
   48.2005   35.6705   42.4023 H   0  0  0  0  0  0  0  0  0  0  0  0
   49.2537   35.2092   40.2406 H   0  0  0  0  0  0  0  0  0  0  0  0
   43.8345   36.9620   45.0783 H   0  0  0  0  0  0  0  0  0  0  0  0
   44.8785   36.6497   42.8049 H   0  0  0  0  0  0  0  0  0  0  0  0
   45.5805   33.3150   46.3516 H   0  0  0  0  0  0  0  0  0  0  0  0
   46.5067   29.9686   34.4393 H   0  0  0  0  0  0  0  0  0  0  0  0
   45.1763   28.2113   35.3837 H   0  0  0  0  0  0  0  0  0  0  0  0
   45.4760   29.2222   36.8160 H   0  0  0  0  0  0  0  0  0  0  0  0
   42.9432   28.5488   35.7477 H   0  0  0  0  0  0  0  0  0  0  0  0
   43.2263   29.8194   36.9334 H   0  0  0  0  0  0  0  0  0  0  0  0
   42.3480   30.2156   34.2678 H   0  0  0  0  0  0  0  0  0  0  0  0
   43.0355   31.4943   35.2899 H   0  0  0  0  0  0  0  0  0  0  0  0
   44.3975   29.7645   33.1865 H   0  0  0  0  0  0  0  0  0  0  0  0
   44.5643   31.4885   33.4146 H   0  0  0  0  0  0  0  0  0  0  0  0
  1  2  2  0
  1  6  1  0
  2  3  1  0
  3  4  2  0
  4  9  1  0
  5  4  1  0
  6  5  2  0
  7 12  2  0
  8  7  1  0
  9  8  2  0
  9 10  1  0
 10 11  2  0
 11 12  1  0
 13 15  2  0
 13  1  1  0
 14 13  2  0
 16 13  1  0
 17 16  2  0
 18 17  1  0
 19 18  1  0
 19 20  2  0
 20 16  1  0
 21 19  1  0
 21 22  1  0
 22 23  1  0
 24 23  1  0
 25 24  1  0
 25 21  1  0
  2 26  1  0
  3 27  1  0
  5 28  1  0
  6 29  1  0
  7 30  1  0
  8 31  1  0
 11 32  1  0
 21 33  1  0
 22 34  1  0
 22 35  1  0
 23 36  1  0
 23 37  1  0
 24 38  1  0
 24 39  1  0
 25 40  1  0
 25 41  1  0
M  ISO  8  26  14  27  14  28  14  29  14  30  14  31  14  32  14  33  13
M  ISO  8  34  13  35  13  36  13  37  13  38  13  39  13  40  13  41  13
M  END
>  <minimizedAffinity>  (1) 
-5.97070265

>  <minimizedRMSD>  (1) 
0.345340133

$$$$
