
     RDKit          3D

 31 33  0  0  0  0  0  0  0  0999 V2000
   47.6130   33.9810   39.5470 C   0  0  0  0  0  0  0  0  0  0  0  0
   46.4060   33.4770   39.9080 C   0  0  0  0  0  0  0  0  0  0  0  0
   45.8200   33.7390   41.1400 C   0  0  0  0  0  0  0  0  0  0  0  0
   46.4720   34.5300   42.0270 C   0  0  0  0  0  0  0  0  0  0  0  0
   47.6860   35.0340   41.6580 C   0  0  0  0  0  0  0  0  0  0  0  0
   48.2980   34.8010   40.4580 C   0  0  0  0  0  0  0  0  0  0  0  0
   44.4560   36.0710   44.8410 C   0  0  0  0  0  0  0  0  0  0  0  0
   45.0370   35.9240   43.5540 C   0  0  0  0  0  0  0  0  0  0  0  0
   45.8300   34.7820   43.3040 C   0  0  0  0  0  0  0  0  0  0  0  0
   46.0070   33.8740   44.2910 N   0  0  0  0  0  0  0  0  0  0  0  0
   45.4260   34.0590   45.5110 C   0  0  0  0  0  0  0  0  0  0  0  0
   44.6620   35.1490   45.7710 N   0  0  0  0  0  0  0  0  0  0  0  0
   48.2970   33.6050   37.9660 S   0  0  0  0  0  0  0  0  0  0  0  0
   48.8240   34.9060   37.3780 O   0  0  0  0  0  0  0  0  0  0  0  0
   49.3820   32.5930   38.0970 O   0  0  0  0  0  0  0  0  0  0  0  0
   47.0090   33.0050   36.9410 C   0  0  0  0  0  0  0  0  0  0  0  0
   45.7200   33.3580   36.8160 N   0  0  0  0  0  0  0  0  0  0  0  0
   45.1380   32.6460   35.9370 O   0  0  0  0  0  0  0  0  0  0  0  0
   45.9890   31.7780   35.4200 C   0  0  0  0  0  0  0  0  0  0  0  0
   47.1450   32.0120   36.0520 N   0  0  0  0  0  0  0  0  0  0  0  0
   45.5520   30.8360   34.3740 C   0  0  0  0  0  0  0  0  0  0  0  0
   44.2950   31.1930   33.9490 F   0  0  0  0  0  0  0  0  0  0  0  0
   46.3910   30.8410   33.2780 F   0  0  0  0  0  0  0  0  0  0  0  0
   45.5750   29.5550   34.9060 F   0  0  0  0  0  0  0  0  0  0  0  0
   45.8690   32.8340   39.1952 H   0  0  0  0  0  0  0  0  0  0  0  0
   44.8391   33.3099   41.3926 H   0  0  0  0  0  0  0  0  0  0  0  0
   48.2112   35.6758   42.3806 H   0  0  0  0  0  0  0  0  0  0  0  0
   49.2798   35.2350   40.2177 H   0  0  0  0  0  0  0  0  0  0  0  0
   43.8347   36.9502   45.0666 H   0  0  0  0  0  0  0  0  0  0  0  0
   44.8739   36.6799   42.7717 H   0  0  0  0  0  0  0  0  0  0  0  0
   45.5803   33.3086   46.3004 H   0  0  0  0  0  0  0  0  0  0  0  0
  1  2  2  0
  1  6  1  0
  2  3  1  0
  3  4  2  0
  4  9  1  0
  5  4  1  0
  6  5  2  0
  7 12  2  0
  8  7  1  0
  9  8  2  0
  9 10  1  0
 10 11  2  0
 11 12  1  0
 13 15  2  0
 13  1  1  0
 14 13  2  0
 16 13  1  0
 17 16  2  0
 18 17  1  0
 19 18  1  0
 19 20  2  0
 20 16  1  0
 21 24  1  0
 21 19  1  0
 22 21  1  0
 23 21  1  0
  2 25  1  0
  3 26  1  0
  5 27  1  0
  6 28  1  0
  7 29  1  0
  8 30  1  0
 11 31  1  0
M  ISO  7  25  14  26  14  27  14  28  14  29  14  30  14  31  14
M  END
>  <minimizedAffinity>  (1) 
-5.95687485

>  <minimizedRMSD>  (1) 
0.883256078

$$$$
