
     RDKit          3D

 37 39  0  0  0  0  0  0  0  0999 V2000
   47.6030   33.9710   39.5590 C   0  0  0  0  0  0  0  0  0  0  0  0
   46.3950   33.4610   39.9300 C   0  0  0  0  0  0  0  0  0  0  0  0
   45.8150   33.7230   41.1630 C   0  0  0  0  0  0  0  0  0  0  0  0
   46.4680   34.5210   42.0480 C   0  0  0  0  0  0  0  0  0  0  0  0
   47.6840   35.0310   41.6670 C   0  0  0  0  0  0  0  0  0  0  0  0
   48.2860   34.7950   40.4660 C   0  0  0  0  0  0  0  0  0  0  0  0
   44.4560   36.0680   44.8570 C   0  0  0  0  0  0  0  0  0  0  0  0
   45.0410   35.9050   43.5760 C   0  0  0  0  0  0  0  0  0  0  0  0
   45.8290   34.7720   43.3280 C   0  0  0  0  0  0  0  0  0  0  0  0
   46.0040   33.8710   44.3200 N   0  0  0  0  0  0  0  0  0  0  0  0
   45.4280   34.0540   45.5430 C   0  0  0  0  0  0  0  0  0  0  0  0
   44.6670   35.1470   45.7830 N   0  0  0  0  0  0  0  0  0  0  0  0
   48.2770   33.5940   37.9800 S   0  0  0  0  0  0  0  0  0  0  0  0
   48.7840   34.8930   37.3720 O   0  0  0  0  0  0  0  0  0  0  0  0
   49.3870   32.6050   38.1130 O   0  0  0  0  0  0  0  0  0  0  0  0
   47.0000   32.9620   36.9700 C   0  0  0  0  0  0  0  0  0  0  0  0
   45.7380   33.3630   36.7810 N   0  0  0  0  0  0  0  0  0  0  0  0
   45.1420   32.5980   35.9400 O   0  0  0  0  0  0  0  0  0  0  0  0
   45.9770   31.6490   35.5300 C   0  0  0  0  0  0  0  0  0  0  0  0
   47.1300   31.8770   36.1700 N   0  0  0  0  0  0  0  0  0  0  0  0
   45.8110   30.5100   34.5680 C   0  0  0  0  0  0  0  0  0  0  0  0
   46.8530   30.6010   33.4580 C   0  0  0  0  0  0  0  0  0  0  0  0
   44.4610   30.5550   33.9270 C   0  0  0  0  0  0  0  0  0  0  0  0
   45.8567   32.8140   39.2218 H   0  0  0  0  0  0  0  0  0  0  0  0
   44.8375   33.2896   41.4212 H   0  0  0  0  0  0  0  0  0  0  0  0
   48.2120   35.6778   42.3831 H   0  0  0  0  0  0  0  0  0  0  0  0
   49.2649   35.2320   40.2193 H   0  0  0  0  0  0  0  0  0  0  0  0
   43.8349   36.9485   45.0781 H   0  0  0  0  0  0  0  0  0  0  0  0
   44.8792   36.6559   42.7886 H   0  0  0  0  0  0  0  0  0  0  0  0
   45.5829   33.3096   46.3379 H   0  0  0  0  0  0  0  0  0  0  0  0
   45.9311   29.5752   35.1353 H   0  0  0  0  0  0  0  0  0  0  0  0
   47.8554   30.6885   33.9024 H   0  0  0  0  0  0  0  0  0  0  0  0
   46.8057   29.6953   32.8355 H   0  0  0  0  0  0  0  0  0  0  0  0
   46.6494   31.4848   32.8355 H   0  0  0  0  0  0  0  0  0  0  0  0
   43.6855   30.5808   34.7067 H   0  0  0  0  0  0  0  0  0  0  0  0
   44.3820   31.4563   33.3013 H   0  0  0  0  0  0  0  0  0  0  0  0
   44.3222   29.6610   33.3013 H   0  0  0  0  0  0  0  0  0  0  0  0
  1  2  2  0
  1  6  1  0
  2  3  1  0
  3  4  2  0
  4  9  1  0
  5  4  1  0
  6  5  2  0
  7 12  2  0
  8  7  1  0
  9  8  2  0
  9 10  1  0
 10 11  2  0
 11 12  1  0
 13 15  2  0
 13  1  1  0
 14 13  2  0
 16 13  1  0
 17 16  2  0
 18 17  1  0
 19 18  1  0
 19 20  2  0
 20 16  1  0
 21 19  1  0
 22 21  1  0
 23 21  1  0
  2 24  1  0
  3 25  1  0
  5 26  1  0
  6 27  1  0
  7 28  1  0
  8 29  1  0
 11 30  1  0
 21 31  1  0
 22 32  1  0
 22 33  1  0
 22 34  1  0
 23 35  1  0
 23 36  1  0
 23 37  1  0
M  ISO  8  24  14  25  14  26  14  27  14  28  14  29  14  30  14  31   8
M  ISO  6  32   8  33   8  34   8  35   8  36   8  37   8
M  END
>  <minimizedAffinity>  (1) 
-5.85226965

>  <minimizedRMSD>  (1) 
0.637226284

$$$$
