
     RDKit          3D

 34 36  0  0  0  0  0  0  0  0999 V2000
   47.5660   33.9480   39.5750 C   0  0  0  0  0  0  0  0  0  0  0  0
   46.3420   33.4660   39.9380 C   0  0  0  0  0  0  0  0  0  0  0  0
   45.7810   33.7470   41.1600 C   0  0  0  0  0  0  0  0  0  0  0  0
   46.4510   34.5300   42.0510 C   0  0  0  0  0  0  0  0  0  0  0  0
   47.6700   35.0080   41.6820 C   0  0  0  0  0  0  0  0  0  0  0  0
   48.2770   34.7580   40.4770 C   0  0  0  0  0  0  0  0  0  0  0  0
   44.4550   36.0960   44.8550 C   0  0  0  0  0  0  0  0  0  0  0  0
   45.0350   35.9300   43.5750 C   0  0  0  0  0  0  0  0  0  0  0  0
   45.8110   34.7970   43.3280 C   0  0  0  0  0  0  0  0  0  0  0  0
   45.9840   33.8920   44.3270 N   0  0  0  0  0  0  0  0  0  0  0  0
   45.4110   34.0830   45.5500 C   0  0  0  0  0  0  0  0  0  0  0  0
   44.6600   35.1700   45.8010 N   0  0  0  0  0  0  0  0  0  0  0  0
   48.2490   33.5620   37.9970 S   0  0  0  0  0  0  0  0  0  0  0  0
   48.6940   34.8610   37.3450 O   0  0  0  0  0  0  0  0  0  0  0  0
   49.3900   32.6080   38.1410 O   0  0  0  0  0  0  0  0  0  0  0  0
   46.9800   32.8500   37.0210 C   0  0  0  0  0  0  0  0  0  0  0  0
   45.7720   33.3060   36.6440 N   0  0  0  0  0  0  0  0  0  0  0  0
   45.1570   32.4520   35.9220 O   0  0  0  0  0  0  0  0  0  0  0  0
   45.9230   31.3750   35.7740 C   0  0  0  0  0  0  0  0  0  0  0  0
   47.0410   31.6370   36.4570 N   0  0  0  0  0  0  0  0  0  0  0  0
   45.5950   30.1380   35.0050 C   0  0  0  0  0  0  0  0  0  0  0  0
   44.7030   30.4650   33.8090 C   0  0  0  0  0  0  0  0  0  0  0  0
   45.7873   32.8327   39.2300 H   0  0  0  0  0  0  0  0  0  0  0  0
   44.7922   33.3404   41.4187 H   0  0  0  0  0  0  0  0  0  0  0  0
   48.2085   35.6413   42.4023 H   0  0  0  0  0  0  0  0  0  0  0  0
   49.2669   35.1695   40.2303 H   0  0  0  0  0  0  0  0  0  0  0  0
   43.8389   36.9810   45.0721 H   0  0  0  0  0  0  0  0  0  0  0  0
   44.8767   36.6817   42.7877 H   0  0  0  0  0  0  0  0  0  0  0  0
   45.5655   33.3366   46.3431 H   0  0  0  0  0  0  0  0  0  0  0  0
   46.5276   29.6790   34.6449 H   0  0  0  0  0  0  0  0  0  0  0  0
   45.0576   29.4429   35.6668 H   0  0  0  0  0  0  0  0  0  0  0  0
   43.7264   30.8230   34.1670 H   0  0  0  0  0  0  0  0  0  0  0  0
   45.1792   31.2470   33.1994 H   0  0  0  0  0  0  0  0  0  0  0  0
   44.5610   29.5605   33.1994 H   0  0  0  0  0  0  0  0  0  0  0  0
  1  2  2  0
  1  6  1  0
  2  3  1  0
  3  4  2  0
  4  9  1  0
  5  4  1  0
  6  5  2  0
  7 12  2  0
  8  7  1  0
  9  8  2  0
  9 10  1  0
 10 11  2  0
 11 12  1  0
 13 15  2  0
 13  1  1  0
 14 13  2  0
 16 13  1  0
 17 16  2  0
 18 17  1  0
 19 18  1  0
 19 20  2  0
 20 16  1  0
 21 19  1  0
 22 21  1  0
  2 23  1  0
  3 24  1  0
  5 25  1  0
  6 26  1  0
  7 27  1  0
  8 28  1  0
 11 29  1  0
 21 30  1  0
 21 31  1  0
 22 32  1  0
 22 33  1  0
 22 34  1  0
M  ISO  8  23  14  24  14  25  14  26  14  27  14  28  14  29  14  30   8
M  ISO  4  31   8  32   8  33   8  34   8
M  END
>  <minimizedAffinity>  (1) 
-5.62318707

>  <minimizedRMSD>  (1) 
0.262629688

$$$$
