
     RDKit          3D

 26 27  0  0  1  0  0  0  0  0999 V2000
   49.1430   33.7080   42.6680 C   0  0  2  0  0  0  0  0  0  0  0  0
   47.7420   33.9650   42.5040 C   0  0  2  0  0  0  0  0  0  0  0  0
   47.6530   35.3890   41.9370 C   0  0  0  0  0  0  0  0  0  0  0  0
   49.0130   35.8150   41.4850 C   0  0  0  0  0  0  0  0  0  0  0  0
   49.8660   35.0930   42.4560 C   0  0  0  0  0  0  0  0  0  0  0  0
   49.8200   32.8180   41.7270 C   0  0  0  0  0  0  0  0  0  0  0  0
   49.0220   32.2270   40.7190 C   0  0  0  0  0  0  0  0  0  0  0  0
   49.6350   31.4050   39.7850 C   0  0  0  0  0  0  0  0  0  0  0  0
   50.9980   31.2230   39.9100 N   0  0  0  0  0  0  0  0  0  0  0  0
   51.7320   31.7890   40.8680 C   0  0  0  0  0  0  0  0  0  0  0  0
   51.1240   32.5690   41.7480 N   0  0  0  0  0  0  0  0  0  0  0  0
   46.9490   33.9130   43.7860 C   0  0  0  0  0  0  0  0  0  0  0  0
   45.8970   34.5120   43.8930 O   0  0  0  0  0  0  0  0  0  0  0  0
   47.3190   33.2110   44.9080 O   0  0  0  0  0  0  0  0  0  0  0  0
   49.2038   33.2148   43.6493 H   0  0  0  0  0  0  0  0  0  0  0  0
   47.3131   33.1869   41.8554 H   0  0  0  0  0  0  0  0  0  0  0  0
   46.9586   35.4043   41.0840 H   0  0  0  0  0  0  0  0  0  0  0  0
   47.2849   36.0770   42.7123 H   0  0  0  0  0  0  0  0  0  0  0  0
   49.2151   35.4951   40.4521 H   0  0  0  0  0  0  0  0  0  0  0  0
   49.1663   36.9041   41.4653 H   0  0  0  0  0  0  0  0  0  0  0  0
   50.8773   34.9449   42.0494 H   0  0  0  0  0  0  0  0  0  0  0  0
   49.9879   35.6483   43.3977 H   0  0  0  0  0  0  0  0  0  0  0  0
   47.9391   32.4154   40.6770 H   0  0  0  0  0  0  0  0  0  0  0  0
   49.0614   30.9202   38.9813 H   0  0  0  0  0  0  0  0  0  0  0  0
   52.8162   31.6123   40.9259 H   0  0  0  0  0  0  0  0  0  0  0  0
   46.7435   33.2260   45.7134 H   0  0  0  0  0  0  0  0  0  0  0  0
  2  1  1  0
  2 12  1  0
  3  2  1  0
  4  3  1  0
  4  5  1  0
  5  1  1  0
  6 11  1  0
  6  1  1  0
  7  6  2  0
  8  9  2  0
  8  7  1  0
  9 10  1  0
 10 11  2  0
 12 13  2  0
 12 14  1  0
  1 15  1  1
  2 16  1  6
  3 17  1  0
  3 18  1  0
  4 19  1  0
  4 20  1  0
  5 21  1  0
  5 22  1  0
  7 23  1  0
  8 24  1  0
 10 25  1  0
 14 26  1  0
M  ISO  8  15  13  16  13  17  13  18  13  19  13  20  13  21  13  22  13
M  ISO  4  23  14  24  14  25  14  26   3
M  END
>  <minimizedAffinity>  (1) 
-4.55806971

>  <minimizedRMSD>  (1) 
0.135713696

$$$$
