
     RDKit          3D

 24 26  0  0  0  0  0  0  0  0999 V2000
   45.6750   34.3820   41.6800 C   0  0  0  0  0  0  0  0  0  0  0  0
   46.6390   34.3170   40.6940 C   0  0  0  0  0  0  0  0  0  0  0  0
   47.8170   34.4670   41.3620 N   0  0  0  0  0  0  0  0  0  0  0  0
   47.5430   34.6080   42.6610 C   0  0  0  0  0  0  0  0  0  0  0  0
   46.2150   34.5630   42.9070 N   0  0  0  0  0  0  0  0  0  0  0  0
   45.5940   34.6790   44.1630 C   0  0  0  0  0  0  0  0  0  0  0  0
   45.5720   33.8730   45.2710 C   0  0  0  0  0  0  0  0  0  0  0  0
   44.7910   34.4690   46.2590 C   0  0  0  0  0  0  0  0  0  0  0  0
   44.3780   35.6000   45.7080 N   0  0  0  0  0  0  0  0  0  0  0  0
   44.8280   35.7610   44.4770 N   0  0  0  0  0  0  0  0  0  0  0  0
   42.1320   35.2690   40.8060 C   0  0  0  0  0  0  0  0  0  0  0  0
   43.5110   35.4130   41.0590 C   0  0  0  0  0  0  0  0  0  0  0  0
   44.2340   34.2660   41.4100 C   0  0  0  0  0  0  0  0  0  0  0  0
   43.5740   33.0720   41.4880 N   0  0  0  0  0  0  0  0  0  0  0  0
   42.2520   32.9840   41.2360 C   0  0  0  0  0  0  0  0  0  0  0  0
   41.5340   34.0600   40.8990 N   0  0  0  0  0  0  0  0  0  0  0  0
   46.4898   34.1760   39.6133 H   0  0  0  0  0  0  0  0  0  0  0  0
   48.3081   34.7447   43.4394 H   0  0  0  0  0  0  0  0  0  0  0  0
   46.0897   32.9071   45.3656 H   0  0  0  0  0  0  0  0  0  0  0  0
   44.5684   34.0873   47.2663 H   0  0  0  0  0  0  0  0  0  0  0  0
   43.7715   36.2804   46.1876 H   0  0  0  0  0  0  0  0  0  0  0  0
   41.5352   36.1507   40.5296 H   0  0  0  0  0  0  0  0  0  0  0  0
   44.0032   36.3938   40.9833 H   0  0  0  0  0  0  0  0  0  0  0  0
   41.7540   32.0059   41.3093 H   0  0  0  0  0  0  0  0  0  0  0  0
  1  5  1  0
  2  3  1  0
  2  1  2  0
  3  4  2  0
  4  5  1  0
  5  6  1  0
  6 10  2  0
  6  7  1  0
  7  8  2  0
  9  8  1  0
 10  9  1  0
 11 16  2  0
 11 12  1  0
 12 13  2  0
 13 14  1  0
 13  1  1  0
 15 14  2  0
 16 15  1  0
  2 17  1  0
  4 18  1  0
  7 19  1  0
  8 20  1  0
  9 21  1  0
 11 22  1  0
 12 23  1  0
 15 24  1  0
M  ISO  8  17  14  18  14  19  14  20  14  21   9  22  14  23  14  24  14
M  END
>  <minimizedAffinity>  (1) 
-5.00240898

>  <minimizedRMSD>  (1) 
4.10331202

$$$$
