
     RDKit          3D

 24 26  0  0  0  0  0  0  0  0999 V2000
   45.6710   34.3740   41.7560 C   0  0  0  0  0  0  0  0  0  0  0  0
   46.6340   34.3170   40.7640 C   0  0  0  0  0  0  0  0  0  0  0  0
   47.8230   34.3960   41.4260 N   0  0  0  0  0  0  0  0  0  0  0  0
   47.5590   34.4950   42.7320 C   0  0  0  0  0  0  0  0  0  0  0  0
   46.2470   34.4850   42.9620 N   0  0  0  0  0  0  0  0  0  0  0  0
   45.1050   34.1140   46.3060 N   0  0  0  0  0  0  0  0  0  0  0  0
   45.8280   33.7290   45.2590 N   0  0  0  0  0  0  0  0  0  0  0  0
   45.6480   34.5730   44.2310 C   0  0  0  0  0  0  0  0  0  0  0  0
   44.7610   35.5560   44.6370 C   0  0  0  0  0  0  0  0  0  0  0  0
   44.4440   35.2290   45.9510 C   0  0  0  0  0  0  0  0  0  0  0  0
   42.1580   35.3830   40.9220 C   0  0  0  0  0  0  0  0  0  0  0  0
   43.5360   35.4680   41.1700 C   0  0  0  0  0  0  0  0  0  0  0  0
   44.2320   34.3210   41.4920 C   0  0  0  0  0  0  0  0  0  0  0  0
   43.5380   33.1450   41.5550 N   0  0  0  0  0  0  0  0  0  0  0  0
   42.2160   33.0850   41.3130 C   0  0  0  0  0  0  0  0  0  0  0  0
   41.5270   34.1880   41.0000 N   0  0  0  0  0  0  0  0  0  0  0  0
   46.4750   34.2276   39.6792 H   0  0  0  0  0  0  0  0  0  0  0  0
   48.3262   34.5745   43.5162 H   0  0  0  0  0  0  0  0  0  0  0  0
   45.0597   33.6440   47.2214 H   0  0  0  0  0  0  0  0  0  0  0  0
   44.3890   36.4082   44.0493 H   0  0  0  0  0  0  0  0  0  0  0  0
   43.7587   35.7950   46.5991 H   0  0  0  0  0  0  0  0  0  0  0  0
   41.5894   36.2886   40.6638 H   0  0  0  0  0  0  0  0  0  0  0  0
   44.0547   36.4361   41.1086 H   0  0  0  0  0  0  0  0  0  0  0  0
   41.6956   32.1177   41.3732 H   0  0  0  0  0  0  0  0  0  0  0  0
  1  5  1  0
  2  3  1  0
  2  1  2  0
  3  4  2  0
  4  5  1  0
  5  8  1  0
  7  6  1  0
  8  9  1  0
  8  7  2  0
  9 10  2  0
 10  6  1  0
 11 16  2  0
 11 12  1  0
 12 13  2  0
 13 14  1  0
 13  1  1  0
 15 14  2  0
 16 15  1  0
  2 17  1  0
  4 18  1  0
  6 19  1  0
  9 20  1  0
 10 21  1  0
 11 22  1  0
 12 23  1  0
 15 24  1  0
M  ISO  8  17  14  18  14  19   9  20  14  21  14  22  14  23  14  24  14
M  END
>  <minimizedAffinity>  (1) 
-4.98523951

>  <minimizedRMSD>  (1) 
4.09873962

$$$$
