
     RDKit          3D

 31 34  0  0  0  0  0  0  0  0999 V2000
   45.0440   33.5800   40.5750 C   0  0  0  0  0  0  0  0  0  0  0  0
   44.3530   33.2060   39.4410 C   0  0  0  0  0  0  0  0  0  0  0  0
   43.0410   33.3220   39.7870 N   0  0  0  0  0  0  0  0  0  0  0  0
   42.9800   33.7410   41.0550 C   0  0  0  0  0  0  0  0  0  0  0  0
   44.2060   33.9110   41.5690 N   0  0  0  0  0  0  0  0  0  0  0  0
   44.4960   34.3460   42.8830 C   0  0  0  0  0  0  0  0  0  0  0  0
   44.2120   35.6200   43.2020 N   0  0  0  0  0  0  0  0  0  0  0  0
   44.4740   36.0620   44.4370 C   0  0  0  0  0  0  0  0  0  0  0  0
   45.0160   35.3100   45.4110 N   0  0  0  0  0  0  0  0  0  0  0  0
   45.3140   34.0190   45.1180 C   0  0  0  0  0  0  0  0  0  0  0  0
   45.8760   33.1650   46.0600 C   0  0  0  0  0  0  0  0  0  0  0  0
   46.1640   31.8430   45.7060 C   0  0  0  0  0  0  0  0  0  0  0  0
   45.8970   31.3870   44.4460 C   0  0  0  0  0  0  0  0  0  0  0  0
   45.3400   32.2260   43.5040 C   0  0  0  0  0  0  0  0  0  0  0  0
   45.0540   33.5280   43.8460 C   0  0  0  0  0  0  0  0  0  0  0  0
   48.6290   32.4790   40.4230 C   0  0  0  0  0  0  0  0  0  0  0  0
   47.2320   32.4410   40.3480 C   0  0  0  0  0  0  0  0  0  0  0  0
   46.5110   33.6040   40.6490 C   0  0  0  0  0  0  0  0  0  0  0  0
   47.2030   34.7190   40.9990 N   0  0  0  0  0  0  0  0  0  0  0  0
   48.5480   34.7270   41.0630 C   0  0  0  0  0  0  0  0  0  0  0  0
   49.2540   33.6260   40.7790 N   0  0  0  0  0  0  0  0  0  0  0  0
   44.7686   32.8859   38.4742 H   0  0  0  0  0  0  0  0  0  0  0  0
   42.0449   33.9227   41.6051 H   0  0  0  0  0  0  0  0  0  0  0  0
   44.2302   37.1088   44.6710 H   0  0  0  0  0  0  0  0  0  0  0  0
   46.0925   33.5263   47.0762 H   0  0  0  0  0  0  0  0  0  0  0  0
   46.6093   31.1644   46.4484 H   0  0  0  0  0  0  0  0  0  0  0  0
   46.1277   30.3445   44.1815 H   0  0  0  0  0  0  0  0  0  0  0  0
   45.1264   31.8583   42.4895 H   0  0  0  0  0  0  0  0  0  0  0  0
   49.2180   31.5788   40.1932 H   0  0  0  0  0  0  0  0  0  0  0  0
   46.7106   31.5167   40.0586 H   0  0  0  0  0  0  0  0  0  0  0  0
   49.0728   35.6495   41.3522 H   0  0  0  0  0  0  0  0  0  0  0  0
  1 18  1  0
  1  5  1  0
  2  3  1  0
  2  1  2  0
  3  4  2  0
  4  5  1  0
  5  6  1  0
  6  7  2  0
  6 15  1  0
  7  8  1  0
  8  9  2  0
 10  9  1  0
 10 11  2  0
 12 11  1  0
 13 12  2  0
 14 15  2  0
 14 13  1  0
 15 10  1  0
 16 21  2  0
 17 16  1  0
 17 18  2  0
 18 19  1  0
 19 20  2  0
 21 20  1  0
  2 22  1  0
  4 23  1  0
  8 24  1  0
 11 25  1  0
 12 26  1  0
 13 27  1  0
 14 28  1  0
 16 29  1  0
 17 30  1  0
 20 31  1  0
M  ISO  8  22  14  23  14  24  14  25  14  26  14  27  14  28  14  29  14
M  ISO  2  30  14  31  14
M  END
>  <minimizedAffinity>  (1) 
-4.96006536

>  <minimizedRMSD>  (1) 
5.67029572

$$$$
