
     RDKit          3D

 25 27  0  0  0  0  0  0  0  0999 V2000
   46.2430   34.1990   40.9920 C   0  0  0  0  0  0  0  0  0  0  0  0
   47.2470   34.2110   40.0580 C   0  0  0  0  0  0  0  0  0  0  0  0
   48.3180   34.7700   40.7130 N   0  0  0  0  0  0  0  0  0  0  0  0
   47.9310   35.0620   41.9700 C   0  0  0  0  0  0  0  0  0  0  0  0
   46.6550   34.7170   42.1570 N   0  0  0  0  0  0  0  0  0  0  0  0
   42.5840   34.0410   40.1670 C   0  0  0  0  0  0  0  0  0  0  0  0
   43.8590   34.5660   40.4260 C   0  0  0  0  0  0  0  0  0  0  0  0
   44.9030   33.6800   40.7200 C   0  0  0  0  0  0  0  0  0  0  0  0
   44.6140   32.3510   40.7370 N   0  0  0  0  0  0  0  0  0  0  0  0
   43.3780   31.8730   40.4850 C   0  0  0  0  0  0  0  0  0  0  0  0
   42.3750   32.7140   40.2020 N   0  0  0  0  0  0  0  0  0  0  0  0
   45.9530   34.8940   43.3690 C   0  0  0  0  0  0  0  0  0  0  0  0
   46.1350   33.9250   44.3270 C   0  0  0  0  0  0  0  0  0  0  0  0
   45.4720   34.0380   45.5440 C   0  0  0  0  0  0  0  0  0  0  0  0
   44.6500   35.0930   45.7980 N   0  0  0  0  0  0  0  0  0  0  0  0
   44.4990   36.0240   44.8280 C   0  0  0  0  0  0  0  0  0  0  0  0
   45.1310   35.9440   43.6280 N   0  0  0  0  0  0  0  0  0  0  0  0
   47.2046   33.8536   39.0185 H   0  0  0  0  0  0  0  0  0  0  0  0
   48.5756   35.5202   42.7345 H   0  0  0  0  0  0  0  0  0  0  0  0
   41.7504   34.7197   39.9339 H   0  0  0  0  0  0  0  0  0  0  0  0
   44.0351   35.6515   40.3987 H   0  0  0  0  0  0  0  0  0  0  0  0
   43.1934   30.7889   40.5121 H   0  0  0  0  0  0  0  0  0  0  0  0
   46.7982   33.0692   44.1328 H   0  0  0  0  0  0  0  0  0  0  0  0
   45.6137   33.2639   46.3125 H   0  0  0  0  0  0  0  0  0  0  0  0
   43.8369   36.8815   45.0189 H   0  0  0  0  0  0  0  0  0  0  0  0
  1  5  1  0
  2  3  1  0
  2  1  2  0
  3  4  2  0
  4  5  1  0
  5 12  1  0
  6 11  2  0
  6  7  1  0
  7  8  2  0
  8  9  1  0
  8  1  1  0
 10  9  2  0
 11 10  1  0
 12 17  1  0
 12 13  2  0
 13 14  1  0
 14 15  2  0
 16 15  1  0
 17 16  2  0
  2 18  1  0
  4 19  1  0
  6 20  1  0
  7 21  1  0
 10 22  1  0
 13 23  1  0
 14 24  1  0
 16 25  1  0
M  ISO  8  18  14  19  14  20  14  21  14  22  14  23  14  24  14  25  14
M  END
>  <minimizedAffinity>  (1) 
-4.71745253

>  <minimizedRMSD>  (1) 
4.21042061

$$$$
