
     RDKit          3D

 26 28  0  0  0  0  0  0  0  0999 V2000
   46.2390   34.1460   40.8500 C   0  0  0  0  0  0  0  0  0  0  0  0
   47.2100   34.1510   39.8570 C   0  0  0  0  0  0  0  0  0  0  0  0
   48.3040   34.7130   40.4590 N   0  0  0  0  0  0  0  0  0  0  0  0
   47.9620   35.0120   41.7340 C   0  0  0  0  0  0  0  0  0  0  0  0
   46.6960   34.6700   41.9940 N   0  0  0  0  0  0  0  0  0  0  0  0
   42.5740   33.9510   40.0800 C   0  0  0  0  0  0  0  0  0  0  0  0
   43.8520   34.4810   40.2950 C   0  0  0  0  0  0  0  0  0  0  0  0
   44.8910   33.6200   40.6210 C   0  0  0  0  0  0  0  0  0  0  0  0
   44.6150   32.2810   40.7190 N   0  0  0  0  0  0  0  0  0  0  0  0
   43.3710   31.7920   40.5070 C   0  0  0  0  0  0  0  0  0  0  0  0
   42.3680   32.6100   40.1940 N   0  0  0  0  0  0  0  0  0  0  0  0
   46.0060   34.8390   43.2300 C   0  0  0  0  0  0  0  0  0  0  0  0
   45.2060   35.9620   43.4330 C   0  0  0  0  0  0  0  0  0  0  0  0
   44.5380   36.1240   44.6350 C   0  0  0  0  0  0  0  0  0  0  0  0
   44.6600   35.1800   45.6240 C   0  0  0  0  0  0  0  0  0  0  0  0
   45.4660   34.0750   45.3820 C   0  0  0  0  0  0  0  0  0  0  0  0
   46.1250   33.9070   44.2110 N   0  0  0  0  0  0  0  0  0  0  0  0
   47.1206   33.7867   38.8229 H   0  0  0  0  0  0  0  0  0  0  0  0
   48.6402   35.4777   42.4642 H   0  0  0  0  0  0  0  0  0  0  0  0
   41.7380   34.6168   39.8195 H   0  0  0  0  0  0  0  0  0  0  0  0
   44.0300   35.5629   40.2070 H   0  0  0  0  0  0  0  0  0  0  0  0
   43.1871   30.7110   40.5939 H   0  0  0  0  0  0  0  0  0  0  0  0
   45.1055   36.7179   42.6402 H   0  0  0  0  0  0  0  0  0  0  0  0
   43.9082   37.0111   44.7977 H   0  0  0  0  0  0  0  0  0  0  0  0
   44.1334   35.2956   46.5828 H   0  0  0  0  0  0  0  0  0  0  0  0
   45.5724   33.3117   46.1669 H   0  0  0  0  0  0  0  0  0  0  0  0
  1  5  1  0
  2  3  1  0
  2  1  2  0
  3  4  2  0
  4  5  1  0
  5 12  1  0
  6 11  2  0
  6  7  1  0
  7  8  2  0
  8  9  1  0
  8  1  1  0
 10  9  2  0
 11 10  1  0
 12 13  2  0
 12 17  1  0
 13 14  1  0
 14 15  2  0
 16 15  1  0
 17 16  2  0
  2 18  1  0
  4 19  1  0
  6 20  1  0
  7 21  1  0
 10 22  1  0
 13 23  1  0
 14 24  1  0
 15 25  1  0
 16 26  1  0
M  ISO  8  18  14  19  14  20  14  21  14  22  14  23  14  24  14  25  14
M  ISO  1  26  14
M  END
>  <minimizedAffinity>  (1) 
-4.69435787

>  <minimizedRMSD>  (1) 
4.20233107

$$$$
