
     RDKit          3D

 22 24  0  0  0  0  0  0  0  0999 V2000
   45.3890   34.1390   40.9200 C   0  0  0  0  0  0  0  0  0  0  0  0
   46.2920   33.8160   39.9140 C   0  0  0  0  0  0  0  0  0  0  0  0
   47.5160   34.1810   40.4270 N   0  0  0  0  0  0  0  0  0  0  0  0
   47.3140   34.6830   41.6500 C   0  0  0  0  0  0  0  0  0  0  0  0
   46.0150   34.6670   41.9760 N   0  0  0  0  0  0  0  0  0  0  0  0
   45.4560   35.1250   43.1990 C   0  0  0  0  0  0  0  0  0  0  0  0
   45.2810   36.4710   43.3140 N   0  0  0  0  0  0  0  0  0  0  0  0
   44.7630   36.7420   44.4830 O   0  0  0  0  0  0  0  0  0  0  0  0
   44.5970   35.6210   45.1260 C   0  0  0  0  0  0  0  0  0  0  0  0
   45.0260   34.6010   44.3360 N   0  0  0  0  0  0  0  0  0  0  0  0
   41.7870   34.5930   40.0190 C   0  0  0  0  0  0  0  0  0  0  0  0
   43.1600   34.8410   40.1370 C   0  0  0  0  0  0  0  0  0  0  0  0
   43.9490   33.9080   40.7830 C   0  0  0  0  0  0  0  0  0  0  0  0
   43.3560   32.7720   41.2850 N   0  0  0  0  0  0  0  0  0  0  0  0
   42.0250   32.5720   41.1490 C   0  0  0  0  0  0  0  0  0  0  0  0
   41.2500   33.4620   40.5290 N   0  0  0  0  0  0  0  0  0  0  0  0
   46.0774   33.3702   38.9316 H   0  0  0  0  0  0  0  0  0  0  0  0
   48.1130   35.0609   42.3048 H   0  0  0  0  0  0  0  0  0  0  0  0
   44.1797   35.5172   46.1385 H   0  0  0  0  0  0  0  0  0  0  0  0
   41.1415   35.3227   39.5083 H   0  0  0  0  0  0  0  0  0  0  0  0
   43.6018   35.7598   39.7239 H   0  0  0  0  0  0  0  0  0  0  0  0
   41.5731   31.6565   41.5583 H   0  0  0  0  0  0  0  0  0  0  0  0
  1  5  1  0
  2  3  1  0
  2  1  2  0
  3  4  2  0
  4  5  1  0
  5  6  1  0
  6  7  2  0
  6 10  1  0
  7  8  1  0
  8  9  1  0
 10  9  2  0
 11 12  2  0
 11 16  1  0
 12 13  1  0
 13  1  1  0
 13 14  2  0
 15 14  1  0
 16 15  2  0
  2 17  1  0
  4 18  1  0
  9 19  1  0
 11 20  1  0
 12 21  1  0
 15 22  1  0
M  ISO  6  17  14  18  14  19  14  20  14  21  14  22  14
M  END
>  <minimizedAffinity>  (1) 
-4.65255451

>  <minimizedRMSD>  (1) 
4.15548229

$$$$
