
     RDKit          3D

 24 26  0  0  0  0  0  0  0  0999 V2000
   45.4090   34.2470   41.0680 C   0  0  0  0  0  0  0  0  0  0  0  0
   46.3220   33.9500   40.0860 C   0  0  0  0  0  0  0  0  0  0  0  0
   47.5370   34.2590   40.6360 N   0  0  0  0  0  0  0  0  0  0  0  0
   47.3200   34.7120   41.8760 C   0  0  0  0  0  0  0  0  0  0  0  0
   46.0180   34.7140   42.1670 N   0  0  0  0  0  0  0  0  0  0  0  0
   41.8160   34.9040   40.2100 C   0  0  0  0  0  0  0  0  0  0  0  0
   43.2020   35.1080   40.3550 C   0  0  0  0  0  0  0  0  0  0  0  0
   43.9650   34.0660   40.9040 C   0  0  0  0  0  0  0  0  0  0  0  0
   43.3300   32.9160   41.2680 N   0  0  0  0  0  0  0  0  0  0  0  0
   41.9960   32.7630   41.1100 C   0  0  0  0  0  0  0  0  0  0  0  0
   41.2500   33.7460   40.5880 N   0  0  0  0  0  0  0  0  0  0  0  0
   45.4510   35.1370   43.4020 C   0  0  0  0  0  0  0  0  0  0  0  0
   45.4020   34.2810   44.4910 C   0  0  0  0  0  0  0  0  0  0  0  0
   44.7930   35.0030   45.5220 C   0  0  0  0  0  0  0  0  0  0  0  0
   44.5070   36.2590   45.0000 C   0  0  0  0  0  0  0  0  0  0  0  0
   44.9080   36.3010   43.7520 O   0  0  0  0  0  0  0  0  0  0  0  0
   46.1215   33.5520   39.0803 H   0  0  0  0  0  0  0  0  0  0  0  0
   48.1118   35.0400   42.5656 H   0  0  0  0  0  0  0  0  0  0  0  0
   41.1904   35.7015   39.7827 H   0  0  0  0  0  0  0  0  0  0  0  0
   43.6715   36.0541   40.0477 H   0  0  0  0  0  0  0  0  0  0  0  0
   41.5174   31.8203   41.4136 H   0  0  0  0  0  0  0  0  0  0  0  0
   45.7678   33.2445   44.5352 H   0  0  0  0  0  0  0  0  0  0  0  0
   44.5825   34.6481   46.5417 H   0  0  0  0  0  0  0  0  0  0  0  0
   44.0233   37.0832   45.5447 H   0  0  0  0  0  0  0  0  0  0  0  0
  1  5  1  0
  2  3  1  0
  2  1  2  0
  3  4  2  0
  4  5  1  0
  5 12  1  0
  6  7  2  0
  6 11  1  0
  7  8  1  0
  8  1  1  0
  8  9  2  0
 10  9  1  0
 11 10  2  0
 12 16  1  0
 12 13  2  0
 13 14  1  0
 15 14  2  0
 16 15  1  0
  2 17  1  0
  4 18  1  0
  6 19  1  0
  7 20  1  0
 10 21  1  0
 13 22  1  0
 14 23  1  0
 15 24  1  0
M  ISO  8  17  14  18  14  19  14  20  14  21  14  22  14  23  14  24  14
M  END
>  <minimizedAffinity>  (1) 
-4.38839912

>  <minimizedRMSD>  (1) 
4.19134617

$$$$
