
     RDKit          3D

 28 31  0  0  0  0  0  0  0  0999 V2000
   45.9120   30.5470   45.1820 C   0  0  0  0  0  0  0  0  0  0  0  0
   45.0280   29.4910   45.1610 C   0  0  0  0  0  0  0  0  0  0  0  0
   44.5320   29.4500   43.8950 N   0  0  0  0  0  0  0  0  0  0  0  0
   45.1190   30.4600   43.2080 C   0  0  0  0  0  0  0  0  0  0  0  0
   45.9660   31.1390   43.9830 N   0  0  0  0  0  0  0  0  0  0  0  0
   45.8960   35.6640   43.0370 N   0  0  0  0  0  0  0  0  0  0  0  0
   44.6810   35.1800   43.4240 C   0  0  0  0  0  0  0  0  0  0  0  0
   44.8280   33.8650   43.6690 N   0  0  0  0  0  0  0  0  0  0  0  0
   46.1090   33.4870   43.4490 C   0  0  0  0  0  0  0  0  0  0  0  0
   46.7390   32.2550   43.5640 C   0  0  0  0  0  0  0  0  0  0  0  0
   48.0580   32.2200   43.2630 N   0  0  0  0  0  0  0  0  0  0  0  0
   48.7100   33.3460   42.8720 C   0  0  0  0  0  0  0  0  0  0  0  0
   48.0840   34.5230   42.7690 N   0  0  0  0  0  0  0  0  0  0  0  0
   46.7740   34.6460   43.0480 C   0  0  0  0  0  0  0  0  0  0  0  0
   47.0650   32.4450   48.1990 C   0  0  0  0  0  0  0  0  0  0  0  0
   46.3260   32.0870   47.0660 C   0  0  0  0  0  0  0  0  0  0  0  0
   46.6700   30.9380   46.3670 C   0  0  0  0  0  0  0  0  0  0  0  0
   47.7280   30.1960   46.8220 N   0  0  0  0  0  0  0  0  0  0  0  0
   48.4270   30.5600   47.9190 C   0  0  0  0  0  0  0  0  0  0  0  0
   48.1030   31.6710   48.6030 N   0  0  0  0  0  0  0  0  0  0  0  0
   44.7754   28.8199   45.9951 H   0  0  0  0  0  0  0  0  0  0  0  0
   44.9227   30.6896   42.1503 H   0  0  0  0  0  0  0  0  0  0  0  0
   46.1046   36.6396   42.7809 H   0  0  0  0  0  0  0  0  0  0  0  0
   43.7505   35.7590   43.5186 H   0  0  0  0  0  0  0  0  0  0  0  0
   49.7823   33.2878   42.6336 H   0  0  0  0  0  0  0  0  0  0  0  0
   46.8043   33.3535   48.7617 H   0  0  0  0  0  0  0  0  0  0  0  0
   45.4820   32.7090   46.7330 H   0  0  0  0  0  0  0  0  0  0  0  0
   49.2709   29.9403   48.2565 H   0  0  0  0  0  0  0  0  0  0  0  0
  1 17  1  0
  2  1  2  0
  3  2  1  0
  4  3  2  0
  4  5  1  0
  5  1  1  0
  6 14  1  0
  6  7  1  0
  7  8  2  0
  9 10  2  0
  9  8  1  0
 10  5  1  0
 11 10  1  0
 12 11  2  0
 13 12  1  0
 13 14  2  0
 14  9  1  0
 15 20  2  0
 16 15  1  0
 17 18  1  0
 17 16  2  0
 18 19  2  0
 19 20  1  0
  2 21  1  0
  4 22  1  0
  6 23  1  0
  7 24  1  0
 12 25  1  0
 15 26  1  0
 16 27  1  0
 19 28  1  0
M  ISO  8  21  14  22  14  23   9  24  14  25  14  26  14  27  14  28  14
M  END
>  <minimizedAffinity>  (1) 
-4.08949232

>  <minimizedRMSD>  (1) 
5.20548296

$$$$
