
     RDKit          3D

 30 32  0  0  0  0  0  0  0  0999 V2000
   44.9520   33.8210   40.6050 C   0  0  0  0  0  0  0  0  0  0  0  0
   45.9840   33.6420   39.7050 C   0  0  0  0  0  0  0  0  0  0  0  0
   47.1210   33.7590   40.4480 N   0  0  0  0  0  0  0  0  0  0  0  0
   46.7580   33.9950   41.7140 C   0  0  0  0  0  0  0  0  0  0  0  0
   45.4240   34.0380   41.8400 N   0  0  0  0  0  0  0  0  0  0  0  0
   41.5460   34.8810   39.4530 C   0  0  0  0  0  0  0  0  0  0  0  0
   42.9020   34.9530   39.8200 C   0  0  0  0  0  0  0  0  0  0  0  0
   43.5440   33.7740   40.2200 C   0  0  0  0  0  0  0  0  0  0  0  0
   42.8220   32.6250   40.2320 N   0  0  0  0  0  0  0  0  0  0  0  0
   41.5230   32.5810   39.8760 C   0  0  0  0  0  0  0  0  0  0  0  0
   40.8940   33.7070   39.4890 N   0  0  0  0  0  0  0  0  0  0  0  0
   44.7230   34.2710   43.0580 C   0  0  0  0  0  0  0  0  0  0  0  0
   45.4980   34.0000   44.3130 C   0  0  0  0  0  0  0  0  0  0  0  0
   44.8740   34.9030   45.3660 C   0  0  0  0  0  0  0  0  0  0  0  0
   44.7110   36.1800   44.5730 C   0  0  0  0  0  0  0  0  0  0  0  0
   44.3340   35.7400   43.1780 C   0  0  0  0  0  0  0  0  0  0  0  0
   45.9057   33.4476   38.6251 H   0  0  0  0  0  0  0  0  0  0  0  0
   47.4642   34.1358   42.5455 H   0  0  0  0  0  0  0  0  0  0  0  0
   41.0165   35.7911   39.1347 H   0  0  0  0  0  0  0  0  0  0  0  0
   43.4439   35.9099   39.7936 H   0  0  0  0  0  0  0  0  0  0  0  0
   40.9771   31.6263   39.9015 H   0  0  0  0  0  0  0  0  0  0  0  0
   43.8748   33.5739   42.9899 H   0  0  0  0  0  0  0  0  0  0  0  0
   45.4035   32.9436   44.6049 H   0  0  0  0  0  0  0  0  0  0  0  0
   46.5726   34.1973   44.1849 H   0  0  0  0  0  0  0  0  0  0  0  0
   43.9052   34.5137   45.7123 H   0  0  0  0  0  0  0  0  0  0  0  0
   45.4650   35.0083   46.2878 H   0  0  0  0  0  0  0  0  0  0  0  0
   43.9164   36.8043   45.0077 H   0  0  0  0  0  0  0  0  0  0  0  0
   45.6300   36.7845   44.5771 H   0  0  0  0  0  0  0  0  0  0  0  0
   44.8787   36.3379   42.4324 H   0  0  0  0  0  0  0  0  0  0  0  0
   43.2577   35.8787   42.9983 H   0  0  0  0  0  0  0  0  0  0  0  0
  1  5  1  0
  2  3  1  0
  2  1  2  0
  3  4  2  0
  4  5  1  0
  5 12  1  0
  6 11  2  0
  6  7  1  0
  7  8  2  0
  8  9  1  0
  8  1  1  0
 10  9  2  0
 11 10  1  0
 12 16  1  0
 12 13  1  0
 13 14  1  0
 15 14  1  0
 16 15  1  0
  2 17  1  0
  4 18  1  0
  6 19  1  0
  7 20  1  0
 10 21  1  0
 12 22  1  0
 13 23  1  0
 13 24  1  0
 14 25  1  0
 14 26  1  0
 15 27  1  0
 15 28  1  0
 16 29  1  0
 16 30  1  0
M  ISO  8  17  14  18  14  19  14  20  14  21  14  22  13  23  13  24  13
M  ISO  6  25  13  26  13  27  13  28  13  29  13  30  13
M  END
>  <minimizedAffinity>  (1) 
-4.05485153

>  <minimizedRMSD>  (1) 
4.96217537

$$$$
