
     RDKit          3D

 33 36  0  0  0  0  0  0  0  0999 V2000
   44.9360   33.5560   41.6390 C   0  0  0  0  0  0  0  0  0  0  0  0
   43.9400   32.6990   41.1730 C   0  0  0  0  0  0  0  0  0  0  0  0
   44.3170   32.4160   39.8840 N   0  0  0  0  0  0  0  0  0  0  0  0
   45.4610   33.0770   39.6360 C   0  0  0  0  0  0  0  0  0  0  0  0
   45.8600   33.7810   40.6960 N   0  0  0  0  0  0  0  0  0  0  0  0
   44.4090   35.9090   44.5130 C   0  0  0  0  0  0  0  0  0  0  0  0
   44.4080   35.3930   43.2070 C   0  0  0  0  0  0  0  0  0  0  0  0
   44.9280   34.1110   42.9910 C   0  0  0  0  0  0  0  0  0  0  0  0
   45.4080   33.4250   44.0530 N   0  0  0  0  0  0  0  0  0  0  0  0
   45.3960   33.9470   45.2980 C   0  0  0  0  0  0  0  0  0  0  0  0
   44.8970   35.1850   45.5260 N   0  0  0  0  0  0  0  0  0  0  0  0
   47.0230   34.6200   40.8390 C   0  0  0  0  0  0  0  0  0  0  0  0
   48.1590   33.9660   41.4340 N   0  0  0  0  0  0  0  0  0  0  0  0
   48.7080   33.9680   42.6470 C   0  0  0  0  0  0  0  0  0  0  0  0
   49.7890   33.1780   42.7210 N   0  0  0  0  0  0  0  0  0  0  0  0
   49.9660   32.6300   41.5110 C   0  0  0  0  0  0  0  0  0  0  0  0
   50.9200   31.7470   41.0310 C   0  0  0  0  0  0  0  0  0  0  0  0
   50.8130   31.3870   39.7440 N   0  0  0  0  0  0  0  0  0  0  0  0
   49.8350   31.8600   38.9760 C   0  0  0  0  0  0  0  0  0  0  0  0
   48.9330   32.7030   39.4510 N   0  0  0  0  0  0  0  0  0  0  0  0
   48.9530   33.1210   40.7140 C   0  0  0  0  0  0  0  0  0  0  0  0
   51.9660   31.2360   41.8470 N   0  0  0  0  0  0  0  0  0  0  0  0
   43.0549   32.3334   41.7143 H   0  0  0  0  0  0  0  0  0  0  0  0
   46.0007   33.0416   38.6781 H   0  0  0  0  0  0  0  0  0  0  0  0
   44.0060   36.9146   44.7039 H   0  0  0  0  0  0  0  0  0  0  0  0
   44.0068   35.9840   42.3705 H   0  0  0  0  0  0  0  0  0  0  0  0
   45.7964   33.3595   46.1374 H   0  0  0  0  0  0  0  0  0  0  0  0
   47.3153   34.9759   39.8401 H   0  0  0  0  0  0  0  0  0  0  0  0
   46.7391   35.4365   41.5193 H   0  0  0  0  0  0  0  0  0  0  0  0
   48.3184   34.5523   43.4937 H   0  0  0  0  0  0  0  0  0  0  0  0
   49.7752   31.5435   37.9242 H   0  0  0  0  0  0  0  0  0  0  0  0
   52.6552   30.5812   41.4507 H   0  0  0  0  0  0  0  0  0  0  0  0
   52.0346   31.5206   42.8345 H   0  0  0  0  0  0  0  0  0  0  0  0
  1  8  1  0
  2  1  2  0
  3  2  1  0
  4  3  2  0
  4  5  1  0
  5 12  1  0
  5  1  1  0
  6 11  2  0
  7  6  1  0
  8  7  2  0
  8  9  1  0
  9 10  2  0
 10 11  1  0
 12 13  1  0
 13 14  1  0
 14 15  2  0
 16 15  1  0
 17 16  2  0
 17 22  1  0
 18 17  1  0
 19 20  1  0
 19 18  2  0
 20 21  2  0
 21 13  1  0
 21 16  1  0
  2 23  1  0
  4 24  1  0
  6 25  1  0
  7 26  1  0
 10 27  1  0
 12 28  1  0
 12 29  1  0
 14 30  1  0
 19 31  1  0
 22 32  1  0
 22 33  1  0
M  ISO  8  23  14  24  14  25  14  26  14  27  14  28   8  29   8  30  14
M  ISO  1  31  14
M  END
>  <minimizedAffinity>  (1) 
-4.8259697

>  <minimizedRMSD>  (1) 
2.09492803

$$$$
