
     RDKit          3D

 34 37  0  0  0  0  0  0  0  0999 V2000
   47.0680   34.5960   40.9400 C   0  0  0  0  0  0  0  0  0  0  0  0
   48.1590   33.8050   41.4090 N   0  0  0  0  0  0  0  0  0  0  0  0
   48.7030   33.6020   42.6210 C   0  0  0  0  0  0  0  0  0  0  0  0
   49.7520   32.7380   42.5370 N   0  0  0  0  0  0  0  0  0  0  0  0
   49.9090   32.3610   41.2530 C   0  0  0  0  0  0  0  0  0  0  0  0
   50.7720   31.5290   40.5680 C   0  0  0  0  0  0  0  0  0  0  0  0
   51.6590   30.9510   41.2800 O   0  0  0  0  0  0  0  0  0  0  0  0
   50.6680   31.3540   39.2380 N   0  0  0  0  0  0  0  0  0  0  0  0
   49.6980   32.0080   38.5730 C   0  0  0  0  0  0  0  0  0  0  0  0
   49.5790   31.8290   37.1620 N   0  0  0  0  0  0  0  0  0  0  0  0
   48.8480   32.8220   39.2250 N   0  0  0  0  0  0  0  0  0  0  0  0
   48.9140   33.0320   40.5730 C   0  0  0  0  0  0  0  0  0  0  0  0
   44.8840   33.7110   41.6620 C   0  0  0  0  0  0  0  0  0  0  0  0
   43.8160   32.9790   41.1390 C   0  0  0  0  0  0  0  0  0  0  0  0
   44.1820   32.7210   39.8460 N   0  0  0  0  0  0  0  0  0  0  0  0
   45.3920   33.2750   39.6450 C   0  0  0  0  0  0  0  0  0  0  0  0
   45.8330   33.8850   40.7480 N   0  0  0  0  0  0  0  0  0  0  0  0
   44.4360   35.9130   44.6600 C   0  0  0  0  0  0  0  0  0  0  0  0
   44.4220   35.4520   43.3420 C   0  0  0  0  0  0  0  0  0  0  0  0
   44.8980   34.1920   43.0380 C   0  0  0  0  0  0  0  0  0  0  0  0
   45.3800   33.4170   44.0660 N   0  0  0  0  0  0  0  0  0  0  0  0
   45.3820   33.8830   45.3330 C   0  0  0  0  0  0  0  0  0  0  0  0
   44.9200   35.1050   45.6280 N   0  0  0  0  0  0  0  0  0  0  0  0
   46.8890   35.3969   41.6725 H   0  0  0  0  0  0  0  0  0  0  0  0
   47.3643   34.9658   39.9473 H   0  0  0  0  0  0  0  0  0  0  0  0
   48.3497   34.0692   43.5521 H   0  0  0  0  0  0  0  0  0  0  0  0
   51.3186   30.7312   38.7383 H   0  0  0  0  0  0  0  0  0  0  0  0
   50.2310   31.2053   36.6652 H   0  0  0  0  0  0  0  0  0  0  0  0
   48.8412   32.3235   36.6405 H   0  0  0  0  0  0  0  0  0  0  0  0
   42.8900   32.6779   41.6507 H   0  0  0  0  0  0  0  0  0  0  0  0
   45.9457   33.2310   38.6955 H   0  0  0  0  0  0  0  0  0  0  0  0
   44.0593   36.9169   44.9056 H   0  0  0  0  0  0  0  0  0  0  0  0
   44.0296   36.0962   42.5414 H   0  0  0  0  0  0  0  0  0  0  0  0
   45.7714   33.2454   46.1404 H   0  0  0  0  0  0  0  0  0  0  0  0
  1  2  1  0
  2  3  1  0
  4  3  2  0
  5  4  1  0
  6  5  1  0
  6  7  2  0
  8  6  1  0
  9 11  2  0
  9  8  1  0
 10  9  1  0
 11 12  1  0
 12  5  2  0
 12  2  1  0
 13 20  1  0
 14 13  2  0
 15 14  1  0
 16 15  2  0
 16 17  1  0
 17  1  1  0
 17 13  1  0
 18 23  2  0
 19 18  1  0
 20 19  2  0
 20 21  1  0
 21 22  2  0
 22 23  1  0
  1 24  1  0
  1 25  1  0
  3 26  1  0
  8 27  1  0
 10 28  1  0
 10 29  1  0
 14 30  1  0
 16 31  1  0
 18 32  1  0
 19 33  1  0
 22 34  1  0
M  ISO  8  24   8  25   8  26  14  27   9  30  14  31  14  32  14  33  14
M  ISO  1  34  14
M  END
>  <minimizedAffinity>  (1) 
-4.80171824

>  <minimizedRMSD>  (1) 
2.35486102

$$$$
