
     RDKit          3D

 27 29  0  0  0  0  0  0  0  0999 V2000
   45.7870   34.0930   41.5540 C   0  0  0  0  0  0  0  0  0  0  0  0
   44.9280   33.3870   40.7280 C   0  0  0  0  0  0  0  0  0  0  0  0
   45.6090   33.2510   39.5510 N   0  0  0  0  0  0  0  0  0  0  0  0
   46.7920   33.8450   39.6910 C   0  0  0  0  0  0  0  0  0  0  0  0
   46.9240   34.3680   40.9110 N   0  0  0  0  0  0  0  0  0  0  0  0
   44.4960   35.9980   44.5040 C   0  0  0  0  0  0  0  0  0  0  0  0
   44.8070   35.6710   43.1820 C   0  0  0  0  0  0  0  0  0  0  0  0
   45.4530   34.4570   42.9210 C   0  0  0  0  0  0  0  0  0  0  0  0
   45.7460   33.6520   43.9810 N   0  0  0  0  0  0  0  0  0  0  0  0
   45.4270   34.0060   45.2520 C   0  0  0  0  0  0  0  0  0  0  0  0
   44.8080   35.1680   45.5060 N   0  0  0  0  0  0  0  0  0  0  0  0
   48.0470   35.0930   41.4680 C   0  0  0  0  0  0  0  0  0  0  0  0
   49.1790   34.2220   41.7270 N   0  0  0  0  0  0  0  0  0  0  0  0
   50.2730   34.3700   42.4570 N   0  0  0  0  0  0  0  0  0  0  0  0
   51.0410   33.2680   42.3860 C   0  0  0  0  0  0  0  0  0  0  0  0
   50.4170   32.3430   41.5660 C   0  0  0  0  0  0  0  0  0  0  0  0
   49.2600   32.9890   41.1830 C   0  0  0  0  0  0  0  0  0  0  0  0
   43.9199   33.0173   40.9668 H   0  0  0  0  0  0  0  0  0  0  0  0
   47.5593   33.8976   38.9046 H   0  0  0  0  0  0  0  0  0  0  0  0
   43.9887   36.9490   44.7238 H   0  0  0  0  0  0  0  0  0  0  0  0
   44.5488   36.3555   42.3606 H   0  0  0  0  0  0  0  0  0  0  0  0
   45.6793   33.3316   46.0835 H   0  0  0  0  0  0  0  0  0  0  0  0
   48.3544   35.8736   40.7566 H   0  0  0  0  0  0  0  0  0  0  0  0
   47.7285   35.5318   42.4251 H   0  0  0  0  0  0  0  0  0  0  0  0
   52.0055   33.1252   42.8953 H   0  0  0  0  0  0  0  0  0  0  0  0
   50.7610   31.3360   41.2873 H   0  0  0  0  0  0  0  0  0  0  0  0
   48.4991   32.5543   40.5181 H   0  0  0  0  0  0  0  0  0  0  0  0
  1  8  1  0
  2  1  2  0
  3  4  2  0
  3  2  1  0
  4  5  1  0
  5 12  1  0
  5  1  1  0
  6 11  2  0
  7  6  1  0
  8  7  2  0
  8  9  1  0
  9 10  2  0
 10 11  1  0
 12 13  1  0
 13 14  1  0
 15 14  2  0
 16 15  1  0
 17 16  2  0
 17 13  1  0
  2 18  1  0
  4 19  1  0
  6 20  1  0
  7 21  1  0
 10 22  1  0
 12 23  1  0
 12 24  1  0
 15 25  1  0
 16 26  1  0
 17 27  1  0
M  ISO  8  18  14  19  14  20  14  21  14  22  14  23   8  24   8  25  14
M  ISO  2  26  14  27  14
M  END
>  <minimizedAffinity>  (1) 
-4.63083458

>  <minimizedRMSD>  (1) 
1.17232239

$$$$
