
     RDKit          3D

 31 34  0  0  0  0  0  0  0  0999 V2000
   45.0110   33.0060   41.8750 C   0  0  0  0  0  0  0  0  0  0  0  0
   44.2390   31.8760   41.7160 C   0  0  0  0  0  0  0  0  0  0  0  0
   44.6180   31.3780   40.5040 N   0  0  0  0  0  0  0  0  0  0  0  0
   45.5540   32.1730   39.9880 C   0  0  0  0  0  0  0  0  0  0  0  0
   45.8210   33.1920   40.8120 N   0  0  0  0  0  0  0  0  0  0  0  0
   44.3540   35.9780   44.0590 C   0  0  0  0  0  0  0  0  0  0  0  0
   44.4190   35.1670   42.9170 C   0  0  0  0  0  0  0  0  0  0  0  0
   44.9350   33.8690   43.0510 C   0  0  0  0  0  0  0  0  0  0  0  0
   45.3390   33.4870   44.2820 N   0  0  0  0  0  0  0  0  0  0  0  0
   45.2670   34.2830   45.3570 C   0  0  0  0  0  0  0  0  0  0  0  0
   44.7760   35.5220   45.2420 N   0  0  0  0  0  0  0  0  0  0  0  0
   46.7560   34.2700   40.6430 C   0  0  0  0  0  0  0  0  0  0  0  0
   47.9460   34.1460   41.4200 N   0  0  0  0  0  0  0  0  0  0  0  0
   48.3730   34.7310   42.5490 C   0  0  0  0  0  0  0  0  0  0  0  0
   49.5870   34.2710   42.8870 N   0  0  0  0  0  0  0  0  0  0  0  0
   49.9590   33.3720   41.9680 C   0  0  0  0  0  0  0  0  0  0  0  0
   51.1400   32.6350   41.9070 C   0  0  0  0  0  0  0  0  0  0  0  0
   51.2440   31.7900   40.8480 N   0  0  0  0  0  0  0  0  0  0  0  0
   50.2300   31.7140   39.9440 C   0  0  0  0  0  0  0  0  0  0  0  0
   49.0890   32.4250   40.0000 N   0  0  0  0  0  0  0  0  0  0  0  0
   48.9260   33.2830   41.0300 C   0  0  0  0  0  0  0  0  0  0  0  0
   43.4880   31.4683   42.4087 H   0  0  0  0  0  0  0  0  0  0  0  0
   46.0417   32.0129   39.0151 H   0  0  0  0  0  0  0  0  0  0  0  0
   43.9520   36.9989   43.9803 H   0  0  0  0  0  0  0  0  0  0  0  0
   44.0742   35.5389   41.9408 H   0  0  0  0  0  0  0  0  0  0  0  0
   45.6120   33.9174   46.3354 H   0  0  0  0  0  0  0  0  0  0  0  0
   47.0414   34.3145   39.5816 H   0  0  0  0  0  0  0  0  0  0  0  0
   46.2487   35.1824   40.9896 H   0  0  0  0  0  0  0  0  0  0  0  0
   47.8068   35.4829   43.1182 H   0  0  0  0  0  0  0  0  0  0  0  0
   51.9329   32.7306   42.6634 H   0  0  0  0  0  0  0  0  0  0  0  0
   50.3525   31.0171   39.1018 H   0  0  0  0  0  0  0  0  0  0  0  0
  1  8  1  0
  2  1  2  0
  3  2  1  0
  4  3  2  0
  4  5  1  0
  5  1  1  0
  6 11  2  0
  7  8  2  0
  7  6  1  0
  8  9  1  0
  9 10  2  0
 11 10  1  0
 12  5  1  0
 12 13  1  0
 13 14  1  0
 14 15  2  0
 16 15  1  0
 17 16  2  0
 18 17  1  0
 19 20  1  0
 19 18  2  0
 20 21  2  0
 21 13  1  0
 21 16  1  0
  2 22  1  0
  4 23  1  0
  6 24  1  0
  7 25  1  0
 10 26  1  0
 12 27  1  0
 12 28  1  0
 14 29  1  0
 17 30  1  0
 19 31  1  0
M  ISO  8  22  14  23  14  24  14  25  14  26  14  27   8  28   8  29  14
M  ISO  2  30  14  31  14
M  END
>  <minimizedAffinity>  (1) 
-4.61786127

>  <minimizedRMSD>  (1) 
2.07122898

$$$$
