
     RDKit          3D

 26 28  0  0  0  0  0  0  0  0999 V2000
   45.9540   34.1240   41.3820 C   0  0  0  0  0  0  0  0  0  0  0  0
   45.1270   33.3740   40.5520 C   0  0  0  0  0  0  0  0  0  0  0  0
   45.8450   33.2380   39.3950 N   0  0  0  0  0  0  0  0  0  0  0  0
   47.0170   33.8760   39.5560 C   0  0  0  0  0  0  0  0  0  0  0  0
   47.0970   34.4250   40.7750 N   0  0  0  0  0  0  0  0  0  0  0  0
   44.5820   36.1090   44.2610 C   0  0  0  0  0  0  0  0  0  0  0  0
   44.9510   35.7420   42.9650 C   0  0  0  0  0  0  0  0  0  0  0  0
   45.5690   34.5100   42.7300 C   0  0  0  0  0  0  0  0  0  0  0  0
   45.7780   33.7250   43.8090 N   0  0  0  0  0  0  0  0  0  0  0  0
   45.4220   34.0800   45.0600 C   0  0  0  0  0  0  0  0  0  0  0  0
   44.8300   35.2640   45.2740 N   0  0  0  0  0  0  0  0  0  0  0  0
   48.1910   35.1790   41.3240 C   0  0  0  0  0  0  0  0  0  0  0  0
   49.2580   34.2680   41.6780 N   0  0  0  0  0  0  0  0  0  0  0  0
   50.2950   34.3440   42.5310 C   0  0  0  0  0  0  0  0  0  0  0  0
   50.9820   33.1780   42.4670 N   0  0  0  0  0  0  0  0  0  0  0  0
   50.3690   32.3950   41.5790 C   0  0  0  0  0  0  0  0  0  0  0  0
   49.3160   33.0580   41.0970 N   0  0  0  0  0  0  0  0  0  0  0  0
   44.1244   32.9801   40.7749 H   0  0  0  0  0  0  0  0  0  0  0  0
   47.8041   33.9388   38.7901 H   0  0  0  0  0  0  0  0  0  0  0  0
   44.0949   37.0772   44.4490 H   0  0  0  0  0  0  0  0  0  0  0  0
   44.7546   36.4251   42.1255 H   0  0  0  0  0  0  0  0  0  0  0  0
   45.6166   33.4003   45.9027 H   0  0  0  0  0  0  0  0  0  0  0  0
   48.5540   35.9001   40.5769 H   0  0  0  0  0  0  0  0  0  0  0  0
   47.8554   35.7249   42.2181 H   0  0  0  0  0  0  0  0  0  0  0  0
   50.5426   35.2043   43.1702 H   0  0  0  0  0  0  0  0  0  0  0  0
   50.6777   31.3786   41.2932 H   0  0  0  0  0  0  0  0  0  0  0  0
  1  8  1  0
  2  1  2  0
  3  4  2  0
  3  2  1  0
  4  5  1  0
  5 12  1  0
  5  1  1  0
  6 11  2  0
  7  6  1  0
  8  7  2  0
  8  9  1  0
  9 10  2  0
 10 11  1  0
 12 13  1  0
 13 14  1  0
 15 14  2  0
 16 15  1  0
 17 16  2  0
 17 13  1  0
  2 18  1  0
  4 19  1  0
  6 20  1  0
  7 21  1  0
 10 22  1  0
 12 23  1  0
 12 24  1  0
 14 25  1  0
 16 26  1  0
M  ISO  8  18  14  19  14  20  14  21  14  22  14  23   8  24   8  25  14
M  ISO  1  26  14
M  END
>  <minimizedAffinity>  (1) 
-4.60535049

>  <minimizedRMSD>  (1) 
0.974218488

$$$$
