
     RDKit          3D

 35 37  0  0  0  0  0  0  0  0999 V2000
   46.9620   34.7920   41.9330 C   0  0  0  0  0  0  0  0  0  0  0  0
   48.2340   35.3450   41.8000 C   0  0  0  0  0  0  0  0  0  0  0  0
   48.5980   35.0240   40.5150 N   0  0  0  0  0  0  0  0  0  0  0  0
   47.6100   34.3380   39.9490 C   0  0  0  0  0  0  0  0  0  0  0  0
   46.6080   34.1900   40.8030 N   0  0  0  0  0  0  0  0  0  0  0  0
   45.5540   34.0370   45.3170 C   0  0  0  0  0  0  0  0  0  0  0  0
   46.2990   33.9420   44.1430 C   0  0  0  0  0  0  0  0  0  0  0  0
   46.1800   34.8960   43.1550 C   0  0  0  0  0  0  0  0  0  0  0  0
   45.3080   35.9380   43.3600 N   0  0  0  0  0  0  0  0  0  0  0  0
   44.5940   36.0100   44.5060 C   0  0  0  0  0  0  0  0  0  0  0  0
   44.7100   35.0830   45.4660 N   0  0  0  0  0  0  0  0  0  0  0  0
   45.3310   33.5170   40.5720 C   0  0  0  0  0  0  0  0  0  0  0  0
   45.2390   32.9150   39.2750 N   0  0  0  0  0  0  0  0  0  0  0  0
   43.9380   33.1870   38.7230 C   0  0  0  0  0  0  0  0  0  0  0  0
   43.4890   32.1500   37.7280 C   0  0  0  0  0  0  0  0  0  0  0  0
   44.6610   31.4930   37.0640 C   0  0  0  0  0  0  0  0  0  0  0  0
   45.4340   30.7470   38.1300 C   0  0  0  0  0  0  0  0  0  0  0  0
   45.3610   31.4930   39.4400 C   0  0  0  0  0  0  0  0  0  0  0  0
   48.8115   35.9070   42.5488 H   0  0  0  0  0  0  0  0  0  0  0  0
   47.6226   33.9493   38.9200 H   0  0  0  0  0  0  0  0  0  0  0  0
   45.6505   33.2768   46.1061 H   0  0  0  0  0  0  0  0  0  0  0  0
   46.9892   33.0969   44.0033 H   0  0  0  0  0  0  0  0  0  0  0  0
   43.9005   36.8509   44.6537 H   0  0  0  0  0  0  0  0  0  0  0  0
   45.2068   32.7316   41.3320 H   0  0  0  0  0  0  0  0  0  0  0  0
   44.5418   34.2806   40.6357 H   0  0  0  0  0  0  0  0  0  0  0  0
   43.2089   33.2211   39.5459 H   0  0  0  0  0  0  0  0  0  0  0  0
   44.0027   34.1467   38.1893 H   0  0  0  0  0  0  0  0  0  0  0  0
   42.8968   31.3842   38.2504 H   0  0  0  0  0  0  0  0  0  0  0  0
   42.8845   32.6474   36.9552 H   0  0  0  0  0  0  0  0  0  0  0  0
   44.3100   30.7899   36.2943 H   0  0  0  0  0  0  0  0  0  0  0  0
   45.3007   32.2449   36.5788 H   0  0  0  0  0  0  0  0  0  0  0  0
   45.0018   29.7436   38.2580 H   0  0  0  0  0  0  0  0  0  0  0  0
   46.4863   30.6641   37.8206 H   0  0  0  0  0  0  0  0  0  0  0  0
   46.2769   31.2847   40.0125 H   0  0  0  0  0  0  0  0  0  0  0  0
   44.4584   31.1459   39.9642 H   0  0  0  0  0  0  0  0  0  0  0  0
  1  8  1  0
  2  1  2  0
  3  2  1  0
  4  3  2  0
  4  5  1  0
  5  1  1  0
  6 11  2  0
  7  6  1  0
  8  9  1  0
  8  7  2  0
  9 10  2  0
 10 11  1  0
 12  5  1  0
 13 18  1  0
 13 12  1  0
 14 13  1  0
 15 14  1  0
 16 15  1  0
 16 17  1  0
 17 18  1  0
  2 19  1  0
  4 20  1  0
  6 21  1  0
  7 22  1  0
 10 23  1  0
 12 24  1  0
 12 25  1  0
 14 26  1  0
 14 27  1  0
 15 28  1  0
 15 29  1  0
 16 30  1  0
 16 31  1  0
 17 32  1  0
 17 33  1  0
 18 34  1  0
 18 35  1  0
M  ISO  8  19  14  20  14  21  14  22  14  23  14  24   8  25   8  26  13
M  ISO  8  27  13  28  13  29  13  30  13  31  13  32  13  33  13  34  13
M  ISO  1  35  13
M  END
>  <minimizedAffinity>  (1) 
-4.4425087

>  <minimizedRMSD>  (1) 
5.42115784

$$$$
