
     RDKit          3D

 33 35  0  0  0  0  0  0  0  0999 V2000
   45.3050   34.0070   41.6200 C   0  0  0  0  0  0  0  0  0  0  0  0
   44.2820   33.4350   40.8880 C   0  0  0  0  0  0  0  0  0  0  0  0
   44.8310   33.2290   39.6510 N   0  0  0  0  0  0  0  0  0  0  0  0
   46.0850   33.6610   39.6880 C   0  0  0  0  0  0  0  0  0  0  0  0
   46.4250   34.1520   40.8860 N   0  0  0  0  0  0  0  0  0  0  0  0
   44.4460   35.9780   44.7040 C   0  0  0  0  0  0  0  0  0  0  0  0
   44.5940   35.6300   43.3520 C   0  0  0  0  0  0  0  0  0  0  0  0
   45.1390   34.3970   43.0290 C   0  0  0  0  0  0  0  0  0  0  0  0
   45.5090   33.5750   44.0530 N   0  0  0  0  0  0  0  0  0  0  0  0
   45.3570   33.9340   45.3380 C   0  0  0  0  0  0  0  0  0  0  0  0
   44.8270   35.1320   45.6590 N   0  0  0  0  0  0  0  0  0  0  0  0
   47.6670   34.7130   41.3460 C   0  0  0  0  0  0  0  0  0  0  0  0
   48.4840   33.8180   42.1150 N   0  0  0  0  0  0  0  0  0  0  0  0
   48.5640   32.4800   41.6020 C   0  0  0  0  0  0  0  0  0  0  0  0
   49.8500   32.3270   40.8020 C   0  0  0  0  0  0  0  0  0  0  0  0
   50.8830   32.2880   41.7290 O   0  0  0  0  0  0  0  0  0  0  0  0
   50.8850   33.4390   42.4700 C   0  0  0  0  0  0  0  0  0  0  0  0
   49.8190   34.4330   42.1350 C   0  0  0  0  0  0  0  0  0  0  0  0
   43.2609   33.1993   41.2225 H   0  0  0  0  0  0  0  0  0  0  0  0
   46.7701   33.6201   38.8284 H   0  0  0  0  0  0  0  0  0  0  0  0
   44.0140   36.9526   44.9752 H   0  0  0  0  0  0  0  0  0  0  0  0
   44.2817   36.3263   42.5597 H   0  0  0  0  0  0  0  0  0  0  0  0
   45.6678   33.2443   46.1366 H   0  0  0  0  0  0  0  0  0  0  0  0
   48.2446   35.0329   40.4662 H   0  0  0  0  0  0  0  0  0  0  0  0
   47.4018   35.5435   42.0168 H   0  0  0  0  0  0  0  0  0  0  0  0
   48.5633   31.7648   42.4378 H   0  0  0  0  0  0  0  0  0  0  0  0
   47.6988   32.2807   40.9527 H   0  0  0  0  0  0  0  0  0  0  0  0
   49.8268   31.3951   40.2181 H   0  0  0  0  0  0  0  0  0  0  0  0
   49.9807   33.1572   40.0923 H   0  0  0  0  0  0  0  0  0  0  0  0
   50.7651   33.1595   43.5271 H   0  0  0  0  0  0  0  0  0  0  0  0
   51.8389   33.9375   42.2432 H   0  0  0  0  0  0  0  0  0  0  0  0
   50.0292   34.8594   41.1430 H   0  0  0  0  0  0  0  0  0  0  0  0
   49.8238   35.2130   42.9106 H   0  0  0  0  0  0  0  0  0  0  0  0
  1  8  1  0
  2  1  2  0
  3  4  2  0
  3  2  1  0
  4  5  1  0
  5 12  1  0
  5  1  1  0
  6 11  2  0
  7  6  1  0
  8  7  2  0
  8  9  1  0
  9 10  2  0
 10 11  1  0
 12 13  1  0
 13 18  1  0
 14 13  1  0
 15 14  1  0
 15 16  1  0
 16 17  1  0
 18 17  1  0
  2 19  1  0
  4 20  1  0
  6 21  1  0
  7 22  1  0
 10 23  1  0
 12 24  1  0
 12 25  1  0
 14 26  1  0
 14 27  1  0
 15 28  1  0
 15 29  1  0
 17 30  1  0
 17 31  1  0
 18 32  1  0
 18 33  1  0
M  ISO  8  19  14  20  14  21  14  22  14  23  14  24   8  25   8  26  13
M  ISO  7  27  13  28  13  29  13  30  13  31  13  32  13  33  13
M  END
>  <minimizedAffinity>  (1) 
-4.41706133

>  <minimizedRMSD>  (1) 
1.38643622

$$$$
