
     RDKit          3D

 31 33  0  0  0  0  0  0  0  0999 V2000
   46.1300   34.2460   41.9220 C   0  0  0  0  0  0  0  0  0  0  0  0
   45.3280   34.1530   40.8070 C   0  0  0  0  0  0  0  0  0  0  0  0
   46.1900   33.8000   39.7950 N   0  0  0  0  0  0  0  0  0  0  0  0
   47.4270   33.6980   40.3180 C   0  0  0  0  0  0  0  0  0  0  0  0
   47.4170   33.9700   41.6350 N   0  0  0  0  0  0  0  0  0  0  0  0
   44.5210   36.1710   44.7040 C   0  0  0  0  0  0  0  0  0  0  0  0
   45.0100   35.8260   43.4440 C   0  0  0  0  0  0  0  0  0  0  0  0
   45.6190   34.6040   43.2320 C   0  0  0  0  0  0  0  0  0  0  0  0
   45.7060   33.7850   44.3060 N   0  0  0  0  0  0  0  0  0  0  0  0
   45.2360   34.1180   45.5190 C   0  0  0  0  0  0  0  0  0  0  0  0
   44.6480   35.2980   45.7240 N   0  0  0  0  0  0  0  0  0  0  0  0
   48.5300   33.9700   42.5450 C   0  0  0  0  0  0  0  0  0  0  0  0
   49.4660   32.9120   42.3790 N   0  0  0  0  0  0  0  0  0  0  0  0
   50.6580   32.8810   41.7600 C   0  0  0  0  0  0  0  0  0  0  0  0
   51.4420   31.7640   41.6840 C   0  0  0  0  0  0  0  0  0  0  0  0
   51.0370   30.5760   42.2560 C   0  0  0  0  0  0  0  0  0  0  0  0
   51.9010   29.4530   42.1390 N   0  0  0  0  0  0  0  0  0  0  0  0
   49.8390   30.5680   42.8900 N   0  0  0  0  0  0  0  0  0  0  0  0
   49.1140   31.7130   42.9250 C   0  0  0  0  0  0  0  0  0  0  0  0
   48.0170   31.5380   43.5560 O   0  0  0  0  0  0  0  0  0  0  0  0
   44.2432   34.3226   40.7405 H   0  0  0  0  0  0  0  0  0  0  0  0
   48.3259   33.4281   39.7442 H   0  0  0  0  0  0  0  0  0  0  0  0
   44.0366   37.1455   44.8641 H   0  0  0  0  0  0  0  0  0  0  0  0
   44.9096   36.5352   42.6092 H   0  0  0  0  0  0  0  0  0  0  0  0
   45.3370   33.4091   46.3540 H   0  0  0  0  0  0  0  0  0  0  0  0
   49.0692   34.9204   42.4185 H   0  0  0  0  0  0  0  0  0  0  0  0
   48.0967   33.8308   43.5465 H   0  0  0  0  0  0  0  0  0  0  0  0
   51.0230   33.8053   41.2885 H   0  0  0  0  0  0  0  0  0  0  0  0
   52.4080   31.8131   41.1601 H   0  0  0  0  0  0  0  0  0  0  0  0
   51.6308   28.5499   42.5540 H   0  0  0  0  0  0  0  0  0  0  0  0
   52.7972   29.5426   41.6393 H   0  0  0  0  0  0  0  0  0  0  0  0
  1  8  1  0
  2  1  2  0
  3  4  2  0
  3  2  1  0
  4  5  1  0
  5  1  1  0
  5 12  1  0
  6 11  2  0
  7  6  1  0
  8  7  2  0
  8  9  1  0
  9 10  2  0
 10 11  1  0
 13 12  1  0
 13 19  1  0
 14 13  1  0
 15 14  2  0
 15 16  1  0
 16 18  2  0
 17 16  1  0
 18 19  1  0
 19 20  2  0
  2 21  1  0
  4 22  1  0
  6 23  1  0
  7 24  1  0
 10 25  1  0
 12 26  1  0
 12 27  1  0
 14 28  1  0
 15 29  1  0
 17 30  1  0
 17 31  1  0
M  ISO  8  21  14  22  14  23  14  24  14  25  14  26   8  27   8  28  14
M  ISO  1  29  14
M  END
>  <minimizedAffinity>  (1) 
-4.3546114

>  <minimizedRMSD>  (1) 
1.87934625

$$$$
