
     RDKit          3D

 29 31  0  0  0  0  0  0  0  0999 V2000
   45.8360   34.2070   41.6640 C   0  0  0  0  0  0  0  0  0  0  0  0
   44.8960   33.8960   40.6860 C   0  0  0  0  0  0  0  0  0  0  0  0
   45.6560   33.6260   39.5720 N   0  0  0  0  0  0  0  0  0  0  0  0
   46.9490   33.7750   39.9030 C   0  0  0  0  0  0  0  0  0  0  0  0
   47.0760   34.1300   41.1800 N   0  0  0  0  0  0  0  0  0  0  0  0
   44.5120   36.1180   44.6050 C   0  0  0  0  0  0  0  0  0  0  0  0
   44.8700   35.7890   43.2980 C   0  0  0  0  0  0  0  0  0  0  0  0
   45.4560   34.5630   43.0340 C   0  0  0  0  0  0  0  0  0  0  0  0
   45.6710   33.7000   44.0760 N   0  0  0  0  0  0  0  0  0  0  0  0
   45.3120   34.0490   45.3350 C   0  0  0  0  0  0  0  0  0  0  0  0
   44.7460   35.2300   45.5970 N   0  0  0  0  0  0  0  0  0  0  0  0
   48.2880   34.3890   41.9180 C   0  0  0  0  0  0  0  0  0  0  0  0
   49.0490   33.1480   42.2130 C   0  0  0  0  0  0  0  0  0  0  0  0
   50.4110   33.1500   41.9020 C   0  0  0  0  0  0  0  0  0  0  0  0
   51.2450   32.0840   42.1140 C   0  0  0  0  0  0  0  0  0  0  0  0
   50.6590   30.9650   42.6680 C   0  0  0  0  0  0  0  0  0  0  0  0
   49.3180   30.9420   42.9820 C   0  0  0  0  0  0  0  0  0  0  0  0
   48.5130   32.0180   42.7590 N   0  0  0  0  0  0  0  0  0  0  0  0
   43.8004   33.8718   40.7817 H   0  0  0  0  0  0  0  0  0  0  0  0
   47.7909   33.6239   39.2113 H   0  0  0  0  0  0  0  0  0  0  0  0
   44.0446   37.0889   44.8262 H   0  0  0  0  0  0  0  0  0  0  0  0
   44.6874   36.5011   42.4798 H   0  0  0  0  0  0  0  0  0  0  0  0
   45.4907   33.3437   46.1600 H   0  0  0  0  0  0  0  0  0  0  0  0
   48.9254   35.0615   41.3251 H   0  0  0  0  0  0  0  0  0  0  0  0
   48.0044   34.8441   42.8784 H   0  0  0  0  0  0  0  0  0  0  0  0
   50.8393   34.0620   41.4605 H   0  0  0  0  0  0  0  0  0  0  0  0
   52.3144   32.1183   41.8586 H   0  0  0  0  0  0  0  0  0  0  0  0
   51.2742   30.0741   42.8627 H   0  0  0  0  0  0  0  0  0  0  0  0
   48.8863   30.0319   43.4239 H   0  0  0  0  0  0  0  0  0  0  0  0
  1  8  1  0
  2  1  2  0
  3  4  2  0
  3  2  1  0
  4  5  1  0
  5  1  1  0
  5 12  1  0
  6 11  2  0
  7  6  1  0
  8  7  2  0
  8  9  1  0
  9 10  2  0
 10 11  1  0
 12 13  1  0
 13 18  2  0
 14 15  2  0
 14 13  1  0
 15 16  1  0
 16 17  2  0
 18 17  1  0
  2 19  1  0
  4 20  1  0
  6 21  1  0
  7 22  1  0
 10 23  1  0
 12 24  1  0
 12 25  1  0
 14 26  1  0
 15 27  1  0
 16 28  1  0
 17 29  1  0
M  ISO  8  19  14  20  14  21  14  22  14  23  14  24   8  25   8  26  14
M  ISO  3  27  14  28  14  29  14
M  END
>  <minimizedAffinity>  (1) 
-4.32616854

>  <minimizedRMSD>  (1) 
1.55353677

$$$$
