
     RDKit          3D

 27 28  0  0  0  0  0  0  0  0999 V2000
   47.0930   33.5400   43.8870 C   0  0  0  0  0  0  0  0  0  0  0  0
   48.2450   33.3200   43.1630 C   0  0  0  0  0  0  0  0  0  0  0  0
   48.2410   34.3070   42.2160 N   0  0  0  0  0  0  0  0  0  0  0  0
   47.1480   35.0490   42.3890 C   0  0  0  0  0  0  0  0  0  0  0  0
   46.4210   34.5990   43.4120 N   0  0  0  0  0  0  0  0  0  0  0  0
   45.8240   30.6430   45.9060 C   0  0  0  0  0  0  0  0  0  0  0  0
   46.2080   31.4280   44.8160 C   0  0  0  0  0  0  0  0  0  0  0  0
   46.6870   32.7080   45.0170 C   0  0  0  0  0  0  0  0  0  0  0  0
   46.7630   33.1620   46.3070 N   0  0  0  0  0  0  0  0  0  0  0  0
   46.3850   32.3850   47.3420 C   0  0  0  0  0  0  0  0  0  0  0  0
   45.9200   31.1390   47.1500 N   0  0  0  0  0  0  0  0  0  0  0  0
   45.1610   35.1170   43.9300 C   0  0  0  0  0  0  0  0  0  0  0  0
   44.1200   34.3680   43.2100 N   0  0  0  0  0  0  0  0  0  0  0  0
   43.3200   35.0280   42.2330 C   0  0  0  0  0  0  0  0  0  0  0  0
   43.6470   36.2450   41.9440 N   0  0  0  0  0  0  0  0  0  0  0  0
   42.2160   34.3360   41.6270 N   0  0  0  0  0  0  0  0  0  0  0  0
   43.0900   36.7520   41.2420 H   0  0  0  0  0  0  0  0  0  0  0  0
   48.9963   32.5306   43.3126 H   0  0  0  0  0  0  0  0  0  0  0  0
   46.8808   35.9179   41.7697 H   0  0  0  0  0  0  0  0  0  0  0  0
   45.4446   29.6230   45.7458 H   0  0  0  0  0  0  0  0  0  0  0  0
   46.1287   31.0258   43.7952 H   0  0  0  0  0  0  0  0  0  0  0  0
   46.4589   32.7797   48.3661 H   0  0  0  0  0  0  0  0  0  0  0  0
   45.0859   34.9404   45.0131 H   0  0  0  0  0  0  0  0  0  0  0  0
   45.0674   36.2030   43.7820 H   0  0  0  0  0  0  0  0  0  0  0  0
   43.9697   33.3691   43.4115 H   0  0  0  0  0  0  0  0  0  0  0  0
   41.6360   34.8106   40.9205 H   0  0  0  0  0  0  0  0  0  0  0  0
   42.0047   33.3653   41.8992 H   0  0  0  0  0  0  0  0  0  0  0  0
  1  8  1  0
  2  1  2  0
  3  4  2  0
  3  2  1  0
  4  5  1  0
  5  1  1  0
  5 12  1  0
  6 11  2  0
  7  8  2  0
  7  6  1  0
  8  9  1  0
  9 10  2  0
 11 10  1  0
 13 12  1  0
 14 13  1  0
 15 14  2  0
 16 14  1  0
 17 15  1  0
  2 18  1  0
  4 19  1  0
  6 20  1  0
  7 21  1  0
 10 22  1  0
 12 23  1  0
 12 24  1  0
 13 25  1  0
 16 26  1  0
 16 27  1  0
M  ISO  7  18  14  19  14  20  14  21  14  22  14  23   8  24   8
M  END
>  <minimizedAffinity>  (1) 
-4.31253862

>  <minimizedRMSD>  (1) 
4.80089617

$$$$
