
     RDKit          3D

 21 22  0  0  0  0  0  0  0  0999 V2000
   46.7070   34.4640   41.5030 C   0  0  0  0  0  0  0  0  0  0  0  0
   46.0920   33.7390   40.5000 C   0  0  0  0  0  0  0  0  0  0  0  0
   47.0080   33.7470   39.4760 N   0  0  0  0  0  0  0  0  0  0  0  0
   48.0790   34.4380   39.8800 C   0  0  0  0  0  0  0  0  0  0  0  0
   47.9120   34.8850   41.1200 N   0  0  0  0  0  0  0  0  0  0  0  0
   44.6700   36.0490   44.2320 C   0  0  0  0  0  0  0  0  0  0  0  0
   45.2710   35.8460   42.9730 C   0  0  0  0  0  0  0  0  0  0  0  0
   46.0670   34.7060   42.7990 C   0  0  0  0  0  0  0  0  0  0  0  0
   46.2160   33.8620   43.8480 N   0  0  0  0  0  0  0  0  0  0  0  0
   45.6220   34.0910   45.0410 C   0  0  0  0  0  0  0  0  0  0  0  0
   44.8600   35.1740   45.2250 N   0  0  0  0  0  0  0  0  0  0  0  0
   48.8200   35.6700   41.9300 C   0  0  0  0  0  0  0  0  0  0  0  0
   49.6770   34.7720   42.5880 O   0  0  0  0  0  0  0  0  0  0  0  0
   45.0993   33.2654   40.5174 H   0  0  0  0  0  0  0  0  0  0  0  0
   48.9766   34.6127   39.2687 H   0  0  0  0  0  0  0  0  0  0  0  0
   44.0394   36.9347   44.3988 H   0  0  0  0  0  0  0  0  0  0  0  0
   45.1195   36.5615   42.1514 H   0  0  0  0  0  0  0  0  0  0  0  0
   45.7671   33.3798   45.8675 H   0  0  0  0  0  0  0  0  0  0  0  0
   49.4044   36.3479   41.2905 H   0  0  0  0  0  0  0  0  0  0  0  0
   48.2642   36.2807   42.6567 H   0  0  0  0  0  0  0  0  0  0  0  0
   49.5765   34.8773   43.5672 H   0  0  0  0  0  0  0  0  0  0  0  0
  1  8  1  0
  2  1  2  0
  3  4  2  0
  3  2  1  0
  4  5  1  0
  5  1  1  0
  5 12  1  0
  6 11  2  0
  7  6  1  0
  8  7  2  0
  8  9  1  0
  9 10  2  0
 10 11  1  0
 12 13  1  0
  2 14  1  0
  4 15  1  0
  6 16  1  0
  7 17  1  0
 10 18  1  0
 12 19  1  0
 12 20  1  0
 13 21  1  0
M  ISO  8  14  14  15  14  16  14  17  14  18  14  19   8  20   8  21   3
M  END
>  <minimizedAffinity>  (1) 
-4.19918585

>  <minimizedRMSD>  (1) 
0.0429736264

$$$$
