
     RDKit          3D

 21 22  0  0  0  0  0  0  0  0999 V2000
   45.9970   34.1170   41.4790 C   0  0  0  0  0  0  0  0  0  0  0  0
   45.0710   33.8090   40.4780 C   0  0  0  0  0  0  0  0  0  0  0  0
   45.8750   33.4740   39.4050 N   0  0  0  0  0  0  0  0  0  0  0  0
   47.1450   33.5830   39.7690 C   0  0  0  0  0  0  0  0  0  0  0  0
   47.2510   33.9790   41.0430 N   0  0  0  0  0  0  0  0  0  0  0  0
   44.6750   36.1880   44.3120 C   0  0  0  0  0  0  0  0  0  0  0  0
   45.0650   35.8090   43.0220 C   0  0  0  0  0  0  0  0  0  0  0  0
   45.5820   34.5350   42.8230 C   0  0  0  0  0  0  0  0  0  0  0  0
   45.6950   33.6870   43.8940 N   0  0  0  0  0  0  0  0  0  0  0  0
   45.3030   34.1030   45.1210 C   0  0  0  0  0  0  0  0  0  0  0  0
   44.7990   35.3370   45.3300 N   0  0  0  0  0  0  0  0  0  0  0  0
   48.4410   34.2130   41.8170 C   0  0  0  0  0  0  0  0  0  0  0  0
   49.0990   35.8810   41.6470 S   0  0  0  0  0  0  0  0  0  0  0  0
   43.9725   33.8285   40.5313 H   0  0  0  0  0  0  0  0  0  0  0  0
   48.0005   33.3750   39.1096 H   0  0  0  0  0  0  0  0  0  0  0  0
   44.2641   37.1934   44.4862 H   0  0  0  0  0  0  0  0  0  0  0  0
   44.9637   36.5088   42.1794 H   0  0  0  0  0  0  0  0  0  0  0  0
   45.3982   33.4143   45.9734 H   0  0  0  0  0  0  0  0  0  0  0  0
   48.2054   34.0390   42.8773 H   0  0  0  0  0  0  0  0  0  0  0  0
   49.2107   33.5238   41.4395 H   0  0  0  0  0  0  0  0  0  0  0  0
   49.3106   36.4173   42.8898 H   0  0  0  0  0  0  0  0  0  0  0  0
  1  8  1  0
  2  1  2  0
  3  4  2  0
  3  2  1  0
  4  5  1  0
  5  1  1  0
  5 12  1  0
  6 11  2  0
  7  6  1  0
  8  7  2  0
  8  9  1  0
  9 10  2  0
 10 11  1  0
 13 12  1  0
  2 14  1  0
  4 15  1  0
  6 16  1  0
  7 17  1  0
 10 18  1  0
 12 19  1  0
 12 20  1  0
 13 21  1  0
M  ISO  8  14  14  15  14  16  14  17  14  18  14  19   8  20   8  21  11
M  END
>  <minimizedAffinity>  (1) 
-3.75111842

>  <minimizedRMSD>  (1) 
0.916854441

$$$$
