
     RDKit          3D

 38 42  0  0  0  0  0  0  0  0999 V2000
   45.1430   33.2410   40.7970 C   0  0  0  0  0  0  0  0  0  0  0  0
   46.7650   34.6780   41.9710 C   0  0  0  0  0  0  0  0  0  0  0  0
   48.0080   35.2700   41.7270 C   0  0  0  0  0  0  0  0  0  0  0  0
   48.3330   34.8860   40.4530 N   0  0  0  0  0  0  0  0  0  0  0  0
   47.3360   34.1220   40.0030 C   0  0  0  0  0  0  0  0  0  0  0  0
   46.3750   33.9840   40.9070 N   0  0  0  0  0  0  0  0  0  0  0  0
   45.5070   34.0600   45.4430 C   0  0  0  0  0  0  0  0  0  0  0  0
   46.2080   33.8920   44.2320 C   0  0  0  0  0  0  0  0  0  0  0  0
   46.0440   34.8360   43.2350 C   0  0  0  0  0  0  0  0  0  0  0  0
   45.2120   35.8800   43.4730 N   0  0  0  0  0  0  0  0  0  0  0  0
   44.5480   36.0310   44.6300 C   0  0  0  0  0  0  0  0  0  0  0  0
   44.6940   35.1250   45.6110 N   0  0  0  0  0  0  0  0  0  0  0  0
   44.0470   33.9000   40.1020 C   0  0  0  0  0  0  0  0  0  0  0  0
   43.1930   34.8610   40.6500 C   0  0  0  0  0  0  0  0  0  0  0  0
   42.2890   35.2700   39.7440 N   0  0  0  0  0  0  0  0  0  0  0  0
   42.5370   34.5940   38.6130 C   0  0  0  0  0  0  0  0  0  0  0  0
   43.5880   33.7850   38.8480 N   0  0  0  0  0  0  0  0  0  0  0  0
   43.7510   29.6450   36.6950 N   0  0  0  0  0  0  0  0  0  0  0  0
   42.7750   29.6710   37.6400 C   0  0  0  0  0  0  0  0  0  0  0  0
   42.7840   30.9040   38.2250 N   0  0  0  0  0  0  0  0  0  0  0  0
   43.7630   31.6040   37.6290 C   0  0  0  0  0  0  0  0  0  0  0  0
   44.1550   32.9010   37.8800 C   0  0  0  0  0  0  0  0  0  0  0  0
   45.1860   33.3960   37.1340 N   0  0  0  0  0  0  0  0  0  0  0  0
   45.7990   32.6600   36.1930 C   0  0  0  0  0  0  0  0  0  0  0  0
   45.4040   31.3790   35.9520 N   0  0  0  0  0  0  0  0  0  0  0  0
   44.3910   30.8470   36.6630 C   0  0  0  0  0  0  0  0  0  0  0  0
   45.3636   32.3055   40.2620 H   0  0  0  0  0  0  0  0  0  0  0  0
   44.7921   33.1045   41.8306 H   0  0  0  0  0  0  0  0  0  0  0  0
   48.5951   35.9040   42.4077 H   0  0  0  0  0  0  0  0  0  0  0  0
   47.3136   33.6624   39.0039 H   0  0  0  0  0  0  0  0  0  0  0  0
   45.6222   33.3233   46.2517 H   0  0  0  0  0  0  0  0  0  0  0  0
   46.8719   33.0277   44.0830 H   0  0  0  0  0  0  0  0  0  0  0  0
   43.8846   36.8964   44.7747 H   0  0  0  0  0  0  0  0  0  0  0  0
   43.2528   35.2325   41.6837 H   0  0  0  0  0  0  0  0  0  0  0  0
   41.9836   34.6836   37.6666 H   0  0  0  0  0  0  0  0  0  0  0  0
   43.9732   28.8386   36.0940 H   0  0  0  0  0  0  0  0  0  0  0  0
   42.0959   28.8425   37.8900 H   0  0  0  0  0  0  0  0  0  0  0  0
   46.6261   33.0947   35.6126 H   0  0  0  0  0  0  0  0  0  0  0  0
  1  6  1  0
  2  9  1  0
  3  2  2  0
  4  3  1  0
  5  4  2  0
  5  6  1  0
  6  2  1  0
  7 12  2  0
  8  7  1  0
  9 10  1  0
  9  8  2  0
 10 11  2  0
 11 12  1  0
 13 14  2  0
 13  1  1  0
 15 14  1  0
 16 17  1  0
 16 15  2  0
 17 13  1  0
 18 19  1  0
 19 20  2  0
 21 22  2  0
 21 20  1  0
 22 17  1  0
 23 22  1  0
 24 23  2  0
 25 24  1  0
 25 26  2  0
 26 18  1  0
 26 21  1  0
  1 27  1  0
  1 28  1  0
  3 29  1  0
  5 30  1  0
  7 31  1  0
  8 32  1  0
 11 33  1  0
 14 34  1  0
 16 35  1  0
 18 36  1  0
 19 37  1  0
 24 38  1  0
M  ISO  8  27   8  28   8  29  14  30  14  31  14  32  14  33  14  34  14
M  ISO  4  35  14  36   9  37  14  38  14
M  END
>  <minimizedAffinity>  (1) 
-5.61818933

>  <minimizedRMSD>  (1) 
2.69065499

$$$$
