
     RDKit          3D

 36 39  0  0  0  0  0  0  0  0999 V2000
   45.1480   33.2120   40.7870 C   0  0  0  0  0  0  0  0  0  0  0  0
   46.7610   34.6660   41.9530 C   0  0  0  0  0  0  0  0  0  0  0  0
   47.9920   35.2660   41.7070 C   0  0  0  0  0  0  0  0  0  0  0  0
   48.3130   34.8830   40.4370 N   0  0  0  0  0  0  0  0  0  0  0  0
   47.3200   34.1090   39.9890 C   0  0  0  0  0  0  0  0  0  0  0  0
   46.3620   33.9640   40.8990 N   0  0  0  0  0  0  0  0  0  0  0  0
   45.5350   34.0220   45.4290 C   0  0  0  0  0  0  0  0  0  0  0  0
   46.2260   33.8630   44.2160 C   0  0  0  0  0  0  0  0  0  0  0  0
   46.0430   34.8220   43.2290 C   0  0  0  0  0  0  0  0  0  0  0  0
   45.2150   35.8680   43.4680 N   0  0  0  0  0  0  0  0  0  0  0  0
   44.5620   36.0070   44.6300 C   0  0  0  0  0  0  0  0  0  0  0  0
   44.7220   35.0860   45.6070 N   0  0  0  0  0  0  0  0  0  0  0  0
   44.0370   33.8970   40.1040 C   0  0  0  0  0  0  0  0  0  0  0  0
   43.1880   34.8640   40.6830 C   0  0  0  0  0  0  0  0  0  0  0  0
   42.2820   35.2870   39.7900 N   0  0  0  0  0  0  0  0  0  0  0  0
   42.5230   34.6210   38.6550 C   0  0  0  0  0  0  0  0  0  0  0  0
   43.5600   33.8030   38.8510 N   0  0  0  0  0  0  0  0  0  0  0  0
   44.1100   32.9320   37.8670 C   0  0  0  0  0  0  0  0  0  0  0  0
   43.6080   31.6520   37.5970 C   0  0  0  0  0  0  0  0  0  0  0  0
   44.1830   30.8510   36.6300 C   0  0  0  0  0  0  0  0  0  0  0  0
   45.2740   31.3160   35.9120 C   0  0  0  0  0  0  0  0  0  0  0  0
   45.7650   32.5930   36.1910 C   0  0  0  0  0  0  0  0  0  0  0  0
   45.1830   33.3650   37.1480 N   0  0  0  0  0  0  0  0  0  0  0  0
   45.3709   32.2900   40.2301 H   0  0  0  0  0  0  0  0  0  0  0  0
   44.8059   33.0366   41.8176 H   0  0  0  0  0  0  0  0  0  0  0  0
   48.5760   35.9060   42.3847 H   0  0  0  0  0  0  0  0  0  0  0  0
   47.2981   33.6486   38.9902 H   0  0  0  0  0  0  0  0  0  0  0  0
   45.6559   33.2809   46.2328 H   0  0  0  0  0  0  0  0  0  0  0  0
   46.8928   33.0034   44.0531 H   0  0  0  0  0  0  0  0  0  0  0  0
   43.8971   36.8688   44.7887 H   0  0  0  0  0  0  0  0  0  0  0  0
   43.2595   35.2206   41.7211 H   0  0  0  0  0  0  0  0  0  0  0  0
   41.9602   34.7293   37.7161 H   0  0  0  0  0  0  0  0  0  0  0  0
   42.7423   31.2793   38.1642 H   0  0  0  0  0  0  0  0  0  0  0  0
   43.7771   29.8483   36.4303 H   0  0  0  0  0  0  0  0  0  0  0  0
   45.7435   30.6913   35.1379 H   0  0  0  0  0  0  0  0  0  0  0  0
   46.6304   32.9783   35.6318 H   0  0  0  0  0  0  0  0  0  0  0  0
  1  6  1  0
  2  9  1  0
  3  2  2  0
  4  3  1  0
  5  4  2  0
  5  6  1  0
  6  2  1  0
  7 12  2  0
  8  7  1  0
  9 10  1  0
  9  8  2  0
 10 11  2  0
 11 12  1  0
 13 14  2  0
 13  1  1  0
 15 14  1  0
 16 17  1  0
 16 15  2  0
 17 13  1  0
 18 17  1  0
 19 18  2  0
 20 19  1  0
 21 22  1  0
 21 20  2  0
 22 23  2  0
 23 18  1  0
  1 24  1  0
  1 25  1  0
  3 26  1  0
  5 27  1  0
  7 28  1  0
  8 29  1  0
 11 30  1  0
 14 31  1  0
 16 32  1  0
 19 33  1  0
 20 34  1  0
 21 35  1  0
 22 36  1  0
M  ISO  8  24   8  25   8  26  14  27  14  28  14  29  14  30  14  31  14
M  ISO  5  32  14  33  14  34  14  35  14  36  14
M  END
>  <minimizedAffinity>  (1) 
-5.44307518

>  <minimizedRMSD>  (1) 
2.02412295

$$$$
