
     RDKit          3D

 37 40  0  0  0  0  0  0  0  0999 V2000
   45.1920   33.2400   40.7850 C   0  0  0  0  0  0  0  0  0  0  0  0
   46.7950   34.6760   41.9780 C   0  0  0  0  0  0  0  0  0  0  0  0
   48.0250   35.2890   41.7460 C   0  0  0  0  0  0  0  0  0  0  0  0
   48.3550   34.9330   40.4650 N   0  0  0  0  0  0  0  0  0  0  0  0
   47.3680   34.1660   40.0040 C   0  0  0  0  0  0  0  0  0  0  0  0
   46.4100   33.9950   40.9040 N   0  0  0  0  0  0  0  0  0  0  0  0
   45.5530   33.9900   45.4440 C   0  0  0  0  0  0  0  0  0  0  0  0
   46.2600   33.8430   44.2250 C   0  0  0  0  0  0  0  0  0  0  0  0
   46.0750   34.8030   43.2500 C   0  0  0  0  0  0  0  0  0  0  0  0
   45.2330   35.8350   43.4960 N   0  0  0  0  0  0  0  0  0  0  0  0
   44.5700   35.9550   44.6620 C   0  0  0  0  0  0  0  0  0  0  0  0
   44.7300   35.0360   45.6310 N   0  0  0  0  0  0  0  0  0  0  0  0
   44.0650   33.9280   40.1620 C   0  0  0  0  0  0  0  0  0  0  0  0
   43.2250   34.8650   40.7660 C   0  0  0  0  0  0  0  0  0  0  0  0
   42.2900   35.3050   39.9210 N   0  0  0  0  0  0  0  0  0  0  0  0
   42.4960   34.6700   38.7500 C   0  0  0  0  0  0  0  0  0  0  0  0
   43.5560   33.8550   38.9130 N   0  0  0  0  0  0  0  0  0  0  0  0
   44.1310   32.9840   37.9240 C   0  0  0  0  0  0  0  0  0  0  0  0
   43.4600   31.7680   37.8100 C   0  0  0  0  0  0  0  0  0  0  0  0
   43.8750   30.8140   36.9120 C   0  0  0  0  0  0  0  0  0  0  0  0
   44.9790   31.0900   36.1190 C   0  0  0  0  0  0  0  0  0  0  0  0
   45.6400   32.2950   36.2350 C   0  0  0  0  0  0  0  0  0  0  0  0
   45.2290   33.2570   37.1350 C   0  0  0  0  0  0  0  0  0  0  0  0
   45.4102   32.3433   40.1864 H   0  0  0  0  0  0  0  0  0  0  0  0
   44.8743   33.0296   41.8169 H   0  0  0  0  0  0  0  0  0  0  0  0
   48.6028   35.9191   42.4382 H   0  0  0  0  0  0  0  0  0  0  0  0
   47.3502   33.7266   38.9957 H   0  0  0  0  0  0  0  0  0  0  0  0
   45.6784   33.2435   46.2422 H   0  0  0  0  0  0  0  0  0  0  0  0
   46.9354   32.9905   44.0604 H   0  0  0  0  0  0  0  0  0  0  0  0
   43.8947   36.8083   44.8226 H   0  0  0  0  0  0  0  0  0  0  0  0
   43.3216   35.1995   41.8094 H   0  0  0  0  0  0  0  0  0  0  0  0
   41.9064   34.7946   37.8297 H   0  0  0  0  0  0  0  0  0  0  0  0
   42.5860   31.5689   38.4476 H   0  0  0  0  0  0  0  0  0  0  0  0
   43.3443   29.8545   36.8242 H   0  0  0  0  0  0  0  0  0  0  0  0
   45.3299   30.3425   35.3923 H   0  0  0  0  0  0  0  0  0  0  0  0
   46.5134   32.4934   35.5965 H   0  0  0  0  0  0  0  0  0  0  0  0
   45.7624   34.2152   37.2208 H   0  0  0  0  0  0  0  0  0  0  0  0
  1  6  1  0
  2  9  1  0
  3  2  2  0
  4  3  1  0
  5  4  2  0
  5  6  1  0
  6  2  1  0
  7 12  2  0
  8  7  1  0
  9 10  1  0
  9  8  2  0
 10 11  2  0
 11 12  1  0
 13 14  2  0
 13  1  1  0
 15 14  1  0
 16 17  1  0
 16 15  2  0
 17 13  1  0
 18 17  1  0
 19 18  2  0
 20 19  1  0
 21 22  1  0
 21 20  2  0
 22 23  2  0
 23 18  1  0
  1 24  1  0
  1 25  1  0
  3 26  1  0
  5 27  1  0
  7 28  1  0
  8 29  1  0
 11 30  1  0
 14 31  1  0
 16 32  1  0
 19 33  1  0
 20 34  1  0
 21 35  1  0
 22 36  1  0
 23 37  1  0
M  ISO  8  24   8  25   8  26  14  27  14  28  14  29  14  30  14  31  14
M  ISO  6  32  14  33  14  34  14  35  14  36  14  37  14
M  END
>  <minimizedAffinity>  (1) 
-5.42520046

>  <minimizedRMSD>  (1) 
2.03751516

$$$$
