
     RDKit          3D

 36 38  0  0  0  0  0  0  0  0999 V2000
   46.8380   34.6910   42.0000 C   0  0  0  0  0  0  0  0  0  0  0  0
   48.0620   35.3440   41.7780 C   0  0  0  0  0  0  0  0  0  0  0  0
   48.4040   34.9960   40.5030 N   0  0  0  0  0  0  0  0  0  0  0  0
   47.4460   34.2010   40.0280 C   0  0  0  0  0  0  0  0  0  0  0  0
   46.4810   34.0010   40.9230 N   0  0  0  0  0  0  0  0  0  0  0  0
   45.5960   33.9700   45.4450 C   0  0  0  0  0  0  0  0  0  0  0  0
   46.3070   33.8490   44.2380 C   0  0  0  0  0  0  0  0  0  0  0  0
   46.1100   34.7970   43.2630 C   0  0  0  0  0  0  0  0  0  0  0  0
   45.2360   35.8120   43.5120 N   0  0  0  0  0  0  0  0  0  0  0  0
   44.5670   35.9170   44.6630 C   0  0  0  0  0  0  0  0  0  0  0  0
   44.7470   34.9910   45.6360 N   0  0  0  0  0  0  0  0  0  0  0  0
   45.2840   33.2060   40.7840 C   0  0  0  0  0  0  0  0  0  0  0  0
   44.1660   33.8550   40.1070 C   0  0  0  0  0  0  0  0  0  0  0  0
   43.3980   34.9280   40.6000 C   0  0  0  0  0  0  0  0  0  0  0  0
   42.4440   35.2830   39.7250 N   0  0  0  0  0  0  0  0  0  0  0  0
   42.5740   34.4650   38.6730 C   0  0  0  0  0  0  0  0  0  0  0  0
   43.5930   33.6300   38.9190 N   0  0  0  0  0  0  0  0  0  0  0  0
   44.0180   32.6000   37.9860 C   0  0  0  0  0  0  0  0  0  0  0  0
   45.3790   32.9550   37.3760 C   0  0  0  0  0  0  0  0  0  0  0  0
   44.2660   31.3540   38.8380 C   0  0  0  0  0  0  0  0  0  0  0  0
   48.6185   35.9893   42.4737 H   0  0  0  0  0  0  0  0  0  0  0  0
   47.4518   33.7631   39.0189 H   0  0  0  0  0  0  0  0  0  0  0  0
   45.7370   33.2217   46.2388 H   0  0  0  0  0  0  0  0  0  0  0  0
   47.0052   33.0142   44.0779 H   0  0  0  0  0  0  0  0  0  0  0  0
   43.8709   36.7539   44.8211 H   0  0  0  0  0  0  0  0  0  0  0  0
   45.5439   32.3012   40.2150 H   0  0  0  0  0  0  0  0  0  0  0  0
   44.9375   33.0058   41.8086 H   0  0  0  0  0  0  0  0  0  0  0  0
   43.5590   35.4118   41.5747 H   0  0  0  0  0  0  0  0  0  0  0  0
   41.9528   34.4763   37.7652 H   0  0  0  0  0  0  0  0  0  0  0  0
   43.2671   32.4753   37.1918 H   0  0  0  0  0  0  0  0  0  0  0  0
   46.1038   33.1440   38.1816 H   0  0  0  0  0  0  0  0  0  0  0  0
   45.7315   32.1188   36.7544 H   0  0  0  0  0  0  0  0  0  0  0  0
   45.2782   33.8569   36.7544 H   0  0  0  0  0  0  0  0  0  0  0  0
   44.2127   31.6219   39.9036 H   0  0  0  0  0  0  0  0  0  0  0  0
   43.5010   30.5967   38.6116 H   0  0  0  0  0  0  0  0  0  0  0  0
   45.2627   30.9474   38.6116 H   0  0  0  0  0  0  0  0  0  0  0  0
  1  8  1  0
  2  1  2  0
  3  2  1  0
  4  3  2  0
  4  5  1  0
  5  1  1  0
  6 11  2  0
  7  6  1  0
  8  9  1  0
  8  7  2  0
  9 10  2  0
 10 11  1  0
 12  5  1  0
 13 14  2  0
 13 12  1  0
 15 14  1  0
 16 17  1  0
 16 15  2  0
 17 13  1  0
 18 20  1  0
 18 17  1  0
 19 18  1  0
  2 21  1  0
  4 22  1  0
  6 23  1  0
  7 24  1  0
 10 25  1  0
 12 26  1  0
 12 27  1  0
 14 28  1  0
 16 29  1  0
 18 30  1  0
 19 31  1  0
 19 32  1  0
 19 33  1  0
 20 34  1  0
 20 35  1  0
 20 36  1  0
M  ISO  8  21  14  22  14  23  14  24  14  25  14  26   8  27   8  28  14
M  ISO  8  29  14  30   8  31   8  32   8  33   8  34   8  35   8  36   8
M  END
>  <minimizedAffinity>  (1) 
-4.96439505

>  <minimizedRMSD>  (1) 
1.24864662

$$$$
