
     RDKit          3D

 35 38  0  0  0  0  0  0  0  0999 V2000
   45.5760   32.9090   40.6690 C   0  0  0  0  0  0  0  0  0  0  0  0
   47.4670   33.7250   39.3290 C   0  0  0  0  0  0  0  0  0  0  0  0
   47.8240   33.8720   37.9860 C   0  0  0  0  0  0  0  0  0  0  0  0
   46.7460   33.3980   37.2920 N   0  0  0  0  0  0  0  0  0  0  0  0
   45.8300   33.0040   38.1960 C   0  0  0  0  0  0  0  0  0  0  0  0
   46.2600   33.2000   39.4350 N   0  0  0  0  0  0  0  0  0  0  0  0
   49.9470   33.5490   42.1330 C   0  0  0  0  0  0  0  0  0  0  0  0
   49.0920   33.1460   41.0800 C   0  0  0  0  0  0  0  0  0  0  0  0
   48.3550   34.1190   40.4170 C   0  0  0  0  0  0  0  0  0  0  0  0
   48.5000   35.4200   40.8220 N   0  0  0  0  0  0  0  0  0  0  0  0
   49.3150   35.7770   41.8210 C   0  0  0  0  0  0  0  0  0  0  0  0
   50.0390   34.8540   42.4770 N   0  0  0  0  0  0  0  0  0  0  0  0
   44.8010   34.0060   41.2470 C   0  0  0  0  0  0  0  0  0  0  0  0
   45.2940   34.9840   42.1220 C   0  0  0  0  0  0  0  0  0  0  0  0
   44.3240   35.8400   42.4650 N   0  0  0  0  0  0  0  0  0  0  0  0
   43.2070   35.4450   41.8350 C   0  0  0  0  0  0  0  0  0  0  0  0
   43.5120   34.3510   41.1160 N   0  0  0  0  0  0  0  0  0  0  0  0
   42.6010   33.6210   40.2980 C   0  0  0  0  0  0  0  0  0  0  0  0
   42.3540   34.1010   39.0070 C   0  0  0  0  0  0  0  0  0  0  0  0
   41.4740   33.4030   38.2090 C   0  0  0  0  0  0  0  0  0  0  0  0
   40.8360   32.2740   38.6110 N   0  0  0  0  0  0  0  0  0  0  0  0
   41.1060   31.8420   39.8770 C   0  0  0  0  0  0  0  0  0  0  0  0
   41.9670   32.4900   40.7140 N   0  0  0  0  0  0  0  0  0  0  0  0
   46.3312   32.6044   41.4085 H   0  0  0  0  0  0  0  0  0  0  0  0
   44.8436   32.1256   40.4242 H   0  0  0  0  0  0  0  0  0  0  0  0
   48.7618   34.2779   37.5788 H   0  0  0  0  0  0  0  0  0  0  0  0
   44.8503   32.5745   37.9399 H   0  0  0  0  0  0  0  0  0  0  0  0
   50.5399   32.7972   42.6746 H   0  0  0  0  0  0  0  0  0  0  0  0
   49.0128   32.0870   40.7932 H   0  0  0  0  0  0  0  0  0  0  0  0
   49.3933   36.8359   42.1083 H   0  0  0  0  0  0  0  0  0  0  0  0
   46.3335   35.0401   42.4773 H   0  0  0  0  0  0  0  0  0  0  0  0
   42.2209   35.9286   41.8959 H   0  0  0  0  0  0  0  0  0  0  0  0
   42.8493   35.0116   38.6389 H   0  0  0  0  0  0  0  0  0  0  0  0
   41.2783   33.7798   37.1942 H   0  0  0  0  0  0  0  0  0  0  0  0
   40.6073   30.9308   40.2388 H   0  0  0  0  0  0  0  0  0  0  0  0
  1 13  1  0
  2  6  1  0
  2  9  1  0
  3  2  2  0
  4  3  1  0
  4  5  2  0
  5  6  1  0
  6  1  1  0
  7 12  2  0
  8  7  1  0
  9 10  1  0
  9  8  2  0
 10 11  2  0
 11 12  1  0
 13 14  2  0
 14 15  1  0
 16 15  2  0
 17 13  1  0
 17 16  1  0
 18 23  1  0
 18 17  1  0
 19 18  2  0
 20 21  2  0
 20 19  1  0
 21 22  1  0
 22 23  2  0
  1 24  1  0
  1 25  1  0
  3 26  1  0
  5 27  1  0
  7 28  1  0
  8 29  1  0
 11 30  1  0
 14 31  1  0
 16 32  1  0
 19 33  1  0
 20 34  1  0
 22 35  1  0
M  ISO  8  24   8  25   8  26  14  27  14  28  14  29  14  30  14  31  14
M  ISO  4  32  14  33  14  34  14  35  14
M  END
>  <minimizedAffinity>  (1) 
-4.94084311

>  <minimizedRMSD>  (1) 
4.09801435

$$$$
