
     RDKit          3D

 34 37  0  0  0  0  0  0  0  0999 V2000
   47.2130   34.6810   42.1350 C   0  0  0  0  0  0  0  0  0  0  0  0
   48.1940   35.3640   41.4090 C   0  0  0  0  0  0  0  0  0  0  0  0
   49.3500   35.1350   42.0850 N   0  0  0  0  0  0  0  0  0  0  0  0
   49.0520   34.3600   43.1470 C   0  0  0  0  0  0  0  0  0  0  0  0
   47.7560   34.0760   43.1910 N   0  0  0  0  0  0  0  0  0  0  0  0
   43.5400   35.4060   42.0500 C   0  0  0  0  0  0  0  0  0  0  0  0
   44.8960   35.4290   42.4400 C   0  0  0  0  0  0  0  0  0  0  0  0
   45.8090   34.6690   41.7450 C   0  0  0  0  0  0  0  0  0  0  0  0
   45.3470   33.9170   40.6940 N   0  0  0  0  0  0  0  0  0  0  0  0
   44.0530   33.9080   40.3390 C   0  0  0  0  0  0  0  0  0  0  0  0
   43.1510   34.6460   41.0080 N   0  0  0  0  0  0  0  0  0  0  0  0
   47.0560   33.2880   44.1550 C   0  0  0  0  0  0  0  0  0  0  0  0
   47.5120   31.9070   44.3160 C   0  0  0  0  0  0  0  0  0  0  0  0
   48.2730   31.1730   43.3920 C   0  0  0  0  0  0  0  0  0  0  0  0
   48.5190   29.9330   43.8540 N   0  0  0  0  0  0  0  0  0  0  0  0
   47.9350   29.8400   45.0640 C   0  0  0  0  0  0  0  0  0  0  0  0
   47.3450   31.0250   45.3120 N   0  0  0  0  0  0  0  0  0  0  0  0
   46.6130   31.3390   46.4980 C   0  0  0  0  0  0  0  0  0  0  0  0
   45.3820   31.1120   46.9670 C   0  0  0  0  0  0  0  0  0  0  0  0
   44.9670   31.5540   48.1720 C   0  0  0  0  0  0  0  0  0  0  0  0
   46.0030   32.2910   48.8820 C   0  0  0  0  0  0  0  0  0  0  0  0
   47.4220   32.2620   47.7540 S   0  0  0  0  0  0  0  0  0  0  0  0
   48.0592   35.9565   40.4920 H   0  0  0  0  0  0  0  0  0  0  0  0
   49.7891   34.0077   43.8836 H   0  0  0  0  0  0  0  0  0  0  0  0
   42.8003   36.0089   42.5971 H   0  0  0  0  0  0  0  0  0  0  0  0
   45.2197   36.0475   43.2901 H   0  0  0  0  0  0  0  0  0  0  0  0
   43.7267   33.2891   39.4902 H   0  0  0  0  0  0  0  0  0  0  0  0
   47.1510   33.7884   45.1300 H   0  0  0  0  0  0  0  0  0  0  0  0
   46.0240   33.2150   43.7814 H   0  0  0  0  0  0  0  0  0  0  0  0
   48.6208   31.5589   42.4224 H   0  0  0  0  0  0  0  0  0  0  0  0
   47.9391   28.9612   45.7255 H   0  0  0  0  0  0  0  0  0  0  0  0
   44.6779   30.5408   46.3442 H   0  0  0  0  0  0  0  0  0  0  0  0
   43.9583   31.3774   48.5736 H   0  0  0  0  0  0  0  0  0  0  0  0
   45.9392   32.7585   49.8757 H   0  0  0  0  0  0  0  0  0  0  0  0
  1  5  1  0
  2  3  1  0
  2  1  2  0
  3  4  2  0
  4  5  1  0
  5 12  1  0
  6  7  2  0
  8  1  1  0
  8  7  1  0
  9  8  2  0
 10  9  1  0
 10 11  2  0
 11  6  1  0
 12 13  1  0
 13 17  1  0
 14 15  1  0
 14 13  2  0
 15 16  2  0
 16 17  1  0
 17 18  1  0
 18 19  2  0
 18 22  1  0
 19 20  1  0
 20 21  2  0
 22 21  1  0
  2 23  1  0
  4 24  1  0
  6 25  1  0
  7 26  1  0
 10 27  1  0
 12 28  1  0
 12 29  1  0
 14 30  1  0
 16 31  1  0
 19 32  1  0
 20 33  1  0
 21 34  1  0
M  ISO  8  23  14  24  14  25  14  26  14  27  14  28   8  29   8  30  14
M  ISO  4  31  14  32  14  33  14  34  14
M  END
>  <minimizedAffinity>  (1) 
-4.80848742

>  <minimizedRMSD>  (1) 
6.74374485

$$$$
