
     RDKit          3D

 34 37  0  0  0  0  0  0  0  0999 V2000
   46.1170   33.9660   40.8360 C   0  0  0  0  0  0  0  0  0  0  0  0
   45.9140   33.1020   41.9970 C   0  0  0  0  0  0  0  0  0  0  0  0
   46.0940   31.7160   42.0400 C   0  0  0  0  0  0  0  0  0  0  0  0
   45.8240   31.2230   43.2600 N   0  0  0  0  0  0  0  0  0  0  0  0
   45.4640   32.2790   44.0240 C   0  0  0  0  0  0  0  0  0  0  0  0
   45.5250   33.3850   43.2530 N   0  0  0  0  0  0  0  0  0  0  0  0
   45.2180   34.7040   43.7000 C   0  0  0  0  0  0  0  0  0  0  0  0
   45.3380   35.7790   42.8320 C   0  0  0  0  0  0  0  0  0  0  0  0
   44.9740   36.9090   43.5500 C   0  0  0  0  0  0  0  0  0  0  0  0
   44.6500   36.5080   44.8050 N   0  0  0  0  0  0  0  0  0  0  0  0
   44.7940   35.1840   44.9050 N   0  0  0  0  0  0  0  0  0  0  0  0
   44.3700   33.3650   39.2080 C   0  0  0  0  0  0  0  0  0  0  0  0
   44.2810   32.8200   37.9200 C   0  0  0  0  0  0  0  0  0  0  0  0
   45.5770   32.5940   37.5510 N   0  0  0  0  0  0  0  0  0  0  0  0
   46.3550   32.9830   38.5610 C   0  0  0  0  0  0  0  0  0  0  0  0
   45.6400   33.4550   39.5770 N   0  0  0  0  0  0  0  0  0  0  0  0
   41.7050   35.4340   40.8220 C   0  0  0  0  0  0  0  0  0  0  0  0
   42.8400   35.0760   40.0720 C   0  0  0  0  0  0  0  0  0  0  0  0
   43.1950   33.7570   39.9820 C   0  0  0  0  0  0  0  0  0  0  0  0
   42.4230   32.8400   40.6320 N   0  0  0  0  0  0  0  0  0  0  0  0
   41.3390   33.1810   41.3490 C   0  0  0  0  0  0  0  0  0  0  0  0
   40.9870   34.4710   41.4400 N   0  0  0  0  0  0  0  0  0  0  0  0
   45.6004   34.9175   41.0303 H   0  0  0  0  0  0  0  0  0  0  0  0
   47.2072   34.0600   40.7237 H   0  0  0  0  0  0  0  0  0  0  0  0
   46.4161   31.1063   41.1829 H   0  0  0  0  0  0  0  0  0  0  0  0
   45.1734   32.2430   45.0843 H   0  0  0  0  0  0  0  0  0  0  0  0
   45.6589   35.7428   41.7805 H   0  0  0  0  0  0  0  0  0  0  0  0
   44.9521   37.9414   43.1710 H   0  0  0  0  0  0  0  0  0  0  0  0
   44.3401   37.1301   45.5651 H   0  0  0  0  0  0  0  0  0  0  0  0
   43.3706   32.6190   37.3362 H   0  0  0  0  0  0  0  0  0  0  0  0
   47.4532   32.9210   38.5544 H   0  0  0  0  0  0  0  0  0  0  0  0
   41.4047   36.4890   40.9045 H   0  0  0  0  0  0  0  0  0  0  0  0
   43.4360   35.8479   39.5632 H   0  0  0  0  0  0  0  0  0  0  0  0
   40.7450   32.4073   41.8574 H   0  0  0  0  0  0  0  0  0  0  0  0
  1  2  1  0
  2  3  2  0
  2  6  1  0
  3  4  1  0
  4  5  2  0
  6  7  1  0
  6  5  1  0
  7 11  2  0
  8  9  2  0
  8  7  1  0
  9 10  1  0
 10 11  1  0
 12 16  1  0
 12 19  1  0
 13 12  2  0
 14 13  1  0
 14 15  2  0
 15 16  1  0
 16  1  1  0
 17 22  2  0
 18 17  1  0
 19 18  2  0
 19 20  1  0
 20 21  2  0
 21 22  1  0
  1 23  1  0
  1 24  1  0
  3 25  1  0
  5 26  1  0
  8 27  1  0
  9 28  1  0
 10 29  1  0
 13 30  1  0
 15 31  1  0
 17 32  1  0
 18 33  1  0
 21 34  1  0
M  ISO  8  23   8  24   8  25  14  26  14  27  14  28  14  29   9  30  14
M  ISO  4  31  14  32  14  33  14  34  14
M  END
>  <minimizedAffinity>  (1) 
-4.75770426

>  <minimizedRMSD>  (1) 
5.1345706

$$$$
