
     RDKit          3D

 37 40  0  0  0  0  0  0  0  0999 V2000
   47.4890   33.1470   44.0130 C   0  0  0  0  0  0  0  0  0  0  0  0
   47.5300   34.7900   42.1730 C   0  0  0  0  0  0  0  0  0  0  0  0
   48.4590   35.5420   41.4500 C   0  0  0  0  0  0  0  0  0  0  0  0
   49.6580   35.1960   41.9950 N   0  0  0  0  0  0  0  0  0  0  0  0
   49.4240   34.3040   42.9670 C   0  0  0  0  0  0  0  0  0  0  0  0
   48.1240   34.0450   43.0870 N   0  0  0  0  0  0  0  0  0  0  0  0
   43.9090   35.6580   42.4720 C   0  0  0  0  0  0  0  0  0  0  0  0
   45.2810   35.5980   42.7360 C   0  0  0  0  0  0  0  0  0  0  0  0
   46.0860   34.8590   41.9060 C   0  0  0  0  0  0  0  0  0  0  0  0
   45.4990   34.2230   40.8670 N   0  0  0  0  0  0  0  0  0  0  0  0
   44.1840   34.2790   40.6130 C   0  0  0  0  0  0  0  0  0  0  0  0
   43.3850   35.0050   41.4270 N   0  0  0  0  0  0  0  0  0  0  0  0
   47.5370   31.7240   43.6690 C   0  0  0  0  0  0  0  0  0  0  0  0
   47.7670   31.1940   42.3850 C   0  0  0  0  0  0  0  0  0  0  0  0
   47.7480   29.8630   42.4170 N   0  0  0  0  0  0  0  0  0  0  0  0
   47.5100   29.5010   43.6970 C   0  0  0  0  0  0  0  0  0  0  0  0
   47.3880   30.6320   44.4280 N   0  0  0  0  0  0  0  0  0  0  0  0
   47.1360   30.7200   45.8200 C   0  0  0  0  0  0  0  0  0  0  0  0
   48.0510   30.1430   46.7120 C   0  0  0  0  0  0  0  0  0  0  0  0
   47.5630   30.3760   47.9820 C   0  0  0  0  0  0  0  0  0  0  0  0
   46.4080   31.0620   47.8140 C   0  0  0  0  0  0  0  0  0  0  0  0
   46.1570   31.2650   46.5270 O   0  0  0  0  0  0  0  0  0  0  0  0
   45.4780   31.5630   48.8610 C   0  0  0  0  0  0  0  0  0  0  0  0
   44.2150   31.7770   48.2980 F   0  0  0  0  0  0  0  0  0  0  0  0
   45.8650   32.8360   49.3030 F   0  0  0  0  0  0  0  0  0  0  0  0
   45.3140   30.7060   49.9100 F   0  0  0  0  0  0  0  0  0  0  0  0
   47.9770   33.2727   44.9908 H   0  0  0  0  0  0  0  0  0  0  0  0
   46.4228   33.4172   44.0014 H   0  0  0  0  0  0  0  0  0  0  0  0
   48.2666   36.2498   40.6302 H   0  0  0  0  0  0  0  0  0  0  0  0
   50.2072   33.8439   43.5874 H   0  0  0  0  0  0  0  0  0  0  0  0
   43.2535   36.2477   43.1296 H   0  0  0  0  0  0  0  0  0  0  0  0
   45.7083   36.1349   43.5957 H   0  0  0  0  0  0  0  0  0  0  0  0
   43.7600   33.7407   39.7525 H   0  0  0  0  0  0  0  0  0  0  0  0
   47.9386   31.7962   41.4806 H   0  0  0  0  0  0  0  0  0  0  0  0
   47.4299   28.4715   44.0761 H   0  0  0  0  0  0  0  0  0  0  0  0
   48.9766   29.6091   46.4509 H   0  0  0  0  0  0  0  0  0  0  0  0
   48.0187   30.0677   48.9345 H   0  0  0  0  0  0  0  0  0  0  0  0
  2  6  1  0
  3  4  1  0
  3  2  2  0
  4  5  2  0
  5  6  1  0
  6  1  1  0
  7  8  2  0
  9  2  1  0
  9  8  1  0
 10  9  2  0
 11 10  1  0
 11 12  2  0
 12  7  1  0
 13  1  1  0
 13 17  1  0
 14 15  1  0
 14 13  2  0
 15 16  2  0
 16 17  1  0
 17 18  1  0
 18 22  1  0
 18 19  2  0
 19 20  1  0
 21 20  2  0
 21 23  1  0
 22 21  1  0
 23 25  1  0
 23 26  1  0
 24 23  1  0
  1 27  1  0
  1 28  1  0
  3 29  1  0
  5 30  1  0
  7 31  1  0
  8 32  1  0
 11 33  1  0
 14 34  1  0
 16 35  1  0
 19 36  1  0
 20 37  1  0
M  ISO  8  27   8  28   8  29  14  30  14  31  14  32  14  33  14  34  14
M  ISO  3  35  14  36  14  37  14
M  END
>  <minimizedAffinity>  (1) 
-5.65073824

>  <minimizedRMSD>  (1) 
1.28924048

$$$$
