
     RDKit          3D

 47 51  0  0  0  0  0  0  0  0999 V2000
   47.8470   32.6730   43.4560 C   0  0  0  0  0  0  0  0  0  0  0  0
   47.7620   34.7800   42.1750 C   0  0  0  0  0  0  0  0  0  0  0  0
   48.6280   35.7520   41.6980 C   0  0  0  0  0  0  0  0  0  0  0  0
   49.8670   35.3310   42.1070 N   0  0  0  0  0  0  0  0  0  0  0  0
   49.6980   34.1890   42.7740 C   0  0  0  0  0  0  0  0  0  0  0  0
   48.4140   33.8330   42.8280 N   0  0  0  0  0  0  0  0  0  0  0  0
   44.1380   35.5680   42.6390 C   0  0  0  0  0  0  0  0  0  0  0  0
   45.5250   35.5190   42.8690 C   0  0  0  0  0  0  0  0  0  0  0  0
   46.3060   34.8440   41.9540 C   0  0  0  0  0  0  0  0  0  0  0  0
   45.7030   34.2700   40.8930 N   0  0  0  0  0  0  0  0  0  0  0  0
   44.3830   34.3260   40.6900 C   0  0  0  0  0  0  0  0  0  0  0  0
   43.5950   34.9770   41.5650 N   0  0  0  0  0  0  0  0  0  0  0  0
   48.2470   31.3750   42.8990 C   0  0  0  0  0  0  0  0  0  0  0  0
   48.5060   31.1100   41.5440 C   0  0  0  0  0  0  0  0  0  0  0  0
   48.8460   29.8360   41.3770 N   0  0  0  0  0  0  0  0  0  0  0  0
   48.8170   29.2470   42.5980 C   0  0  0  0  0  0  0  0  0  0  0  0
   48.4560   30.1950   43.4910 N   0  0  0  0  0  0  0  0  0  0  0  0
   48.2990   30.0200   44.8970 C   0  0  0  0  0  0  0  0  0  0  0  0
   49.2520   29.2670   45.5820 C   0  0  0  0  0  0  0  0  0  0  0  0
   48.8570   29.2630   46.9010 C   0  0  0  0  0  0  0  0  0  0  0  0
   47.7180   29.9880   46.9610 C   0  0  0  0  0  0  0  0  0  0  0  0
   47.3880   30.4380   45.7630 O   0  0  0  0  0  0  0  0  0  0  0  0
   46.8730   30.3020   48.1440 C   0  0  0  0  0  0  0  0  0  0  0  0
   46.9710   31.7380   48.5940 C   0  0  0  0  0  0  0  0  0  0  0  0
   45.7180   31.8290   49.4730 C   0  0  0  0  0  0  0  0  0  0  0  0
   44.6750   31.2660   48.5290 C   0  0  0  0  0  0  0  0  0  0  0  0
   45.4080   30.0750   47.9310 C   0  0  0  0  0  0  0  0  0  0  0  0
   48.1399   32.6881   44.5162 H   0  0  0  0  0  0  0  0  0  0  0  0
   46.7628   32.7456   43.2853 H   0  0  0  0  0  0  0  0  0  0  0  0
   48.3779   36.6554   41.1224 H   0  0  0  0  0  0  0  0  0  0  0  0
   50.5180   33.6108   43.2249 H   0  0  0  0  0  0  0  0  0  0  0  0
   43.4892   36.0992   43.3510 H   0  0  0  0  0  0  0  0  0  0  0  0
   45.9721   36.0031   43.7497 H   0  0  0  0  0  0  0  0  0  0  0  0
   43.9410   33.8399   39.8077 H   0  0  0  0  0  0  0  0  0  0  0  0
   48.4371   31.8523   40.7351 H   0  0  0  0  0  0  0  0  0  0  0  0
   49.0448   28.1940   42.8202 H   0  0  0  0  0  0  0  0  0  0  0  0
   50.1391   28.7760   45.1553 H   0  0  0  0  0  0  0  0  0  0  0  0
   49.3675   28.7677   47.7400 H   0  0  0  0  0  0  0  0  0  0  0  0
   47.2787   29.6088   48.8956 H   0  0  0  0  0  0  0  0  0  0  0  0
   47.8888   31.9229   49.1714 H   0  0  0  0  0  0  0  0  0  0  0  0
   47.0197   32.4759   47.7797 H   0  0  0  0  0  0  0  0  0  0  0  0
   45.8148   31.2175   50.3822 H   0  0  0  0  0  0  0  0  0  0  0  0
   45.4963   32.8379   49.8510 H   0  0  0  0  0  0  0  0  0  0  0  0
   43.7723   30.9494   49.0721 H   0  0  0  0  0  0  0  0  0  0  0  0
   44.3139   31.9881   47.7819 H   0  0  0  0  0  0  0  0  0  0  0  0
   45.1909   30.0007   46.8552 H   0  0  0  0  0  0  0  0  0  0  0  0
   45.0851   29.1384   48.4091 H   0  0  0  0  0  0  0  0  0  0  0  0
  2  6  1  0
  3  4  1  0
  3  2  2  0
  4  5  2  0
  5  6  1  0
  6  1  1  0
  7  8  2  0
  9  2  1  0
  9  8  1  0
 10  9  2  0
 11 10  1  0
 11 12  2  0
 12  7  1  0
 13  1  1  0
 13 17  1  0
 14 13  2  0
 15 14  1  0
 15 16  2  0
 16 17  1  0
 17 18  1  0
 18 19  2  0
 18 22  1  0
 19 20  1  0
 20 21  2  0
 21 23  1  0
 22 21  1  0
 23 24  1  0
 24 25  1  0
 26 25  1  0
 27 23  1  0
 27 26  1  0
  1 28  1  0
  1 29  1  0
  3 30  1  0
  5 31  1  0
  7 32  1  0
  8 33  1  0
 11 34  1  0
 14 35  1  0
 16 36  1  0
 19 37  1  0
 20 38  1  0
 23 39  1  0
 24 40  1  0
 24 41  1  0
 25 42  1  0
 25 43  1  0
 26 44  1  0
 26 45  1  0
 27 46  1  0
 27 47  1  0
M  ISO  8  28   8  29   8  30  14  31  14  32  14  33  14  34  14  35  14
M  ISO  8  36  14  37  14  38  14  39  13  40  13  41  13  42  13  43  13
M  ISO  4  44  13  45  13  46  13  47  13
M  END
>  <minimizedAffinity>  (1) 
-5.54615736

>  <minimizedRMSD>  (1) 
2.44405484

$$$$
