
     RDKit          3D

 37 40  0  0  0  0  0  0  0  0999 V2000
   47.5100   33.1240   43.9430 C   0  0  0  0  0  0  0  0  0  0  0  0
   47.5330   34.8040   42.1350 C   0  0  0  0  0  0  0  0  0  0  0  0
   48.4580   35.5780   41.4380 C   0  0  0  0  0  0  0  0  0  0  0  0
   49.6570   35.2420   41.9760 N   0  0  0  0  0  0  0  0  0  0  0  0
   49.4330   34.3300   42.9270 C   0  0  0  0  0  0  0  0  0  0  0  0
   48.1460   34.0480   43.0410 N   0  0  0  0  0  0  0  0  0  0  0  0
   43.8990   35.6250   42.4300 C   0  0  0  0  0  0  0  0  0  0  0  0
   45.2730   35.5790   42.6910 C   0  0  0  0  0  0  0  0  0  0  0  0
   46.0960   34.8560   41.8680 C   0  0  0  0  0  0  0  0  0  0  0  0
   45.5070   34.2150   40.8220 N   0  0  0  0  0  0  0  0  0  0  0  0
   44.2000   34.2600   40.5730 C   0  0  0  0  0  0  0  0  0  0  0  0
   43.3880   34.9720   41.3870 N   0  0  0  0  0  0  0  0  0  0  0  0
   47.8090   31.6980   43.7180 C   0  0  0  0  0  0  0  0  0  0  0  0
   48.2030   31.1200   42.5030 C   0  0  0  0  0  0  0  0  0  0  0  0
   48.3910   29.8130   42.6520 N   0  0  0  0  0  0  0  0  0  0  0  0
   48.1270   29.5090   43.9470 C   0  0  0  0  0  0  0  0  0  0  0  0
   47.7800   30.6530   44.5680 N   0  0  0  0  0  0  0  0  0  0  0  0
   47.4220   30.8080   45.9320 C   0  0  0  0  0  0  0  0  0  0  0  0
   48.1050   30.0750   46.8930 C   0  0  0  0  0  0  0  0  0  0  0  0
   47.5720   30.4050   48.1090 C   0  0  0  0  0  0  0  0  0  0  0  0
   46.5950   31.3160   47.8500 C   0  0  0  0  0  0  0  0  0  0  0  0
   46.5190   31.5430   46.5490 O   0  0  0  0  0  0  0  0  0  0  0  0
   45.7040   31.9970   48.8150 C   0  0  0  0  0  0  0  0  0  0  0  0
   45.1770   31.3830   49.8050 O   0  0  0  0  0  0  0  0  0  0  0  0
   45.4160   33.3450   48.6660 O   0  0  0  0  0  0  0  0  0  0  0  0
   47.8272   33.3780   44.9652 H   0  0  0  0  0  0  0  0  0  0  0  0
   46.4293   33.2334   43.7693 H   0  0  0  0  0  0  0  0  0  0  0  0
   48.2604   36.2999   40.6319 H   0  0  0  0  0  0  0  0  0  0  0  0
   50.2224   33.8703   43.5398 H   0  0  0  0  0  0  0  0  0  0  0  0
   43.2365   36.2040   43.0902 H   0  0  0  0  0  0  0  0  0  0  0  0
   45.6903   36.1206   43.5527 H   0  0  0  0  0  0  0  0  0  0  0  0
   43.7827   33.7209   39.7097 H   0  0  0  0  0  0  0  0  0  0  0  0
   48.3374   31.6704   41.5601 H   0  0  0  0  0  0  0  0  0  0  0  0
   48.1855   28.5111   44.4062 H   0  0  0  0  0  0  0  0  0  0  0  0
   48.9224   29.3618   46.7107 H   0  0  0  0  0  0  0  0  0  0  0  0
   47.8714   30.0146   49.0928 H   0  0  0  0  0  0  0  0  0  0  0  0
   44.8195   33.7982   49.3132 H   0  0  0  0  0  0  0  0  0  0  0  0
  2  6  1  0
  3  4  1  0
  3  2  2  0
  4  5  2  0
  5  6  1  0
  6  1  1  0
  7  8  2  0
  9  2  1  0
  9  8  1  0
 10  9  2  0
 11 10  1  0
 11 12  2  0
 12  7  1  0
 13  1  1  0
 13 17  1  0
 14 15  1  0
 14 13  2  0
 15 16  2  0
 16 17  1  0
 17 18  1  0
 18 22  1  0
 18 19  2  0
 19 20  1  0
 21 20  2  0
 21 23  1  0
 22 21  1  0
 23 24  2  0
 25 23  1  0
  1 26  1  0
  1 27  1  0
  3 28  1  0
  5 29  1  0
  7 30  1  0
  8 31  1  0
 11 32  1  0
 14 33  1  0
 16 34  1  0
 19 35  1  0
 20 36  1  0
 25 37  1  0
M  ISO  8  26   8  27   8  28  14  29  14  30  14  31  14  32  14  33  14
M  ISO  4  34  14  35  14  36  14  37   3
M  END
>  <minimizedAffinity>  (1) 
-5.52915812

>  <minimizedRMSD>  (1) 
1.13469219

$$$$
