
     RDKit          3D

 47 51  0  0  0  0  0  0  0  0999 V2000
   48.5540   31.2080   42.6500 C   0  0  0  0  0  0  0  0  0  0  0  0
   48.9770   30.9590   41.3370 C   0  0  0  0  0  0  0  0  0  0  0  0
   49.5240   29.7530   41.2500 N   0  0  0  0  0  0  0  0  0  0  0  0
   49.4700   29.1960   42.4870 C   0  0  0  0  0  0  0  0  0  0  0  0
   48.8850   30.0870   43.3070 N   0  0  0  0  0  0  0  0  0  0  0  0
   48.6190   29.9290   44.6970 C   0  0  0  0  0  0  0  0  0  0  0  0
   49.4960   29.1440   45.4620 C   0  0  0  0  0  0  0  0  0  0  0  0
   49.0060   29.1640   46.7560 C   0  0  0  0  0  0  0  0  0  0  0  0
   47.8960   29.9330   46.7140 C   0  0  0  0  0  0  0  0  0  0  0  0
   47.6650   30.3890   45.4940 O   0  0  0  0  0  0  0  0  0  0  0  0
   47.0640   30.2310   47.8300 N   0  0  0  0  0  0  0  0  0  0  0  0
   47.5090   31.1590   48.8550 C   0  0  0  0  0  0  0  0  0  0  0  0
   46.3980   32.2150   48.9220 C   0  0  0  0  0  0  0  0  0  0  0  0
   45.2710   31.5760   49.4090 O   0  0  0  0  0  0  0  0  0  0  0  0
   44.7490   30.6900   48.4970 C   0  0  0  0  0  0  0  0  0  0  0  0
   45.7490   29.6510   48.0300 C   0  0  0  0  0  0  0  0  0  0  0  0
   47.8990   32.4490   43.1220 C   0  0  0  0  0  0  0  0  0  0  0  0
   47.8310   34.7190   42.1560 C   0  0  0  0  0  0  0  0  0  0  0  0
   48.7170   35.7390   41.8260 C   0  0  0  0  0  0  0  0  0  0  0  0
   49.9430   35.2540   42.1670 N   0  0  0  0  0  0  0  0  0  0  0  0
   49.7620   34.0280   42.6640 C   0  0  0  0  0  0  0  0  0  0  0  0
   48.4800   33.6770   42.6690 N   0  0  0  0  0  0  0  0  0  0  0  0
   44.2160   35.5560   42.6590 C   0  0  0  0  0  0  0  0  0  0  0  0
   45.6050   35.4750   42.8830 C   0  0  0  0  0  0  0  0  0  0  0  0
   46.3780   34.8210   41.9510 C   0  0  0  0  0  0  0  0  0  0  0  0
   45.7530   34.2970   40.8750 N   0  0  0  0  0  0  0  0  0  0  0  0
   44.4370   34.3760   40.6640 C   0  0  0  0  0  0  0  0  0  0  0  0
   43.6700   35.0140   41.5710 N   0  0  0  0  0  0  0  0  0  0  0  0
   48.8707   31.6628   40.4984 H   0  0  0  0  0  0  0  0  0  0  0  0
   49.8377   28.1979   42.7674 H   0  0  0  0  0  0  0  0  0  0  0  0
   50.3935   28.6180   45.1043 H   0  0  0  0  0  0  0  0  0  0  0  0
   49.4316   28.6589   47.6356 H   0  0  0  0  0  0  0  0  0  0  0  0
   47.6184   30.6472   49.8225 H   0  0  0  0  0  0  0  0  0  0  0  0
   48.4912   31.5978   48.6255 H   0  0  0  0  0  0  0  0  0  0  0  0
   46.6919   33.0323   49.5971 H   0  0  0  0  0  0  0  0  0  0  0  0
   46.2076   32.6526   47.9309 H   0  0  0  0  0  0  0  0  0  0  0  0
   43.8979   30.1711   48.9622 H   0  0  0  0  0  0  0  0  0  0  0  0
   44.4473   31.2718   47.6136 H   0  0  0  0  0  0  0  0  0  0  0  0
   45.3999   29.2205   47.0798 H   0  0  0  0  0  0  0  0  0  0  0  0
   45.8283   28.8750   48.8056 H   0  0  0  0  0  0  0  0  0  0  0  0
   46.8526   32.4268   42.7837 H   0  0  0  0  0  0  0  0  0  0  0  0
   48.0187   32.4500   44.2155 H   0  0  0  0  0  0  0  0  0  0  0  0
   48.4801   36.7195   41.3871 H   0  0  0  0  0  0  0  0  0  0  0  0
   50.5773   33.3846   43.0264 H   0  0  0  0  0  0  0  0  0  0  0  0
   43.5760   36.0720   43.3898 H   0  0  0  0  0  0  0  0  0  0  0  0
   46.0593   35.9227   43.7792 H   0  0  0  0  0  0  0  0  0  0  0  0
   43.9864   33.9284   39.7659 H   0  0  0  0  0  0  0  0  0  0  0  0
  1 17  1  0
  1  5  1  0
  2  1  2  0
  3  2  1  0
  3  4  2  0
  4  5  1  0
  5  6  1  0
  6  7  2  0
  6 10  1  0
  7  8  1  0
  9  8  2  0
  9 11  1  0
 10  9  1  0
 11 16  1  0
 11 12  1  0
 12 13  1  0
 13 14  1  0
 15 14  1  0
 16 15  1  0
 18 22  1  0
 19 18  2  0
 19 20  1  0
 20 21  2  0
 21 22  1  0
 22 17  1  0
 23 24  2  0
 25 18  1  0
 25 24  1  0
 26 25  2  0
 27 26  1  0
 27 28  2  0
 28 23  1  0
  2 29  1  0
  4 30  1  0
  7 31  1  0
  8 32  1  0
 12 33  1  0
 12 34  1  0
 13 35  1  0
 13 36  1  0
 15 37  1  0
 15 38  1  0
 16 39  1  0
 16 40  1  0
 17 41  1  0
 17 42  1  0
 19 43  1  0
 21 44  1  0
 23 45  1  0
 24 46  1  0
 27 47  1  0
M  ISO  8  29  14  30  14  31  14  32  14  33  13  34  13  35  13  36  13
M  ISO  8  37  13  38  13  39  13  40  13  41   8  42   8  43  14  44  14
M  ISO  3  45  14  46  14  47  14
M  END
>  <minimizedAffinity>  (1) 
-5.34099007

>  <minimizedRMSD>  (1) 
2.79028606

$$$$
