
     RDKit          3D

 43 46  0  0  0  0  0  0  0  0999 V2000
   47.5730   33.0610   43.8770 C   0  0  0  0  0  0  0  0  0  0  0  0
   47.5770   34.8060   42.1350 C   0  0  0  0  0  0  0  0  0  0  0  0
   48.4840   35.6140   41.4600 C   0  0  0  0  0  0  0  0  0  0  0  0
   49.7040   35.2660   41.9900 N   0  0  0  0  0  0  0  0  0  0  0  0
   49.4830   34.3200   42.9010 C   0  0  0  0  0  0  0  0  0  0  0  0
   48.1900   34.0210   43.0090 N   0  0  0  0  0  0  0  0  0  0  0  0
   43.9420   35.6250   42.4740 C   0  0  0  0  0  0  0  0  0  0  0  0
   45.3250   35.5830   42.7330 C   0  0  0  0  0  0  0  0  0  0  0  0
   46.1350   34.8550   41.8730 C   0  0  0  0  0  0  0  0  0  0  0  0
   45.5560   34.2230   40.8300 N   0  0  0  0  0  0  0  0  0  0  0  0
   44.2380   34.2660   40.5890 C   0  0  0  0  0  0  0  0  0  0  0  0
   43.4240   34.9700   41.4130 N   0  0  0  0  0  0  0  0  0  0  0  0
   47.8730   31.6450   43.5930 C   0  0  0  0  0  0  0  0  0  0  0  0
   48.2200   31.1270   42.3460 C   0  0  0  0  0  0  0  0  0  0  0  0
   48.4270   29.8070   42.4370 N   0  0  0  0  0  0  0  0  0  0  0  0
   48.2180   29.4640   43.7280 C   0  0  0  0  0  0  0  0  0  0  0  0
   47.8880   30.5730   44.4040 N   0  0  0  0  0  0  0  0  0  0  0  0
   47.5860   30.6760   45.7850 C   0  0  0  0  0  0  0  0  0  0  0  0
   48.2650   29.8290   46.6810 C   0  0  0  0  0  0  0  0  0  0  0  0
   47.7840   30.1370   47.9430 C   0  0  0  0  0  0  0  0  0  0  0  0
   46.8620   31.1280   47.7570 C   0  0  0  0  0  0  0  0  0  0  0  0
   46.7550   31.4380   46.4720 O   0  0  0  0  0  0  0  0  0  0  0  0
   46.0390   31.8300   48.7870 C   0  0  0  0  0  0  0  0  0  0  0  0
   45.1010   30.8370   49.4790 C   0  0  0  0  0  0  0  0  0  0  0  0
   45.1590   32.8050   48.0310 C   0  0  0  0  0  0  0  0  0  0  0  0
   47.9028   33.2753   44.9043 H   0  0  0  0  0  0  0  0  0  0  0  0
   46.4900   33.1719   43.7193 H   0  0  0  0  0  0  0  0  0  0  0  0
   48.2740   36.3609   40.6803 H   0  0  0  0  0  0  0  0  0  0  0  0
   50.2759   33.8416   43.4947 H   0  0  0  0  0  0  0  0  0  0  0  0
   43.2786   36.1955   43.1407 H   0  0  0  0  0  0  0  0  0  0  0  0
   45.7531   36.1142   43.5959 H   0  0  0  0  0  0  0  0  0  0  0  0
   43.8180   33.7311   39.7244 H   0  0  0  0  0  0  0  0  0  0  0  0
   48.3106   31.7167   41.4219 H   0  0  0  0  0  0  0  0  0  0  0  0
   48.3038   28.4517   44.1497 H   0  0  0  0  0  0  0  0  0  0  0  0
   49.0248   29.0743   46.4296 H   0  0  0  0  0  0  0  0  0  0  0  0
   48.0825   29.6786   48.8973 H   0  0  0  0  0  0  0  0  0  0  0  0
   46.6892   32.3110   49.5326 H   0  0  0  0  0  0  0  0  0  0  0  0
   45.1982   30.9399   50.5698 H   0  0  0  0  0  0  0  0  0  0  0  0
   44.0626   31.0456   49.1821 H   0  0  0  0  0  0  0  0  0  0  0  0
   45.3684   29.8121   49.1821 H   0  0  0  0  0  0  0  0  0  0  0  0
   44.5994   33.4250   48.7469 H   0  0  0  0  0  0  0  0  0  0  0  0
   45.7861   33.4506   47.3987 H   0  0  0  0  0  0  0  0  0  0  0  0
   44.4527   32.2471   47.3987 H   0  0  0  0  0  0  0  0  0  0  0  0
  2  6  1  0
  3  4  1  0
  3  2  2  0
  4  5  2  0
  5  6  1  0
  6  1  1  0
  7  8  2  0
  9  2  1  0
  9  8  1  0
 10  9  2  0
 11 10  1  0
 11 12  2  0
 12  7  1  0
 13  1  1  0
 13 17  1  0
 14 15  1  0
 14 13  2  0
 15 16  2  0
 16 17  1  0
 17 18  1  0
 18 22  1  0
 18 19  2  0
 19 20  1  0
 21 20  2  0
 21 23  1  0
 22 21  1  0
 23 24  1  0
 25 23  1  0
  1 26  1  0
  1 27  1  0
  3 28  1  0
  5 29  1  0
  7 30  1  0
  8 31  1  0
 11 32  1  0
 14 33  1  0
 16 34  1  0
 19 35  1  0
 20 36  1  0
 23 37  1  0
 24 38  1  0
 24 39  1  0
 24 40  1  0
 25 41  1  0
 25 42  1  0
 25 43  1  0
M  ISO  8  26   8  27   8  28  14  29  14  30  14  31  14  32  14  33  14
M  ISO  8  34  14  35  14  36  14  37   8  38   8  39   8  40   8  41   8
M  ISO  2  42   8  43   8
M  END
>  <minimizedAffinity>  (1) 
-5.28079224

>  <minimizedRMSD>  (1) 
1.34555244

$$$$
