
     RDKit          3D

 40 43  0  0  0  0  0  0  0  0999 V2000
   47.4870   33.2070   44.0260 C   0  0  0  0  0  0  0  0  0  0  0  0
   47.5220   34.8050   42.1480 C   0  0  0  0  0  0  0  0  0  0  0  0
   48.4490   35.5300   41.4150 C   0  0  0  0  0  0  0  0  0  0  0  0
   49.6530   35.1950   41.9660 N   0  0  0  0  0  0  0  0  0  0  0  0
   49.4170   34.3280   42.9560 C   0  0  0  0  0  0  0  0  0  0  0  0
   48.1210   34.0720   43.0900 N   0  0  0  0  0  0  0  0  0  0  0  0
   43.8940   35.6510   42.4570 C   0  0  0  0  0  0  0  0  0  0  0  0
   45.2640   35.6050   42.7240 C   0  0  0  0  0  0  0  0  0  0  0  0
   46.0820   34.8680   41.8870 C   0  0  0  0  0  0  0  0  0  0  0  0
   45.4990   34.2280   40.8480 N   0  0  0  0  0  0  0  0  0  0  0  0
   44.1780   34.2760   40.5960 C   0  0  0  0  0  0  0  0  0  0  0  0
   43.3720   34.9970   41.4130 N   0  0  0  0  0  0  0  0  0  0  0  0
   47.5710   31.7600   43.7330 C   0  0  0  0  0  0  0  0  0  0  0  0
   47.7220   31.1840   42.4650 C   0  0  0  0  0  0  0  0  0  0  0  0
   47.7630   29.8570   42.5520 N   0  0  0  0  0  0  0  0  0  0  0  0
   47.6410   29.5400   43.8570 C   0  0  0  0  0  0  0  0  0  0  0  0
   47.5270   30.6910   44.5440 N   0  0  0  0  0  0  0  0  0  0  0  0
   47.3760   30.8390   45.9610 C   0  0  0  0  0  0  0  0  0  0  0  0
   48.1910   30.0780   46.8000 C   0  0  0  0  0  0  0  0  0  0  0  0
   47.8450   30.4070   48.0810 C   0  0  0  0  0  0  0  0  0  0  0  0
   46.8630   31.3280   47.9910 C   0  0  0  0  0  0  0  0  0  0  0  0
   46.5950   31.5730   46.7070 O   0  0  0  0  0  0  0  0  0  0  0  0
   45.9920   32.1490   48.9070 C   0  0  0  0  0  0  0  0  0  0  0  0
   44.9980   31.2520   49.5720 C   0  0  0  0  0  0  0  0  0  0  0  0
   47.9494   33.3785   45.0092 H   0  0  0  0  0  0  0  0  0  0  0  0
   46.4166   33.4564   43.9817 H   0  0  0  0  0  0  0  0  0  0  0  0
   48.2580   36.2190   40.5790 H   0  0  0  0  0  0  0  0  0  0  0  0
   50.2018   33.8807   43.5838 H   0  0  0  0  0  0  0  0  0  0  0  0
   43.2335   36.2342   43.1155 H   0  0  0  0  0  0  0  0  0  0  0  0
   45.6850   36.1453   43.5847 H   0  0  0  0  0  0  0  0  0  0  0  0
   43.7566   33.7355   39.7356 H   0  0  0  0  0  0  0  0  0  0  0  0
   47.7965   31.7514   41.5256 H   0  0  0  0  0  0  0  0  0  0  0  0
   47.6357   28.5255   44.2822 H   0  0  0  0  0  0  0  0  0  0  0  0
   48.9607   29.3553   46.4913 H   0  0  0  0  0  0  0  0  0  0  0  0
   48.2819   30.0002   49.0049 H   0  0  0  0  0  0  0  0  0  0  0  0
   46.6167   32.6362   49.6702 H   0  0  0  0  0  0  0  0  0  0  0  0
   45.4645   32.9188   48.3247 H   0  0  0  0  0  0  0  0  0  0  0  0
   45.0967   31.3411   50.6639 H   0  0  0  0  0  0  0  0  0  0  0  0
   43.9812   31.5442   49.2707 H   0  0  0  0  0  0  0  0  0  0  0  0
   45.1847   30.2107   49.2707 H   0  0  0  0  0  0  0  0  0  0  0  0
  2  6  1  0
  3  4  1  0
  3  2  2  0
  4  5  2  0
  5  6  1  0
  6  1  1  0
  7  8  2  0
  9  2  1  0
  9  8  1  0
 10  9  2  0
 11 10  1  0
 11 12  2  0
 12  7  1  0
 13  1  1  0
 13 17  1  0
 14 15  1  0
 14 13  2  0
 15 16  2  0
 16 17  1  0
 17 18  1  0
 18 22  1  0
 18 19  2  0
 19 20  1  0
 21 20  2  0
 21 23  1  0
 22 21  1  0
 23 24  1  0
  1 25  1  0
  1 26  1  0
  3 27  1  0
  5 28  1  0
  7 29  1  0
  8 30  1  0
 11 31  1  0
 14 32  1  0
 16 33  1  0
 19 34  1  0
 20 35  1  0
 23 36  1  0
 23 37  1  0
 24 38  1  0
 24 39  1  0
 24 40  1  0
M  ISO  8  25   8  26   8  27  14  28  14  29  14  30  14  31  14  32  14
M  ISO  8  33  14  34  14  35  14  36   8  37   8  38   8  39   8  40   8
M  END
>  <minimizedAffinity>  (1) 
-5.09003353

>  <minimizedRMSD>  (1) 
1.15061498

$$$$
