
     RDKit          3D

 44 48  0  0  0  0  0  0  0  0999 V2000
   47.9320   31.3930   42.7670 C   0  0  0  0  0  0  0  0  0  0  0  0
   47.7330   31.2230   41.3900 C   0  0  0  0  0  0  0  0  0  0  0  0
   47.9020   29.9550   41.0410 N   0  0  0  0  0  0  0  0  0  0  0  0
   48.2110   29.2700   42.1580 C   0  0  0  0  0  0  0  0  0  0  0  0
   48.2250   30.1500   43.1890 N   0  0  0  0  0  0  0  0  0  0  0  0
   48.5020   29.8680   44.5460 C   0  0  0  0  0  0  0  0  0  0  0  0
   49.7270   29.2770   44.8750 C   0  0  0  0  0  0  0  0  0  0  0  0
   49.7230   29.1200   46.2520 C   0  0  0  0  0  0  0  0  0  0  0  0
   48.5240   29.6110   46.6920 C   0  0  0  0  0  0  0  0  0  0  0  0
   47.8190   30.0490   45.6590 O   0  0  0  0  0  0  0  0  0  0  0  0
   48.0450   29.6670   48.0780 C   0  0  0  0  0  0  0  0  0  0  0  0
   46.9680   30.6540   48.2930 C   0  0  0  0  0  0  0  0  0  0  0  0
   45.6370   30.2700   48.3880 C   0  0  0  0  0  0  0  0  0  0  0  0
   44.8690   31.4070   48.5860 C   0  0  0  0  0  0  0  0  0  0  0  0
   45.8080   32.4430   48.6000 C   0  0  0  0  0  0  0  0  0  0  0  0
   47.0140   31.9570   48.4260 O   0  0  0  0  0  0  0  0  0  0  0  0
   47.8310   32.6510   43.5110 C   0  0  0  0  0  0  0  0  0  0  0  0
   47.7620   34.7830   42.2690 C   0  0  0  0  0  0  0  0  0  0  0  0
   48.6560   35.7380   41.7710 C   0  0  0  0  0  0  0  0  0  0  0  0
   49.8870   35.2560   42.1260 N   0  0  0  0  0  0  0  0  0  0  0  0
   49.7000   34.1100   42.7790 C   0  0  0  0  0  0  0  0  0  0  0  0
   48.4110   33.7980   42.8810 N   0  0  0  0  0  0  0  0  0  0  0  0
   44.1980   35.6870   42.9270 C   0  0  0  0  0  0  0  0  0  0  0  0
   45.5860   35.5680   43.0790 C   0  0  0  0  0  0  0  0  0  0  0  0
   46.3160   34.9050   42.1090 C   0  0  0  0  0  0  0  0  0  0  0  0
   45.6420   34.3990   41.0520 N   0  0  0  0  0  0  0  0  0  0  0  0
   44.3090   34.5150   40.9110 C   0  0  0  0  0  0  0  0  0  0  0  0
   43.5900   35.1600   41.8500 N   0  0  0  0  0  0  0  0  0  0  0  0
   47.4718   32.0326   40.6927 H   0  0  0  0  0  0  0  0  0  0  0  0
   48.4152   28.1910   42.2224 H   0  0  0  0  0  0  0  0  0  0  0  0
   50.5315   28.9939   44.1803 H   0  0  0  0  0  0  0  0  0  0  0  0
   50.5244   28.6868   46.8686 H   0  0  0  0  0  0  0  0  0  0  0  0
   47.6653   28.6724   48.3549 H   0  0  0  0  0  0  0  0  0  0  0  0
   48.8965   29.9787   48.7007 H   0  0  0  0  0  0  0  0  0  0  0  0
   45.2571   29.2401   48.3181 H   0  0  0  0  0  0  0  0  0  0  0  0
   43.7777   31.4776   48.7043 H   0  0  0  0  0  0  0  0  0  0  0  0
   45.5705   33.5083   48.7367 H   0  0  0  0  0  0  0  0  0  0  0  0
   46.7638   32.8605   43.6757 H   0  0  0  0  0  0  0  0  0  0  0  0
   48.4059   32.4968   44.4361 H   0  0  0  0  0  0  0  0  0  0  0  0
   48.4232   36.6620   41.2215 H   0  0  0  0  0  0  0  0  0  0  0  0
   50.5156   33.4942   43.1860 H   0  0  0  0  0  0  0  0  0  0  0  0
   43.6050   36.2124   43.6901 H   0  0  0  0  0  0  0  0  0  0  0  0
   46.0887   35.9964   43.9586 H   0  0  0  0  0  0  0  0  0  0  0  0
   43.8078   34.0844   40.0316 H   0  0  0  0  0  0  0  0  0  0  0  0
  1  5  1  0
  1 17  1  0
  2  1  2  0
  3  2  1  0
  3  4  2  0
  4  5  1  0
  5  6  1  0
  6  7  2  0
  6 10  1  0
  7  8  1  0
  8  9  2  0
  9 11  1  0
 10  9  1  0
 11 12  1  0
 12 13  2  0
 12 16  1  0
 13 14  1  0
 14 15  2  0
 16 15  1  0
 18 22  1  0
 19 20  1  0
 19 18  2  0
 20 21  2  0
 21 22  1  0
 22 17  1  0
 23 24  2  0
 25 18  1  0
 25 24  1  0
 26 25  2  0
 27 26  1  0
 27 28  2  0
 28 23  1  0
  2 29  1  0
  4 30  1  0
  7 31  1  0
  8 32  1  0
 11 33  1  0
 11 34  1  0
 13 35  1  0
 14 36  1  0
 15 37  1  0
 17 38  1  0
 17 39  1  0
 19 40  1  0
 21 41  1  0
 23 42  1  0
 24 43  1  0
 27 44  1  0
M  ISO  8  29  14  30  14  31  14  32  14  33   8  34   8  35  14  36  14
M  ISO  8  37  14  38   8  39   8  40  14  41  14  42  14  43  14  44  14
M  END
>  <minimizedAffinity>  (1) 
-5.26377583

>  <minimizedRMSD>  (1) 
2.09422064

$$$$
