
     RDKit          3D

 47 51  0  0  0  0  0  0  0  0999 V2000
   48.0340   31.4210   42.8820 C   0  0  0  0  0  0  0  0  0  0  0  0
   48.4930   31.2240   41.5830 C   0  0  0  0  0  0  0  0  0  0  0  0
   48.5670   29.9230   41.2970 N   0  0  0  0  0  0  0  0  0  0  0  0
   48.1600   29.2520   42.3950 C   0  0  0  0  0  0  0  0  0  0  0  0
   47.8420   30.1750   43.3430 N   0  0  0  0  0  0  0  0  0  0  0  0
   47.3670   29.9150   44.6580 C   0  0  0  0  0  0  0  0  0  0  0  0
   48.2970   29.6090   45.6470 C   0  0  0  0  0  0  0  0  0  0  0  0
   47.5680   29.4050   46.8070 C   0  0  0  0  0  0  0  0  0  0  0  0
   46.2750   29.5910   46.4820 C   0  0  0  0  0  0  0  0  0  0  0  0
   46.1610   29.8950   45.1930 O   0  0  0  0  0  0  0  0  0  0  0  0
   45.0820   29.4920   47.3570 C   0  0  0  0  0  0  0  0  0  0  0  0
   44.4510   28.1530   47.2230 C   0  0  0  0  0  0  0  0  0  0  0  0
   43.6620   27.7310   46.1730 C   0  0  0  0  0  0  0  0  0  0  0  0
   43.1360   26.4360   46.1890 C   0  0  0  0  0  0  0  0  0  0  0  0
   43.4080   25.5820   47.2570 C   0  0  0  0  0  0  0  0  0  0  0  0
   44.2040   25.9900   48.3270 C   0  0  0  0  0  0  0  0  0  0  0  0
   44.7130   27.2870   48.2810 C   0  0  0  0  0  0  0  0  0  0  0  0
   47.8240   32.7190   43.5480 C   0  0  0  0  0  0  0  0  0  0  0  0
   47.7410   34.7850   42.2020 C   0  0  0  0  0  0  0  0  0  0  0  0
   48.6320   35.7410   41.7000 C   0  0  0  0  0  0  0  0  0  0  0  0
   49.8610   35.3220   42.1330 N   0  0  0  0  0  0  0  0  0  0  0  0
   49.6780   34.2010   42.8320 C   0  0  0  0  0  0  0  0  0  0  0  0
   48.4020   33.8550   42.8900 N   0  0  0  0  0  0  0  0  0  0  0  0
   44.1210   35.5830   42.6300 C   0  0  0  0  0  0  0  0  0  0  0  0
   45.5030   35.5310   42.8600 C   0  0  0  0  0  0  0  0  0  0  0  0
   46.2940   34.8470   41.9730 C   0  0  0  0  0  0  0  0  0  0  0  0
   45.6870   34.2600   40.9150 N   0  0  0  0  0  0  0  0  0  0  0  0
   44.3750   34.3150   40.7030 C   0  0  0  0  0  0  0  0  0  0  0  0
   43.5840   34.9740   41.5530 N   0  0  0  0  0  0  0  0  0  0  0  0
   48.7590   32.0323   40.8859 H   0  0  0  0  0  0  0  0  0  0  0  0
   48.0969   28.1592   42.5037 H   0  0  0  0  0  0  0  0  0  0  0  0
   49.3889   29.5426   45.5311 H   0  0  0  0  0  0  0  0  0  0  0  0
   47.9669   29.1428   47.7980 H   0  0  0  0  0  0  0  0  0  0  0  0
   45.3858   29.6465   48.4029 H   0  0  0  0  0  0  0  0  0  0  0  0
   44.3547   30.2609   47.0571 H   0  0  0  0  0  0  0  0  0  0  0  0
   43.4489   28.4068   45.3316 H   0  0  0  0  0  0  0  0  0  0  0  0
   42.5057   26.0897   45.3566 H   0  0  0  0  0  0  0  0  0  0  0  0
   42.9863   24.5660   47.2556 H   0  0  0  0  0  0  0  0  0  0  0  0
   44.4207   25.3178   49.1703 H   0  0  0  0  0  0  0  0  0  0  0  0
   45.3442   27.6387   49.1104 H   0  0  0  0  0  0  0  0  0  0  0  0
   46.7398   32.8882   43.6250 H   0  0  0  0  0  0  0  0  0  0  0  0
   48.3331   32.6437   44.5202 H   0  0  0  0  0  0  0  0  0  0  0  0
   48.3973   36.6287   41.0942 H   0  0  0  0  0  0  0  0  0  0  0  0
   50.4917   33.6313   43.3045 H   0  0  0  0  0  0  0  0  0  0  0  0
   43.4702   36.1241   43.3326 H   0  0  0  0  0  0  0  0  0  0  0  0
   45.9445   36.0295   43.7355 H   0  0  0  0  0  0  0  0  0  0  0  0
   43.9403   33.8159   39.8244 H   0  0  0  0  0  0  0  0  0  0  0  0
  1  5  1  0
  1 18  1  0
  2  1  2  0
  3  2  1  0
  3  4  2  0
  4  5  1  0
  5  6  1  0
  6 10  1  0
  6  7  2  0
  7  8  1  0
  9  8  2  0
  9 11  1  0
 10  9  1  0
 12 11  1  0
 12 17  2  0
 13 14  2  0
 13 12  1  0
 14 15  1  0
 15 16  2  0
 17 16  1  0
 19 23  1  0
 20 21  1  0
 20 19  2  0
 21 22  2  0
 22 23  1  0
 23 18  1  0
 24 25  2  0
 26 19  1  0
 26 25  1  0
 27 26  2  0
 28 27  1  0
 28 29  2  0
 29 24  1  0
  2 30  1  0
  4 31  1  0
  7 32  1  0
  8 33  1  0
 11 34  1  0
 11 35  1  0
 13 36  1  0
 14 37  1  0
 15 38  1  0
 16 39  1  0
 17 40  1  0
 18 41  1  0
 18 42  1  0
 20 43  1  0
 22 44  1  0
 24 45  1  0
 25 46  1  0
 28 47  1  0
M  ISO  8  30  14  31  14  32  14  33  14  34   8  35   8  36  14  37  14
M  ISO  8  38  14  39  14  40  14  41   8  42   8  43  14  44  14  45  14
M  ISO  2  46  14  47  14
M  END
>  <minimizedAffinity>  (1) 
-5.25503778

>  <minimizedRMSD>  (1) 
2.20320964

$$$$
