
     RDKit          3D

 44 48  0  0  0  0  0  0  0  0999 V2000
   47.9340   31.3810   42.7790 C   0  0  0  0  0  0  0  0  0  0  0  0
   47.7320   31.2060   41.3990 C   0  0  0  0  0  0  0  0  0  0  0  0
   47.9030   29.9370   41.0510 N   0  0  0  0  0  0  0  0  0  0  0  0
   48.2180   29.2590   42.1780 C   0  0  0  0  0  0  0  0  0  0  0  0
   48.2300   30.1490   43.2040 N   0  0  0  0  0  0  0  0  0  0  0  0
   48.5110   29.8750   44.5720 C   0  0  0  0  0  0  0  0  0  0  0  0
   49.7270   29.2640   44.8910 C   0  0  0  0  0  0  0  0  0  0  0  0
   49.7410   29.1170   46.2660 C   0  0  0  0  0  0  0  0  0  0  0  0
   48.5590   29.6330   46.7080 C   0  0  0  0  0  0  0  0  0  0  0  0
   47.8310   30.0840   45.6880 O   0  0  0  0  0  0  0  0  0  0  0  0
   48.0740   29.7210   48.1020 C   0  0  0  0  0  0  0  0  0  0  0  0
   46.8980   30.5120   48.2840 N   0  0  0  0  0  0  0  0  0  0  0  0
   45.5470   30.3230   48.2170 C   0  0  0  0  0  0  0  0  0  0  0  0
   44.8780   31.4690   48.4970 C   0  0  0  0  0  0  0  0  0  0  0  0
   45.8240   32.4210   48.7480 N   0  0  0  0  0  0  0  0  0  0  0  0
   47.0140   31.8220   48.6140 C   0  0  0  0  0  0  0  0  0  0  0  0
   47.8260   32.6560   43.5160 C   0  0  0  0  0  0  0  0  0  0  0  0
   47.7690   34.7810   42.2780 C   0  0  0  0  0  0  0  0  0  0  0  0
   48.6570   35.7330   41.7740 C   0  0  0  0  0  0  0  0  0  0  0  0
   49.8880   35.2500   42.1230 N   0  0  0  0  0  0  0  0  0  0  0  0
   49.7060   34.1060   42.7780 C   0  0  0  0  0  0  0  0  0  0  0  0
   48.4160   33.7940   42.8870 N   0  0  0  0  0  0  0  0  0  0  0  0
   44.2010   35.6740   42.9410 C   0  0  0  0  0  0  0  0  0  0  0  0
   45.5890   35.5600   43.0960 C   0  0  0  0  0  0  0  0  0  0  0  0
   46.3100   34.9050   42.1230 C   0  0  0  0  0  0  0  0  0  0  0  0
   45.6250   34.4100   41.0700 N   0  0  0  0  0  0  0  0  0  0  0  0
   44.3080   34.5220   40.9300 C   0  0  0  0  0  0  0  0  0  0  0  0
   43.5830   35.1570   41.8670 N   0  0  0  0  0  0  0  0  0  0  0  0
   47.4674   32.0135   40.7005 H   0  0  0  0  0  0  0  0  0  0  0  0
   48.4268   28.1814   42.2506 H   0  0  0  0  0  0  0  0  0  0  0  0
   50.5164   28.9603   44.1877 H   0  0  0  0  0  0  0  0  0  0  0  0
   50.5413   28.6747   46.8774 H   0  0  0  0  0  0  0  0  0  0  0  0
   47.8568   28.7012   48.4526 H   0  0  0  0  0  0  0  0  0  0  0  0
   48.8709   30.2193   48.6736 H   0  0  0  0  0  0  0  0  0  0  0  0
   45.0645   29.3662   47.9684 H   0  0  0  0  0  0  0  0  0  0  0  0
   43.7866   31.6050   48.5178 H   0  0  0  0  0  0  0  0  0  0  0  0
   47.9769   32.3347   48.7556 H   0  0  0  0  0  0  0  0  0  0  0  0
   46.7572   32.8697   43.6642 H   0  0  0  0  0  0  0  0  0  0  0  0
   48.3888   32.5078   44.4494 H   0  0  0  0  0  0  0  0  0  0  0  0
   48.4215   36.6563   41.2244 H   0  0  0  0  0  0  0  0  0  0  0  0
   50.5240   33.4911   43.1815 H   0  0  0  0  0  0  0  0  0  0  0  0
   43.6100   36.1939   43.7093 H   0  0  0  0  0  0  0  0  0  0  0  0
   46.0922   35.9851   43.9770 H   0  0  0  0  0  0  0  0  0  0  0  0
   43.8109   34.0947   40.0466 H   0  0  0  0  0  0  0  0  0  0  0  0
  1  5  1  0
  1 17  1  0
  2  1  2  0
  3  2  1  0
  3  4  2  0
  4  5  1  0
  5  6  1  0
  6  7  2  0
  6 10  1  0
  7  8  1  0
  8  9  2  0
  9 11  1  0
 10  9  1  0
 11 12  1  0
 12 16  1  0
 13 12  1  0
 13 14  2  0
 14 15  1  0
 16 15  2  0
 18 22  1  0
 19 20  1  0
 19 18  2  0
 20 21  2  0
 21 22  1  0
 22 17  1  0
 23 24  2  0
 25 18  1  0
 25 24  1  0
 26 25  2  0
 27 26  1  0
 27 28  2  0
 28 23  1  0
  2 29  1  0
  4 30  1  0
  7 31  1  0
  8 32  1  0
 11 33  1  0
 11 34  1  0
 13 35  1  0
 14 36  1  0
 16 37  1  0
 17 38  1  0
 17 39  1  0
 19 40  1  0
 21 41  1  0
 23 42  1  0
 24 43  1  0
 27 44  1  0
M  ISO  8  29  14  30  14  31  14  32  14  33   8  34   8  35  14  36  14
M  ISO  8  37  14  38   8  39   8  40  14  41  14  42  14  43  14  44  14
M  END
>  <minimizedAffinity>  (1) 
-5.17019892

>  <minimizedRMSD>  (1) 
2.10193348

$$$$
