
     RDKit          3D

 43 47  0  0  0  0  0  0  0  0999 V2000
   48.0330   31.3570   42.5720 C   0  0  0  0  0  0  0  0  0  0  0  0
   47.8120   31.2490   41.1900 C   0  0  0  0  0  0  0  0  0  0  0  0
   48.0230   30.0000   40.7660 N   0  0  0  0  0  0  0  0  0  0  0  0
   48.3810   29.2720   41.8470 C   0  0  0  0  0  0  0  0  0  0  0  0
   48.3810   30.1080   42.9230 N   0  0  0  0  0  0  0  0  0  0  0  0
   48.6970   29.7670   44.2580 C   0  0  0  0  0  0  0  0  0  0  0  0
   49.9830   29.3050   44.5550 C   0  0  0  0  0  0  0  0  0  0  0  0
   50.0060   29.0530   45.9110 C   0  0  0  0  0  0  0  0  0  0  0  0
   48.7560   29.3650   46.3680 C   0  0  0  0  0  0  0  0  0  0  0  0
   47.9840   29.7890   45.3840 O   0  0  0  0  0  0  0  0  0  0  0  0
   48.2770   29.2610   47.7690 C   0  0  0  0  0  0  0  0  0  0  0  0
   47.2030   30.2730   48.0820 C   0  0  0  0  0  0  0  0  0  0  0  0
   47.5190   31.6650   48.3980 C   0  0  0  0  0  0  0  0  0  0  0  0
   45.8380   32.3260   48.6640 S   0  0  0  0  0  0  0  0  0  0  0  0
   45.0080   30.6460   48.3110 C   0  0  0  0  0  0  0  0  0  0  0  0
   45.9390   29.8260   48.0540 N   0  0  0  0  0  0  0  0  0  0  0  0
   47.9000   32.5670   43.3830 C   0  0  0  0  0  0  0  0  0  0  0  0
   47.7900   34.7720   42.2830 C   0  0  0  0  0  0  0  0  0  0  0  0
   48.6780   35.7630   41.8400 C   0  0  0  0  0  0  0  0  0  0  0  0
   49.9220   35.2750   42.1490 N   0  0  0  0  0  0  0  0  0  0  0  0
   49.7530   34.0880   42.7280 C   0  0  0  0  0  0  0  0  0  0  0  0
   48.4660   33.7570   42.8220 N   0  0  0  0  0  0  0  0  0  0  0  0
   44.2320   35.6140   43.0210 C   0  0  0  0  0  0  0  0  0  0  0  0
   45.6210   35.5010   43.1480 C   0  0  0  0  0  0  0  0  0  0  0  0
   46.3410   34.8880   42.1480 C   0  0  0  0  0  0  0  0  0  0  0  0
   45.6660   34.4150   41.0700 N   0  0  0  0  0  0  0  0  0  0  0  0
   44.3320   34.5290   40.9560 C   0  0  0  0  0  0  0  0  0  0  0  0
   43.6140   35.1220   41.9210 N   0  0  0  0  0  0  0  0  0  0  0  0
   47.5054   32.0830   40.5416 H   0  0  0  0  0  0  0  0  0  0  0  0
   48.6274   28.2000   41.8564 H   0  0  0  0  0  0  0  0  0  0  0  0
   50.8133   29.1692   43.8464 H   0  0  0  0  0  0  0  0  0  0  0  0
   50.8546   28.6785   46.5023 H   0  0  0  0  0  0  0  0  0  0  0  0
   47.8702   28.2518   47.9300 H   0  0  0  0  0  0  0  0  0  0  0  0
   49.1312   29.4597   48.4330 H   0  0  0  0  0  0  0  0  0  0  0  0
   48.4938   32.1710   48.4584 H   0  0  0  0  0  0  0  0  0  0  0  0
   43.9294   30.4305   48.3273 H   0  0  0  0  0  0  0  0  0  0  0  0
   46.8274   32.7478   43.5466 H   0  0  0  0  0  0  0  0  0  0  0  0
   48.4660   32.3726   44.3060 H   0  0  0  0  0  0  0  0  0  0  0  0
   48.4318   36.7183   41.3534 H   0  0  0  0  0  0  0  0  0  0  0  0
   50.5785   33.4554   43.0864 H   0  0  0  0  0  0  0  0  0  0  0  0
   43.6437   36.1012   43.8126 H   0  0  0  0  0  0  0  0  0  0  0  0
   46.1320   35.8979   44.0376 H   0  0  0  0  0  0  0  0  0  0  0  0
   43.8248   34.1327   40.0640 H   0  0  0  0  0  0  0  0  0  0  0  0
  1  5  1  0
  1 17  1  0
  2  1  2  0
  3  2  1  0
  3  4  2  0
  4  5  1  0
  5  6  1  0
  6  7  2  0
  6 10  1  0
  7  8  1  0
  8  9  2  0
  9 11  1  0
 10  9  1  0
 11 12  1  0
 12 13  2  0
 13 14  1  0
 15 14  1  0
 16 12  1  0
 16 15  2  0
 18 22  1  0
 19 20  1  0
 19 18  2  0
 20 21  2  0
 21 22  1  0
 22 17  1  0
 23 24  2  0
 25 18  1  0
 25 24  1  0
 26 25  2  0
 27 26  1  0
 27 28  2  0
 28 23  1  0
  2 29  1  0
  4 30  1  0
  7 31  1  0
  8 32  1  0
 11 33  1  0
 11 34  1  0
 13 35  1  0
 15 36  1  0
 17 37  1  0
 17 38  1  0
 19 39  1  0
 21 40  1  0
 23 41  1  0
 24 42  1  0
 27 43  1  0
M  ISO  8  29  14  30  14  31  14  32  14  33   8  34   8  35  14  36  14
M  ISO  7  37   8  38   8  39  14  40  14  41  14  42  14  43  14
M  END
>  <minimizedAffinity>  (1) 
-5.01359367

>  <minimizedRMSD>  (1) 
2.40067887

$$$$
