
     RDKit          3D

 39 42  0  0  0  0  0  0  0  0999 V2000
   47.4530   31.7060   43.6030 C   0  0  0  0  0  0  0  0  0  0  0  0
   47.6300   31.2050   42.2970 C   0  0  0  0  0  0  0  0  0  0  0  0
   47.5550   29.8820   42.2770 N   0  0  0  0  0  0  0  0  0  0  0  0
   47.3310   29.4810   43.5450 C   0  0  0  0  0  0  0  0  0  0  0  0
   47.2730   30.5920   44.3270 N   0  0  0  0  0  0  0  0  0  0  0  0
   47.0550   30.6370   45.7260 C   0  0  0  0  0  0  0  0  0  0  0  0
   48.0350   30.0870   46.5750 C   0  0  0  0  0  0  0  0  0  0  0  0
   47.5650   30.2690   47.8600 C   0  0  0  0  0  0  0  0  0  0  0  0
   46.3700   30.8950   47.7480 C   0  0  0  0  0  0  0  0  0  0  0  0
   46.0660   31.1140   46.4740 O   0  0  0  0  0  0  0  0  0  0  0  0
   45.4690   31.3090   48.8450 C   0  0  0  0  0  0  0  0  0  0  0  0
   45.7300   32.6570   49.3050 N   0  0  0  0  0  0  0  0  0  0  0  0
   47.4720   33.1190   44.0060 C   0  0  0  0  0  0  0  0  0  0  0  0
   47.5240   34.7740   42.1860 C   0  0  0  0  0  0  0  0  0  0  0  0
   48.4750   35.5260   41.4740 C   0  0  0  0  0  0  0  0  0  0  0  0
   49.6740   35.1600   42.0240 N   0  0  0  0  0  0  0  0  0  0  0  0
   49.4240   34.2660   42.9810 C   0  0  0  0  0  0  0  0  0  0  0  0
   48.1180   34.0160   43.0950 N   0  0  0  0  0  0  0  0  0  0  0  0
   43.9230   35.6720   42.4880 C   0  0  0  0  0  0  0  0  0  0  0  0
   45.2920   35.5960   42.7500 C   0  0  0  0  0  0  0  0  0  0  0  0
   46.0980   34.8560   41.9200 C   0  0  0  0  0  0  0  0  0  0  0  0
   45.4940   34.2290   40.8690 N   0  0  0  0  0  0  0  0  0  0  0  0
   44.1770   34.3070   40.6270 C   0  0  0  0  0  0  0  0  0  0  0  0
   43.3900   35.0340   41.4430 N   0  0  0  0  0  0  0  0  0  0  0  0
   47.8073   31.8309   41.4100 H   0  0  0  0  0  0  0  0  0  0  0  0
   47.2158   28.4414   43.8857 H   0  0  0  0  0  0  0  0  0  0  0  0
   48.9802   29.6106   46.2757 H   0  0  0  0  0  0  0  0  0  0  0  0
   48.0637   29.9650   48.7922 H   0  0  0  0  0  0  0  0  0  0  0  0
   44.4304   31.2545   48.4867 H   0  0  0  0  0  0  0  0  0  0  0  0
   45.6437   30.6295   49.6923 H   0  0  0  0  0  0  0  0  0  0  0  0
   45.7332   32.6737   50.3349 H   0  0  0  0  0  0  0  0  0  0  0  0
   46.6469   32.9682   48.9537 H   0  0  0  0  0  0  0  0  0  0  0  0
   46.4299   33.4506   44.1250 H   0  0  0  0  0  0  0  0  0  0  0  0
   48.0613   33.1583   44.9340 H   0  0  0  0  0  0  0  0  0  0  0  0
   48.2963   36.2446   40.6605 H   0  0  0  0  0  0  0  0  0  0  0  0
   50.1995   33.7923   43.6009 H   0  0  0  0  0  0  0  0  0  0  0  0
   43.2752   36.2648   43.1506 H   0  0  0  0  0  0  0  0  0  0  0  0
   45.7216   36.1243   43.6139 H   0  0  0  0  0  0  0  0  0  0  0  0
   43.7416   33.7794   39.7656 H   0  0  0  0  0  0  0  0  0  0  0  0
  1 13  1  0
  1  5  1  0
  2  1  2  0
  3  2  1  0
  3  4  2  0
  4  5  1  0
  5  6  1  0
  6 10  1  0
  6  7  2  0
  7  8  1  0
  9  8  2  0
  9 11  1  0
 10  9  1  0
 11 12  1  0
 14 18  1  0
 15 16  1  0
 15 14  2  0
 16 17  2  0
 17 18  1  0
 18 13  1  0
 19 20  2  0
 21 14  1  0
 21 20  1  0
 22 21  2  0
 23 22  1  0
 23 24  2  0
 24 19  1  0
  2 25  1  0
  4 26  1  0
  7 27  1  0
  8 28  1  0
 11 29  1  0
 11 30  1  0
 12 31  1  0
 12 32  1  0
 13 33  1  0
 13 34  1  0
 15 35  1  0
 17 36  1  0
 19 37  1  0
 20 38  1  0
 23 39  1  0
M  ISO  8  25  14  26  14  27  14  28  14  29   8  30   8  31   5  32   5
M  ISO  7  33   8  34   8  35  14  36  14  37  14  38  14  39  14
M  END
>  <minimizedAffinity>  (1) 
-4.9935317

>  <minimizedRMSD>  (1) 
0.2488655

$$$$
