
     RDKit          3D

 42 46  0  0  0  0  0  0  0  0999 V2000
   47.6470   31.5560   43.1320 C   0  0  0  0  0  0  0  0  0  0  0  0
   47.5730   31.3100   41.7450 C   0  0  0  0  0  0  0  0  0  0  0  0
   47.4890   30.0160   41.4930 N   0  0  0  0  0  0  0  0  0  0  0  0
   47.5040   29.3640   42.6810 C   0  0  0  0  0  0  0  0  0  0  0  0
   47.5990   30.3110   43.6540 N   0  0  0  0  0  0  0  0  0  0  0  0
   47.6470   30.0890   45.0460 C   0  0  0  0  0  0  0  0  0  0  0  0
   46.5430   30.4760   45.8200 C   0  0  0  0  0  0  0  0  0  0  0  0
   46.8610   30.1420   47.1410 C   0  0  0  0  0  0  0  0  0  0  0  0
   48.0970   29.5910   47.0920 C   0  0  0  0  0  0  0  0  0  0  0  0
   48.5500   29.5640   45.8500 O   0  0  0  0  0  0  0  0  0  0  0  0
   48.8940   29.0650   48.2410 C   0  0  0  0  0  0  0  0  0  0  0  0
   49.6450   30.1650   48.9000 C   0  0  0  0  0  0  0  0  0  0  0  0
   49.1430   31.0180   49.7900 N   0  0  0  0  0  0  0  0  0  0  0  0
   50.0660   31.8470   50.1620 O   0  0  0  0  0  0  0  0  0  0  0  0
   51.2050   31.5700   49.5310 C   0  0  0  0  0  0  0  0  0  0  0  0
   50.9340   30.5190   48.7450 N   0  0  0  0  0  0  0  0  0  0  0  0
   47.7480   32.8580   43.7820 C   0  0  0  0  0  0  0  0  0  0  0  0
   47.7140   34.8060   42.2780 C   0  0  0  0  0  0  0  0  0  0  0  0
   48.6040   35.6730   41.6510 C   0  0  0  0  0  0  0  0  0  0  0  0
   49.8390   35.2190   42.0570 N   0  0  0  0  0  0  0  0  0  0  0  0
   49.6450   34.1710   42.8560 C   0  0  0  0  0  0  0  0  0  0  0  0
   48.3410   33.9040   43.0030 N   0  0  0  0  0  0  0  0  0  0  0  0
   44.1430   35.7280   42.9130 C   0  0  0  0  0  0  0  0  0  0  0  0
   45.5270   35.6050   43.0630 C   0  0  0  0  0  0  0  0  0  0  0  0
   46.2590   34.9340   42.1150 C   0  0  0  0  0  0  0  0  0  0  0  0
   45.5840   34.4170   41.0630 N   0  0  0  0  0  0  0  0  0  0  0  0
   44.2580   34.5290   40.9100 C   0  0  0  0  0  0  0  0  0  0  0  0
   43.5350   35.1870   41.8360 N   0  0  0  0  0  0  0  0  0  0  0  0
   47.5838   32.0939   40.9734 H   0  0  0  0  0  0  0  0  0  0  0  0
   47.4497   28.2756   42.8306 H   0  0  0  0  0  0  0  0  0  0  0  0
   45.6156   30.9465   45.4613 H   0  0  0  0  0  0  0  0  0  0  0  0
   46.2368   30.2952   48.0337 H   0  0  0  0  0  0  0  0  0  0  0  0
   48.2141   28.6024   48.9716 H   0  0  0  0  0  0  0  0  0  0  0  0
   49.6108   28.3199   47.8655 H   0  0  0  0  0  0  0  0  0  0  0  0
   52.1668   32.0939   49.6333 H   0  0  0  0  0  0  0  0  0  0  0  0
   46.7316   33.1772   44.0561 H   0  0  0  0  0  0  0  0  0  0  0  0
   48.4198   32.7099   44.6403 H   0  0  0  0  0  0  0  0  0  0  0  0
   48.3751   36.5204   40.9880 H   0  0  0  0  0  0  0  0  0  0  0  0
   50.4530   33.5979   43.3342 H   0  0  0  0  0  0  0  0  0  0  0  0
   43.5512   36.2637   43.6698 H   0  0  0  0  0  0  0  0  0  0  0  0
   46.0283   36.0445   43.9380 H   0  0  0  0  0  0  0  0  0  0  0  0
   43.7627   34.0862   40.0333 H   0  0  0  0  0  0  0  0  0  0  0  0
  1  5  1  0
  1 17  1  0
  2  1  2  0
  3  2  1  0
  3  4  2  0
  4  5  1  0
  5  6  1  0
  6  7  2  0
  6 10  1  0
  7  8  1  0
  9  8  2  0
  9 11  1  0
 10  9  1  0
 11 12  1  0
 12 13  2  0
 13 14  1  0
 15 14  1  0
 16 12  1  0
 16 15  2  0
 18 22  1  0
 19 20  1  0
 19 18  2  0
 20 21  2  0
 21 22  1  0
 22 17  1  0
 23 24  2  0
 25 18  1  0
 25 24  1  0
 26 25  2  0
 27 26  1  0
 27 28  2  0
 28 23  1  0
  2 29  1  0
  4 30  1  0
  7 31  1  0
  8 32  1  0
 11 33  1  0
 11 34  1  0
 15 35  1  0
 17 36  1  0
 17 37  1  0
 19 38  1  0
 21 39  1  0
 23 40  1  0
 24 41  1  0
 27 42  1  0
M  ISO  8  29  14  30  14  31  14  32  14  33   8  34   8  35  14  36   8
M  ISO  6  37   8  38  14  39  14  40  14  41  14  42  14
M  END
>  <minimizedAffinity>  (1) 
-4.93424606

>  <minimizedRMSD>  (1) 
3.17947912

$$$$
