
     RDKit          3D

 45 49  0  0  0  0  0  0  0  0999 V2000
   47.9410   31.4790   42.8720 C   0  0  0  0  0  0  0  0  0  0  0  0
   48.3340   31.2840   41.5380 C   0  0  0  0  0  0  0  0  0  0  0  0
   48.3390   29.9860   41.2340 N   0  0  0  0  0  0  0  0  0  0  0  0
   47.9590   29.3190   42.3330 C   0  0  0  0  0  0  0  0  0  0  0  0
   47.7220   30.2300   43.3120 N   0  0  0  0  0  0  0  0  0  0  0  0
   47.3000   29.9590   44.6410 C   0  0  0  0  0  0  0  0  0  0  0  0
   48.2720   29.6740   45.6070 C   0  0  0  0  0  0  0  0  0  0  0  0
   47.5880   29.4540   46.7900 C   0  0  0  0  0  0  0  0  0  0  0  0
   46.2750   29.6100   46.4960 C   0  0  0  0  0  0  0  0  0  0  0  0
   46.1090   29.9100   45.2190 O   0  0  0  0  0  0  0  0  0  0  0  0
   45.1110   29.4830   47.4130 C   0  0  0  0  0  0  0  0  0  0  0  0
   44.4970   28.1170   47.3000 C   0  0  0  0  0  0  0  0  0  0  0  0
   43.7560   27.6860   46.2220 C   0  0  0  0  0  0  0  0  0  0  0  0
   43.2210   26.4090   46.1900 C   0  0  0  0  0  0  0  0  0  0  0  0
   43.4600   25.6040   47.2650 N   0  0  0  0  0  0  0  0  0  0  0  0
   44.1910   26.0790   48.2870 C   0  0  0  0  0  0  0  0  0  0  0  0
   44.7370   27.3150   48.3730 N   0  0  0  0  0  0  0  0  0  0  0  0
   47.8140   32.7680   43.5690 C   0  0  0  0  0  0  0  0  0  0  0  0
   47.7280   34.8090   42.1950 C   0  0  0  0  0  0  0  0  0  0  0  0
   48.6100   35.7640   41.6720 C   0  0  0  0  0  0  0  0  0  0  0  0
   49.8410   35.3540   42.1050 N   0  0  0  0  0  0  0  0  0  0  0  0
   49.6670   34.2390   42.8280 C   0  0  0  0  0  0  0  0  0  0  0  0
   48.3820   33.8920   42.8930 N   0  0  0  0  0  0  0  0  0  0  0  0
   44.1180   35.6050   42.6310 C   0  0  0  0  0  0  0  0  0  0  0  0
   45.4990   35.5520   42.8530 C   0  0  0  0  0  0  0  0  0  0  0  0
   46.2840   34.8680   41.9690 C   0  0  0  0  0  0  0  0  0  0  0  0
   45.6820   34.2670   40.9060 N   0  0  0  0  0  0  0  0  0  0  0  0
   44.3500   34.3260   40.7060 C   0  0  0  0  0  0  0  0  0  0  0  0
   43.5730   34.9970   41.5720 N   0  0  0  0  0  0  0  0  0  0  0  0
   48.6010   32.0912   40.8400 H   0  0  0  0  0  0  0  0  0  0  0  0
   47.8572   28.2276   42.4254 H   0  0  0  0  0  0  0  0  0  0  0  0
   49.3609   29.6331   45.4563 H   0  0  0  0  0  0  0  0  0  0  0  0
   48.0221   29.2036   47.7692 H   0  0  0  0  0  0  0  0  0  0  0  0
   45.4467   29.6442   48.4481 H   0  0  0  0  0  0  0  0  0  0  0  0
   44.3574   30.2351   47.1365 H   0  0  0  0  0  0  0  0  0  0  0  0
   43.5867   28.3660   45.3741 H   0  0  0  0  0  0  0  0  0  0  0  0
   42.6276   26.0582   45.3328 H   0  0  0  0  0  0  0  0  0  0  0  0
   44.3623   25.3992   49.1346 H   0  0  0  0  0  0  0  0  0  0  0  0
   46.7428   32.9683   43.7184 H   0  0  0  0  0  0  0  0  0  0  0  0
   48.3803   32.6615   44.5060 H   0  0  0  0  0  0  0  0  0  0  0  0
   48.3680   36.6419   41.0549 H   0  0  0  0  0  0  0  0  0  0  0  0
   50.4835   33.6797   43.3081 H   0  0  0  0  0  0  0  0  0  0  0  0
   43.4742   36.1526   43.3351 H   0  0  0  0  0  0  0  0  0  0  0  0
   45.9447   36.0529   43.7250 H   0  0  0  0  0  0  0  0  0  0  0  0
   43.9006   33.8257   39.8355 H   0  0  0  0  0  0  0  0  0  0  0  0
  1  5  1  0
  1 18  1  0
  2  1  2  0
  3  2  1  0
  3  4  2  0
  4  5  1  0
  5  6  1  0
  6 10  1  0
  6  7  2  0
  7  8  1  0
  9  8  2  0
  9 11  1  0
 10  9  1  0
 12 11  1  0
 12 17  1  0
 13 12  2  0
 14 13  1  0
 14 15  2  0
 15 16  1  0
 16 17  2  0
 19 23  1  0
 20 21  1  0
 20 19  2  0
 21 22  2  0
 22 23  1  0
 23 18  1  0
 24 25  2  0
 26 19  1  0
 26 25  1  0
 27 26  2  0
 28 27  1  0
 28 29  2  0
 29 24  1  0
  2 30  1  0
  4 31  1  0
  7 32  1  0
  8 33  1  0
 11 34  1  0
 11 35  1  0
 13 36  1  0
 14 37  1  0
 16 38  1  0
 18 39  1  0
 18 40  1  0
 20 41  1  0
 22 42  1  0
 24 43  1  0
 25 44  1  0
 28 45  1  0
M  ISO  8  30  14  31  14  32  14  33  14  34   8  35   8  36  14  37  14
M  ISO  8  38  14  39   8  40   8  41  14  42  14  43  14  44  14  45  14
M  END
>  <minimizedAffinity>  (1) 
-4.90170908

>  <minimizedRMSD>  (1) 
2.12890601

$$$$
