
     RDKit          3D

 44 48  0  0  0  0  0  0  0  0999 V2000
   48.0900   31.4840   42.9110 C   0  0  0  0  0  0  0  0  0  0  0  0
   48.5040   31.2790   41.5820 C   0  0  0  0  0  0  0  0  0  0  0  0
   48.6030   29.9810   41.3200 N   0  0  0  0  0  0  0  0  0  0  0  0
   48.2630   29.3150   42.4480 C   0  0  0  0  0  0  0  0  0  0  0  0
   47.9570   30.2450   43.3950 N   0  0  0  0  0  0  0  0  0  0  0  0
   47.5510   29.9960   44.7180 C   0  0  0  0  0  0  0  0  0  0  0  0
   48.5310   29.7010   45.6750 C   0  0  0  0  0  0  0  0  0  0  0  0
   47.8470   29.5040   46.8720 C   0  0  0  0  0  0  0  0  0  0  0  0
   46.5420   29.6830   46.5960 C   0  0  0  0  0  0  0  0  0  0  0  0
   46.3570   29.9750   45.3180 O   0  0  0  0  0  0  0  0  0  0  0  0
   45.3860   29.5850   47.5350 C   0  0  0  0  0  0  0  0  0  0  0  0
   44.7290   28.2570   47.4020 C   0  0  0  0  0  0  0  0  0  0  0  0
   44.7750   27.1090   48.1670 C   0  0  0  0  0  0  0  0  0  0  0  0
   43.9460   26.1590   47.5570 C   0  0  0  0  0  0  0  0  0  0  0  0
   43.4310   26.7670   46.4490 N   0  0  0  0  0  0  0  0  0  0  0  0
   43.9030   28.0010   46.3730 N   0  0  0  0  0  0  0  0  0  0  0  0
   47.8730   32.7890   43.5540 C   0  0  0  0  0  0  0  0  0  0  0  0
   47.7500   34.8280   42.1720 C   0  0  0  0  0  0  0  0  0  0  0  0
   48.6170   35.7970   41.6480 C   0  0  0  0  0  0  0  0  0  0  0  0
   49.8570   35.4060   42.0870 N   0  0  0  0  0  0  0  0  0  0  0  0
   49.7020   34.2960   42.8070 C   0  0  0  0  0  0  0  0  0  0  0  0
   48.4200   33.9240   42.8730 N   0  0  0  0  0  0  0  0  0  0  0  0
   44.1290   35.5700   42.6080 C   0  0  0  0  0  0  0  0  0  0  0  0
   45.5070   35.5420   42.8320 C   0  0  0  0  0  0  0  0  0  0  0  0
   46.3110   34.8610   41.9450 C   0  0  0  0  0  0  0  0  0  0  0  0
   45.6960   34.2570   40.9010 N   0  0  0  0  0  0  0  0  0  0  0  0
   44.3820   34.2860   40.6910 C   0  0  0  0  0  0  0  0  0  0  0  0
   43.5940   34.9440   41.5440 N   0  0  0  0  0  0  0  0  0  0  0  0
   48.7161   32.0819   40.8607 H   0  0  0  0  0  0  0  0  0  0  0  0
   48.2383   28.2228   42.5765 H   0  0  0  0  0  0  0  0  0  0  0  0
   49.6173   29.6380   45.5139 H   0  0  0  0  0  0  0  0  0  0  0  0
   48.2860   29.2522   47.8487 H   0  0  0  0  0  0  0  0  0  0  0  0
   45.7443   29.7116   48.5673 H   0  0  0  0  0  0  0  0  0  0  0  0
   44.6575   30.3725   47.2918 H   0  0  0  0  0  0  0  0  0  0  0  0
   45.3575   26.9660   49.0891 H   0  0  0  0  0  0  0  0  0  0  0  0
   43.7501   25.1326   47.9007 H   0  0  0  0  0  0  0  0  0  0  0  0
   42.7791   26.3345   45.7790 H   0  0  0  0  0  0  0  0  0  0  0  0
   46.7876   32.9426   43.6456 H   0  0  0  0  0  0  0  0  0  0  0  0
   48.4035   32.7369   44.5162 H   0  0  0  0  0  0  0  0  0  0  0  0
   48.3622   36.6693   41.0281 H   0  0  0  0  0  0  0  0  0  0  0  0
   50.5281   33.7521   43.2884 H   0  0  0  0  0  0  0  0  0  0  0  0
   43.4743   36.1092   43.3084 H   0  0  0  0  0  0  0  0  0  0  0  0
   45.9429   36.0550   43.7019 H   0  0  0  0  0  0  0  0  0  0  0  0
   43.9486   33.7714   39.8207 H   0  0  0  0  0  0  0  0  0  0  0  0
  1  5  1  0
  1 17  1  0
  2  1  2  0
  3  2  1  0
  3  4  2  0
  4  5  1  0
  5  6  1  0
  6 10  1  0
  6  7  2  0
  7  8  1  0
  9  8  2  0
  9 11  1  0
 10  9  1  0
 12 11  1  0
 12 13  1  0
 14 13  2  0
 15 14  1  0
 16 15  1  0
 16 12  2  0
 18 22  1  0
 19 20  1  0
 19 18  2  0
 20 21  2  0
 21 22  1  0
 22 17  1  0
 23 24  2  0
 25 18  1  0
 25 24  1  0
 26 25  2  0
 27 26  1  0
 27 28  2  0
 28 23  1  0
  2 29  1  0
  4 30  1  0
  7 31  1  0
  8 32  1  0
 11 33  1  0
 11 34  1  0
 13 35  1  0
 14 36  1  0
 15 37  1  0
 17 38  1  0
 17 39  1  0
 19 40  1  0
 21 41  1  0
 23 42  1  0
 24 43  1  0
 27 44  1  0
M  ISO  8  29  14  30  14  31  14  32  14  33   8  34   8  35  14  36  14
M  ISO  8  37   9  38   8  39   8  40  14  41  14  42  14  43  14  44  14
M  END
>  <minimizedAffinity>  (1) 
-4.77473259

>  <minimizedRMSD>  (1) 
1.93072534

$$$$
