
     RDKit          3D

 38 41  0  0  0  0  0  0  0  0999 V2000
   47.6600   32.8800   43.8200 C   0  0  0  0  0  0  0  0  0  0  0  0
   47.6370   34.7970   42.2580 C   0  0  0  0  0  0  0  0  0  0  0  0
   48.5510   35.6480   41.6370 C   0  0  0  0  0  0  0  0  0  0  0  0
   49.7820   35.2120   42.0860 N   0  0  0  0  0  0  0  0  0  0  0  0
   49.5650   34.1820   42.9080 C   0  0  0  0  0  0  0  0  0  0  0  0
   48.2730   33.9100   43.0290 N   0  0  0  0  0  0  0  0  0  0  0  0
   44.0540   35.7040   42.7640 C   0  0  0  0  0  0  0  0  0  0  0  0
   45.4380   35.6060   42.9670 C   0  0  0  0  0  0  0  0  0  0  0  0
   46.2010   34.9050   42.0590 C   0  0  0  0  0  0  0  0  0  0  0  0
   45.5540   34.3420   41.0040 N   0  0  0  0  0  0  0  0  0  0  0  0
   44.2270   34.4440   40.8220 C   0  0  0  0  0  0  0  0  0  0  0  0
   43.4770   35.1270   41.7030 N   0  0  0  0  0  0  0  0  0  0  0  0
   47.6350   31.5450   43.2240 C   0  0  0  0  0  0  0  0  0  0  0  0
   47.8930   31.2340   41.8770 C   0  0  0  0  0  0  0  0  0  0  0  0
   47.7860   29.9280   41.6640 N   0  0  0  0  0  0  0  0  0  0  0  0
   47.4620   29.3540   42.8470 C   0  0  0  0  0  0  0  0  0  0  0  0
   47.3740   30.3410   43.7750 N   0  0  0  0  0  0  0  0  0  0  0  0
   47.0600   30.2040   45.1440 C   0  0  0  0  0  0  0  0  0  0  0  0
   48.0910   29.8660   46.0350 C   0  0  0  0  0  0  0  0  0  0  0  0
   47.4950   29.8010   47.2950 C   0  0  0  0  0  0  0  0  0  0  0  0
   46.1740   30.0910   47.1140 C   0  0  0  0  0  0  0  0  0  0  0  0
   45.9400   30.3270   45.8250 O   0  0  0  0  0  0  0  0  0  0  0  0
   45.1190   30.1510   48.1480 C   0  0  0  0  0  0  0  0  0  0  0  0
   45.3970   31.4670   49.3610 S   0  0  0  0  0  0  0  0  0  0  0  0
   48.2090   32.8140   44.7709 H   0  0  0  0  0  0  0  0  0  0  0  0
   46.6063   33.1765   43.9289 H   0  0  0  0  0  0  0  0  0  0  0  0
   48.3394   36.4778   40.9466 H   0  0  0  0  0  0  0  0  0  0  0  0
   50.3624   33.6261   43.4228 H   0  0  0  0  0  0  0  0  0  0  0  0
   43.4362   36.2607   43.4840 H   0  0  0  0  0  0  0  0  0  0  0  0
   45.9083   36.0826   43.8398 H   0  0  0  0  0  0  0  0  0  0  0  0
   43.7538   33.9678   39.9506 H   0  0  0  0  0  0  0  0  0  0  0  0
   48.1490   31.9734   41.1039 H   0  0  0  0  0  0  0  0  0  0  0  0
   47.2993   28.2806   43.0242 H   0  0  0  0  0  0  0  0  0  0  0  0
   49.1488   29.6892   45.7906 H   0  0  0  0  0  0  0  0  0  0  0  0
   47.9922   29.5628   48.2469 H   0  0  0  0  0  0  0  0  0  0  0  0
   44.1523   30.3275   47.6536 H   0  0  0  0  0  0  0  0  0  0  0  0
   45.1322   29.1938   48.6898 H   0  0  0  0  0  0  0  0  0  0  0  0
   45.2883   30.9524   50.6260 H   0  0  0  0  0  0  0  0  0  0  0  0
  2  6  1  0
  3  4  1  0
  3  2  2  0
  4  5  2  0
  5  6  1  0
  6  1  1  0
  7  8  2  0
  9  2  1  0
  9  8  1  0
 10  9  2  0
 11 10  1  0
 11 12  2  0
 12  7  1  0
 13 17  1  0
 13  1  1  0
 14 13  2  0
 15 14  1  0
 15 16  2  0
 16 17  1  0
 17 18  1  0
 18 22  1  0
 18 19  2  0
 19 20  1  0
 21 20  2  0
 21 23  1  0
 22 21  1  0
 23 24  1  0
  1 25  1  0
  1 26  1  0
  3 27  1  0
  5 28  1  0
  7 29  1  0
  8 30  1  0
 11 31  1  0
 14 32  1  0
 16 33  1  0
 19 34  1  0
 20 35  1  0
 23 36  1  0
 23 37  1  0
 24 38  1  0
M  ISO  8  25   8  26   8  27  14  28  14  29  14  30  14  31  14  32  14
M  ISO  6  33  14  34  14  35  14  36   8  37   8  38  11
M  END
>  <minimizedAffinity>  (1) 
-4.72197676

>  <minimizedRMSD>  (1) 
0.870826006

$$$$
