
     RDKit          3D

 26 28  0  0  0  0  0  0  0  0999 V2000
   44.7620   34.9650   44.6660 C   0  0  0  0  0  0  0  0  0  0  0  0
   45.3390   35.6820   43.5840 C   0  0  0  0  0  0  0  0  0  0  0  0
   46.4990   35.1670   42.9850 C   0  0  0  0  0  0  0  0  0  0  0  0
   46.9990   34.0090   43.4810 N   0  0  0  0  0  0  0  0  0  0  0  0
   46.4310   33.3570   44.5010 C   0  0  0  0  0  0  0  0  0  0  0  0
   45.3270   33.8200   45.0930 N   0  0  0  0  0  0  0  0  0  0  0  0
   46.9800   32.1390   45.0020 N   0  0  0  0  0  0  0  0  0  0  0  0
   47.6790   31.1810   44.3840 C   0  0  0  0  0  0  0  0  0  0  0  0
   47.9760   30.2240   45.2840 N   0  0  0  0  0  0  0  0  0  0  0  0
   47.4620   30.5730   46.4880 C   0  0  0  0  0  0  0  0  0  0  0  0
   47.5190   29.9010   47.6960 C   0  0  0  0  0  0  0  0  0  0  0  0
   48.0990   28.8020   47.8240 O   0  0  0  0  0  0  0  0  0  0  0  0
   46.9270   30.4490   48.7750 N   0  0  0  0  0  0  0  0  0  0  0  0
   46.3160   31.6260   48.5980 C   0  0  0  0  0  0  0  0  0  0  0  0
   45.6670   32.2640   49.7010 N   0  0  0  0  0  0  0  0  0  0  0  0
   46.2540   32.2920   47.4250 N   0  0  0  0  0  0  0  0  0  0  0  0
   46.8350   31.7860   46.2960 C   0  0  0  0  0  0  0  0  0  0  0  0
   44.7280   36.8690   43.1630 N   0  0  0  0  0  0  0  0  0  0  0  0
   43.8532   35.3454   45.1552 H   0  0  0  0  0  0  0  0  0  0  0  0
   46.9844   35.6840   42.1441 H   0  0  0  0  0  0  0  0  0  0  0  0
   47.9631   31.1755   43.3213 H   0  0  0  0  0  0  0  0  0  0  0  0
   46.9440   29.9834   49.6936 H   0  0  0  0  0  0  0  0  0  0  0  0
   45.1959   33.1702   49.5673 H   0  0  0  0  0  0  0  0  0  0  0  0
   45.6706   31.8174   50.6291 H   0  0  0  0  0  0  0  0  0  0  0  0
   45.1291   37.4052   42.3804 H   0  0  0  0  0  0  0  0  0  0  0  0
   43.8773   37.2062   43.6358 H   0  0  0  0  0  0  0  0  0  0  0  0
  1  6  2  0
  2  1  1  0
  3  4  1  0
  3  2  2  0
  4  5  2  0
  5  7  1  0
  5  6  1  0
  7 17  1  0
  8  7  1  0
  8  9  2  0
  9 10  1  0
 10 11  1  0
 11 12  2  0
 11 13  1  0
 14 13  1  0
 14 15  1  0
 16 14  2  0
 17 10  2  0
 17 16  1  0
 18  2  1  0
  1 19  1  0
  3 20  1  0
  8 21  1  0
 13 22  1  0
 15 23  1  0
 15 24  1  0
 18 25  1  0
 18 26  1  0
M  ISO  4  19  14  20  14  21  14  22   9
M  END
>  <minimizedAffinity>  (1) 
-5.72869253

>  <minimizedRMSD>  (1) 
1.78638494

$$$$
