
     RDKit          3D

 23 24  0  0  0  0  0  0  0  0999 V2000
   44.3910   35.8200   44.6950 C   0  0  0  0  0  0  0  0  0  0  0  0
   44.4930   35.4060   43.3600 C   0  0  0  0  0  0  0  0  0  0  0  0
   45.0720   34.1700   43.0690 C   0  0  0  0  0  0  0  0  0  0  0  0
   45.5190   33.4190   44.1260 N   0  0  0  0  0  0  0  0  0  0  0  0
   45.4060   33.8470   45.3890 C   0  0  0  0  0  0  0  0  0  0  0  0
   44.8530   35.0300   45.6930 N   0  0  0  0  0  0  0  0  0  0  0  0
   45.8900   33.0150   46.4350 N   0  0  0  0  0  0  0  0  0  0  0  0
   45.2400   33.1540   47.6070 C   0  0  0  0  0  0  0  0  0  0  0  0
   45.6570   32.3760   48.6730 C   0  0  0  0  0  0  0  0  0  0  0  0
   46.7190   31.5230   48.4130 C   0  0  0  0  0  0  0  0  0  0  0  0
   47.2220   30.6820   49.4420 N   0  0  0  0  0  0  0  0  0  0  0  0
   47.3640   31.3960   47.2220 N   0  0  0  0  0  0  0  0  0  0  0  0
   46.9200   32.1780   46.2120 C   0  0  0  0  0  0  0  0  0  0  0  0
   47.4180   32.1670   45.0600 O   0  0  0  0  0  0  0  0  0  0  0  0
   44.0010   36.2620   42.3760 N   0  0  0  0  0  0  0  0  0  0  0  0
   43.9334   36.7915   44.9333 H   0  0  0  0  0  0  0  0  0  0  0  0
   45.1661   33.8123   42.0330 H   0  0  0  0  0  0  0  0  0  0  0  0
   44.4053   33.8626   47.7131 H   0  0  0  0  0  0  0  0  0  0  0  0
   45.1775   32.4307   49.6615 H   0  0  0  0  0  0  0  0  0  0  0  0
   48.0108   30.0482   49.2496 H   0  0  0  0  0  0  0  0  0  0  0  0
   46.7978   30.7062   50.3803 H   0  0  0  0  0  0  0  0  0  0  0  0
   44.0581   35.9926   41.3835 H   0  0  0  0  0  0  0  0  0  0  0  0
   43.5804   37.1640   42.6414 H   0  0  0  0  0  0  0  0  0  0  0  0
  1  6  2  0
  2  1  1  0
  3  2  2  0
  3  4  1  0
  4  5  2  0
  5  6  1  0
  5  7  1  0
  7  8  1  0
  8  9  2  0
 10  9  1  0
 10 11  1  0
 12 10  2  0
 13  7  1  0
 13 12  1  0
 14 13  2  0
 15  2  1  0
  1 16  1  0
  3 17  1  0
  8 18  1  0
  9 19  1  0
 11 20  1  0
 11 21  1  0
 15 22  1  0
 15 23  1  0
M  ISO  4  16  14  17  14  18  14  19  14
M  END
>  <minimizedAffinity>  (1) 
-5.61533642

>  <minimizedRMSD>  (1) 
0.980250537

$$$$
