
     RDKit          3D

 26 28  0  0  0  0  0  0  0  0999 V2000
   45.9110   32.7370   46.7490 C   0  0  0  0  0  0  0  0  0  0  0  0
   45.4110   32.8840   47.9930 N   0  0  0  0  0  0  0  0  0  0  0  0
   45.6000   32.0060   48.9770 C   0  0  0  0  0  0  0  0  0  0  0  0
   46.3130   30.8800   48.8180 N   0  0  0  0  0  0  0  0  0  0  0  0
   46.8480   30.6530   47.6060 C   0  0  0  0  0  0  0  0  0  0  0  0
   47.5690   29.4990   47.4730 C   0  0  0  0  0  0  0  0  0  0  0  0
   48.1480   29.1900   46.2700 C   0  0  0  0  0  0  0  0  0  0  0  0
   47.9620   30.0960   45.2330 C   0  0  0  0  0  0  0  0  0  0  0  0
   47.2250   31.2410   45.4300 C   0  0  0  0  0  0  0  0  0  0  0  0
   46.6390   31.5690   46.6210 C   0  0  0  0  0  0  0  0  0  0  0  0
   44.4770   35.6400   45.1980 C   0  0  0  0  0  0  0  0  0  0  0  0
   45.0330   35.7020   43.9180 C   0  0  0  0  0  0  0  0  0  0  0  0
   45.9360   34.7280   43.5390 C   0  0  0  0  0  0  0  0  0  0  0  0
   46.2340   33.7640   44.4310 N   0  0  0  0  0  0  0  0  0  0  0  0
   45.7140   33.6990   45.6440 C   0  0  0  0  0  0  0  0  0  0  0  0
   44.8480   34.6320   46.0070 N   0  0  0  0  0  0  0  0  0  0  0  0
   44.6640   36.7340   43.0670 N   0  0  0  0  0  0  0  0  0  0  0  0
   45.1531   32.2125   49.9607 H   0  0  0  0  0  0  0  0  0  0  0  0
   47.6842   28.8196   48.3304 H   0  0  0  0  0  0  0  0  0  0  0  0
   48.7324   28.2684   46.1318 H   0  0  0  0  0  0  0  0  0  0  0  0
   48.4073   29.8963   44.2472 H   0  0  0  0  0  0  0  0  0  0  0  0
   47.1003   31.9308   44.5823 H   0  0  0  0  0  0  0  0  0  0  0  0
   43.7537   36.3969   45.5357 H   0  0  0  0  0  0  0  0  0  0  0  0
   46.3971   34.7393   42.5404 H   0  0  0  0  0  0  0  0  0  0  0  0
   45.0671   36.7904   42.1208 H   0  0  0  0  0  0  0  0  0  0  0  0
   43.9870   37.4437   43.3815 H   0  0  0  0  0  0  0  0  0  0  0  0
  1  2  2  0
  2  3  1  0
  4  3  2  0
  5  4  1  0
  6  5  2  0
  7  6  1  0
  8  9  1  0
  8  7  2  0
  9 10  2  0
 10  1  1  0
 10  5  1  0
 11 16  2  0
 12 11  1  0
 13 12  2  0
 13 14  1  0
 14 15  2  0
 15 16  1  0
 15  1  1  0
 17 12  1  0
  3 18  1  0
  6 19  1  0
  7 20  1  0
  8 21  1  0
  9 22  1  0
 11 23  1  0
 13 24  1  0
 17 25  1  0
 17 26  1  0
M  ISO  7  18  14  19  14  20  14  21  14  22  14  23  14  24  14
M  END
>  <minimizedAffinity>  (1) 
-5.40915442

>  <minimizedRMSD>  (1) 
0.43920216

$$$$
