
     RDKit          3D

 26 27  0  0  0  0  0  0  0  0999 V2000
   44.5750   35.2320   45.6450 C   0  0  0  0  0  0  0  0  0  0  0  0
   45.1020   35.2370   44.3420 C   0  0  0  0  0  0  0  0  0  0  0  0
   46.0150   34.2480   43.9560 C   0  0  0  0  0  0  0  0  0  0  0  0
   46.3330   33.3260   44.9000 N   0  0  0  0  0  0  0  0  0  0  0  0
   45.8250   33.3290   46.1370 C   0  0  0  0  0  0  0  0  0  0  0  0
   44.9570   34.2640   46.5160 N   0  0  0  0  0  0  0  0  0  0  0  0
   46.2290   32.3120   47.0470 N   0  0  0  0  0  0  0  0  0  0  0  0
   47.3830   32.5190   47.8970 C   0  0  0  0  0  0  0  0  0  0  0  0
   47.6260   31.3400   48.7800 C   0  0  0  0  0  0  0  0  0  0  0  0
   46.4500   30.8670   49.4580 N   0  0  0  0  0  0  0  0  0  0  0  0
   45.2620   30.8680   48.6510 C   0  0  0  0  0  0  0  0  0  0  0  0
   45.5490   31.0590   47.1820 C   0  0  0  0  0  0  0  0  0  0  0  0
   44.6830   36.2520   43.4730 N   0  0  0  0  0  0  0  0  0  0  0  0
   43.8586   36.0066   45.9562 H   0  0  0  0  0  0  0  0  0  0  0  0
   46.4495   34.2199   42.9459 H   0  0  0  0  0  0  0  0  0  0  0  0
   48.2686   32.6818   47.2652 H   0  0  0  0  0  0  0  0  0  0  0  0
   47.1920   33.3955   48.5336 H   0  0  0  0  0  0  0  0  0  0  0  0
   48.0226   30.5207   48.1623 H   0  0  0  0  0  0  0  0  0  0  0  0
   48.3337   31.6641   49.5573 H   0  0  0  0  0  0  0  0  0  0  0  0
   46.6253   29.9021   49.7728 H   0  0  0  0  0  0  0  0  0  0  0  0
   44.7458   29.9060   48.7854 H   0  0  0  0  0  0  0  0  0  0  0  0
   44.6417   31.7153   48.9786 H   0  0  0  0  0  0  0  0  0  0  0  0
   44.6080   31.0767   46.6126 H   0  0  0  0  0  0  0  0  0  0  0  0
   46.1643   30.2348   46.7921 H   0  0  0  0  0  0  0  0  0  0  0  0
   45.0473   36.2886   42.5103 H   0  0  0  0  0  0  0  0  0  0  0  0
   44.0105   36.9619   43.7966 H   0  0  0  0  0  0  0  0  0  0  0  0
  1  6  2  0
  2  1  1  0
  3  2  2  0
  3  4  1  0
  4  5  2  0
  5  6  1  0
  5  7  1  0
  7 12  1  0
  7  8  1  0
  8  9  1  0
  9 10  1  0
 11 10  1  0
 12 11  1  0
 13  2  1  0
  1 14  1  0
  3 15  1  0
  8 16  1  0
  8 17  1  0
  9 18  1  0
  9 19  1  0
 10 20  1  0
 11 21  1  0
 11 22  1  0
 12 23  1  0
 12 24  1  0
 13 25  1  0
 13 26  1  0
M  ISO  8  14  14  15  14  16  13  17  13  18  13  19  13  20   5  21  13
M  ISO  3  22  13  23  13  24  13
M  END
>  <minimizedAffinity>  (1) 
-4.97826481

>  <minimizedRMSD>  (1) 
0.848751247

$$$$
