
     RDKit          3D

 27 28  0  0  0  0  0  0  0  0999 V2000
   44.4940   35.5920   45.2500 C   0  0  0  0  0  0  0  0  0  0  0  0
   45.0970   35.5370   43.9830 C   0  0  0  0  0  0  0  0  0  0  0  0
   45.9820   34.5110   43.6940 C   0  0  0  0  0  0  0  0  0  0  0  0
   46.2360   33.5880   44.6610 N   0  0  0  0  0  0  0  0  0  0  0  0
   45.6420   33.6670   45.8690 C   0  0  0  0  0  0  0  0  0  0  0  0
   44.7750   34.6510   46.1870 N   0  0  0  0  0  0  0  0  0  0  0  0
   45.9730   32.6450   46.8250 N   0  0  0  0  0  0  0  0  0  0  0  0
   47.2660   32.0470   46.7670 C   0  0  0  0  0  0  0  0  0  0  0  0
   47.8210   31.6200   48.0910 C   0  0  0  0  0  0  0  0  0  0  0  0
   46.7610   31.0850   49.0250 C   0  0  0  0  0  0  0  0  0  0  0  0
   45.7170   32.1810   49.1610 C   0  0  0  0  0  0  0  0  0  0  0  0
   45.0020   32.2370   47.8270 C   0  0  0  0  0  0  0  0  0  0  0  0
   44.7660   36.5370   43.0610 N   0  0  0  0  0  0  0  0  0  0  0  0
   43.7891   36.4032   45.4847 H   0  0  0  0  0  0  0  0  0  0  0  0
   46.4666   34.4443   42.7087 H   0  0  0  0  0  0  0  0  0  0  0  0
   47.2038   31.1597   46.1199 H   0  0  0  0  0  0  0  0  0  0  0  0
   47.9471   32.8195   46.3805 H   0  0  0  0  0  0  0  0  0  0  0  0
   48.5695   30.8321   47.9207 H   0  0  0  0  0  0  0  0  0  0  0  0
   48.2638   32.5077   48.5663 H   0  0  0  0  0  0  0  0  0  0  0  0
   46.3061   30.1763   48.6038 H   0  0  0  0  0  0  0  0  0  0  0  0
   47.1886   30.8177   50.0026 H   0  0  0  0  0  0  0  0  0  0  0  0
   45.0079   31.9370   49.9658 H   0  0  0  0  0  0  0  0  0  0  0  0
   46.1756   33.1479   49.4157 H   0  0  0  0  0  0  0  0  0  0  0  0
   44.1803   32.9669   47.8721 H   0  0  0  0  0  0  0  0  0  0  0  0
   44.5764   31.2545   47.5751 H   0  0  0  0  0  0  0  0  0  0  0  0
   45.1875   36.5310   42.1212 H   0  0  0  0  0  0  0  0  0  0  0  0
   44.1009   37.2788   43.3224 H   0  0  0  0  0  0  0  0  0  0  0  0
  1  6  2  0
  2  1  1  0
  3  2  2  0
  3  4  1  0
  4  5  2  0
  5  6  1  0
  5  7  1  0
  7 12  1  0
  8  7  1  0
  8  9  1  0
  9 10  1  0
 10 11  1  0
 12 11  1  0
 13  2  1  0
  1 14  1  0
  3 15  1  0
  8 16  1  0
  8 17  1  0
  9 18  1  0
  9 19  1  0
 10 20  1  0
 10 21  1  0
 11 22  1  0
 11 23  1  0
 12 24  1  0
 12 25  1  0
 13 26  1  0
 13 27  1  0
M  ISO  8  14  14  15  14  16  13  17  13  18  13  19  13  20  13  21  13
M  ISO  4  22  13  23  13  24  13  25  13
M  END
>  <minimizedAffinity>  (1) 
-4.96356153

>  <minimizedRMSD>  (1) 
0.688169658

$$$$
