
     RDKit          3D

 24 25  0  0  0  0  0  0  0  0999 V2000
   44.4690   35.7670   45.0160 C   0  0  0  0  0  0  0  0  0  0  0  0
   45.1040   35.7430   43.7620 C   0  0  0  0  0  0  0  0  0  0  0  0
   46.0120   34.7370   43.4720 C   0  0  0  0  0  0  0  0  0  0  0  0
   46.2460   33.8020   44.4430 N   0  0  0  0  0  0  0  0  0  0  0  0
   45.6260   33.8520   45.6260 C   0  0  0  0  0  0  0  0  0  0  0  0
   44.7500   34.8040   45.9340 N   0  0  0  0  0  0  0  0  0  0  0  0
   45.9060   32.8530   46.6010 N   0  0  0  0  0  0  0  0  0  0  0  0
   45.2010   32.4890   47.8160 C   0  0  0  0  0  0  0  0  0  0  0  0
   46.2580   32.1960   48.8520 C   0  0  0  0  0  0  0  0  0  0  0  0
   47.5380   32.2560   48.0420 C   0  0  0  0  0  0  0  0  0  0  0  0
   46.9900   31.8890   46.6750 C   0  0  0  0  0  0  0  0  0  0  0  0
   44.7880   36.7520   42.8440 N   0  0  0  0  0  0  0  0  0  0  0  0
   43.7472   36.5622   45.2538 H   0  0  0  0  0  0  0  0  0  0  0  0
   46.5243   34.6920   42.4996 H   0  0  0  0  0  0  0  0  0  0  0  0
   44.5626   33.3207   48.1488 H   0  0  0  0  0  0  0  0  0  0  0  0
   44.5507   31.6169   47.6530 H   0  0  0  0  0  0  0  0  0  0  0  0
   46.2555   32.9552   49.6480 H   0  0  0  0  0  0  0  0  0  0  0  0
   46.1110   31.2361   49.3687 H   0  0  0  0  0  0  0  0  0  0  0  0
   47.9809   33.2629   48.0493 H   0  0  0  0  0  0  0  0  0  0  0  0
   48.3524   31.6129   48.4069 H   0  0  0  0  0  0  0  0  0  0  0  0
   46.6236   30.8524   46.6418 H   0  0  0  0  0  0  0  0  0  0  0  0
   47.7147   31.9263   45.8483 H   0  0  0  0  0  0  0  0  0  0  0  0
   45.2358   36.7631   41.9165 H   0  0  0  0  0  0  0  0  0  0  0  0
   44.1078   37.4832   43.0962 H   0  0  0  0  0  0  0  0  0  0  0  0
  1  6  2  0
  2  1  1  0
  3  2  2  0
  3  4  1  0
  4  5  2  0
  5  6  1  0
  5  7  1  0
  7 11  1  0
  7  8  1  0
  8  9  1  0
 10  9  1  0
 11 10  1  0
 12  2  1  0
  1 13  1  0
  3 14  1  0
  8 15  1  0
  8 16  1  0
  9 17  1  0
  9 18  1  0
 10 19  1  0
 10 20  1  0
 11 21  1  0
 11 22  1  0
 12 23  1  0
 12 24  1  0
M  ISO  8  13  14  14  14  15  13  16  13  17  13  18  13  19  13  20  13
M  ISO  2  21  13  22  13
M  END
>  <minimizedAffinity>  (1) 
-4.80092525

>  <minimizedRMSD>  (1) 
0.534250677

$$$$
