
     RDKit          3D

 19 20  0  0  0  0  0  0  0  0999 V2000
   44.5020   35.5680   44.9580 C   0  0  0  0  0  0  0  0  0  0  0  0
   45.0600   35.5870   43.6530 C   0  0  0  0  0  0  0  0  0  0  0  0
   46.0690   34.6920   43.3410 C   0  0  0  0  0  0  0  0  0  0  0  0
   46.4790   33.8290   44.3070 N   0  0  0  0  0  0  0  0  0  0  0  0
   45.9390   33.8270   45.5320 C   0  0  0  0  0  0  0  0  0  0  0  0
   44.9640   34.6810   45.8620 N   0  0  0  0  0  0  0  0  0  0  0  0
   46.4120   32.8830   46.5380 C   0  0  0  0  0  0  0  0  0  0  0  0
   46.0320   31.5630   46.6710 C   0  0  0  0  0  0  0  0  0  0  0  0
   46.6380   30.9390   47.6970 N   0  0  0  0  0  0  0  0  0  0  0  0
   47.4380   31.9020   48.2420 C   0  0  0  0  0  0  0  0  0  0  0  0
   47.2920   33.0430   47.5440 N   0  0  0  0  0  0  0  0  0  0  0  0
   44.5670   36.5090   42.7410 N   0  0  0  0  0  0  0  0  0  0  0  0
   43.7001   36.2704   45.2292 H   0  0  0  0  0  0  0  0  0  0  0  0
   46.5255   34.6799   42.3403 H   0  0  0  0  0  0  0  0  0  0  0  0
   45.3072   31.0711   46.0056 H   0  0  0  0  0  0  0  0  0  0  0  0
   48.0966   31.7666   49.1126 H   0  0  0  0  0  0  0  0  0  0  0  0
   47.7875   33.9217   47.7517 H   0  0  0  0  0  0  0  0  0  0  0  0
   44.9526   36.5461   41.7866 H   0  0  0  0  0  0  0  0  0  0  0  0
   43.8154   37.1564   43.0183 H   0  0  0  0  0  0  0  0  0  0  0  0
  1  6  2  0
  2  1  1  0
  3  2  2  0
  3  4  1  0
  4  5  2  0
  5  6  1  0
  5  7  1  0
  7  8  2  0
  7 11  1  0
  8  9  1  0
  9 10  2  0
 11 10  1  0
 12  2  1  0
  1 13  1  0
  3 14  1  0
  8 15  1  0
 10 16  1  0
 11 17  1  0
 12 18  1  0
 12 19  1  0
M  ISO  5  13  14  14  14  15  14  16  14  17   9
M  END
>  <minimizedAffinity>  (1) 
-4.68334055

>  <minimizedRMSD>  (1) 
0.629850447

$$$$
