
     RDKit          3D

 25 26  0  0  0  0  0  0  0  0999 V2000
   44.6940   35.1050   45.4230 C   0  0  0  0  0  0  0  0  0  0  0  0
   45.0480   35.4060   44.0870 C   0  0  0  0  0  0  0  0  0  0  0  0
   46.0400   34.6670   43.4620 C   0  0  0  0  0  0  0  0  0  0  0  0
   46.6310   33.6780   44.1760 N   0  0  0  0  0  0  0  0  0  0  0  0
   46.2870   33.4050   45.4390 C   0  0  0  0  0  0  0  0  0  0  0  0
   45.3260   34.1050   46.0760 N   0  0  0  0  0  0  0  0  0  0  0  0
   48.2130   30.2820   47.5910 C   0  0  0  0  0  0  0  0  0  0  0  0
   47.8990   30.1780   46.2530 C   0  0  0  0  0  0  0  0  0  0  0  0
   47.2780   31.1490   45.5060 C   0  0  0  0  0  0  0  0  0  0  0  0
   46.9550   32.3190   46.1820 C   0  0  0  0  0  0  0  0  0  0  0  0
   47.2580   32.4630   47.5390 C   0  0  0  0  0  0  0  0  0  0  0  0
   47.8830   31.4580   48.2540 C   0  0  0  0  0  0  0  0  0  0  0  0
   48.9920   29.0660   48.5390 S   0  0  0  0  0  0  0  0  0  0  0  0
   50.1330   28.4690   47.7620 O   0  0  0  0  0  0  0  0  0  0  0  0
   49.5900   29.6430   49.7990 O   0  0  0  0  0  0  0  0  0  0  0  0
   44.3540   36.4540   43.4730 N   0  0  0  0  0  0  0  0  0  0  0  0
   43.9067   35.6832   45.9288 H   0  0  0  0  0  0  0  0  0  0  0  0
   46.3371   34.8756   42.4236 H   0  0  0  0  0  0  0  0  0  0  0  0
   48.1675   29.2416   45.7421 H   0  0  0  0  0  0  0  0  0  0  0  0
   47.0505   31.0090   44.4389 H   0  0  0  0  0  0  0  0  0  0  0  0
   46.9925   33.3996   48.0511 H   0  0  0  0  0  0  0  0  0  0  0  0
   48.1135   31.5862   49.3219 H   0  0  0  0  0  0  0  0  0  0  0  0
   48.0389   28.1327   48.8512 H   0  0  0  0  0  0  0  0  0  0  0  0
   44.5713   36.7158   42.5008 H   0  0  0  0  0  0  0  0  0  0  0  0
   43.6257   36.9638   43.9931 H   0  0  0  0  0  0  0  0  0  0  0  0
  1  6  2  0
  2  1  1  0
  3  2  2  0
  3  4  1  0
  4  5  2  0
  5  6  1  0
  5 10  1  0
  7 12  2  0
  7 13  1  0
  8  7  1  0
  9 10  1  0
  9  8  2  0
 10 11  2  0
 11 12  1  0
 13 15  2  0
 14 13  2  0
 16  2  1  0
  1 17  1  0
  3 18  1  0
  8 19  1  0
  9 20  1  0
 11 21  1  0
 12 22  1  0
 13 23  1  0
 16 24  1  0
 16 25  1  0
M  ISO  7  17  14  18  14  19  14  20  14  21  14  22  14  23  11
M  END
>  <minimizedAffinity>  (1) 
-4.51115799

>  <minimizedRMSD>  (1) 
1.49090433

$$$$
