
     RDKit          3D

 18 19  0  0  0  0  0  0  0  0999 V2000
   44.4700   35.6530   45.1260 C   0  0  0  0  0  0  0  0  0  0  0  0
   45.1150   35.5600   43.8640 C   0  0  0  0  0  0  0  0  0  0  0  0
   46.0240   34.5230   43.6500 C   0  0  0  0  0  0  0  0  0  0  0  0
   46.2440   33.6520   44.6680 N   0  0  0  0  0  0  0  0  0  0  0  0
   45.6140   33.7710   45.8520 C   0  0  0  0  0  0  0  0  0  0  0  0
   44.7400   34.7470   46.0960 N   0  0  0  0  0  0  0  0  0  0  0  0
   46.0090   32.7160   46.8010 C   0  0  0  0  0  0  0  0  0  0  0  0
   47.0510   31.7580   46.6270 C   0  0  0  0  0  0  0  0  0  0  0  0
   46.9080   30.8050   48.2430 S   0  0  0  0  0  0  0  0  0  0  0  0
   45.5190   31.8560   48.8060 C   0  0  0  0  0  0  0  0  0  0  0  0
   45.3000   32.6860   47.9180 N   0  0  0  0  0  0  0  0  0  0  0  0
   44.8010   36.5190   42.9030 N   0  0  0  0  0  0  0  0  0  0  0  0
   43.7498   36.4624   45.3160 H   0  0  0  0  0  0  0  0  0  0  0  0
   46.5455   34.4148   42.6875 H   0  0  0  0  0  0  0  0  0  0  0  0
   47.7439   31.6161   45.7845 H   0  0  0  0  0  0  0  0  0  0  0  0
   44.9787   31.7651   49.7598 H   0  0  0  0  0  0  0  0  0  0  0  0
   45.2483   36.4847   41.9758 H   0  0  0  0  0  0  0  0  0  0  0  0
   44.1216   37.2622   43.1198 H   0  0  0  0  0  0  0  0  0  0  0  0
  1  6  2  0
  2  1  1  0
  3  2  2  0
  3  4  1  0
  4  5  2  0
  5  6  1  0
  5  7  1  0
  7 11  1  0
  8  7  2  0
  8  9  1  0
  9 10  1  0
 11 10  2  0
 12  2  1  0
  1 13  1  0
  3 14  1  0
  8 15  1  0
 10 16  1  0
 12 17  1  0
 12 18  1  0
M  ISO  4  13  14  14  14  15  14  16  14
M  END
>  <minimizedAffinity>  (1) 
-4.32440805

>  <minimizedRMSD>  (1) 
0.755278707

$$$$
