
     RDKit          3D

 17 18  0  0  0  0  0  0  0  0999 V2000
   44.4370   35.7260   45.0620 C   0  0  0  0  0  0  0  0  0  0  0  0
   45.0580   35.6130   43.8060 C   0  0  0  0  0  0  0  0  0  0  0  0
   45.9720   34.5670   43.5920 C   0  0  0  0  0  0  0  0  0  0  0  0
   46.2020   33.7170   44.6260 N   0  0  0  0  0  0  0  0  0  0  0  0
   45.5910   33.8520   45.8190 C   0  0  0  0  0  0  0  0  0  0  0  0
   44.7230   34.8350   46.0420 N   0  0  0  0  0  0  0  0  0  0  0  0
   45.9690   32.8410   46.8030 C   0  0  0  0  0  0  0  0  0  0  0  0
   45.1940   32.5760   47.8930 N   0  0  0  0  0  0  0  0  0  0  0  0
   45.7540   31.6310   48.6170 O   0  0  0  0  0  0  0  0  0  0  0  0
   46.8780   31.2570   48.0430 C   0  0  0  0  0  0  0  0  0  0  0  0
   47.0290   31.9960   46.9170 N   0  0  0  0  0  0  0  0  0  0  0  0
   44.7340   36.5520   42.8260 N   0  0  0  0  0  0  0  0  0  0  0  0
   43.7188   36.5378   45.2493 H   0  0  0  0  0  0  0  0  0  0  0  0
   46.4811   34.4417   42.6250 H   0  0  0  0  0  0  0  0  0  0  0  0
   47.5695   30.4846   48.4107 H   0  0  0  0  0  0  0  0  0  0  0  0
   45.1716   36.4969   41.8952 H   0  0  0  0  0  0  0  0  0  0  0  0
   44.0572   37.3002   43.0334 H   0  0  0  0  0  0  0  0  0  0  0  0
  1  6  2  0
  2  1  1  0
  3  2  2  0
  3  4  1  0
  4  5  2  0
  5  6  1  0
  5  7  1  0
  7 11  1  0
  7  8  2  0
  8  9  1  0
 10  9  1  0
 11 10  2  0
 12  2  1  0
  1 13  1  0
  3 14  1  0
 10 15  1  0
 12 16  1  0
 12 17  1  0
M  ISO  3  13  14  14  14  15  14
M  END
>  <minimizedAffinity>  (1) 
-4.21721649

>  <minimizedRMSD>  (1) 
0.773524284

$$$$
