
     RDKit          3D

 18 18  0  0  0  0  0  0  0  0999 V2000
   44.4980   35.6490   45.0550 C   0  0  0  0  0  0  0  0  0  0  0  0
   45.0990   35.6730   43.7840 C   0  0  0  0  0  0  0  0  0  0  0  0
   46.0460   34.7090   43.4670 C   0  0  0  0  0  0  0  0  0  0  0  0
   46.3510   33.7700   44.4210 N   0  0  0  0  0  0  0  0  0  0  0  0
   45.7560   33.7780   45.6260 C   0  0  0  0  0  0  0  0  0  0  0  0
   44.8400   34.6980   45.9530 N   0  0  0  0  0  0  0  0  0  0  0  0
   44.7100   36.6750   42.8930 N   0  0  0  0  0  0  0  0  0  0  0  0
   46.2140   32.6870   46.5250 C   0  0  0  0  0  0  0  0  0  0  0  0
   45.3540   32.6280   47.7640 C   0  0  0  0  0  0  0  0  0  0  0  0
   43.7464   36.4072   45.3198 H   0  0  0  0  0  0  0  0  0  0  0  0
   46.5366   34.6977   42.4825 H   0  0  0  0  0  0  0  0  0  0  0  0
   45.1308   36.7210   41.9540 H   0  0  0  0  0  0  0  0  0  0  0  0
   44.0022   37.3683   43.1747 H   0  0  0  0  0  0  0  0  0  0  0  0
   46.1478   31.7269   45.9922 H   0  0  0  0  0  0  0  0  0  0  0  0
   47.2544   32.8841   46.8227 H   0  0  0  0  0  0  0  0  0  0  0  0
   45.9944   32.6719   48.6573 H   0  0  0  0  0  0  0  0  0  0  0  0
   44.6589   33.4806   47.7688 H   0  0  0  0  0  0  0  0  0  0  0  0
   44.7819   31.6885   47.7688 H   0  0  0  0  0  0  0  0  0  0  0  0
  1  6  2  0
  2  1  1  0
  3  2  2  0
  3  4  1  0
  4  5  2  0
  5  6  1  0
  5  8  1  0
  7  2  1  0
  8  9  1  0
  1 10  1  0
  3 11  1  0
  7 12  1  0
  7 13  1  0
  8 14  1  0
  8 15  1  0
  9 16  1  0
  9 17  1  0
  9 18  1  0
M  ISO  7  10  14  11  14  14   8  15   8  16   8  17   8  18   8
M  END
>  <minimizedAffinity>  (1) 
-3.6058979

>  <minimizedRMSD>  (1) 
0.38028416

$$$$
