
     RDKit          3D

 29 31  0  0  0  0  0  0  0  0999 V2000
   47.3320   34.8580   41.8950 C   0  0  0  0  0  0  0  0  0  0  0  0
   48.5580   35.5060   41.6790 C   0  0  0  0  0  0  0  0  0  0  0  0
   48.9520   35.3140   40.4090 N   0  0  0  0  0  0  0  0  0  0  0  0
   48.0460   34.5610   39.7570 C   0  0  0  0  0  0  0  0  0  0  0  0
   47.9430   34.0710   38.4780 C   0  0  0  0  0  0  0  0  0  0  0  0
   46.8660   33.3030   38.1190 C   0  0  0  0  0  0  0  0  0  0  0  0
   45.8790   32.9950   38.9860 C   0  0  0  0  0  0  0  0  0  0  0  0
   45.9830   33.4870   40.2680 C   0  0  0  0  0  0  0  0  0  0  0  0
   47.0460   34.2680   40.6610 C   0  0  0  0  0  0  0  0  0  0  0  0
   44.7910   35.9850   44.2340 C   0  0  0  0  0  0  0  0  0  0  0  0
   44.9480   35.0160   45.3010 C   0  0  0  0  0  0  0  0  0  0  0  0
   45.9140   33.9810   45.1820 C   0  0  0  0  0  0  0  0  0  0  0  0
   46.6620   33.9450   44.0450 N   0  0  0  0  0  0  0  0  0  0  0  0
   46.4830   34.8790   43.0570 C   0  0  0  0  0  0  0  0  0  0  0  0
   45.6010   35.8310   43.1580 N   0  0  0  0  0  0  0  0  0  0  0  0
   44.1310   35.1330   46.4090 N   0  0  0  0  0  0  0  0  0  0  0  0
   44.7980   33.0150   41.0280 C   0  0  0  0  0  0  0  0  0  0  0  0
   43.9720   32.2220   40.1360 F   0  0  0  0  0  0  0  0  0  0  0  0
   44.9490   32.0830   41.9730 F   0  0  0  0  0  0  0  0  0  0  0  0
   43.8100   33.9950   41.1810 F   0  0  0  0  0  0  0  0  0  0  0  0
   49.1118   36.0830   42.4342 H   0  0  0  0  0  0  0  0  0  0  0  0
   49.8184   35.6873   39.9956 H   0  0  0  0  0  0  0  0  0  0  0  0
   48.7270   34.2955   37.7398 H   0  0  0  0  0  0  0  0  0  0  0  0
   46.8041   32.9245   37.0880 H   0  0  0  0  0  0  0  0  0  0  0  0
   45.0237   32.3744   38.6803 H   0  0  0  0  0  0  0  0  0  0  0  0
   44.0551   36.8003   44.2943 H   0  0  0  0  0  0  0  0  0  0  0  0
   46.0525   33.2360   45.9794 H   0  0  0  0  0  0  0  0  0  0  0  0
   44.2164   34.4612   47.1851 H   0  0  0  0  0  0  0  0  0  0  0  0
   43.4365   35.8920   46.4589 H   0  0  0  0  0  0  0  0  0  0  0  0
  1 14  1  0
  2  1  2  0
  3  2  1  0
  4  3  1  0
  4  9  2  0
  5  4  1  0
  6  5  2  0
  6  7  1  0
  7  8  2  0
  8  9  1  0
  8 17  1  0
  9  1  1  0
 10 11  2  0
 11 16  1  0
 12 11  1  0
 13 12  2  0
 14 15  2  0
 14 13  1  0
 15 10  1  0
 17 20  1  0
 17 19  1  0
 18 17  1  0
  2 21  1  0
  3 22  1  0
  5 23  1  0
  6 24  1  0
  7 25  1  0
 10 26  1  0
 12 27  1  0
 16 28  1  0
 16 29  1  0
M  ISO  7  21  14  22   9  23  14  24  14  25  14  26  14  27  14
M  END
>  <minimizedAffinity>  (1) 
-6.46082258

>  <minimizedRMSD>  (1) 
6.52747965

$$$$
