
     RDKit          3D

 49 53  0  0  1  0  0  0  0  0999 V2000
   46.7910   33.8510   43.7350 C   0  0  0  0  0  0  0  0  0  0  0  0
   45.9140   34.6540   43.9440 O   0  0  0  0  0  0  0  0  0  0  0  0
   49.0440   33.7140   42.7060 C   0  0  2  0  0  0  0  0  0  0  0  0
   47.6560   33.9560   42.5330 C   0  0  2  0  0  0  0  0  0  0  0  0
   47.5910   35.4050   41.9830 C   0  0  0  0  0  0  0  0  0  0  0  0
   48.9600   35.8350   41.5760 C   0  0  0  0  0  0  0  0  0  0  0  0
   49.7800   35.0960   42.5390 C   0  0  0  0  0  0  0  0  0  0  0  0
   49.7600   32.8550   41.7670 C   0  0  0  0  0  0  0  0  0  0  0  0
   49.0260   32.3110   40.7340 C   0  0  0  0  0  0  0  0  0  0  0  0
   49.5800   31.4610   39.7880 C   0  0  0  0  0  0  0  0  0  0  0  0
   50.9370   31.2140   39.9730 N   0  0  0  0  0  0  0  0  0  0  0  0
   51.6450   31.7410   40.9650 C   0  0  0  0  0  0  0  0  0  0  0  0
   51.0430   32.5440   41.8340 N   0  0  0  0  0  0  0  0  0  0  0  0
   46.8500   32.8540   44.7680 C   0  0  0  0  0  0  0  0  0  0  0  0
   46.8680   33.2170   46.1170 C   0  0  0  0  0  0  0  0  0  0  0  0
   46.9490   32.3060   47.1740 C   0  0  0  0  0  0  0  0  0  0  0  0
   47.0190   30.9500   46.8810 C   0  0  0  0  0  0  0  0  0  0  0  0
   47.0020   30.5620   45.5370 C   0  0  0  0  0  0  0  0  0  0  0  0
   46.9150   31.5190   44.5380 C   0  0  0  0  0  0  0  0  0  0  0  0
   46.7870   30.6900   43.4010 N   0  0  0  0  0  0  0  0  0  0  0  0
   47.6140   29.8450   42.7640 C   0  0  0  0  0  0  0  0  0  0  0  0
   46.9930   29.1860   41.7630 N   0  0  0  0  0  0  0  0  0  0  0  0
   45.7250   29.6240   41.7580 C   0  0  0  0  0  0  0  0  0  0  0  0
   44.6150   29.3410   40.9910 C   0  0  0  0  0  0  0  0  0  0  0  0
   44.6620   28.5060   40.0540 O   0  0  0  0  0  0  0  0  0  0  0  0
   43.4200   29.9270   41.1810 N   0  0  0  0  0  0  0  0  0  0  0  0
   43.3110   30.8330   42.1730 C   0  0  0  0  0  0  0  0  0  0  0  0
   42.1660   31.5780   42.5660 N   0  0  0  0  0  0  0  0  0  0  0  0
   44.3760   31.1310   42.9390 N   0  0  0  0  0  0  0  0  0  0  0  0
   45.5820   30.5550   42.7640 C   0  0  0  0  0  0  0  0  0  0  0  0
   49.0664   33.2005   43.6785 H   0  0  0  0  0  0  0  0  0  0  0  0
   47.2547   33.1689   41.8776 H   0  0  0  0  0  0  0  0  0  0  0  0
   46.9203   35.4385   41.1118 H   0  0  0  0  0  0  0  0  0  0  0  0
   47.2071   36.0800   42.7621 H   0  0  0  0  0  0  0  0  0  0  0  0
   49.1860   35.5387   40.5410 H   0  0  0  0  0  0  0  0  0  0  0  0
   49.1165   36.9238   41.5869 H   0  0  0  0  0  0  0  0  0  0  0  0
   50.7986   34.9495   42.1505 H   0  0  0  0  0  0  0  0  0  0  0  0
   49.8868   35.6308   43.4943 H   0  0  0  0  0  0  0  0  0  0  0  0
   47.9576   32.5613   40.6570 H   0  0  0  0  0  0  0  0  0  0  0  0
   48.9982   31.0212   38.9646 H   0  0  0  0  0  0  0  0  0  0  0  0
   52.7168   31.5151   41.0655 H   0  0  0  0  0  0  0  0  0  0  0  0
   46.8151   34.2878   46.3629 H   0  0  0  0  0  0  0  0  0  0  0  0
   46.9571   32.6558   48.2169 H   0  0  0  0  0  0  0  0  0  0  0  0
   47.0860   30.2014   47.6842 H   0  0  0  0  0  0  0  0  0  0  0  0
   47.0578   29.4957   45.2726 H   0  0  0  0  0  0  0  0  0  0  0  0
   48.6730   29.7063   43.0271 H   0  0  0  0  0  0  0  0  0  0  0  0
   42.6125   29.6909   40.5867 H   0  0  0  0  0  0  0  0  0  0  0  0
   42.2283   32.2425   43.3505 H   0  0  0  0  0  0  0  0  0  0  0  0
   41.2740   31.4534   42.0662 H   0  0  0  0  0  0  0  0  0  0  0  0
  1  2  2  0
  1 14  1  0
  4  3  1  0
  4  1  1  0
  5  4  1  0
  6  5  1  0
  6  7  1  0
  7  3  1  0
  8 13  1  0
  8  3  1  0
  9  8  2  0
 10 11  2  0
 10  9  1  0
 11 12  1  0
 12 13  2  0
 14 15  2  0
 15 16  1  0
 17 16  2  0
 18 17  1  0
 19 14  1  0
 19 18  2  0
 20 19  1  0
 21 20  1  0
 22 21  2  0
 23 22  1  0
 23 30  2  0
 24 26  1  0
 24 23  1  0
 25 24  2  0
 26 27  1  0
 27 28  1  0
 27 29  2  0
 30 29  1  0
 30 20  1  0
  3 31  1  1
  4 32  1  6
  5 33  1  0
  5 34  1  0
  6 35  1  0
  6 36  1  0
  7 37  1  0
  7 38  1  0
  9 39  1  0
 10 40  1  0
 12 41  1  0
 15 42  1  0
 16 43  1  0
 17 44  1  0
 18 45  1  0
 21 46  1  0
 26 47  1  0
 28 48  1  0
 28 49  1  0
M  ISO  8  31  13  32  13  33  13  34  13  35  13  36  13  37  13  38  13
M  ISO  8  39  14  40  14  41  14  42  14  43  14  44  14  45  14  46  14
M  ISO  1  47   9
M  END
>  <minimizedAffinity>  (1) 
-5.95037699

>  <minimizedRMSD>  (1) 
1.45577943

$$$$
