
     RDKit          3D

 27 29  0  0  0  0  0  0  0  0999 V2000
   46.4210   32.4260   45.4350 C   0  0  0  0  0  0  0  0  0  0  0  0
   47.1620   31.3610   44.8990 C   0  0  0  0  0  0  0  0  0  0  0  0
   47.3000   30.3960   45.8320 N   0  0  0  0  0  0  0  0  0  0  0  0
   46.6820   30.7690   46.9740 C   0  0  0  0  0  0  0  0  0  0  0  0
   46.5160   30.1730   48.2120 C   0  0  0  0  0  0  0  0  0  0  0  0
   45.8190   30.8080   49.2070 C   0  0  0  0  0  0  0  0  0  0  0  0
   45.2700   32.0490   49.0010 C   0  0  0  0  0  0  0  0  0  0  0  0
   45.4590   32.6120   47.7460 C   0  0  0  0  0  0  0  0  0  0  0  0
   46.1490   32.0120   46.7200 C   0  0  0  0  0  0  0  0  0  0  0  0
   44.6230   35.5440   44.8270 C   0  0  0  0  0  0  0  0  0  0  0  0
   45.2240   35.9780   43.6080 C   0  0  0  0  0  0  0  0  0  0  0  0
   46.2330   35.2070   43.0110 C   0  0  0  0  0  0  0  0  0  0  0  0
   46.6000   34.0580   43.6370 N   0  0  0  0  0  0  0  0  0  0  0  0
   46.0160   33.6610   44.7990 C   0  0  0  0  0  0  0  0  0  0  0  0
   45.0610   34.3850   45.3670 N   0  0  0  0  0  0  0  0  0  0  0  0
   44.7920   37.1690   43.0280 N   0  0  0  0  0  0  0  0  0  0  0  0
   44.8480   33.8540   47.7110 O   0  0  0  0  0  0  0  0  0  0  0  0
   47.5672   31.3196   43.8772 H   0  0  0  0  0  0  0  0  0  0  0  0
   47.8019   29.5072   45.6940 H   0  0  0  0  0  0  0  0  0  0  0  0
   46.9481   29.1789   48.3996 H   0  0  0  0  0  0  0  0  0  0  0  0
   45.6981   30.3164   50.1836 H   0  0  0  0  0  0  0  0  0  0  0  0
   44.7088   32.5710   49.7901 H   0  0  0  0  0  0  0  0  0  0  0  0
   43.8299   36.1328   45.3110 H   0  0  0  0  0  0  0  0  0  0  0  0
   46.7095   35.5212   42.0707 H   0  0  0  0  0  0  0  0  0  0  0  0
   45.2154   37.4966   42.1481 H   0  0  0  0  0  0  0  0  0  0  0  0
   44.0492   37.7218   43.4792 H   0  0  0  0  0  0  0  0  0  0  0  0
   44.8837   34.4002   46.8861 H   0  0  0  0  0  0  0  0  0  0  0  0
  1  9  1  0
  2  1  2  0
  2  3  1  0
  3  4  1  0
  4  5  2  0
  5  6  1  0
  7  6  2  0
  8  7  1  0
  9  4  1  0
  9  8  2  0
 10 15  2  0
 11 10  1  0
 12 11  2  0
 12 13  1  0
 13 14  2  0
 14 15  1  0
 14  1  1  0
 16 11  1  0
 17  8  1  0
  2 18  1  0
  3 19  1  0
  5 20  1  0
  6 21  1  0
  7 22  1  0
 10 23  1  0
 12 24  1  0
 16 25  1  0
 16 26  1  0
 17 27  1  0
M  ISO  8  18  14  19   9  20  14  21  14  22  14  23  14  24  14  27   3
M  END
>  <minimizedAffinity>  (1) 
-6.09607697

>  <minimizedRMSD>  (1) 
0.0656558201

$$$$
