
     RDKit          3D

 46 51  0  0  0  0  0  0  0  0999 V2000
   45.4550   33.6720   45.3570 C   0  0  0  0  0  0  0  0  0  0  0  0
   44.8290   34.6240   46.1910 C   0  0  0  0  0  0  0  0  0  0  0  0
   44.6400   34.0930   47.4070 N   0  0  0  0  0  0  0  0  0  0  0  0
   45.1100   32.8280   47.4320 C   0  0  0  0  0  0  0  0  0  0  0  0
   45.1650   31.8760   48.4210 C   0  0  0  0  0  0  0  0  0  0  0  0
   45.7340   30.6300   48.1490 C   0  0  0  0  0  0  0  0  0  0  0  0
   46.2450   30.3490   46.8730 C   0  0  0  0  0  0  0  0  0  0  0  0
   46.1560   31.3490   45.9290 C   0  0  0  0  0  0  0  0  0  0  0  0
   45.6100   32.5680   46.1710 C   0  0  0  0  0  0  0  0  0  0  0  0
   46.7070   30.7600   44.7590 N   0  0  0  0  0  0  0  0  0  0  0  0
   48.0570   30.7930   44.5990 C   0  0  0  0  0  0  0  0  0  0  0  0
   48.3000   30.1460   43.3700 C   0  0  0  0  0  0  0  0  0  0  0  0
   47.1290   29.7500   42.8330 N   0  0  0  0  0  0  0  0  0  0  0  0
   46.1520   30.1100   43.6550 C   0  0  0  0  0  0  0  0  0  0  0  0
   44.7370   29.9420   43.5800 N   0  0  0  0  0  0  0  0  0  0  0  0
   43.8620   30.5730   42.7890 C   0  0  0  0  0  0  0  0  0  0  0  0
   42.5970   30.1280   43.0200 N   0  0  0  0  0  0  0  0  0  0  0  0
   42.6780   29.1830   43.9920 C   0  0  0  0  0  0  0  0  0  0  0  0
   41.8120   28.3770   44.6580 C   0  0  0  0  0  0  0  0  0  0  0  0
   42.2340   27.5160   45.6040 N   0  0  0  0  0  0  0  0  0  0  0  0
   43.5360   27.4080   45.9390 C   0  0  0  0  0  0  0  0  0  0  0  0
   44.3950   28.2040   45.2800 N   0  0  0  0  0  0  0  0  0  0  0  0
   44.0040   29.0790   44.3270 C   0  0  0  0  0  0  0  0  0  0  0  0
   40.4240   28.4380   44.3560 N   0  0  0  0  0  0  0  0  0  0  0  0
   47.6540   34.2270   42.5080 C   0  0  0  0  0  0  0  0  0  0  0  0
   46.7260   34.1980   41.4290 C   0  0  0  0  0  0  0  0  0  0  0  0
   45.3550   33.9850   41.6680 C   0  0  0  0  0  0  0  0  0  0  0  0
   44.9600   33.8080   42.9650 N   0  0  0  0  0  0  0  0  0  0  0  0
   45.8540   33.8390   43.9790 C   0  0  0  0  0  0  0  0  0  0  0  0
   47.1490   34.0400   43.7460 N   0  0  0  0  0  0  0  0  0  0  0  0
   47.2000   34.3890   40.1230 N   0  0  0  0  0  0  0  0  0  0  0  0
   44.5414   35.6421   45.8898 H   0  0  0  0  0  0  0  0  0  0  0  0
   44.2017   34.5777   48.2032 H   0  0  0  0  0  0  0  0  0  0  0  0
   44.7631   32.0940   49.4215 H   0  0  0  0  0  0  0  0  0  0  0  0
   45.7817   29.8656   48.9386 H   0  0  0  0  0  0  0  0  0  0  0  0
   46.6965   29.3742   46.6367 H   0  0  0  0  0  0  0  0  0  0  0  0
   48.8001   31.2306   45.2819 H   0  0  0  0  0  0  0  0  0  0  0  0
   49.2912   29.9889   42.9195 H   0  0  0  0  0  0  0  0  0  0  0  0
   44.1285   31.3456   42.0528 H   0  0  0  0  0  0  0  0  0  0  0  0
   43.8774   26.7041   46.7123 H   0  0  0  0  0  0  0  0  0  0  0  0
   39.7607   27.8297   44.8570 H   0  0  0  0  0  0  0  0  0  0  0  0
   40.0817   29.0905   43.6363 H   0  0  0  0  0  0  0  0  0  0  0  0
   48.7285   34.3934   42.3415 H   0  0  0  0  0  0  0  0  0  0  0  0
   44.6287   33.9618   40.8422 H   0  0  0  0  0  0  0  0  0  0  0  0
   48.2047   34.5442   39.9573 H   0  0  0  0  0  0  0  0  0  0  0  0
   46.5435   34.3741   39.3295 H   0  0  0  0  0  0  0  0  0  0  0  0
  1  9  1  0
  1  2  2  0
  2  3  1  0
  3  4  1  0
  4  5  2  0
  6  5  1  0
  7  6  2  0
  8  9  2  0
  8  7  1  0
  9  4  1  0
 10  8  1  0
 11 10  1  0
 12 11  2  0
 13 12  1  0
 13 14  2  0
 14 10  1  0
 15 14  1  0
 15 23  1  0
 16 17  2  0
 16 15  1  0
 17 18  1  0
 18 23  2  0
 18 19  1  0
 19 20  2  0
 20 21  1  0
 22 21  2  0
 23 22  1  0
 24 19  1  0
 25 30  2  0
 26 27  2  0
 26 25  1  0
 27 28  1  0
 28 29  2  0
 29  1  1  0
 30 29  1  0
 31 26  1  0
  2 32  1  0
  3 33  1  0
  5 34  1  0
  6 35  1  0
  7 36  1  0
 11 37  1  0
 12 38  1  0
 16 39  1  0
 21 40  1  0
 24 41  1  0
 24 42  1  0
 25 43  1  0
 27 44  1  0
 31 45  1  0
 31 46  1  0
M  ISO  8  32  14  33   9  34  14  35  14  36  14  37  14  38  14  39  14
M  ISO  3  40  14  43  14  44  14
M  END
>  <minimizedAffinity>  (1) 
-6.36573267

>  <minimizedRMSD>  (1) 
2.02837658

$$$$
