
     RDKit          3D

 47 52  0  0  0  0  0  0  0  0999 V2000
   45.5450   33.7250   45.2710 C   0  0  0  0  0  0  0  0  0  0  0  0
   44.8850   34.6900   46.0600 C   0  0  0  0  0  0  0  0  0  0  0  0
   44.6050   34.1630   47.2610 N   0  0  0  0  0  0  0  0  0  0  0  0
   45.0470   32.8830   47.3190 C   0  0  0  0  0  0  0  0  0  0  0  0
   45.0130   31.9350   48.3070 C   0  0  0  0  0  0  0  0  0  0  0  0
   45.5680   30.6800   48.0750 C   0  0  0  0  0  0  0  0  0  0  0  0
   46.1560   30.3860   46.8390 C   0  0  0  0  0  0  0  0  0  0  0  0
   46.1590   31.3780   45.8860 C   0  0  0  0  0  0  0  0  0  0  0  0
   45.6220   32.6170   46.0950 C   0  0  0  0  0  0  0  0  0  0  0  0
   47.9480   34.1450   42.5670 C   0  0  0  0  0  0  0  0  0  0  0  0
   47.0870   34.2080   41.4290 C   0  0  0  0  0  0  0  0  0  0  0  0
   45.6930   34.1000   41.5910 C   0  0  0  0  0  0  0  0  0  0  0  0
   45.2190   33.9380   42.8570 N   0  0  0  0  0  0  0  0  0  0  0  0
   46.0420   33.8800   43.9280 C   0  0  0  0  0  0  0  0  0  0  0  0
   47.3570   33.9810   43.7700 N   0  0  0  0  0  0  0  0  0  0  0  0
   47.6520   34.3770   40.1650 N   0  0  0  0  0  0  0  0  0  0  0  0
   46.7710   30.7790   44.7550 N   0  0  0  0  0  0  0  0  0  0  0  0
   48.1320   30.7640   44.7060 C   0  0  0  0  0  0  0  0  0  0  0  0
   48.4700   30.1350   43.4990 C   0  0  0  0  0  0  0  0  0  0  0  0
   47.3520   29.8000   42.8760 N   0  0  0  0  0  0  0  0  0  0  0  0
   46.2880   30.1690   43.5990 C   0  0  0  0  0  0  0  0  0  0  0  0
   44.8330   30.0910   43.5090 C   0  0  0  0  0  0  0  0  0  0  0  0
   44.0120   30.9290   42.8500 N   0  0  0  0  0  0  0  0  0  0  0  0
   42.7020   30.8510   42.7760 C   0  0  0  0  0  0  0  0  0  0  0  0
   42.0200   29.8750   43.3820 N   0  0  0  0  0  0  0  0  0  0  0  0
   42.7450   28.9750   44.0730 C   0  0  0  0  0  0  0  0  0  0  0  0
   42.0460   27.9670   44.6990 C   0  0  0  0  0  0  0  0  0  0  0  0
   42.6930   27.0080   45.4240 C   0  0  0  0  0  0  0  0  0  0  0  0
   44.0890   27.0810   45.5100 C   0  0  0  0  0  0  0  0  0  0  0  0
   44.7220   28.1170   44.8590 C   0  0  0  0  0  0  0  0  0  0  0  0
   44.1200   29.0880   44.1300 C   0  0  0  0  0  0  0  0  0  0  0  0
   44.6388   35.7134   45.7406 H   0  0  0  0  0  0  0  0  0  0  0  0
   44.1250   34.6578   48.0263 H   0  0  0  0  0  0  0  0  0  0  0  0
   44.5498   32.1642   49.2780 H   0  0  0  0  0  0  0  0  0  0  0  0
   45.5446   29.9160   48.8660 H   0  0  0  0  0  0  0  0  0  0  0  0
   46.5987   29.3994   46.6376 H   0  0  0  0  0  0  0  0  0  0  0  0
   49.0405   34.2262   42.4681 H   0  0  0  0  0  0  0  0  0  0  0  0
   45.0126   34.1448   40.7278 H   0  0  0  0  0  0  0  0  0  0  0  0
   48.6741   34.4543   40.0639 H   0  0  0  0  0  0  0  0  0  0  0  0
   47.0471   34.4245   39.3327 H   0  0  0  0  0  0  0  0  0  0  0  0
   48.8255   31.1641   45.4603 H   0  0  0  0  0  0  0  0  0  0  0  0
   49.4908   29.9514   43.1327 H   0  0  0  0  0  0  0  0  0  0  0  0
   42.1524   31.6097   42.1996 H   0  0  0  0  0  0  0  0  0  0  0  0
   40.9498   27.9340   44.6136 H   0  0  0  0  0  0  0  0  0  0  0  0
   42.1352   26.2031   45.9250 H   0  0  0  0  0  0  0  0  0  0  0  0
   44.6620   26.3345   46.0795 H   0  0  0  0  0  0  0  0  0  0  0  0
   45.8183   28.1601   44.9383 H   0  0  0  0  0  0  0  0  0  0  0  0
  1  2  2  0
  1  9  1  0
  2  3  1  0
  3  4  1  0
  4  5  2  0
  6  5  1  0
  7  6  2  0
  8  9  2  0
  8  7  1  0
  9  4  1  0
 10 15  2  0
 11 12  2  0
 11 10  1  0
 12 13  1  0
 13 14  2  0
 14  1  1  0
 15 14  1  0
 16 11  1  0
 17  8  1  0
 18 17  1  0
 19 18  2  0
 20 19  1  0
 20 21  2  0
 21 17  1  0
 22 21  1  0
 22 31  1  0
 23 22  2  0
 24 23  1  0
 24 25  2  0
 25 26  1  0
 26 31  2  0
 26 27  1  0
 27 28  2  0
 28 29  1  0
 30 29  2  0
 31 30  1  0
  2 32  1  0
  3 33  1  0
  5 34  1  0
  6 35  1  0
  7 36  1  0
 10 37  1  0
 12 38  1  0
 16 39  1  0
 16 40  1  0
 18 41  1  0
 19 42  1  0
 24 43  1  0
 27 44  1  0
 28 45  1  0
 29 46  1  0
 30 47  1  0
M  ISO  8  32  14  33   9  34  14  35  14  36  14  37  14  38  14  41  14
M  ISO  6  42  14  43  14  44  14  45  14  46  14  47  14
M  END
>  <minimizedAffinity>  (1) 
-5.72438049

>  <minimizedRMSD>  (1) 
1.81913972

$$$$
