
     RDKit          3D

 41 45  0  0  0  0  0  0  0  0999 V2000
   45.4270   34.4920   44.3150 C   0  0  0  0  0  0  0  0  0  0  0  0
   44.7750   35.5930   44.9210 C   0  0  0  0  0  0  0  0  0  0  0  0
   44.5220   35.3000   46.2090 N   0  0  0  0  0  0  0  0  0  0  0  0
   44.9720   34.0580   46.4970 C   0  0  0  0  0  0  0  0  0  0  0  0
   44.9720   33.3120   47.6460 C   0  0  0  0  0  0  0  0  0  0  0  0
   45.5350   32.0360   47.6350 C   0  0  0  0  0  0  0  0  0  0  0  0
   46.0940   31.5130   46.4760 C   0  0  0  0  0  0  0  0  0  0  0  0
   46.0640   32.3160   45.3500 C   0  0  0  0  0  0  0  0  0  0  0  0
   45.5250   33.5650   45.3260 C   0  0  0  0  0  0  0  0  0  0  0  0
   47.7810   34.6870   41.5430 C   0  0  0  0  0  0  0  0  0  0  0  0
   46.9580   34.3000   40.4470 C   0  0  0  0  0  0  0  0  0  0  0  0
   45.5930   33.9630   40.6570 C   0  0  0  0  0  0  0  0  0  0  0  0
   45.1200   34.0290   41.9380 N   0  0  0  0  0  0  0  0  0  0  0  0
   45.9160   34.3980   42.9590 C   0  0  0  0  0  0  0  0  0  0  0  0
   47.1970   34.7130   42.7600 N   0  0  0  0  0  0  0  0  0  0  0  0
   47.5010   34.2530   39.1570 N   0  0  0  0  0  0  0  0  0  0  0  0
   46.6740   31.5180   44.3470 N   0  0  0  0  0  0  0  0  0  0  0  0
   48.0220   31.6480   44.1710 C   0  0  0  0  0  0  0  0  0  0  0  0
   48.3520   30.7610   43.1240 C   0  0  0  0  0  0  0  0  0  0  0  0
   47.2320   30.1350   42.7070 N   0  0  0  0  0  0  0  0  0  0  0  0
   46.2180   30.5820   43.4350 C   0  0  0  0  0  0  0  0  0  0  0  0
   44.8000   30.2420   43.4130 C   0  0  0  0  0  0  0  0  0  0  0  0
   43.9510   30.9520   42.5860 C   0  0  0  0  0  0  0  0  0  0  0  0
   42.5940   30.7050   42.4950 C   0  0  0  0  0  0  0  0  0  0  0  0
   42.0550   29.7110   43.2560 N   0  0  0  0  0  0  0  0  0  0  0  0
   42.8900   29.0190   44.0640 C   0  0  0  0  0  0  0  0  0  0  0  0
   44.2040   29.2730   44.1400 N   0  0  0  0  0  0  0  0  0  0  0  0
   44.5167   36.5370   44.4188 H   0  0  0  0  0  0  0  0  0  0  0  0
   44.0544   35.9289   46.8774 H   0  0  0  0  0  0  0  0  0  0  0  0
   44.5317   33.7160   48.5695 H   0  0  0  0  0  0  0  0  0  0  0  0
   45.5364   31.4357   48.5567 H   0  0  0  0  0  0  0  0  0  0  0  0
   46.5396   30.5075   46.4545 H   0  0  0  0  0  0  0  0  0  0  0  0
   48.8397   34.9515   41.4049 H   0  0  0  0  0  0  0  0  0  0  0  0
   44.9434   33.6612   39.8222 H   0  0  0  0  0  0  0  0  0  0  0  0
   48.4901   34.4973   39.0053 H   0  0  0  0  0  0  0  0  0  0  0  0
   46.9113   33.9742   38.3599 H   0  0  0  0  0  0  0  0  0  0  0  0
   48.7061   32.3053   44.7277 H   0  0  0  0  0  0  0  0  0  0  0  0
   49.3607   30.6051   42.7137 H   0  0  0  0  0  0  0  0  0  0  0  0
   44.3772   31.7558   41.9677 H   0  0  0  0  0  0  0  0  0  0  0  0
   41.9606   31.2999   41.8206 H   0  0  0  0  0  0  0  0  0  0  0  0
   42.4729   28.2130   44.6856 H   0  0  0  0  0  0  0  0  0  0  0  0
  1  2  2  0
  1  9  1  0
  2  3  1  0
  3  4  1  0
  4  5  2  0
  6  5  1  0
  7  6  2  0
  8  7  1  0
  9  8  2  0
  9  4  1  0
 10 15  2  0
 11 12  2  0
 11 10  1  0
 12 13  1  0
 13 14  2  0
 14  1  1  0
 15 14  1  0
 16 11  1  0
 17  8  1  0
 18 17  1  0
 19 18  2  0
 20 19  1  0
 20 21  2  0
 21 17  1  0
 22 21  1  0
 22 27  1  0
 23 22  2  0
 24 23  1  0
 24 25  2  0
 25 26  1  0
 26 27  2  0
  2 28  1  0
  3 29  1  0
  5 30  1  0
  6 31  1  0
  7 32  1  0
 10 33  1  0
 12 34  1  0
 16 35  1  0
 16 36  1  0
 18 37  1  0
 19 38  1  0
 23 39  1  0
 24 40  1  0
 26 41  1  0
M  ISO  8  28  14  29   9  30  14  31  14  32  14  33  14  34  14  37  14
M  ISO  4  38  14  39  14  40  14  41  14
M  END
>  <minimizedAffinity>  (1) 
-5.66027641

>  <minimizedRMSD>  (1) 
1.94341481

$$$$
