
     RDKit          3D

 44 49  0  0  0  0  0  0  0  0999 V2000
   45.8140   33.8310   44.8750 C   0  0  0  0  0  0  0  0  0  0  0  0
   45.1530   34.8010   45.6640 C   0  0  0  0  0  0  0  0  0  0  0  0
   44.8220   34.2550   46.8450 N   0  0  0  0  0  0  0  0  0  0  0  0
   45.2280   32.9660   46.8900 C   0  0  0  0  0  0  0  0  0  0  0  0
   45.1410   31.9980   47.8500 C   0  0  0  0  0  0  0  0  0  0  0  0
   45.6680   30.7310   47.6090 C   0  0  0  0  0  0  0  0  0  0  0  0
   46.2810   30.4480   46.3910 C   0  0  0  0  0  0  0  0  0  0  0  0
   46.3410   31.4640   45.4550 C   0  0  0  0  0  0  0  0  0  0  0  0
   45.8360   32.7060   45.6750 C   0  0  0  0  0  0  0  0  0  0  0  0
   46.9850   30.8770   44.3380 N   0  0  0  0  0  0  0  0  0  0  0  0
   48.3420   30.7870   44.3590 C   0  0  0  0  0  0  0  0  0  0  0  0
   48.7070   30.1740   43.1450 C   0  0  0  0  0  0  0  0  0  0  0  0
   47.6000   29.9150   42.4430 N   0  0  0  0  0  0  0  0  0  0  0  0
   46.5370   30.3290   43.1400 C   0  0  0  0  0  0  0  0  0  0  0  0
   45.1840   30.2650   42.8010 N   0  0  0  0  0  0  0  0  0  0  0  0
   44.7300   30.9140   41.6820 C   0  0  0  0  0  0  0  0  0  0  0  0
   43.4120   30.7430   41.5080 N   0  0  0  0  0  0  0  0  0  0  0  0
   42.9630   29.9740   42.5160 C   0  0  0  0  0  0  0  0  0  0  0  0
   41.7420   29.4580   42.8910 C   0  0  0  0  0  0  0  0  0  0  0  0
   41.6720   28.7060   43.9950 N   0  0  0  0  0  0  0  0  0  0  0  0
   42.7760   28.4420   44.7500 C   0  0  0  0  0  0  0  0  0  0  0  0
   43.9520   28.9540   44.3650 N   0  0  0  0  0  0  0  0  0  0  0  0
   44.0910   29.7040   43.2870 C   0  0  0  0  0  0  0  0  0  0  0  0
   48.3520   34.2610   42.2970 C   0  0  0  0  0  0  0  0  0  0  0  0
   47.5480   34.3730   41.1260 C   0  0  0  0  0  0  0  0  0  0  0  0
   46.1430   34.2950   41.2220 C   0  0  0  0  0  0  0  0  0  0  0  0
   45.5860   34.1100   42.4610 N   0  0  0  0  0  0  0  0  0  0  0  0
   46.3730   34.0070   43.5530 C   0  0  0  0  0  0  0  0  0  0  0  0
   47.7030   34.0820   43.4660 N   0  0  0  0  0  0  0  0  0  0  0  0
   48.1600   34.5600   39.8850 N   0  0  0  0  0  0  0  0  0  0  0  0
   44.9436   35.8369   45.3589 H   0  0  0  0  0  0  0  0  0  0  0  0
   44.3307   34.7461   47.6055 H   0  0  0  0  0  0  0  0  0  0  0  0
   44.6555   32.2186   48.8121 H   0  0  0  0  0  0  0  0  0  0  0  0
   45.5997   29.9522   48.3828 H   0  0  0  0  0  0  0  0  0  0  0  0
   46.7017   29.4535   46.1814 H   0  0  0  0  0  0  0  0  0  0  0  0
   49.0162   31.1240   45.1602 H   0  0  0  0  0  0  0  0  0  0  0  0
   49.7349   29.9458   42.8267 H   0  0  0  0  0  0  0  0  0  0  0  0
   45.3697   31.5035   41.0087 H   0  0  0  0  0  0  0  0  0  0  0  0
   40.8410   29.6607   42.2934 H   0  0  0  0  0  0  0  0  0  0  0  0
   42.7024   27.8220   45.6556 H   0  0  0  0  0  0  0  0  0  0  0  0
   49.4495   34.3178   42.2500 H   0  0  0  0  0  0  0  0  0  0  0  0
   45.5106   34.3804   40.3260 H   0  0  0  0  0  0  0  0  0  0  0  0
   49.1864   34.6163   39.8202 H   0  0  0  0  0  0  0  0  0  0  0  0
   47.5850   34.6416   39.0343 H   0  0  0  0  0  0  0  0  0  0  0  0
  1  2  2  0
  1  9  1  0
  2  3  1  0
  3  4  1  0
  4  5  2  0
  6  5  1  0
  7  6  2  0
  8  9  2  0
  8  7  1  0
  9  4  1  0
 10 11  1  0
 10  8  1  0
 12 11  2  0
 13 14  2  0
 13 12  1  0
 14 10  1  0
 15 14  1  0
 15 23  1  0
 16 15  1  0
 17 16  2  0
 17 18  1  0
 18 19  2  0
 18 23  1  0
 19 20  1  0
 20 21  2  0
 22 21  1  0
 23 22  2  0
 24 29  2  0
 25 26  2  0
 25 24  1  0
 26 27  1  0
 27 28  2  0
 28  1  1  0
 29 28  1  0
 30 25  1  0
  2 31  1  0
  3 32  1  0
  5 33  1  0
  6 34  1  0
  7 35  1  0
 11 36  1  0
 12 37  1  0
 16 38  1  0
 19 39  1  0
 21 40  1  0
 24 41  1  0
 26 42  1  0
 30 43  1  0
 30 44  1  0
M  ISO  8  31  14  32   9  33  14  34  14  35  14  36  14  37  14  38  14
M  ISO  4  39  14  40  14  41  14  42  14
M  END
>  <minimizedAffinity>  (1) 
-5.60200739

>  <minimizedRMSD>  (1) 
1.22105241

$$$$
