
     RDKit          3D

 46 50  0  0  0  0  0  0  0  0999 V2000
   46.1410   33.6460   44.6650 C   0  0  0  0  0  0  0  0  0  0  0  0
   45.4560   34.5300   45.5280 C   0  0  0  0  0  0  0  0  0  0  0  0
   45.1410   33.8830   46.6600 N   0  0  0  0  0  0  0  0  0  0  0  0
   45.5790   32.6080   46.5980 C   0  0  0  0  0  0  0  0  0  0  0  0
   45.5170   31.5550   47.4850 C   0  0  0  0  0  0  0  0  0  0  0  0
   46.0790   30.3290   47.1390 C   0  0  0  0  0  0  0  0  0  0  0  0
   46.7030   30.1640   45.8970 C   0  0  0  0  0  0  0  0  0  0  0  0
   46.7370   31.2510   45.0470 C   0  0  0  0  0  0  0  0  0  0  0  0
   46.1880   32.4710   45.3740 C   0  0  0  0  0  0  0  0  0  0  0  0
   47.3900   30.7700   43.8950 N   0  0  0  0  0  0  0  0  0  0  0  0
   48.7530   30.7340   43.8920 C   0  0  0  0  0  0  0  0  0  0  0  0
   49.1130   30.2290   42.6260 C   0  0  0  0  0  0  0  0  0  0  0  0
   47.9990   29.9780   41.9180 N   0  0  0  0  0  0  0  0  0  0  0  0
   46.9540   30.2950   42.6630 C   0  0  0  0  0  0  0  0  0  0  0  0
   45.5790   30.1450   42.3460 N   0  0  0  0  0  0  0  0  0  0  0  0
   44.6630   30.9740   41.6470 C   0  0  0  0  0  0  0  0  0  0  0  0
   43.2900   31.0500   42.2520 C   0  0  0  0  0  0  0  0  0  0  0  0
   42.8630   29.9160   42.9070 O   0  0  0  0  0  0  0  0  0  0  0  0
   43.8400   29.3700   43.7370 C   0  0  0  0  0  0  0  0  0  0  0  0
   44.9340   28.9240   42.7890 C   0  0  0  0  0  0  0  0  0  0  0  0
   48.6110   34.4370   42.1080 C   0  0  0  0  0  0  0  0  0  0  0  0
   47.7970   34.5320   40.9430 C   0  0  0  0  0  0  0  0  0  0  0  0
   46.4140   34.3190   41.0340 C   0  0  0  0  0  0  0  0  0  0  0  0
   45.9040   34.0250   42.2630 N   0  0  0  0  0  0  0  0  0  0  0  0
   46.6790   33.9390   43.3620 C   0  0  0  0  0  0  0  0  0  0  0  0
   47.9900   34.1410   43.2690 N   0  0  0  0  0  0  0  0  0  0  0  0
   48.3850   34.8370   39.7170 N   0  0  0  0  0  0  0  0  0  0  0  0
   45.2188   35.5811   45.3070 H   0  0  0  0  0  0  0  0  0  0  0  0
   44.6392   34.2978   47.4582 H   0  0  0  0  0  0  0  0  0  0  0  0
   45.0261   31.6825   48.4611 H   0  0  0  0  0  0  0  0  0  0  0  0
   46.0324   29.4865   47.8447 H   0  0  0  0  0  0  0  0  0  0  0  0
   47.1507   29.2016   45.6084 H   0  0  0  0  0  0  0  0  0  0  0  0
   49.4290   31.0354   44.7057 H   0  0  0  0  0  0  0  0  0  0  0  0
   50.1423   30.0663   42.2738 H   0  0  0  0  0  0  0  0  0  0  0  0
   44.5640   30.5859   40.6225 H   0  0  0  0  0  0  0  0  0  0  0  0
   45.0753   31.9930   41.6886 H   0  0  0  0  0  0  0  0  0  0  0  0
   43.2841   31.8799   42.9740 H   0  0  0  0  0  0  0  0  0  0  0  0
   42.5976   31.1881   41.4085 H   0  0  0  0  0  0  0  0  0  0  0  0
   44.2191   30.1254   44.4410 H   0  0  0  0  0  0  0  0  0  0  0  0
   43.4541   28.5426   44.3506 H   0  0  0  0  0  0  0  0  0  0  0  0
   44.5048   28.3827   41.9330 H   0  0  0  0  0  0  0  0  0  0  0  0
   45.6438   28.2390   43.2758 H   0  0  0  0  0  0  0  0  0  0  0  0
   49.6983   34.5979   42.0633 H   0  0  0  0  0  0  0  0  0  0  0  0
   45.7660   34.3866   40.1477 H   0  0  0  0  0  0  0  0  0  0  0  0
   49.4015   34.9922   39.6578 H   0  0  0  0  0  0  0  0  0  0  0  0
   47.8031   34.9073   38.8700 H   0  0  0  0  0  0  0  0  0  0  0  0
  1  9  1  0
  1  2  2  0
  2  3  1  0
  4  3  1  0
  4  5  2  0
  6  5  1  0
  7  6  2  0
  8  9  2  0
  8  7  1  0
  9  4  1  0
 10  8  1  0
 11 10  1  0
 12 11  2  0
 13 12  1  0
 13 14  2  0
 14 10  1  0
 15 14  1  0
 15 20  1  0
 16 17  1  0
 16 15  1  0
 17 18  1  0
 18 19  1  0
 20 19  1  0
 21 26  2  0
 22 23  2  0
 22 21  1  0
 23 24  1  0
 24 25  2  0
 25  1  1  0
 26 25  1  0
 27 22  1  0
  2 28  1  0
  3 29  1  0
  5 30  1  0
  6 31  1  0
  7 32  1  0
 11 33  1  0
 12 34  1  0
 16 35  1  0
 16 36  1  0
 17 37  1  0
 17 38  1  0
 19 39  1  0
 19 40  1  0
 20 41  1  0
 20 42  1  0
 21 43  1  0
 23 44  1  0
 27 45  1  0
 27 46  1  0
M  ISO  8  28  14  29   9  30  14  31  14  32  14  33  14  34  14  35  13
M  ISO  8  36  13  37  13  38  13  39  13  40  13  41  13  42  13  43  14
M  ISO  1  44  14
M  END
>  <minimizedAffinity>  (1) 
-5.27113199

>  <minimizedRMSD>  (1) 
0.635772049

$$$$
