
     RDKit          3D

 45 49  0  0  0  0  0  0  0  0999 V2000
   46.3850   33.5830   44.5150 C   0  0  0  0  0  0  0  0  0  0  0  0
   45.6660   34.3960   45.4260 C   0  0  0  0  0  0  0  0  0  0  0  0
   45.3390   33.6650   46.5050 N   0  0  0  0  0  0  0  0  0  0  0  0
   45.8040   32.4010   46.3610 C   0  0  0  0  0  0  0  0  0  0  0  0
   45.7360   31.3060   47.1780 C   0  0  0  0  0  0  0  0  0  0  0  0
   46.3320   30.1050   46.7570 C   0  0  0  0  0  0  0  0  0  0  0  0
   46.9830   30.0380   45.5160 C   0  0  0  0  0  0  0  0  0  0  0  0
   47.0130   31.1780   44.7470 C   0  0  0  0  0  0  0  0  0  0  0  0
   46.4380   32.3650   45.1450 C   0  0  0  0  0  0  0  0  0  0  0  0
   47.6830   30.7950   43.5720 N   0  0  0  0  0  0  0  0  0  0  0  0
   49.0420   30.7790   43.5860 C   0  0  0  0  0  0  0  0  0  0  0  0
   49.4410   30.3650   42.2950 C   0  0  0  0  0  0  0  0  0  0  0  0
   48.3500   30.1470   41.5580 N   0  0  0  0  0  0  0  0  0  0  0  0
   47.2840   30.3960   42.3000 C   0  0  0  0  0  0  0  0  0  0  0  0
   45.9210   30.2790   41.9370 N   0  0  0  0  0  0  0  0  0  0  0  0
   45.0510   30.2290   40.7850 C   0  0  0  0  0  0  0  0  0  0  0  0
   44.2110   31.4840   41.0520 C   0  0  0  0  0  0  0  0  0  0  0  0
   43.9970   31.3110   42.5600 C   0  0  0  0  0  0  0  0  0  0  0  0
   44.8690   30.1290   42.9400 C   0  0  0  0  0  0  0  0  0  0  0  0
   48.9020   34.6730   42.1190 C   0  0  0  0  0  0  0  0  0  0  0  0
   48.1240   34.7720   40.9240 C   0  0  0  0  0  0  0  0  0  0  0  0
   46.7460   34.4580   40.9410 C   0  0  0  0  0  0  0  0  0  0  0  0
   46.1890   34.0620   42.1290 N   0  0  0  0  0  0  0  0  0  0  0  0
   46.9480   33.9790   43.2420 C   0  0  0  0  0  0  0  0  0  0  0  0
   48.2480   34.2730   43.2290 N   0  0  0  0  0  0  0  0  0  0  0  0
   48.7360   35.1770   39.7350 N   0  0  0  0  0  0  0  0  0  0  0  0
   45.4155   35.4563   45.2741 H   0  0  0  0  0  0  0  0  0  0  0  0
   44.8136   34.0136   47.3194 H   0  0  0  0  0  0  0  0  0  0  0  0
   45.2229   31.3646   48.1492 H   0  0  0  0  0  0  0  0  0  0  0  0
   46.2880   29.2151   47.4021 H   0  0  0  0  0  0  0  0  0  0  0  0
   47.4533   29.1058   45.1699 H   0  0  0  0  0  0  0  0  0  0  0  0
   49.6981   31.0361   44.4307 H   0  0  0  0  0  0  0  0  0  0  0  0
   50.4796   30.2426   41.9539 H   0  0  0  0  0  0  0  0  0  0  0  0
   44.4356   29.3173   40.7741 H   0  0  0  0  0  0  0  0  0  0  0  0
   45.5622   30.2046   39.8113 H   0  0  0  0  0  0  0  0  0  0  0  0
   44.7614   32.4068   40.8164 H   0  0  0  0  0  0  0  0  0  0  0  0
   43.2943   31.5771   40.4511 H   0  0  0  0  0  0  0  0  0  0  0  0
   44.3110   32.2149   43.1025 H   0  0  0  0  0  0  0  0  0  0  0  0
   42.9394   31.1465   42.8140 H   0  0  0  0  0  0  0  0  0  0  0  0
   44.3345   29.1733   42.8354 H   0  0  0  0  0  0  0  0  0  0  0  0
   45.2139   30.1159   43.9845 H   0  0  0  0  0  0  0  0  0  0  0  0
   49.9760   34.9102   42.1328 H   0  0  0  0  0  0  0  0  0  0  0  0
   46.1381   34.5294   40.0270 H   0  0  0  0  0  0  0  0  0  0  0  0
   49.7403   35.4054   39.7245 H   0  0  0  0  0  0  0  0  0  0  0  0
   48.1828   35.2471   38.8690 H   0  0  0  0  0  0  0  0  0  0  0  0
  1  9  1  0
  1  2  2  0
  2  3  1  0
  4  3  1  0
  4  5  2  0
  6  5  1  0
  7  6  2  0
  8  9  2  0
  8  7  1  0
  9  4  1  0
 10 11  1  0
 10  8  1  0
 12 11  2  0
 13 12  1  0
 13 14  2  0
 14 10  1  0
 15 14  1  0
 15 19  1  0
 16 17  1  0
 16 15  1  0
 17 18  1  0
 18 19  1  0
 20 25  2  0
 21 22  2  0
 21 20  1  0
 22 23  1  0
 23 24  2  0
 24  1  1  0
 25 24  1  0
 26 21  1  0
  2 27  1  0
  3 28  1  0
  5 29  1  0
  6 30  1  0
  7 31  1  0
 11 32  1  0
 12 33  1  0
 16 34  1  0
 16 35  1  0
 17 36  1  0
 17 37  1  0
 18 38  1  0
 18 39  1  0
 19 40  1  0
 19 41  1  0
 20 42  1  0
 22 43  1  0
 26 44  1  0
 26 45  1  0
M  ISO  8  27  14  28   9  29  14  30  14  31  14  32  14  33  14  34  13
M  ISO  8  35  13  36  13  37  13  38  13  39  13  40  13  41  13  42  14
M  ISO  1  43  14
M  END
>  <minimizedAffinity>  (1) 
-5.1873498

>  <minimizedRMSD>  (1) 
0.329990745

$$$$
