
     RDKit          3D

 40 44  0  0  0  0  0  0  0  0999 V2000
   46.3890   33.5710   44.5300 C   0  0  0  0  0  0  0  0  0  0  0  0
   45.6610   34.3800   45.4310 C   0  0  0  0  0  0  0  0  0  0  0  0
   45.3400   33.6600   46.5150 N   0  0  0  0  0  0  0  0  0  0  0  0
   45.8160   32.4040   46.3880 C   0  0  0  0  0  0  0  0  0  0  0  0
   45.7670   31.2990   47.2080 C   0  0  0  0  0  0  0  0  0  0  0  0
   46.3760   30.1090   46.8020 C   0  0  0  0  0  0  0  0  0  0  0  0
   47.0300   30.0380   45.5690 C   0  0  0  0  0  0  0  0  0  0  0  0
   47.0440   31.1750   44.7940 C   0  0  0  0  0  0  0  0  0  0  0  0
   46.4600   32.3510   45.1650 C   0  0  0  0  0  0  0  0  0  0  0  0
   47.7290   30.7820   43.6140 N   0  0  0  0  0  0  0  0  0  0  0  0
   49.0760   30.6340   43.6760 C   0  0  0  0  0  0  0  0  0  0  0  0
   49.4770   30.2470   42.3820 C   0  0  0  0  0  0  0  0  0  0  0  0
   48.3870   30.1730   41.5920 N   0  0  0  0  0  0  0  0  0  0  0  0
   47.3220   30.4910   42.3140 C   0  0  0  0  0  0  0  0  0  0  0  0
   45.9410   30.5690   41.9750 N   0  0  0  0  0  0  0  0  0  0  0  0
   44.8780   30.6660   42.8250 C   0  0  0  0  0  0  0  0  0  0  0  0
   43.6880   30.7220   42.1320 C   0  0  0  0  0  0  0  0  0  0  0  0
   44.0290   30.6580   40.8370 N   0  0  0  0  0  0  0  0  0  0  0  0
   45.3660   30.5680   40.7600 C   0  0  0  0  0  0  0  0  0  0  0  0
   48.8760   34.6610   42.1070 C   0  0  0  0  0  0  0  0  0  0  0  0
   48.1010   34.7330   40.9140 C   0  0  0  0  0  0  0  0  0  0  0  0
   46.7370   34.4040   40.9400 C   0  0  0  0  0  0  0  0  0  0  0  0
   46.1930   34.0180   42.1350 N   0  0  0  0  0  0  0  0  0  0  0  0
   46.9430   33.9550   43.2590 C   0  0  0  0  0  0  0  0  0  0  0  0
   48.2380   34.2680   43.2310 N   0  0  0  0  0  0  0  0  0  0  0  0
   48.7190   35.1340   39.7310 N   0  0  0  0  0  0  0  0  0  0  0  0
   45.3986   35.4358   45.2683 H   0  0  0  0  0  0  0  0  0  0  0  0
   44.8092   34.0129   47.3241 H   0  0  0  0  0  0  0  0  0  0  0  0
   45.2509   31.3529   48.1779 H   0  0  0  0  0  0  0  0  0  0  0  0
   46.3406   29.2247   47.4552 H   0  0  0  0  0  0  0  0  0  0  0  0
   47.5144   29.1099   45.2314 H   0  0  0  0  0  0  0  0  0  0  0  0
   49.7211   30.7848   44.5541 H   0  0  0  0  0  0  0  0  0  0  0  0
   50.5104   30.0392   42.0677 H   0  0  0  0  0  0  0  0  0  0  0  0
   44.9602   30.6957   43.9215 H   0  0  0  0  0  0  0  0  0  0  0  0
   42.6745   30.8021   42.5519 H   0  0  0  0  0  0  0  0  0  0  0  0
   45.9248   30.5013   39.8149 H   0  0  0  0  0  0  0  0  0  0  0  0
   49.9465   34.9142   42.1128 H   0  0  0  0  0  0  0  0  0  0  0  0
   46.1240   34.4548   40.0280 H   0  0  0  0  0  0  0  0  0  0  0  0
   49.7211   35.3721   39.7285 H   0  0  0  0  0  0  0  0  0  0  0  0
   48.1737   35.1922   38.8592 H   0  0  0  0  0  0  0  0  0  0  0  0
  1  9  1  0
  1  2  2  0
  2  3  1  0
  4  3  1  0
  4  5  2  0
  6  5  1  0
  7  6  2  0
  8  9  2  0
  8  7  1  0
  9  4  1  0
 10 11  1  0
 10  8  1  0
 12 11  2  0
 13 14  2  0
 13 12  1  0
 14 10  1  0
 15 14  1  0
 15 16  1  0
 17 16  2  0
 18 17  1  0
 19 18  2  0
 19 15  1  0
 20 25  2  0
 21 22  2  0
 21 20  1  0
 22 23  1  0
 23 24  2  0
 24  1  1  0
 25 24  1  0
 26 21  1  0
  2 27  1  0
  3 28  1  0
  5 29  1  0
  6 30  1  0
  7 31  1  0
 11 32  1  0
 12 33  1  0
 16 34  1  0
 17 35  1  0
 19 36  1  0
 20 37  1  0
 22 38  1  0
 26 39  1  0
 26 40  1  0
M  ISO  8  27  14  28   9  29  14  30  14  31  14  32  14  33  14  34  14
M  ISO  4  35  14  36  14  37  14  38  14
M  END
>  <minimizedAffinity>  (1) 
-5.16716766

>  <minimizedRMSD>  (1) 
0.15414083

$$$$
