
     RDKit          3D

 40 44  0  0  0  0  0  0  0  0999 V2000
   46.1080   33.6680   44.6760 C   0  0  0  0  0  0  0  0  0  0  0  0
   45.4360   34.5590   45.5330 C   0  0  0  0  0  0  0  0  0  0  0  0
   45.1230   33.9170   46.6800 N   0  0  0  0  0  0  0  0  0  0  0  0
   45.5580   32.6460   46.6170 C   0  0  0  0  0  0  0  0  0  0  0  0
   45.5040   31.5920   47.5110 C   0  0  0  0  0  0  0  0  0  0  0  0
   46.0630   30.3660   47.1600 C   0  0  0  0  0  0  0  0  0  0  0  0
   46.6720   30.1890   45.9220 C   0  0  0  0  0  0  0  0  0  0  0  0
   46.6960   31.2780   45.0700 C   0  0  0  0  0  0  0  0  0  0  0  0
   46.1610   32.4900   45.3860 C   0  0  0  0  0  0  0  0  0  0  0  0
   48.6060   34.4170   42.1290 C   0  0  0  0  0  0  0  0  0  0  0  0
   47.7790   34.5360   40.9590 C   0  0  0  0  0  0  0  0  0  0  0  0
   46.3720   34.3520   41.0490 C   0  0  0  0  0  0  0  0  0  0  0  0
   45.8540   34.0620   42.2790 N   0  0  0  0  0  0  0  0  0  0  0  0
   46.6500   33.9560   43.3630 C   0  0  0  0  0  0  0  0  0  0  0  0
   47.9700   34.1280   43.2830 N   0  0  0  0  0  0  0  0  0  0  0  0
   48.3800   34.8350   39.7330 N   0  0  0  0  0  0  0  0  0  0  0  0
   47.3430   30.7880   43.9060 N   0  0  0  0  0  0  0  0  0  0  0  0
   48.6830   30.5970   43.9510 C   0  0  0  0  0  0  0  0  0  0  0  0
   49.0500   30.1160   42.6800 C   0  0  0  0  0  0  0  0  0  0  0  0
   47.9440   30.0300   41.9130 N   0  0  0  0  0  0  0  0  0  0  0  0
   46.9170   30.4300   42.6380 C   0  0  0  0  0  0  0  0  0  0  0  0
   45.5180   30.5130   42.2790 C   0  0  0  0  0  0  0  0  0  0  0  0
   44.3250   30.4070   42.9750 C   0  0  0  0  0  0  0  0  0  0  0  0
   43.1550   30.5500   42.2820 C   0  0  0  0  0  0  0  0  0  0  0  0
   43.1550   30.7940   40.9180 C   0  0  0  0  0  0  0  0  0  0  0  0
   44.9770   30.8410   40.5020 S   0  0  0  0  0  0  0  0  0  0  0  0
   45.2029   35.6097   45.3057 H   0  0  0  0  0  0  0  0  0  0  0  0
   44.6275   34.3365   47.4796 H   0  0  0  0  0  0  0  0  0  0  0  0
   45.0231   31.7213   48.4918 H   0  0  0  0  0  0  0  0  0  0  0  0
   46.0225   29.5272   47.8704 H   0  0  0  0  0  0  0  0  0  0  0  0
   47.1153   29.2246   45.6332 H   0  0  0  0  0  0  0  0  0  0  0  0
   49.6966   34.5540   42.0856 H   0  0  0  0  0  0  0  0  0  0  0  0
   45.7261   34.4398   40.1629 H   0  0  0  0  0  0  0  0  0  0  0  0
   49.4001   34.9665   39.6780 H   0  0  0  0  0  0  0  0  0  0  0  0
   47.8028   34.9238   38.8846 H   0  0  0  0  0  0  0  0  0  0  0  0
   49.3492   30.7805   44.8069 H   0  0  0  0  0  0  0  0  0  0  0  0
   50.0706   29.8536   42.3644 H   0  0  0  0  0  0  0  0  0  0  0  0
   44.3191   30.2127   44.0577 H   0  0  0  0  0  0  0  0  0  0  0  0
   42.1970   30.4699   42.8166 H   0  0  0  0  0  0  0  0  0  0  0  0
   42.2947   30.9272   40.2455 H   0  0  0  0  0  0  0  0  0  0  0  0
  1  9  1  0
  1  2  2  0
  2  3  1  0
  4  3  1  0
  4  5  2  0
  6  5  1  0
  7  6  2  0
  8  9  2  0
  8  7  1  0
  9  4  1  0
 10 15  2  0
 11 12  2  0
 11 10  1  0
 12 13  1  0
 13 14  2  0
 14  1  1  0
 15 14  1  0
 16 11  1  0
 17 18  1  0
 17  8  1  0
 19 18  2  0
 20 21  2  0
 20 19  1  0
 21 17  1  0
 22 21  1  0
 22 23  2  0
 24 23  1  0
 25 24  2  0
 26 25  1  0
 26 22  1  0
  2 27  1  0
  3 28  1  0
  5 29  1  0
  6 30  1  0
  7 31  1  0
 10 32  1  0
 12 33  1  0
 16 34  1  0
 16 35  1  0
 18 36  1  0
 19 37  1  0
 23 38  1  0
 24 39  1  0
 25 40  1  0
M  ISO  8  27  14  28   9  29  14  30  14  31  14  32  14  33  14  36  14
M  ISO  4  37  14  38  14  39  14  40  14
M  END
>  <minimizedAffinity>  (1) 
-4.94277382

>  <minimizedRMSD>  (1) 
0.902279913

$$$$
