
     RDKit          3D

 40 44  0  0  0  0  0  0  0  0999 V2000
   46.3970   33.5790   44.5380 C   0  0  0  0  0  0  0  0  0  0  0  0
   45.6500   34.3770   45.4340 C   0  0  0  0  0  0  0  0  0  0  0  0
   45.3330   33.6450   46.5100 N   0  0  0  0  0  0  0  0  0  0  0  0
   45.8280   32.4000   46.3800 C   0  0  0  0  0  0  0  0  0  0  0  0
   45.7820   31.2850   47.1960 C   0  0  0  0  0  0  0  0  0  0  0  0
   46.4040   30.1020   46.7880 C   0  0  0  0  0  0  0  0  0  0  0  0
   47.0690   30.0460   45.5580 C   0  0  0  0  0  0  0  0  0  0  0  0
   47.0830   31.1970   44.7790 C   0  0  0  0  0  0  0  0  0  0  0  0
   46.4790   32.3610   45.1710 C   0  0  0  0  0  0  0  0  0  0  0  0
   48.9140   34.6380   42.1270 C   0  0  0  0  0  0  0  0  0  0  0  0
   48.1360   34.7740   40.9430 C   0  0  0  0  0  0  0  0  0  0  0  0
   46.7560   34.4960   40.9690 C   0  0  0  0  0  0  0  0  0  0  0  0
   46.1950   34.0970   42.1560 N   0  0  0  0  0  0  0  0  0  0  0  0
   46.9580   33.9770   43.2650 C   0  0  0  0  0  0  0  0  0  0  0  0
   48.2650   34.2380   43.2430 N   0  0  0  0  0  0  0  0  0  0  0  0
   48.7450   35.1830   39.7550 N   0  0  0  0  0  0  0  0  0  0  0  0
   47.7940   30.8180   43.6250 N   0  0  0  0  0  0  0  0  0  0  0  0
   49.1260   30.5600   43.7400 C   0  0  0  0  0  0  0  0  0  0  0  0
   49.5610   30.2210   42.4420 C   0  0  0  0  0  0  0  0  0  0  0  0
   48.5320   30.2780   41.6100 N   0  0  0  0  0  0  0  0  0  0  0  0
   47.4430   30.6370   42.2920 C   0  0  0  0  0  0  0  0  0  0  0  0
   46.0960   30.8170   41.7830 C   0  0  0  0  0  0  0  0  0  0  0  0
   45.8320   30.7590   40.4080 C   0  0  0  0  0  0  0  0  0  0  0  0
   44.5520   30.9530   40.1300 N   0  0  0  0  0  0  0  0  0  0  0  0
   43.9430   31.1430   41.3120 C   0  0  0  0  0  0  0  0  0  0  0  0
   44.8770   31.0570   42.2670 N   0  0  0  0  0  0  0  0  0  0  0  0
   45.3735   35.4295   45.2735 H   0  0  0  0  0  0  0  0  0  0  0  0
   44.7908   33.9845   47.3173 H   0  0  0  0  0  0  0  0  0  0  0  0
   45.2581   31.3288   48.1622 H   0  0  0  0  0  0  0  0  0  0  0  0
   46.3708   29.2130   47.4350 H   0  0  0  0  0  0  0  0  0  0  0  0
   47.5633   29.1234   45.2195 H   0  0  0  0  0  0  0  0  0  0  0  0
   49.9936   34.8487   42.1335 H   0  0  0  0  0  0  0  0  0  0  0  0
   46.1432   34.5961   40.0610 H   0  0  0  0  0  0  0  0  0  0  0  0
   49.7546   35.3861   39.7372 H   0  0  0  0  0  0  0  0  0  0  0  0
   48.1846   35.2816   38.8964 H   0  0  0  0  0  0  0  0  0  0  0  0
   49.7356   30.6063   44.6545 H   0  0  0  0  0  0  0  0  0  0  0  0
   50.5909   29.9521   42.1647 H   0  0  0  0  0  0  0  0  0  0  0  0
   46.6021   30.5731   39.6448 H   0  0  0  0  0  0  0  0  0  0  0  0
   42.8710   31.3346   41.4671 H   0  0  0  0  0  0  0  0  0  0  0  0
   44.6750   31.1650   43.2712 H   0  0  0  0  0  0  0  0  0  0  0  0
  1  9  1  0
  1  2  2  0
  2  3  1  0
  4  3  1  0
  4  5  2  0
  6  5  1  0
  7  6  2  0
  8  9  2  0
  8  7  1  0
  9  4  1  0
 10 15  2  0
 11 12  2  0
 11 10  1  0
 12 13  1  0
 13 14  2  0
 14  1  1  0
 15 14  1  0
 16 11  1  0
 17 18  1  0
 17  8  1  0
 19 18  2  0
 20 21  2  0
 20 19  1  0
 21 17  1  0
 22 26  1  0
 22 21  1  0
 23 22  2  0
 24 23  1  0
 24 25  2  0
 25 26  1  0
  2 27  1  0
  3 28  1  0
  5 29  1  0
  6 30  1  0
  7 31  1  0
 10 32  1  0
 12 33  1  0
 16 34  1  0
 16 35  1  0
 18 36  1  0
 19 37  1  0
 23 38  1  0
 25 39  1  0
 26 40  1  0
M  ISO  8  27  14  28   9  29  14  30  14  31  14  32  14  33  14  36  14
M  ISO  4  37  14  38  14  39  14  40   9
M  END
>  <minimizedAffinity>  (1) 
-4.9080534

>  <minimizedRMSD>  (1) 
0.0811315328

$$$$
