
     RDKit          3D

 40 44  0  0  0  0  0  0  0  0999 V2000
   46.1110   33.6680   44.6700 C   0  0  0  0  0  0  0  0  0  0  0  0
   45.4280   34.5580   45.5300 C   0  0  0  0  0  0  0  0  0  0  0  0
   45.1210   33.9180   46.6650 N   0  0  0  0  0  0  0  0  0  0  0  0
   45.5620   32.6410   46.6150 C   0  0  0  0  0  0  0  0  0  0  0  0
   45.5070   31.5980   47.5090 C   0  0  0  0  0  0  0  0  0  0  0  0
   46.0750   30.3720   47.1630 C   0  0  0  0  0  0  0  0  0  0  0  0
   46.6920   30.2010   45.9190 C   0  0  0  0  0  0  0  0  0  0  0  0
   46.7110   31.2840   45.0730 C   0  0  0  0  0  0  0  0  0  0  0  0
   46.1680   32.5000   45.3810 C   0  0  0  0  0  0  0  0  0  0  0  0
   48.6080   34.4130   42.1260 C   0  0  0  0  0  0  0  0  0  0  0  0
   47.8010   34.5370   40.9610 C   0  0  0  0  0  0  0  0  0  0  0  0
   46.3970   34.3590   41.0440 C   0  0  0  0  0  0  0  0  0  0  0  0
   45.8610   34.0690   42.2690 N   0  0  0  0  0  0  0  0  0  0  0  0
   46.6520   33.9570   43.3590 C   0  0  0  0  0  0  0  0  0  0  0  0
   47.9720   34.1240   43.2810 N   0  0  0  0  0  0  0  0  0  0  0  0
   48.3860   34.8360   39.7240 N   0  0  0  0  0  0  0  0  0  0  0  0
   47.3610   30.8010   43.9090 N   0  0  0  0  0  0  0  0  0  0  0  0
   48.7220   30.6340   43.9650 C   0  0  0  0  0  0  0  0  0  0  0  0
   49.0850   30.1480   42.6940 C   0  0  0  0  0  0  0  0  0  0  0  0
   47.9850   30.0360   41.9250 N   0  0  0  0  0  0  0  0  0  0  0  0
   46.9370   30.4250   42.6440 C   0  0  0  0  0  0  0  0  0  0  0  0
   45.5180   30.4970   42.3140 C   0  0  0  0  0  0  0  0  0  0  0  0
   45.0920   30.8390   41.0440 C   0  0  0  0  0  0  0  0  0  0  0  0
   43.7130   30.8020   41.1190 C   0  0  0  0  0  0  0  0  0  0  0  0
   43.3200   30.4620   42.3470 N   0  0  0  0  0  0  0  0  0  0  0  0
   44.4140   30.2810   43.0610 N   0  0  0  0  0  0  0  0  0  0  0  0
   45.1876   35.6072   45.3032 H   0  0  0  0  0  0  0  0  0  0  0  0
   44.6209   34.3379   47.4615 H   0  0  0  0  0  0  0  0  0  0  0  0
   45.0202   31.7290   48.4867 H   0  0  0  0  0  0  0  0  0  0  0  0
   46.0376   29.5332   47.8736 H   0  0  0  0  0  0  0  0  0  0  0  0
   47.1429   29.2402   45.6302 H   0  0  0  0  0  0  0  0  0  0  0  0
   49.6992   34.5464   42.0874 H   0  0  0  0  0  0  0  0  0  0  0  0
   45.7592   34.4510   40.1525 H   0  0  0  0  0  0  0  0  0  0  0  0
   49.4053   34.9669   39.6546 H   0  0  0  0  0  0  0  0  0  0  0  0
   47.7969   34.9249   38.8838 H   0  0  0  0  0  0  0  0  0  0  0  0
   49.3860   30.8361   44.8184 H   0  0  0  0  0  0  0  0  0  0  0  0
   50.1087   29.8985   42.3782 H   0  0  0  0  0  0  0  0  0  0  0  0
   45.7122   31.0854   40.1696 H   0  0  0  0  0  0  0  0  0  0  0  0
   43.0338   31.0223   40.2822 H   0  0  0  0  0  0  0  0  0  0  0  0
   42.3489   30.3603   42.6749 H   0  0  0  0  0  0  0  0  0  0  0  0
  1  9  1  0
  1  2  2  0
  2  3  1  0
  4  3  1  0
  4  5  2  0
  6  5  1  0
  7  6  2  0
  8  9  2  0
  8  7  1  0
  9  4  1  0
 10 15  2  0
 11 12  2  0
 11 10  1  0
 12 13  1  0
 13 14  2  0
 14  1  1  0
 15 14  1  0
 16 11  1  0
 17 18  1  0
 17  8  1  0
 19 18  2  0
 20 21  2  0
 20 19  1  0
 21 17  1  0
 22 21  1  0
 22 26  2  0
 23 24  2  0
 23 22  1  0
 24 25  1  0
 25 26  1  0
  2 27  1  0
  3 28  1  0
  5 29  1  0
  6 30  1  0
  7 31  1  0
 10 32  1  0
 12 33  1  0
 16 34  1  0
 16 35  1  0
 18 36  1  0
 19 37  1  0
 23 38  1  0
 24 39  1  0
 25 40  1  0
M  ISO  8  27  14  28   9  29  14  30  14  31  14  32  14  33  14  36  14
M  ISO  4  37  14  38  14  39  14  40   9
M  END
>  <minimizedAffinity>  (1) 
-4.89503479

>  <minimizedRMSD>  (1) 
0.690984905

$$$$
