
     RDKit          3D

 36 39  0  0  0  0  0  0  0  0999 V2000
   46.3880   33.5670   44.5110 C   0  0  0  0  0  0  0  0  0  0  0  0
   45.6570   34.3760   45.4090 C   0  0  0  0  0  0  0  0  0  0  0  0
   45.3370   33.6510   46.4980 N   0  0  0  0  0  0  0  0  0  0  0  0
   45.8200   32.3970   46.3700 C   0  0  0  0  0  0  0  0  0  0  0  0
   45.7790   31.2940   47.1900 C   0  0  0  0  0  0  0  0  0  0  0  0
   46.3920   30.1140   46.7800 C   0  0  0  0  0  0  0  0  0  0  0  0
   47.0420   30.0390   45.5530 C   0  0  0  0  0  0  0  0  0  0  0  0
   47.0510   31.1790   44.7750 C   0  0  0  0  0  0  0  0  0  0  0  0
   46.4650   32.3440   45.1490 C   0  0  0  0  0  0  0  0  0  0  0  0
   48.8870   34.6700   42.1070 C   0  0  0  0  0  0  0  0  0  0  0  0
   48.1120   34.7380   40.9150 C   0  0  0  0  0  0  0  0  0  0  0  0
   46.7500   34.4040   40.9270 C   0  0  0  0  0  0  0  0  0  0  0  0
   46.1940   34.0130   42.1190 N   0  0  0  0  0  0  0  0  0  0  0  0
   46.9470   33.9560   43.2390 C   0  0  0  0  0  0  0  0  0  0  0  0
   48.2410   34.2730   43.2240 N   0  0  0  0  0  0  0  0  0  0  0  0
   48.7250   35.1490   39.7190 N   0  0  0  0  0  0  0  0  0  0  0  0
   47.7520   30.7910   43.6040 N   0  0  0  0  0  0  0  0  0  0  0  0
   49.1090   30.7050   43.6670 C   0  0  0  0  0  0  0  0  0  0  0  0
   49.5190   30.3050   42.3790 C   0  0  0  0  0  0  0  0  0  0  0  0
   48.4350   30.1630   41.5890 N   0  0  0  0  0  0  0  0  0  0  0  0
   47.3630   30.4510   42.3100 C   0  0  0  0  0  0  0  0  0  0  0  0
   45.9480   30.4470   41.9450 C   0  0  0  0  0  0  0  0  0  0  0  0
   45.3913   35.4307   45.2449 H   0  0  0  0  0  0  0  0  0  0  0  0
   44.8039   34.0008   47.3069 H   0  0  0  0  0  0  0  0  0  0  0  0
   45.2660   31.3440   48.1618 H   0  0  0  0  0  0  0  0  0  0  0  0
   46.3621   29.2302   47.4342 H   0  0  0  0  0  0  0  0  0  0  0  0
   47.5280   29.1112   45.2169 H   0  0  0  0  0  0  0  0  0  0  0  0
   49.9564   34.9275   42.1175 H   0  0  0  0  0  0  0  0  0  0  0  0
   46.1460   34.4539   40.0090 H   0  0  0  0  0  0  0  0  0  0  0  0
   49.7254   35.3942   39.7108 H   0  0  0  0  0  0  0  0  0  0  0  0
   48.1739   35.2050   38.8506 H   0  0  0  0  0  0  0  0  0  0  0  0
   49.7499   30.9052   44.5383 H   0  0  0  0  0  0  0  0  0  0  0  0
   50.5601   30.1352   42.0670 H   0  0  0  0  0  0  0  0  0  0  0  0
   45.3339   30.4453   42.8576 H   0  0  0  0  0  0  0  0  0  0  0  0
   45.7199   31.3445   41.3513 H   0  0  0  0  0  0  0  0  0  0  0  0
   45.7250   29.5482   41.3513 H   0  0  0  0  0  0  0  0  0  0  0  0
  1  9  1  0
  1  2  2  0
  2  3  1  0
  4  3  1  0
  4  5  2  0
  6  5  1  0
  7  6  2  0
  8  9  2  0
  8  7  1  0
  9  4  1  0
 10 15  2  0
 11 12  2  0
 11 10  1  0
 12 13  1  0
 13 14  2  0
 14  1  1  0
 15 14  1  0
 16 11  1  0
 17 18  1  0
 17  8  1  0
 19 18  2  0
 20 21  2  0
 20 19  1  0
 21 17  1  0
 22 21  1  0
  2 23  1  0
  3 24  1  0
  5 25  1  0
  6 26  1  0
  7 27  1  0
 10 28  1  0
 12 29  1  0
 16 30  1  0
 16 31  1  0
 18 32  1  0
 19 33  1  0
 22 34  1  0
 22 35  1  0
 22 36  1  0
M  ISO  8  23  14  24   9  25  14  26  14  27  14  28  14  29  14  32  14
M  ISO  4  33  14  34   8  35   8  36   8
M  END
>  <minimizedAffinity>  (1) 
-4.8879447

>  <minimizedRMSD>  (1) 
0.0997929573

$$$$
