
     RDKit          3D

 38 42  0  0  0  0  0  0  0  0999 V2000
   46.1130   33.6670   44.6710 C   0  0  0  0  0  0  0  0  0  0  0  0
   45.4350   34.5570   45.5360 C   0  0  0  0  0  0  0  0  0  0  0  0
   45.1250   33.9160   46.6720 N   0  0  0  0  0  0  0  0  0  0  0  0
   45.5610   32.6420   46.6110 C   0  0  0  0  0  0  0  0  0  0  0  0
   45.4990   31.5920   47.5060 C   0  0  0  0  0  0  0  0  0  0  0  0
   46.0570   30.3640   47.1580 C   0  0  0  0  0  0  0  0  0  0  0  0
   46.6680   30.1920   45.9220 C   0  0  0  0  0  0  0  0  0  0  0  0
   46.7000   31.2770   45.0690 C   0  0  0  0  0  0  0  0  0  0  0  0
   46.1670   32.4920   45.3830 C   0  0  0  0  0  0  0  0  0  0  0  0
   48.5990   34.4020   42.1150 C   0  0  0  0  0  0  0  0  0  0  0  0
   47.7810   34.5300   40.9570 C   0  0  0  0  0  0  0  0  0  0  0  0
   46.3790   34.3570   41.0460 C   0  0  0  0  0  0  0  0  0  0  0  0
   45.8580   34.0680   42.2750 N   0  0  0  0  0  0  0  0  0  0  0  0
   46.6490   33.9510   43.3620 C   0  0  0  0  0  0  0  0  0  0  0  0
   47.9690   34.1140   43.2740 N   0  0  0  0  0  0  0  0  0  0  0  0
   48.3770   34.8300   39.7260 N   0  0  0  0  0  0  0  0  0  0  0  0
   47.3520   30.7910   43.9050 N   0  0  0  0  0  0  0  0  0  0  0  0
   48.7050   30.6020   43.9610 C   0  0  0  0  0  0  0  0  0  0  0  0
   49.0640   30.1210   42.6860 C   0  0  0  0  0  0  0  0  0  0  0  0
   47.9600   30.0310   41.9160 N   0  0  0  0  0  0  0  0  0  0  0  0
   46.9210   30.4290   42.6330 C   0  0  0  0  0  0  0  0  0  0  0  0
   45.5100   30.5260   42.3010 C   0  0  0  0  0  0  0  0  0  0  0  0
   44.3930   30.2920   43.0120 N   0  0  0  0  0  0  0  0  0  0  0  0
   43.3450   30.5230   42.2660 O   0  0  0  0  0  0  0  0  0  0  0  0
   43.7400   30.9070   41.0690 C   0  0  0  0  0  0  0  0  0  0  0  0
   45.0810   30.9100   41.0860 N   0  0  0  0  0  0  0  0  0  0  0  0
   45.1995   35.6080   45.3123 H   0  0  0  0  0  0  0  0  0  0  0  0
   44.6282   34.3343   47.4714 H   0  0  0  0  0  0  0  0  0  0  0  0
   45.0137   31.7241   48.4843 H   0  0  0  0  0  0  0  0  0  0  0  0
   46.0136   29.5241   47.8670 H   0  0  0  0  0  0  0  0  0  0  0  0
   47.1100   29.2268   45.6338 H   0  0  0  0  0  0  0  0  0  0  0  0
   49.6904   34.5313   42.0679 H   0  0  0  0  0  0  0  0  0  0  0  0
   45.7342   34.4516   40.1599 H   0  0  0  0  0  0  0  0  0  0  0  0
   49.3975   34.9552   39.6648 H   0  0  0  0  0  0  0  0  0  0  0  0
   47.7949   34.9254   38.8816 H   0  0  0  0  0  0  0  0  0  0  0  0
   49.3704   30.7859   44.8174 H   0  0  0  0  0  0  0  0  0  0  0  0
   50.0843   29.8599   42.3685 H   0  0  0  0  0  0  0  0  0  0  0  0
   43.0942   31.1737   40.2194 H   0  0  0  0  0  0  0  0  0  0  0  0
  1  9  1  0
  1  2  2  0
  2  3  1  0
  4  3  1  0
  4  5  2  0
  6  5  1  0
  7  6  2  0
  8  9  2  0
  8  7  1  0
  9  4  1  0
 10 15  2  0
 11 12  2  0
 11 10  1  0
 12 13  1  0
 13 14  2  0
 14  1  1  0
 15 14  1  0
 16 11  1  0
 17 18  1  0
 17  8  1  0
 19 18  2  0
 20 21  2  0
 20 19  1  0
 21 17  1  0
 22 21  1  0
 22 23  2  0
 24 23  1  0
 25 26  2  0
 25 24  1  0
 26 22  1  0
  2 27  1  0
  3 28  1  0
  5 29  1  0
  6 30  1  0
  7 31  1  0
 10 32  1  0
 12 33  1  0
 16 34  1  0
 16 35  1  0
 18 36  1  0
 19 37  1  0
 25 38  1  0
M  ISO  8  27  14  28   9  29  14  30  14  31  14  32  14  33  14  36  14
M  ISO  2  37  14  38  14
M  END
>  <minimizedAffinity>  (1) 
-4.88098717

>  <minimizedRMSD>  (1) 
0.820714772

$$$$
