
     RDKit          3D

 48 52  0  0  1  0  0  0  0  0999 V2000
   46.6480   33.9430   43.7400 C   0  0  0  0  0  0  0  0  0  0  0  0
   45.9200   34.8820   43.9600 O   0  0  0  0  0  0  0  0  0  0  0  0
   48.9330   33.6920   42.8000 C   0  0  2  0  0  0  0  0  0  0  0  0
   47.5550   33.9450   42.5640 C   0  0  2  0  0  0  0  0  0  0  0  0
   47.5520   35.3620   41.9220 C   0  0  0  0  0  0  0  0  0  0  0  0
   48.9440   35.7210   41.5130 C   0  0  0  0  0  0  0  0  0  0  0  0
   49.7160   35.0380   42.5540 C   0  0  0  0  0  0  0  0  0  0  0  0
   49.6550   32.7470   41.9500 C   0  0  0  0  0  0  0  0  0  0  0  0
   48.8920   31.8330   41.2530 C   0  0  0  0  0  0  0  0  0  0  0  0
   49.4540   30.8650   40.4340 C   0  0  0  0  0  0  0  0  0  0  0  0
   50.8440   30.9000   40.3730 N   0  0  0  0  0  0  0  0  0  0  0  0
   51.5740   31.7830   41.0430 C   0  0  0  0  0  0  0  0  0  0  0  0
   50.9690   32.6800   41.8110 N   0  0  0  0  0  0  0  0  0  0  0  0
   46.4980   32.9130   44.7330 C   0  0  0  0  0  0  0  0  0  0  0  0
   46.7420   33.1850   46.0810 C   0  0  0  0  0  0  0  0  0  0  0  0
   46.6510   32.2270   47.0960 C   0  0  0  0  0  0  0  0  0  0  0  0
   46.3020   30.9250   46.7640 C   0  0  0  0  0  0  0  0  0  0  0  0
   46.0540   30.6370   45.4210 C   0  0  0  0  0  0  0  0  0  0  0  0
   46.1560   31.6310   44.4630 C   0  0  0  0  0  0  0  0  0  0  0  0
   45.6810   30.9510   43.3170 N   0  0  0  0  0  0  0  0  0  0  0  0
   46.3420   29.8670   42.8670 C   0  0  0  0  0  0  0  0  0  0  0  0
   45.7590   29.4490   41.7030 N   0  0  0  0  0  0  0  0  0  0  0  0
   44.7290   30.2510   41.3990 C   0  0  0  0  0  0  0  0  0  0  0  0
   43.7590   30.3990   40.4230 C   0  0  0  0  0  0  0  0  0  0  0  0
   42.8400   31.4060   40.4850 N   0  0  0  0  0  0  0  0  0  0  0  0
   42.8380   32.2920   41.4950 C   0  0  0  0  0  0  0  0  0  0  0  0
   43.7800   32.1790   42.4760 N   0  0  0  0  0  0  0  0  0  0  0  0
   44.6960   31.1960   42.4370 C   0  0  0  0  0  0  0  0  0  0  0  0
   43.7880   29.4440   39.3680 N   0  0  0  0  0  0  0  0  0  0  0  0
   48.9098   33.2606   43.8116 H   0  0  0  0  0  0  0  0  0  0  0  0
   47.1539   33.1238   41.9518 H   0  0  0  0  0  0  0  0  0  0  0  0
   46.8972   35.3637   41.0382 H   0  0  0  0  0  0  0  0  0  0  0  0
   47.1809   36.0967   42.6517 H   0  0  0  0  0  0  0  0  0  0  0  0
   49.1845   35.3357   40.5111 H   0  0  0  0  0  0  0  0  0  0  0  0
   49.1340   36.8019   41.4379 H   0  0  0  0  0  0  0  0  0  0  0  0
   50.7407   34.8352   42.2093 H   0  0  0  0  0  0  0  0  0  0  0  0
   49.8130   35.6409   43.4689 H   0  0  0  0  0  0  0  0  0  0  0  0
   47.7971   31.8735   41.3505 H   0  0  0  0  0  0  0  0  0  0  0  0
   48.8514   30.1309   39.8790 H   0  0  0  0  0  0  0  0  0  0  0  0
   52.6710   31.7713   40.9623 H   0  0  0  0  0  0  0  0  0  0  0  0
   47.0218   34.2115   46.3604 H   0  0  0  0  0  0  0  0  0  0  0  0
   46.8530   32.5012   48.1420 H   0  0  0  0  0  0  0  0  0  0  0  0
   46.2234   30.1447   47.5353 H   0  0  0  0  0  0  0  0  0  0  0  0
   45.7762   29.6154   45.1224 H   0  0  0  0  0  0  0  0  0  0  0  0
   47.2078   29.3959   43.3553 H   0  0  0  0  0  0  0  0  0  0  0  0
   42.0884   33.0963   41.5307 H   0  0  0  0  0  0  0  0  0  0  0  0
   44.5018   28.7014   39.3650 H   0  0  0  0  0  0  0  0  0  0  0  0
   43.0952   29.4955   38.6076 H   0  0  0  0  0  0  0  0  0  0  0  0
  1  2  2  0
  1 14  1  0
  4  3  1  0
  4  1  1  0
  5  4  1  0
  6  5  1  0
  6  7  1  0
  7  3  1  0
  8  3  1  0
  9  8  2  0
 10  9  1  0
 11 10  2  0
 11 12  1  0
 12 13  2  0
 13  8  1  0
 14 15  2  0
 15 16  1  0
 17 16  2  0
 18 17  1  0
 19 14  1  0
 19 18  2  0
 20 19  1  0
 21 20  1  0
 22 21  2  0
 23 22  1  0
 23 28  2  0
 24 25  2  0
 24 23  1  0
 25 26  1  0
 26 27  2  0
 28 27  1  0
 28 20  1  0
 29 24  1  0
  3 30  1  1
  4 31  1  6
  5 32  1  0
  5 33  1  0
  6 34  1  0
  6 35  1  0
  7 36  1  0
  7 37  1  0
  9 38  1  0
 10 39  1  0
 12 40  1  0
 15 41  1  0
 16 42  1  0
 17 43  1  0
 18 44  1  0
 21 45  1  0
 26 46  1  0
 29 47  1  0
 29 48  1  0
M  ISO  8  30  13  31  13  32  13  33  13  34  13  35  13  36  13  37  13
M  ISO  8  38  14  39  14  40  14  41  14  42  14  43  14  44  14  45  14
M  ISO  1  46  14
M  END
>  <minimizedAffinity>  (1) 
-5.55308676

>  <minimizedRMSD>  (1) 
2.03971004

$$$$
