
     RDKit          3D

 42 45  0  0  0  0  0  0  0  0999 V2000
   46.4760   33.4810   44.5400 C   0  0  0  0  0  0  0  0  0  0  0  0
   45.7210   34.2510   45.4570 C   0  0  0  0  0  0  0  0  0  0  0  0
   45.4200   33.4930   46.5210 N   0  0  0  0  0  0  0  0  0  0  0  0
   45.9360   32.2550   46.3670 C   0  0  0  0  0  0  0  0  0  0  0  0
   45.9160   31.1350   47.1630 C   0  0  0  0  0  0  0  0  0  0  0  0
   46.5600   29.9720   46.7330 C   0  0  0  0  0  0  0  0  0  0  0  0
   47.2180   29.9510   45.4960 C   0  0  0  0  0  0  0  0  0  0  0  0
   47.2000   31.1050   44.7460 C   0  0  0  0  0  0  0  0  0  0  0  0
   46.5810   32.2590   45.1430 C   0  0  0  0  0  0  0  0  0  0  0  0
   48.9400   34.6380   42.1240 C   0  0  0  0  0  0  0  0  0  0  0  0
   48.1520   34.7680   40.9440 C   0  0  0  0  0  0  0  0  0  0  0  0
   46.7850   34.4540   40.9850 C   0  0  0  0  0  0  0  0  0  0  0  0
   46.2700   34.0330   42.1720 N   0  0  0  0  0  0  0  0  0  0  0  0
   47.0220   33.9120   43.2820 C   0  0  0  0  0  0  0  0  0  0  0  0
   48.3140   34.2100   43.2420 N   0  0  0  0  0  0  0  0  0  0  0  0
   48.7540   35.2050   39.7710 N   0  0  0  0  0  0  0  0  0  0  0  0
   47.8950   30.7530   43.5640 N   0  0  0  0  0  0  0  0  0  0  0  0
   49.2510   30.6170   43.6450 C   0  0  0  0  0  0  0  0  0  0  0  0
   49.6690   30.2860   42.3380 C   0  0  0  0  0  0  0  0  0  0  0  0
   48.5920   30.2310   41.5270 N   0  0  0  0  0  0  0  0  0  0  0  0
   47.5200   30.5080   42.2530 C   0  0  0  0  0  0  0  0  0  0  0  0
   46.1480   30.5010   41.7940 C   0  0  0  0  0  0  0  0  0  0  0  0
   45.3030   29.3160   41.9310 C   0  0  0  0  0  0  0  0  0  0  0  0
   46.2180   30.7620   40.2500 C   0  0  0  0  0  0  0  0  0  0  0  0
   45.4283   35.3023   45.3188 H   0  0  0  0  0  0  0  0  0  0  0  0
   44.8752   33.8087   47.3361 H   0  0  0  0  0  0  0  0  0  0  0  0
   45.3964   31.1540   48.1324 H   0  0  0  0  0  0  0  0  0  0  0  0
   46.5505   29.0724   47.3659 H   0  0  0  0  0  0  0  0  0  0  0  0
   47.7300   29.0458   45.1376 H   0  0  0  0  0  0  0  0  0  0  0  0
   50.0139   34.8763   42.1246 H   0  0  0  0  0  0  0  0  0  0  0  0
   46.1524   34.5449   40.0897 H   0  0  0  0  0  0  0  0  0  0  0  0
   49.7589   35.4306   39.7610 H   0  0  0  0  0  0  0  0  0  0  0  0
   48.1955   35.3034   38.9112 H   0  0  0  0  0  0  0  0  0  0  0  0
   49.8824   30.7392   44.5374 H   0  0  0  0  0  0  0  0  0  0  0  0
   50.7086   30.1019   42.0294 H   0  0  0  0  0  0  0  0  0  0  0  0
   45.6696   31.2380   42.4558 H   0  0  0  0  0  0  0  0  0  0  0  0
   45.1475   29.0979   42.9979 H   0  0  0  0  0  0  0  0  0  0  0  0
   44.3316   29.5007   41.4491 H   0  0  0  0  0  0  0  0  0  0  0  0
   45.7941   28.4578   41.4491 H   0  0  0  0  0  0  0  0  0  0  0  0
   46.4990   31.8097   40.0676 H   0  0  0  0  0  0  0  0  0  0  0  0
   46.9695   30.0970   39.7994 H   0  0  0  0  0  0  0  0  0  0  0  0
   45.2346   30.5624   39.7994 H   0  0  0  0  0  0  0  0  0  0  0  0
  1  9  1  0
  1  2  2  0
  2  3  1  0
  4  3  1  0
  4  5  2  0
  6  5  1  0
  7  6  2  0
  8  9  2  0
  8  7  1  0
  9  4  1  0
 10 15  2  0
 11 12  2  0
 11 10  1  0
 12 13  1  0
 13 14  2  0
 14  1  1  0
 15 14  1  0
 16 11  1  0
 17 18  1  0
 17  8  1  0
 19 18  2  0
 20 21  2  0
 20 19  1  0
 21 17  1  0
 22 23  1  0
 22 21  1  0
 24 22  1  0
  2 25  1  0
  3 26  1  0
  5 27  1  0
  6 28  1  0
  7 29  1  0
 10 30  1  0
 12 31  1  0
 16 32  1  0
 16 33  1  0
 18 34  1  0
 19 35  1  0
 22 36  1  0
 23 37  1  0
 23 38  1  0
 23 39  1  0
 24 40  1  0
 24 41  1  0
 24 42  1  0
M  ISO  8  25  14  26   9  27  14  28  14  29  14  30  14  31  14  34  14
M  ISO  8  35  14  36   8  37   8  38   8  39   8  40   8  41   8  42   8
M  END
>  <minimizedAffinity>  (1) 
-4.75711775

>  <minimizedRMSD>  (1) 
0.414295942

$$$$
