
     RDKit          3D

 36 39  0  0  0  0  0  0  0  0999 V2000
   46.3900   33.5680   44.5180 C   0  0  0  0  0  0  0  0  0  0  0  0
   45.6630   34.3750   45.4210 C   0  0  0  0  0  0  0  0  0  0  0  0
   45.3410   33.6480   46.5040 N   0  0  0  0  0  0  0  0  0  0  0  0
   45.8150   32.3930   46.3710 C   0  0  0  0  0  0  0  0  0  0  0  0
   45.7640   31.2910   47.1900 C   0  0  0  0  0  0  0  0  0  0  0  0
   46.3720   30.1030   46.7740 C   0  0  0  0  0  0  0  0  0  0  0  0
   47.0210   30.0320   45.5470 C   0  0  0  0  0  0  0  0  0  0  0  0
   47.0390   31.1720   44.7690 C   0  0  0  0  0  0  0  0  0  0  0  0
   46.4590   32.3410   45.1490 C   0  0  0  0  0  0  0  0  0  0  0  0
   48.8890   34.6620   42.1090 C   0  0  0  0  0  0  0  0  0  0  0  0
   48.1250   34.7420   40.9130 C   0  0  0  0  0  0  0  0  0  0  0  0
   46.7620   34.4160   40.9390 C   0  0  0  0  0  0  0  0  0  0  0  0
   46.2160   34.0280   42.1290 N   0  0  0  0  0  0  0  0  0  0  0  0
   46.9530   33.9570   43.2550 C   0  0  0  0  0  0  0  0  0  0  0  0
   48.2450   34.2670   43.2270 N   0  0  0  0  0  0  0  0  0  0  0  0
   48.7220   35.1410   39.7270 N   0  0  0  0  0  0  0  0  0  0  0  0
   47.7370   30.7840   43.6010 N   0  0  0  0  0  0  0  0  0  0  0  0
   49.1100   30.7040   43.6740 C   0  0  0  0  0  0  0  0  0  0  0  0
   49.5160   30.3070   42.3810 C   0  0  0  0  0  0  0  0  0  0  0  0
   48.4300   30.1630   41.5920 N   0  0  0  0  0  0  0  0  0  0  0  0
   47.3570   30.4440   42.3130 C   0  0  0  0  0  0  0  0  0  0  0  0
   45.9400   30.3910   41.9010 C   0  0  0  0  0  0  0  0  0  0  0  0
   45.6430   31.1880   40.8140 F   0  0  0  0  0  0  0  0  0  0  0  0
   45.6200   29.0890   41.4470 F   0  0  0  0  0  0  0  0  0  0  0  0
   45.0380   30.6430   42.8840 F   0  0  0  0  0  0  0  0  0  0  0  0
   45.4018   35.4317   45.2626 H   0  0  0  0  0  0  0  0  0  0  0  0
   44.8109   33.9975   47.3151 H   0  0  0  0  0  0  0  0  0  0  0  0
   45.2508   31.3430   48.1616 H   0  0  0  0  0  0  0  0  0  0  0  0
   46.3365   29.2161   47.4238 H   0  0  0  0  0  0  0  0  0  0  0  0
   47.5021   29.1024   45.2087 H   0  0  0  0  0  0  0  0  0  0  0  0
   49.9602   34.9116   42.1225 H   0  0  0  0  0  0  0  0  0  0  0  0
   46.1497   34.4711   40.0269 H   0  0  0  0  0  0  0  0  0  0  0  0
   49.7237   35.3802   39.7097 H   0  0  0  0  0  0  0  0  0  0  0  0
   48.1638   35.1982   38.8632 H   0  0  0  0  0  0  0  0  0  0  0  0
   49.7490   30.9049   44.5465 H   0  0  0  0  0  0  0  0  0  0  0  0
   50.5566   30.1407   42.0654 H   0  0  0  0  0  0  0  0  0  0  0  0
  1  9  1  0
  1  2  2  0
  2  3  1  0
  4  3  1  0
  4  5  2  0
  6  5  1  0
  7  6  2  0
  8  9  2  0
  8  7  1  0
  9  4  1  0
 10 15  2  0
 11 12  2  0
 11 10  1  0
 12 13  1  0
 13 14  2  0
 14  1  1  0
 15 14  1  0
 16 11  1  0
 17 18  1  0
 17  8  1  0
 19 18  2  0
 20 21  2  0
 20 19  1  0
 21 17  1  0
 22 21  1  0
 22 25  1  0
 23 22  1  0
 24 22  1  0
  2 26  1  0
  3 27  1  0
  5 28  1  0
  6 29  1  0
  7 30  1  0
 10 31  1  0
 12 32  1  0
 16 33  1  0
 16 34  1  0
 18 35  1  0
 19 36  1  0
M  ISO  8  26  14  27   9  28  14  29  14  30  14  31  14  32  14  35  14
M  ISO  1  36  14
M  END
>  <minimizedAffinity>  (1) 
-4.75576639

>  <minimizedRMSD>  (1) 
0.170800924

$$$$
