
     RDKit          3D

 12 12  0  0  0  0  0  0  0  0999 V2000
   44.8630   34.8940   45.2670 C   0  0  0  0  0  0  0  0  0  0  0  0
   45.4370   34.9730   43.9890 C   0  0  0  0  0  0  0  0  0  0  0  0
   46.4880   34.1120   43.6820 C   0  0  0  0  0  0  0  0  0  0  0  0
   46.9080   33.2350   44.6340 N   0  0  0  0  0  0  0  0  0  0  0  0
   46.3400   33.1790   45.8550 C   0  0  0  0  0  0  0  0  0  0  0  0
   45.3210   34.0050   46.1720 N   0  0  0  0  0  0  0  0  0  0  0  0
   44.9140   35.9430   43.0510 C   0  0  0  0  0  0  0  0  0  0  0  0
   45.1820   37.1480   43.2650 O   0  0  0  0  0  0  0  0  0  0  0  0
   44.0317   35.5634   45.5332 H   0  0  0  0  0  0  0  0  0  0  0  0
   46.9676   34.1403   42.6925 H   0  0  0  0  0  0  0  0  0  0  0  0
   46.7091   32.4560   46.5973 H   0  0  0  0  0  0  0  0  0  0  0  0
   44.3069   35.6354   42.1868 H   0  0  0  0  0  0  0  0  0  0  0  0
  1  6  2  0
  2  1  1  0
  3  2  2  0
  3  4  1  0
  4  5  2  0
  5  6  1  0
  7  8  2  0
  7  2  1  0
  1  9  1  0
  3 10  1  0
  5 11  1  0
  7 12  1  0
M  ISO  4   9  14  10  14  11  14  12   6
M  END
>  <minimizedAffinity>  (1) 
-2.80487251

>  <minimizedRMSD>  (1) 
1.12351584

$$$$
