
     RDKit          3D

 28 30  0  0  0  0  0  0  0  0999 V2000
   45.2120   35.7520   42.8860 C   0  0  0  0  0  0  0  0  0  0  0  0
   45.2730   36.9790   43.0540 O   0  0  0  0  0  0  0  0  0  0  0  0
   44.8500   34.9650   41.7030 C   0  0  0  0  0  0  0  0  0  0  0  0
   45.7910   34.2600   40.9610 C   0  0  0  0  0  0  0  0  0  0  0  0
   45.5160   33.5140   39.8580 C   0  0  0  0  0  0  0  0  0  0  0  0
   44.2120   33.4340   39.4230 C   0  0  0  0  0  0  0  0  0  0  0  0
   43.2300   34.1070   40.1140 C   0  0  0  0  0  0  0  0  0  0  0  0
   41.9140   34.0310   39.6810 C   0  0  0  0  0  0  0  0  0  0  0  0
   40.8860   34.7010   40.3560 C   0  0  0  0  0  0  0  0  0  0  0  0
   41.2320   35.4460   41.4730 C   0  0  0  0  0  0  0  0  0  0  0  0
   42.5500   35.4980   41.8730 C   0  0  0  0  0  0  0  0  0  0  0  0
   43.5630   34.8480   41.2210 C   0  0  0  0  0  0  0  0  0  0  0  0
   44.8000   35.0110   45.1530 C   0  0  0  0  0  0  0  0  0  0  0  0
   45.5360   34.8790   43.9790 C   0  0  0  0  0  0  0  0  0  0  0  0
   46.5260   33.9210   43.9230 C   0  0  0  0  0  0  0  0  0  0  0  0
   46.7490   33.1400   45.0160 N   0  0  0  0  0  0  0  0  0  0  0  0
   46.0260   33.2780   46.1530 C   0  0  0  0  0  0  0  0  0  0  0  0
   45.0440   34.2170   46.2310 N   0  0  0  0  0  0  0  0  0  0  0  0
   46.8389   34.3096   41.2918 H   0  0  0  0  0  0  0  0  0  0  0  0
   46.3191   32.9850   39.3239 H   0  0  0  0  0  0  0  0  0  0  0  0
   43.9579   32.8390   38.5334 H   0  0  0  0  0  0  0  0  0  0  0  0
   41.6734   33.4326   38.7899 H   0  0  0  0  0  0  0  0  0  0  0  0
   39.8428   34.6385   40.0127 H   0  0  0  0  0  0  0  0  0  0  0  0
   40.4603   35.9916   42.0359 H   0  0  0  0  0  0  0  0  0  0  0  0
   42.8011   36.0933   42.7633 H   0  0  0  0  0  0  0  0  0  0  0  0
   44.0067   35.7709   45.2105 H   0  0  0  0  0  0  0  0  0  0  0  0
   47.1259   33.7897   43.0104 H   0  0  0  0  0  0  0  0  0  0  0  0
   46.2333   32.6288   47.0164 H   0  0  0  0  0  0  0  0  0  0  0  0
  1  2  2  0
  1 14  1  0
  3  1  1  0
  4  3  2  0
  5  4  1  0
  6  5  2  0
  6  7  1  0
  7 12  2  0
  8  7  1  0
  8  9  2  0
  9 10  1  0
 10 11  2  0
 12  3  1  0
 12 11  1  0
 13 18  2  0
 14 13  1  0
 15 14  2  0
 15 16  1  0
 16 17  2  0
 17 18  1  0
  4 19  1  0
  5 20  1  0
  6 21  1  0
  8 22  1  0
  9 23  1  0
 10 24  1  0
 11 25  1  0
 13 26  1  0
 15 27  1  0
 17 28  1  0
M  ISO  8  19  14  20  14  21  14  22  14  23  14  24  14  25  14  26  14
M  ISO  2  27  14  28  14
M  END
>  <minimizedAffinity>  (1) 
-5.32967758

>  <minimizedRMSD>  (1) 
1.15479314

$$$$
