
     RDKit          3D

 26 28  0  0  0  0  0  0  0  0999 V2000
   43.7400   34.7030   40.8920 C   0  0  0  0  0  0  0  0  0  0  0  0
   44.5020   33.9500   40.0820 N   0  0  0  0  0  0  0  0  0  0  0  0
   44.0370   33.3930   38.9190 C   0  0  0  0  0  0  0  0  0  0  0  0
   42.7910   33.5690   38.5250 N   0  0  0  0  0  0  0  0  0  0  0  0
   41.9410   34.3050   39.2600 C   0  0  0  0  0  0  0  0  0  0  0  0
   40.6400   34.5050   38.8580 C   0  0  0  0  0  0  0  0  0  0  0  0
   39.7680   35.2700   39.6060 C   0  0  0  0  0  0  0  0  0  0  0  0
   40.2560   35.8350   40.7900 C   0  0  0  0  0  0  0  0  0  0  0  0
   41.5660   35.5920   41.1280 C   0  0  0  0  0  0  0  0  0  0  0  0
   42.4590   34.8390   40.4130 C   0  0  0  0  0  0  0  0  0  0  0  0
   44.3030   35.2590   42.1090 C   0  0  0  0  0  0  0  0  0  0  0  0
   44.4540   36.4890   41.8350 O   0  0  0  0  0  0  0  0  0  0  0  0
   44.3650   35.6290   44.4790 C   0  0  0  0  0  0  0  0  0  0  0  0
   44.6890   34.8170   43.4000 C   0  0  0  0  0  0  0  0  0  0  0  0
   45.3430   33.5950   43.6240 C   0  0  0  0  0  0  0  0  0  0  0  0
   45.6370   33.2490   44.9170 N   0  0  0  0  0  0  0  0  0  0  0  0
   45.3060   34.0630   45.9550 C   0  0  0  0  0  0  0  0  0  0  0  0
   44.6740   35.2500   45.7490 N   0  0  0  0  0  0  0  0  0  0  0  0
   44.7169   32.7871   38.3021 H   0  0  0  0  0  0  0  0  0  0  0  0
   40.2882   34.0462   37.9222 H   0  0  0  0  0  0  0  0  0  0  0  0
   38.7285   35.4297   39.2837 H   0  0  0  0  0  0  0  0  0  0  0  0
   39.6109   36.4545   41.4304 H   0  0  0  0  0  0  0  0  0  0  0  0
   41.9317   36.0453   42.0612 H   0  0  0  0  0  0  0  0  0  0  0  0
   43.8538   36.5874   44.3055 H   0  0  0  0  0  0  0  0  0  0  0  0
   45.6115   32.9347   42.7862 H   0  0  0  0  0  0  0  0  0  0  0  0
   45.5542   33.7555   46.9816 H   0  0  0  0  0  0  0  0  0  0  0  0
  1 11  1  0
  2  1  2  0
  3  2  1  0
  4  3  2  0
  4  5  1  0
  5 10  2  0
  6  5  1  0
  6  7  2  0
  7  8  1  0
  8  9  2  0
 10  1  1  0
 10  9  1  0
 11 14  1  0
 12 11  2  0
 13 18  2  0
 14 15  2  0
 14 13  1  0
 15 16  1  0
 16 17  2  0
 18 17  1  0
  3 19  1  0
  6 20  1  0
  7 21  1  0
  8 22  1  0
  9 23  1  0
 13 24  1  0
 15 25  1  0
 17 26  1  0
M  ISO  8  19  14  20  14  21  14  22  14  23  14  24  14  25  14  26  14
M  END
>  <minimizedAffinity>  (1) 
-5.19130945

>  <minimizedRMSD>  (1) 
1.92220998

$$$$
