
     RDKit          3D

 26 28  0  0  0  0  0  0  0  0999 V2000
   44.8430   35.3930   43.0040 C   0  0  0  0  0  0  0  0  0  0  0  0
   45.0890   36.6260   43.0530 O   0  0  0  0  0  0  0  0  0  0  0  0
   44.3240   34.9940   41.6970 C   0  0  0  0  0  0  0  0  0  0  0  0
   45.0350   34.3720   40.6730 C   0  0  0  0  0  0  0  0  0  0  0  0
   44.1840   34.1830   39.6520 N   0  0  0  0  0  0  0  0  0  0  0  0
   42.9440   34.6340   39.9140 C   0  0  0  0  0  0  0  0  0  0  0  0
   41.7690   34.6590   39.1930 C   0  0  0  0  0  0  0  0  0  0  0  0
   40.6460   35.2120   39.7770 C   0  0  0  0  0  0  0  0  0  0  0  0
   40.7610   35.7110   41.0580 C   0  0  0  0  0  0  0  0  0  0  0  0
   41.8900   35.7130   41.8140 C   0  0  0  0  0  0  0  0  0  0  0  0
   43.0220   35.1510   41.2120 C   0  0  0  0  0  0  0  0  0  0  0  0
   44.6680   35.1110   45.4340 C   0  0  0  0  0  0  0  0  0  0  0  0
   45.1020   34.6120   44.1850 C   0  0  0  0  0  0  0  0  0  0  0  0
   45.7590   33.3950   44.1580 C   0  0  0  0  0  0  0  0  0  0  0  0
   45.9620   32.7220   45.3260 N   0  0  0  0  0  0  0  0  0  0  0  0
   45.5400   33.2140   46.4990 C   0  0  0  0  0  0  0  0  0  0  0  0
   44.8910   34.4070   46.5660 N   0  0  0  0  0  0  0  0  0  0  0  0
   46.0975   34.0882   40.6967 H   0  0  0  0  0  0  0  0  0  0  0  0
   44.4522   33.7395   38.7619 H   0  0  0  0  0  0  0  0  0  0  0  0
   41.7268   34.2471   38.1739 H   0  0  0  0  0  0  0  0  0  0  0  0
   39.6887   35.2533   39.2368 H   0  0  0  0  0  0  0  0  0  0  0  0
   39.8568   36.1467   41.5081 H   0  0  0  0  0  0  0  0  0  0  0  0
   41.9130   36.1289   42.8321 H   0  0  0  0  0  0  0  0  0  0  0  0
   44.1458   36.0778   45.4851 H   0  0  0  0  0  0  0  0  0  0  0  0
   46.1135   32.9751   43.2051 H   0  0  0  0  0  0  0  0  0  0  0  0
   45.7215   32.6438   47.4220 H   0  0  0  0  0  0  0  0  0  0  0  0
  1  2  2  0
  1 13  1  0
  3  1  1  0
  4  3  2  0
  5  6  1  0
  5  4  1  0
  6 11  2  0
  7  8  2  0
  7  6  1  0
  8  9  1  0
  9 10  2  0
 11  3  1  0
 11 10  1  0
 12 17  2  0
 13 12  1  0
 14 13  2  0
 14 15  1  0
 15 16  2  0
 16 17  1  0
  4 18  1  0
  5 19  1  0
  7 20  1  0
  8 21  1  0
  9 22  1  0
 10 23  1  0
 12 24  1  0
 14 25  1  0
 16 26  1  0
M  ISO  8  18  14  19   9  20  14  21  14  22  14  23  14  24  14  25  14
M  ISO  1  26  14
M  END
>  <minimizedAffinity>  (1) 
-5.18695307

>  <minimizedRMSD>  (1) 
1.05833566

$$$$
