
     RDKit          3D

 25 26  0  0  0  0  0  0  0  0999 V2000
   44.8930   35.8020   42.9940 C   0  0  0  0  0  0  0  0  0  0  0  0
   45.2000   37.0020   43.0720 O   0  0  0  0  0  0  0  0  0  0  0  0
   44.8590   34.8450   45.2130 C   0  0  0  0  0  0  0  0  0  0  0  0
   45.4460   34.8870   43.9510 C   0  0  0  0  0  0  0  0  0  0  0  0
   46.5130   34.0490   43.6940 C   0  0  0  0  0  0  0  0  0  0  0  0
   46.9500   33.2130   44.6800 N   0  0  0  0  0  0  0  0  0  0  0  0
   46.3620   33.1870   45.9040 C   0  0  0  0  0  0  0  0  0  0  0  0
   45.3250   33.9960   46.1700 N   0  0  0  0  0  0  0  0  0  0  0  0
   42.2300   34.3940   39.9490 C   0  0  0  0  0  0  0  0  0  0  0  0
   43.5830   34.1330   39.8900 C   0  0  0  0  0  0  0  0  0  0  0  0
   44.4380   34.5860   40.8680 C   0  0  0  0  0  0  0  0  0  0  0  0
   43.9880   35.3170   41.9520 C   0  0  0  0  0  0  0  0  0  0  0  0
   42.6380   35.5800   42.0150 C   0  0  0  0  0  0  0  0  0  0  0  0
   41.7570   35.1320   41.0380 C   0  0  0  0  0  0  0  0  0  0  0  0
   41.0730   33.8670   38.7680 S   0  0  0  0  0  0  0  0  0  0  0  0
   40.7080   34.9440   37.7920 O   0  0  0  0  0  0  0  0  0  0  0  0
   41.6320   32.7190   38.0020 O   0  0  0  0  0  0  0  0  0  0  0  0
   44.0089   35.5054   45.4394 H   0  0  0  0  0  0  0  0  0  0  0  0
   47.0033   34.0553   42.7093 H   0  0  0  0  0  0  0  0  0  0  0  0
   46.7365   32.5016   46.6786 H   0  0  0  0  0  0  0  0  0  0  0  0
   43.9854   33.5527   39.0466 H   0  0  0  0  0  0  0  0  0  0  0  0
   45.5113   34.3600   40.7852 H   0  0  0  0  0  0  0  0  0  0  0  0
   42.2457   36.1611   42.8626 H   0  0  0  0  0  0  0  0  0  0  0  0
   40.6839   35.3589   41.1219 H   0  0  0  0  0  0  0  0  0  0  0  0
   39.9423   33.5111   39.4549 H   0  0  0  0  0  0  0  0  0  0  0  0
  1  2  2  0
  1  4  1  0
  3  8  2  0
  4  3  1  0
  5  4  2  0
  5  6  1  0
  6  7  2  0
  7  8  1  0
  9 14  2  0
 10  9  1  0
 10 11  2  0
 11 12  1  0
 12 13  2  0
 12  1  1  0
 14 13  1  0
 15  9  1  0
 16 15  2  0
 17 15  2  0
  3 18  1  0
  5 19  1  0
  7 20  1  0
 10 21  1  0
 11 22  1  0
 13 23  1  0
 14 24  1  0
 15 25  1  0
M  ISO  8  18  14  19  14  20  14  21  14  22  14  23  14  24  14  25  11
M  END
>  <minimizedAffinity>  (1) 
-4.7618413

>  <minimizedRMSD>  (1) 
0.427547991

$$$$
