
     RDKit          3D

 19 20  0  0  0  0  0  0  0  0999 V2000
   44.8850   34.7980   45.3480 C   0  0  0  0  0  0  0  0  0  0  0  0
   45.3950   34.9390   44.0540 C   0  0  0  0  0  0  0  0  0  0  0  0
   46.4620   34.1180   43.6640 C   0  0  0  0  0  0  0  0  0  0  0  0
   46.9490   33.2250   44.5700 N   0  0  0  0  0  0  0  0  0  0  0  0
   46.4350   33.1200   45.8010 C   0  0  0  0  0  0  0  0  0  0  0  0
   45.4120   33.8930   46.2000 N   0  0  0  0  0  0  0  0  0  0  0  0
   44.8050   35.9190   43.1680 C   0  0  0  0  0  0  0  0  0  0  0  0
   45.2450   37.0810   43.2270 O   0  0  0  0  0  0  0  0  0  0  0  0
   43.7510   35.5470   42.2600 C   0  0  0  0  0  0  0  0  0  0  0  0
   43.8470   35.0810   40.9640 C   0  0  0  0  0  0  0  0  0  0  0  0
   42.6080   34.8520   40.4740 N   0  0  0  0  0  0  0  0  0  0  0  0
   41.6970   35.1610   41.4300 C   0  0  0  0  0  0  0  0  0  0  0  0
   42.4260   35.5730   42.4860 N   0  0  0  0  0  0  0  0  0  0  0  0
   44.0465   35.4304   45.6750 H   0  0  0  0  0  0  0  0  0  0  0  0
   46.8938   34.1927   42.6551 H   0  0  0  0  0  0  0  0  0  0  0  0
   46.8594   32.3850   46.5008 H   0  0  0  0  0  0  0  0  0  0  0  0
   44.7866   34.9208   40.4149 H   0  0  0  0  0  0  0  0  0  0  0  0
   40.6016   35.0907   41.3589 H   0  0  0  0  0  0  0  0  0  0  0  0
   42.0095   35.8775   43.3775 H   0  0  0  0  0  0  0  0  0  0  0  0
  1  6  2  0
  2  1  1  0
  3  2  2  0
  3  4  1  0
  4  5  2  0
  5  6  1  0
  7  8  2  0
  7  2  1  0
  9 13  1  0
  9  7  1  0
 10  9  2  0
 11 10  1  0
 11 12  2  0
 12 13  1  0
  1 14  1  0
  3 15  1  0
  5 16  1  0
 10 17  1  0
 12 18  1  0
 13 19  1  0
M  ISO  6  14  14  15  14  16  14  17  14  18  14  19   9
M  END
>  <minimizedAffinity>  (1) 
-4.38786793

>  <minimizedRMSD>  (1) 
0.493530393

$$$$
