
     RDKit          3D

 19 19  0  0  0  0  0  0  0  0999 V2000
   44.9920   35.9400   42.9590 C   0  0  0  0  0  0  0  0  0  0  0  0
   45.1680   37.1550   43.2110 O   0  0  0  0  0  0  0  0  0  0  0  0
   44.3470   35.5350   41.7430 N   0  0  0  0  0  0  0  0  0  0  0  0
   42.9370   35.3600   41.6510 C   0  0  0  0  0  0  0  0  0  0  0  0
   42.2400   35.5800   42.7140 N   0  0  0  0  0  0  0  0  0  0  0  0
   42.3230   34.9570   40.4320 N   0  0  0  0  0  0  0  0  0  0  0  0
   41.2050   35.4570   42.6650 H   0  0  0  0  0  0  0  0  0  0  0  0
   44.8500   34.9700   45.2010 C   0  0  0  0  0  0  0  0  0  0  0  0
   45.4590   34.9850   43.9300 C   0  0  0  0  0  0  0  0  0  0  0  0
   46.4720   34.0730   43.7070 C   0  0  0  0  0  0  0  0  0  0  0  0
   46.8320   33.2130   44.7070 N   0  0  0  0  0  0  0  0  0  0  0  0
   46.2290   33.2260   45.9050 C   0  0  0  0  0  0  0  0  0  0  0  0
   45.2280   34.1090   46.1630 N   0  0  0  0  0  0  0  0  0  0  0  0
   44.9244   35.3649   40.9072 H   0  0  0  0  0  0  0  0  0  0  0  0
   41.3012   34.8358   40.3855 H   0  0  0  0  0  0  0  0  0  0  0  0
   42.9004   34.7866   39.5963 H   0  0  0  0  0  0  0  0  0  0  0  0
   44.0407   35.6843   45.4128 H   0  0  0  0  0  0  0  0  0  0  0  0
   46.9842   34.0389   42.7341 H   0  0  0  0  0  0  0  0  0  0  0  0
   46.5466   32.5174   46.6841 H   0  0  0  0  0  0  0  0  0  0  0  0
  1  2  2  0
  1  9  1  0
  3  1  1  0
  4  3  1  0
  4  5  2  0
  6  4  1  0
  7  5  1  0
  8 13  2  0
  9  8  1  0
 10  9  2  0
 10 11  1  0
 11 12  2  0
 12 13  1  0
  3 14  1  0
  6 15  1  0
  6 16  1  0
  8 17  1  0
 10 18  1  0
 12 19  1  0
M  ISO  3  17  14  18  14  19  14
M  END
>  <minimizedAffinity>  (1) 
-4.32860088

>  <minimizedRMSD>  (1) 
0.28451857

$$$$
