
     RDKit          3D

 25 26  0  0  0  0  0  0  0  0999 V2000
   44.9120   34.7430   45.2210 C   0  0  0  0  0  0  0  0  0  0  0  0
   45.5730   34.7360   43.9720 C   0  0  0  0  0  0  0  0  0  0  0  0
   46.6610   33.8890   43.8060 C   0  0  0  0  0  0  0  0  0  0  0  0
   47.0380   33.1060   44.8560 N   0  0  0  0  0  0  0  0  0  0  0  0
   46.3840   33.1330   46.0460 C   0  0  0  0  0  0  0  0  0  0  0  0
   45.3190   33.9500   46.2350 N   0  0  0  0  0  0  0  0  0  0  0  0
   45.0880   35.6050   42.9340 C   0  0  0  0  0  0  0  0  0  0  0  0
   45.2420   36.8430   43.1090 O   0  0  0  0  0  0  0  0  0  0  0  0
   44.4600   35.1370   41.7490 N   0  0  0  0  0  0  0  0  0  0  0  0
   43.0990   35.5540   41.4580 C   0  0  0  0  0  0  0  0  0  0  0  0
   42.4250   34.2660   41.0080 C   0  0  0  0  0  0  0  0  0  0  0  0
   42.9880   33.6790   39.9200 O   0  0  0  0  0  0  0  0  0  0  0  0
   44.3270   33.5500   39.8730 C   0  0  0  0  0  0  0  0  0  0  0  0
   45.1730   34.2630   40.8550 C   0  0  0  0  0  0  0  0  0  0  0  0
   44.0485   35.4079   45.3701 H   0  0  0  0  0  0  0  0  0  0  0  0
   47.2051   33.8510   42.8507 H   0  0  0  0  0  0  0  0  0  0  0  0
   46.7228   32.4837   46.8668 H   0  0  0  0  0  0  0  0  0  0  0  0
   42.6112   35.9607   42.3562 H   0  0  0  0  0  0  0  0  0  0  0  0
   43.0463   36.3529   40.7037 H   0  0  0  0  0  0  0  0  0  0  0  0
   42.4640   33.5498   41.8420 H   0  0  0  0  0  0  0  0  0  0  0  0
   41.3995   34.5380   40.7175 H   0  0  0  0  0  0  0  0  0  0  0  0
   44.5469   32.4779   39.9834 H   0  0  0  0  0  0  0  0  0  0  0  0
   44.5937   34.0247   38.9172 H   0  0  0  0  0  0  0  0  0  0  0  0
   45.7005   33.5114   41.4607 H   0  0  0  0  0  0  0  0  0  0  0  0
   45.8489   34.9047   40.2708 H   0  0  0  0  0  0  0  0  0  0  0  0
  1  6  2  0
  2  1  1  0
  3  2  2  0
  3  4  1  0
  4  5  2  0
  5  6  1  0
  7  8  2  0
  7  2  1  0
  9  7  1  0
 10  9  1  0
 11 10  1  0
 12 11  1  0
 13 12  1  0
 13 14  1  0
 14  9  1  0
  1 15  1  0
  3 16  1  0
  5 17  1  0
 10 18  1  0
 10 19  1  0
 11 20  1  0
 11 21  1  0
 13 22  1  0
 13 23  1  0
 14 24  1  0
 14 25  1  0
M  ISO  8  15  14  16  14  17  14  18  13  19  13  20  13  21  13  22  13
M  ISO  3  23  13  24  13  25  13
M  END
>  <minimizedAffinity>  (1) 
-4.22871637

>  <minimizedRMSD>  (1) 
0.550740182

$$$$
