
     RDKit          3D

 27 28  0  0  0  0  0  0  0  0999 V2000
   45.0490   34.5190   45.3090 C   0  0  0  0  0  0  0  0  0  0  0  0
   45.5990   34.6100   44.0190 C   0  0  0  0  0  0  0  0  0  0  0  0
   46.6980   33.8310   43.7150 C   0  0  0  0  0  0  0  0  0  0  0  0
   47.2010   33.0080   44.6820 N   0  0  0  0  0  0  0  0  0  0  0  0
   46.6620   32.9330   45.9150 C   0  0  0  0  0  0  0  0  0  0  0  0
   45.5800   33.6930   46.2280 N   0  0  0  0  0  0  0  0  0  0  0  0
   44.9760   35.5150   43.0910 C   0  0  0  0  0  0  0  0  0  0  0  0
   45.2270   36.7290   43.1820 O   0  0  0  0  0  0  0  0  0  0  0  0
   44.0900   34.9390   42.1060 N   0  0  0  0  0  0  0  0  0  0  0  0
   43.3680   35.6710   41.0870 C   0  0  0  0  0  0  0  0  0  0  0  0
   41.9200   35.2120   41.1560 C   0  0  0  0  0  0  0  0  0  0  0  0
   41.8570   33.7330   40.8930 C   0  0  0  0  0  0  0  0  0  0  0  0
   43.2290   33.0720   40.8940 C   0  0  0  0  0  0  0  0  0  0  0  0
   43.9330   33.4830   42.1740 C   0  0  0  0  0  0  0  0  0  0  0  0
   44.1732   35.1310   45.5704 H   0  0  0  0  0  0  0  0  0  0  0  0
   47.1579   33.8724   42.7166 H   0  0  0  0  0  0  0  0  0  0  0  0
   47.0972   32.2578   46.6665 H   0  0  0  0  0  0  0  0  0  0  0  0
   43.7877   35.4511   40.0943 H   0  0  0  0  0  0  0  0  0  0  0  0
   43.4455   36.7558   41.2519 H   0  0  0  0  0  0  0  0  0  0  0  0
   41.5136   35.4255   42.1556 H   0  0  0  0  0  0  0  0  0  0  0  0
   41.3263   35.7473   40.4004 H   0  0  0  0  0  0  0  0  0  0  0  0
   41.3900   33.5708   39.9104 H   0  0  0  0  0  0  0  0  0  0  0  0
   41.2707   33.2780   41.7050 H   0  0  0  0  0  0  0  0  0  0  0  0
   43.1188   31.9780   40.8607 H   0  0  0  0  0  0  0  0  0  0  0  0
   43.8105   33.3855   40.0145 H   0  0  0  0  0  0  0  0  0  0  0  0
   44.9172   32.9962   42.2409 H   0  0  0  0  0  0  0  0  0  0  0  0
   43.3569   33.1833   43.0619 H   0  0  0  0  0  0  0  0  0  0  0  0
  1  6  2  0
  2  1  1  0
  3  2  2  0
  3  4  1  0
  4  5  2  0
  5  6  1  0
  7  8  2  0
  7  2  1  0
  9 14  1  0
  9  7  1  0
 10 11  1  0
 10  9  1  0
 12 13  1  0
 12 11  1  0
 13 14  1  0
  1 15  1  0
  3 16  1  0
  5 17  1  0
 10 18  1  0
 10 19  1  0
 11 20  1  0
 11 21  1  0
 12 22  1  0
 12 23  1  0
 13 24  1  0
 13 25  1  0
 14 26  1  0
 14 27  1  0
M  ISO  8  15  14  16  14  17  14  18  13  19  13  20  13  21  13  22  13
M  ISO  5  23  13  24  13  25  13  26  13  27  13
M  END
>  <minimizedAffinity>  (1) 
-4.19695902

>  <minimizedRMSD>  (1) 
0.512792766

$$$$
