
     RDKit          3D

 28 29  0  0  0  0  0  0  0  0999 V2000
   44.8150   34.9840   45.2270 C   0  0  0  0  0  0  0  0  0  0  0  0
   45.4690   35.0600   43.9780 C   0  0  0  0  0  0  0  0  0  0  0  0
   46.5270   34.1870   43.7250 C   0  0  0  0  0  0  0  0  0  0  0  0
   46.8810   33.2980   44.6920 N   0  0  0  0  0  0  0  0  0  0  0  0
   46.2340   33.2530   45.8710 C   0  0  0  0  0  0  0  0  0  0  0  0
   45.2140   34.0790   46.1440 N   0  0  0  0  0  0  0  0  0  0  0  0
   45.0330   36.0360   43.0000 C   0  0  0  0  0  0  0  0  0  0  0  0
   45.2270   37.2450   43.3090 O   0  0  0  0  0  0  0  0  0  0  0  0
   44.3940   35.6110   41.7130 C   0  0  0  0  0  0  0  0  0  0  0  0
   45.0860   34.4600   41.0590 C   0  0  0  0  0  0  0  0  0  0  0  0
   44.1770   33.3570   40.6300 C   0  0  0  0  0  0  0  0  0  0  0  0
   42.8830   33.8010   40.0260 C   0  0  0  0  0  0  0  0  0  0  0  0
   42.2410   34.9740   40.6890 C   0  0  0  0  0  0  0  0  0  0  0  0
   42.9450   35.2290   42.0170 C   0  0  0  0  0  0  0  0  0  0  0  0
   43.9796   35.6632   45.4523 H   0  0  0  0  0  0  0  0  0  0  0  0
   47.0632   34.2167   42.7650 H   0  0  0  0  0  0  0  0  0  0  0  0
   46.5496   32.5209   46.6289 H   0  0  0  0  0  0  0  0  0  0  0  0
   44.4601   36.4512   41.0061 H   0  0  0  0  0  0  0  0  0  0  0  0
   45.6140   34.8360   40.1702 H   0  0  0  0  0  0  0  0  0  0  0  0
   45.7644   34.0326   41.8121 H   0  0  0  0  0  0  0  0  0  0  0  0
   44.7092   32.7468   39.8854 H   0  0  0  0  0  0  0  0  0  0  0  0
   43.9149   32.8029   41.5434 H   0  0  0  0  0  0  0  0  0  0  0  0
   43.0711   34.0652   38.9749 H   0  0  0  0  0  0  0  0  0  0  0  0
   42.1843   32.9605   40.1499 H   0  0  0  0  0  0  0  0  0  0  0  0
   42.3339   35.8605   40.0444 H   0  0  0  0  0  0  0  0  0  0  0  0
   41.1743   34.7694   40.8629 H   0  0  0  0  0  0  0  0  0  0  0  0
   42.9197   34.3190   42.6345 H   0  0  0  0  0  0  0  0  0  0  0  0
   42.4426   36.0371   42.5689 H   0  0  0  0  0  0  0  0  0  0  0  0
  1  6  2  0
  2  1  1  0
  3  2  2  0
  3  4  1  0
  4  5  2  0
  5  6  1  0
  7  8  2  0
  7  2  1  0
  9 14  1  0
  9  7  1  0
 10  9  1  0
 11 10  1  0
 12 11  1  0
 12 13  1  0
 13 14  1  0
  1 15  1  0
  3 16  1  0
  5 17  1  0
  9 18  1  0
 10 19  1  0
 10 20  1  0
 11 21  1  0
 11 22  1  0
 12 23  1  0
 12 24  1  0
 13 25  1  0
 13 26  1  0
 14 27  1  0
 14 28  1  0
M  ISO  8  15  14  16  14  17  14  18  13  19  13  20  13  21  13  22  13
M  ISO  6  23  13  24  13  25  13  26  13  27  13  28  13
M  END
>  <minimizedAffinity>  (1) 
-4.16928911

>  <minimizedRMSD>  (1) 
0.285170406

$$$$
