
     RDKit          3D

 14 14  0  0  0  0  0  0  0  0999 V2000
   44.8880   34.9620   45.1910 C   0  0  0  0  0  0  0  0  0  0  0  0
   45.5060   35.0470   43.9320 C   0  0  0  0  0  0  0  0  0  0  0  0
   46.5380   34.1770   43.6360 C   0  0  0  0  0  0  0  0  0  0  0  0
   46.9100   33.2730   44.5850 N   0  0  0  0  0  0  0  0  0  0  0  0
   46.3110   33.2000   45.7920 C   0  0  0  0  0  0  0  0  0  0  0  0
   45.2940   34.0530   46.0890 N   0  0  0  0  0  0  0  0  0  0  0  0
   45.0300   36.0410   43.0050 C   0  0  0  0  0  0  0  0  0  0  0  0
   45.1910   37.2580   43.3010 O   0  0  0  0  0  0  0  0  0  0  0  0
   44.4610   35.2940   41.9160 N   0  0  0  0  0  0  0  0  0  0  0  0
   44.0645   35.6467   45.4419 H   0  0  0  0  0  0  0  0  0  0  0  0
   47.0454   34.2133   42.6607 H   0  0  0  0  0  0  0  0  0  0  0  0
   46.6430   32.4557   46.5308 H   0  0  0  0  0  0  0  0  0  0  0  0
   44.4667   34.2643   41.9394 H   0  0  0  0  0  0  0  0  0  0  0  0
   44.0478   35.7886   41.1126 H   0  0  0  0  0  0  0  0  0  0  0  0
  1  6  2  0
  2  1  1  0
  3  2  2  0
  3  4  1  0
  4  5  2  0
  5  6  1  0
  7  8  2  0
  7  2  1  0
  9  7  1  0
  1 10  1  0
  3 11  1  0
  5 12  1  0
  9 13  1  0
  9 14  1  0
M  ISO  3  10  14  11  14  12  14
M  END
>  <minimizedAffinity>  (1) 
-3.09246039

>  <minimizedRMSD>  (1) 
0.154737532

$$$$
