
     RDKit          3D

 45 48  0  0  1  0  0  0  0  0999 V2000
   49.1080   33.7140   42.6360 C   0  0  2  0  0  0  0  0  0  0  0  0
   47.7150   33.9260   42.4490 C   0  0  2  0  0  0  0  0  0  0  0  0
   47.6340   35.3910   41.9410 C   0  0  0  0  0  0  0  0  0  0  0  0
   48.9980   35.8550   41.5530 C   0  0  0  0  0  0  0  0  0  0  0  0
   49.8220   35.1120   42.5100 C   0  0  0  0  0  0  0  0  0  0  0  0
   49.8500   32.8840   41.6880 C   0  0  0  0  0  0  0  0  0  0  0  0
   49.1600   32.4280   40.5830 C   0  0  0  0  0  0  0  0  0  0  0  0
   49.7510   31.6190   39.6240 C   0  0  0  0  0  0  0  0  0  0  0  0
   51.0860   31.3150   39.8680 N   0  0  0  0  0  0  0  0  0  0  0  0
   51.7480   31.7590   40.9310 C   0  0  0  0  0  0  0  0  0  0  0  0
   51.1180   32.5260   41.8090 N   0  0  0  0  0  0  0  0  0  0  0  0
   46.8420   33.7720   43.6410 C   0  0  0  0  0  0  0  0  0  0  0  0
   45.8860   34.4940   43.8080 O   0  0  0  0  0  0  0  0  0  0  0  0
   46.9650   32.8220   44.7130 C   0  0  0  0  0  0  0  0  0  0  0  0
   46.7620   33.1960   46.0420 C   0  0  0  0  0  0  0  0  0  0  0  0
   46.8890   32.3170   47.1210 C   0  0  0  0  0  0  0  0  0  0  0  0
   47.2380   30.9980   46.8760 C   0  0  0  0  0  0  0  0  0  0  0  0
   47.4470   30.5930   45.5590 C   0  0  0  0  0  0  0  0  0  0  0  0
   47.3010   31.5150   44.5220 C   0  0  0  0  0  0  0  0  0  0  0  0
   47.4580   30.6540   43.3630 C   0  0  0  0  0  0  0  0  0  0  0  0
   48.5420   29.8390   43.0910 C   0  0  0  0  0  0  0  0  0  0  0  0
   48.5010   28.9780   41.9870 C   0  0  0  0  0  0  0  0  0  0  0  0
   47.4050   28.9060   41.1410 C   0  0  0  0  0  0  0  0  0  0  0  0
   46.3020   29.6970   41.3650 C   0  0  0  0  0  0  0  0  0  0  0  0
   46.3910   30.5260   42.4630 C   0  0  0  0  0  0  0  0  0  0  0  0
   49.1296   33.1872   43.6014 H   0  0  0  0  0  0  0  0  0  0  0  0
   47.3333   33.1510   41.7681 H   0  0  0  0  0  0  0  0  0  0  0  0
   46.9669   35.4407   41.0678 H   0  0  0  0  0  0  0  0  0  0  0  0
   47.2387   36.0363   42.7393 H   0  0  0  0  0  0  0  0  0  0  0  0
   49.2383   35.5828   40.5147 H   0  0  0  0  0  0  0  0  0  0  0  0
   49.1345   36.9460   41.5845 H   0  0  0  0  0  0  0  0  0  0  0  0
   50.8477   34.9928   42.1308 H   0  0  0  0  0  0  0  0  0  0  0  0
   49.9099   35.6275   43.4777 H   0  0  0  0  0  0  0  0  0  0  0  0
   48.1057   32.7160   40.4588 H   0  0  0  0  0  0  0  0  0  0  0  0
   49.2081   31.2480   38.7422 H   0  0  0  0  0  0  0  0  0  0  0  0
   52.8050   31.4934   41.0803 H   0  0  0  0  0  0  0  0  0  0  0  0
   46.4869   34.2402   46.2519 H   0  0  0  0  0  0  0  0  0  0  0  0
   46.7146   32.6665   48.1493 H   0  0  0  0  0  0  0  0  0  0  0  0
   47.3479   30.2842   47.7057 H   0  0  0  0  0  0  0  0  0  0  0  0
   47.7256   29.5520   45.3382 H   0  0  0  0  0  0  0  0  0  0  0  0
   49.4312   29.8669   43.7380 H   0  0  0  0  0  0  0  0  0  0  0  0
   49.3703   28.3353   41.7837 H   0  0  0  0  0  0  0  0  0  0  0  0
   47.4174   28.2132   40.2867 H   0  0  0  0  0  0  0  0  0  0  0  0
   45.4144   29.6700   40.7159 H   0  0  0  0  0  0  0  0  0  0  0  0
   45.5173   31.1656   42.6566 H   0  0  0  0  0  0  0  0  0  0  0  0
  2  1  1  0
  2 12  1  0
  3  2  1  0
  4  3  1  0
  4  5  1  0
  5  1  1  0
  6 11  1  0
  6  1  1  0
  7  6  2  0
  8  9  2  0
  8  7  1  0
  9 10  1  0
 10 11  2  0
 12 13  2  0
 12 14  1  0
 14 15  2  0
 15 16  1  0
 17 16  2  0
 18 17  1  0
 19 14  1  0
 19 18  2  0
 20 19  1  0
 21 20  2  0
 22 21  1  0
 23 24  1  0
 23 22  2  0
 24 25  2  0
 25 20  1  0
  1 26  1  1
  2 27  1  6
  3 28  1  0
  3 29  1  0
  4 30  1  0
  4 31  1  0
  5 32  1  0
  5 33  1  0
  7 34  1  0
  8 35  1  0
 10 36  1  0
 15 37  1  0
 16 38  1  0
 17 39  1  0
 18 40  1  0
 21 41  1  0
 22 42  1  0
 23 43  1  0
 24 44  1  0
 25 45  1  0
M  ISO  8  26  13  27  13  28  13  29  13  30  13  31  13  32  13  33  13
M  ISO  8  34  14  35  14  36  14  37  14  38  14  39  14  40  14  41  14
M  ISO  4  42  14  43  14  44  14  45  14
M  END
>  <minimizedAffinity>  (1) 
-5.4218564

>  <minimizedRMSD>  (1) 
0.281734169

$$$$
