
     RDKit          3D

 33 35  0  0  1  0  0  0  0  0999 V2000
   46.7440   32.9410   42.9980 C   0  0  0  0  0  0  0  0  0  0  0  0
   46.3670   31.7410   42.8220 O   0  0  0  0  0  0  0  0  0  0  0  0
   45.6610   33.7860   43.3940 N   0  0  0  0  0  0  0  0  0  0  0  0
   44.4260   33.5910   42.6500 C   0  0  0  0  0  0  0  0  0  0  0  0
   44.0070   35.0200   42.2620 C   0  0  0  0  0  0  0  0  0  0  0  0
   43.6170   35.6090   43.5470 N   0  0  0  0  0  0  0  0  0  0  0  0
   44.8110   35.9180   44.2650 C   0  0  0  0  0  0  0  0  0  0  0  0
   45.7530   34.7480   44.4280 C   0  0  1  0  0  0  0  0  0  0  0  0
   49.0400   32.1600   42.6220 C   0  0  0  0  0  0  0  0  0  0  0  0
   48.1220   33.2190   42.7780 C   0  0  0  0  0  0  0  0  0  0  0  0
   48.6180   34.5030   42.6960 C   0  0  0  0  0  0  0  0  0  0  0  0
   49.9460   34.7190   42.4700 N   0  0  0  0  0  0  0  0  0  0  0  0
   50.7990   33.6760   42.3230 C   0  0  0  0  0  0  0  0  0  0  0  0
   50.3450   32.3960   42.4000 N   0  0  0  0  0  0  0  0  0  0  0  0
   45.4700   34.0820   45.7270 C   0  0  0  0  0  0  0  0  0  0  0  0
   45.9140   32.9390   46.4020 C   0  0  0  0  0  0  0  0  0  0  0  0
   45.2590   32.8550   47.6000 C   0  0  0  0  0  0  0  0  0  0  0  0
   44.4400   33.9190   47.6540 N   0  0  0  0  0  0  0  0  0  0  0  0
   44.5520   34.6490   46.5620 N   0  0  0  0  0  0  0  0  0  0  0  0
   44.5999   32.9761   41.7547 H   0  0  0  0  0  0  0  0  0  0  0  0
   43.6558   33.0631   43.2315 H   0  0  0  0  0  0  0  0  0  0  0  0
   44.8471   35.5704   41.8134 H   0  0  0  0  0  0  0  0  0  0  0  0
   43.2041   35.0477   41.5106 H   0  0  0  0  0  0  0  0  0  0  0  0
   43.0716   36.4681   43.3876 H   0  0  0  0  0  0  0  0  0  0  0  0
   45.3417   36.7163   43.7255 H   0  0  0  0  0  0  0  0  0  0  0  0
   44.5034   36.2209   45.2767 H   0  0  0  0  0  0  0  0  0  0  0  0
   46.7729   35.1580   44.3872 H   0  0  0  0  0  0  0  0  0  0  0  0
   48.6819   31.1217   42.6830 H   0  0  0  0  0  0  0  0  0  0  0  0
   47.9379   35.3595   42.8137 H   0  0  0  0  0  0  0  0  0  0  0  0
   51.8669   33.8661   42.1400 H   0  0  0  0  0  0  0  0  0  0  0  0
   46.6652   32.2264   46.0307 H   0  0  0  0  0  0  0  0  0  0  0  0
   45.3786   32.0738   48.3651 H   0  0  0  0  0  0  0  0  0  0  0  0
   43.8110   34.1346   48.4407 H   0  0  0  0  0  0  0  0  0  0  0  0
  1  3  1  0
  2  1  2  0
  3  8  1  0
  4  3  1  0
  5  4  1  0
  5  6  1  0
  6  7  1  0
  7  8  1  0
  8 15  1  0
  9 10  2  0
 10  1  1  0
 11 10  1  0
 12 11  2  0
 13 14  2  0
 13 12  1  0
 14  9  1  0
 15 16  1  0
 15 19  2  0
 16 17  2  0
 17 18  1  0
 19 18  1  0
  4 20  1  0
  4 21  1  0
  5 22  1  0
  5 23  1  0
  6 24  1  0
  7 25  1  0
  7 26  1  0
  8 27  1  1
  9 28  1  0
 11 29  1  0
 13 30  1  0
 16 31  1  0
 17 32  1  0
 18 33  1  0
M  ISO  8  20  13  21  13  22  13  23  13  24   5  25  13  26  13  27  13
M  ISO  6  28  14  29  14  30  14  31  14  32  14  33   9
M  END
>  <minimizedAffinity>  (1) 
-6.05940294

>  <minimizedRMSD>  (1) 
5.48304558

$$$$
