
     RDKit          3D

 39 41  0  0  1  0  0  0  0  0999 V2000
   45.3380   35.1260   42.8480 C   0  0  0  0  0  0  0  0  0  0  0  0
   45.5740   36.3600   42.9400 O   0  0  0  0  0  0  0  0  0  0  0  0
   44.6070   34.7850   41.6620 N   0  0  0  0  0  0  0  0  0  0  0  0
   43.5080   35.6570   41.3680 C   0  0  0  0  0  0  0  0  0  0  0  0
   42.3640   34.7060   41.0070 C   0  0  0  0  0  0  0  0  0  0  0  0
   42.7750   34.1200   39.7400 N   0  0  0  0  0  0  0  0  0  0  0  0
   43.8000   33.1410   40.0290 C   0  0  0  0  0  0  0  0  0  0  0  0
   44.9290   33.6620   40.8480 C   0  0  1  0  0  0  0  0  0  0  0  0
   46.1340   33.7750   40.0550 N   0  0  0  0  0  0  0  0  0  0  0  0
   46.0510   33.1760   38.8270 C   0  0  0  0  0  0  0  0  0  0  0  0
   47.0600   33.1600   37.9200 C   0  0  0  0  0  0  0  0  0  0  0  0
   46.9300   32.4950   36.5870 C   0  0  0  0  0  0  0  0  0  0  0  0
   48.2540   33.7740   38.2220 C   0  0  0  0  0  0  0  0  0  0  0  0
   49.2280   33.8040   37.4430 O   0  0  0  0  0  0  0  0  0  0  0  0
   48.3030   34.3480   39.4230 N   0  0  0  0  0  0  0  0  0  0  0  0
   47.3090   34.3700   40.3310 C   0  0  0  0  0  0  0  0  0  0  0  0
   47.3520   34.9040   41.4490 O   0  0  0  0  0  0  0  0  0  0  0  0
   45.2180   34.3830   45.1830 C   0  0  0  0  0  0  0  0  0  0  0  0
   45.8180   34.2910   43.9080 C   0  0  0  0  0  0  0  0  0  0  0  0
   46.8460   33.3850   43.7490 C   0  0  0  0  0  0  0  0  0  0  0  0
   47.2430   32.6200   44.8090 N   0  0  0  0  0  0  0  0  0  0  0  0
   46.6470   32.7290   46.0210 C   0  0  0  0  0  0  0  0  0  0  0  0
   45.6300   33.6160   46.2100 N   0  0  0  0  0  0  0  0  0  0  0  0
   43.2471   36.2663   42.2459 H   0  0  0  0  0  0  0  0  0  0  0  0
   43.7371   36.3680   40.5605 H   0  0  0  0  0  0  0  0  0  0  0  0
   42.2450   33.9287   41.7762 H   0  0  0  0  0  0  0  0  0  0  0  0
   41.3938   35.2198   40.9391 H   0  0  0  0  0  0  0  0  0  0  0  0
   43.1512   34.8510   39.1195 H   0  0  0  0  0  0  0  0  0  0  0  0
   43.3354   32.3059   40.5738 H   0  0  0  0  0  0  0  0  0  0  0  0
   44.2261   32.8351   39.0621 H   0  0  0  0  0  0  0  0  0  0  0  0
   45.1504   32.9071   41.6168 H   0  0  0  0  0  0  0  0  0  0  0  0
   45.1081   32.6768   38.5590 H   0  0  0  0  0  0  0  0  0  0  0  0
   46.7208   31.4246   36.7301 H   0  0  0  0  0  0  0  0  0  0  0  0
   46.1053   32.9579   36.0252 H   0  0  0  0  0  0  0  0  0  0  0  0
   47.8683   32.6133   36.0252 H   0  0  0  0  0  0  0  0  0  0  0  0
   49.1823   34.8184   39.6809 H   0  0  0  0  0  0  0  0  0  0  0  0
   44.3961   35.0969   45.3406 H   0  0  0  0  0  0  0  0  0  0  0  0
   47.3436   33.2790   42.7737 H   0  0  0  0  0  0  0  0  0  0  0  0
   46.9857   32.0985   46.8563 H   0  0  0  0  0  0  0  0  0  0  0  0
  1  2  2  0
  1 19  1  0
  3  1  1  0
  4  3  1  0
  5  4  1  0
  6  7  1  0
  6  5  1  0
  7  8  1  0
  8  3  1  0
  9 16  1  0
  9  8  1  0
 10  9  1  0
 11 13  1  0
 11 10  2  0
 12 11  1  0
 13 15  1  0
 14 13  2  0
 15 16  1  0
 16 17  2  0
 18 23  2  0
 19 18  1  0
 20 19  2  0
 20 21  1  0
 21 22  2  0
 22 23  1  0
  4 24  1  0
  4 25  1  0
  5 26  1  0
  5 27  1  0
  6 28  1  0
  7 29  1  0
  7 30  1  0
  8 31  1  1
 10 32  1  0
 12 33  1  0
 12 34  1  0
 12 35  1  0
 15 36  1  0
 18 37  1  0
 20 38  1  0
 22 39  1  0
M  ISO  8  24  13  25  13  26  13  27  13  28   5  29  13  30  13  31  13
M  ISO  8  32  14  33   8  34   8  35   8  36   9  37  14  38  14  39  14
M  END
>  <minimizedAffinity>  (1) 
-5.87663603

>  <minimizedRMSD>  (1) 
1.02978539

$$$$
