
     RDKit          3D

 36 38  0  0  1  0  0  0  0  0999 V2000
   44.8430   35.1790   44.0410 C   0  0  0  0  0  0  0  0  0  0  0  0
   44.8100   36.4250   44.2830 O   0  0  0  0  0  0  0  0  0  0  0  0
   44.4510   34.8840   42.6930 N   0  0  0  0  0  0  0  0  0  0  0  0
   43.3060   35.6180   42.2140 C   0  0  0  0  0  0  0  0  0  0  0  0
   42.4310   34.5260   41.5730 C   0  0  0  0  0  0  0  0  0  0  0  0
   43.1810   34.1590   40.3780 N   0  0  0  0  0  0  0  0  0  0  0  0
   44.2860   33.3420   40.7880 C   0  0  0  0  0  0  0  0  0  0  0  0
   45.1210   33.9400   41.8760 C   0  0  1  0  0  0  0  0  0  0  0  0
   44.6420   34.4610   46.3720 C   0  0  0  0  0  0  0  0  0  0  0  0
   45.2460   34.3220   45.1050 C   0  0  0  0  0  0  0  0  0  0  0  0
   46.2080   33.3440   44.9430 C   0  0  0  0  0  0  0  0  0  0  0  0
   46.5410   32.5460   46.0100 N   0  0  0  0  0  0  0  0  0  0  0  0
   45.9400   32.7080   47.2130 C   0  0  0  0  0  0  0  0  0  0  0  0
   44.9890   33.6640   47.4000 N   0  0  0  0  0  0  0  0  0  0  0  0
   46.4430   34.4010   41.3810 C   0  0  0  0  0  0  0  0  0  0  0  0
   46.9020   34.0660   40.1240 C   0  0  0  0  0  0  0  0  0  0  0  0
   48.1100   34.4570   39.6150 C   0  0  0  0  0  0  0  0  0  0  0  0
   48.9590   35.2450   40.3900 C   0  0  0  0  0  0  0  0  0  0  0  0
   48.5470   35.6060   41.6540 C   0  0  0  0  0  0  0  0  0  0  0  0
   47.3330   35.1900   42.1110 C   0  0  0  0  0  0  0  0  0  0  0  0
   42.7776   36.1102   43.0438 H   0  0  0  0  0  0  0  0  0  0  0  0
   43.5722   36.4236   41.5139 H   0  0  0  0  0  0  0  0  0  0  0  0
   42.3174   33.6647   42.2477 H   0  0  0  0  0  0  0  0  0  0  0  0
   41.4080   34.8657   41.3536 H   0  0  0  0  0  0  0  0  0  0  0  0
   43.5278   35.0072   39.9077 H   0  0  0  0  0  0  0  0  0  0  0  0
   43.8897   32.3805   41.1464 H   0  0  0  0  0  0  0  0  0  0  0  0
   44.9409   33.2331   39.9109 H   0  0  0  0  0  0  0  0  0  0  0  0
   45.3231   33.1115   42.5708 H   0  0  0  0  0  0  0  0  0  0  0  0
   43.8741   35.2340   46.5228 H   0  0  0  0  0  0  0  0  0  0  0  0
   46.7020   33.2059   43.9699 H   0  0  0  0  0  0  0  0  0  0  0  0
   46.2249   32.0566   48.0524 H   0  0  0  0  0  0  0  0  0  0  0  0
   46.2541   33.4436   39.4893 H   0  0  0  0  0  0  0  0  0  0  0  0
   48.4091   34.1517   38.6014 H   0  0  0  0  0  0  0  0  0  0  0  0
   49.9351   35.5710   40.0015 H   0  0  0  0  0  0  0  0  0  0  0  0
   49.1946   36.2267   42.2907 H   0  0  0  0  0  0  0  0  0  0  0  0
   47.0339   35.4968   43.1241 H   0  0  0  0  0  0  0  0  0  0  0  0
  1  2  2  0
  1 10  1  0
  3  1  1  0
  4  3  1  0
  5  4  1  0
  6  7  1  0
  6  5  1  0
  7  8  1  0
  8  3  1  0
  9 14  2  0
 10  9  1  0
 11 10  2  0
 11 12  1  0
 12 13  2  0
 13 14  1  0
 15  8  1  0
 15 20  1  0
 16 15  2  0
 17 16  1  0
 17 18  2  0
 18 19  1  0
 19 20  2  0
  4 21  1  0
  4 22  1  0
  5 23  1  0
  5 24  1  0
  6 25  1  0
  7 26  1  0
  7 27  1  0
  8 28  1  1
  9 29  1  0
 11 30  1  0
 13 31  1  0
 16 32  1  0
 17 33  1  0
 18 34  1  0
 19 35  1  0
 20 36  1  0
M  ISO  8  21  13  22  13  23  13  24  13  25   5  26  13  27  13  28  13
M  ISO  8  29  14  30  14  31  14  32  14  33  14  34  14  35  14  36  14
M  END
>  <minimizedAffinity>  (1) 
-5.66860247

>  <minimizedRMSD>  (1) 
1.26437509

$$$$
