
     RDKit          3D

 36 38  0  0  1  0  0  0  0  0999 V2000
   44.8260   35.1660   44.0700 C   0  0  0  0  0  0  0  0  0  0  0  0
   44.7790   36.4060   44.3380 O   0  0  0  0  0  0  0  0  0  0  0  0
   44.4450   34.8870   42.7300 N   0  0  0  0  0  0  0  0  0  0  0  0
   43.2860   35.6080   42.2560 C   0  0  0  0  0  0  0  0  0  0  0  0
   42.4360   34.5070   41.5920 C   0  0  0  0  0  0  0  0  0  0  0  0
   43.2040   34.1720   40.3960 N   0  0  0  0  0  0  0  0  0  0  0  0
   44.3190   33.3690   40.8040 C   0  0  0  0  0  0  0  0  0  0  0  0
   45.1380   33.9660   41.8960 C   0  0  1  0  0  0  0  0  0  0  0  0
   44.6550   34.4190   46.4030 C   0  0  0  0  0  0  0  0  0  0  0  0
   45.2370   34.3050   45.1250 C   0  0  0  0  0  0  0  0  0  0  0  0
   46.2000   33.3300   44.9730 C   0  0  0  0  0  0  0  0  0  0  0  0
   46.5550   32.5300   46.0070 N   0  0  0  0  0  0  0  0  0  0  0  0
   45.9690   32.6730   47.2220 C   0  0  0  0  0  0  0  0  0  0  0  0
   45.0200   33.6200   47.4100 N   0  0  0  0  0  0  0  0  0  0  0  0
   46.4670   34.4330   41.4240 C   0  0  0  0  0  0  0  0  0  0  0  0
   47.3650   35.2080   42.1300 C   0  0  0  0  0  0  0  0  0  0  0  0
   48.5740   35.6040   41.6380 C   0  0  0  0  0  0  0  0  0  0  0  0
   48.9700   35.2380   40.3710 C   0  0  0  0  0  0  0  0  0  0  0  0
   48.1070   34.4630   39.6280 C   0  0  0  0  0  0  0  0  0  0  0  0
   46.8910   34.0780   40.1550 C   0  0  0  0  0  0  0  0  0  0  0  0
   42.7436   36.0760   43.0907 H   0  0  0  0  0  0  0  0  0  0  0  0
   43.5392   36.4306   41.5710 H   0  0  0  0  0  0  0  0  0  0  0  0
   42.3342   33.6339   42.2533 H   0  0  0  0  0  0  0  0  0  0  0  0
   41.4080   34.8293   41.3697 H   0  0  0  0  0  0  0  0  0  0  0  0
   43.5397   35.0335   39.9421 H   0  0  0  0  0  0  0  0  0  0  0  0
   43.9355   32.3986   41.1522 H   0  0  0  0  0  0  0  0  0  0  0  0
   44.9791   33.2789   39.9287 H   0  0  0  0  0  0  0  0  0  0  0  0
   45.3489   33.1344   42.5845 H   0  0  0  0  0  0  0  0  0  0  0  0
   43.8827   35.1830   46.5758 H   0  0  0  0  0  0  0  0  0  0  0  0
   46.6881   33.1996   43.9959 H   0  0  0  0  0  0  0  0  0  0  0  0
   46.2652   32.0189   48.0553 H   0  0  0  0  0  0  0  0  0  0  0  0
   47.0900   35.5242   43.1471 H   0  0  0  0  0  0  0  0  0  0  0  0
   49.2391   36.2217   42.2594 H   0  0  0  0  0  0  0  0  0  0  0  0
   49.9427   35.5538   39.9659 H   0  0  0  0  0  0  0  0  0  0  0  0
   48.3879   34.1500   38.6116 H   0  0  0  0  0  0  0  0  0  0  0  0
   46.2257   33.4583   39.5359 H   0  0  0  0  0  0  0  0  0  0  0  0
  1  2  2  0
  1 10  1  0
  3  1  1  0
  4  3  1  0
  5  4  1  0
  6  7  1  0
  6  5  1  0
  7  8  1  0
  8  3  1  0
  9 14  2  0
 10  9  1  0
 11 10  2  0
 11 12  1  0
 12 13  2  0
 13 14  1  0
 15  8  1  0
 15 16  2  0
 17 16  1  0
 18 17  2  0
 19 20  2  0
 19 18  1  0
 20 15  1  0
  4 21  1  0
  4 22  1  0
  5 23  1  0
  5 24  1  0
  6 25  1  0
  7 26  1  0
  7 27  1  0
  8 28  1  1
  9 29  1  0
 11 30  1  0
 13 31  1  0
 16 32  1  0
 17 33  1  0
 18 34  1  0
 19 35  1  0
 20 36  1  0
M  ISO  8  21  13  22  13  23  13  24  13  25   5  26  13  27  13  28  13
M  ISO  8  29  14  30  14  31  14  32  14  33  14  34  14  35  14  36  14
M  END
>  <minimizedAffinity>  (1) 
-5.63093328

>  <minimizedRMSD>  (1) 
1.26246154

$$$$
