
     RDKit          3D

 43 46  0  0  1  0  0  0  0  0999 V2000
   47.0300   32.5970   44.4190 C   0  0  2  0  0  0  0  0  0  0  0  0
   47.1480   31.1890   44.5470 C   0  0  2  0  0  0  0  0  0  0  0  0
   45.7790   30.6640   44.0150 C   0  0  0  0  0  0  0  0  0  0  0  0
   45.0770   31.7590   43.3030 C   0  0  0  0  0  0  0  0  0  0  0  0
   45.5260   32.9210   44.0790 C   0  0  0  0  0  0  0  0  0  0  0  0
   47.7540   33.3050   43.3680 C   0  0  0  0  0  0  0  0  0  0  0  0
   47.2410   34.5170   42.9680 C   0  0  0  0  0  0  0  0  0  0  0  0
   47.8170   35.2880   41.9670 C   0  0  0  0  0  0  0  0  0  0  0  0
   48.9600   34.7260   41.4090 N   0  0  0  0  0  0  0  0  0  0  0  0
   49.4560   33.5590   41.7970 C   0  0  0  0  0  0  0  0  0  0  0  0
   48.8460   32.8830   42.7600 N   0  0  0  0  0  0  0  0  0  0  0  0
   47.3760   30.6440   45.9070 C   0  0  0  0  0  0  0  0  0  0  0  0
   48.2950   29.9000   46.1440 O   0  0  0  0  0  0  0  0  0  0  0  0
   46.6020   30.8870   47.0940 C   0  0  0  0  0  0  0  0  0  0  0  0
   46.7300   32.0810   47.8250 C   0  0  0  0  0  0  0  0  0  0  0  0
   46.0400   32.3490   49.0080 C   0  0  0  0  0  0  0  0  0  0  0  0
   45.1720   31.3960   49.5170 C   0  0  0  0  0  0  0  0  0  0  0  0
   45.0230   30.1970   48.8110 C   0  0  0  0  0  0  0  0  0  0  0  0
   45.7360   29.9870   47.6280 C   0  0  0  0  0  0  0  0  0  0  0  0
   45.1980   28.7320   47.1630 C   0  0  0  0  0  0  0  0  0  0  0  0
   45.9200   27.5570   47.4250 C   0  0  0  0  0  0  0  0  0  0  0  0
   45.6570   26.2670   46.9440 C   0  0  0  0  0  0  0  0  0  0  0  0
   44.5820   26.1610   46.1390 N   0  0  0  0  0  0  0  0  0  0  0  0
   43.8650   27.2810   45.8690 C   0  0  0  0  0  0  0  0  0  0  0  0
   44.1550   28.5200   46.3590 N   0  0  0  0  0  0  0  0  0  0  0  0
   47.4542   32.9380   45.3749 H   0  0  0  0  0  0  0  0  0  0  0  0
   48.0492   30.8671   44.0045 H   0  0  0  0  0  0  0  0  0  0  0  0
   45.9506   29.8265   43.3228 H   0  0  0  0  0  0  0  0  0  0  0  0
   45.1635   30.3194   44.8590 H   0  0  0  0  0  0  0  0  0  0  0  0
   45.3935   31.8270   42.2517 H   0  0  0  0  0  0  0  0  0  0  0  0
   43.9847   31.6412   43.2486 H   0  0  0  0  0  0  0  0  0  0  0  0
   45.4500   33.8421   43.4825 H   0  0  0  0  0  0  0  0  0  0  0  0
   44.9162   33.0894   44.9789 H   0  0  0  0  0  0  0  0  0  0  0  0
   46.3335   34.8924   43.4635 H   0  0  0  0  0  0  0  0  0  0  0  0
   47.4061   36.2561   41.6445 H   0  0  0  0  0  0  0  0  0  0  0  0
   50.3641   33.1563   41.3246 H   0  0  0  0  0  0  0  0  0  0  0  0
   47.4157   32.8507   47.4412 H   0  0  0  0  0  0  0  0  0  0  0  0
   46.1835   33.3061   49.5308 H   0  0  0  0  0  0  0  0  0  0  0  0
   44.6163   31.5768   50.4489 H   0  0  0  0  0  0  0  0  0  0  0  0
   44.3434   29.4186   49.1881 H   0  0  0  0  0  0  0  0  0  0  0  0
   46.7941   27.6607   48.0847 H   0  0  0  0  0  0  0  0  0  0  0  0
   46.2842   25.4020   47.2054 H   0  0  0  0  0  0  0  0  0  0  0  0
   42.9900   27.1827   45.2097 H   0  0  0  0  0  0  0  0  0  0  0  0
  1  2  1  0
  2 12  1  0
  3  2  1  0
  4  3  1  0
  4  5  1  0
  5  1  1  0
  6  1  1  0
  7  6  2  0
  8  7  1  0
  9 10  1  0
  9  8  2  0
 10 11  2  0
 11  6  1  0
 12 13  2  0
 12 14  1  0
 14 19  1  0
 14 15  2  0
 15 16  1  0
 16 17  2  0
 18 17  1  0
 19 18  2  0
 20 21  2  0
 20 19  1  0
 22 21  1  0
 23 22  2  0
 24 23  1  0
 24 25  2  0
 25 20  1  0
  1 26  1  1
  2 27  1  6
  3 28  1  0
  3 29  1  0
  4 30  1  0
  4 31  1  0
  5 32  1  0
  5 33  1  0
  7 34  1  0
  8 35  1  0
 10 36  1  0
 15 37  1  0
 16 38  1  0
 17 39  1  0
 18 40  1  0
 21 41  1  0
 22 42  1  0
 24 43  1  0
M  ISO  8  26  13  27  13  28  13  29  13  30  13  31  13  32  13  33  13
M  ISO  8  34  14  35  14  36  14  37  14  38  14  39  14  40  14  41  14
M  ISO  2  42  14  43  14
M  END
>  <minimizedAffinity>  (1) 
-5.42151165

>  <minimizedRMSD>  (1) 
4.5819068

$$$$
