
     RDKit          3D

 37 40  0  0  1  0  0  0  0  0999 V2000
   45.3220   35.1370   43.0840 C   0  0  0  0  0  0  0  0  0  0  0  0
   45.5730   36.3830   43.1280 O   0  0  0  0  0  0  0  0  0  0  0  0
   44.7060   34.7590   41.8470 N   0  0  0  0  0  0  0  0  0  0  0  0
   43.6440   35.6510   41.4040 C   0  0  0  0  0  0  0  0  0  0  0  0
   42.5130   34.7030   41.0180 C   0  0  0  0  0  0  0  0  0  0  0  0
   42.9850   33.9980   39.8400 N   0  0  0  0  0  0  0  0  0  0  0  0
   43.9670   33.0460   40.2520 C   0  0  0  0  0  0  0  0  0  0  0  0
   45.0820   33.6180   41.1020 C   0  0  1  0  0  0  0  0  0  0  0  0
   46.2590   33.8260   40.2460 N   0  0  0  0  0  0  0  0  0  0  0  0
   47.4810   34.3750   40.3190 C   0  0  0  0  0  0  0  0  0  0  0  0
   48.1600   34.2740   39.1900 N   0  0  0  0  0  0  0  0  0  0  0  0
   47.3710   33.6340   38.3200 C   0  0  0  0  0  0  0  0  0  0  0  0
   47.6960   33.3200   37.0180 C   0  0  0  0  0  0  0  0  0  0  0  0
   46.7420   32.6610   36.2980 N   0  0  0  0  0  0  0  0  0  0  0  0
   45.5730   32.3690   36.8980 C   0  0  0  0  0  0  0  0  0  0  0  0
   45.3250   32.7040   38.1660 N   0  0  0  0  0  0  0  0  0  0  0  0
   46.1890   33.3520   38.9660 C   0  0  0  0  0  0  0  0  0  0  0  0
   44.9990   34.5450   45.4410 C   0  0  0  0  0  0  0  0  0  0  0  0
   45.6810   34.3730   44.2230 C   0  0  0  0  0  0  0  0  0  0  0  0
   46.6890   33.4340   44.2010 C   0  0  0  0  0  0  0  0  0  0  0  0
   47.0060   32.7100   45.3080 N   0  0  0  0  0  0  0  0  0  0  0  0
   46.3240   32.9050   46.4630 C   0  0  0  0  0  0  0  0  0  0  0  0
   45.3240   33.8200   46.5300 N   0  0  0  0  0  0  0  0  0  0  0  0
   43.3320   36.3234   42.2167 H   0  0  0  0  0  0  0  0  0  0  0  0
   43.9541   36.3044   40.5752 H   0  0  0  0  0  0  0  0  0  0  0  0
   42.3093   33.9946   41.8345 H   0  0  0  0  0  0  0  0  0  0  0  0
   41.5752   35.2437   40.8224 H   0  0  0  0  0  0  0  0  0  0  0  0
   43.4041   34.6668   39.1782 H   0  0  0  0  0  0  0  0  0  0  0  0
   43.4611   32.2608   40.8329 H   0  0  0  0  0  0  0  0  0  0  0  0
   44.4385   32.6671   39.3332 H   0  0  0  0  0  0  0  0  0  0  0  0
   45.3388   32.8913   41.8868 H   0  0  0  0  0  0  0  0  0  0  0  0
   47.8764   34.8588   41.2243 H   0  0  0  0  0  0  0  0  0  0  0  0
   48.6707   33.5859   36.5830 H   0  0  0  0  0  0  0  0  0  0  0  0
   44.7982   31.8379   36.3257 H   0  0  0  0  0  0  0  0  0  0  0  0
   44.1866   35.2837   45.5061 H   0  0  0  0  0  0  0  0  0  0  0  0
   47.2489   33.2664   43.2691 H   0  0  0  0  0  0  0  0  0  0  0  0
   46.5836   32.3158   47.3549 H   0  0  0  0  0  0  0  0  0  0  0  0
  1  2  2  0
  1 19  1  0
  3  1  1  0
  4  3  1  0
  5  4  1  0
  6  7  1  0
  6  5  1  0
  7  8  1  0
  8  3  1  0
  9 10  1  0
  9  8  1  0
 11 10  2  0
 12 17  2  0
 12 11  1  0
 13 12  1  0
 14 15  1  0
 14 13  2  0
 15 16  2  0
 16 17  1  0
 17  9  1  0
 18 23  2  0
 19 18  1  0
 20 19  2  0
 20 21  1  0
 21 22  2  0
 22 23  1  0
  4 24  1  0
  4 25  1  0
  5 26  1  0
  5 27  1  0
  6 28  1  0
  7 29  1  0
  7 30  1  0
  8 31  1  1
 10 32  1  0
 13 33  1  0
 15 34  1  0
 18 35  1  0
 20 36  1  0
 22 37  1  0
M  ISO  8  24  13  25  13  26  13  27  13  28   5  29  13  30  13  31  13
M  ISO  6  32  14  33  14  34  14  35  14  36  14  37  14
M  END
>  <minimizedAffinity>  (1) 
-5.52470589

>  <minimizedRMSD>  (1) 
0.993794262

$$$$
