
     RDKit          3D

 33 35  0  0  1  0  0  0  0  0999 V2000
   45.0530   35.3150   43.6690 C   0  0  0  0  0  0  0  0  0  0  0  0
   45.0680   36.5620   43.8250 O   0  0  0  0  0  0  0  0  0  0  0  0
   44.8730   34.9690   42.2920 N   0  0  0  0  0  0  0  0  0  0  0  0
   43.8610   35.7100   41.5790 C   0  0  0  0  0  0  0  0  0  0  0  0
   43.0550   34.6140   40.8530 C   0  0  0  0  0  0  0  0  0  0  0  0
   43.9760   34.1260   39.8350 N   0  0  0  0  0  0  0  0  0  0  0  0
   44.9540   33.3060   40.4810 C   0  0  0  0  0  0  0  0  0  0  0  0
   45.6360   33.9520   41.6350 C   0  0  1  0  0  0  0  0  0  0  0  0
   44.5880   34.8910   46.0340 C   0  0  0  0  0  0  0  0  0  0  0  0
   45.2080   34.5050   44.8290 C   0  0  0  0  0  0  0  0  0  0  0  0
   45.9370   33.3330   44.8410 C   0  0  0  0  0  0  0  0  0  0  0  0
   46.0370   32.5970   45.9770 N   0  0  0  0  0  0  0  0  0  0  0  0
   45.4260   32.9960   47.1230 C   0  0  0  0  0  0  0  0  0  0  0  0
   44.7000   34.1470   47.1470 N   0  0  0  0  0  0  0  0  0  0  0  0
   46.9250   34.5320   41.2990 N   0  0  0  0  0  0  0  0  0  0  0  0
   47.5250   34.5270   40.1060 N   0  0  0  0  0  0  0  0  0  0  0  0
   48.6970   35.1450   40.1420 C   0  0  0  0  0  0  0  0  0  0  0  0
   48.8710   35.5790   41.4410 C   0  0  0  0  0  0  0  0  0  0  0  0
   47.7350   35.1720   42.1350 C   0  0  0  0  0  0  0  0  0  0  0  0
   43.2214   36.2719   42.2756 H   0  0  0  0  0  0  0  0  0  0  0  0
   44.2829   36.4575   40.8911 H   0  0  0  0  0  0  0  0  0  0  0  0
   42.7747   33.8081   41.5473 H   0  0  0  0  0  0  0  0  0  0  0  0
   42.1110   34.9882   40.4301 H   0  0  0  0  0  0  0  0  0  0  0  0
   44.4378   34.9213   39.3712 H   0  0  0  0  0  0  0  0  0  0  0  0
   44.4540   32.3956   40.8432 H   0  0  0  0  0  0  0  0  0  0  0  0
   45.7332   33.1000   39.7324 H   0  0  0  0  0  0  0  0  0  0  0  0
   45.7669   33.1036   42.3227 H   0  0  0  0  0  0  0  0  0  0  0  0
   44.0003   35.8204   46.0640 H   0  0  0  0  0  0  0  0  0  0  0  0
   46.4403   32.9932   43.9238 H   0  0  0  0  0  0  0  0  0  0  0  0
   45.5183   32.3869   48.0343 H   0  0  0  0  0  0  0  0  0  0  0  0
   49.3937   35.2846   39.3023 H   0  0  0  0  0  0  0  0  0  0  0  0
   49.7312   36.1330   41.8449 H   0  0  0  0  0  0  0  0  0  0  0  0
   47.5397   35.3513   43.2026 H   0  0  0  0  0  0  0  0  0  0  0  0
  1  2  2  0
  1 10  1  0
  3  1  1  0
  4  3  1  0
  5  4  1  0
  6  7  1  0
  6  5  1  0
  7  8  1  0
  8  3  1  0
  9 14  2  0
 10 11  2  0
 10  9  1  0
 11 12  1  0
 12 13  2  0
 13 14  1  0
 15  8  1  0
 15 19  1  0
 16 17  2  0
 16 15  1  0
 17 18  1  0
 18 19  2  0
  4 20  1  0
  4 21  1  0
  5 22  1  0
  5 23  1  0
  6 24  1  0
  7 25  1  0
  7 26  1  0
  8 27  1  1
  9 28  1  0
 11 29  1  0
 13 30  1  0
 17 31  1  0
 18 32  1  0
 19 33  1  0
M  ISO  8  20  13  21  13  22  13  23  13  24   5  25  13  26  13  27  13
M  ISO  6  28  14  29  14  30  14  31  14  32  14  33  14
M  END
>  <minimizedAffinity>  (1) 
-5.3253746

>  <minimizedRMSD>  (1) 
1.12090385

$$$$
