
     RDKit          3D

 42 44  0  0  1  0  0  0  0  0999 V2000
   45.5470   33.6770   44.2300 C   0  0  0  0  0  0  0  0  0  0  0  0
   45.5610   34.7280   44.9460 O   0  0  0  0  0  0  0  0  0  0  0  0
   45.3970   33.9890   42.8380 N   0  0  0  0  0  0  0  0  0  0  0  0
   44.3860   34.9550   42.5280 C   0  0  0  0  0  0  0  0  0  0  0  0
   43.6240   34.3180   41.3480 C   0  0  0  0  0  0  0  0  0  0  0  0
   44.5850   34.3840   40.2600 N   0  0  0  0  0  0  0  0  0  0  0  0
   45.5700   33.3570   40.4760 C   0  0  0  0  0  0  0  0  0  0  0  0
   46.1930   33.3690   41.8420 C   0  0  1  0  0  0  0  0  0  0  0  0
   46.0050   32.4040   46.2670 C   0  0  0  0  0  0  0  0  0  0  0  0
   45.6780   32.4360   44.9080 C   0  0  0  0  0  0  0  0  0  0  0  0
   45.4880   31.2200   44.2870 C   0  0  0  0  0  0  0  0  0  0  0  0
   45.6150   30.0490   44.9680 N   0  0  0  0  0  0  0  0  0  0  0  0
   45.9340   30.0620   46.2860 C   0  0  0  0  0  0  0  0  0  0  0  0
   46.1280   31.2420   46.9350 N   0  0  0  0  0  0  0  0  0  0  0  0
   47.5840   33.8970   41.8670 C   0  0  0  0  0  0  0  0  0  0  0  0
   48.5080   33.3040   42.8660 C   0  0  0  0  0  0  0  0  0  0  0  0
   49.9320   33.7280   42.4750 C   0  0  0  0  0  0  0  0  0  0  0  0
   50.0820   35.2100   42.3840 C   0  0  0  0  0  0  0  0  0  0  0  0
   48.9960   35.8630   41.5600 C   0  0  0  0  0  0  0  0  0  0  0  0
   47.6210   35.4130   42.0340 C   0  0  0  0  0  0  0  0  0  0  0  0
   43.7177   35.1133   43.3872 H   0  0  0  0  0  0  0  0  0  0  0  0
   44.8009   35.9442   42.2843 H   0  0  0  0  0  0  0  0  0  0  0  0
   43.3510   33.2760   41.5709 H   0  0  0  0  0  0  0  0  0  0  0  0
   42.6768   34.8284   41.1194 H   0  0  0  0  0  0  0  0  0  0  0  0
   45.0396   35.3082   40.2503 H   0  0  0  0  0  0  0  0  0  0  0  0
   45.0862   32.3803   40.3277 H   0  0  0  0  0  0  0  0  0  0  0  0
   46.3829   33.5477   39.7598 H   0  0  0  0  0  0  0  0  0  0  0  0
   46.2496   32.3015   42.1013 H   0  0  0  0  0  0  0  0  0  0  0  0
   46.1656   33.3510   46.8030 H   0  0  0  0  0  0  0  0  0  0  0  0
   45.2282   31.1959   43.2184 H   0  0  0  0  0  0  0  0  0  0  0  0
   46.0365   29.1134   46.8334 H   0  0  0  0  0  0  0  0  0  0  0  0
   47.9557   33.5881   40.8789 H   0  0  0  0  0  0  0  0  0  0  0  0
   48.2661   33.6780   43.8718 H   0  0  0  0  0  0  0  0  0  0  0  0
   48.4168   32.2079   42.8802 H   0  0  0  0  0  0  0  0  0  0  0  0
   50.6337   33.3482   43.2322 H   0  0  0  0  0  0  0  0  0  0  0  0
   50.1445   33.3087   41.4805 H   0  0  0  0  0  0  0  0  0  0  0  0
   50.0506   35.6288   43.4007 H   0  0  0  0  0  0  0  0  0  0  0  0
   51.0413   35.4141   41.8859 H   0  0  0  0  0  0  0  0  0  0  0  0
   49.1245   35.5818   40.5043 H   0  0  0  0  0  0  0  0  0  0  0  0
   49.0713   36.9544   41.6746 H   0  0  0  0  0  0  0  0  0  0  0  0
   46.8355   35.8825   41.4236 H   0  0  0  0  0  0  0  0  0  0  0  0
   47.4443   35.7039   43.0800 H   0  0  0  0  0  0  0  0  0  0  0  0
  1 10  1  0
  1  2  2  0
  3  1  1  0
  4  3  1  0
  5  4  1  0
  6  7  1  0
  6  5  1  0
  7  8  1  0
  8 15  1  0
  8  3  1  0
  9 14  2  0
 10  9  1  0
 11 10  2  0
 11 12  1  0
 12 13  2  0
 13 14  1  0
 15 20  1  0
 15 16  1  0
 17 16  1  0
 18 17  1  0
 19 20  1  0
 19 18  1  0
  4 21  1  0
  4 22  1  0
  5 23  1  0
  5 24  1  0
  6 25  1  0
  7 26  1  0
  7 27  1  0
  8 28  1  1
  9 29  1  0
 11 30  1  0
 13 31  1  0
 15 32  1  0
 16 33  1  0
 16 34  1  0
 17 35  1  0
 17 36  1  0
 18 37  1  0
 18 38  1  0
 19 39  1  0
 19 40  1  0
 20 41  1  0
 20 42  1  0
M  ISO  8  21  13  22  13  23  13  24  13  25   5  26  13  27  13  28  13
M  ISO  8  29  14  30  14  31  14  32  13  33  13  34  13  35  13  36  13
M  ISO  6  37  13  38  13  39  13  40  13  41  13  42  13
M  END
>  <minimizedAffinity>  (1) 
-5.2949667

>  <minimizedRMSD>  (1) 
2.29820848

$$$$
