
     RDKit          3D

 33 35  0  0  1  0  0  0  0  0999 V2000
   45.1710   35.2870   43.0690 C   0  0  0  0  0  0  0  0  0  0  0  0
   45.3060   36.5330   43.1740 O   0  0  0  0  0  0  0  0  0  0  0  0
   44.5590   34.9180   41.8290 N   0  0  0  0  0  0  0  0  0  0  0  0
   43.4420   35.7340   41.4160 C   0  0  0  0  0  0  0  0  0  0  0  0
   42.3840   34.6890   41.0050 C   0  0  0  0  0  0  0  0  0  0  0  0
   42.9200   34.1270   39.7760 N   0  0  0  0  0  0  0  0  0  0  0  0
   44.0050   33.2570   40.1090 C   0  0  0  0  0  0  0  0  0  0  0  0
   45.0100   33.8140   41.0400 C   0  0  1  0  0  0  0  0  0  0  0  0
   44.9840   34.5770   45.4020 C   0  0  0  0  0  0  0  0  0  0  0  0
   45.6300   34.4810   44.1530 C   0  0  0  0  0  0  0  0  0  0  0  0
   46.6850   33.5950   44.0400 C   0  0  0  0  0  0  0  0  0  0  0  0
   47.0590   32.8520   45.1230 N   0  0  0  0  0  0  0  0  0  0  0  0
   46.4150   32.9690   46.3120 C   0  0  0  0  0  0  0  0  0  0  0  0
   45.3720   33.8340   46.4550 N   0  0  0  0  0  0  0  0  0  0  0  0
   46.3310   34.0760   40.4180 C   0  0  0  0  0  0  0  0  0  0  0  0
   47.3540   34.6830   41.1310 C   0  0  0  0  0  0  0  0  0  0  0  0
   48.4360   34.7910   40.3050 N   0  0  0  0  0  0  0  0  0  0  0  0
   48.1000   34.2650   39.1050 C   0  0  0  0  0  0  0  0  0  0  0  0
   46.8080   33.8270   39.1780 N   0  0  0  0  0  0  0  0  0  0  0  0
   43.0798   36.3583   42.2461 H   0  0  0  0  0  0  0  0  0  0  0  0
   43.6935   36.4377   40.6088 H   0  0  0  0  0  0  0  0  0  0  0  0
   42.2767   33.9135   41.7777 H   0  0  0  0  0  0  0  0  0  0  0  0
   41.3815   35.1230   40.8756 H   0  0  0  0  0  0  0  0  0  0  0  0
   43.2575   34.8850   39.1658 H   0  0  0  0  0  0  0  0  0  0  0  0
   43.5832   32.3513   40.5691 H   0  0  0  0  0  0  0  0  0  0  0  0
   44.5401   33.0701   39.1663 H   0  0  0  0  0  0  0  0  0  0  0  0
   45.1602   32.9915   41.7547 H   0  0  0  0  0  0  0  0  0  0  0  0
   44.1426   35.2759   45.5189 H   0  0  0  0  0  0  0  0  0  0  0  0
   47.2195   33.4892   43.0844 H   0  0  0  0  0  0  0  0  0  0  0  0
   46.7383   32.3594   47.1687 H   0  0  0  0  0  0  0  0  0  0  0  0
   47.3028   35.0183   42.1774 H   0  0  0  0  0  0  0  0  0  0  0  0
   48.7540   34.2010   38.2228 H   0  0  0  0  0  0  0  0  0  0  0  0
   46.2830   33.3799   38.4129 H   0  0  0  0  0  0  0  0  0  0  0  0
  1  2  2  0
  1 10  1  0
  3  1  1  0
  4  3  1  0
  5  4  1  0
  6  7  1  0
  6  5  1  0
  7  8  1  0
  8  3  1  0
  9 14  2  0
 10  9  1  0
 11 10  2  0
 11 12  1  0
 12 13  2  0
 13 14  1  0
 15  8  1  0
 15 16  2  0
 17 16  1  0
 18 19  1  0
 18 17  2  0
 19 15  1  0
  4 20  1  0
  4 21  1  0
  5 22  1  0
  5 23  1  0
  6 24  1  0
  7 25  1  0
  7 26  1  0
  8 27  1  1
  9 28  1  0
 11 29  1  0
 13 30  1  0
 16 31  1  0
 18 32  1  0
 19 33  1  0
M  ISO  8  20  13  21  13  22  13  23  13  24   5  25  13  26  13  27  13
M  ISO  6  28  14  29  14  30  14  31  14  32  14  33   9
M  END
>  <minimizedAffinity>  (1) 
-5.26771927

>  <minimizedRMSD>  (1) 
0.521028817

$$$$
