
     RDKit          3D

 36 38  0  0  1  0  0  0  0  0999 V2000
   45.9820   31.2220   47.1620 C   0  0  2  0  0  0  0  0  0  0  0  0
   44.6900   35.0500   45.7930 C   0  0  0  0  0  0  0  0  0  0  0  0
   44.4970   35.6720   44.5440 C   0  0  0  0  0  0  0  0  0  0  0  0
   45.0730   35.0710   43.4050 C   0  0  0  0  0  0  0  0  0  0  0  0
   45.7720   33.9370   43.5880 N   0  0  0  0  0  0  0  0  0  0  0  0
   45.9530   33.3480   44.7990 C   0  0  0  0  0  0  0  0  0  0  0  0
   45.4120   33.9090   45.8810 N   0  0  0  0  0  0  0  0  0  0  0  0
   46.6980   32.1560   44.9870 N   0  0  0  0  0  0  0  0  0  0  0  0
   47.5730   31.8420   43.9840 C   0  0  0  0  0  0  0  0  0  0  0  0
   48.1810   30.6620   44.3950 C   0  0  0  0  0  0  0  0  0  0  0  0
   47.6770   30.2940   45.6060 N   0  0  0  0  0  0  0  0  0  0  0  0
   46.7770   31.2160   45.9460 C   0  0  0  0  0  0  0  0  0  0  0  0
   46.7080   32.1230   48.1820 C   0  0  0  0  0  0  0  0  0  0  0  0
   45.9100   29.8520   47.7800 C   0  0  0  0  0  0  0  0  0  0  0  0
   44.9620   28.9270   47.1660 C   0  0  0  0  0  0  0  0  0  0  0  0
   44.0950   29.0610   46.1040 C   0  0  0  0  0  0  0  0  0  0  0  0
   43.2660   28.0400   45.6940 C   0  0  0  0  0  0  0  0  0  0  0  0
   43.2440   26.8110   46.3150 C   0  0  0  0  0  0  0  0  0  0  0  0
   44.1010   26.6460   47.3820 C   0  0  0  0  0  0  0  0  0  0  0  0
   44.9180   27.6660   47.7790 C   0  0  0  0  0  0  0  0  0  0  0  0
   44.9671   31.5678   46.9161 H   0  0  0  0  0  0  0  0  0  0  0  0
   44.2524   35.4932   46.6997 H   0  0  0  0  0  0  0  0  0  0  0  0
   43.9134   36.6005   44.4591 H   0  0  0  0  0  0  0  0  0  0  0  0
   44.9547   35.5134   42.4049 H   0  0  0  0  0  0  0  0  0  0  0  0
   47.7557   32.4014   43.0547 H   0  0  0  0  0  0  0  0  0  0  0  0
   48.9486   30.1116   43.8312 H   0  0  0  0  0  0  0  0  0  0  0  0
   46.4503   31.8032   49.2024 H   0  0  0  0  0  0  0  0  0  0  0  0
   47.7951   32.0407   48.0355 H   0  0  0  0  0  0  0  0  0  0  0  0
   46.3964   33.1677   48.0355 H   0  0  0  0  0  0  0  0  0  0  0  0
   46.9111   29.4004   47.7172 H   0  0  0  0  0  0  0  0  0  0  0  0
   45.5527   30.0068   48.8088 H   0  0  0  0  0  0  0  0  0  0  0  0
   44.0634   30.0185   45.5634 H   0  0  0  0  0  0  0  0  0  0  0  0
   42.5965   28.2129   44.8385 H   0  0  0  0  0  0  0  0  0  0  0  0
   42.5777   26.0035   45.9774 H   0  0  0  0  0  0  0  0  0  0  0  0
   44.1271   25.6856   47.9177 H   0  0  0  0  0  0  0  0  0  0  0  0
   45.5850   27.4870   48.6352 H   0  0  0  0  0  0  0  0  0  0  0  0
  1 14  1  0
  1 13  1  0
  2  7  2  0
  3  2  1  0
  4  5  1  0
  4  3  2  0
  5  6  2  0
  6  8  1  0
  6  7  1  0
  8 12  1  0
  9 10  2  0
  9  8  1  0
 10 11  1  0
 11 12  2  0
 12  1  1  0
 15 20  1  0
 15 14  1  0
 16 15  2  0
 17 16  1  0
 17 18  2  0
 18 19  1  0
 19 20  2  0
  1 21  1  6
  2 22  1  0
  3 23  1  0
  4 24  1  0
  9 25  1  0
 10 26  1  0
 13 27  1  0
 13 28  1  0
 13 29  1  0
 14 30  1  0
 14 31  1  0
 16 32  1  0
 17 33  1  0
 18 34  1  0
 19 35  1  0
 20 36  1  0
M  ISO  8  21   8  22  14  23  14  24  14  25  14  26  14  27   8  28   8
M  ISO  8  29   8  30   8  31   8  32  14  33  14  34  14  35  14  36  14
M  END
>  <minimizedAffinity>  (1) 
-4.92755318

>  <minimizedRMSD>  (1) 
1.04785967

$$$$
