
     RDKit          3D

 34 36  0  0  1  0  0  0  0  0999 V2000
   45.1350   35.1810   42.9920 C   0  0  0  0  0  0  0  0  0  0  0  0
   45.3820   36.4110   43.0090 O   0  0  0  0  0  0  0  0  0  0  0  0
   44.3690   34.7980   41.8440 N   0  0  0  0  0  0  0  0  0  0  0  0
   43.2780   35.6850   41.5060 C   0  0  0  0  0  0  0  0  0  0  0  0
   42.1050   34.7130   41.2610 C   0  0  0  0  0  0  0  0  0  0  0  0
   42.4700   34.0600   40.0110 N   0  0  0  0  0  0  0  0  0  0  0  0
   43.4990   33.1040   40.2960 C   0  0  0  0  0  0  0  0  0  0  0  0
   44.6440   33.6270   41.0770 C   0  0  1  0  0  0  0  0  0  0  0  0
   45.0250   34.5120   45.3440 C   0  0  0  0  0  0  0  0  0  0  0  0
   45.6350   34.3960   44.0760 C   0  0  0  0  0  0  0  0  0  0  0  0
   46.6870   33.5100   43.9460 C   0  0  0  0  0  0  0  0  0  0  0  0
   47.0960   32.7880   45.0280 N   0  0  0  0  0  0  0  0  0  0  0  0
   46.4850   32.9270   46.2300 C   0  0  0  0  0  0  0  0  0  0  0  0
   45.4440   33.7900   46.3970 N   0  0  0  0  0  0  0  0  0  0  0  0
   45.8950   33.7410   40.2860 C   0  0  0  0  0  0  0  0  0  0  0  0
   46.0130   33.1330   39.0600 C   0  0  0  0  0  0  0  0  0  0  0  0
   47.1590   33.1990   38.2710 C   0  0  0  0  0  0  0  0  0  0  0  0
   48.2220   33.8920   38.7170 N   0  0  0  0  0  0  0  0  0  0  0  0
   48.1140   34.4860   39.9090 C   0  0  0  0  0  0  0  0  0  0  0  0
   47.0010   34.4110   40.6580 N   0  0  0  0  0  0  0  0  0  0  0  0
   43.0555   36.3723   42.3355 H   0  0  0  0  0  0  0  0  0  0  0  0
   43.4949   36.3298   40.6416 H   0  0  0  0  0  0  0  0  0  0  0  0
   42.0213   33.9817   42.0784 H   0  0  0  0  0  0  0  0  0  0  0  0
   41.1287   35.2177   41.2152 H   0  0  0  0  0  0  0  0  0  0  0  0
   42.8185   34.7593   39.3399 H   0  0  0  0  0  0  0  0  0  0  0  0
   43.0480   32.2773   40.8645 H   0  0  0  0  0  0  0  0  0  0  0  0
   43.9078   32.7948   39.3227 H   0  0  0  0  0  0  0  0  0  0  0  0
   44.8209   32.8435   41.8286 H   0  0  0  0  0  0  0  0  0  0  0  0
   44.1856   35.2110   45.4732 H   0  0  0  0  0  0  0  0  0  0  0  0
   47.1913   33.3878   42.9761 H   0  0  0  0  0  0  0  0  0  0  0  0
   46.8360   32.3322   47.0862 H   0  0  0  0  0  0  0  0  0  0  0  0
   45.1536   32.5614   38.6796 H   0  0  0  0  0  0  0  0  0  0  0  0
   47.1942   32.6910   37.2959 H   0  0  0  0  0  0  0  0  0  0  0  0
   48.9707   35.0595   40.2926 H   0  0  0  0  0  0  0  0  0  0  0  0
  1  2  2  0
  1 10  1  0
  3  1  1  0
  4  3  1  0
  5  4  1  0
  6  7  1  0
  6  5  1  0
  7  8  1  0
  8  3  1  0
  9 14  2  0
 10  9  1  0
 11 10  2  0
 11 12  1  0
 12 13  2  0
 13 14  1  0
 15 20  1  0
 15  8  1  0
 16 15  2  0
 17 18  2  0
 17 16  1  0
 18 19  1  0
 19 20  2  0
  4 21  1  0
  4 22  1  0
  5 23  1  0
  5 24  1  0
  6 25  1  0
  7 26  1  0
  7 27  1  0
  8 28  1  1
  9 29  1  0
 11 30  1  0
 13 31  1  0
 16 32  1  0
 17 33  1  0
 19 34  1  0
M  ISO  8  21  13  22  13  23  13  24  13  25   5  26  13  27  13  28  13
M  ISO  6  29  14  30  14  31  14  32  14  33  14  34  14
M  END
>  <minimizedAffinity>  (1) 
-5.15599108

>  <minimizedRMSD>  (1) 
1.02646923

$$$$
