
     RDKit          3D

 42 45  0  0  1  0  0  0  0  0999 V2000
   49.1140   33.7120   42.6210 C   0  0  2  0  0  0  0  0  0  0  0  0
   47.7240   33.9340   42.4400 C   0  0  2  0  0  0  0  0  0  0  0  0
   47.6540   35.4110   41.9450 C   0  0  0  0  0  0  0  0  0  0  0  0
   49.0100   35.8550   41.5390 C   0  0  0  0  0  0  0  0  0  0  0  0
   49.8330   35.1060   42.4970 C   0  0  0  0  0  0  0  0  0  0  0  0
   49.8550   32.8850   41.6750 C   0  0  0  0  0  0  0  0  0  0  0  0
   49.1680   32.4190   40.5780 C   0  0  0  0  0  0  0  0  0  0  0  0
   49.7450   31.6070   39.6120 C   0  0  0  0  0  0  0  0  0  0  0  0
   51.0840   31.3130   39.8510 N   0  0  0  0  0  0  0  0  0  0  0  0
   51.7510   31.7660   40.9040 C   0  0  0  0  0  0  0  0  0  0  0  0
   51.1230   32.5350   41.7830 N   0  0  0  0  0  0  0  0  0  0  0  0
   46.8490   33.7850   43.6280 C   0  0  0  0  0  0  0  0  0  0  0  0
   45.9170   34.5210   43.8260 O   0  0  0  0  0  0  0  0  0  0  0  0
   46.9530   32.8070   44.6750 C   0  0  0  0  0  0  0  0  0  0  0  0
   46.7520   33.1500   46.0190 C   0  0  0  0  0  0  0  0  0  0  0  0
   46.8860   32.2700   47.0990 C   0  0  0  0  0  0  0  0  0  0  0  0
   47.2500   30.9560   46.8330 C   0  0  0  0  0  0  0  0  0  0  0  0
   47.4590   30.5790   45.5010 C   0  0  0  0  0  0  0  0  0  0  0  0
   47.2980   31.5110   44.4700 C   0  0  0  0  0  0  0  0  0  0  0  0
   47.2570   30.6610   43.2830 C   0  0  0  0  0  0  0  0  0  0  0  0
   48.2060   29.7050   42.9230 C   0  0  0  0  0  0  0  0  0  0  0  0
   47.9350   29.0590   41.7440 C   0  0  0  0  0  0  0  0  0  0  0  0
   46.7610   29.6730   41.3990 C   0  0  0  0  0  0  0  0  0  0  0  0
   46.4270   30.5600   42.2930 O   0  0  0  0  0  0  0  0  0  0  0  0
   49.1303   33.1774   43.5822 H   0  0  0  0  0  0  0  0  0  0  0  0
   47.3390   33.1625   41.7569 H   0  0  0  0  0  0  0  0  0  0  0  0
   46.9719   35.4786   41.0846 H   0  0  0  0  0  0  0  0  0  0  0  0
   47.2820   36.0548   42.7556 H   0  0  0  0  0  0  0  0  0  0  0  0
   49.2363   35.5719   40.5004 H   0  0  0  0  0  0  0  0  0  0  0  0
   49.1610   36.9444   41.5574 H   0  0  0  0  0  0  0  0  0  0  0  0
   50.8582   34.9833   42.1175 H   0  0  0  0  0  0  0  0  0  0  0  0
   49.9231   35.6199   43.4654 H   0  0  0  0  0  0  0  0  0  0  0  0
   48.1118   32.7034   40.4612 H   0  0  0  0  0  0  0  0  0  0  0  0
   49.1944   31.2302   38.7374 H   0  0  0  0  0  0  0  0  0  0  0  0
   52.8107   31.5074   41.0463 H   0  0  0  0  0  0  0  0  0  0  0  0
   46.4675   34.1890   46.2417 H   0  0  0  0  0  0  0  0  0  0  0  0
   46.7080   32.6095   48.1301 H   0  0  0  0  0  0  0  0  0  0  0  0
   47.3711   30.2290   47.6496 H   0  0  0  0  0  0  0  0  0  0  0  0
   47.7511   29.5453   45.2639 H   0  0  0  0  0  0  0  0  0  0  0  0
   49.0956   29.4876   43.5323 H   0  0  0  0  0  0  0  0  0  0  0  0
   48.5001   28.2716   41.2237 H   0  0  0  0  0  0  0  0  0  0  0  0
   46.1800   29.4485   40.4923 H   0  0  0  0  0  0  0  0  0  0  0  0
  2  1  1  0
  2 12  1  0
  3  2  1  0
  4  3  1  0
  4  5  1  0
  5  1  1  0
  6 11  1  0
  6  1  1  0
  7  6  2  0
  8  9  2  0
  8  7  1  0
  9 10  1  0
 10 11  2  0
 12 13  2  0
 12 14  1  0
 14 15  2  0
 15 16  1  0
 17 16  2  0
 18 17  1  0
 19 14  1  0
 19 18  2  0
 20 19  1  0
 21 20  2  0
 22 21  1  0
 23 22  2  0
 23 24  1  0
 24 20  1  0
  1 25  1  1
  2 26  1  6
  3 27  1  0
  3 28  1  0
  4 29  1  0
  4 30  1  0
  5 31  1  0
  5 32  1  0
  7 33  1  0
  8 34  1  0
 10 35  1  0
 15 36  1  0
 16 37  1  0
 17 38  1  0
 18 39  1  0
 21 40  1  0
 22 41  1  0
 23 42  1  0
M  ISO  8  25  13  26  13  27  13  28  13  29  13  30  13  31  13  32  13
M  ISO  8  33  14  34  14  35  14  36  14  37  14  38  14  39  14  40  14
M  ISO  2  41  14  42  14
M  END
>  <minimizedAffinity>  (1) 
-5.36271858

>  <minimizedRMSD>  (1) 
0.241698742

$$$$
