
     RDKit          3D

 32 33  0  0  1  0  0  0  0  0999 V2000
   45.8860   34.5190   43.6610 C   0  0  0  0  0  0  0  0  0  0  0  0
   45.2050   35.5540   43.9490 O   0  0  0  0  0  0  0  0  0  0  0  0
   46.2250   34.4790   42.2700 N   0  0  0  0  0  0  0  0  0  0  0  0
   45.1420   34.8250   41.3670 C   0  0  0  0  0  0  0  0  0  0  0  0
   45.1700   33.6920   40.3210 C   0  0  0  0  0  0  0  0  0  0  0  0
   46.4090   33.9500   39.5870 N   0  0  0  0  0  0  0  0  0  0  0  0
   47.5010   33.5170   40.4040 C   0  0  0  0  0  0  0  0  0  0  0  0
   47.5060   34.1310   41.7850 C   0  0  1  0  0  0  0  0  0  0  0  0
   45.5210   33.7730   45.9660 C   0  0  0  0  0  0  0  0  0  0  0  0
   46.1760   33.6220   44.7260 C   0  0  0  0  0  0  0  0  0  0  0  0
   47.0760   32.5850   44.5980 C   0  0  0  0  0  0  0  0  0  0  0  0
   47.3020   31.7460   45.6610 N   0  0  0  0  0  0  0  0  0  0  0  0
   46.6560   31.9220   46.8330 C   0  0  0  0  0  0  0  0  0  0  0  0
   45.7620   32.9380   46.9890 N   0  0  0  0  0  0  0  0  0  0  0  0
   48.4470   35.3050   41.7170 C   0  0  0  0  0  0  0  0  0  0  0  0
   49.7320   35.1360   42.4500 C   0  0  0  0  0  0  0  0  0  0  0  0
   44.1789   34.8463   41.8980 H   0  0  0  0  0  0  0  0  0  0  0  0
   45.2587   35.8235   40.9205 H   0  0  0  0  0  0  0  0  0  0  0  0
   45.1971   32.7058   40.8075 H   0  0  0  0  0  0  0  0  0  0  0  0
   44.2796   33.6769   39.6753 H   0  0  0  0  0  0  0  0  0  0  0  0
   46.4061   33.4263   38.7000 H   0  0  0  0  0  0  0  0  0  0  0  0
   47.4434   32.4236   40.5101 H   0  0  0  0  0  0  0  0  0  0  0  0
   48.4255   33.8415   39.9041 H   0  0  0  0  0  0  0  0  0  0  0  0
   47.8472   33.3893   42.5222 H   0  0  0  0  0  0  0  0  0  0  0  0
   44.7981   34.5916   46.0974 H   0  0  0  0  0  0  0  0  0  0  0  0
   47.6102   32.4308   43.6489 H   0  0  0  0  0  0  0  0  0  0  0  0
   46.8536   31.2376   47.6712 H   0  0  0  0  0  0  0  0  0  0  0  0
   48.6818   35.4910   40.6586 H   0  0  0  0  0  0  0  0  0  0  0  0
   47.9257   36.1404   42.2072 H   0  0  0  0  0  0  0  0  0  0  0  0
   49.5422   35.1610   43.5332 H   0  0  0  0  0  0  0  0  0  0  0  0
   50.1844   34.1706   42.1791 H   0  0  0  0  0  0  0  0  0  0  0  0
   50.4186   35.9516   42.1791 H   0  0  0  0  0  0  0  0  0  0  0  0
  1  2  2  0
  1 10  1  0
  3  1  1  0
  4  3  1  0
  5  4  1  0
  6  5  1  0
  6  7  1  0
  7  8  1  0
  8  3  1  0
  9 14  2  0
 10  9  1  0
 11 10  2  0
 11 12  1  0
 12 13  2  0
 13 14  1  0
 15  8  1  0
 15 16  1  0
  4 17  1  0
  4 18  1  0
  5 19  1  0
  5 20  1  0
  6 21  1  0
  7 22  1  0
  7 23  1  0
  8 24  1  1
  9 25  1  0
 11 26  1  0
 13 27  1  0
 15 28  1  0
 15 29  1  0
 16 30  1  0
 16 31  1  0
 16 32  1  0
M  ISO  8  17  13  18  13  19  13  20  13  21   5  22  13  23  13  24  13
M  ISO  8  25  14  26  14  27  14  28   8  29   8  30   8  31   8  32   8
M  END
>  <minimizedAffinity>  (1) 
-4.7732172

>  <minimizedRMSD>  (1) 
1.97584188

$$$$
