
     RDKit          3D

 27 28  0  0  1  0  0  0  0  0999 V2000
   45.2370   35.3620   42.9920 C   0  0  0  0  0  0  0  0  0  0  0  0
   45.2410   36.6120   43.2030 O   0  0  0  0  0  0  0  0  0  0  0  0
   44.7480   35.0550   41.6840 N   0  0  0  0  0  0  0  0  0  0  0  0
   43.5850   35.7810   41.2580 C   0  0  0  0  0  0  0  0  0  0  0  0
   42.6700   34.6750   40.6880 C   0  0  0  0  0  0  0  0  0  0  0  0
   43.3370   34.2790   39.4640 N   0  0  0  0  0  0  0  0  0  0  0  0
   44.4900   33.4950   39.8020 C   0  0  0  0  0  0  0  0  0  0  0  0
   45.3750   34.0760   40.8390 C   0  0  1  0  0  0  0  0  0  0  0  0
   45.0330   34.5500   45.2900 C   0  0  0  0  0  0  0  0  0  0  0  0
   45.6970   34.5210   44.0470 C   0  0  0  0  0  0  0  0  0  0  0  0
   46.7700   33.6640   43.9010 C   0  0  0  0  0  0  0  0  0  0  0  0
   47.1530   32.8780   44.9560 N   0  0  0  0  0  0  0  0  0  0  0  0
   46.4960   32.9270   46.1400 C   0  0  0  0  0  0  0  0  0  0  0  0
   45.4350   33.7650   46.3080 N   0  0  0  0  0  0  0  0  0  0  0  0
   46.6240   34.4860   40.3740 O   0  0  0  0  0  0  0  0  0  0  0  0
   43.1057   36.2916   42.1063 H   0  0  0  0  0  0  0  0  0  0  0  0
   43.8127   36.5720   40.5283 H   0  0  0  0  0  0  0  0  0  0  0  0
   42.5953   33.8284   41.3863 H   0  0  0  0  0  0  0  0  0  0  0  0
   41.6381   35.0175   40.5212 H   0  0  0  0  0  0  0  0  0  0  0  0
   43.6288   35.1172   38.9414 H   0  0  0  0  0  0  0  0  0  0  0  0
   44.1404   32.5169   40.1641 H   0  0  0  0  0  0  0  0  0  0  0  0
   45.0957   33.4380   38.8855 H   0  0  0  0  0  0  0  0  0  0  0  0
   45.5779   33.2167   41.4951 H   0  0  0  0  0  0  0  0  0  0  0  0
   44.1745   35.2232   45.4306 H   0  0  0  0  0  0  0  0  0  0  0  0
   47.3128   33.6128   42.9456 H   0  0  0  0  0  0  0  0  0  0  0  0
   46.8217   32.2853   46.9719 H   0  0  0  0  0  0  0  0  0  0  0  0
   47.2153   34.6801   41.1439 H   0  0  0  0  0  0  0  0  0  0  0  0
  1  2  2  0
  1 10  1  0
  3  1  1  0
  4  3  1  0
  5  4  1  0
  6  7  1  0
  6  5  1  0
  7  8  1  0
  8  3  1  0
  9 14  2  0
 10  9  1  0
 11 10  2  0
 11 12  1  0
 12 13  2  0
 13 14  1  0
 15  8  1  0
  4 16  1  0
  4 17  1  0
  5 18  1  0
  5 19  1  0
  6 20  1  0
  7 21  1  0
  7 22  1  0
  8 23  1  1
  9 24  1  0
 11 25  1  0
 13 26  1  0
 15 27  1  0
M  ISO  8  16  13  17  13  18  13  19  13  20   5  21  13  22  13  23  13
M  ISO  4  24  14  25  14  26  14  27   3
M  END
>  <minimizedAffinity>  (1) 
-4.6027298

>  <minimizedRMSD>  (1) 
0.0538452715

$$$$
