
     RDKit          3D

 28 29  0  0  1  0  0  0  0  0999 V2000
   45.2890   35.3400   42.9820 C   0  0  0  0  0  0  0  0  0  0  0  0
   45.3280   36.5860   43.1730 O   0  0  0  0  0  0  0  0  0  0  0  0
   44.7880   35.0220   41.6810 N   0  0  0  0  0  0  0  0  0  0  0  0
   43.6520   35.7900   41.2410 C   0  0  0  0  0  0  0  0  0  0  0  0
   42.6910   34.7160   40.6960 C   0  0  0  0  0  0  0  0  0  0  0  0
   43.3330   34.2510   39.4840 N   0  0  0  0  0  0  0  0  0  0  0  0
   44.4430   33.4250   39.8410 C   0  0  0  0  0  0  0  0  0  0  0  0
   45.3640   34.0020   40.8500 C   0  0  1  0  0  0  0  0  0  0  0  0
   45.0460   34.5400   45.2770 C   0  0  0  0  0  0  0  0  0  0  0  0
   45.7270   34.4990   44.0430 C   0  0  0  0  0  0  0  0  0  0  0  0
   46.7930   33.6280   43.9270 C   0  0  0  0  0  0  0  0  0  0  0  0
   47.1410   32.8500   44.9930 N   0  0  0  0  0  0  0  0  0  0  0  0
   46.4640   32.9140   46.1660 C   0  0  0  0  0  0  0  0  0  0  0  0
   45.4100   33.7640   46.3140 N   0  0  0  0  0  0  0  0  0  0  0  0
   46.6410   34.4290   40.3760 N   0  0  0  0  0  0  0  0  0  0  0  0
   43.1971   36.3374   42.0797 H   0  0  0  0  0  0  0  0  0  0  0  0
   43.9115   36.5554   40.4948 H   0  0  0  0  0  0  0  0  0  0  0  0
   42.5752   33.8934   41.4170 H   0  0  0  0  0  0  0  0  0  0  0  0
   41.6791   35.1073   40.5147 H   0  0  0  0  0  0  0  0  0  0  0  0
   43.6636   35.0577   38.9356 H   0  0  0  0  0  0  0  0  0  0  0  0
   44.0481   32.4800   40.2424 H   0  0  0  0  0  0  0  0  0  0  0  0
   45.0367   33.3003   38.9234 H   0  0  0  0  0  0  0  0  0  0  0  0
   45.5467   33.1131   41.4717 H   0  0  0  0  0  0  0  0  0  0  0  0
   44.1937   35.2253   45.3951 H   0  0  0  0  0  0  0  0  0  0  0  0
   47.3560   33.5621   42.9843 H   0  0  0  0  0  0  0  0  0  0  0  0
   46.7690   32.2732   47.0064 H   0  0  0  0  0  0  0  0  0  0  0  0
   47.2539   34.6340   41.1780 H   0  0  0  0  0  0  0  0  0  0  0  0
   47.0619   33.6830   39.8040 H   0  0  0  0  0  0  0  0  0  0  0  0
  1  2  2  0
  1 10  1  0
  3  1  1  0
  4  3  1  0
  5  4  1  0
  6  7  1  0
  6  5  1  0
  7  8  1  0
  8  3  1  0
  9 14  2  0
 10  9  1  0
 11 10  2  0
 11 12  1  0
 12 13  2  0
 13 14  1  0
 15  8  1  0
  4 16  1  0
  4 17  1  0
  5 18  1  0
  5 19  1  0
  6 20  1  0
  7 21  1  0
  7 22  1  0
  8 23  1  1
  9 24  1  0
 11 25  1  0
 13 26  1  0
 15 27  1  0
 15 28  1  0
M  ISO  8  16  13  17  13  18  13  19  13  20   5  21  13  22  13  23  13
M  ISO  5  24  14  25  14  26  14  27   5  28   5
M  END
>  <minimizedAffinity>  (1) 
-4.52784348

>  <minimizedRMSD>  (1) 
0.112081677

$$$$
