
     RDKit          3D

 35 37  0  0  1  0  0  0  0  0999 V2000
   46.8980   34.3120   42.3170 C   0  0  0  0  0  0  0  0  0  0  0  0
   47.3720   35.4490   42.0010 O   0  0  0  0  0  0  0  0  0  0  0  0
   46.9550   33.3960   41.2230 N   0  0  0  0  0  0  0  0  0  0  0  0
   46.5350   33.9400   39.9420 C   0  0  0  0  0  0  0  0  0  0  0  0
   45.5670   32.8700   39.4020 C   0  0  0  0  0  0  0  0  0  0  0  0
   46.4480   31.7420   39.1000 N   0  0  0  0  0  0  0  0  0  0  0  0
   46.7740   31.1170   40.3460 C   0  0  0  0  0  0  0  0  0  0  0  0
   47.3810   32.0510   41.3490 C   0  0  1  0  0  0  0  0  0  0  0  0
   45.3350   34.9500   44.0920 C   0  0  0  0  0  0  0  0  0  0  0  0
   46.4150   34.1610   43.6470 C   0  0  0  0  0  0  0  0  0  0  0  0
   46.9630   33.2600   44.5350 C   0  0  0  0  0  0  0  0  0  0  0  0
   46.4470   33.1600   45.8060 N   0  0  0  0  0  0  0  0  0  0  0  0
   45.4070   33.9370   46.1940 C   0  0  0  0  0  0  0  0  0  0  0  0
   44.8440   34.8370   45.3390 N   0  0  0  0  0  0  0  0  0  0  0  0
   48.8610   31.9580   41.2120 C   0  0  0  0  0  0  0  0  0  0  0  0
   49.7360   32.2440   42.2360 C   0  0  0  0  0  0  0  0  0  0  0  0
   51.1060   32.1680   42.1420 C   0  0  0  0  0  0  0  0  0  0  0  0
   51.6610   31.7700   40.9210 C   0  0  0  0  0  0  0  0  0  0  0  0
   50.7830   31.4830   39.8950 C   0  0  0  0  0  0  0  0  0  0  0  0
   49.4470   31.5740   40.0400 N   0  0  0  0  0  0  0  0  0  0  0  0
   46.0228   34.9047   40.0726 H   0  0  0  0  0  0  0  0  0  0  0  0
   47.3768   34.1405   39.2629 H   0  0  0  0  0  0  0  0  0  0  0  0
   44.8203   32.5947   40.1614 H   0  0  0  0  0  0  0  0  0  0  0  0
   44.9903   33.2117   38.5299 H   0  0  0  0  0  0  0  0  0  0  0  0
   45.9656   31.0719   38.4842 H   0  0  0  0  0  0  0  0  0  0  0  0
   45.8523   30.6976   40.7756 H   0  0  0  0  0  0  0  0  0  0  0  0
   47.5266   30.3442   40.1304 H   0  0  0  0  0  0  0  0  0  0  0  0
   47.0423   31.7406   42.3485 H   0  0  0  0  0  0  0  0  0  0  0  0
   44.8821   35.6768   43.4016 H   0  0  0  0  0  0  0  0  0  0  0  0
   47.8076   32.6251   44.2290 H   0  0  0  0  0  0  0  0  0  0  0  0
   45.0106   33.8399   47.2155 H   0  0  0  0  0  0  0  0  0  0  0  0
   49.3078   32.5562   43.2000 H   0  0  0  0  0  0  0  0  0  0  0  0
   51.7468   32.4130   43.0019 H   0  0  0  0  0  0  0  0  0  0  0  0
   52.7495   31.6893   40.7844 H   0  0  0  0  0  0  0  0  0  0  0  0
   51.1897   31.1682   38.9226 H   0  0  0  0  0  0  0  0  0  0  0  0
  1 10  1  0
  2  1  2  0
  3  8  1  0
  3  1  1  0
  4  3  1  0
  5  4  1  0
  6  5  1  0
  6  7  1  0
  7  8  1  0
  9 14  2  0
 10  9  1  0
 10 11  2  0
 11 12  1  0
 12 13  2  0
 14 13  1  0
 15  8  1  0
 15 16  2  0
 17 16  1  0
 18 17  2  0
 19 20  2  0
 19 18  1  0
 20 15  1  0
  4 21  1  0
  4 22  1  0
  5 23  1  0
  5 24  1  0
  6 25  1  0
  7 26  1  0
  7 27  1  0
  8 28  1  1
  9 29  1  0
 11 30  1  0
 13 31  1  0
 16 32  1  0
 17 33  1  0
 18 34  1  0
 19 35  1  0
M  ISO  8  21  13  22  13  23  13  24  13  25   5  26  13  27  13  28  13
M  ISO  7  29  14  30  14  31  14  32  14  33  14  34  14  35  14
M  END
>  <minimizedAffinity>  (1) 
-4.38992786

>  <minimizedRMSD>  (1) 
3.46911168

$$$$
