
     RDKit          3D

 27 28  0  0  1  0  0  0  0  0999 V2000
   45.4520   35.1150   43.0590 C   0  0  0  0  0  0  0  0  0  0  0  0
   45.3770   36.3720   43.2330 O   0  0  0  0  0  0  0  0  0  0  0  0
   45.1810   34.7490   41.7150 N   0  0  0  0  0  0  0  0  0  0  0  0
   44.0720   35.4340   41.0900 C   0  0  0  0  0  0  0  0  0  0  0  0
   43.2670   34.2860   40.4460 C   0  0  0  0  0  0  0  0  0  0  0  0
   44.1150   33.8350   39.3570 N   0  0  0  0  0  0  0  0  0  0  0  0
   45.2050   33.0920   39.9010 C   0  0  0  0  0  0  0  0  0  0  0  0
   45.9380   33.7660   41.0030 C   0  0  1  0  0  0  0  0  0  0  0  0
   45.0470   34.5030   45.3980 C   0  0  0  0  0  0  0  0  0  0  0  0
   45.7820   34.3330   44.2060 C   0  0  0  0  0  0  0  0  0  0  0  0
   46.7970   33.3970   44.2070 C   0  0  0  0  0  0  0  0  0  0  0  0
   47.0490   32.6800   45.3430 N   0  0  0  0  0  0  0  0  0  0  0  0
   46.3180   32.8740   46.4690 C   0  0  0  0  0  0  0  0  0  0  0  0
   45.3090   33.7900   46.5080 N   0  0  0  0  0  0  0  0  0  0  0  0
   47.5430   34.4400   40.4990 S   0  0  0  0  0  0  0  0  0  0  0  0
   43.4674   35.9692   41.8370 H   0  0  0  0  0  0  0  0  0  0  0  0
   44.3898   36.1979   40.3651 H   0  0  0  0  0  0  0  0  0  0  0  0
   43.0939   33.4754   41.1691 H   0  0  0  0  0  0  0  0  0  0  0  0
   42.2710   34.6048   40.1049 H   0  0  0  0  0  0  0  0  0  0  0  0
   44.4752   34.6490   38.8387 H   0  0  0  0  0  0  0  0  0  0  0  0
   44.8103   32.1402   40.2861 H   0  0  0  0  0  0  0  0  0  0  0  0
   45.9293   32.9663   39.0827 H   0  0  0  0  0  0  0  0  0  0  0  0
   46.1239   32.9452   41.7113 H   0  0  0  0  0  0  0  0  0  0  0  0
   44.2332   35.2427   45.4204 H   0  0  0  0  0  0  0  0  0  0  0  0
   47.3979   33.2297   43.3010 H   0  0  0  0  0  0  0  0  0  0  0  0
   46.5436   32.2811   47.3676 H   0  0  0  0  0  0  0  0  0  0  0  0
   48.2786   34.7489   41.6127 H   0  0  0  0  0  0  0  0  0  0  0  0
  1  2  2  0
  1 10  1  0
  3  1  1  0
  4  3  1  0
  5  4  1  0
  6  7  1  0
  6  5  1  0
  7  8  1  0
  8  3  1  0
  9 14  2  0
 10 11  2  0
 10  9  1  0
 11 12  1  0
 12 13  2  0
 13 14  1  0
 15  8  1  0
  4 16  1  0
  4 17  1  0
  5 18  1  0
  5 19  1  0
  6 20  1  0
  7 21  1  0
  7 22  1  0
  8 23  1  1
  9 24  1  0
 11 25  1  0
 13 26  1  0
 15 27  1  0
M  ISO  8  16  13  17  13  18  13  19  13  20   5  21  13  22  13  23  13
M  ISO  4  24  14  25  14  26  14  27  11
M  END
>  <minimizedAffinity>  (1) 
-4.26052713

>  <minimizedRMSD>  (1) 
0.549715221

$$$$
