
     RDKit          3D

 19 20  0  0  0  0  0  0  0  0999 V2000
   44.4630   35.9660   44.7500 C   0  0  0  0  0  0  0  0  0  0  0  0
   44.7680   35.7110   43.4110 C   0  0  0  0  0  0  0  0  0  0  0  0
   45.4230   34.5260   43.0740 C   0  0  0  0  0  0  0  0  0  0  0  0
   45.7240   33.6870   44.0980 N   0  0  0  0  0  0  0  0  0  0  0  0
   45.4240   33.9440   45.3950 C   0  0  0  0  0  0  0  0  0  0  0  0
   44.7910   35.0930   45.6950 N   0  0  0  0  0  0  0  0  0  0  0  0
   45.7870   34.1500   41.7570 N   0  0  0  0  0  0  0  0  0  0  0  0
   45.2250   33.4300   40.7780 C   0  0  0  0  0  0  0  0  0  0  0  0
   46.0180   33.3830   39.7010 N   0  0  0  0  0  0  0  0  0  0  0  0
   47.1150   34.1040   40.0280 C   0  0  0  0  0  0  0  0  0  0  0  0
   46.9760   34.5810   41.3010 N   0  0  0  0  0  0  0  0  0  0  0  0
   48.3130   34.3740   39.1890 C   0  0  0  0  0  0  0  0  0  0  0  0
   43.9467   36.8979   45.0239 H   0  0  0  0  0  0  0  0  0  0  0  0
   44.4948   36.4365   42.6306 H   0  0  0  0  0  0  0  0  0  0  0  0
   45.6925   33.2280   46.1858 H   0  0  0  0  0  0  0  0  0  0  0  0
   44.2418   32.9418   40.8495 H   0  0  0  0  0  0  0  0  0  0  0  0
   49.1791   34.5692   39.8385 H   0  0  0  0  0  0  0  0  0  0  0  0
   48.5205   33.5001   38.5540 H   0  0  0  0  0  0  0  0  0  0  0  0
   48.1255   35.2524   38.5540 H   0  0  0  0  0  0  0  0  0  0  0  0
  1  6  2  0
  2  1  1  0
  3  2  2  0
  3  4  1  0
  4  5  2  0
  5  6  1  0
  7  3  1  0
  8  7  1  0
  9 10  1  0
  9  8  2  0
 10 11  2  0
 11  7  1  0
 12 10  1  0
  1 13  1  0
  2 14  1  0
  5 15  1  0
  8 16  1  0
 12 17  1  0
 12 18  1  0
 12 19  1  0
M  ISO  7  13  14  14  14  15  14  16  14  17   8  18   8  19   8
M  END
>  <minimizedAffinity>  (1) 
-3.76810575

>  <minimizedRMSD>  (1) 
1.26058221

$$$$
