
     RDKit          3D

 32 34  0  0  0  0  0  0  0  0999 V2000
   47.0970   34.0370   42.5070 N   0  0  0  0  0  0  0  0  0  0  0  0
   48.0440   33.0790   42.4200 C   0  0  0  0  0  0  0  0  0  0  0  0
   48.5850   33.0730   41.2060 N   0  0  0  0  0  0  0  0  0  0  0  0
   47.9560   34.0620   40.5070 C   0  0  0  0  0  0  0  0  0  0  0  0
   47.0280   34.6570   41.3310 N   0  0  0  0  0  0  0  0  0  0  0  0
   44.5660   35.9100   44.5360 C   0  0  0  0  0  0  0  0  0  0  0  0
   45.3850   35.5780   43.4410 C   0  0  0  0  0  0  0  0  0  0  0  0
   46.2240   34.4800   43.5380 C   0  0  0  0  0  0  0  0  0  0  0  0
   46.1930   33.7940   44.7060 N   0  0  0  0  0  0  0  0  0  0  0  0
   45.4010   34.1210   45.7550 C   0  0  0  0  0  0  0  0  0  0  0  0
   44.5970   35.1870   45.6390 N   0  0  0  0  0  0  0  0  0  0  0  0
   48.1650   34.5000   39.1090 C   0  0  0  0  0  0  0  0  0  0  0  0
   48.0490   33.3610   38.1610 C   0  0  0  0  0  0  0  0  0  0  0  0
   46.6710   33.3040   37.5610 C   0  0  0  0  0  0  0  0  0  0  0  0
   46.8860   32.3770   36.3670 C   0  0  0  0  0  0  0  0  0  0  0  0
   48.2170   32.7990   35.8410 C   0  0  0  0  0  0  0  0  0  0  0  0
   48.9290   33.5340   36.9370 C   0  0  0  0  0  0  0  0  0  0  0  0
   48.3276   32.3999   43.2375 H   0  0  0  0  0  0  0  0  0  0  0  0
   43.8948   36.7791   44.4718 H   0  0  0  0  0  0  0  0  0  0  0  0
   45.3594   36.1814   42.5216 H   0  0  0  0  0  0  0  0  0  0  0  0
   45.4173   33.5259   46.6800 H   0  0  0  0  0  0  0  0  0  0  0  0
   47.4082   35.2565   38.8540 H   0  0  0  0  0  0  0  0  0  0  0  0
   49.1788   34.9185   39.0251 H   0  0  0  0  0  0  0  0  0  0  0  0
   48.3200   32.4770   38.7569 H   0  0  0  0  0  0  0  0  0  0  0  0
   45.9432   32.8817   38.2695 H   0  0  0  0  0  0  0  0  0  0  0  0
   46.2624   34.2890   37.2913 H   0  0  0  0  0  0  0  0  0  0  0  0
   46.9033   31.3237   36.6838 H   0  0  0  0  0  0  0  0  0  0  0  0
   46.0844   32.4476   35.6171 H   0  0  0  0  0  0  0  0  0  0  0  0
   48.7995   31.9147   35.5432 H   0  0  0  0  0  0  0  0  0  0  0  0
   48.0952   33.4459   34.9597 H   0  0  0  0  0  0  0  0  0  0  0  0
   49.9241   33.0989   37.1115 H   0  0  0  0  0  0  0  0  0  0  0  0
   49.0881   34.5937   36.6886 H   0  0  0  0  0  0  0  0  0  0  0  0
  1  8  1  0
  2  1  1  0
  3  2  2  0
  4  3  1  0
  4  5  2  0
  5  1  1  0
  6 11  2  0
  7  8  2  0
  7  6  1  0
  8  9  1  0
  9 10  2  0
 11 10  1  0
 12  4  1  0
 13 12  1  0
 14 13  1  0
 15 14  1  0
 16 15  1  0
 16 17  1  0
 17 13  1  0
  2 18  1  0
  6 19  1  0
  7 20  1  0
 10 21  1  0
 12 22  1  0
 12 23  1  0
 13 24  1  0
 14 25  1  0
 14 26  1  0
 15 27  1  0
 15 28  1  0
 16 29  1  0
 16 30  1  0
 17 31  1  0
 17 32  1  0
M  ISO  8  18  14  19  14  20  14  21  14  22   8  23   8  24  13  25  13
M  ISO  7  26  13  27  13  28  13  29  13  30  13  31  13  32  13
M  END
>  <minimizedAffinity>  (1) 
-4.66075993

>  <minimizedRMSD>  (1) 
1.34917903

$$$$
