
     RDKit          3D

 26 28  0  0  0  0  0  0  0  0999 V2000
   45.8640   34.2290   41.8870 N   0  0  0  0  0  0  0  0  0  0  0  0
   45.3380   33.4690   40.9030 C   0  0  0  0  0  0  0  0  0  0  0  0
   46.1390   33.4550   39.8320 N   0  0  0  0  0  0  0  0  0  0  0  0
   47.1990   34.2350   40.1730 C   0  0  0  0  0  0  0  0  0  0  0  0
   47.0230   34.7130   41.4480 N   0  0  0  0  0  0  0  0  0  0  0  0
   44.4440   35.9530   44.8800 C   0  0  0  0  0  0  0  0  0  0  0  0
   44.7820   35.7440   43.5300 C   0  0  0  0  0  0  0  0  0  0  0  0
   45.4600   34.5830   43.1970 C   0  0  0  0  0  0  0  0  0  0  0  0
   45.7550   33.7150   44.2140 N   0  0  0  0  0  0  0  0  0  0  0  0
   45.4170   33.9420   45.5080 C   0  0  0  0  0  0  0  0  0  0  0  0
   44.7630   35.0640   45.8190 N   0  0  0  0  0  0  0  0  0  0  0  0
   48.3860   34.5520   39.3520 C   0  0  0  0  0  0  0  0  0  0  0  0
   48.2710   33.8880   38.0350 C   0  0  0  0  0  0  0  0  0  0  0  0
   49.1450   32.8770   37.6850 C   0  0  0  0  0  0  0  0  0  0  0  0
   48.7980   32.4700   36.4420 N   0  0  0  0  0  0  0  0  0  0  0  0
   47.7380   33.1950   36.0100 C   0  0  0  0  0  0  0  0  0  0  0  0
   47.4450   34.0510   37.0110 N   0  0  0  0  0  0  0  0  0  0  0  0
   44.3797   32.9334   40.9727 H   0  0  0  0  0  0  0  0  0  0  0  0
   43.9056   36.8688   45.1654 H   0  0  0  0  0  0  0  0  0  0  0  0
   44.5150   36.4828   42.7600 H   0  0  0  0  0  0  0  0  0  0  0  0
   45.6777   33.2129   46.2893 H   0  0  0  0  0  0  0  0  0  0  0  0
   48.4516   35.6406   39.2085 H   0  0  0  0  0  0  0  0  0  0  0  0
   49.2907   34.1926   39.8642 H   0  0  0  0  0  0  0  0  0  0  0  0
   49.9661   32.4789   38.2993 H   0  0  0  0  0  0  0  0  0  0  0  0
   47.2225   33.1044   35.0425 H   0  0  0  0  0  0  0  0  0  0  0  0
   46.6802   34.7404   36.9832 H   0  0  0  0  0  0  0  0  0  0  0  0
  1  8  1  0
  2  1  1  0
  3  4  1  0
  3  2  2  0
  4  5  2  0
  5  1  1  0
  6 11  2  0
  7  6  1  0
  8  7  2  0
  8  9  1  0
  9 10  2  0
 10 11  1  0
 12  4  1  0
 13 12  1  0
 14 13  2  0
 15 14  1  0
 16 15  2  0
 16 17  1  0
 17 13  1  0
  2 18  1  0
  6 19  1  0
  7 20  1  0
 10 21  1  0
 12 22  1  0
 12 23  1  0
 14 24  1  0
 16 25  1  0
 17 26  1  0
M  ISO  8  18  14  19  14  20  14  21  14  22   8  23   8  24  14  25  14
M  ISO  1  26   9
M  END
>  <minimizedAffinity>  (1) 
-4.56101179

>  <minimizedRMSD>  (1) 
1.95302105

$$$$
