
     RDKit          3D

 26 28  0  0  0  0  0  0  0  0999 V2000
   46.9040   33.9160   42.3760 N   0  0  0  0  0  0  0  0  0  0  0  0
   47.5140   32.7720   42.0780 C   0  0  0  0  0  0  0  0  0  0  0  0
   48.1390   32.8720   40.8960 N   0  0  0  0  0  0  0  0  0  0  0  0
   47.9070   34.1160   40.4500 C   0  0  0  0  0  0  0  0  0  0  0  0
   47.1370   34.7780   41.3650 N   0  0  0  0  0  0  0  0  0  0  0  0
   44.5740   35.8980   44.5450 C   0  0  0  0  0  0  0  0  0  0  0  0
   45.3010   35.5370   43.4100 C   0  0  0  0  0  0  0  0  0  0  0  0
   46.1110   34.3980   43.4570 C   0  0  0  0  0  0  0  0  0  0  0  0
   46.1270   33.7200   44.6270 N   0  0  0  0  0  0  0  0  0  0  0  0
   45.4190   34.0740   45.7270 C   0  0  0  0  0  0  0  0  0  0  0  0
   44.6470   35.1730   45.6550 N   0  0  0  0  0  0  0  0  0  0  0  0
   48.3840   34.7140   39.1880 C   0  0  0  0  0  0  0  0  0  0  0  0
   48.1480   33.8300   38.0630 N   0  0  0  0  0  0  0  0  0  0  0  0
   49.0600   33.2630   37.2830 N   0  0  0  0  0  0  0  0  0  0  0  0
   48.4730   32.5060   36.3410 C   0  0  0  0  0  0  0  0  0  0  0  0
   47.0880   32.5940   36.5290 C   0  0  0  0  0  0  0  0  0  0  0  0
   46.9520   33.4320   37.6150 C   0  0  0  0  0  0  0  0  0  0  0  0
   47.5067   31.8724   42.7110 H   0  0  0  0  0  0  0  0  0  0  0  0
   43.9339   36.7923   44.5199 H   0  0  0  0  0  0  0  0  0  0  0  0
   45.2379   36.1395   42.4918 H   0  0  0  0  0  0  0  0  0  0  0  0
   45.4741   33.4801   46.6513 H   0  0  0  0  0  0  0  0  0  0  0  0
   47.8518   35.6614   39.0169 H   0  0  0  0  0  0  0  0  0  0  0  0
   49.4672   34.8856   39.2731 H   0  0  0  0  0  0  0  0  0  0  0  0
   48.9872   31.9227   35.5629 H   0  0  0  0  0  0  0  0  0  0  0  0
   46.2929   32.1072   35.9453 H   0  0  0  0  0  0  0  0  0  0  0  0
   45.9894   33.7330   38.0542 H   0  0  0  0  0  0  0  0  0  0  0  0
  1  8  1  0
  2  1  1  0
  3  2  2  0
  4  3  1  0
  4  5  2  0
  5  1  1  0
  6 11  2  0
  7  8  2  0
  7  6  1  0
  8  9  1  0
  9 10  2  0
 11 10  1  0
 12  4  1  0
 13 12  1  0
 14 13  1  0
 15 16  1  0
 15 14  2  0
 16 17  2  0
 17 13  1  0
  2 18  1  0
  6 19  1  0
  7 20  1  0
 10 21  1  0
 12 22  1  0
 12 23  1  0
 15 24  1  0
 16 25  1  0
 17 26  1  0
M  ISO  8  18  14  19  14  20  14  21  14  22   8  23   8  24  14  25  14
M  ISO  1  26  14
M  END
>  <minimizedAffinity>  (1) 
-4.30967617

>  <minimizedRMSD>  (1) 
2.14315152

$$$$
