
     RDKit          3D

 26 28  0  0  0  0  0  0  0  0999 V2000
   46.0410   33.5370   41.6560 N   0  0  0  0  0  0  0  0  0  0  0  0
   46.0140   32.2800   41.2160 C   0  0  0  0  0  0  0  0  0  0  0  0
   46.5950   32.1950   40.0080 N   0  0  0  0  0  0  0  0  0  0  0  0
   46.9940   33.4380   39.6930 C   0  0  0  0  0  0  0  0  0  0  0  0
   46.6570   34.2770   40.7060 N   0  0  0  0  0  0  0  0  0  0  0  0
   44.6960   36.1170   44.0140 C   0  0  0  0  0  0  0  0  0  0  0  0
   45.0970   35.5300   42.8160 C   0  0  0  0  0  0  0  0  0  0  0  0
   45.6040   34.2340   42.8120 C   0  0  0  0  0  0  0  0  0  0  0  0
   45.6760   33.6100   44.0090 N   0  0  0  0  0  0  0  0  0  0  0  0
   45.2860   34.1790   45.1730 C   0  0  0  0  0  0  0  0  0  0  0  0
   44.8030   35.4250   45.1530 N   0  0  0  0  0  0  0  0  0  0  0  0
   47.6880   33.8530   38.4570 C   0  0  0  0  0  0  0  0  0  0  0  0
   46.8570   33.3730   37.3210 C   0  0  0  0  0  0  0  0  0  0  0  0
   47.4000   32.5100   36.3870 C   0  0  0  0  0  0  0  0  0  0  0  0
   46.4260   32.2110   35.4320 C   0  0  0  0  0  0  0  0  0  0  0  0
   45.3270   32.9080   35.8280 N   0  0  0  0  0  0  0  0  0  0  0  0
   45.5880   33.5900   36.9400 N   0  0  0  0  0  0  0  0  0  0  0  0
   45.5778   31.4319   41.7642 H   0  0  0  0  0  0  0  0  0  0  0  0
   44.2947   37.1412   44.0228 H   0  0  0  0  0  0  0  0  0  0  0  0
   45.0129   36.0907   41.8734 H   0  0  0  0  0  0  0  0  0  0  0  0
   45.3652   33.6252   46.1201 H   0  0  0  0  0  0  0  0  0  0  0  0
   47.7803   34.9486   38.4233 H   0  0  0  0  0  0  0  0  0  0  0  0
   48.7030   33.4316   38.4116 H   0  0  0  0  0  0  0  0  0  0  0  0
   48.4296   32.1228   36.3949 H   0  0  0  0  0  0  0  0  0  0  0  0
   46.5255   31.5564   34.5536 H   0  0  0  0  0  0  0  0  0  0  0  0
   44.4217   32.9078   35.3368 H   0  0  0  0  0  0  0  0  0  0  0  0
  1  8  1  0
  2  1  1  0
  3  2  2  0
  4  3  1  0
  4  5  2  0
  5  1  1  0
  6 11  2  0
  7  6  1  0
  8  7  2  0
  8  9  1  0
  9 10  2  0
 11 10  1  0
 12  4  1  0
 13 12  1  0
 14 13  1  0
 15 16  1  0
 15 14  2  0
 16 17  1  0
 17 13  2  0
  2 18  1  0
  6 19  1  0
  7 20  1  0
 10 21  1  0
 12 22  1  0
 12 23  1  0
 14 24  1  0
 15 25  1  0
 16 26  1  0
M  ISO  8  18  14  19  14  20  14  21  14  22   8  23   8  24  14  25  14
M  ISO  1  26   9
M  END
>  <minimizedAffinity>  (1) 
-4.24979877

>  <minimizedRMSD>  (1) 
2.92828774

$$$$
