
     RDKit          3D

 27 29  0  0  0  0  0  0  0  0999 V2000
   45.6410   34.0570   41.7100 N   0  0  0  0  0  0  0  0  0  0  0  0
   45.0100   33.3370   40.7690 C   0  0  0  0  0  0  0  0  0  0  0  0
   45.7600   33.2470   39.6590 N   0  0  0  0  0  0  0  0  0  0  0  0
   46.8980   33.9400   39.9380 C   0  0  0  0  0  0  0  0  0  0  0  0
   46.8120   34.4340   41.2050 N   0  0  0  0  0  0  0  0  0  0  0  0
   44.4600   35.9620   44.7040 C   0  0  0  0  0  0  0  0  0  0  0  0
   44.7110   35.6670   43.3630 C   0  0  0  0  0  0  0  0  0  0  0  0
   45.3370   34.4630   43.0340 C   0  0  0  0  0  0  0  0  0  0  0  0
   45.6680   33.6420   44.0600 N   0  0  0  0  0  0  0  0  0  0  0  0
   45.4220   33.9350   45.3610 C   0  0  0  0  0  0  0  0  0  0  0  0
   44.8140   35.1060   45.6600 N   0  0  0  0  0  0  0  0  0  0  0  0
   48.0560   34.1480   39.0460 C   0  0  0  0  0  0  0  0  0  0  0  0
   48.9110   32.9720   38.8690 C   0  0  0  0  0  0  0  0  0  0  0  0
   49.3240   32.1610   39.9040 C   0  0  0  0  0  0  0  0  0  0  0  0
   50.1390   31.0550   39.6660 C   0  0  0  0  0  0  0  0  0  0  0  0
   50.4960   30.8280   38.3870 N   0  0  0  0  0  0  0  0  0  0  0  0
   50.0940   31.6190   37.3790 C   0  0  0  0  0  0  0  0  0  0  0  0
   49.3070   32.6830   37.6220 N   0  0  0  0  0  0  0  0  0  0  0  0
   44.0154   32.8832   40.8906 H   0  0  0  0  0  0  0  0  0  0  0  0
   43.9666   36.9078   44.9725 H   0  0  0  0  0  0  0  0  0  0  0  0
   44.4188   36.3754   42.5738 H   0  0  0  0  0  0  0  0  0  0  0  0
   45.7112   33.2340   46.1579 H   0  0  0  0  0  0  0  0  0  0  0  0
   47.6777   34.4485   38.0578 H   0  0  0  0  0  0  0  0  0  0  0  0
   48.6810   34.9177   39.5224 H   0  0  0  0  0  0  0  0  0  0  0  0
   49.0063   32.3894   40.9320 H   0  0  0  0  0  0  0  0  0  0  0  0
   50.4743   30.3994   40.4832 H   0  0  0  0  0  0  0  0  0  0  0  0
   50.4098   31.3959   36.3492 H   0  0  0  0  0  0  0  0  0  0  0  0
  1  8  1  0
  2  1  1  0
  3  4  1  0
  3  2  2  0
  4  5  2  0
  5  1  1  0
  6 11  2  0
  7  6  1  0
  8  7  2  0
  8  9  1  0
  9 10  2  0
 10 11  1  0
 12  4  1  0
 13 12  1  0
 13 14  2  0
 15 14  1  0
 16 15  2  0
 17 18  2  0
 17 16  1  0
 18 13  1  0
  2 19  1  0
  6 20  1  0
  7 21  1  0
 10 22  1  0
 12 23  1  0
 12 24  1  0
 14 25  1  0
 15 26  1  0
 17 27  1  0
M  ISO  8  19  14  20  14  21  14  22  14  23   8  24   8  25  14  26  14
M  ISO  1  27  14
M  END
>  <minimizedAffinity>  (1) 
-4.19159269

>  <minimizedRMSD>  (1) 
0.812734783

$$$$
