
     RDKit          3D

 20 21  0  0  0  0  0  0  0  0999 V2000
   45.6780   34.1000   41.7900 N   0  0  0  0  0  0  0  0  0  0  0  0
   45.0800   33.3790   40.8320 C   0  0  0  0  0  0  0  0  0  0  0  0
   45.8600   33.3190   39.7470 N   0  0  0  0  0  0  0  0  0  0  0  0
   46.9760   34.0230   40.0410 C   0  0  0  0  0  0  0  0  0  0  0  0
   46.8720   34.5150   41.3130 N   0  0  0  0  0  0  0  0  0  0  0  0
   44.4430   35.9540   44.7920 C   0  0  0  0  0  0  0  0  0  0  0  0
   44.7180   35.6750   43.4540 C   0  0  0  0  0  0  0  0  0  0  0  0
   45.3490   34.4930   43.1080 C   0  0  0  0  0  0  0  0  0  0  0  0
   45.6690   33.6520   44.1400 N   0  0  0  0  0  0  0  0  0  0  0  0
   45.4030   33.9230   45.4420 C   0  0  0  0  0  0  0  0  0  0  0  0
   44.7840   35.0900   45.7440 N   0  0  0  0  0  0  0  0  0  0  0  0
   48.1540   34.2560   39.1790 C   0  0  0  0  0  0  0  0  0  0  0  0
   48.8780   35.3940   39.5330 O   0  0  0  0  0  0  0  0  0  0  0  0
   44.0915   32.9054   40.9243 H   0  0  0  0  0  0  0  0  0  0  0  0
   43.9408   36.8947   45.0621 H   0  0  0  0  0  0  0  0  0  0  0  0
   44.4332   36.3950   42.6727 H   0  0  0  0  0  0  0  0  0  0  0  0
   45.6830   33.2126   46.2338 H   0  0  0  0  0  0  0  0  0  0  0  0
   47.8100   34.3697   38.1404 H   0  0  0  0  0  0  0  0  0  0  0  0
   48.8237   33.3919   39.3006 H   0  0  0  0  0  0  0  0  0  0  0  0
   48.9221   35.4634   40.5196 H   0  0  0  0  0  0  0  0  0  0  0  0
  1  8  1  0
  2  1  1  0
  3  4  1  0
  3  2  2  0
  4  5  2  0
  5  1  1  0
  6 11  2  0
  7  6  1  0
  8  7  2  0
  8  9  1  0
  9 10  2  0
 10 11  1  0
 12 13  1  0
 12  4  1  0
  2 14  1  0
  6 15  1  0
  7 16  1  0
 10 17  1  0
 12 18  1  0
 12 19  1  0
 13 20  1  0
M  ISO  7  14  14  15  14  16  14  17  14  18   8  19   8  20   3
M  END
>  <minimizedAffinity>  (1) 
-4.01734018

>  <minimizedRMSD>  (1) 
0.379204988

$$$$
