
     RDKit          3D

 31 33  0  0  0  0  0  0  0  0999 V2000
   45.3510   33.4170   41.7100 N   0  0  0  0  0  0  0  0  0  0  0  0
   44.5910   32.6580   40.9140 C   0  0  0  0  0  0  0  0  0  0  0  0
   45.3030   32.1700   39.8940 N   0  0  0  0  0  0  0  0  0  0  0  0
   46.5670   32.6490   40.0630 C   0  0  0  0  0  0  0  0  0  0  0  0
   46.5980   33.4250   41.1920 N   0  0  0  0  0  0  0  0  0  0  0  0
   44.5270   36.1010   44.1860 C   0  0  0  0  0  0  0  0  0  0  0  0
   44.6810   35.4760   42.9410 C   0  0  0  0  0  0  0  0  0  0  0  0
   45.1490   34.1630   42.8920 C   0  0  0  0  0  0  0  0  0  0  0  0
   45.4230   33.5830   44.0820 N   0  0  0  0  0  0  0  0  0  0  0  0
   45.2740   34.1840   45.2850 C   0  0  0  0  0  0  0  0  0  0  0  0
   44.8200   35.4550   45.3030 N   0  0  0  0  0  0  0  0  0  0  0  0
   47.7530   32.4120   39.2110 C   0  0  0  0  0  0  0  0  0  0  0  0
   47.7740   33.3110   38.0710 N   0  0  0  0  0  0  0  0  0  0  0  0
   46.6490   33.1240   37.1870 C   0  0  0  0  0  0  0  0  0  0  0  0
   47.2040   32.4450   35.9420 C   0  0  0  0  0  0  0  0  0  0  0  0
   48.5640   33.1090   35.8600 C   0  0  0  0  0  0  0  0  0  0  0  0
   48.9750   33.1340   37.3180 C   0  0  0  0  0  0  0  0  0  0  0  0
   43.5211   32.4613   41.0771 H   0  0  0  0  0  0  0  0  0  0  0  0
   44.1597   37.1367   44.2349 H   0  0  0  0  0  0  0  0  0  0  0  0
   44.4357   36.0145   42.0137 H   0  0  0  0  0  0  0  0  0  0  0  0
   45.5151   33.6539   46.2182 H   0  0  0  0  0  0  0  0  0  0  0  0
   48.6617   32.5720   39.8099 H   0  0  0  0  0  0  0  0  0  0  0  0
   47.7095   31.3786   38.8365 H   0  0  0  0  0  0  0  0  0  0  0  0
   45.8896   32.4869   37.6638 H   0  0  0  0  0  0  0  0  0  0  0  0
   46.1642   34.0807   36.9428 H   0  0  0  0  0  0  0  0  0  0  0  0
   47.2892   31.3564   36.0750 H   0  0  0  0  0  0  0  0  0  0  0  0
   46.5822   32.5527   35.0410 H   0  0  0  0  0  0  0  0  0  0  0  0
   49.2652   32.5157   35.2548 H   0  0  0  0  0  0  0  0  0  0  0  0
   48.5522   34.0986   35.3799 H   0  0  0  0  0  0  0  0  0  0  0  0
   49.4606   32.1861   37.5930 H   0  0  0  0  0  0  0  0  0  0  0  0
   49.6938   33.9426   37.5166 H   0  0  0  0  0  0  0  0  0  0  0  0
  1  8  1  0
  2  1  1  0
  3  4  1  0
  3  2  2  0
  4  5  2  0
  5  1  1  0
  6 11  2  0
  7  6  1  0
  8  7  2  0
  8  9  1  0
  9 10  2  0
 10 11  1  0
 12  4  1  0
 13 12  1  0
 14 13  1  0
 15 14  1  0
 16 15  1  0
 16 17  1  0
 17 13  1  0
  2 18  1  0
  6 19  1  0
  7 20  1  0
 10 21  1  0
 12 22  1  0
 12 23  1  0
 14 24  1  0
 14 25  1  0
 15 26  1  0
 15 27  1  0
 16 28  1  0
 16 29  1  0
 17 30  1  0
 17 31  1  0
M  ISO  8  18  14  19  14  20  14  21  14  22   8  23   8  24  13  25  13
M  ISO  6  26  13  27  13  28  13  29  13  30  13  31  13
M  END
>  <minimizedAffinity>  (1) 
-3.64286137

>  <minimizedRMSD>  (1) 
1.79140985

$$$$
