
     RDKit          3D

 50 53  0  0  1  0  0  0  0  0999 V2000
   49.1150   33.7060   42.6490 C   0  0  2  0  0  0  0  0  0  0  0  0
   47.7220   33.9230   42.4720 C   0  0  2  0  0  0  0  0  0  0  0  0
   47.6300   35.3810   41.9470 C   0  0  0  0  0  0  0  0  0  0  0  0
   48.9850   35.8370   41.5350 C   0  0  0  0  0  0  0  0  0  0  0  0
   49.8200   35.1040   42.4960 C   0  0  0  0  0  0  0  0  0  0  0  0
   49.8440   32.8710   41.6970 C   0  0  0  0  0  0  0  0  0  0  0  0
   49.1260   32.3440   40.6390 C   0  0  0  0  0  0  0  0  0  0  0  0
   49.7170   31.5190   39.6920 C   0  0  0  0  0  0  0  0  0  0  0  0
   51.0730   31.2770   39.8920 N   0  0  0  0  0  0  0  0  0  0  0  0
   51.7560   31.7900   40.9100 C   0  0  0  0  0  0  0  0  0  0  0  0
   51.1270   32.5690   41.7810 N   0  0  0  0  0  0  0  0  0  0  0  0
   46.8600   33.7770   43.6700 C   0  0  0  0  0  0  0  0  0  0  0  0
   45.9310   34.5290   43.8590 O   0  0  0  0  0  0  0  0  0  0  0  0
   46.9650   32.8080   44.7240 C   0  0  0  0  0  0  0  0  0  0  0  0
   46.7790   33.1720   46.0520 C   0  0  0  0  0  0  0  0  0  0  0  0
   46.8820   32.2740   47.1300 C   0  0  0  0  0  0  0  0  0  0  0  0
   47.1910   30.9490   46.8580 C   0  0  0  0  0  0  0  0  0  0  0  0
   47.3820   30.5600   45.5260 C   0  0  0  0  0  0  0  0  0  0  0  0
   47.2610   31.4970   44.5010 C   0  0  0  0  0  0  0  0  0  0  0  0
   47.4020   30.6550   43.3620 N   0  0  0  0  0  0  0  0  0  0  0  0
   48.6020   29.8470   43.2580 C   0  0  0  0  0  0  0  0  0  0  0  0
   48.0270   28.4240   43.0420 C   0  0  0  0  0  0  0  0  0  0  0  0
   47.6610   28.4140   41.5710 C   0  0  0  0  0  0  0  0  0  0  0  0
   46.6830   29.5000   41.2720 C   0  0  0  0  0  0  0  0  0  0  0  0
   46.3700   30.4550   42.3540 C   0  0  0  0  0  0  0  0  0  0  0  0
   49.1519   33.1851   43.6171 H   0  0  0  0  0  0  0  0  0  0  0  0
   47.3368   33.1432   41.7986 H   0  0  0  0  0  0  0  0  0  0  0  0
   46.9501   35.4191   41.0831 H   0  0  0  0  0  0  0  0  0  0  0  0
   47.2440   36.0370   42.7412 H   0  0  0  0  0  0  0  0  0  0  0  0
   49.2121   35.5492   40.4979 H   0  0  0  0  0  0  0  0  0  0  0  0
   49.1239   36.9281   41.5470 H   0  0  0  0  0  0  0  0  0  0  0  0
   50.8425   34.9830   42.1088 H   0  0  0  0  0  0  0  0  0  0  0  0
   49.9120   35.6321   43.4565 H   0  0  0  0  0  0  0  0  0  0  0  0
   48.0569   32.5853   40.5454 H   0  0  0  0  0  0  0  0  0  0  0  0
   49.1568   31.0895   38.8484 H   0  0  0  0  0  0  0  0  0  0  0  0
   52.8276   31.5720   41.0290 H   0  0  0  0  0  0  0  0  0  0  0  0
   46.5375   34.2221   46.2730 H   0  0  0  0  0  0  0  0  0  0  0  0
   46.7214   32.6141   48.1637 H   0  0  0  0  0  0  0  0  0  0  0  0
   47.2843   30.2171   47.6738 H   0  0  0  0  0  0  0  0  0  0  0  0
   47.6276   29.5144   45.2886 H   0  0  0  0  0  0  0  0  0  0  0  0
   49.2201   30.1604   42.4037 H   0  0  0  0  0  0  0  0  0  0  0  0
   49.2625   29.9260   44.1341 H   0  0  0  0  0  0  0  0  0  0  0  0
   48.7822   27.6560   43.2652 H   0  0  0  0  0  0  0  0  0  0  0  0
   47.1734   28.2009   43.6990 H   0  0  0  0  0  0  0  0  0  0  0  0
   48.5694   28.5686   40.9703 H   0  0  0  0  0  0  0  0  0  0  0  0
   47.2048   27.4443   41.3230 H   0  0  0  0  0  0  0  0  0  0  0  0
   47.0830   30.0796   40.4270 H   0  0  0  0  0  0  0  0  0  0  0  0
   45.7350   28.9767   41.0783 H   0  0  0  0  0  0  0  0  0  0  0  0
   46.1629   31.4304   41.8895 H   0  0  0  0  0  0  0  0  0  0  0  0
   45.5175   30.0157   42.8928 H   0  0  0  0  0  0  0  0  0  0  0  0
  2  1  1  0
  2 12  1  0
  3  2  1  0
  4  3  1  0
  4  5  1  0
  5  1  1  0
  6 11  1  0
  6  1  1  0
  7  6  2  0
  8  9  2  0
  8  7  1  0
  9 10  1  0
 10 11  2  0
 12 13  2  0
 12 14  1  0
 14 15  2  0
 15 16  1  0
 17 16  2  0
 18 17  1  0
 19 14  1  0
 19 18  2  0
 20 19  1  0
 21 20  1  0
 22 21  1  0
 23 22  1  0
 24 23  1  0
 24 25  1  0
 25 20  1  0
  1 26  1  1
  2 27  1  6
  3 28  1  0
  3 29  1  0
  4 30  1  0
  4 31  1  0
  5 32  1  0
  5 33  1  0
  7 34  1  0
  8 35  1  0
 10 36  1  0
 15 37  1  0
 16 38  1  0
 17 39  1  0
 18 40  1  0
 21 41  1  0
 21 42  1  0
 22 43  1  0
 22 44  1  0
 23 45  1  0
 23 46  1  0
 24 47  1  0
 24 48  1  0
 25 49  1  0
 25 50  1  0
M  ISO  8  26  13  27  13  28  13  29  13  30  13  31  13  32  13  33  13
M  ISO  8  34  14  35  14  36  14  37  14  38  14  39  14  40  14  41  13
M  ISO  8  42  13  43  13  44  13  45  13  46  13  47  13  48  13  49  13
M  ISO  1  50  13
M  END
>  <minimizedAffinity>  (1) 
-5.33780432

>  <minimizedRMSD>  (1) 
0.33581683

$$$$
