
     RDKit          3D

 42 45  0  0  1  0  0  0  0  0999 V2000
   49.0990   33.7030   42.6190 C   0  0  2  0  0  0  0  0  0  0  0  0
   47.7110   33.9280   42.4190 C   0  0  2  0  0  0  0  0  0  0  0  0
   47.6440   35.3990   41.9360 C   0  0  0  0  0  0  0  0  0  0  0  0
   49.0140   35.8550   41.5550 C   0  0  0  0  0  0  0  0  0  0  0  0
   49.8220   35.0990   42.5140 C   0  0  0  0  0  0  0  0  0  0  0  0
   49.8480   32.8830   41.6680 C   0  0  0  0  0  0  0  0  0  0  0  0
   49.1860   32.4760   40.5310 C   0  0  0  0  0  0  0  0  0  0  0  0
   49.7860   31.6830   39.5630 C   0  0  0  0  0  0  0  0  0  0  0  0
   51.1000   31.3460   39.8410 N   0  0  0  0  0  0  0  0  0  0  0  0
   51.7440   31.7370   40.9310 C   0  0  0  0  0  0  0  0  0  0  0  0
   51.1020   32.4930   41.8150 N   0  0  0  0  0  0  0  0  0  0  0  0
   46.8210   33.7600   43.5970 C   0  0  0  0  0  0  0  0  0  0  0  0
   45.8520   34.4670   43.7470 O   0  0  0  0  0  0  0  0  0  0  0  0
   46.9500   32.8070   44.6660 C   0  0  0  0  0  0  0  0  0  0  0  0
   46.7820   33.1960   45.9960 C   0  0  0  0  0  0  0  0  0  0  0  0
   46.9180   32.3330   47.0910 C   0  0  0  0  0  0  0  0  0  0  0  0
   47.2420   31.0050   46.8520 C   0  0  0  0  0  0  0  0  0  0  0  0
   47.4150   30.5930   45.5260 C   0  0  0  0  0  0  0  0  0  0  0  0
   47.2600   31.5000   44.4890 C   0  0  0  0  0  0  0  0  0  0  0  0
   47.3650   30.6400   43.3710 N   0  0  0  0  0  0  0  0  0  0  0  0
   46.5930   30.3880   42.3030 C   0  0  0  0  0  0  0  0  0  0  0  0
   47.2600   29.5060   41.4330 C   0  0  0  0  0  0  0  0  0  0  0  0
   48.4460   29.2610   42.0460 N   0  0  0  0  0  0  0  0  0  0  0  0
   48.4960   29.9320   43.1850 C   0  0  0  0  0  0  0  0  0  0  0  0
   49.1059   33.1628   43.5772 H   0  0  0  0  0  0  0  0  0  0  0  0
   47.3345   33.1665   41.7202 H   0  0  0  0  0  0  0  0  0  0  0  0
   46.9772   35.4696   41.0640 H   0  0  0  0  0  0  0  0  0  0  0  0
   47.2548   36.0354   42.7444 H   0  0  0  0  0  0  0  0  0  0  0  0
   49.2578   35.5855   40.5168 H   0  0  0  0  0  0  0  0  0  0  0  0
   49.1610   36.9446   41.5895 H   0  0  0  0  0  0  0  0  0  0  0  0
   50.8514   34.9777   42.1457 H   0  0  0  0  0  0  0  0  0  0  0  0
   49.9009   35.6051   43.4874 H   0  0  0  0  0  0  0  0  0  0  0  0
   48.1424   32.7914   40.3846 H   0  0  0  0  0  0  0  0  0  0  0  0
   49.2632   31.3510   38.6539 H   0  0  0  0  0  0  0  0  0  0  0  0
   52.7899   31.4414   41.1007 H   0  0  0  0  0  0  0  0  0  0  0  0
   46.5266   34.2469   46.1970 H   0  0  0  0  0  0  0  0  0  0  0  0
   46.7712   32.6999   48.1176 H   0  0  0  0  0  0  0  0  0  0  0  0
   47.3598   30.2945   47.6835 H   0  0  0  0  0  0  0  0  0  0  0  0
   47.6746   29.5470   45.3059 H   0  0  0  0  0  0  0  0  0  0  0  0
   45.5904   30.8074   42.1332 H   0  0  0  0  0  0  0  0  0  0  0  0
   46.9015   29.1056   40.4732 H   0  0  0  0  0  0  0  0  0  0  0  0
   49.3448   29.9143   43.8844 H   0  0  0  0  0  0  0  0  0  0  0  0
  2  1  1  0
  2 12  1  0
  3  2  1  0
  4  3  1  0
  4  5  1  0
  5  1  1  0
  6 11  1  0
  6  1  1  0
  7  6  2  0
  8  9  2  0
  8  7  1  0
  9 10  1  0
 10 11  2  0
 12 13  2  0
 12 14  1  0
 14 15  2  0
 15 16  1  0
 17 16  2  0
 18 17  1  0
 19 14  1  0
 19 18  2  0
 20 19  1  0
 21 20  1  0
 22 23  1  0
 22 21  2  0
 23 24  2  0
 24 20  1  0
  1 25  1  1
  2 26  1  6
  3 27  1  0
  3 28  1  0
  4 29  1  0
  4 30  1  0
  5 31  1  0
  5 32  1  0
  7 33  1  0
  8 34  1  0
 10 35  1  0
 15 36  1  0
 16 37  1  0
 17 38  1  0
 18 39  1  0
 21 40  1  0
 22 41  1  0
 24 42  1  0
M  ISO  8  25  13  26  13  27  13  28  13  29  13  30  13  31  13  32  13
M  ISO  8  33  14  34  14  35  14  36  14  37  14  38  14  39  14  40  14
M  ISO  2  41  14  42  14
M  END
>  <minimizedAffinity>  (1) 
-5.32853365

>  <minimizedRMSD>  (1) 
0.259071618

$$$$
