
     RDKit          3D

 47 50  0  0  1  0  0  0  0  0999 V2000
   41.9520   34.2610   41.0830 N   0  0  0  0  0  0  0  0  0  0  0  0
   40.9200   35.0930   41.6080 C   0  0  0  0  0  0  0  0  0  0  0  0
   40.2630   35.8820   40.5200 C   0  0  0  0  0  0  0  0  0  0  0  0
   39.7920   35.0270   39.4050 C   0  0  0  0  0  0  0  0  0  0  0  0
   40.6960   33.9030   38.9940 C   0  0  0  0  0  0  0  0  0  0  0  0
   41.5130   33.3180   40.0900 C   0  0  2  0  0  0  0  0  0  0  0  0
   40.9560   32.1190   40.6600 N   0  0  0  0  0  0  0  0  0  0  0  0
   40.3460   32.3050   41.9570 C   0  0  0  0  0  0  0  0  0  0  0  0
   40.4170   30.9630   42.6540 C   0  0  0  0  0  0  0  0  0  0  0  0
   40.1370   30.0020   41.7030 O   0  0  0  0  0  0  0  0  0  0  0  0
   39.2940   30.4360   40.6850 C   0  0  0  0  0  0  0  0  0  0  0  0
   39.9680   31.5030   39.8100 C   0  0  0  0  0  0  0  0  0  0  0  0
   43.0120   35.0730   40.5540 C   0  0  0  0  0  0  0  0  0  0  0  0
   46.1450   34.9640   42.3500 N   0  0  0  0  0  0  0  0  0  0  0  0
   45.4320   35.7740   43.1210 C   0  0  0  0  0  0  0  0  0  0  0  0
   44.2080   35.9600   42.6370 N   0  0  0  0  0  0  0  0  0  0  0  0
   44.1500   35.2320   41.5040 C   0  0  0  0  0  0  0  0  0  0  0  0
   45.3550   34.6010   41.3110 N   0  0  0  0  0  0  0  0  0  0  0  0
   49.8550   34.5510   42.2790 C   0  0  0  0  0  0  0  0  0  0  0  0
   48.6230   35.1850   42.2590 C   0  0  0  0  0  0  0  0  0  0  0  0
   47.4580   34.4240   42.3590 C   0  0  0  0  0  0  0  0  0  0  0  0
   47.6290   33.1020   42.4690 N   0  0  0  0  0  0  0  0  0  0  0  0
   48.8140   32.4670   42.4890 C   0  0  0  0  0  0  0  0  0  0  0  0
   49.9320   33.2130   42.3920 N   0  0  0  0  0  0  0  0  0  0  0  0
   40.1655   34.4626   42.1012 H   0  0  0  0  0  0  0  0  0  0  0  0
   41.3669   35.7937   42.3286 H   0  0  0  0  0  0  0  0  0  0  0  0
   39.4000   36.4166   40.9436 H   0  0  0  0  0  0  0  0  0  0  0  0
   41.0108   36.5792   40.1141 H   0  0  0  0  0  0  0  0  0  0  0  0
   38.8287   34.5884   39.7044 H   0  0  0  0  0  0  0  0  0  0  0  0
   39.7398   35.6924   38.5306 H   0  0  0  0  0  0  0  0  0  0  0  0
   40.0728   33.1024   38.5689 H   0  0  0  0  0  0  0  0  0  0  0  0
   41.4097   34.3311   38.2747 H   0  0  0  0  0  0  0  0  0  0  0  0
   42.4348   33.0020   39.5797 H   0  0  0  0  0  0  0  0  0  0  0  0
   40.8974   33.0631   42.5325 H   0  0  0  0  0  0  0  0  0  0  0  0
   39.3069   32.6541   41.8647 H   0  0  0  0  0  0  0  0  0  0  0  0
   41.4240   30.8042   43.0673 H   0  0  0  0  0  0  0  0  0  0  0  0
   39.7002   30.9134   43.4869 H   0  0  0  0  0  0  0  0  0  0  0  0
   39.0233   29.5761   40.0546 H   0  0  0  0  0  0  0  0  0  0  0  0
   38.4001   30.8824   41.1450 H   0  0  0  0  0  0  0  0  0  0  0  0
   39.2314   32.2470   39.4726 H   0  0  0  0  0  0  0  0  0  0  0  0
   40.4173   31.0689   38.9047 H   0  0  0  0  0  0  0  0  0  0  0  0
   43.3870   34.6040   39.6324 H   0  0  0  0  0  0  0  0  0  0  0  0
   42.5978   36.0742   40.3643 H   0  0  0  0  0  0  0  0  0  0  0  0
   45.8071   36.2350   44.0466 H   0  0  0  0  0  0  0  0  0  0  0  0
   50.7767   35.1464   42.2019 H   0  0  0  0  0  0  0  0  0  0  0  0
   48.5641   36.2794   42.1650 H   0  0  0  0  0  0  0  0  0  0  0  0
   48.8691   31.3723   42.5817 H   0  0  0  0  0  0  0  0  0  0  0  0
  1  2  1  0
  3  2  1  0
  4  3  1  0
  5  4  1  0
  5  6  1  0
  6  7  1  0
  6  1  1  0
  7  8  1  0
  8  9  1  0
 10  9  1  0
 11 10  1  0
 12  7  1  0
 12 11  1  0
 13  1  1  0
 13 17  1  0
 14 21  1  0
 14 15  1  0
 16 15  2  0
 17 16  1  0
 18 17  2  0
 18 14  1  0
 19 24  2  0
 20 19  1  0
 20 21  2  0
 21 22  1  0
 22 23  2  0
 24 23  1  0
  2 25  1  0
  2 26  1  0
  3 27  1  0
  3 28  1  0
  4 29  1  0
  4 30  1  0
  5 31  1  0
  5 32  1  0
  6 33  1  6
  8 34  1  0
  8 35  1  0
  9 36  1  0
  9 37  1  0
 11 38  1  0
 11 39  1  0
 12 40  1  0
 12 41  1  0
 13 42  1  0
 13 43  1  0
 15 44  1  0
 19 45  1  0
 20 46  1  0
 23 47  1  0
M  ISO  8  25  13  26  13  27  13  28  13  29  13  30  13  31  13  32  13
M  ISO  8  33  13  34  13  35  13  36  13  37  13  38  13  39  13  40  13
M  ISO  7  41  13  42   8  43   8  44  14  45  14  46  14  47  14
M  END
>  <minimizedAffinity>  (1) 
-6.183918

>  <minimizedRMSD>  (1) 
1.72229981

$$$$
