
     RDKit          3D

 41 43  0  0  1  0  0  0  0  0999 V2000
   41.9370   34.3570   41.1800 N   0  0  0  0  0  0  0  0  0  0  0  0
   40.9310   35.3030   41.5500 C   0  0  0  0  0  0  0  0  0  0  0  0
   40.3320   35.9510   40.3480 C   0  0  0  0  0  0  0  0  0  0  0  0
   39.8420   34.9510   39.3550 C   0  0  0  0  0  0  0  0  0  0  0  0
   40.7480   33.7860   39.1030 C   0  0  0  0  0  0  0  0  0  0  0  0
   41.4700   33.3030   40.3230 C   0  0  2  0  0  0  0  0  0  0  0  0
   40.6920   32.3820   41.1340 N   0  0  0  0  0  0  0  0  0  0  0  0
   41.2340   31.5630   42.1680 C   0  0  0  0  0  0  0  0  0  0  0  0
   42.4760   31.7640   42.4570 N   0  0  0  0  0  0  0  0  0  0  0  0
   40.4390   30.5790   42.8350 N   0  0  0  0  0  0  0  0  0  0  0  0
   42.8860   31.1720   43.2130 H   0  0  0  0  0  0  0  0  0  0  0  0
   43.0440   35.0500   40.5930 C   0  0  0  0  0  0  0  0  0  0  0  0
   46.1860   34.9830   42.3790 N   0  0  0  0  0  0  0  0  0  0  0  0
   45.4730   35.8050   43.1300 C   0  0  0  0  0  0  0  0  0  0  0  0
   44.2420   35.9860   42.6510 N   0  0  0  0  0  0  0  0  0  0  0  0
   44.1850   35.2270   41.5310 C   0  0  0  0  0  0  0  0  0  0  0  0
   45.3920   34.6010   41.3550 N   0  0  0  0  0  0  0  0  0  0  0  0
   49.8890   34.5360   42.2770 C   0  0  0  0  0  0  0  0  0  0  0  0
   48.6720   35.2100   42.2460 C   0  0  0  0  0  0  0  0  0  0  0  0
   47.4890   34.4460   42.3890 C   0  0  0  0  0  0  0  0  0  0  0  0
   47.6640   33.1270   42.5430 N   0  0  0  0  0  0  0  0  0  0  0  0
   48.8490   32.4760   42.5710 C   0  0  0  0  0  0  0  0  0  0  0  0
   49.9580   33.2170   42.4340 N   0  0  0  0  0  0  0  0  0  0  0  0
   40.1391   34.7841   42.1100 H   0  0  0  0  0  0  0  0  0  0  0  0
   41.3973   36.0828   42.1701 H   0  0  0  0  0  0  0  0  0  0  0  0
   39.4859   36.5771   40.6675 H   0  0  0  0  0  0  0  0  0  0  0  0
   41.1145   36.5533   39.8633 H   0  0  0  0  0  0  0  0  0  0  0  0
   38.8804   34.5586   39.7174 H   0  0  0  0  0  0  0  0  0  0  0  0
   39.7733   35.4889   38.3979 H   0  0  0  0  0  0  0  0  0  0  0  0
   40.1435   32.9565   38.7073 H   0  0  0  0  0  0  0  0  0  0  0  0
   41.5153   34.1264   38.3921 H   0  0  0  0  0  0  0  0  0  0  0  0
   42.3360   32.7747   39.8976 H   0  0  0  0  0  0  0  0  0  0  0  0
   39.6808   32.3162   40.9496 H   0  0  0  0  0  0  0  0  0  0  0  0
   40.8537   29.9997   43.5789 H   0  0  0  0  0  0  0  0  0  0  0  0
   39.4517   30.4496   42.5715 H   0  0  0  0  0  0  0  0  0  0  0  0
   43.3931   34.4773   39.7211 H   0  0  0  0  0  0  0  0  0  0  0  0
   42.6914   36.0534   40.3122 H   0  0  0  0  0  0  0  0  0  0  0  0
   45.8518   36.2844   44.0447 H   0  0  0  0  0  0  0  0  0  0  0  0
   50.8207   35.1105   42.1685 H   0  0  0  0  0  0  0  0  0  0  0  0
   48.6306   36.3013   42.1146 H   0  0  0  0  0  0  0  0  0  0  0  0
   48.9009   31.3849   42.7007 H   0  0  0  0  0  0  0  0  0  0  0  0
  1  2  1  0
  3  2  1  0
  4  3  1  0
  5  4  1  0
  5  6  1  0
  6  7  1  0
  6  1  1  0
  7  8  1  0
  8  9  2  0
  8 10  1  0
  9 11  1  0
 12  1  1  0
 12 16  1  0
 13 20  1  0
 13 14  1  0
 15 14  2  0
 16 15  1  0
 17 16  2  0
 17 13  1  0
 18 23  2  0
 19 18  1  0
 19 20  2  0
 20 21  1  0
 21 22  2  0
 23 22  1  0
  2 24  1  0
  2 25  1  0
  3 26  1  0
  3 27  1  0
  4 28  1  0
  4 29  1  0
  5 30  1  0
  5 31  1  0
  6 32  1  6
  7 33  1  0
 10 34  1  0
 10 35  1  0
 12 36  1  0
 12 37  1  0
 14 38  1  0
 18 39  1  0
 19 40  1  0
 22 41  1  0
M  ISO  8  24  13  25  13  26  13  27  13  28  13  29  13  30  13  31  13
M  ISO  7  32  13  36   8  37   8  38  14  39  14  40  14  41  14
M  END
>  <minimizedAffinity>  (1) 
-6.17372561

>  <minimizedRMSD>  (1) 
1.6070323

$$$$
