
     RDKit          3D

 44 47  0  0  1  0  0  0  0  0999 V2000
   42.1850   33.8330   40.3790 N   0  0  0  0  0  0  0  0  0  0  0  0
   41.1850   34.2610   41.3080 C   0  0  0  0  0  0  0  0  0  0  0  0
   40.2740   35.2690   40.6980 C   0  0  0  0  0  0  0  0  0  0  0  0
   39.7200   34.8410   39.3810 C   0  0  0  0  0  0  0  0  0  0  0  0
   40.6790   34.1470   38.4600 C   0  0  0  0  0  0  0  0  0  0  0  0
   41.6310   33.2480   39.2060 C   0  0  1  0  0  0  0  0  0  0  0  0
   42.6450   32.6910   38.3110 C   0  0  0  0  0  0  0  0  0  0  0  0
   42.4020   31.5160   37.6270 C   0  0  0  0  0  0  0  0  0  0  0  0
   43.3110   30.9110   36.7520 C   0  0  0  0  0  0  0  0  0  0  0  0
   44.5250   31.5740   36.5950 C   0  0  0  0  0  0  0  0  0  0  0  0
   44.7860   32.7590   37.2770 C   0  0  0  0  0  0  0  0  0  0  0  0
   43.8560   33.3180   38.1300 C   0  0  0  0  0  0  0  0  0  0  0  0
   43.0700   34.9230   40.1050 C   0  0  0  0  0  0  0  0  0  0  0  0
   46.0600   34.9020   42.1280 N   0  0  0  0  0  0  0  0  0  0  0  0
   45.2500   35.6250   42.8880 C   0  0  0  0  0  0  0  0  0  0  0  0
   44.0460   35.7750   42.3320 N   0  0  0  0  0  0  0  0  0  0  0  0
   44.1220   35.0990   41.1510 C   0  0  0  0  0  0  0  0  0  0  0  0
   45.3700   34.5530   41.0160 N   0  0  0  0  0  0  0  0  0  0  0  0
   49.7890   34.6890   42.3160 C   0  0  0  0  0  0  0  0  0  0  0  0
   48.5230   35.2690   42.2300 C   0  0  0  0  0  0  0  0  0  0  0  0
   47.3980   34.4410   42.2130 C   0  0  0  0  0  0  0  0  0  0  0  0
   47.6360   33.1220   42.2830 N   0  0  0  0  0  0  0  0  0  0  0  0
   48.8450   32.5520   42.3660 C   0  0  0  0  0  0  0  0  0  0  0  0
   49.9210   33.3540   42.3810 N   0  0  0  0  0  0  0  0  0  0  0  0
   40.5937   33.3891   41.6246 H   0  0  0  0  0  0  0  0  0  0  0  0
   41.6879   34.7246   42.1695 H   0  0  0  0  0  0  0  0  0  0  0  0
   39.4363   35.4460   41.3886 H   0  0  0  0  0  0  0  0  0  0  0  0
   40.8654   36.1798   40.5229 H   0  0  0  0  0  0  0  0  0  0  0  0
   38.8827   34.1545   39.5749 H   0  0  0  0  0  0  0  0  0  0  0  0
   39.4306   35.7683   38.8649 H   0  0  0  0  0  0  0  0  0  0  0  0
   41.2604   34.9059   37.9159 H   0  0  0  0  0  0  0  0  0  0  0  0
   40.0936   33.5221   37.7695 H   0  0  0  0  0  0  0  0  0  0  0  0
   41.0279   32.4094   39.5841 H   0  0  0  0  0  0  0  0  0  0  0  0
   41.4304   31.0236   37.7801 H   0  0  0  0  0  0  0  0  0  0  0  0
   43.0816   29.9740   36.2234 H   0  0  0  0  0  0  0  0  0  0  0  0
   45.2885   31.1556   35.9227 H   0  0  0  0  0  0  0  0  0  0  0  0
   45.7543   33.2607   37.1330 H   0  0  0  0  0  0  0  0  0  0  0  0
   44.0809   34.2554   38.6598 H   0  0  0  0  0  0  0  0  0  0  0  0
   43.5635   34.7394   39.1392 H   0  0  0  0  0  0  0  0  0  0  0  0
   42.4651   35.8416   40.0895 H   0  0  0  0  0  0  0  0  0  0  0  0
   45.5360   36.0507   43.8611 H   0  0  0  0  0  0  0  0  0  0  0  0
   50.6839   35.3285   42.3306 H   0  0  0  0  0  0  0  0  0  0  0  0
   48.4123   36.3621   42.1764 H   0  0  0  0  0  0  0  0  0  0  0  0
   48.9530   31.4587   42.4203 H   0  0  0  0  0  0  0  0  0  0  0  0
  1  2  1  0
  3  2  1  0
  4  3  1  0
  5  6  1  0
  5  4  1  0
  6  1  1  0
  7  6  1  0
  8  7  2  0
  9  8  1  0
 10  9  2  0
 10 11  1  0
 11 12  2  0
 12  7  1  0
 13  1  1  0
 13 17  1  0
 14 21  1  0
 14 15  1  0
 16 15  2  0
 17 16  1  0
 18 17  2  0
 18 14  1  0
 19 24  2  0
 20 19  1  0
 21 20  2  0
 21 22  1  0
 22 23  2  0
 23 24  1  0
  2 25  1  0
  2 26  1  0
  3 27  1  0
  3 28  1  0
  4 29  1  0
  4 30  1  0
  5 31  1  0
  5 32  1  0
  6 33  1  1
  8 34  1  0
  9 35  1  0
 10 36  1  0
 11 37  1  0
 12 38  1  0
 13 39  1  0
 13 40  1  0
 15 41  1  0
 19 42  1  0
 20 43  1  0
 23 44  1  0
M  ISO  8  25  13  26  13  27  13  28  13  29  13  30  13  31  13  32  13
M  ISO  8  33  13  34  14  35  14  36  14  37  14  38  14  39   8  40   8
M  ISO  4  41  14  42  14  43  14  44  14
M  END
>  <minimizedAffinity>  (1) 
-5.93491364

>  <minimizedRMSD>  (1) 
0.906444788

$$$$
