
     RDKit          3D

 41 44  0  0  1  0  0  0  0  0999 V2000
   42.1860   34.0800   40.5880 N   0  0  0  0  0  0  0  0  0  0  0  0
   41.2930   34.6530   41.5600 C   0  0  0  0  0  0  0  0  0  0  0  0
   40.4860   35.7440   40.9490 C   0  0  0  0  0  0  0  0  0  0  0  0
   39.8160   35.3390   39.6730 C   0  0  0  0  0  0  0  0  0  0  0  0
   40.6290   34.4940   38.7470 C   0  0  0  0  0  0  0  0  0  0  0  0
   41.5050   33.5090   39.4780 C   0  0  1  0  0  0  0  0  0  0  0  0
   42.4580   32.8710   38.5530 C   0  0  0  0  0  0  0  0  0  0  0  0
   43.8250   32.9930   38.4080 C   0  0  0  0  0  0  0  0  0  0  0  0
   44.2950   32.1880   37.3900 C   0  0  0  0  0  0  0  0  0  0  0  0
   43.1850   31.5840   36.9350 N   0  0  0  0  0  0  0  0  0  0  0  0
   42.1100   31.9690   37.5980 N   0  0  0  0  0  0  0  0  0  0  0  0
   43.1850   35.0150   40.2400 C   0  0  0  0  0  0  0  0  0  0  0  0
   46.2020   34.8900   42.2150 N   0  0  0  0  0  0  0  0  0  0  0  0
   45.4310   35.6400   42.9920 C   0  0  0  0  0  0  0  0  0  0  0  0
   44.2250   35.8270   42.4490 N   0  0  0  0  0  0  0  0  0  0  0  0
   44.2630   35.1500   41.2660 C   0  0  0  0  0  0  0  0  0  0  0  0
   45.4900   34.5620   41.1090 N   0  0  0  0  0  0  0  0  0  0  0  0
   49.9150   34.5590   42.3510 C   0  0  0  0  0  0  0  0  0  0  0  0
   48.6750   35.1810   42.2830 C   0  0  0  0  0  0  0  0  0  0  0  0
   47.5260   34.3870   42.2800 C   0  0  0  0  0  0  0  0  0  0  0  0
   47.7260   33.0630   42.3450 N   0  0  0  0  0  0  0  0  0  0  0  0
   48.9170   32.4440   42.4110 C   0  0  0  0  0  0  0  0  0  0  0  0
   50.0270   33.2220   42.4130 N   0  0  0  0  0  0  0  0  0  0  0  0
   40.6175   33.8706   41.9362 H   0  0  0  0  0  0  0  0  0  0  0  0
   41.8876   35.0708   42.3858 H   0  0  0  0  0  0  0  0  0  0  0  0
   39.7121   36.0510   41.6680 H   0  0  0  0  0  0  0  0  0  0  0  0
   41.1766   36.5658   40.7088 H   0  0  0  0  0  0  0  0  0  0  0  0
   38.9081   34.7753   39.9336 H   0  0  0  0  0  0  0  0  0  0  0  0
   39.6232   36.2752   39.1286 H   0  0  0  0  0  0  0  0  0  0  0  0
   41.2689   35.1518   38.1405 H   0  0  0  0  0  0  0  0  0  0  0  0
   39.9304   33.9182   38.1223 H   0  0  0  0  0  0  0  0  0  0  0  0
   40.8327   32.7410   39.8881 H   0  0  0  0  0  0  0  0  0  0  0  0
   44.4586   33.6476   39.0245 H   0  0  0  0  0  0  0  0  0  0  0  0
   45.3299   32.0696   37.0364 H   0  0  0  0  0  0  0  0  0  0  0  0
   43.1737   30.9029   36.1624 H   0  0  0  0  0  0  0  0  0  0  0  0
   43.6446   34.6962   39.2928 H   0  0  0  0  0  0  0  0  0  0  0  0
   42.6937   35.9958   40.1580 H   0  0  0  0  0  0  0  0  0  0  0  0
   45.7453   36.0553   43.9609 H   0  0  0  0  0  0  0  0  0  0  0  0
   50.8261   35.1754   42.3541 H   0  0  0  0  0  0  0  0  0  0  0  0
   48.5994   36.2772   42.2325 H   0  0  0  0  0  0  0  0  0  0  0  0
   48.9884   31.3475   42.4615 H   0  0  0  0  0  0  0  0  0  0  0  0
  1  2  1  0
  3  2  1  0
  4  3  1  0
  5  6  1  0
  5  4  1  0
  6  1  1  0
  7  6  1  0
  8  7  1  0
  9  8  2  0
 10  9  1  0
 10 11  1  0
 11  7  2  0
 12  1  1  0
 12 16  1  0
 13 20  1  0
 13 14  1  0
 15 14  2  0
 16 15  1  0
 17 16  2  0
 17 13  1  0
 18 23  2  0
 19 18  1  0
 20 19  2  0
 20 21  1  0
 21 22  2  0
 22 23  1  0
  2 24  1  0
  2 25  1  0
  3 26  1  0
  3 27  1  0
  4 28  1  0
  4 29  1  0
  5 30  1  0
  5 31  1  0
  6 32  1  1
  8 33  1  0
  9 34  1  0
 10 35  1  0
 12 36  1  0
 12 37  1  0
 14 38  1  0
 18 39  1  0
 19 40  1  0
 22 41  1  0
M  ISO  8  24  13  25  13  26  13  27  13  28  13  29  13  30  13  31  13
M  ISO  8  32  13  33  14  34  14  35   9  36   8  37   8  38  14  39  14
M  ISO  2  40  14  41  14
M  END
>  <minimizedAffinity>  (1) 
-5.85506296

>  <minimizedRMSD>  (1) 
0.917158663

$$$$
