
     RDKit          3D

 41 44  0  0  1  0  0  0  0  0999 V2000
   42.0880   33.9410   40.5540 N   0  0  0  0  0  0  0  0  0  0  0  0
   41.2540   34.6180   41.4930 C   0  0  0  0  0  0  0  0  0  0  0  0
   40.4830   35.7200   40.8630 C   0  0  0  0  0  0  0  0  0  0  0  0
   39.7360   35.2630   39.6470 C   0  0  0  0  0  0  0  0  0  0  0  0
   40.4580   34.3210   38.7490 C   0  0  0  0  0  0  0  0  0  0  0  0
   41.3310   33.3480   39.4850 C   0  0  1  0  0  0  0  0  0  0  0  0
   42.1440   32.6230   38.5540 C   0  0  0  0  0  0  0  0  0  0  0  0
   41.6930   31.5360   37.6860 C   0  0  0  0  0  0  0  0  0  0  0  0
   42.6230   30.9880   36.8780 C   0  0  0  0  0  0  0  0  0  0  0  0
   44.0240   31.5270   36.9320 C   0  0  0  0  0  0  0  0  0  0  0  0
   43.8550   32.8820   38.2480 S   0  0  0  0  0  0  0  0  0  0  0  0
   43.1140   34.8140   40.0950 C   0  0  0  0  0  0  0  0  0  0  0  0
   46.0930   34.9300   42.1200 N   0  0  0  0  0  0  0  0  0  0  0  0
   45.2890   35.7220   42.8210 C   0  0  0  0  0  0  0  0  0  0  0  0
   44.0880   35.8320   42.2440 N   0  0  0  0  0  0  0  0  0  0  0  0
   44.1590   35.0660   41.1250 C   0  0  0  0  0  0  0  0  0  0  0  0
   45.4050   34.4970   41.0350 N   0  0  0  0  0  0  0  0  0  0  0  0
   49.8190   34.7210   42.3290 C   0  0  0  0  0  0  0  0  0  0  0  0
   48.5580   35.2970   42.1930 C   0  0  0  0  0  0  0  0  0  0  0  0
   47.4280   34.4680   42.2450 C   0  0  0  0  0  0  0  0  0  0  0  0
   47.6590   33.1620   42.4260 N   0  0  0  0  0  0  0  0  0  0  0  0
   48.8730   32.5970   42.5590 C   0  0  0  0  0  0  0  0  0  0  0  0
   49.9600   33.4100   42.5070 N   0  0  0  0  0  0  0  0  0  0  0  0
   40.5483   33.8943   41.9268 H   0  0  0  0  0  0  0  0  0  0  0  0
   41.9016   35.0568   42.2663 H   0  0  0  0  0  0  0  0  0  0  0  0
   39.7620   36.1121   41.5954 H   0  0  0  0  0  0  0  0  0  0  0  0
   41.1967   36.4963   40.5498 H   0  0  0  0  0  0  0  0  0  0  0  0
   38.8155   34.7651   39.9858 H   0  0  0  0  0  0  0  0  0  0  0  0
   39.5655   36.1695   39.0477 H   0  0  0  0  0  0  0  0  0  0  0  0
   41.0888   34.9065   38.0639 H   0  0  0  0  0  0  0  0  0  0  0  0
   39.6968   33.7343   38.2139 H   0  0  0  0  0  0  0  0  0  0  0  0
   40.6709   32.6322   39.9968 H   0  0  0  0  0  0  0  0  0  0  0  0
   40.6508   31.1842   37.6919 H   0  0  0  0  0  0  0  0  0  0  0  0
   42.3619   30.1658   36.1955 H   0  0  0  0  0  0  0  0  0  0  0  0
   44.9116   31.2180   36.3604 H   0  0  0  0  0  0  0  0  0  0  0  0
   43.5914   34.3625   39.2128 H   0  0  0  0  0  0  0  0  0  0  0  0
   42.6451   35.7797   39.8550 H   0  0  0  0  0  0  0  0  0  0  0  0
   45.5751   36.2236   43.7573 H   0  0  0  0  0  0  0  0  0  0  0  0
   50.7130   35.3606   42.2886 H   0  0  0  0  0  0  0  0  0  0  0  0
   48.4505   36.3820   42.0475 H   0  0  0  0  0  0  0  0  0  0  0  0
   48.9816   31.5122   42.7051 H   0  0  0  0  0  0  0  0  0  0  0  0
  1  2  1  0
  3  2  1  0
  4  3  1  0
  5  6  1  0
  5  4  1  0
  6  1  1  0
  7  6  1  0
  8  7  2  0
  9 10  2  0
  9  8  1  0
 10 11  1  0
 11  7  1  0
 12  1  1  0
 12 16  1  0
 13 20  1  0
 13 14  1  0
 15 14  2  0
 16 15  1  0
 17 16  2  0
 17 13  1  0
 18 23  2  0
 19 20  2  0
 19 18  1  0
 20 21  1  0
 21 22  2  0
 23 22  1  0
  2 24  1  0
  2 25  1  0
  3 26  1  0
  3 27  1  0
  4 28  1  0
  4 29  1  0
  5 30  1  0
  5 31  1  0
  6 32  1  1
  8 33  1  0
  9 34  1  0
 10 35  1  0
 12 36  1  0
 12 37  1  0
 14 38  1  0
 18 39  1  0
 19 40  1  0
 22 41  1  0
M  ISO  8  24  13  25  13  26  13  27  13  28  13  29  13  30  13  31  13
M  ISO  8  32  13  33  14  34  14  35  14  36   8  37   8  38  14  39  14
M  ISO  2  40  14  41  14
M  END
>  <minimizedAffinity>  (1) 
-5.83460903

>  <minimizedRMSD>  (1) 
1.16012549

$$$$
