
     RDKit          3D

 45 48  0  0  1  0  0  0  0  0999 V2000
   42.1230   34.4600   41.0390 N   0  0  0  0  0  0  0  0  0  0  0  0
   40.9010   34.9840   41.6090 C   0  0  0  0  0  0  0  0  0  0  0  0
   40.2600   35.9540   40.6740 C   0  0  0  0  0  0  0  0  0  0  0  0
   40.0740   35.3790   39.3060 C   0  0  0  0  0  0  0  0  0  0  0  0
   41.2370   34.6370   38.7520 C   0  0  0  0  0  0  0  0  0  0  0  0
   41.8910   33.7780   39.8190 C   0  0  1  0  0  0  0  0  0  0  0  0
   43.0180   33.0540   39.3450 N   0  0  0  0  0  0  0  0  0  0  0  0
   43.8350   33.4440   38.3760 C   0  0  0  0  0  0  0  0  0  0  0  0
   44.8930   32.6180   38.0310 C   0  0  0  0  0  0  0  0  0  0  0  0
   45.0960   31.4090   38.6840 C   0  0  0  0  0  0  0  0  0  0  0  0
   46.2260   30.6390   38.2390 N   0  0  0  0  0  0  0  0  0  0  0  0
   44.2490   31.0420   39.6620 N   0  0  0  0  0  0  0  0  0  0  0  0
   43.2270   31.8730   39.9730 C   0  0  0  0  0  0  0  0  0  0  0  0
   42.4900   31.4240   40.9140 O   0  0  0  0  0  0  0  0  0  0  0  0
   43.0830   35.4960   40.9630 C   0  0  0  0  0  0  0  0  0  0  0  0
   46.2260   34.7990   42.5920 N   0  0  0  0  0  0  0  0  0  0  0  0
   45.5080   35.2350   43.6180 C   0  0  0  0  0  0  0  0  0  0  0  0
   44.2680   35.5640   43.2460 N   0  0  0  0  0  0  0  0  0  0  0  0
   44.2220   35.3140   41.9110 C   0  0  0  0  0  0  0  0  0  0  0  0
   45.4370   34.8390   41.5040 N   0  0  0  0  0  0  0  0  0  0  0  0
   49.9530   34.5470   42.3560 C   0  0  0  0  0  0  0  0  0  0  0  0
   48.6990   35.1140   42.5850 C   0  0  0  0  0  0  0  0  0  0  0  0
   47.5480   34.3300   42.3890 C   0  0  0  0  0  0  0  0  0  0  0  0
   47.7610   33.0700   41.9890 N   0  0  0  0  0  0  0  0  0  0  0  0
   48.9670   32.5130   41.7640 C   0  0  0  0  0  0  0  0  0  0  0  0
   50.0550   33.2760   41.9560 N   0  0  0  0  0  0  0  0  0  0  0  0
   40.2060   34.1532   41.8006 H   0  0  0  0  0  0  0  0  0  0  0  0
   41.1416   35.5028   42.5487 H   0  0  0  0  0  0  0  0  0  0  0  0
   39.2761   36.2370   41.0764 H   0  0  0  0  0  0  0  0  0  0  0  0
   40.9223   36.8279   40.5866 H   0  0  0  0  0  0  0  0  0  0  0  0
   39.2195   34.6873   39.3440 H   0  0  0  0  0  0  0  0  0  0  0  0
   39.9236   36.2400   38.6382 H   0  0  0  0  0  0  0  0  0  0  0  0
   40.8937   33.9911   37.9304 H   0  0  0  0  0  0  0  0  0  0  0  0
   41.9758   35.3651   38.3860 H   0  0  0  0  0  0  0  0  0  0  0  0
   41.1419   33.0122   40.0688 H   0  0  0  0  0  0  0  0  0  0  0  0
   43.6766   34.4013   37.8579 H   0  0  0  0  0  0  0  0  0  0  0  0
   45.5812   32.9239   37.2293 H   0  0  0  0  0  0  0  0  0  0  0  0
   46.4365   29.7318   38.6790 H   0  0  0  0  0  0  0  0  0  0  0  0
   46.8249   30.9947   37.4803 H   0  0  0  0  0  0  0  0  0  0  0  0
   43.4826   35.5277   39.9386 H   0  0  0  0  0  0  0  0  0  0  0  0
   42.5755   36.4323   41.2381 H   0  0  0  0  0  0  0  0  0  0  0  0
   45.8865   35.3157   44.6477 H   0  0  0  0  0  0  0  0  0  0  0  0
   50.8616   35.1487   42.5053 H   0  0  0  0  0  0  0  0  0  0  0  0
   48.6117   36.1599   42.9143 H   0  0  0  0  0  0  0  0  0  0  0  0
   49.0573   31.4676   41.4339 H   0  0  0  0  0  0  0  0  0  0  0  0
  1  2  1  0
  3  2  1  0
  4  3  1  0
  5  4  1  0
  5  6  1  0
  6  1  1  0
  7  6  1  0
  7 13  1  0
  8  7  1  0
  9  8  2  0
  9 10  1  0
 10 12  2  0
 11 10  1  0
 12 13  1  0
 13 14  2  0
 15  1  1  0
 15 19  1  0
 16 17  1  0
 18 17  2  0
 19 18  1  0
 20 19  2  0
 20 16  1  0
 21 22  2  0
 23 22  1  0
 23 16  1  0
 24 23  2  0
 25 26  2  0
 25 24  1  0
 26 21  1  0
  2 27  1  0
  2 28  1  0
  3 29  1  0
  3 30  1  0
  4 31  1  0
  4 32  1  0
  5 33  1  0
  5 34  1  0
  6 35  1  1
  8 36  1  0
  9 37  1  0
 11 38  1  0
 11 39  1  0
 15 40  1  0
 15 41  1  0
 17 42  1  0
 21 43  1  0
 22 44  1  0
 25 45  1  0
M  ISO  8  27  13  28  13  29  13  30  13  31  13  32  13  33  13  34  13
M  ISO  8  35  13  36  14  37  14  40   8  41   8  42  14  43  14  44  14
M  ISO  1  45  14
M  END
>  <minimizedAffinity>  (1) 
-5.77285433

>  <minimizedRMSD>  (1) 
1.84398723

$$$$
