
     RDKit          3D

 37 39  0  0  1  0  0  0  0  0999 V2000
   42.6230   34.5540   40.4740 N   0  0  0  0  0  0  0  0  0  0  0  0
   41.6440   33.8890   41.3060 C   0  0  0  0  0  0  0  0  0  0  0  0
   40.4580   34.7560   41.5360 C   0  0  0  0  0  0  0  0  0  0  0  0
   39.8770   35.2930   40.2740 C   0  0  0  0  0  0  0  0  0  0  0  0
   40.8530   35.7350   39.2480 C   0  0  0  0  0  0  0  0  0  0  0  0
   42.1070   34.9180   39.1970 C   0  0  2  0  0  0  0  0  0  0  0  0
   43.1700   35.6510   41.1830 C   0  0  0  0  0  0  0  0  0  0  0  0
   46.2960   34.6150   42.6300 N   0  0  0  0  0  0  0  0  0  0  0  0
   45.5990   34.9140   43.7330 C   0  0  0  0  0  0  0  0  0  0  0  0
   44.3660   35.3350   43.4180 N   0  0  0  0  0  0  0  0  0  0  0  0
   44.3090   35.2910   42.0670 C   0  0  0  0  0  0  0  0  0  0  0  0
   45.4980   34.8470   41.5750 N   0  0  0  0  0  0  0  0  0  0  0  0
   50.0050   34.2650   42.3210 C   0  0  0  0  0  0  0  0  0  0  0  0
   48.7750   34.8460   42.6410 C   0  0  0  0  0  0  0  0  0  0  0  0
   47.6060   34.1400   42.3550 C   0  0  0  0  0  0  0  0  0  0  0  0
   47.7480   32.9320   41.7840 N   0  0  0  0  0  0  0  0  0  0  0  0
   48.9420   32.3730   41.4750 C   0  0  0  0  0  0  0  0  0  0  0  0
   50.0580   33.0640   41.7560 N   0  0  0  0  0  0  0  0  0  0  0  0
   41.9960   33.7180   38.3140 C   0  0  0  0  0  0  0  0  0  0  0  0
   40.8960   33.2180   37.9630 O   0  0  0  0  0  0  0  0  0  0  0  0
   43.1790   33.1110   37.8510 O   0  0  0  0  0  0  0  0  0  0  0  0
   41.3205   32.9625   40.8091 H   0  0  0  0  0  0  0  0  0  0  0  0
   42.1067   33.6655   42.2786 H   0  0  0  0  0  0  0  0  0  0  0  0
   39.6873   34.1659   42.0536 H   0  0  0  0  0  0  0  0  0  0  0  0
   40.7898   35.6151   42.1375 H   0  0  0  0  0  0  0  0  0  0  0  0
   39.2530   34.5045   39.8280 H   0  0  0  0  0  0  0  0  0  0  0  0
   39.3199   36.1962   40.5635 H   0  0  0  0  0  0  0  0  0  0  0  0
   40.3660   35.6802   38.2632 H   0  0  0  0  0  0  0  0  0  0  0  0
   41.1543   36.7574   39.5200 H   0  0  0  0  0  0  0  0  0  0  0  0
   42.8397   35.6023   38.7444 H   0  0  0  0  0  0  0  0  0  0  0  0
   43.5206   36.3950   40.4525 H   0  0  0  0  0  0  0  0  0  0  0  0
   42.3725   36.0396   41.8333 H   0  0  0  0  0  0  0  0  0  0  0  0
   45.9857   34.8261   44.7590 H   0  0  0  0  0  0  0  0  0  0  0  0
   50.9372   34.8068   42.5388 H   0  0  0  0  0  0  0  0  0  0  0  0
   48.7293   35.8404   43.1092 H   0  0  0  0  0  0  0  0  0  0  0  0
   48.9960   31.3793   41.0063 H   0  0  0  0  0  0  0  0  0  0  0  0
   43.1301   32.3147   37.2648 H   0  0  0  0  0  0  0  0  0  0  0  0
  1  7  1  0
  1  2  1  0
  2  3  1  0
  4  3  1  0
  5  4  1  0
  6  5  1  0
  6  1  1  0
  7 11  1  0
  8  9  1  0
 10  9  2  0
 11 10  1  0
 12 11  2  0
 12  8  1  0
 13 14  2  0
 15  8  1  0
 15 14  1  0
 16 15  2  0
 17 18  2  0
 17 16  1  0
 18 13  1  0
 19  6  1  0
 20 19  2  0
 21 19  1  0
  2 22  1  0
  2 23  1  0
  3 24  1  0
  3 25  1  0
  4 26  1  0
  4 27  1  0
  5 28  1  0
  5 29  1  0
  6 30  1  6
  7 31  1  0
  7 32  1  0
  9 33  1  0
 13 34  1  0
 14 35  1  0
 17 36  1  0
 21 37  1  0
M  ISO  8  22  13  23  13  24  13  25  13  26  13  27  13  28  13  29  13
M  ISO  8  30  13  31   8  32   8  33  14  34  14  35  14  36  14  37   3
M  END
>  <minimizedAffinity>  (1) 
-5.61401033

>  <minimizedRMSD>  (1) 
0.992964447

$$$$
