
     RDKit          3D

 40 43  0  0  1  0  0  0  0  0999 V2000
   42.1270   34.4830   41.1040 N   0  0  0  0  0  0  0  0  0  0  0  0
   40.8860   34.9910   41.6320 C   0  0  0  0  0  0  0  0  0  0  0  0
   40.2680   35.9430   40.6640 C   0  0  0  0  0  0  0  0  0  0  0  0
   40.1460   35.3730   39.2790 C   0  0  0  0  0  0  0  0  0  0  0  0
   41.3200   34.6010   38.7950 C   0  0  0  0  0  0  0  0  0  0  0  0
   41.9430   33.7650   39.8940 C   0  0  1  0  0  0  0  0  0  0  0  0
   43.1320   33.1100   39.4510 N   0  0  0  0  0  0  0  0  0  0  0  0
   43.7910   33.3850   38.2880 C   0  0  0  0  0  0  0  0  0  0  0  0
   44.8990   32.6140   38.1060 N   0  0  0  0  0  0  0  0  0  0  0  0
   44.9190   31.8330   39.2100 C   0  0  0  0  0  0  0  0  0  0  0  0
   43.8720   32.1490   39.9750 N   0  0  0  0  0  0  0  0  0  0  0  0
   43.0820   35.5170   41.0500 C   0  0  0  0  0  0  0  0  0  0  0  0
   46.2410   34.8050   42.6500 N   0  0  0  0  0  0  0  0  0  0  0  0
   45.5280   35.2170   43.6810 C   0  0  0  0  0  0  0  0  0  0  0  0
   44.2800   35.5480   43.3190 N   0  0  0  0  0  0  0  0  0  0  0  0
   44.2310   35.3220   41.9850 C   0  0  0  0  0  0  0  0  0  0  0  0
   45.4500   34.8570   41.5500 N   0  0  0  0  0  0  0  0  0  0  0  0
   49.9570   34.5530   42.3500 C   0  0  0  0  0  0  0  0  0  0  0  0
   48.7230   35.1450   42.5950 C   0  0  0  0  0  0  0  0  0  0  0  0
   47.5680   34.3460   42.4360 C   0  0  0  0  0  0  0  0  0  0  0  0
   47.7690   33.0760   42.0590 N   0  0  0  0  0  0  0  0  0  0  0  0
   48.9680   32.5130   41.8230 C   0  0  0  0  0  0  0  0  0  0  0  0
   50.0700   33.2810   41.9770 N   0  0  0  0  0  0  0  0  0  0  0  0
   40.1958   34.1529   41.8089 H   0  0  0  0  0  0  0  0  0  0  0  0
   41.0857   35.5176   42.5769 H   0  0  0  0  0  0  0  0  0  0  0  0
   39.2628   36.2069   41.0246 H   0  0  0  0  0  0  0  0  0  0  0  0
   40.9251   36.8230   40.6017 H   0  0  0  0  0  0  0  0  0  0  0  0
   39.2724   34.7047   39.2641 H   0  0  0  0  0  0  0  0  0  0  0  0
   40.0569   36.2379   38.6052 H   0  0  0  0  0  0  0  0  0  0  0  0
   40.9959   33.9343   37.9823 H   0  0  0  0  0  0  0  0  0  0  0  0
   42.0765   35.3183   38.4441 H   0  0  0  0  0  0  0  0  0  0  0  0
   41.2165   32.9751   40.1352 H   0  0  0  0  0  0  0  0  0  0  0  0
   43.4611   34.1510   37.5708 H   0  0  0  0  0  0  0  0  0  0  0  0
   45.6727   31.0652   39.4392 H   0  0  0  0  0  0  0  0  0  0  0  0
   43.4748   35.5739   40.0241 H   0  0  0  0  0  0  0  0  0  0  0  0
   42.5719   36.4424   41.3557 H   0  0  0  0  0  0  0  0  0  0  0  0
   45.9102   35.2810   44.7105 H   0  0  0  0  0  0  0  0  0  0  0  0
   50.8694   35.1559   42.4684 H   0  0  0  0  0  0  0  0  0  0  0  0
   48.6482   36.1987   42.9019 H   0  0  0  0  0  0  0  0  0  0  0  0
   49.0492   31.4603   41.5143 H   0  0  0  0  0  0  0  0  0  0  0  0
  1  2  1  0
  3  2  1  0
  4  3  1  0
  5  4  1  0
  5  6  1  0
  6  1  1  0
  7  6  1  0
  7 11  1  0
  8  7  1  0
  9  8  2  0
  9 10  1  0
 10 11  2  0
 12  1  1  0
 12 16  1  0
 13 14  1  0
 15 14  2  0
 16 15  1  0
 17 16  2  0
 17 13  1  0
 18 19  2  0
 20 19  1  0
 20 13  1  0
 21 20  2  0
 22 23  2  0
 22 21  1  0
 23 18  1  0
  2 24  1  0
  2 25  1  0
  3 26  1  0
  3 27  1  0
  4 28  1  0
  4 29  1  0
  5 30  1  0
  5 31  1  0
  6 32  1  1
  8 33  1  0
 10 34  1  0
 12 35  1  0
 12 36  1  0
 14 37  1  0
 18 38  1  0
 19 39  1  0
 22 40  1  0
M  ISO  8  24  13  25  13  26  13  27  13  28  13  29  13  30  13  31  13
M  ISO  8  32  13  33  14  34  14  35   8  36   8  37  14  38  14  39  14
M  ISO  1  40  14
M  END
>  <minimizedAffinity>  (1) 
-5.55360746

>  <minimizedRMSD>  (1) 
1.26716101

$$$$
