
     RDKit          3D

 36 38  0  0  1  0  0  0  0  0999 V2000
   46.0240   33.1740   44.3130 C   0  0  2  0  0  0  0  0  0  0  0  0
   42.7840   33.0690   41.5480 C   0  0  0  0  0  0  0  0  0  0  0  0
   42.6410   32.9870   40.1460 C   0  0  0  0  0  0  0  0  0  0  0  0
   43.7640   33.2370   39.3500 C   0  0  0  0  0  0  0  0  0  0  0  0
   44.9240   33.5420   39.9700 N   0  0  0  0  0  0  0  0  0  0  0  0
   45.0480   33.6190   41.3240 C   0  0  0  0  0  0  0  0  0  0  0  0
   43.9790   33.3800   42.0820 N   0  0  0  0  0  0  0  0  0  0  0  0
   46.2630   33.9540   41.9710 N   0  0  0  0  0  0  0  0  0  0  0  0
   47.1890   34.5800   41.1880 C   0  0  0  0  0  0  0  0  0  0  0  0
   48.2690   34.8150   42.0350 C   0  0  0  0  0  0  0  0  0  0  0  0
   47.9770   34.3400   43.2730 N   0  0  0  0  0  0  0  0  0  0  0  0
   46.7480   33.8160   43.2190 C   0  0  0  0  0  0  0  0  0  0  0  0
   45.3020   34.3020   45.0770 C   0  0  0  0  0  0  0  0  0  0  0  0
   46.9840   32.5360   45.2800 C   0  0  0  0  0  0  0  0  0  0  0  0
   46.3600   31.8660   46.4240 C   0  0  0  0  0  0  0  0  0  0  0  0
   46.5990   32.4650   47.6600 C   0  0  0  0  0  0  0  0  0  0  0  0
   46.0940   31.9790   48.8550 C   0  0  0  0  0  0  0  0  0  0  0  0
   45.3100   30.8270   48.7610 C   0  0  0  0  0  0  0  0  0  0  0  0
   45.0390   30.1910   47.5660 C   0  0  0  0  0  0  0  0  0  0  0  0
   45.5760   30.7330   46.4160 C   0  0  0  0  0  0  0  0  0  0  0  0
   45.3421   32.4085   43.9142 H   0  0  0  0  0  0  0  0  0  0  0  0
   41.9204   32.8791   42.2023 H   0  0  0  0  0  0  0  0  0  0  0  0
   41.6720   32.7332   39.6913 H   0  0  0  0  0  0  0  0  0  0  0  0
   43.7038   33.1866   38.2528 H   0  0  0  0  0  0  0  0  0  0  0  0
   47.1016   34.8412   40.1231 H   0  0  0  0  0  0  0  0  0  0  0  0
   49.2095   35.3074   41.7468 H   0  0  0  0  0  0  0  0  0  0  0  0
   45.4073   34.1374   46.1595 H   0  0  0  0  0  0  0  0  0  0  0  0
   45.7482   35.2708   44.8083 H   0  0  0  0  0  0  0  0  0  0  0  0
   44.2353   34.3025   44.8083 H   0  0  0  0  0  0  0  0  0  0  0  0
   47.5766   31.7902   44.7299 H   0  0  0  0  0  0  0  0  0  0  0  0
   47.5887   33.3549   45.6969 H   0  0  0  0  0  0  0  0  0  0  0  0
   47.2215   33.3715   47.6879 H   0  0  0  0  0  0  0  0  0  0  0  0
   46.2978   32.4699   49.8180 H   0  0  0  0  0  0  0  0  0  0  0  0
   44.8875   30.4055   49.6850 H   0  0  0  0  0  0  0  0  0  0  0  0
   44.4171   29.2843   47.5317 H   0  0  0  0  0  0  0  0  0  0  0  0
   45.3698   30.2406   45.4542 H   0  0  0  0  0  0  0  0  0  0  0  0
  1 13  1  0
  1 14  1  0
  2  7  2  0
  3  2  1  0
  4  5  1  0
  4  3  2  0
  5  6  2  0
  6  8  1  0
  6  7  1  0
  8 12  1  0
  9  8  1  0
  9 10  2  0
 10 11  1  0
 12 11  2  0
 12  1  1  0
 14 15  1  0
 15 16  2  0
 16 17  1  0
 18 17  2  0
 19 18  1  0
 20 15  1  0
 20 19  2  0
  1 21  1  6
  2 22  1  0
  3 23  1  0
  4 24  1  0
  9 25  1  0
 10 26  1  0
 13 27  1  0
 13 28  1  0
 13 29  1  0
 14 30  1  0
 14 31  1  0
 16 32  1  0
 17 33  1  0
 18 34  1  0
 19 35  1  0
 20 36  1  0
M  ISO  8  21   8  22  14  23  14  24  14  25  14  26  14  27   8  28   8
M  ISO  8  29   8  30   8  31   8  32  14  33  14  34  14  35  14  36  14
M  END
>  <minimizedAffinity>  (1) 
-4.85618734

>  <minimizedRMSD>  (1) 
4.41141415

$$$$
