
     RDKit          3D

 41 44  0  0  1  0  0  0  0  0999 V2000
   43.1160   35.1780   40.4940 C   0  0  0  0  0  0  0  0  0  0  0  0
   46.1950   34.9140   42.3440 N   0  0  0  0  0  0  0  0  0  0  0  0
   45.4850   35.6750   43.1580 C   0  0  0  0  0  0  0  0  0  0  0  0
   44.2650   35.9170   42.6680 N   0  0  0  0  0  0  0  0  0  0  0  0
   44.2330   35.2560   41.4730 C   0  0  0  0  0  0  0  0  0  0  0  0
   45.4340   34.6270   41.2610 N   0  0  0  0  0  0  0  0  0  0  0  0
   49.9080   34.4500   42.3050 C   0  0  0  0  0  0  0  0  0  0  0  0
   48.6850   35.1080   42.2960 C   0  0  0  0  0  0  0  0  0  0  0  0
   47.5000   34.3620   42.3470 C   0  0  0  0  0  0  0  0  0  0  0  0
   47.6480   33.0230   42.4030 N   0  0  0  0  0  0  0  0  0  0  0  0
   48.8300   32.3790   42.4110 C   0  0  0  0  0  0  0  0  0  0  0  0
   49.9560   33.1080   42.3610 N   0  0  0  0  0  0  0  0  0  0  0  0
   42.0470   34.3440   40.9290 N   0  0  0  0  0  0  0  0  0  0  0  0
   41.0920   35.1450   41.6450 C   0  0  0  0  0  0  0  0  0  0  0  0
   40.4030   36.1090   40.7330 C   0  0  0  0  0  0  0  0  0  0  0  0
   39.8530   35.4520   39.5020 C   0  0  0  0  0  0  0  0  0  0  0  0
   40.7010   34.4160   38.8710 C   0  0  0  0  0  0  0  0  0  0  0  0
   41.4460   33.6000   39.8860 C   0  0  1  0  0  0  0  0  0  0  0  0
   42.3530   32.5790   39.2680 C   0  0  0  0  0  0  0  0  0  0  0  0
   41.8760   31.1150   39.2670 C   0  0  0  0  0  0  0  0  0  0  0  0
   41.9700   31.8860   38.0150 C   0  0  0  0  0  0  0  0  0  0  0  0
   43.5081   34.7786   39.5471 H   0  0  0  0  0  0  0  0  0  0  0  0
   42.7115   36.1943   40.3774 H   0  0  0  0  0  0  0  0  0  0  0  0
   45.8524   36.0617   44.1200 H   0  0  0  0  0  0  0  0  0  0  0  0
   50.8419   35.0300   42.2661 H   0  0  0  0  0  0  0  0  0  0  0  0
   48.6469   36.2063   42.2492 H   0  0  0  0  0  0  0  0  0  0  0  0
   48.8722   31.2808   42.4574 H   0  0  0  0  0  0  0  0  0  0  0  0
   40.3408   34.4844   42.1025 H   0  0  0  0  0  0  0  0  0  0  0  0
   41.6268   35.7175   42.4172 H   0  0  0  0  0  0  0  0  0  0  0  0
   39.5733   36.5796   41.2809 H   0  0  0  0  0  0  0  0  0  0  0  0
   41.1491   36.8492   40.4084 H   0  0  0  0  0  0  0  0  0  0  0  0
   38.8966   34.9812   39.7735 H   0  0  0  0  0  0  0  0  0  0  0  0
   39.7712   36.2555   38.7552 H   0  0  0  0  0  0  0  0  0  0  0  0
   40.0605   33.7461   38.2785 H   0  0  0  0  0  0  0  0  0  0  0  0
   41.4415   34.9252   38.2367 H   0  0  0  0  0  0  0  0  0  0  0  0
   40.6615   33.0284   40.4035 H   0  0  0  0  0  0  0  0  0  0  0  0
   43.2419   33.1375   39.5966 H   0  0  0  0  0  0  0  0  0  0  0  0
   42.5877   30.3013   39.4702 H   0  0  0  0  0  0  0  0  0  0  0  0
   41.0865   30.5470   39.7809 H   0  0  0  0  0  0  0  0  0  0  0  0
   42.7456   31.6305   37.2780 H   0  0  0  0  0  0  0  0  0  0  0  0
   41.2601   32.1133   37.2061 H   0  0  0  0  0  0  0  0  0  0  0  0
  1 13  1  0
  1  5  1  0
  2  9  1  0
  2  3  1  0
  4  3  2  0
  5  4  1  0
  6  5  2  0
  6  2  1  0
  7 12  2  0
  8  7  1  0
  8  9  2  0
  9 10  1  0
 10 11  2  0
 12 11  1  0
 13 14  1  0
 15 14  1  0
 16 15  1  0
 17 16  1  0
 17 18  1  0
 18 13  1  0
 19 18  1  0
 20 19  1  0
 21 20  1  0
 21 19  1  0
  1 22  1  0
  1 23  1  0
  3 24  1  0
  7 25  1  0
  8 26  1  0
 11 27  1  0
 14 28  1  0
 14 29  1  0
 15 30  1  0
 15 31  1  0
 16 32  1  0
 16 33  1  0
 17 34  1  0
 17 35  1  0
 18 36  1  1
 19 37  1  0
 20 38  1  0
 20 39  1  0
 21 40  1  0
 21 41  1  0
M  ISO  8  22   8  23   8  24  14  25  14  26  14  27  14  28  13  29  13
M  ISO  8  30  13  31  13  32  13  33  13  34  13  35  13  36  13  37  13
M  ISO  4  38  13  39  13  40  13  41  13
M  END
>  <minimizedAffinity>  (1) 
-5.45921516

>  <minimizedRMSD>  (1) 
1.19045711

$$$$
