
     RDKit          3D

 42 45  0  0  1  0  0  0  0  0999 V2000
   49.0750   33.7030   42.6940 C   0  0  2  0  0  0  0  0  0  0  0  0
   47.6850   33.9300   42.5220 C   0  0  2  0  0  0  0  0  0  0  0  0
   47.6120   35.3910   41.9780 C   0  0  0  0  0  0  0  0  0  0  0  0
   48.9670   35.8160   41.5520 C   0  0  0  0  0  0  0  0  0  0  0  0
   49.7960   35.0900   42.5220 C   0  0  0  0  0  0  0  0  0  0  0  0
   49.8000   32.8470   41.7580 C   0  0  0  0  0  0  0  0  0  0  0  0
   49.0720   32.2760   40.7390 C   0  0  0  0  0  0  0  0  0  0  0  0
   49.6360   31.4280   39.7950 C   0  0  0  0  0  0  0  0  0  0  0  0
   50.9990   31.2150   39.9720 N   0  0  0  0  0  0  0  0  0  0  0  0
   51.7040   31.7670   40.9510 C   0  0  0  0  0  0  0  0  0  0  0  0
   51.0880   32.5640   41.8150 N   0  0  0  0  0  0  0  0  0  0  0  0
   46.8170   33.8170   43.7180 C   0  0  0  0  0  0  0  0  0  0  0  0
   45.9120   34.5860   43.9180 O   0  0  0  0  0  0  0  0  0  0  0  0
   46.8980   32.8410   44.7700 C   0  0  0  0  0  0  0  0  0  0  0  0
   46.7880   33.1980   46.1130 C   0  0  0  0  0  0  0  0  0  0  0  0
   46.9110   32.3300   47.1950 C   0  0  0  0  0  0  0  0  0  0  0  0
   47.1730   30.9920   46.9290 C   0  0  0  0  0  0  0  0  0  0  0  0
   47.2920   30.5820   45.5970 C   0  0  0  0  0  0  0  0  0  0  0  0
   47.1440   31.5240   44.5790 C   0  0  0  0  0  0  0  0  0  0  0  0
   46.9940   30.7000   43.3520 C   0  0  0  0  0  0  0  0  0  0  0  0
   45.8890   30.6620   42.4460 C   0  0  0  0  0  0  0  0  0  0  0  0
   45.8340   29.7540   41.4540 C   0  0  0  0  0  0  0  0  0  0  0  0
   46.9300   28.8110   41.3310 C   0  0  0  0  0  0  0  0  0  0  0  0
   48.0390   29.3570   42.7710 S   0  0  0  0  0  0  0  0  0  0  0  0
   49.1029   33.1931   43.6683 H   0  0  0  0  0  0  0  0  0  0  0  0
   47.2924   33.1386   41.8666 H   0  0  0  0  0  0  0  0  0  0  0  0
   46.9260   35.4308   41.1190 H   0  0  0  0  0  0  0  0  0  0  0  0
   47.2426   36.0631   42.7666 H   0  0  0  0  0  0  0  0  0  0  0  0
   49.1839   35.5044   40.5196 H   0  0  0  0  0  0  0  0  0  0  0  0
   49.1225   36.9049   41.5423 H   0  0  0  0  0  0  0  0  0  0  0  0
   50.8167   34.9526   42.1356 H   0  0  0  0  0  0  0  0  0  0  0  0
   49.8965   35.6307   43.4746 H   0  0  0  0  0  0  0  0  0  0  0  0
   47.9975   32.5010   40.6694 H   0  0  0  0  0  0  0  0  0  0  0  0
   49.0574   30.9666   38.9812 H   0  0  0  0  0  0  0  0  0  0  0  0
   52.7816   31.5673   41.0450 H   0  0  0  0  0  0  0  0  0  0  0  0
   46.5868   34.2559   46.3373 H   0  0  0  0  0  0  0  0  0  0  0  0
   46.8040   32.6926   48.2280 H   0  0  0  0  0  0  0  0  0  0  0  0
   47.2848   30.2687   47.7502 H   0  0  0  0  0  0  0  0  0  0  0  0
   47.4998   29.5292   45.3552 H   0  0  0  0  0  0  0  0  0  0  0  0
   45.0699   31.3870   42.5615 H   0  0  0  0  0  0  0  0  0  0  0  0
   44.9833   29.7276   40.7571 H   0  0  0  0  0  0  0  0  0  0  0  0
   47.0777   28.0007   40.6019 H   0  0  0  0  0  0  0  0  0  0  0  0
  2  1  1  0
  2 12  1  0
  3  2  1  0
  4  3  1  0
  4  5  1  0
  5  1  1  0
  6 11  1  0
  6  1  1  0
  7  6  2  0
  8  9  2  0
  8  7  1  0
  9 10  1  0
 10 11  2  0
 12 13  2  0
 12 14  1  0
 14 15  2  0
 15 16  1  0
 17 16  2  0
 18 17  1  0
 19 14  1  0
 19 18  2  0
 20 19  1  0
 21 20  2  0
 22 21  1  0
 23 22  2  0
 23 24  1  0
 24 20  1  0
  1 25  1  1
  2 26  1  6
  3 27  1  0
  3 28  1  0
  4 29  1  0
  4 30  1  0
  5 31  1  0
  5 32  1  0
  7 33  1  0
  8 34  1  0
 10 35  1  0
 15 36  1  0
 16 37  1  0
 17 38  1  0
 18 39  1  0
 21 40  1  0
 22 41  1  0
 23 42  1  0
M  ISO  8  25  13  26  13  27  13  28  13  29  13  30  13  31  13  32  13
M  ISO  8  33  14  34  14  35  14  36  14  37  14  38  14  39  14  40  14
M  ISO  2  41  14  42  14
M  END
>  <minimizedAffinity>  (1) 
-5.28583813

>  <minimizedRMSD>  (1) 
0.356152058

$$$$
