
     RDKit          3D

 35 37  0  0  1  0  0  0  0  0999 V2000
   43.1130   35.1110   40.3270 C   0  0  0  0  0  0  0  0  0  0  0  0
   46.1630   34.8850   42.2560 N   0  0  0  0  0  0  0  0  0  0  0  0
   45.3920   35.6040   43.0590 C   0  0  0  0  0  0  0  0  0  0  0  0
   44.1890   35.8200   42.5500 N   0  0  0  0  0  0  0  0  0  0  0  0
   44.2060   35.1970   41.3450 C   0  0  0  0  0  0  0  0  0  0  0  0
   45.4300   34.6140   41.1570 N   0  0  0  0  0  0  0  0  0  0  0  0
   49.8790   34.5360   42.3110 C   0  0  0  0  0  0  0  0  0  0  0  0
   48.6390   35.1600   42.2920 C   0  0  0  0  0  0  0  0  0  0  0  0
   47.4850   34.3690   42.2750 C   0  0  0  0  0  0  0  0  0  0  0  0
   47.6830   33.0400   42.2780 N   0  0  0  0  0  0  0  0  0  0  0  0
   48.8730   32.4320   42.2960 C   0  0  0  0  0  0  0  0  0  0  0  0
   49.9840   33.2110   42.3120 N   0  0  0  0  0  0  0  0  0  0  0  0
   42.2090   34.0360   40.5720 N   0  0  0  0  0  0  0  0  0  0  0  0
   41.0950   34.4970   41.3490 C   0  0  0  0  0  0  0  0  0  0  0  0
   40.2690   35.4640   40.5560 C   0  0  0  0  0  0  0  0  0  0  0  0
   39.8580   34.8850   39.2330 C   0  0  0  0  0  0  0  0  0  0  0  0
   40.9350   34.1760   38.4770 C   0  0  0  0  0  0  0  0  0  0  0  0
   41.8180   33.3490   39.3750 C   0  0  1  0  0  0  0  0  0  0  0  0
   43.3020   32.8190   38.5150 S   0  0  0  0  0  0  0  0  0  0  0  0
   43.5675   34.9682   39.3355 H   0  0  0  0  0  0  0  0  0  0  0  0
   42.5363   36.0460   40.3826 H   0  0  0  0  0  0  0  0  0  0  0  0
   45.7159   35.9801   44.0406 H   0  0  0  0  0  0  0  0  0  0  0  0
   50.7918   35.1497   42.3255 H   0  0  0  0  0  0  0  0  0  0  0  0
   48.5650   36.2575   42.2903 H   0  0  0  0  0  0  0  0  0  0  0  0
   48.9495   31.3347   42.2978 H   0  0  0  0  0  0  0  0  0  0  0  0
   40.4715   33.6369   41.6344 H   0  0  0  0  0  0  0  0  0  0  0  0
   41.4733   35.0049   42.2484 H   0  0  0  0  0  0  0  0  0  0  0  0
   39.3660   35.7172   41.1308 H   0  0  0  0  0  0  0  0  0  0  0  0
   40.8775   36.3603   40.3651 H   0  0  0  0  0  0  0  0  0  0  0  0
   39.0440   34.1680   39.4153 H   0  0  0  0  0  0  0  0  0  0  0  0
   39.5641   35.7409   38.6076 H   0  0  0  0  0  0  0  0  0  0  0  0
   40.4674   33.5134   37.7338 H   0  0  0  0  0  0  0  0  0  0  0  0
   41.5655   34.9388   37.9968 H   0  0  0  0  0  0  0  0  0  0  0  0
   41.2086   32.4790   39.6607 H   0  0  0  0  0  0  0  0  0  0  0  0
   44.2622   32.4761   39.4300 H   0  0  0  0  0  0  0  0  0  0  0  0
  1 13  1  0
  1  5  1  0
  2  9  1  0
  2  3  1  0
  4  3  2  0
  5  4  1  0
  6  5  2  0
  6  2  1  0
  7 12  2  0
  8  7  1  0
  9 10  1  0
  9  8  2  0
 10 11  2  0
 11 12  1  0
 13 14  1  0
 15 14  1  0
 16 15  1  0
 17 16  1  0
 17 18  1  0
 18 13  1  0
 19 18  1  0
  1 20  1  0
  1 21  1  0
  3 22  1  0
  7 23  1  0
  8 24  1  0
 11 25  1  0
 14 26  1  0
 14 27  1  0
 15 28  1  0
 15 29  1  0
 16 30  1  0
 16 31  1  0
 17 32  1  0
 17 33  1  0
 18 34  1  1
 19 35  1  0
M  ISO  8  20   8  21   8  22  14  23  14  24  14  25  14  26  13  27  13
M  ISO  8  28  13  29  13  30  13  31  13  32  13  33  13  34  13  35  11
M  END
>  <minimizedAffinity>  (1) 
-5.34930992

>  <minimizedRMSD>  (1) 
0.471877903

$$$$
