
     RDKit          3D

 46 49  0  0  1  0  0  0  0  0999 V2000
   48.9210   33.7460   42.6890 C   0  0  2  0  0  0  0  0  0  0  0  0
   47.5590   34.0440   42.4300 C   0  0  2  0  0  0  0  0  0  0  0  0
   47.6560   35.5220   41.9290 C   0  0  0  0  0  0  0  0  0  0  0  0
   49.0380   35.8130   41.4930 C   0  0  0  0  0  0  0  0  0  0  0  0
   49.7500   35.0760   42.5410 C   0  0  0  0  0  0  0  0  0  0  0  0
   49.6470   32.8140   41.8470 C   0  0  0  0  0  0  0  0  0  0  0  0
   48.8930   31.9880   41.0450 C   0  0  0  0  0  0  0  0  0  0  0  0
   49.4540   31.0400   40.2110 C   0  0  0  0  0  0  0  0  0  0  0  0
   50.8460   30.9990   40.2490 N   0  0  0  0  0  0  0  0  0  0  0  0
   51.5760   31.7970   41.0170 C   0  0  0  0  0  0  0  0  0  0  0  0
   50.9740   32.6880   41.8020 N   0  0  0  0  0  0  0  0  0  0  0  0
   46.6350   34.0030   43.5940 C   0  0  0  0  0  0  0  0  0  0  0  0
   45.9250   34.9540   43.8280 O   0  0  0  0  0  0  0  0  0  0  0  0
   46.4330   32.9630   44.5580 C   0  0  0  0  0  0  0  0  0  0  0  0
   46.6550   33.1870   45.9200 C   0  0  0  0  0  0  0  0  0  0  0  0
   46.5030   32.1860   46.8960 C   0  0  0  0  0  0  0  0  0  0  0  0
   46.1130   30.9120   46.4840 C   0  0  0  0  0  0  0  0  0  0  0  0
   45.8830   30.6710   45.1240 C   0  0  0  0  0  0  0  0  0  0  0  0
   46.0490   31.7000   44.2360 C   0  0  0  0  0  0  0  0  0  0  0  0
   45.6080   31.0690   42.9490 C   0  0  0  0  0  0  0  0  0  0  0  0
   45.0150   29.7150   43.1780 C   0  0  0  0  0  0  0  0  0  0  0  0
   43.5370   29.8590   42.9300 C   0  0  0  0  0  0  0  0  0  0  0  0
   43.2440   31.2180   42.4280 C   0  0  0  0  0  0  0  0  0  0  0  0
   44.5100   31.9540   42.3110 C   0  0  0  0  0  0  0  0  0  0  0  0
   48.8442   33.2700   43.6777 H   0  0  0  0  0  0  0  0  0  0  0  0
   47.1341   33.2943   41.7464 H   0  0  0  0  0  0  0  0  0  0  0  0
   46.9680   35.6667   41.0830 H   0  0  0  0  0  0  0  0  0  0  0  0
   47.3830   36.2023   42.7492 H   0  0  0  0  0  0  0  0  0  0  0  0
   49.2492   35.4158   40.4892 H   0  0  0  0  0  0  0  0  0  0  0  0
   49.2962   36.8778   41.3952 H   0  0  0  0  0  0  0  0  0  0  0  0
   50.7849   34.8615   42.2360 H   0  0  0  0  0  0  0  0  0  0  0  0
   49.8251   35.6392   43.4829 H   0  0  0  0  0  0  0  0  0  0  0  0
   47.7977   32.0867   41.0690 H   0  0  0  0  0  0  0  0  0  0  0  0
   48.8536   30.3753   39.5724 H   0  0  0  0  0  0  0  0  0  0  0  0
   52.6734   31.7229   41.0053 H   0  0  0  0  0  0  0  0  0  0  0  0
   46.9627   34.1925   46.2431 H   0  0  0  0  0  0  0  0  0  0  0  0
   46.6872   32.4026   47.9586 H   0  0  0  0  0  0  0  0  0  0  0  0
   45.9873   30.1044   47.2202 H   0  0  0  0  0  0  0  0  0  0  0  0
   45.5749   29.6742   44.7756 H   0  0  0  0  0  0  0  0  0  0  0  0
   46.4898   30.9742   42.2982 H   0  0  0  0  0  0  0  0  0  0  0  0
   45.4499   28.9847   42.4797 H   0  0  0  0  0  0  0  0  0  0  0  0
   45.2182   29.3545   44.1972 H   0  0  0  0  0  0  0  0  0  0  0  0
   42.7878   29.0712   43.0973 H   0  0  0  0  0  0  0  0  0  0  0  0
   42.2465   31.6118   42.1833 H   0  0  0  0  0  0  0  0  0  0  0  0
   44.7425   32.1399   41.2521 H   0  0  0  0  0  0  0  0  0  0  0  0
   44.4465   32.9279   42.8184 H   0  0  0  0  0  0  0  0  0  0  0  0
  2  1  1  0
  2 12  1  0
  3  2  1  0
  4  3  1  0
  4  5  1  0
  5  1  1  0
  6  1  1  0
  7  6  2  0
  8  9  2  0
  8  7  1  0
  9 10  1  0
 10 11  2  0
 11  6  1  0
 12 13  2  0
 12 14  1  0
 14 15  2  0
 15 16  1  0
 17 16  2  0
 18 17  1  0
 19 14  1  0
 19 18  2  0
 20 21  1  0
 20 19  1  0
 22 21  1  0
 23 22  2  0
 24 23  1  0
 24 20  1  0
  1 25  1  1
  2 26  1  6
  3 27  1  0
  3 28  1  0
  4 29  1  0
  4 30  1  0
  5 31  1  0
  5 32  1  0
  7 33  1  0
  8 34  1  0
 10 35  1  0
 15 36  1  0
 16 37  1  0
 17 38  1  0
 18 39  1  0
 20 40  1  0
 21 41  1  0
 21 42  1  0
 22 43  1  0
 23 44  1  0
 24 45  1  0
 24 46  1  0
M  ISO  8  25  13  26  13  27  13  28  13  29  13  30  13  31  13  32  13
M  ISO  8  33  14  34  14  35  14  36  14  37  14  38  14  39  14  40  13
M  ISO  6  41  13  42  13  43  13  44  13  45  13  46  13
M  END
>  <minimizedAffinity>  (1) 
-5.28234529

>  <minimizedRMSD>  (1) 
1.09777772

$$$$
