
     RDKit          3D

 49 53  0  0  1  0  0  0  0  0999 V2000
   41.5980   34.2680   41.3210 N   0  0  0  0  0  0  0  0  0  0  0  0
   40.9360   35.4660   41.7390 C   0  0  0  0  0  0  0  0  0  0  0  0
   40.4040   36.1940   40.5390 C   0  0  0  0  0  0  0  0  0  0  0  0
   39.5450   35.3120   39.6830 C   0  0  0  0  0  0  0  0  0  0  0  0
   40.0550   33.9330   39.4590 C   0  0  0  0  0  0  0  0  0  0  0  0
   40.7190   33.3360   40.6760 C   0  0  1  0  0  0  0  0  0  0  0  0
   42.7760   34.5580   40.5960 C   0  0  0  0  0  0  0  0  0  0  0  0
   45.9460   35.0330   42.2750 N   0  0  0  0  0  0  0  0  0  0  0  0
   45.1640   35.8680   42.9420 C   0  0  0  0  0  0  0  0  0  0  0  0
   43.9200   35.8660   42.4930 N   0  0  0  0  0  0  0  0  0  0  0  0
   43.9200   34.9660   41.4710 C   0  0  0  0  0  0  0  0  0  0  0  0
   45.1830   34.4450   41.3330 N   0  0  0  0  0  0  0  0  0  0  0  0
   49.6690   34.9550   42.0800 C   0  0  0  0  0  0  0  0  0  0  0  0
   48.3780   35.4780   42.0020 C   0  0  0  0  0  0  0  0  0  0  0  0
   47.3090   34.6350   42.3120 C   0  0  0  0  0  0  0  0  0  0  0  0
   47.6190   33.3700   42.6670 N   0  0  0  0  0  0  0  0  0  0  0  0
   48.8600   32.8820   42.7380 C   0  0  0  0  0  0  0  0  0  0  0  0
   49.8980   33.7050   42.4350 N   0  0  0  0  0  0  0  0  0  0  0  0
   41.6650   31.8810   40.2560 S   0  0  0  0  0  0  0  0  0  0  0  0
   41.0850   31.0030   38.8390 C   0  0  0  0  0  0  0  0  0  0  0  0
   41.7020   30.8810   37.6390 N   0  0  0  0  0  0  0  0  0  0  0  0
   41.1900   30.1950   36.6180 C   0  0  0  0  0  0  0  0  0  0  0  0
   39.9930   29.5570   36.7110 N   0  0  0  0  0  0  0  0  0  0  0  0
   39.3100   29.6320   37.8880 C   0  0  0  0  0  0  0  0  0  0  0  0
   38.0910   29.0170   38.0710 C   0  0  0  0  0  0  0  0  0  0  0  0
   37.3760   29.0740   39.2450 C   0  0  0  0  0  0  0  0  0  0  0  0
   37.9110   29.7890   40.3050 C   0  0  0  0  0  0  0  0  0  0  0  0
   39.1330   30.4020   40.1160 C   0  0  0  0  0  0  0  0  0  0  0  0
   39.8680   30.3590   38.9450 C   0  0  0  0  0  0  0  0  0  0  0  0
   40.1030   35.2087   42.4097 H   0  0  0  0  0  0  0  0  0  0  0  0
   41.6512   36.1116   42.2698 H   0  0  0  0  0  0  0  0  0  0  0  0
   39.8044   37.0508   40.8802 H   0  0  0  0  0  0  0  0  0  0  0  0
   41.2612   36.5244   39.9340 H   0  0  0  0  0  0  0  0  0  0  0  0
   38.5584   35.2332   40.1629 H   0  0  0  0  0  0  0  0  0  0  0  0
   39.5232   35.7874   38.6913 H   0  0  0  0  0  0  0  0  0  0  0  0
   39.2094   33.2905   39.1723 H   0  0  0  0  0  0  0  0  0  0  0  0
   40.8176   33.9925   38.6685 H   0  0  0  0  0  0  0  0  0  0  0  0
   39.9029   33.0684   41.3633 H   0  0  0  0  0  0  0  0  0  0  0  0
   43.0697   33.6604   40.0321 H   0  0  0  0  0  0  0  0  0  0  0  0
   42.5519   35.4067   39.9330 H   0  0  0  0  0  0  0  0  0  0  0  0
   45.5108   36.4941   43.7773 H   0  0  0  0  0  0  0  0  0  0  0  0
   50.5227   35.6051   41.8380 H   0  0  0  0  0  0  0  0  0  0  0  0
   48.2074   36.5233   41.7051 H   0  0  0  0  0  0  0  0  0  0  0  0
   49.0379   31.8379   43.0349 H   0  0  0  0  0  0  0  0  0  0  0  0
   41.7514   30.1434   35.6735 H   0  0  0  0  0  0  0  0  0  0  0  0
   37.6653   28.4483   37.2311 H   0  0  0  0  0  0  0  0  0  0  0  0
   36.4052   28.5655   39.3399 H   0  0  0  0  0  0  0  0  0  0  0  0
   37.3793   29.8653   41.2649 H   0  0  0  0  0  0  0  0  0  0  0  0
   39.5542   30.9674   40.9603 H   0  0  0  0  0  0  0  0  0  0  0  0
  1  2  1  0
  3  2  1  0
  4  3  1  0
  5  4  1  0
  5  6  1  0
  6  1  1  0
  7  1  1  0
  7 11  1  0
  8 15  1  0
  8  9  1  0
 10  9  2  0
 11 10  1  0
 12 11  2  0
 12  8  1  0
 13 18  2  0
 14 13  1  0
 14 15  2  0
 15 16  1  0
 16 17  2  0
 18 17  1  0
 19  6  1  0
 20 29  1  0
 20 19  1  0
 21 20  2  0
 22 23  2  0
 22 21  1  0
 23 24  1  0
 24 25  1  0
 24 29  2  0
 25 26  2  0
 26 27  1  0
 28 27  2  0
 29 28  1  0
  2 30  1  0
  2 31  1  0
  3 32  1  0
  3 33  1  0
  4 34  1  0
  4 35  1  0
  5 36  1  0
  5 37  1  0
  6 38  1  1
  7 39  1  0
  7 40  1  0
  9 41  1  0
 13 42  1  0
 14 43  1  0
 17 44  1  0
 22 45  1  0
 25 46  1  0
 26 47  1  0
 27 48  1  0
 28 49  1  0
M  ISO  8  30  13  31  13  32  13  33  13  34  13  35  13  36  13  37  13
M  ISO  8  38  13  39   8  40   8  41  14  42  14  43  14  44  14  45  14
M  ISO  4  46  14  47  14  48  14  49  14
M  END
>  <minimizedAffinity>  (1) 
-6.05353069

>  <minimizedRMSD>  (1) 
2.17217112

$$$$
