
     RDKit          3D

 42 45  0  0  1  0  0  0  0  0999 V2000
   41.8570   33.9810   40.5440 N   0  0  0  0  0  0  0  0  0  0  0  0
   40.7330   34.5440   41.2350 C   0  0  0  0  0  0  0  0  0  0  0  0
   39.9790   35.4540   40.3130 C   0  0  0  0  0  0  0  0  0  0  0  0
   39.5980   34.7640   39.0430 C   0  0  0  0  0  0  0  0  0  0  0  0
   40.6790   33.9380   38.4080 C   0  0  0  0  0  0  0  0  0  0  0  0
   41.4740   33.1570   39.4370 C   0  0  1  0  0  0  0  0  0  0  0  0
   42.8170   34.9720   40.2440 C   0  0  0  0  0  0  0  0  0  0  0  0
   45.8040   34.9850   42.2900 N   0  0  0  0  0  0  0  0  0  0  0  0
   44.9250   35.5370   43.1070 C   0  0  0  0  0  0  0  0  0  0  0  0
   43.7200   35.6420   42.5600 N   0  0  0  0  0  0  0  0  0  0  0  0
   43.8590   35.1170   41.3180 C   0  0  0  0  0  0  0  0  0  0  0  0
   45.1510   34.7070   41.1450 N   0  0  0  0  0  0  0  0  0  0  0  0
   49.5220   35.0250   42.0270 C   0  0  0  0  0  0  0  0  0  0  0  0
   48.2140   35.4860   41.9360 C   0  0  0  0  0  0  0  0  0  0  0  0
   47.1840   34.6360   42.3340 C   0  0  0  0  0  0  0  0  0  0  0  0
   47.5550   33.4230   42.7760 N   0  0  0  0  0  0  0  0  0  0  0  0
   48.8010   32.9740   42.8660 C   0  0  0  0  0  0  0  0  0  0  0  0
   49.8080   33.8030   42.4790 N   0  0  0  0  0  0  0  0  0  0  0  0
   42.9710   32.5050   38.6900 S   0  0  0  0  0  0  0  0  0  0  0  0
   42.6510   31.4010   37.3270 C   0  0  0  0  0  0  0  0  0  0  0  0
   41.7460   30.4330   36.9460 C   0  0  0  0  0  0  0  0  0  0  0  0
   42.1020   29.9740   35.7420 N   0  0  0  0  0  0  0  0  0  0  0  0
   43.2030   30.6170   35.3390 C   0  0  0  0  0  0  0  0  0  0  0  0
   43.5530   31.5050   36.3140 N   0  0  0  0  0  0  0  0  0  0  0  0
   40.0693   33.7350   41.5741 H   0  0  0  0  0  0  0  0  0  0  0  0
   41.0886   35.1177   42.1036 H   0  0  0  0  0  0  0  0  0  0  0  0
   39.0651   35.7973   40.8200 H   0  0  0  0  0  0  0  0  0  0  0  0
   40.6320   36.3021   40.0593 H   0  0  0  0  0  0  0  0  0  0  0  0
   38.7474   34.1009   39.2593 H   0  0  0  0  0  0  0  0  0  0  0  0
   39.3651   35.5624   38.3231 H   0  0  0  0  0  0  0  0  0  0  0  0
   40.2179   33.2304   37.7033 H   0  0  0  0  0  0  0  0  0  0  0  0
   41.3695   34.6205   37.8909 H   0  0  0  0  0  0  0  0  0  0  0  0
   40.8279   32.3428   39.7970 H   0  0  0  0  0  0  0  0  0  0  0  0
   43.3178   34.7027   39.3024 H   0  0  0  0  0  0  0  0  0  0  0  0
   42.2876   35.9329   40.1640 H   0  0  0  0  0  0  0  0  0  0  0  0
   45.1648   35.8723   44.1269 H   0  0  0  0  0  0  0  0  0  0  0  0
   50.3446   35.6865   41.7176 H   0  0  0  0  0  0  0  0  0  0  0  0
   47.9973   36.4965   41.5593 H   0  0  0  0  0  0  0  0  0  0  0  0
   49.0129   31.9623   43.2421 H   0  0  0  0  0  0  0  0  0  0  0  0
   40.8788   30.0959   37.5328 H   0  0  0  0  0  0  0  0  0  0  0  0
   43.7333   30.4580   34.3885 H   0  0  0  0  0  0  0  0  0  0  0  0
   44.3606   32.1437   36.2876 H   0  0  0  0  0  0  0  0  0  0  0  0
  1  2  1  0
  3  2  1  0
  4  3  1  0
  5  4  1  0
  5  6  1  0
  6  1  1  0
  7  1  1  0
  7 11  1  0
  8 15  1  0
  8  9  1  0
 10  9  2  0
 11 10  1  0
 12 11  2  0
 12  8  1  0
 13 18  2  0
 14 13  1  0
 14 15  2  0
 15 16  1  0
 16 17  2  0
 18 17  1  0
 19  6  1  0
 20 19  1  0
 21 20  2  0
 22 21  1  0
 23 22  2  0
 23 24  1  0
 24 20  1  0
  2 25  1  0
  2 26  1  0
  3 27  1  0
  3 28  1  0
  4 29  1  0
  4 30  1  0
  5 31  1  0
  5 32  1  0
  6 33  1  1
  7 34  1  0
  7 35  1  0
  9 36  1  0
 13 37  1  0
 14 38  1  0
 17 39  1  0
 21 40  1  0
 23 41  1  0
 24 42  1  0
M  ISO  8  25  13  26  13  27  13  28  13  29  13  30  13  31  13  32  13
M  ISO  8  33  13  34   8  35   8  36  14  37  14  38  14  39  14  40  14
M  ISO  2  41  14  42   9
M  END
>  <minimizedAffinity>  (1) 
-5.56106853

>  <minimizedRMSD>  (1) 
0.573835671

$$$$
