
     RDKit          3D

 50 53  0  0  1  0  0  0  0  0999 V2000
   42.0190   34.4060   41.0320 N   0  0  0  0  0  0  0  0  0  0  0  0
   41.0640   35.2230   41.7200 C   0  0  0  0  0  0  0  0  0  0  0  0
   40.4450   36.2130   40.7890 C   0  0  0  0  0  0  0  0  0  0  0  0
   39.8880   35.5570   39.5580 C   0  0  0  0  0  0  0  0  0  0  0  0
   40.7440   34.5030   38.9370 C   0  0  0  0  0  0  0  0  0  0  0  0
   41.4450   33.6470   39.9600 C   0  0  1  0  0  0  0  0  0  0  0  0
   43.1340   35.1920   40.6290 C   0  0  0  0  0  0  0  0  0  0  0  0
   46.1950   34.8660   42.5190 N   0  0  0  0  0  0  0  0  0  0  0  0
   45.4130   35.4910   43.3900 C   0  0  0  0  0  0  0  0  0  0  0  0
   44.2100   35.7410   42.8960 N   0  0  0  0  0  0  0  0  0  0  0  0
   44.2270   35.2050   41.6520 C   0  0  0  0  0  0  0  0  0  0  0  0
   45.4620   34.6690   41.4080 N   0  0  0  0  0  0  0  0  0  0  0  0
   49.9090   34.5850   42.2980 C   0  0  0  0  0  0  0  0  0  0  0  0
   48.6550   35.1810   42.3100 C   0  0  0  0  0  0  0  0  0  0  0  0
   47.5250   34.3790   42.5070 C   0  0  0  0  0  0  0  0  0  0  0  0
   47.7590   33.0630   42.6470 N   0  0  0  0  0  0  0  0  0  0  0  0
   48.9600   32.4800   42.6210 C   0  0  0  0  0  0  0  0  0  0  0  0
   50.0480   33.2730   42.4570 N   0  0  0  0  0  0  0  0  0  0  0  0
   42.7410   32.6610   39.2080 S   0  0  0  0  0  0  0  0  0  0  0  0
   39.5530   29.8510   38.2330 N   0  0  0  0  0  0  0  0  0  0  0  0
   40.0620   31.0850   37.6560 C   0  0  0  0  0  0  0  0  0  0  0  0
   41.5620   30.9350   37.5020 C   0  0  0  0  0  0  0  0  0  0  0  0
   42.1480   30.9630   38.9060 C   0  0  0  0  0  0  0  0  0  0  0  0
   41.1080   30.6680   39.9570 C   0  0  0  0  0  0  0  0  0  0  0  0
   40.1250   29.6110   39.5340 C   0  0  0  0  0  0  0  0  0  0  0  0
   40.2757   34.5807   42.1396 H   0  0  0  0  0  0  0  0  0  0  0  0
   41.5806   35.7692   42.5230 H   0  0  0  0  0  0  0  0  0  0  0  0
   39.6299   36.7326   41.3140 H   0  0  0  0  0  0  0  0  0  0  0  0
   41.2283   36.9177   40.4731 H   0  0  0  0  0  0  0  0  0  0  0  0
   38.9269   35.0950   39.8278 H   0  0  0  0  0  0  0  0  0  0  0  0
   39.8064   36.3556   38.8060 H   0  0  0  0  0  0  0  0  0  0  0  0
   40.1095   33.8569   38.3125 H   0  0  0  0  0  0  0  0  0  0  0  0
   41.5174   35.0106   38.3418 H   0  0  0  0  0  0  0  0  0  0  0  0
   40.6627   32.9955   40.3766 H   0  0  0  0  0  0  0  0  0  0  0  0
   43.5343   34.7810   39.6905 H   0  0  0  0  0  0  0  0  0  0  0  0
   42.7841   36.2270   40.5011 H   0  0  0  0  0  0  0  0  0  0  0  0
   45.7281   35.7697   44.4064 H   0  0  0  0  0  0  0  0  0  0  0  0
   50.8029   35.2097   42.1544 H   0  0  0  0  0  0  0  0  0  0  0  0
   48.5512   36.2667   42.1669 H   0  0  0  0  0  0  0  0  0  0  0  0
   49.0638   31.3903   42.7292 H   0  0  0  0  0  0  0  0  0  0  0  0
   39.7913   29.0655   37.6108 H   0  0  0  0  0  0  0  0  0  0  0  0
   39.5996   31.2580   36.6730 H   0  0  0  0  0  0  0  0  0  0  0  0
   39.8242   31.9412   38.3044 H   0  0  0  0  0  0  0  0  0  0  0  0
   41.7995   29.9800   37.0106 H   0  0  0  0  0  0  0  0  0  0  0  0
   41.9798   31.7416   36.8816 H   0  0  0  0  0  0  0  0  0  0  0  0
   42.9417   30.2040   38.9695 H   0  0  0  0  0  0  0  0  0  0  0  0
   41.6191   30.3259   40.8690 H   0  0  0  0  0  0  0  0  0  0  0  0
   40.5404   31.5950   40.1261 H   0  0  0  0  0  0  0  0  0  0  0  0
   39.3104   29.5765   40.2724 H   0  0  0  0  0  0  0  0  0  0  0  0
   40.6744   28.6597   39.4774 H   0  0  0  0  0  0  0  0  0  0  0  0
  1  2  1  0
  3  2  1  0
  4  3  1  0
  5  4  1  0
  5  6  1  0
  6  1  1  0
  7  1  1  0
  7 11  1  0
  8  9  1  0
 10  9  2  0
 11 10  1  0
 12 11  2  0
 12  8  1  0
 13 14  2  0
 13 18  1  0
 14 15  1  0
 15  8  1  0
 15 16  2  0
 17 16  1  0
 18 17  2  0
 19  6  1  0
 20 25  1  0
 21 20  1  0
 22 21  1  0
 22 23  1  0
 23 19  1  0
 23 24  1  0
 25 24  1  0
  2 26  1  0
  2 27  1  0
  3 28  1  0
  3 29  1  0
  4 30  1  0
  4 31  1  0
  5 32  1  0
  5 33  1  0
  6 34  1  1
  7 35  1  0
  7 36  1  0
  9 37  1  0
 13 38  1  0
 14 39  1  0
 17 40  1  0
 20 41  1  0
 21 42  1  0
 21 43  1  0
 22 44  1  0
 22 45  1  0
 23 46  1  0
 24 47  1  0
 24 48  1  0
 25 49  1  0
 25 50  1  0
M  ISO  8  26  13  27  13  28  13  29  13  30  13  31  13  32  13  33  13
M  ISO  8  34  13  35   8  36   8  37  14  38  14  39  14  40  14  41   5
M  ISO  8  42  13  43  13  44  13  45  13  46  13  47  13  48  13  49  13
M  ISO  1  50  13
M  END
>  <minimizedAffinity>  (1) 
-5.35402203

>  <minimizedRMSD>  (1) 
1.49026084

$$$$
