
     RDKit          3D

 51 54  0  0  1  0  0  0  0  0999 V2000
   42.1150   34.0540   40.5760 N   0  0  0  0  0  0  0  0  0  0  0  0
   40.9010   34.2380   41.3130 C   0  0  0  0  0  0  0  0  0  0  0  0
   40.0010   35.2080   40.6200 C   0  0  0  0  0  0  0  0  0  0  0  0
   39.7750   34.8390   39.1810 C   0  0  0  0  0  0  0  0  0  0  0  0
   40.9820   34.3910   38.4270 C   0  0  0  0  0  0  0  0  0  0  0  0
   41.9040   33.5390   39.2550 C   0  0  1  0  0  0  0  0  0  0  0  0
   42.8800   35.2550   40.5930 C   0  0  0  0  0  0  0  0  0  0  0  0
   45.9190   34.9810   42.5280 N   0  0  0  0  0  0  0  0  0  0  0  0
   45.0650   35.4300   43.4400 C   0  0  0  0  0  0  0  0  0  0  0  0
   43.8490   35.6130   42.9450 N   0  0  0  0  0  0  0  0  0  0  0  0
   43.9450   35.2480   41.6440 C   0  0  0  0  0  0  0  0  0  0  0  0
   45.2300   34.8550   41.3800 N   0  0  0  0  0  0  0  0  0  0  0  0
   49.6180   35.0080   42.0320 C   0  0  0  0  0  0  0  0  0  0  0  0
   48.3130   35.4800   42.0500 C   0  0  0  0  0  0  0  0  0  0  0  0
   47.2910   34.6340   42.4960 C   0  0  0  0  0  0  0  0  0  0  0  0
   47.6760   33.4040   42.8770 N   0  0  0  0  0  0  0  0  0  0  0  0
   48.9310   32.9440   42.8720 C   0  0  0  0  0  0  0  0  0  0  0  0
   49.9110   33.7780   42.4440 N   0  0  0  0  0  0  0  0  0  0  0  0
   43.5020   33.3560   38.4560 S   0  0  0  0  0  0  0  0  0  0  0  0
   43.7030   31.7300   37.7100 C   0  0  0  0  0  0  0  0  0  0  0  0
   44.7060   31.7200   36.5820 C   0  0  0  0  0  0  0  0  0  0  0  0
   45.0190   30.2560   36.2940 C   0  0  0  0  0  0  0  0  0  0  0  0
   43.7690   29.5180   35.9010 C   0  0  0  0  0  0  0  0  0  0  0  0
   42.6240   29.7300   36.8510 C   0  0  0  0  0  0  0  0  0  0  0  0
   42.3940   31.2050   37.1330 C   0  0  0  0  0  0  0  0  0  0  0  0
   40.3854   33.2707   41.4058 H   0  0  0  0  0  0  0  0  0  0  0  0
   41.1496   34.6367   42.3076 H   0  0  0  0  0  0  0  0  0  0  0  0
   39.0310   35.2250   41.1386 H   0  0  0  0  0  0  0  0  0  0  0  0
   40.4837   36.1961   40.6450 H   0  0  0  0  0  0  0  0  0  0  0  0
   39.0382   34.0227   39.1539 H   0  0  0  0  0  0  0  0  0  0  0  0
   39.4396   35.7621   38.6856 H   0  0  0  0  0  0  0  0  0  0  0  0
   40.6544   33.8079   37.5537 H   0  0  0  0  0  0  0  0  0  0  0  0
   41.5402   35.2913   38.1307 H   0  0  0  0  0  0  0  0  0  0  0  0
   41.4024   32.5640   39.3425 H   0  0  0  0  0  0  0  0  0  0  0  0
   43.3569   35.3821   39.6099 H   0  0  0  0  0  0  0  0  0  0  0  0
   42.1928   36.0827   40.8226 H   0  0  0  0  0  0  0  0  0  0  0  0
   45.3358   35.6277   44.4876 H   0  0  0  0  0  0  0  0  0  0  0  0
   50.4244   35.6630   41.6705 H   0  0  0  0  0  0  0  0  0  0  0  0
   48.0852   36.5039   41.7186 H   0  0  0  0  0  0  0  0  0  0  0  0
   49.1616   31.9212   43.2046 H   0  0  0  0  0  0  0  0  0  0  0  0
   44.0571   31.0916   38.5328 H   0  0  0  0  0  0  0  0  0  0  0  0
   44.2787   32.2000   35.6892 H   0  0  0  0  0  0  0  0  0  0  0  0
   45.6158   32.2753   36.8538 H   0  0  0  0  0  0  0  0  0  0  0  0
   45.7480   30.1964   35.4725 H   0  0  0  0  0  0  0  0  0  0  0  0
   45.4335   29.7952   37.2028 H   0  0  0  0  0  0  0  0  0  0  0  0
   43.4611   29.8617   34.9025 H   0  0  0  0  0  0  0  0  0  0  0  0
   44.0084   28.4445   35.9173 H   0  0  0  0  0  0  0  0  0  0  0  0
   41.7107   29.3048   36.4092 H   0  0  0  0  0  0  0  0  0  0  0  0
   42.8701   29.2334   37.8012 H   0  0  0  0  0  0  0  0  0  0  0  0
   42.1449   31.7378   36.2034 H   0  0  0  0  0  0  0  0  0  0  0  0
   41.5564   31.3567   37.8297 H   0  0  0  0  0  0  0  0  0  0  0  0
  1  7  1  0
  1  2  1  0
  3  2  1  0
  4  3  1  0
  5  4  1  0
  5  6  1  0
  6  1  1  0
  7 11  1  0
  8  9  1  0
 10  9  2  0
 11 10  1  0
 12 11  2  0
 12  8  1  0
 13 14  2  0
 13 18  1  0
 14 15  1  0
 15  8  1  0
 15 16  2  0
 17 16  1  0
 18 17  2  0
 19  6  1  0
 20 19  1  0
 21 20  1  0
 22 21  1  0
 23 22  1  0
 23 24  1  0
 24 25  1  0
 25 20  1  0
  2 26  1  0
  2 27  1  0
  3 28  1  0
  3 29  1  0
  4 30  1  0
  4 31  1  0
  5 32  1  0
  5 33  1  0
  6 34  1  1
  7 35  1  0
  7 36  1  0
  9 37  1  0
 13 38  1  0
 14 39  1  0
 17 40  1  0
 20 41  1  0
 21 42  1  0
 21 43  1  0
 22 44  1  0
 22 45  1  0
 23 46  1  0
 23 47  1  0
 24 48  1  0
 24 49  1  0
 25 50  1  0
 25 51  1  0
M  ISO  8  26  13  27  13  28  13  29  13  30  13  31  13  32  13  33  13
M  ISO  8  34  13  35   8  36   8  37  14  38  14  39  14  40  14  41  13
M  ISO  8  42  13  43  13  44  13  45  13  46  13  47  13  48  13  49  13
M  ISO  2  50  13  51  13
M  END
>  <minimizedAffinity>  (1) 
-5.34411097

>  <minimizedRMSD>  (1) 
1.35655594

$$$$
