
     RDKit          3D

 38 40  0  0  1  0  0  0  0  0999 V2000
   42.0140   34.0270   40.5190 N   0  0  0  0  0  0  0  0  0  0  0  0
   40.8030   34.3650   41.2020 C   0  0  0  0  0  0  0  0  0  0  0  0
   39.9850   35.3290   40.4150 C   0  0  0  0  0  0  0  0  0  0  0  0
   39.7550   34.8610   39.0150 C   0  0  0  0  0  0  0  0  0  0  0  0
   40.9490   34.2970   38.3120 C   0  0  0  0  0  0  0  0  0  0  0  0
   41.7980   33.4600   39.2110 C   0  0  1  0  0  0  0  0  0  0  0  0
   42.8540   35.1860   40.4520 C   0  0  0  0  0  0  0  0  0  0  0  0
   45.8720   34.9880   42.4390 N   0  0  0  0  0  0  0  0  0  0  0  0
   44.9810   35.4290   43.3240 C   0  0  0  0  0  0  0  0  0  0  0  0
   43.7800   35.5790   42.8060 N   0  0  0  0  0  0  0  0  0  0  0  0
   43.9050   35.2100   41.5060 C   0  0  0  0  0  0  0  0  0  0  0  0
   45.2010   34.8480   41.2860 N   0  0  0  0  0  0  0  0  0  0  0  0
   49.5760   35.0750   42.0640 C   0  0  0  0  0  0  0  0  0  0  0  0
   48.2570   35.5180   42.0230 C   0  0  0  0  0  0  0  0  0  0  0  0
   47.2390   34.6630   42.4300 C   0  0  0  0  0  0  0  0  0  0  0  0
   47.6360   33.4360   42.8440 N   0  0  0  0  0  0  0  0  0  0  0  0
   48.8940   32.9950   42.8900 C   0  0  0  0  0  0  0  0  0  0  0  0
   49.8780   33.8470   42.4870 N   0  0  0  0  0  0  0  0  0  0  0  0
   43.3880   33.0620   38.4990 S   0  0  0  0  0  0  0  0  0  0  0  0
   43.3440   31.5720   37.4740 C   0  0  0  0  0  0  0  0  0  0  0  0
   42.0410   31.4730   36.9700 F   0  0  0  0  0  0  0  0  0  0  0  0
   44.1960   31.7450   36.3980 F   0  0  0  0  0  0  0  0  0  0  0  0
   43.7320   30.4350   38.1420 F   0  0  0  0  0  0  0  0  0  0  0  0
   40.2169   33.4486   41.3656 H   0  0  0  0  0  0  0  0  0  0  0  0
   41.0665   34.8367   42.1601 H   0  0  0  0  0  0  0  0  0  0  0  0
   39.0113   35.4553   40.9110 H   0  0  0  0  0  0  0  0  0  0  0  0
   40.5358   36.2800   40.3675 H   0  0  0  0  0  0  0  0  0  0  0  0
   38.9802   34.0806   39.0431 H   0  0  0  0  0  0  0  0  0  0  0  0
   39.4680   35.7565   38.4443 H   0  0  0  0  0  0  0  0  0  0  0  0
   40.6035   33.6751   37.4730 H   0  0  0  0  0  0  0  0  0  0  0  0
   41.5619   35.1413   37.9633 H   0  0  0  0  0  0  0  0  0  0  0  0
   41.2057   32.5406   39.3284 H   0  0  0  0  0  0  0  0  0  0  0  0
   43.3452   35.2054   39.4679 H   0  0  0  0  0  0  0  0  0  0  0  0
   42.2118   36.0649   40.6106 H   0  0  0  0  0  0  0  0  0  0  0  0
   45.2222   35.6449   44.3753 H   0  0  0  0  0  0  0  0  0  0  0  0
   50.3830   35.7495   41.7419 H   0  0  0  0  0  0  0  0  0  0  0  0
   48.0226   36.5339   41.6723 H   0  0  0  0  0  0  0  0  0  0  0  0
   49.1288   31.9793   43.2409 H   0  0  0  0  0  0  0  0  0  0  0  0
  1  2  1  0
  3  2  1  0
  4  3  1  0
  5  4  1  0
  5  6  1  0
  6  1  1  0
  7  1  1  0
  7 11  1  0
  8  9  1  0
 10  9  2  0
 11 10  1  0
 12 11  2  0
 12  8  1  0
 13 18  2  0
 14 13  1  0
 14 15  2  0
 15  8  1  0
 15 16  1  0
 16 17  2  0
 18 17  1  0
 19  6  1  0
 20 23  1  0
 20 19  1  0
 21 20  1  0
 22 20  1  0
  2 24  1  0
  2 25  1  0
  3 26  1  0
  3 27  1  0
  4 28  1  0
  4 29  1  0
  5 30  1  0
  5 31  1  0
  6 32  1  1
  7 33  1  0
  7 34  1  0
  9 35  1  0
 13 36  1  0
 14 37  1  0
 17 38  1  0
M  ISO  8  24  13  25  13  26  13  27  13  28  13  29  13  30  13  31  13
M  ISO  7  32  13  33   8  34   8  35  14  36  14  37  14  38  14
M  END
>  <minimizedAffinity>  (1) 
-5.22186518

>  <minimizedRMSD>  (1) 
0.662191689

$$$$
