
     RDKit          3D

 41 43  0  0  1  0  0  0  0  0999 V2000
   49.0950   33.7250   42.6230 C   0  0  2  0  0  0  0  0  0  0  0  0
   47.7060   33.9300   42.4350 C   0  0  2  0  0  0  0  0  0  0  0  0
   47.6500   35.4190   41.9620 C   0  0  0  0  0  0  0  0  0  0  0  0
   48.9990   35.8520   41.5270 C   0  0  0  0  0  0  0  0  0  0  0  0
   49.8180   35.1180   42.4980 C   0  0  0  0  0  0  0  0  0  0  0  0
   49.8470   32.8880   41.6930 C   0  0  0  0  0  0  0  0  0  0  0  0
   49.1560   32.3870   40.6060 C   0  0  0  0  0  0  0  0  0  0  0  0
   49.7410   31.5770   39.6530 C   0  0  0  0  0  0  0  0  0  0  0  0
   51.0870   31.3070   39.8770 N   0  0  0  0  0  0  0  0  0  0  0  0
   51.7530   31.7910   40.9200 C   0  0  0  0  0  0  0  0  0  0  0  0
   51.1240   32.5730   41.8080 N   0  0  0  0  0  0  0  0  0  0  0  0
   46.8240   33.7770   43.6240 C   0  0  0  0  0  0  0  0  0  0  0  0
   45.8950   34.5110   43.8040 O   0  0  0  0  0  0  0  0  0  0  0  0
   46.9230   32.8080   44.6750 C   0  0  0  0  0  0  0  0  0  0  0  0
   46.7650   33.1910   46.0180 C   0  0  0  0  0  0  0  0  0  0  0  0
   46.9200   32.3110   47.1150 C   0  0  0  0  0  0  0  0  0  0  0  0
   47.2450   30.9910   46.8290 C   0  0  0  0  0  0  0  0  0  0  0  0
   47.4030   30.5760   45.5200 C   0  0  0  0  0  0  0  0  0  0  0  0
   47.2340   31.4890   44.5090 C   0  0  0  0  0  0  0  0  0  0  0  0
   47.2090   30.6650   43.2610 C   0  0  0  0  0  0  0  0  0  0  0  0
   48.4990   29.7910   43.1930 C   0  0  0  0  0  0  0  0  0  0  0  0
   49.1020   33.2045   43.5920 H   0  0  0  0  0  0  0  0  0  0  0  0
   47.3219   33.1609   41.7487 H   0  0  0  0  0  0  0  0  0  0  0  0
   46.9471   35.5100   41.1208 H   0  0  0  0  0  0  0  0  0  0  0  0
   47.3121   36.0547   42.7937 H   0  0  0  0  0  0  0  0  0  0  0  0
   49.2146   35.5440   40.4933 H   0  0  0  0  0  0  0  0  0  0  0  0
   49.1573   36.9404   41.5112 H   0  0  0  0  0  0  0  0  0  0  0  0
   50.8466   34.9938   42.1285 H   0  0  0  0  0  0  0  0  0  0  0  0
   49.9045   35.6402   43.4623 H   0  0  0  0  0  0  0  0  0  0  0  0
   48.0925   32.6451   40.4951 H   0  0  0  0  0  0  0  0  0  0  0  0
   49.1889   31.1786   38.7890 H   0  0  0  0  0  0  0  0  0  0  0  0
   52.8179   31.5504   41.0541 H   0  0  0  0  0  0  0  0  0  0  0  0
   46.5050   34.2388   46.2291 H   0  0  0  0  0  0  0  0  0  0  0  0
   46.7887   32.6575   48.1507 H   0  0  0  0  0  0  0  0  0  0  0  0
   47.3775   30.2710   47.6500 H   0  0  0  0  0  0  0  0  0  0  0  0
   47.6600   29.5310   45.2922 H   0  0  0  0  0  0  0  0  0  0  0  0
   46.3234   30.0126   43.2694 H   0  0  0  0  0  0  0  0  0  0  0  0
   47.1664   31.3271   42.3836 H   0  0  0  0  0  0  0  0  0  0  0  0
   48.8397   29.5602   44.2131 H   0  0  0  0  0  0  0  0  0  0  0  0
   48.2798   28.8547   42.6590 H   0  0  0  0  0  0  0  0  0  0  0  0
   49.2873   30.3418   42.6590 H   0  0  0  0  0  0  0  0  0  0  0  0
  2  1  1  0
  2 12  1  0
  3  2  1  0
  4  3  1  0
  4  5  1  0
  5  1  1  0
  6 11  1  0
  6  1  1  0
  7  6  2  0
  8  9  2  0
  8  7  1  0
  9 10  1  0
 10 11  2  0
 12 13  2  0
 12 14  1  0
 14 15  2  0
 15 16  1  0
 17 16  2  0
 18 17  1  0
 19 14  1  0
 19 18  2  0
 20 19  1  0
 21 20  1  0
  1 22  1  1
  2 23  1  6
  3 24  1  0
  3 25  1  0
  4 26  1  0
  4 27  1  0
  5 28  1  0
  5 29  1  0
  7 30  1  0
  8 31  1  0
 10 32  1  0
 15 33  1  0
 16 34  1  0
 17 35  1  0
 18 36  1  0
 20 37  1  0
 20 38  1  0
 21 39  1  0
 21 40  1  0
 21 41  1  0
M  ISO  8  22  13  23  13  24  13  25  13  26  13  27  13  28  13  29  13
M  ISO  8  30  14  31  14  32  14  33  14  34  14  35  14  36  14  37   8
M  ISO  4  38   8  39   8  40   8  41   8
M  END
>  <minimizedAffinity>  (1) 
-5.25811863

>  <minimizedRMSD>  (1) 
0.241287395

$$$$
