
     RDKit          3D

 42 45  0  0  1  0  0  0  0  0999 V2000
   42.1460   34.1840   40.6670 N   0  0  0  0  0  0  0  0  0  0  0  0
   41.0890   34.6920   41.4780 C   0  0  0  0  0  0  0  0  0  0  0  0
   40.2880   35.7080   40.7240 C   0  0  0  0  0  0  0  0  0  0  0  0
   39.8240   35.1780   39.3990 C   0  0  0  0  0  0  0  0  0  0  0  0
   40.8380   34.4040   38.6060 C   0  0  0  0  0  0  0  0  0  0  0  0
   41.6840   33.5330   39.4790 C   0  0  1  0  0  0  0  0  0  0  0  0
   43.1100   35.1960   40.4050 C   0  0  0  0  0  0  0  0  0  0  0  0
   46.1610   34.8800   42.3210 N   0  0  0  0  0  0  0  0  0  0  0  0
   45.3970   35.5630   43.1480 C   0  0  0  0  0  0  0  0  0  0  0  0
   44.1920   35.8100   42.6560 N   0  0  0  0  0  0  0  0  0  0  0  0
   44.2100   35.2320   41.4200 C   0  0  0  0  0  0  0  0  0  0  0  0
   45.4240   34.6580   41.2150 N   0  0  0  0  0  0  0  0  0  0  0  0
   49.8780   34.5260   42.2900 C   0  0  0  0  0  0  0  0  0  0  0  0
   48.6390   35.1380   42.3060 C   0  0  0  0  0  0  0  0  0  0  0  0
   47.4810   34.3510   42.3060 C   0  0  0  0  0  0  0  0  0  0  0  0
   47.6790   33.0330   42.2890 N   0  0  0  0  0  0  0  0  0  0  0  0
   48.8590   32.4190   42.2730 C   0  0  0  0  0  0  0  0  0  0  0  0
   49.9780   33.1970   42.2740 N   0  0  0  0  0  0  0  0  0  0  0  0
   43.1180   32.9320   38.5660 S   0  0  0  0  0  0  0  0  0  0  0  0
   42.6220   31.4910   37.5490 C   0  0  0  0  0  0  0  0  0  0  0  0
   42.6860   30.6760   36.3550 C   0  0  0  0  0  0  0  0  0  0  0  0
   41.8720   29.5850   36.3820 C   0  0  0  0  0  0  0  0  0  0  0  0
   41.0310   29.2110   37.4050 C   0  0  0  0  0  0  0  0  0  0  0  0
   41.3430   30.5790   38.6520 S   0  0  0  0  0  0  0  0  0  0  0  0
   40.4314   33.8622   41.7764 H   0  0  0  0  0  0  0  0  0  0  0  0
   41.5235   35.1718   42.3674 H   0  0  0  0  0  0  0  0  0  0  0  0
   39.4091   35.9857   41.3243 H   0  0  0  0  0  0  0  0  0  0  0  0
   40.9305   36.5812   40.5377 H   0  0  0  0  0  0  0  0  0  0  0  0
   38.9651   34.5160   39.5838 H   0  0  0  0  0  0  0  0  0  0  0  0
   39.5878   36.0645   38.7921 H   0  0  0  0  0  0  0  0  0  0  0  0
   40.3110   33.7713   37.8766 H   0  0  0  0  0  0  0  0  0  0  0  0
   41.4986   35.1251   38.1023 H   0  0  0  0  0  0  0  0  0  0  0  0
   41.0319   32.7020   39.7860 H   0  0  0  0  0  0  0  0  0  0  0  0
   43.5523   35.0111   39.4150 H   0  0  0  0  0  0  0  0  0  0  0  0
   42.5905   36.1647   40.4478 H   0  0  0  0  0  0  0  0  0  0  0  0
   45.7254   35.8942   44.1442 H   0  0  0  0  0  0  0  0  0  0  0  0
   50.7899   35.1412   42.2905 H   0  0  0  0  0  0  0  0  0  0  0  0
   48.5632   36.2353   42.3186 H   0  0  0  0  0  0  0  0  0  0  0  0
   48.9291   31.3213   42.2594 H   0  0  0  0  0  0  0  0  0  0  0  0
   43.3354   30.9168   35.5004 H   0  0  0  0  0  0  0  0  0  0  0  0
   41.8883   28.9354   35.4944 H   0  0  0  0  0  0  0  0  0  0  0  0
   40.3574   28.3440   37.4735 H   0  0  0  0  0  0  0  0  0  0  0  0
  1  2  1  0
  3  2  1  0
  4  3  1  0
  5  4  1  0
  5  6  1  0
  6  1  1  0
  7  1  1  0
  7 11  1  0
  8  9  1  0
 10  9  2  0
 11 10  1  0
 12 11  2  0
 12  8  1  0
 13 14  2  0
 14 15  1  0
 15  8  1  0
 16 15  2  0
 17 18  2  0
 17 16  1  0
 18 13  1  0
 19  6  1  0
 20 19  1  0
 20 24  1  0
 21 22  1  0
 21 20  2  0
 22 23  2  0
 23 24  1  0
  2 25  1  0
  2 26  1  0
  3 27  1  0
  3 28  1  0
  4 29  1  0
  4 30  1  0
  5 31  1  0
  5 32  1  0
  6 33  1  1
  7 34  1  0
  7 35  1  0
  9 36  1  0
 13 37  1  0
 14 38  1  0
 17 39  1  0
 21 40  1  0
 22 41  1  0
 23 42  1  0
M  ISO  8  25  13  26  13  27  13  28  13  29  13  30  13  31  13  32  13
M  ISO  8  33  13  34   8  35   8  36  14  37  14  38  14  39  14  40  14
M  ISO  2  41  14  42  14
M  END
>  <minimizedAffinity>  (1) 
-5.16793585

>  <minimizedRMSD>  (1) 
2.18416452

$$$$
