
     RDKit          3D

 44 46  0  0  1  0  0  0  0  0999 V2000
   41.8020   34.4860   41.3020 N   0  0  0  0  0  0  0  0  0  0  0  0
   40.7910   35.4550   41.6470 C   0  0  0  0  0  0  0  0  0  0  0  0
   40.2660   36.1020   40.4160 C   0  0  0  0  0  0  0  0  0  0  0  0
   39.8070   35.0970   39.3880 C   0  0  0  0  0  0  0  0  0  0  0  0
   40.6970   33.9040   39.1970 C   0  0  0  0  0  0  0  0  0  0  0  0
   41.2970   33.4210   40.4860 C   0  0  1  0  0  0  0  0  0  0  0  0
   42.9520   35.1160   40.7770 C   0  0  0  0  0  0  0  0  0  0  0  0
   46.0630   34.9910   42.6130 N   0  0  0  0  0  0  0  0  0  0  0  0
   45.2670   35.5700   43.4940 C   0  0  0  0  0  0  0  0  0  0  0  0
   44.0370   35.7250   43.0340 N   0  0  0  0  0  0  0  0  0  0  0  0
   44.0700   35.2060   41.7710 C   0  0  0  0  0  0  0  0  0  0  0  0
   45.3300   34.7480   41.5060 N   0  0  0  0  0  0  0  0  0  0  0  0
   49.7760   34.9380   42.1750 C   0  0  0  0  0  0  0  0  0  0  0  0
   48.4870   35.4450   42.2100 C   0  0  0  0  0  0  0  0  0  0  0  0
   47.4260   34.5860   42.5430 C   0  0  0  0  0  0  0  0  0  0  0  0
   47.7650   33.3100   42.8050 N   0  0  0  0  0  0  0  0  0  0  0  0
   49.0070   32.8280   42.7690 C   0  0  0  0  0  0  0  0  0  0  0  0
   50.0230   33.6640   42.4480 N   0  0  0  0  0  0  0  0  0  0  0  0
   42.6350   32.2680   40.1800 S   0  0  0  0  0  0  0  0  0  0  0  0
   42.8950   31.1190   41.5460 C   0  0  0  0  0  0  0  0  0  0  0  0
   43.9460   31.5870   42.5050 C   0  0  0  0  0  0  0  0  0  0  0  0
   41.5960   31.0110   42.3430 C   0  0  0  0  0  0  0  0  0  0  0  0
   39.9672   34.9504   42.1730 H   0  0  0  0  0  0  0  0  0  0  0  0
   41.2341   36.2231   42.2978 H   0  0  0  0  0  0  0  0  0  0  0  0
   39.4140   36.7419   40.6893 H   0  0  0  0  0  0  0  0  0  0  0  0
   41.0837   36.6875   39.9704 H   0  0  0  0  0  0  0  0  0  0  0  0
   38.8148   34.7324   39.6923 H   0  0  0  0  0  0  0  0  0  0  0  0
   39.8125   35.6304   38.4260 H   0  0  0  0  0  0  0  0  0  0  0  0
   40.1042   33.0887   38.7567 H   0  0  0  0  0  0  0  0  0  0  0  0
   41.5232   34.2061   38.5366 H   0  0  0  0  0  0  0  0  0  0  0  0
   40.4762   32.9263   41.0260 H   0  0  0  0  0  0  0  0  0  0  0  0
   43.3011   34.5412   39.9065 H   0  0  0  0  0  0  0  0  0  0  0  0
   42.6703   36.1430   40.5016 H   0  0  0  0  0  0  0  0  0  0  0  0
   45.5906   35.8872   44.4964 H   0  0  0  0  0  0  0  0  0  0  0  0
   50.6110   35.6055   41.9156 H   0  0  0  0  0  0  0  0  0  0  0  0
   48.2971   36.5039   41.9806 H   0  0  0  0  0  0  0  0  0  0  0  0
   49.2034   31.7698   42.9960 H   0  0  0  0  0  0  0  0  0  0  0  0
   43.2135   30.1626   41.1056 H   0  0  0  0  0  0  0  0  0  0  0  0
   43.5967   31.4315   43.5364 H   0  0  0  0  0  0  0  0  0  0  0  0
   44.8720   31.0162   42.3415 H   0  0  0  0  0  0  0  0  0  0  0  0
   44.1413   32.6571   42.3415 H   0  0  0  0  0  0  0  0  0  0  0  0
   41.8234   31.0299   43.4191 H   0  0  0  0  0  0  0  0  0  0  0  0
   40.9403   31.8577   42.0919 H   0  0  0  0  0  0  0  0  0  0  0  0
   41.0891   30.0676   42.0919 H   0  0  0  0  0  0  0  0  0  0  0  0
  1  2  1  0
  3  2  1  0
  4  3  1  0
  5  4  1  0
  5  6  1  0
  6  1  1  0
  7  1  1  0
  7 11  1  0
  8  9  1  0
 10  9  2  0
 11 10  1  0
 12 11  2  0
 12  8  1  0
 13 14  2  0
 13 18  1  0
 14 15  1  0
 15  8  1  0
 15 16  2  0
 17 16  1  0
 18 17  2  0
 19  6  1  0
 19 20  1  0
 20 22  1  0
 20 21  1  0
  2 23  1  0
  2 24  1  0
  3 25  1  0
  3 26  1  0
  4 27  1  0
  4 28  1  0
  5 29  1  0
  5 30  1  0
  6 31  1  1
  7 32  1  0
  7 33  1  0
  9 34  1  0
 13 35  1  0
 14 36  1  0
 17 37  1  0
 20 38  1  0
 21 39  1  0
 21 40  1  0
 21 41  1  0
 22 42  1  0
 22 43  1  0
 22 44  1  0
M  ISO  8  23  13  24  13  25  13  26  13  27  13  28  13  29  13  30  13
M  ISO  8  31  13  32   8  33   8  34  14  35  14  36  14  37  14  38   8
M  ISO  6  39   8  40   8  41   8  42   8  43   8  44   8
M  END
>  <minimizedAffinity>  (1) 
-5.16342735

>  <minimizedRMSD>  (1) 
1.18617058

$$$$
