
     RDKit          3D

 41 43  0  0  1  0  0  0  0  0999 V2000
   41.9350   34.3520   41.1270 N   0  0  0  0  0  0  0  0  0  0  0  0
   41.0570   35.3120   41.7260 C   0  0  0  0  0  0  0  0  0  0  0  0
   40.3940   36.1510   40.6870 C   0  0  0  0  0  0  0  0  0  0  0  0
   39.7420   35.3260   39.6140 C   0  0  0  0  0  0  0  0  0  0  0  0
   40.5030   34.1330   39.1450 C   0  0  0  0  0  0  0  0  0  0  0  0
   41.2580   33.4460   40.2480 C   0  0  1  0  0  0  0  0  0  0  0  0
   43.0360   35.0110   40.5090 C   0  0  0  0  0  0  0  0  0  0  0  0
   46.2000   34.9390   42.2500 N   0  0  0  0  0  0  0  0  0  0  0  0
   45.5050   35.7830   43.0020 C   0  0  0  0  0  0  0  0  0  0  0  0
   44.2820   35.9830   42.5340 N   0  0  0  0  0  0  0  0  0  0  0  0
   44.1960   35.1910   41.4370 C   0  0  0  0  0  0  0  0  0  0  0  0
   45.3880   34.5450   41.2530 N   0  0  0  0  0  0  0  0  0  0  0  0
   49.9050   34.4860   42.2850 C   0  0  0  0  0  0  0  0  0  0  0  0
   48.6820   35.1440   42.3070 C   0  0  0  0  0  0  0  0  0  0  0  0
   47.5050   34.3870   42.2730 C   0  0  0  0  0  0  0  0  0  0  0  0
   47.6670   33.0530   42.2310 N   0  0  0  0  0  0  0  0  0  0  0  0
   48.8390   32.4130   42.2260 C   0  0  0  0  0  0  0  0  0  0  0  0
   49.9710   33.1600   42.2700 N   0  0  0  0  0  0  0  0  0  0  0  0
   42.4660   32.2920   39.5860 S   0  0  0  0  0  0  0  0  0  0  0  0
   41.9260   31.8520   37.9010 C   0  0  0  0  0  0  0  0  0  0  0  0
   43.0260   31.1950   37.1150 C   0  0  0  0  0  0  0  0  0  0  0  0
   40.2869   34.7824   42.3060 H   0  0  0  0  0  0  0  0  0  0  0  0
   41.6493   35.9681   42.3807 H   0  0  0  0  0  0  0  0  0  0  0  0
   39.6255   36.7712   41.1715 H   0  0  0  0  0  0  0  0  0  0  0  0
   41.1693   36.7686   40.2101 H   0  0  0  0  0  0  0  0  0  0  0  0
   38.7745   34.9751   40.0023 H   0  0  0  0  0  0  0  0  0  0  0  0
   39.6666   35.9887   38.7392 H   0  0  0  0  0  0  0  0  0  0  0  0
   39.7941   33.4156   38.7061 H   0  0  0  0  0  0  0  0  0  0  0  0
   41.2421   34.4831   38.4094 H   0  0  0  0  0  0  0  0  0  0  0  0
   40.4922   32.9127   40.8304 H   0  0  0  0  0  0  0  0  0  0  0  0
   43.3649   34.4130   39.6463 H   0  0  0  0  0  0  0  0  0  0  0  0
   42.6958   36.0117   40.2043 H   0  0  0  0  0  0  0  0  0  0  0  0
   45.8994   36.2619   43.9103 H   0  0  0  0  0  0  0  0  0  0  0  0
   50.8349   35.0736   42.2799 H   0  0  0  0  0  0  0  0  0  0  0  0
   48.6390   36.2423   42.3504 H   0  0  0  0  0  0  0  0  0  0  0  0
   48.8853   31.3147   42.1874 H   0  0  0  0  0  0  0  0  0  0  0  0
   41.0747   31.1587   37.9698 H   0  0  0  0  0  0  0  0  0  0  0  0
   41.6410   32.7784   37.3809 H   0  0  0  0  0  0  0  0  0  0  0  0
   43.7599   30.7567   37.8073 H   0  0  0  0  0  0  0  0  0  0  0  0
   42.6010   30.4027   36.4813 H   0  0  0  0  0  0  0  0  0  0  0  0
   43.5221   31.9449   36.4813 H   0  0  0  0  0  0  0  0  0  0  0  0
  1  2  1  0
  3  2  1  0
  4  3  1  0
  5  4  1  0
  5  6  1  0
  6  1  1  0
  7  1  1  0
  7 11  1  0
  8 15  1  0
  8  9  1  0
 10  9  2  0
 11 10  1  0
 12 11  2  0
 12  8  1  0
 13 14  2  0
 15 14  1  0
 16 15  2  0
 17 16  1  0
 17 18  2  0
 18 13  1  0
 19  6  1  0
 20 19  1  0
 21 20  1  0
  2 22  1  0
  2 23  1  0
  3 24  1  0
  3 25  1  0
  4 26  1  0
  4 27  1  0
  5 28  1  0
  5 29  1  0
  6 30  1  1
  7 31  1  0
  7 32  1  0
  9 33  1  0
 13 34  1  0
 14 35  1  0
 17 36  1  0
 20 37  1  0
 20 38  1  0
 21 39  1  0
 21 40  1  0
 21 41  1  0
M  ISO  8  22  13  23  13  24  13  25  13  26  13  27  13  28  13  29  13
M  ISO  8  30  13  31   8  32   8  33  14  34  14  35  14  36  14  37   8
M  ISO  4  38   8  39   8  40   8  41   8
M  END
>  <minimizedAffinity>  (1) 
-5.05478811

>  <minimizedRMSD>  (1) 
0.631743908

$$$$
