
     RDKit          3D

 42 45  0  0  1  0  0  0  0  0999 V2000
   42.2260   34.0440   40.5400 N   0  0  0  0  0  0  0  0  0  0  0  0
   41.0300   34.2070   41.3090 C   0  0  0  0  0  0  0  0  0  0  0  0
   40.0990   35.1820   40.6610 C   0  0  0  0  0  0  0  0  0  0  0  0
   39.8530   34.8570   39.2140 C   0  0  0  0  0  0  0  0  0  0  0  0
   41.0570   34.4650   38.4140 C   0  0  0  0  0  0  0  0  0  0  0  0
   41.9910   33.5960   39.2000 C   0  0  1  0  0  0  0  0  0  0  0  0
   42.9810   35.2570   40.5780 C   0  0  0  0  0  0  0  0  0  0  0  0
   46.0100   34.9780   42.5220 N   0  0  0  0  0  0  0  0  0  0  0  0
   45.1520   35.4560   43.4250 C   0  0  0  0  0  0  0  0  0  0  0  0
   43.9420   35.6410   42.9150 N   0  0  0  0  0  0  0  0  0  0  0  0
   44.0500   35.2540   41.6140 C   0  0  0  0  0  0  0  0  0  0  0  0
   45.3240   34.8480   41.3800 N   0  0  0  0  0  0  0  0  0  0  0  0
   49.7280   34.9790   42.1930 C   0  0  0  0  0  0  0  0  0  0  0  0
   48.4290   35.4570   42.1850 C   0  0  0  0  0  0  0  0  0  0  0  0
   47.3740   34.6050   42.4980 C   0  0  0  0  0  0  0  0  0  0  0  0
   47.7160   33.3420   42.7920 N   0  0  0  0  0  0  0  0  0  0  0  0
   48.9620   32.8560   42.8070 C   0  0  0  0  0  0  0  0  0  0  0  0
   49.9760   33.7160   42.4960 N   0  0  0  0  0  0  0  0  0  0  0  0
   43.5700   33.4070   38.3830 S   0  0  0  0  0  0  0  0  0  0  0  0
   44.6390   32.2460   39.2150 C   0  0  0  0  0  0  0  0  0  0  0  0
   44.3080   31.1290   39.9520 C   0  0  0  0  0  0  0  0  0  0  0  0
   45.5110   30.5720   40.3820 C   0  0  0  0  0  0  0  0  0  0  0  0
   46.5100   31.3850   39.8790 C   0  0  0  0  0  0  0  0  0  0  0  0
   45.9650   32.3620   39.1960 O   0  0  0  0  0  0  0  0  0  0  0  0
   40.5252   33.2337   41.3980 H   0  0  0  0  0  0  0  0  0  0  0  0
   41.3041   34.5940   42.3015 H   0  0  0  0  0  0  0  0  0  0  0  0
   39.1383   35.1638   41.1964 H   0  0  0  0  0  0  0  0  0  0  0  0
   40.5654   36.1771   40.7089 H   0  0  0  0  0  0  0  0  0  0  0  0
   39.1364   34.0234   39.1737 H   0  0  0  0  0  0  0  0  0  0  0  0
   39.4863   35.7891   38.7595 H   0  0  0  0  0  0  0  0  0  0  0  0
   41.5921   35.3758   38.1071 H   0  0  0  0  0  0  0  0  0  0  0  0
   40.7138   33.8931   37.5393 H   0  0  0  0  0  0  0  0  0  0  0  0
   41.4700   32.6288   39.2565 H   0  0  0  0  0  0  0  0  0  0  0  0
   43.4491   35.4077   39.5940 H   0  0  0  0  0  0  0  0  0  0  0  0
   42.2824   36.0673   40.8336 H   0  0  0  0  0  0  0  0  0  0  0  0
   45.4174   35.6715   44.4705 H   0  0  0  0  0  0  0  0  0  0  0  0
   50.5600   35.6547   41.9455 H   0  0  0  0  0  0  0  0  0  0  0  0
   48.2308   36.5089   41.9316 H   0  0  0  0  0  0  0  0  0  0  0  0
   49.1621   31.8044   43.0600 H   0  0  0  0  0  0  0  0  0  0  0  0
   43.2956   30.7522   40.1595 H   0  0  0  0  0  0  0  0  0  0  0  0
   45.6397   29.6689   40.9967 H   0  0  0  0  0  0  0  0  0  0  0  0
   47.5896   31.2357   40.0282 H   0  0  0  0  0  0  0  0  0  0  0  0
  1  7  1  0
  1  2  1  0
  3  2  1  0
  4  3  1  0
  5  6  1  0
  5  4  1  0
  6  1  1  0
  7 11  1  0
  8  9  1  0
 10  9  2  0
 11 10  1  0
 12 11  2  0
 12  8  1  0
 13 18  2  0
 14 13  1  0
 14 15  2  0
 15  8  1  0
 15 16  1  0
 16 17  2  0
 18 17  1  0
 19  6  1  0
 19 20  1  0
 20 21  2  0
 21 22  1  0
 23 22  2  0
 24 20  1  0
 24 23  1  0
  2 25  1  0
  2 26  1  0
  3 27  1  0
  3 28  1  0
  4 29  1  0
  4 30  1  0
  5 31  1  0
  5 32  1  0
  6 33  1  1
  7 34  1  0
  7 35  1  0
  9 36  1  0
 13 37  1  0
 14 38  1  0
 17 39  1  0
 21 40  1  0
 22 41  1  0
 23 42  1  0
M  ISO  8  25  13  26  13  27  13  28  13  29  13  30  13  31  13  32  13
M  ISO  8  33  13  34   8  35   8  36  14  37  14  38  14  39  14  40  14
M  ISO  2  41  14  42  14
M  END
>  <minimizedAffinity>  (1) 
-5.00643635

>  <minimizedRMSD>  (1) 
0.611840189

$$$$
