
     RDKit          3D

 38 40  0  0  1  0  0  0  0  0999 V2000
   43.1370   35.1200   40.3500 C   0  0  0  0  0  0  0  0  0  0  0  0
   42.2240   34.0350   40.5750 N   0  0  0  0  0  0  0  0  0  0  0  0
   41.1180   34.5030   41.3600 C   0  0  0  0  0  0  0  0  0  0  0  0
   40.2770   35.4630   40.5970 C   0  0  0  0  0  0  0  0  0  0  0  0
   39.8750   34.9200   39.2530 C   0  0  0  0  0  0  0  0  0  0  0  0
   40.9650   34.2570   38.4690 C   0  0  0  0  0  0  0  0  0  0  0  0
   41.8330   33.4090   39.3450 C   0  0  1  0  0  0  0  0  0  0  0  0
   43.3030   32.8290   38.5150 S   0  0  0  0  0  0  0  0  0  0  0  0
   44.1690   31.5750   39.5110 C   0  0  0  0  0  0  0  0  0  0  0  0
   46.1660   34.8850   42.2900 N   0  0  0  0  0  0  0  0  0  0  0  0
   45.3840   35.5720   43.1140 C   0  0  0  0  0  0  0  0  0  0  0  0
   44.1790   35.7830   42.5910 N   0  0  0  0  0  0  0  0  0  0  0  0
   44.2140   35.1930   41.3690 C   0  0  0  0  0  0  0  0  0  0  0  0
   45.4470   34.6310   41.1710 N   0  0  0  0  0  0  0  0  0  0  0  0
   49.8920   34.5840   42.3080 C   0  0  0  0  0  0  0  0  0  0  0  0
   48.6390   35.1940   42.2900 C   0  0  0  0  0  0  0  0  0  0  0  0
   47.4960   34.3890   42.3090 C   0  0  0  0  0  0  0  0  0  0  0  0
   47.7100   33.0520   42.3440 N   0  0  0  0  0  0  0  0  0  0  0  0
   48.9090   32.4770   42.3610 C   0  0  0  0  0  0  0  0  0  0  0  0
   50.0110   33.2690   42.3420 N   0  0  0  0  0  0  0  0  0  0  0  0
   43.5991   34.9897   39.3603 H   0  0  0  0  0  0  0  0  0  0  0  0
   42.5598   36.0542   40.4140 H   0  0  0  0  0  0  0  0  0  0  0  0
   40.4998   33.6425   41.6557 H   0  0  0  0  0  0  0  0  0  0  0  0
   41.5168   35.0205   42.2450 H   0  0  0  0  0  0  0  0  0  0  0  0
   39.3685   35.6785   41.1785 H   0  0  0  0  0  0  0  0  0  0  0  0
   40.8701   36.3743   40.4303 H   0  0  0  0  0  0  0  0  0  0  0  0
   39.0756   34.1813   39.4121 H   0  0  0  0  0  0  0  0  0  0  0  0
   39.5645   35.7914   38.6578 H   0  0  0  0  0  0  0  0  0  0  0  0
   40.5119   33.6225   37.6931 H   0  0  0  0  0  0  0  0  0  0  0  0
   41.5912   35.0407   38.0177 H   0  0  0  0  0  0  0  0  0  0  0  0
   41.1832   32.5553   39.5878 H   0  0  0  0  0  0  0  0  0  0  0  0
   44.0210   31.7893   40.5797 H   0  0  0  0  0  0  0  0  0  0  0  0
   43.7656   30.5786   39.2775 H   0  0  0  0  0  0  0  0  0  0  0  0
   45.2437   31.5994   39.2775 H   0  0  0  0  0  0  0  0  0  0  0  0
   45.6947   35.9241   44.1087 H   0  0  0  0  0  0  0  0  0  0  0  0
   50.7974   35.2085   42.2936 H   0  0  0  0  0  0  0  0  0  0  0  0
   48.5508   36.2901   42.2613 H   0  0  0  0  0  0  0  0  0  0  0  0
   49.0057   31.3816   42.3899 H   0  0  0  0  0  0  0  0  0  0  0  0
  1  2  1  0
  1 13  1  0
  2  3  1  0
  4  3  1  0
  5  4  1  0
  6  5  1  0
  6  7  1  0
  7  2  1  0
  8  7  1  0
  8  9  1  0
 10 17  1  0
 10 11  1  0
 12 11  2  0
 13 12  1  0
 14 13  2  0
 14 10  1  0
 15 20  2  0
 16 15  1  0
 16 17  2  0
 17 18  1  0
 18 19  2  0
 20 19  1  0
  1 21  1  0
  1 22  1  0
  3 23  1  0
  3 24  1  0
  4 25  1  0
  4 26  1  0
  5 27  1  0
  5 28  1  0
  6 29  1  0
  6 30  1  0
  7 31  1  1
  9 32  1  0
  9 33  1  0
  9 34  1  0
 11 35  1  0
 15 36  1  0
 16 37  1  0
 19 38  1  0
M  ISO  8  21   8  22   8  23  13  24  13  25  13  26  13  27  13  28  13
M  ISO  8  29  13  30  13  31  13  32   8  33   8  34   8  35  14  36  14
M  ISO  2  37  14  38  14
M  END
>  <minimizedAffinity>  (1) 
-4.92260933

>  <minimizedRMSD>  (1) 
0.0585244559

$$$$
