
     RDKit          3D

 29 30  0  0  0  0  0  0  0  0999 V2000
   44.2770   35.8790   44.0650 C   0  0  0  0  0  0  0  0  0  0  0  0
   44.2890   35.0980   42.9090 C   0  0  0  0  0  0  0  0  0  0  0  0
   44.8600   33.8190   42.9920 C   0  0  0  0  0  0  0  0  0  0  0  0
   45.3660   33.4140   44.1940 N   0  0  0  0  0  0  0  0  0  0  0  0
   45.3260   34.2110   45.2700 C   0  0  0  0  0  0  0  0  0  0  0  0
   44.7880   35.4430   45.2320 N   0  0  0  0  0  0  0  0  0  0  0  0
   43.7350   35.5870   41.6580 C   0  0  0  0  0  0  0  0  0  0  0  0
   42.5740   34.8040   41.0900 C   0  0  0  0  0  0  0  0  0  0  0  0
   41.2340   35.2190   41.5530 C   0  0  0  0  0  0  0  0  0  0  0  0
   40.4780   36.1240   40.6310 C   0  0  0  0  0  0  0  0  0  0  0  0
   40.4140   35.5600   39.2250 C   0  0  0  0  0  0  0  0  0  0  0  0
   41.8150   35.4110   38.7620 C   0  0  0  0  0  0  0  0  0  0  0  0
   42.7140   34.5800   39.6150 C   0  0  0  0  0  0  0  0  0  0  0  0
   43.8350   36.8853   44.0216 H   0  0  0  0  0  0  0  0  0  0  0  0
   44.8990   33.1600   42.1121 H   0  0  0  0  0  0  0  0  0  0  0  0
   45.7479   33.8450   46.2177 H   0  0  0  0  0  0  0  0  0  0  0  0
   43.3943   36.6198   41.8231 H   0  0  0  0  0  0  0  0  0  0  0  0
   44.5447   35.4891   40.9198 H   0  0  0  0  0  0  0  0  0  0  0  0
   42.6439   33.8045   41.5440 H   0  0  0  0  0  0  0  0  0  0  0  0
   40.6322   34.3105   41.7027 H   0  0  0  0  0  0  0  0  0  0  0  0
   41.4019   35.8006   42.4715 H   0  0  0  0  0  0  0  0  0  0  0  0
   39.4539   36.2483   41.0129 H   0  0  0  0  0  0  0  0  0  0  0  0
   41.0019   37.0904   40.5909 H   0  0  0  0  0  0  0  0  0  0  0  0
   39.9107   34.5819   39.2313 H   0  0  0  0  0  0  0  0  0  0  0  0
   39.8450   36.2240   38.5576 H   0  0  0  0  0  0  0  0  0  0  0  0
   41.7894   34.9556   37.7610 H   0  0  0  0  0  0  0  0  0  0  0  0
   42.2407   36.4248   38.7924 H   0  0  0  0  0  0  0  0  0  0  0  0
   42.4974   33.5215   39.4087 H   0  0  0  0  0  0  0  0  0  0  0  0
   43.7417   34.8745   39.3559 H   0  0  0  0  0  0  0  0  0  0  0  0
  1  6  2  0
  2  3  2  0
  2  1  1  0
  3  4  1  0
  4  5  2  0
  6  5  1  0
  7  2  1  0
  8  9  1  0
  8  7  1  0
 10  9  1  0
 11 10  1  0
 12 11  1  0
 12 13  1  0
 13  8  1  0
  1 14  1  0
  3 15  1  0
  5 16  1  0
  7 17  1  0
  7 18  1  0
  8 19  1  0
  9 20  1  0
  9 21  1  0
 10 22  1  0
 10 23  1  0
 11 24  1  0
 11 25  1  0
 12 26  1  0
 12 27  1  0
 13 28  1  0
 13 29  1  0
M  ISO  8  14  14  15  14  16  14  17   8  18   8  19  13  20  13  21  13
M  ISO  8  22  13  23  13  24  13  25  13  26  13  27  13  28  13  29  13
M  END
>  <minimizedAffinity>  (1) 
-4.66403723

>  <minimizedRMSD>  (1) 
1.43434048

$$$$
