
     RDKit          3D

 20 21  0  0  0  0  0  0  0  0999 V2000
   44.3990   35.7870   44.5010 C   0  0  0  0  0  0  0  0  0  0  0  0
   44.6070   35.1210   43.2940 C   0  0  0  0  0  0  0  0  0  0  0  0
   45.2150   33.8430   43.3340 C   0  0  0  0  0  0  0  0  0  0  0  0
   45.5610   33.3340   44.5620 N   0  0  0  0  0  0  0  0  0  0  0  0
   45.3330   34.0270   45.6820 C   0  0  0  0  0  0  0  0  0  0  0  0
   44.7530   35.2540   45.6860 N   0  0  0  0  0  0  0  0  0  0  0  0
   44.2170   35.7140   42.0300 C   0  0  0  0  0  0  0  0  0  0  0  0
   42.8350   35.3440   41.6470 C   0  0  0  0  0  0  0  0  0  0  0  0
   42.5130   34.6900   40.4520 C   0  0  0  0  0  0  0  0  0  0  0  0
   41.1710   34.4870   40.3850 N   0  0  0  0  0  0  0  0  0  0  0  0
   40.6490   35.0030   41.5180 C   0  0  0  0  0  0  0  0  0  0  0  0
   41.6450   35.5130   42.2660 N   0  0  0  0  0  0  0  0  0  0  0  0
   43.9297   36.7818   44.4849 H   0  0  0  0  0  0  0  0  0  0  0  0
   45.4043   33.2756   42.4108 H   0  0  0  0  0  0  0  0  0  0  0  0
   45.6288   33.5828   46.6439 H   0  0  0  0  0  0  0  0  0  0  0  0
   44.2806   36.8087   42.1166 H   0  0  0  0  0  0  0  0  0  0  0  0
   44.8978   35.3363   41.2529 H   0  0  0  0  0  0  0  0  0  0  0  0
   43.2377   34.3859   39.6824 H   0  0  0  0  0  0  0  0  0  0  0  0
   39.5823   35.0061   41.7865 H   0  0  0  0  0  0  0  0  0  0  0  0
   41.5184   35.9681   43.1813 H   0  0  0  0  0  0  0  0  0  0  0  0
  1  6  2  0
  2  3  2  0
  2  1  1  0
  3  4  1  0
  4  5  2  0
  5  6  1  0
  7  2  1  0
  8  7  1  0
  8 12  1  0
  9  8  2  0
 10  9  1  0
 10 11  2  0
 11 12  1  0
  1 13  1  0
  3 14  1  0
  5 15  1  0
  7 16  1  0
  7 17  1  0
  9 18  1  0
 11 19  1  0
 12 20  1  0
M  ISO  8  13  14  14  14  15  14  16   8  17   8  18  14  19  14  20   9
M  END
>  <minimizedAffinity>  (1) 
-4.2063508

>  <minimizedRMSD>  (1) 
0.506907642

$$$$
