
     RDKit          3D

 26 27  0  0  0  0  0  0  0  0999 V2000
   44.3780   35.8540   43.7750 C   0  0  0  0  0  0  0  0  0  0  0  0
   44.2100   35.0690   42.6100 C   0  0  0  0  0  0  0  0  0  0  0  0
   44.6250   33.7290   42.6300 C   0  0  0  0  0  0  0  0  0  0  0  0
   45.1740   33.2540   43.7860 N   0  0  0  0  0  0  0  0  0  0  0  0
   45.3200   34.0270   44.8790 C   0  0  0  0  0  0  0  0  0  0  0  0
   44.9330   35.3150   44.8940 N   0  0  0  0  0  0  0  0  0  0  0  0
   43.6100   35.6810   41.4280 C   0  0  0  0  0  0  0  0  0  0  0  0
   42.3950   35.0080   40.8940 C   0  0  0  0  0  0  0  0  0  0  0  0
   42.1910   35.1700   39.4130 C   0  0  0  0  0  0  0  0  0  0  0  0
   40.6730   35.0910   39.2240 C   0  0  0  0  0  0  0  0  0  0  0  0
   40.0750   35.1310   40.6160 C   0  0  0  0  0  0  0  0  0  0  0  0
   41.1800   35.7750   41.4200 C   0  0  0  0  0  0  0  0  0  0  0  0
   44.0580   36.9064   43.7760 H   0  0  0  0  0  0  0  0  0  0  0  0
   44.5120   33.0843   41.7459 H   0  0  0  0  0  0  0  0  0  0  0  0
   45.7683   33.5929   45.7848 H   0  0  0  0  0  0  0  0  0  0  0  0
   43.3369   36.7150   41.6856 H   0  0  0  0  0  0  0  0  0  0  0  0
   44.3676   35.6016   40.6344 H   0  0  0  0  0  0  0  0  0  0  0  0
   42.5078   33.9506   41.1752 H   0  0  0  0  0  0  0  0  0  0  0  0
   42.5752   36.1426   39.0717 H   0  0  0  0  0  0  0  0  0  0  0  0
   42.7253   34.4047   38.8310 H   0  0  0  0  0  0  0  0  0  0  0  0
   40.3169   35.9460   38.6305 H   0  0  0  0  0  0  0  0  0  0  0  0
   40.3814   34.1765   38.6868 H   0  0  0  0  0  0  0  0  0  0  0  0
   39.1587   35.7391   40.6390 H   0  0  0  0  0  0  0  0  0  0  0  0
   39.7714   34.1438   40.9946 H   0  0  0  0  0  0  0  0  0  0  0  0
   41.0390   35.6202   42.4999 H   0  0  0  0  0  0  0  0  0  0  0  0
   41.2471   36.8676   41.3118 H   0  0  0  0  0  0  0  0  0  0  0  0
  1  6  2  0
  2  3  2  0
  2  1  1  0
  3  4  1  0
  4  5  2  0
  5  6  1  0
  7  2  1  0
  8 12  1  0
  8  7  1  0
  9  8  1  0
 10  9  1  0
 10 11  1  0
 11 12  1  0
  1 13  1  0
  3 14  1  0
  5 15  1  0
  7 16  1  0
  7 17  1  0
  8 18  1  0
  9 19  1  0
  9 20  1  0
 10 21  1  0
 10 22  1  0
 11 23  1  0
 11 24  1  0
 12 25  1  0
 12 26  1  0
M  ISO  8  13  14  14  14  15  14  16   8  17   8  18  13  19  13  20  13
M  ISO  6  21  13  22  13  23  13  24  13  25  13  26  13
M  END
>  <minimizedAffinity>  (1) 
-4.18067408

>  <minimizedRMSD>  (1) 
1.00055373

$$$$
