
     RDKit          3D

 21 22  0  0  0  0  0  0  0  0999 V2000
   44.0740   35.6770   41.7960 C   0  0  0  0  0  0  0  0  0  0  0  0
   44.3360   35.8630   44.2400 C   0  0  0  0  0  0  0  0  0  0  0  0
   44.4940   35.1100   43.0590 C   0  0  0  0  0  0  0  0  0  0  0  0
   45.0590   33.8320   43.1700 C   0  0  0  0  0  0  0  0  0  0  0  0
   45.4290   33.3710   44.4030 N   0  0  0  0  0  0  0  0  0  0  0  0
   45.2530   34.1400   45.5050 C   0  0  0  0  0  0  0  0  0  0  0  0
   44.7160   35.3710   45.4400 N   0  0  0  0  0  0  0  0  0  0  0  0
   42.7910   35.2220   41.2550 C   0  0  0  0  0  0  0  0  0  0  0  0
   42.8610   34.5920   40.0050 C   0  0  0  0  0  0  0  0  0  0  0  0
   41.6940   34.1370   39.4340 C   0  0  0  0  0  0  0  0  0  0  0  0
   40.5090   34.2900   40.0530 N   0  0  0  0  0  0  0  0  0  0  0  0
   40.4670   34.9080   41.2690 C   0  0  0  0  0  0  0  0  0  0  0  0
   41.5910   35.3620   41.8510 N   0  0  0  0  0  0  0  0  0  0  0  0
   44.0107   36.7674   41.9268 H   0  0  0  0  0  0  0  0  0  0  0  0
   44.8262   35.3393   41.0678 H   0  0  0  0  0  0  0  0  0  0  0  0
   43.8954   36.8693   44.1839 H   0  0  0  0  0  0  0  0  0  0  0  0
   45.2030   33.2075   42.2760 H   0  0  0  0  0  0  0  0  0  0  0  0
   45.5594   33.7442   46.4845 H   0  0  0  0  0  0  0  0  0  0  0  0
   43.8258   34.4641   39.4923 H   0  0  0  0  0  0  0  0  0  0  0  0
   41.7308   33.6392   38.4538 H   0  0  0  0  0  0  0  0  0  0  0  0
   39.5012   35.0364   41.7797 H   0  0  0  0  0  0  0  0  0  0  0  0
  1  3  1  0
  2  7  2  0
  3  4  2  0
  3  2  1  0
  4  5  1  0
  5  6  2  0
  7  6  1  0
  8  1  1  0
  8 13  1  0
  9  8  2  0
 10  9  1  0
 10 11  2  0
 11 12  1  0
 12 13  2  0
  1 14  1  0
  1 15  1  0
  2 16  1  0
  4 17  1  0
  6 18  1  0
  9 19  1  0
 10 20  1  0
 12 21  1  0
M  ISO  8  14   8  15   8  16  14  17  14  18  14  19  14  20  14  21  14
M  END
>  <minimizedAffinity>  (1) 
-4.0908227

>  <minimizedRMSD>  (1) 
0.618685246

$$$$
