
     RDKit          3D

 21 22  0  0  0  0  0  0  0  0999 V2000
   44.0680   35.6100   41.7700 C   0  0  0  0  0  0  0  0  0  0  0  0
   44.3170   35.8410   44.2190 C   0  0  0  0  0  0  0  0  0  0  0  0
   44.5000   35.0640   43.0580 C   0  0  0  0  0  0  0  0  0  0  0  0
   45.0900   33.8010   43.1910 C   0  0  0  0  0  0  0  0  0  0  0  0
   45.4590   33.3830   44.4380 N   0  0  0  0  0  0  0  0  0  0  0  0
   45.2590   34.1730   45.5200 C   0  0  0  0  0  0  0  0  0  0  0  0
   44.6920   35.4040   45.4530 N   0  0  0  0  0  0  0  0  0  0  0  0
   42.7450   35.0190   41.3540 C   0  0  0  0  0  0  0  0  0  0  0  0
   41.5150   35.4490   41.8040 C   0  0  0  0  0  0  0  0  0  0  0  0
   40.3890   34.8130   41.3360 C   0  0  0  0  0  0  0  0  0  0  0  0
   40.4960   33.8010   40.4640 N   0  0  0  0  0  0  0  0  0  0  0  0
   41.7040   33.3640   40.0100 C   0  0  0  0  0  0  0  0  0  0  0  0
   42.7790   33.9890   40.4710 N   0  0  0  0  0  0  0  0  0  0  0  0
   43.9636   36.7015   41.8579 H   0  0  0  0  0  0  0  0  0  0  0  0
   44.8215   35.3571   41.0096 H   0  0  0  0  0  0  0  0  0  0  0  0
   43.8552   36.8350   44.1254 H   0  0  0  0  0  0  0  0  0  0  0  0
   45.2525   33.1604   42.3117 H   0  0  0  0  0  0  0  0  0  0  0  0
   45.5728   33.7968   46.5049 H   0  0  0  0  0  0  0  0  0  0  0  0
   41.4361   36.2804   42.5199 H   0  0  0  0  0  0  0  0  0  0  0  0
   39.3953   35.1367   41.6792 H   0  0  0  0  0  0  0  0  0  0  0  0
   41.7839   32.5320   39.2948 H   0  0  0  0  0  0  0  0  0  0  0  0
  1  3  1  0
  2  7  2  0
  3  4  2  0
  3  2  1  0
  4  5  1  0
  5  6  2  0
  7  6  1  0
  8  1  1  0
  8  9  2  0
 10  9  1  0
 11 10  2  0
 12 11  1  0
 12 13  2  0
 13  8  1  0
  1 14  1  0
  1 15  1  0
  2 16  1  0
  4 17  1  0
  6 18  1  0
  9 19  1  0
 10 20  1  0
 12 21  1  0
M  ISO  8  14   8  15   8  16  14  17  14  18  14  19  14  20  14  21  14
M  END
>  <minimizedAffinity>  (1) 
-3.99867916

>  <minimizedRMSD>  (1) 
1.00333071

$$$$
