
     RDKit          3D

 27 28  0  0  0  0  0  0  0  0999 V2000
   43.7010   35.6000   41.3850 C   0  0  0  0  0  0  0  0  0  0  0  0
   44.3390   35.9310   43.7450 C   0  0  0  0  0  0  0  0  0  0  0  0
   44.2500   35.0730   42.6310 C   0  0  0  0  0  0  0  0  0  0  0  0
   44.6850   33.7450   42.7410 C   0  0  0  0  0  0  0  0  0  0  0  0
   45.1790   33.3570   43.9490 N   0  0  0  0  0  0  0  0  0  0  0  0
   45.2490   34.2070   44.9940 C   0  0  0  0  0  0  0  0  0  0  0  0
   44.8430   35.4860   44.9270 N   0  0  0  0  0  0  0  0  0  0  0  0
   42.4410   34.9690   41.1470 N   0  0  0  0  0  0  0  0  0  0  0  0
   42.3430   34.1790   39.9890 C   0  0  0  0  0  0  0  0  0  0  0  0
   41.1090   33.3080   40.0430 C   0  0  0  0  0  0  0  0  0  0  0  0
   39.9470   34.0970   40.3170 N   0  0  0  0  0  0  0  0  0  0  0  0
   40.2090   35.4850   40.6070 C   0  0  0  0  0  0  0  0  0  0  0  0
   41.2900   35.5680   41.6860 C   0  0  0  0  0  0  0  0  0  0  0  0
   43.5618   36.6878   41.4707 H   0  0  0  0  0  0  0  0  0  0  0  0
   44.3898   35.3969   40.5517 H   0  0  0  0  0  0  0  0  0  0  0  0
   43.9969   36.9728   43.6576 H   0  0  0  0  0  0  0  0  0  0  0  0
   44.6298   33.0489   41.8911 H   0  0  0  0  0  0  0  0  0  0  0  0
   45.6575   33.8357   45.9454 H   0  0  0  0  0  0  0  0  0  0  0  0
   43.2343   33.5390   39.9113 H   0  0  0  0  0  0  0  0  0  0  0  0
   42.2725   34.8405   39.1130 H   0  0  0  0  0  0  0  0  0  0  0  0
   40.9817   32.8011   39.0751 H   0  0  0  0  0  0  0  0  0  0  0  0
   41.2325   32.5676   40.8471 H   0  0  0  0  0  0  0  0  0  0  0  0
   39.3294   34.0533   39.4938 H   0  0  0  0  0  0  0  0  0  0  0  0
   40.5565   35.9938   39.6957 H   0  0  0  0  0  0  0  0  0  0  0  0
   39.2890   35.9727   40.9616 H   0  0  0  0  0  0  0  0  0  0  0  0
   40.9680   35.0277   42.5884 H   0  0  0  0  0  0  0  0  0  0  0  0
   41.4836   36.6117   41.9745 H   0  0  0  0  0  0  0  0  0  0  0  0
  1  3  1  0
  2  7  2  0
  3  4  2  0
  3  2  1  0
  4  5  1  0
  5  6  2  0
  7  6  1  0
  8  1  1  0
  8 13  1  0
  9 10  1  0
  9  8  1  0
 10 11  1  0
 11 12  1  0
 12 13  1  0
  1 14  1  0
  1 15  1  0
  2 16  1  0
  4 17  1  0
  6 18  1  0
  9 19  1  0
  9 20  1  0
 10 21  1  0
 10 22  1  0
 11 23  1  0
 12 24  1  0
 12 25  1  0
 13 26  1  0
 13 27  1  0
M  ISO  8  14   8  15   8  16  14  17  14  18  14  19  13  20  13  21  13
M  ISO  6  22  13  23   5  24  13  25  13  26  13  27  13
M  END
>  <minimizedAffinity>  (1) 
-3.81051302

>  <minimizedRMSD>  (1) 
0.869630158

$$$$
