
     RDKit          3D

 38 40  0  0  1  0  0  0  0  0999 V2000
   49.0510   33.6730   42.6610 C   0  0  2  0  0  0  0  0  0  0  0  0
   47.6630   33.9080   42.4490 C   0  0  2  0  0  0  0  0  0  0  0  0
   47.6290   35.3860   41.9530 C   0  0  0  0  0  0  0  0  0  0  0  0
   48.9970   35.8090   41.5610 C   0  0  0  0  0  0  0  0  0  0  0  0
   49.7930   35.0570   42.5400 C   0  0  0  0  0  0  0  0  0  0  0  0
   49.8030   32.8310   41.7360 C   0  0  0  0  0  0  0  0  0  0  0  0
   49.0860   32.2270   40.7240 C   0  0  0  0  0  0  0  0  0  0  0  0
   49.6630   31.3840   39.7900 C   0  0  0  0  0  0  0  0  0  0  0  0
   51.0360   31.2080   39.9620 N   0  0  0  0  0  0  0  0  0  0  0  0
   51.7270   31.7940   40.9340 C   0  0  0  0  0  0  0  0  0  0  0  0
   51.1020   32.5890   41.7980 N   0  0  0  0  0  0  0  0  0  0  0  0
   46.7740   33.7780   43.6350 C   0  0  0  0  0  0  0  0  0  0  0  0
   45.8940   34.5670   43.8440 O   0  0  0  0  0  0  0  0  0  0  0  0
   46.8160   32.7660   44.6580 C   0  0  0  0  0  0  0  0  0  0  0  0
   46.8900   33.1120   46.0060 C   0  0  0  0  0  0  0  0  0  0  0  0
   46.9680   32.1760   47.0540 C   0  0  0  0  0  0  0  0  0  0  0  0
   46.9710   30.8280   46.7180 C   0  0  0  0  0  0  0  0  0  0  0  0
   46.8970   30.4530   45.3850 C   0  0  0  0  0  0  0  0  0  0  0  0
   46.8200   31.4230   44.4220 C   0  0  0  0  0  0  0  0  0  0  0  0
   46.6690   30.7330   43.1170 C   0  0  0  0  0  0  0  0  0  0  0  0
   49.0382   33.1480   43.6275 H   0  0  0  0  0  0  0  0  0  0  0  0
   47.2726   33.1448   41.7598 H   0  0  0  0  0  0  0  0  0  0  0  0
   46.9578   35.4660   41.0852 H   0  0  0  0  0  0  0  0  0  0  0  0
   47.2624   36.0354   42.7617 H   0  0  0  0  0  0  0  0  0  0  0  0
   49.2349   35.5125   40.5288 H   0  0  0  0  0  0  0  0  0  0  0  0
   49.1635   36.8963   41.5690 H   0  0  0  0  0  0  0  0  0  0  0  0
   50.8230   34.9171   42.1802 H   0  0  0  0  0  0  0  0  0  0  0  0
   49.8737   35.5773   43.5058 H   0  0  0  0  0  0  0  0  0  0  0  0
   48.0060   32.4244   40.6562 H   0  0  0  0  0  0  0  0  0  0  0  0
   49.0913   30.8975   38.9859 H   0  0  0  0  0  0  0  0  0  0  0  0
   52.8099   31.6226   41.0236 H   0  0  0  0  0  0  0  0  0  0  0  0
   46.8873   34.1807   46.2664 H   0  0  0  0  0  0  0  0  0  0  0  0
   47.0247   32.5007   48.1035 H   0  0  0  0  0  0  0  0  0  0  0  0
   47.0318   30.0621   47.5052 H   0  0  0  0  0  0  0  0  0  0  0  0
   46.9001   29.3893   45.1048 H   0  0  0  0  0  0  0  0  0  0  0  0
   46.4367   29.6715   43.2882 H   0  0  0  0  0  0  0  0  0  0  0  0
   45.8518   31.2000   42.5477 H   0  0  0  0  0  0  0  0  0  0  0  0
   47.6066   30.8160   42.5477 H   0  0  0  0  0  0  0  0  0  0  0  0
  2  1  1  0
  2 12  1  0
  3  2  1  0
  4  3  1  0
  4  5  1  0
  5  1  1  0
  6 11  1  0
  6  1  1  0
  7  6  2  0
  8  9  2  0
  8  7  1  0
  9 10  1  0
 10 11  2  0
 12 13  2  0
 12 14  1  0
 14 15  2  0
 15 16  1  0
 17 16  2  0
 18 17  1  0
 19 14  1  0
 19 18  2  0
 20 19  1  0
  1 21  1  1
  2 22  1  6
  3 23  1  0
  3 24  1  0
  4 25  1  0
  4 26  1  0
  5 27  1  0
  5 28  1  0
  7 29  1  0
  8 30  1  0
 10 31  1  0
 15 32  1  0
 16 33  1  0
 17 34  1  0
 18 35  1  0
 20 36  1  0
 20 37  1  0
 20 38  1  0
M  ISO  8  21  13  22  13  23  13  24  13  25  13  26  13  27  13  28  13
M  ISO  8  29  14  30  14  31  14  32  14  33  14  34  14  35  14  36   8
M  ISO  2  37   8  38   8
M  END
>  <minimizedAffinity>  (1) 
-5.23704433

>  <minimizedRMSD>  (1) 
0.263174385

$$$$
