
     RDKit          3D

 20 21  0  0  0  0  0  0  0  0999 V2000
   43.9570   35.4240   41.7370 C   0  0  0  0  0  0  0  0  0  0  0  0
   44.2670   35.7930   44.1710 C   0  0  0  0  0  0  0  0  0  0  0  0
   44.4410   34.9710   43.0450 C   0  0  0  0  0  0  0  0  0  0  0  0
   45.0790   33.7350   43.2220 C   0  0  0  0  0  0  0  0  0  0  0  0
   45.4980   33.3970   44.4820 N   0  0  0  0  0  0  0  0  0  0  0  0
   45.3060   34.2180   45.5220 C   0  0  0  0  0  0  0  0  0  0  0  0
   44.6930   35.4310   45.4140 N   0  0  0  0  0  0  0  0  0  0  0  0
   42.6050   34.8690   41.4610 C   0  0  0  0  0  0  0  0  0  0  0  0
   41.4050   35.5560   41.6670 C   0  0  0  0  0  0  0  0  0  0  0  0
   40.3600   34.7300   41.3020 C   0  0  0  0  0  0  0  0  0  0  0  0
   40.9190   33.5720   40.8860 N   0  0  0  0  0  0  0  0  0  0  0  0
   42.2430   33.6710   40.9870 N   0  0  0  0  0  0  0  0  0  0  0  0
   43.9054   36.5228   41.7308 H   0  0  0  0  0  0  0  0  0  0  0  0
   44.6513   35.0725   40.9596 H   0  0  0  0  0  0  0  0  0  0  0  0
   43.7682   36.7652   44.0447 H   0  0  0  0  0  0  0  0  0  0  0  0
   45.2388   33.0550   42.3722 H   0  0  0  0  0  0  0  0  0  0  0  0
   45.6605   33.8979   46.5129 H   0  0  0  0  0  0  0  0  0  0  0  0
   41.3093   36.5811   42.0543 H   0  0  0  0  0  0  0  0  0  0  0  0
   39.2867   34.9673   41.3419 H   0  0  0  0  0  0  0  0  0  0  0  0
   40.4045   32.7470   40.5461 H   0  0  0  0  0  0  0  0  0  0  0  0
  1  3  1  0
  2  7  2  0
  3  4  2  0
  3  2  1  0
  4  5  1  0
  5  6  2  0
  7  6  1  0
  8  9  1  0
  8  1  1  0
 10  9  2  0
 11 12  1  0
 11 10  1  0
 12  8  2  0
  1 13  1  0
  1 14  1  0
  2 15  1  0
  4 16  1  0
  6 17  1  0
  9 18  1  0
 10 19  1  0
 11 20  1  0
M  ISO  8  13   8  14   8  15  14  16  14  17  14  18  14  19  14  20   9
M  END
>  <minimizedAffinity>  (1) 
-3.80731845

>  <minimizedRMSD>  (1) 
0.64694196

$$$$
