
     RDKit          3D

 18 19  0  0  0  0  0  0  0  0999 V2000
   44.2890   35.8160   44.2350 C   0  0  0  0  0  0  0  0  0  0  0  0
   44.4970   35.0380   43.0950 C   0  0  0  0  0  0  0  0  0  0  0  0
   45.1350   33.7900   43.2250 C   0  0  0  0  0  0  0  0  0  0  0  0
   45.5240   33.3980   44.4770 N   0  0  0  0  0  0  0  0  0  0  0  0
   45.2960   34.1930   45.5440 C   0  0  0  0  0  0  0  0  0  0  0  0
   44.6870   35.3970   45.4550 N   0  0  0  0  0  0  0  0  0  0  0  0
   44.0570   35.5140   41.7770 C   0  0  0  0  0  0  0  0  0  0  0  0
   42.7070   34.9360   41.5350 C   0  0  0  0  0  0  0  0  0  0  0  0
   42.3700   33.7380   41.0150 N   0  0  0  0  0  0  0  0  0  0  0  0
   41.0670   33.6270   40.9760 O   0  0  0  0  0  0  0  0  0  0  0  0
   40.5150   34.7220   41.4590 C   0  0  0  0  0  0  0  0  0  0  0  0
   41.5380   35.5250   41.8020 N   0  0  0  0  0  0  0  0  0  0  0  0
   43.7901   36.7915   44.1372 H   0  0  0  0  0  0  0  0  0  0  0  0
   45.3151   33.1504   42.3483 H   0  0  0  0  0  0  0  0  0  0  0  0
   45.6218   33.8440   46.5350 H   0  0  0  0  0  0  0  0  0  0  0  0
   44.0045   36.6127   41.7702 H   0  0  0  0  0  0  0  0  0  0  0  0
   44.7630   35.2054   40.9920 H   0  0  0  0  0  0  0  0  0  0  0  0
   39.4406   34.9350   41.5605 H   0  0  0  0  0  0  0  0  0  0  0  0
  1  6  2  0
  2  3  2  0
  2  1  1  0
  3  4  1  0
  4  5  2  0
  6  5  1  0
  7  2  1  0
  8  7  1  0
  8 12  1  0
  9  8  2  0
 10  9  1  0
 10 11  1  0
 11 12  2  0
  1 13  1  0
  3 14  1  0
  5 15  1  0
  7 16  1  0
  7 17  1  0
 11 18  1  0
M  ISO  6  13  14  14  14  15  14  16   8  17   8  18  14
M  END
>  <minimizedAffinity>  (1) 
-3.77823091

>  <minimizedRMSD>  (1) 
0.354164451

$$$$
