
     RDKit          3D

 28 29  0  0  0  0  0  0  0  0999 V2000
   44.7040   34.0920   42.4360 C   0  0  0  0  0  0  0  0  0  0  0  0
   45.1590   34.3630   44.8430 C   0  0  0  0  0  0  0  0  0  0  0  0
   45.1760   33.5380   43.7010 C   0  0  0  0  0  0  0  0  0  0  0  0
   45.6490   32.2230   43.8470 C   0  0  0  0  0  0  0  0  0  0  0  0
   46.0670   31.8070   45.0780 N   0  0  0  0  0  0  0  0  0  0  0  0
   46.0290   32.6420   46.1420 C   0  0  0  0  0  0  0  0  0  0  0  0
   45.5860   33.9090   46.0580 N   0  0  0  0  0  0  0  0  0  0  0  0
   45.7670   34.6550   41.6470 N   0  0  0  0  0  0  0  0  0  0  0  0
   46.4150   33.6780   40.7930 C   0  0  0  0  0  0  0  0  0  0  0  0
   47.6430   34.3900   40.2320 C   0  0  0  0  0  0  0  0  0  0  0  0
   48.7070   34.3730   41.3110 C   0  0  0  0  0  0  0  0  0  0  0  0
   48.0300   34.5990   42.6230 C   0  0  0  0  0  0  0  0  0  0  0  0
   46.7110   35.3120   42.5070 C   0  0  0  0  0  0  0  0  0  0  0  0
   44.2232   33.2894   41.8576 H   0  0  0  0  0  0  0  0  0  0  0  0
   43.9981   34.9025   42.6703 H   0  0  0  0  0  0  0  0  0  0  0  0
   44.7933   35.3966   44.7538 H   0  0  0  0  0  0  0  0  0  0  0  0
   45.6819   31.5409   42.9846 H   0  0  0  0  0  0  0  0  0  0  0  0
   46.3751   32.2687   47.1171 H   0  0  0  0  0  0  0  0  0  0  0  0
   46.7140   32.7942   41.3756 H   0  0  0  0  0  0  0  0  0  0  0  0
   45.7466   33.3207   39.9958 H   0  0  0  0  0  0  0  0  0  0  0  0
   48.0065   33.8643   39.3368 H   0  0  0  0  0  0  0  0  0  0  0  0
   47.3965   35.4229   39.9448 H   0  0  0  0  0  0  0  0  0  0  0  0
   49.2187   33.3993   41.3167 H   0  0  0  0  0  0  0  0  0  0  0  0
   49.4558   35.1570   41.1248 H   0  0  0  0  0  0  0  0  0  0  0  0
   47.8561   33.6218   43.0971 H   0  0  0  0  0  0  0  0  0  0  0  0
   48.6924   35.2429   43.2202 H   0  0  0  0  0  0  0  0  0  0  0  0
   46.8967   36.3211   42.1104 H   0  0  0  0  0  0  0  0  0  0  0  0
   46.2677   35.3283   43.5136 H   0  0  0  0  0  0  0  0  0  0  0  0
  1  3  1  0
  2  7  2  0
  3  4  2  0
  3  2  1  0
  4  5  1  0
  5  6  2  0
  7  6  1  0
  8  1  1  0
  8 13  1  0
  9  8  1  0
 10  9  1  0
 10 11  1  0
 11 12  1  0
 13 12  1  0
  1 14  1  0
  1 15  1  0
  2 16  1  0
  4 17  1  0
  6 18  1  0
  9 19  1  0
  9 20  1  0
 10 21  1  0
 10 22  1  0
 11 23  1  0
 11 24  1  0
 12 25  1  0
 12 26  1  0
 13 27  1  0
 13 28  1  0
M  ISO  8  14   8  15   8  16  14  17  14  18  14  19  13  20  13  21  13
M  ISO  7  22  13  23  13  24  13  25  13  26  13  27  13  28  13
M  END
>  <minimizedAffinity>  (1) 
-3.62841177

>  <minimizedRMSD>  (1) 
2.91393018

$$$$
