
     RDKit          3D

 14 14  0  0  0  0  0  0  0  0999 V2000
   44.3740   35.7920   44.4720 C   0  0  0  0  0  0  0  0  0  0  0  0
   44.6310   35.0960   43.2760 C   0  0  0  0  0  0  0  0  0  0  0  0
   45.2600   33.8340   43.3380 C   0  0  0  0  0  0  0  0  0  0  0  0
   45.5890   33.3550   44.5880 N   0  0  0  0  0  0  0  0  0  0  0  0
   45.3160   34.0680   45.7020 C   0  0  0  0  0  0  0  0  0  0  0  0
   44.7190   35.2740   45.6850 N   0  0  0  0  0  0  0  0  0  0  0  0
   44.2480   35.6830   42.0020 C   0  0  0  0  0  0  0  0  0  0  0  0
   42.9510   35.3410   41.6650 O   0  0  0  0  0  0  0  0  0  0  0  0
   43.8839   36.7758   44.4271 H   0  0  0  0  0  0  0  0  0  0  0  0
   45.4785   33.2570   42.4273 H   0  0  0  0  0  0  0  0  0  0  0  0
   45.5967   33.6400   46.6756 H   0  0  0  0  0  0  0  0  0  0  0  0
   44.3234   36.7780   42.0741 H   0  0  0  0  0  0  0  0  0  0  0  0
   44.9236   35.2988   41.2236 H   0  0  0  0  0  0  0  0  0  0  0  0
   42.4216   35.2014   42.4898 H   0  0  0  0  0  0  0  0  0  0  0  0
  1  6  2  0
  2  3  2  0
  2  1  1  0
  3  4  1  0
  4  5  2  0
  6  5  1  0
  7  2  1  0
  8  7  1  0
  1  9  1  0
  3 10  1  0
  5 11  1  0
  7 12  1  0
  7 13  1  0
  8 14  1  0
M  ISO  6   9  14  10  14  11  14  12   8  13   8  14   3
M  END
>  <minimizedAffinity>  (1) 
-2.77156091

>  <minimizedRMSD>  (1) 
0.0265247747

$$$$
