
     RDKit          3D

 35 36  0  0  0  0  0  0  0  0999 V2000
   42.0840   33.4390   40.7740 C   0  0  0  0  0  0  0  0  0  0  0  0
   42.4600   32.2370   41.3830 C   0  0  0  0  0  0  0  0  0  0  0  0
   41.6000   31.3850   42.0560 C   0  0  0  0  0  0  0  0  0  0  0  0
   40.2980   31.7640   42.1220 C   0  0  0  0  0  0  0  0  0  0  0  0
   39.8390   32.9120   41.5600 C   0  0  0  0  0  0  0  0  0  0  0  0
   40.7380   33.7660   40.8720 C   0  0  0  0  0  0  0  0  0  0  0  0
   40.1360   34.8870   40.2100 C   0  0  0  0  0  0  0  0  0  0  0  0
   40.6050   34.7800   38.7330 C   0  0  0  0  0  0  0  0  0  0  0  0
   38.6140   34.5950   40.0930 C   0  0  0  0  0  0  0  0  0  0  0  0
   40.2120   36.2650   40.4940 C   0  0  0  0  0  0  0  0  0  0  0  0
   43.0460   34.2800   40.1340 C   0  0  0  0  0  0  0  0  0  0  0  0
   43.7560   35.4350   42.1820 C   0  0  0  0  0  0  0  0  0  0  0  0
   44.0950   34.6700   41.0980 C   0  0  0  0  0  0  0  0  0  0  0  0
   45.4420   34.2920   40.9590 C   0  0  0  0  0  0  0  0  0  0  0  0
   46.2990   34.7330   41.9360 N   0  0  0  0  0  0  0  0  0  0  0  0
   45.9070   35.4720   42.9620 C   0  0  0  0  0  0  0  0  0  0  0  0
   44.5960   35.8630   43.1340 N   0  0  0  0  0  0  0  0  0  0  0  0
   43.5192   31.9464   41.3228 H   0  0  0  0  0  0  0  0  0  0  0  0
   41.9538   30.4493   42.5135 H   0  0  0  0  0  0  0  0  0  0  0  0
   39.5858   31.1147   42.6523 H   0  0  0  0  0  0  0  0  0  0  0  0
   38.7746   33.1782   41.6382 H   0  0  0  0  0  0  0  0  0  0  0  0
   41.6771   34.5354   38.7055 H   0  0  0  0  0  0  0  0  0  0  0  0
   40.0352   33.9888   38.2238 H   0  0  0  0  0  0  0  0  0  0  0  0
   40.4348   35.7401   38.2238 H   0  0  0  0  0  0  0  0  0  0  0  0
   38.1783   34.5114   41.0995 H   0  0  0  0  0  0  0  0  0  0  0  0
   38.1240   35.4155   39.5483 H   0  0  0  0  0  0  0  0  0  0  0  0
   38.4625   33.6514   39.5483 H   0  0  0  0  0  0  0  0  0  0  0  0
   40.2203   36.4149   41.5837 H   0  0  0  0  0  0  0  0  0  0  0  0
   41.1343   36.6785   40.0600 H   0  0  0  0  0  0  0  0  0  0  0  0
   39.3408   36.7774   40.0600 H   0  0  0  0  0  0  0  0  0  0  0  0
   43.5055   33.7359   39.2957 H   0  0  0  0  0  0  0  0  0  0  0  0
   42.5439   35.1846   39.7604 H   0  0  0  0  0  0  0  0  0  0  0  0
   42.6992   35.7241   42.2799 H   0  0  0  0  0  0  0  0  0  0  0  0
   45.7892   33.6777   40.1152 H   0  0  0  0  0  0  0  0  0  0  0  0
   46.6550   35.7858   43.7050 H   0  0  0  0  0  0  0  0  0  0  0  0
  1  6  1  0
  1  2  2  0
  2  3  1  0
  3  4  2  0
  5  4  1  0
  6  5  2  0
  7 10  1  0
  7  6  1  0
  8  7  1  0
  9  7  1  0
 11  1  1  0
 11 13  1  0
 12 17  2  0
 13 12  1  0
 14 13  2  0
 14 15  1  0
 15 16  2  0
 16 17  1  0
  2 18  1  0
  3 19  1  0
  4 20  1  0
  5 21  1  0
  8 22  1  0
  8 23  1  0
  8 24  1  0
  9 25  1  0
  9 26  1  0
  9 27  1  0
 10 28  1  0
 10 29  1  0
 10 30  1  0
 11 31  1  0
 11 32  1  0
 12 33  1  0
 14 34  1  0
 16 35  1  0
M  ISO  8  18  14  19  14  20  14  21  14  22   8  23   8  24   8  25   8
M  ISO  8  26   8  27   8  28   8  29   8  30   8  31   8  32   8  33  14
M  ISO  2  34  14  35  14
M  END
>  <minimizedAffinity>  (1) 
-5.09982681

>  <minimizedRMSD>  (1) 
2.56147289

$$$$
