
     RDKit          3D

 32 33  0  0  0  0  0  0  0  0999 V2000
   41.8070   33.5890   40.6030 C   0  0  0  0  0  0  0  0  0  0  0  0
   42.1330   32.4580   41.3050 C   0  0  0  0  0  0  0  0  0  0  0  0
   41.2250   31.6510   41.9490 C   0  0  0  0  0  0  0  0  0  0  0  0
   39.8850   32.0060   41.8860 C   0  0  0  0  0  0  0  0  0  0  0  0
   39.4800   33.1310   41.1990 C   0  0  0  0  0  0  0  0  0  0  0  0
   40.4700   33.8850   40.5770 C   0  0  0  0  0  0  0  0  0  0  0  0
   42.8090   34.4380   39.9330 C   0  0  0  0  0  0  0  0  0  0  0  0
   43.6300   35.5380   41.9660 C   0  0  0  0  0  0  0  0  0  0  0  0
   43.8790   34.7230   40.8760 C   0  0  0  0  0  0  0  0  0  0  0  0
   45.1860   34.1980   40.7320 C   0  0  0  0  0  0  0  0  0  0  0  0
   46.1080   34.5430   41.6920 N   0  0  0  0  0  0  0  0  0  0  0  0
   45.8060   35.3310   42.7160 C   0  0  0  0  0  0  0  0  0  0  0  0
   44.5520   35.8630   42.8970 N   0  0  0  0  0  0  0  0  0  0  0  0
   39.9110   35.0610   39.8330 C   0  0  0  0  0  0  0  0  0  0  0  0
   40.2670   36.3440   40.6080 C   0  0  0  0  0  0  0  0  0  0  0  0
   40.4990   35.1090   38.4380 C   0  0  0  0  0  0  0  0  0  0  0  0
   43.1950   32.1762   41.3568 H   0  0  0  0  0  0  0  0  0  0  0  0
   41.5500   30.7537   42.4960 H   0  0  0  0  0  0  0  0  0  0  0  0
   39.1346   31.3806   42.3917 H   0  0  0  0  0  0  0  0  0  0  0  0
   38.4199   33.4198   41.1451 H   0  0  0  0  0  0  0  0  0  0  0  0
   43.2166   33.9104   39.0581 H   0  0  0  0  0  0  0  0  0  0  0  0
   42.3433   35.3763   39.5974 H   0  0  0  0  0  0  0  0  0  0  0  0
   42.6156   35.9474   42.0814 H   0  0  0  0  0  0  0  0  0  0  0  0
   45.4521   33.5430   39.8893 H   0  0  0  0  0  0  0  0  0  0  0  0
   46.5909   35.5679   43.4494 H   0  0  0  0  0  0  0  0  0  0  0  0
   38.8179   34.9725   39.7469 H   0  0  0  0  0  0  0  0  0  0  0  0
   40.2122   36.1466   41.6888 H   0  0  0  0  0  0  0  0  0  0  0  0
   41.2869   36.6606   40.3443 H   0  0  0  0  0  0  0  0  0  0  0  0
   39.5560   37.1409   40.3443 H   0  0  0  0  0  0  0  0  0  0  0  0
   41.5934   35.1983   38.5043 H   0  0  0  0  0  0  0  0  0  0  0  0
   40.2384   34.1866   37.8983 H   0  0  0  0  0  0  0  0  0  0  0  0
   40.0923   35.9769   37.8983 H   0  0  0  0  0  0  0  0  0  0  0  0
  1  2  2  0
  2  3  1  0
  4  3  2  0
  5  4  1  0
  6  1  1  0
  6  5  2  0
  7  1  1  0
  7  9  1  0
  8 13  2  0
  9  8  1  0
 10  9  2  0
 10 11  1  0
 11 12  2  0
 12 13  1  0
 14  6  1  0
 14 15  1  0
 16 14  1  0
  2 17  1  0
  3 18  1  0
  4 19  1  0
  5 20  1  0
  7 21  1  0
  7 22  1  0
  8 23  1  0
 10 24  1  0
 12 25  1  0
 14 26  1  0
 15 27  1  0
 15 28  1  0
 15 29  1  0
 16 30  1  0
 16 31  1  0
 16 32  1  0
M  ISO  8  17  14  18  14  19  14  20  14  21   8  22   8  23  14  24  14
M  ISO  8  25  14  26   8  27   8  28   8  29   8  30   8  31   8  32   8
M  END
>  <minimizedAffinity>  (1) 
-4.86829901

>  <minimizedRMSD>  (1) 
2.46467376

$$$$
