
     RDKit          3D

 25 26  0  0  0  0  0  0  0  0999 V2000
   42.4820   34.4340   41.3340 C   0  0  0  0  0  0  0  0  0  0  0  0
   42.4600   33.0620   41.2260 C   0  0  0  0  0  0  0  0  0  0  0  0
   41.2880   32.3120   41.1890 C   0  0  0  0  0  0  0  0  0  0  0  0
   40.0780   33.0010   41.2670 C   0  0  0  0  0  0  0  0  0  0  0  0
   40.0310   34.3760   41.3760 C   0  0  0  0  0  0  0  0  0  0  0  0
   41.2330   35.0330   41.4050 C   0  0  0  0  0  0  0  0  0  0  0  0
   43.7450   35.1730   41.3680 C   0  0  0  0  0  0  0  0  0  0  0  0
   44.0120   35.6660   43.7750 C   0  0  0  0  0  0  0  0  0  0  0  0
   44.3900   34.9330   42.6480 C   0  0  0  0  0  0  0  0  0  0  0  0
   45.4120   33.9580   42.7860 C   0  0  0  0  0  0  0  0  0  0  0  0
   45.9590   33.8070   44.0380 N   0  0  0  0  0  0  0  0  0  0  0  0
   45.5600   34.5340   45.0750 C   0  0  0  0  0  0  0  0  0  0  0  0
   44.5790   35.4840   44.9890 N   0  0  0  0  0  0  0  0  0  0  0  0
   41.1740   36.4530   41.5170 N   0  0  0  0  0  0  0  0  0  0  0  0
   43.4206   32.5294   41.1657 H   0  0  0  0  0  0  0  0  0  0  0  0
   41.3152   31.2158   41.1014 H   0  0  0  0  0  0  0  0  0  0  0  0
   39.1361   32.4335   41.2410 H   0  0  0  0  0  0  0  0  0  0  0  0
   39.0756   34.9178   41.4366 H   0  0  0  0  0  0  0  0  0  0  0  0
   44.3984   34.8272   40.5535 H   0  0  0  0  0  0  0  0  0  0  0  0
   43.5538   36.2487   41.2401 H   0  0  0  0  0  0  0  0  0  0  0  0
   43.2204   36.4226   43.6708 H   0  0  0  0  0  0  0  0  0  0  0  0
   45.7501   33.3524   41.9323 H   0  0  0  0  0  0  0  0  0  0  0  0
   46.0410   34.3645   46.0496 H   0  0  0  0  0  0  0  0  0  0  0  0
   40.2616   36.9278   41.5718 H   0  0  0  0  0  0  0  0  0  0  0  0
   42.0438   37.0041   41.5431 H   0  0  0  0  0  0  0  0  0  0  0  0
  1  7  1  0
  1  6  1  0
  2  1  2  0
  3  2  1  0
  3  4  2  0
  4  5  1  0
  5  6  2  0
  6 14  1  0
  7  9  1  0
  8 13  2  0
  9 10  2  0
  9  8  1  0
 10 11  1  0
 11 12  2  0
 13 12  1  0
  2 15  1  0
  3 16  1  0
  4 17  1  0
  5 18  1  0
  7 19  1  0
  7 20  1  0
  8 21  1  0
 10 22  1  0
 12 23  1  0
 14 24  1  0
 14 25  1  0
M  ISO  8  15  14  16  14  17  14  18  14  19   8  20   8  21  14  22  14
M  ISO  1  23  14
M  END
>  <minimizedAffinity>  (1) 
-4.06845236

>  <minimizedRMSD>  (1) 
0.802375197

$$$$
