
     RDKit          3D

 26 27  0  0  0  0  0  0  0  0999 V2000
   43.5270   34.6260   41.1530 C   0  0  0  0  0  0  0  0  0  0  0  0
   42.2200   33.9930   41.2410 C   0  0  0  0  0  0  0  0  0  0  0  0
   42.1110   32.6120   41.3690 C   0  0  0  0  0  0  0  0  0  0  0  0
   40.9150   31.9150   41.4640 C   0  0  0  0  0  0  0  0  0  0  0  0
   39.7450   32.6580   41.4250 C   0  0  0  0  0  0  0  0  0  0  0  0
   39.7730   34.0510   41.2970 C   0  0  0  0  0  0  0  0  0  0  0  0
   41.0170   34.6390   41.2130 C   0  0  0  0  0  0  0  0  0  0  0  0
   40.9450   36.1170   41.0750 C   0  0  0  0  0  0  0  0  0  0  0  0
   43.9610   35.7050   43.3540 C   0  0  0  0  0  0  0  0  0  0  0  0
   44.1310   34.6400   42.4890 C   0  0  0  0  0  0  0  0  0  0  0  0
   44.9150   33.5460   42.9360 C   0  0  0  0  0  0  0  0  0  0  0  0
   45.4440   33.6260   44.1860 N   0  0  0  0  0  0  0  0  0  0  0  0
   45.2410   34.6880   44.9770 C   0  0  0  0  0  0  0  0  0  0  0  0
   44.4900   35.7640   44.5780 N   0  0  0  0  0  0  0  0  0  0  0  0
   44.1680   34.0582   40.4625 H   0  0  0  0  0  0  0  0  0  0  0  0
   43.4218   35.6545   40.7774 H   0  0  0  0  0  0  0  0  0  0  0  0
   43.0432   32.0287   41.3970 H   0  0  0  0  0  0  0  0  0  0  0  0
   40.8959   30.8199   41.5659 H   0  0  0  0  0  0  0  0  0  0  0  0
   38.7760   32.1423   41.4961 H   0  0  0  0  0  0  0  0  0  0  0  0
   38.8490   34.6469   41.2650 H   0  0  0  0  0  0  0  0  0  0  0  0
   40.9226   36.5778   42.0736 H   0  0  0  0  0  0  0  0  0  0  0  0
   41.8267   36.4773   40.5246 H   0  0  0  0  0  0  0  0  0  0  0  0
   40.0325   36.3899   40.5246 H   0  0  0  0  0  0  0  0  0  0  0  0
   43.3527   36.5556   43.0127 H   0  0  0  0  0  0  0  0  0  0  0  0
   45.0882   32.6677   42.2969 H   0  0  0  0  0  0  0  0  0  0  0  0
   45.6919   34.6973   45.9803 H   0  0  0  0  0  0  0  0  0  0  0  0
  1  2  1  0
  1 10  1  0
  2  3  2  0
  3  4  1  0
  5  4  2  0
  6  5  1  0
  7  2  1  0
  7  6  2  0
  8  7  1  0
  9 14  2  0
 10 11  2  0
 10  9  1  0
 11 12  1  0
 12 13  2  0
 14 13  1  0
  1 15  1  0
  1 16  1  0
  3 17  1  0
  4 18  1  0
  5 19  1  0
  6 20  1  0
  8 21  1  0
  8 22  1  0
  8 23  1  0
  9 24  1  0
 11 25  1  0
 13 26  1  0
M  ISO  8  15   8  16   8  17  14  18  14  19  14  20  14  21   8  22   8
M  ISO  4  23   8  24  14  25  14  26  14
M  END
>  <minimizedAffinity>  (1) 
-4.04879332

>  <minimizedRMSD>  (1) 
1.00296283

$$$$
