
     RDKit          3D

 29 30  0  0  0  0  0  0  0  0999 V2000
   42.0080   33.4640   40.8850 C   0  0  0  0  0  0  0  0  0  0  0  0
   42.4350   32.2400   41.3900 C   0  0  0  0  0  0  0  0  0  0  0  0
   41.6360   31.3470   42.0580 C   0  0  0  0  0  0  0  0  0  0  0  0
   40.3080   31.7020   42.2350 C   0  0  0  0  0  0  0  0  0  0  0  0
   39.8090   32.8920   41.7660 C   0  0  0  0  0  0  0  0  0  0  0  0
   40.6840   33.7470   41.0990 C   0  0  0  0  0  0  0  0  0  0  0  0
   42.9270   34.3650   40.1820 C   0  0  0  0  0  0  0  0  0  0  0  0
   43.7750   35.5030   42.1830 C   0  0  0  0  0  0  0  0  0  0  0  0
   44.0290   34.7110   41.0780 C   0  0  0  0  0  0  0  0  0  0  0  0
   45.3590   34.2580   40.8570 C   0  0  0  0  0  0  0  0  0  0  0  0
   46.3000   34.6480   41.7740 N   0  0  0  0  0  0  0  0  0  0  0  0
   45.9850   35.4210   42.8310 C   0  0  0  0  0  0  0  0  0  0  0  0
   44.7290   35.8670   43.0640 N   0  0  0  0  0  0  0  0  0  0  0  0
   40.0850   35.0110   40.6040 C   0  0  0  0  0  0  0  0  0  0  0  0
   39.0420   34.7630   39.5020 C   0  0  0  0  0  0  0  0  0  0  0  0
   43.4907   31.9683   41.2429 H   0  0  0  0  0  0  0  0  0  0  0  0
   42.0314   30.3926   42.4360 H   0  0  0  0  0  0  0  0  0  0  0  0
   39.6357   31.0117   42.7655 H   0  0  0  0  0  0  0  0  0  0  0  0
   38.7526   33.1617   41.9121 H   0  0  0  0  0  0  0  0  0  0  0  0
   43.3228   33.8636   39.2865 H   0  0  0  0  0  0  0  0  0  0  0  0
   42.3938   35.2777   39.8774 H   0  0  0  0  0  0  0  0  0  0  0  0
   42.7457   35.8527   42.3513 H   0  0  0  0  0  0  0  0  0  0  0  0
   45.6191   33.6270   39.9943 H   0  0  0  0  0  0  0  0  0  0  0  0
   46.7826   35.7016   43.5346 H   0  0  0  0  0  0  0  0  0  0  0  0
   39.5972   35.5257   41.4449 H   0  0  0  0  0  0  0  0  0  0  0  0
   40.8919   35.6237   40.1756 H   0  0  0  0  0  0  0  0  0  0  0  0
   38.0701   34.5319   39.9624 H   0  0  0  0  0  0  0  0  0  0  0  0
   38.9471   35.6636   38.8776 H   0  0  0  0  0  0  0  0  0  0  0  0
   39.3626   33.9160   38.8776 H   0  0  0  0  0  0  0  0  0  0  0  0
  1  6  1  0
  1  2  2  0
  2  3  1  0
  3  4  2  0
  5  4  1  0
  6  5  2  0
  7  1  1  0
  7  9  1  0
  8 13  2  0
  9  8  1  0
 10  9  2  0
 10 11  1  0
 11 12  2  0
 12 13  1  0
 14  6  1  0
 15 14  1  0
  2 16  1  0
  3 17  1  0
  4 18  1  0
  5 19  1  0
  7 20  1  0
  7 21  1  0
  8 22  1  0
 10 23  1  0
 12 24  1  0
 14 25  1  0
 14 26  1  0
 15 27  1  0
 15 28  1  0
 15 29  1  0
M  ISO  8  16  14  17  14  18  14  19  14  20   8  21   8  22  14  23  14
M  ISO  6  24  14  25   8  26   8  27   8  28   8  29   8
M  END
>  <minimizedAffinity>  (1) 
-4.34283161

>  <minimizedRMSD>  (1) 
2.41670656

$$$$
