
     RDKit          3D

 42 44  0  0  0  0  0  0  0  0999 V2000
   42.0990   32.9560   41.2150 C   0  0  0  0  0  0  0  0  0  0  0  0
   42.7720   31.8410   41.6870 C   0  0  0  0  0  0  0  0  0  0  0  0
   42.2150   30.8220   42.4080 C   0  0  0  0  0  0  0  0  0  0  0  0
   40.8640   30.9160   42.6890 C   0  0  0  0  0  0  0  0  0  0  0  0
   40.1300   31.9860   42.2580 C   0  0  0  0  0  0  0  0  0  0  0  0
   40.7760   32.9940   41.5210 C   0  0  0  0  0  0  0  0  0  0  0  0
   42.7920   33.9760   40.4550 C   0  0  0  0  0  0  0  0  0  0  0  0
   43.6870   35.2890   42.3280 C   0  0  0  0  0  0  0  0  0  0  0  0
   43.9230   34.4860   41.2420 C   0  0  0  0  0  0  0  0  0  0  0  0
   45.2670   34.1560   40.8940 C   0  0  0  0  0  0  0  0  0  0  0  0
   46.2430   34.6870   41.7010 N   0  0  0  0  0  0  0  0  0  0  0  0
   45.9420   35.4720   42.7560 C   0  0  0  0  0  0  0  0  0  0  0  0
   44.6680   35.7920   43.0970 N   0  0  0  0  0  0  0  0  0  0  0  0
   39.9020   34.1080   41.1000 C   0  0  0  0  0  0  0  0  0  0  0  0
   38.7140   33.6280   40.2770 C   0  0  0  0  0  0  0  0  0  0  0  0
   39.1190   33.1340   39.0040 N   0  0  0  0  0  0  0  0  0  0  0  0
   38.8460   33.9540   37.8840 C   0  0  0  0  0  0  0  0  0  0  0  0
   37.7840   33.3790   36.9670 C   0  0  0  0  0  0  0  0  0  0  0  0
   38.0620   32.1030   36.5470 O   0  0  0  0  0  0  0  0  0  0  0  0
   38.7660   31.3000   37.3990 C   0  0  0  0  0  0  0  0  0  0  0  0
   38.8930   31.7380   38.8180 C   0  0  0  0  0  0  0  0  0  0  0  0
   43.8465   31.7695   41.4624 H   0  0  0  0  0  0  0  0  0  0  0  0
   42.8146   29.9653   42.7495 H   0  0  0  0  0  0  0  0  0  0  0  0
   40.3734   30.1191   43.2671 H   0  0  0  0  0  0  0  0  0  0  0  0
   39.0557   32.0567   42.4834 H   0  0  0  0  0  0  0  0  0  0  0  0
   43.1644   33.5436   39.5146 H   0  0  0  0  0  0  0  0  0  0  0  0
   42.0996   34.8004   40.2292 H   0  0  0  0  0  0  0  0  0  0  0  0
   42.6450   35.5333   42.5821 H   0  0  0  0  0  0  0  0  0  0  0  0
   45.5065   33.5156   40.0323 H   0  0  0  0  0  0  0  0  0  0  0  0
   46.7656   35.8703   43.3668 H   0  0  0  0  0  0  0  0  0  0  0  0
   39.5268   34.6223   41.9970 H   0  0  0  0  0  0  0  0  0  0  0  0
   40.4977   34.7849   40.4700 H   0  0  0  0  0  0  0  0  0  0  0  0
   38.2027   32.8231   40.8253 H   0  0  0  0  0  0  0  0  0  0  0  0
   38.0420   34.4835   40.1144 H   0  0  0  0  0  0  0  0  0  0  0  0
   38.5028   34.9350   38.2444 H   0  0  0  0  0  0  0  0  0  0  0  0
   39.7753   34.0300   37.3004 H   0  0  0  0  0  0  0  0  0  0  0  0
   36.8256   33.3678   37.5068 H   0  0  0  0  0  0  0  0  0  0  0  0
   37.7479   34.0161   36.0710 H   0  0  0  0  0  0  0  0  0  0  0  0
   38.2764   30.3149   37.4018 H   0  0  0  0  0  0  0  0  0  0  0  0
   39.7948   31.3163   37.0100 H   0  0  0  0  0  0  0  0  0  0  0  0
   37.9630   31.4710   39.3413 H   0  0  0  0  0  0  0  0  0  0  0  0
   39.7827   31.2286   39.2166 H   0  0  0  0  0  0  0  0  0  0  0  0
  1  6  1  0
  1  2  2  0
  2  3  1  0
  3  4  2  0
  5  4  1  0
  6  5  2  0
  7  1  1  0
  7  9  1  0
  8 13  2  0
  9  8  1  0
 10  9  2  0
 10 11  1  0
 11 12  2  0
 12 13  1  0
 14  6  1  0
 15 14  1  0
 16 15  1  0
 17 16  1  0
 18 17  1  0
 19 18  1  0
 19 20  1  0
 20 21  1  0
 21 16  1  0
  2 22  1  0
  3 23  1  0
  4 24  1  0
  5 25  1  0
  7 26  1  0
  7 27  1  0
  8 28  1  0
 10 29  1  0
 12 30  1  0
 14 31  1  0
 14 32  1  0
 15 33  1  0
 15 34  1  0
 17 35  1  0
 17 36  1  0
 18 37  1  0
 18 38  1  0
 20 39  1  0
 20 40  1  0
 21 41  1  0
 21 42  1  0
M  ISO  8  22  14  23  14  24  14  25  14  26   8  27   8  28  14  29  14
M  ISO  8  30  14  31   8  32   8  33   8  34   8  35  13  36  13  37  13
M  ISO  5  38  13  39  13  40  13  41  13  42  13
M  END
>  <minimizedAffinity>  (1) 
-4.52525282

>  <minimizedRMSD>  (1) 
0.952991247

$$$$
