
     RDKit          3D

 30 31  0  0  0  0  0  0  0  0999 V2000
   42.0170   33.4710   40.8760 C   0  0  0  0  0  0  0  0  0  0  0  0
   42.4460   32.2570   41.3890 C   0  0  0  0  0  0  0  0  0  0  0  0
   41.6450   31.3600   42.0620 C   0  0  0  0  0  0  0  0  0  0  0  0
   40.3080   31.7200   42.2280 C   0  0  0  0  0  0  0  0  0  0  0  0
   39.8100   32.9010   41.7500 C   0  0  0  0  0  0  0  0  0  0  0  0
   40.6890   33.7640   41.0740 C   0  0  0  0  0  0  0  0  0  0  0  0
   42.9550   34.3430   40.1750 C   0  0  0  0  0  0  0  0  0  0  0  0
   43.7780   35.4930   42.1770 C   0  0  0  0  0  0  0  0  0  0  0  0
   44.0500   34.7020   41.0840 C   0  0  0  0  0  0  0  0  0  0  0  0
   45.3840   34.2590   40.8770 C   0  0  0  0  0  0  0  0  0  0  0  0
   46.3140   34.6590   41.7930 N   0  0  0  0  0  0  0  0  0  0  0  0
   45.9790   35.4330   42.8390 C   0  0  0  0  0  0  0  0  0  0  0  0
   44.7280   35.8660   43.0580 N   0  0  0  0  0  0  0  0  0  0  0  0
   40.0940   35.0090   40.5890 C   0  0  0  0  0  0  0  0  0  0  0  0
   38.9840   34.7390   39.5450 C   0  0  0  0  0  0  0  0  0  0  0  0
   39.7280   34.4010   37.9270 S   0  0  0  0  0  0  0  0  0  0  0  0
   43.5038   31.9898   41.2486 H   0  0  0  0  0  0  0  0  0  0  0  0
   42.0400   30.4089   42.4484 H   0  0  0  0  0  0  0  0  0  0  0  0
   39.6331   31.0331   42.7597 H   0  0  0  0  0  0  0  0  0  0  0  0
   38.7521   33.1674   41.8908 H   0  0  0  0  0  0  0  0  0  0  0  0
   43.3616   33.8173   39.2984 H   0  0  0  0  0  0  0  0  0  0  0  0
   42.4358   35.2542   39.8430 H   0  0  0  0  0  0  0  0  0  0  0  0
   42.7448   35.8343   42.3381 H   0  0  0  0  0  0  0  0  0  0  0  0
   45.6544   33.6244   40.0202 H   0  0  0  0  0  0  0  0  0  0  0  0
   46.7669   35.7253   43.5488 H   0  0  0  0  0  0  0  0  0  0  0  0
   39.6589   35.5526   41.4406 H   0  0  0  0  0  0  0  0  0  0  0  0
   40.8838   35.6036   40.1066 H   0  0  0  0  0  0  0  0  0  0  0  0
   38.3891   33.8696   39.8617 H   0  0  0  0  0  0  0  0  0  0  0  0
   38.3362   35.6246   39.4679 H   0  0  0  0  0  0  0  0  0  0  0  0
   40.9651   33.8390   38.1017 H   0  0  0  0  0  0  0  0  0  0  0  0
  1  6  1  0
  1  2  2  0
  2  3  1  0
  3  4  2  0
  5  4  1  0
  6  5  2  0
  7  1  1  0
  7  9  1  0
  8 13  2  0
  9  8  1  0
 10  9  2  0
 10 11  1  0
 11 12  2  0
 12 13  1  0
 14  6  1  0
 15 14  1  0
 16 15  1  0
  2 17  1  0
  3 18  1  0
  4 19  1  0
  5 20  1  0
  7 21  1  0
  7 22  1  0
  8 23  1  0
 10 24  1  0
 12 25  1  0
 14 26  1  0
 14 27  1  0
 15 28  1  0
 15 29  1  0
 16 30  1  0
M  ISO  8  17  14  18  14  19  14  20  14  21   8  22   8  23  14  24  14
M  ISO  6  25  14  26   8  27   8  28   8  29   8  30  11
M  END
>  <minimizedAffinity>  (1) 
-4.32159662

>  <minimizedRMSD>  (1) 
0.1243717

$$$$
