
     RDKit          3D

 30 31  0  0  0  0  0  0  0  0999 V2000
   42.0060   33.4770   40.8790 C   0  0  0  0  0  0  0  0  0  0  0  0
   42.4390   32.2570   41.3780 C   0  0  0  0  0  0  0  0  0  0  0  0
   41.6430   31.3570   42.0490 C   0  0  0  0  0  0  0  0  0  0  0  0
   40.3090   31.7160   42.2280 C   0  0  0  0  0  0  0  0  0  0  0  0
   39.8010   32.9060   41.7640 C   0  0  0  0  0  0  0  0  0  0  0  0
   40.6800   33.7700   41.0890 C   0  0  0  0  0  0  0  0  0  0  0  0
   42.9370   34.3540   40.1790 C   0  0  0  0  0  0  0  0  0  0  0  0
   43.7810   35.4970   42.1830 C   0  0  0  0  0  0  0  0  0  0  0  0
   44.0370   34.7080   41.0850 C   0  0  0  0  0  0  0  0  0  0  0  0
   45.3710   34.2660   40.8740 C   0  0  0  0  0  0  0  0  0  0  0  0
   46.3010   34.6610   41.7840 N   0  0  0  0  0  0  0  0  0  0  0  0
   45.9810   35.4310   42.8330 C   0  0  0  0  0  0  0  0  0  0  0  0
   44.7290   35.8650   43.0600 N   0  0  0  0  0  0  0  0  0  0  0  0
   40.0830   35.0210   40.6200 C   0  0  0  0  0  0  0  0  0  0  0  0
   39.0470   34.7700   39.4980 C   0  0  0  0  0  0  0  0  0  0  0  0
   39.7400   34.6700   38.2690 O   0  0  0  0  0  0  0  0  0  0  0  0
   43.4952   31.9897   41.2263 H   0  0  0  0  0  0  0  0  0  0  0  0
   42.0400   30.4025   42.4249 H   0  0  0  0  0  0  0  0  0  0  0  0
   39.6392   31.0235   42.7588 H   0  0  0  0  0  0  0  0  0  0  0  0
   38.7446   33.1724   41.9156 H   0  0  0  0  0  0  0  0  0  0  0  0
   43.3392   33.8350   39.2964 H   0  0  0  0  0  0  0  0  0  0  0  0
   42.4148   35.2666   39.8558 H   0  0  0  0  0  0  0  0  0  0  0  0
   42.7503   35.8429   42.3503 H   0  0  0  0  0  0  0  0  0  0  0  0
   45.6388   33.6338   40.0146 H   0  0  0  0  0  0  0  0  0  0  0  0
   46.7752   35.7198   43.5372 H   0  0  0  0  0  0  0  0  0  0  0  0
   39.5820   35.5166   41.4646 H   0  0  0  0  0  0  0  0  0  0  0  0
   40.8849   35.6548   40.2135 H   0  0  0  0  0  0  0  0  0  0  0  0
   38.5035   33.8344   39.6959 H   0  0  0  0  0  0  0  0  0  0  0  0
   38.3225   35.5968   39.4588 H   0  0  0  0  0  0  0  0  0  0  0  0
   40.7044   34.5308   38.4443 H   0  0  0  0  0  0  0  0  0  0  0  0
  1  6  1  0
  1  2  2  0
  2  3  1  0
  3  4  2  0
  5  4  1  0
  6  5  2  0
  7  1  1  0
  7  9  1  0
  8 13  2  0
  9  8  1  0
 10  9  2  0
 10 11  1  0
 11 12  2  0
 12 13  1  0
 14  6  1  0
 15 14  1  0
 16 15  1  0
  2 17  1  0
  3 18  1  0
  4 19  1  0
  5 20  1  0
  7 21  1  0
  7 22  1  0
  8 23  1  0
 10 24  1  0
 12 25  1  0
 14 26  1  0
 14 27  1  0
 15 28  1  0
 15 29  1  0
 16 30  1  0
M  ISO  8  17  14  18  14  19  14  20  14  21   8  22   8  23  14  24  14
M  ISO  6  25  14  26   8  27   8  28   8  29   8  30   3
M  END
>  <minimizedAffinity>  (1) 
-4.24200726

>  <minimizedRMSD>  (1) 
0.137495339

$$$$
