
     RDKit          3D

 20 21  0  0  0  0  0  0  0  0999 V2000
   44.4940   36.0560   44.7810 C   0  0  0  0  0  0  0  0  0  0  0  0
   45.0610   35.8940   43.4950 C   0  0  0  0  0  0  0  0  0  0  0  0
   45.8200   34.7470   43.2660 C   0  0  0  0  0  0  0  0  0  0  0  0
   45.9810   33.8440   44.2730 N   0  0  0  0  0  0  0  0  0  0  0  0
   45.4200   34.0360   45.4940 C   0  0  0  0  0  0  0  0  0  0  0  0
   44.6810   35.1350   45.7470 N   0  0  0  0  0  0  0  0  0  0  0  0
   46.3900   34.5810   41.9740 N   0  0  0  0  0  0  0  0  0  0  0  0
   47.6600   35.0740   41.9410 C   0  0  0  0  0  0  0  0  0  0  0  0
   48.4250   35.0270   40.7890 C   0  0  0  0  0  0  0  0  0  0  0  0
   47.8480   34.4540   39.6570 C   0  0  0  0  0  0  0  0  0  0  0  0
   48.5140   34.3940   38.5910 O   0  0  0  0  0  0  0  0  0  0  0  0
   46.5960   33.9850   39.7500 N   0  0  0  0  0  0  0  0  0  0  0  0
   45.8640   34.0390   40.8790 C   0  0  0  0  0  0  0  0  0  0  0  0
   44.7000   33.6200   41.0220 O   0  0  0  0  0  0  0  0  0  0  0  0
   43.8897   36.9496   44.9963 H   0  0  0  0  0  0  0  0  0  0  0  0
   44.9088   36.6447   42.7055 H   0  0  0  0  0  0  0  0  0  0  0  0
   45.5699   33.2870   46.2855 H   0  0  0  0  0  0  0  0  0  0  0  0
   48.0870   35.5197   42.8515 H   0  0  0  0  0  0  0  0  0  0  0  0
   49.4496   35.4267   40.7674 H   0  0  0  0  0  0  0  0  0  0  0  0
   46.1710   33.5606   38.9133 H   0  0  0  0  0  0  0  0  0  0  0  0
  1  6  2  0
  2  1  1  0
  3  2  2  0
  3  4  1  0
  4  5  2  0
  5  6  1  0
  7  3  1  0
  8  7  1  0
  9  8  2  0
 10 12  1  0
 10  9  1  0
 11 10  2  0
 12 13  1  0
 13 14  2  0
 13  7  1  0
  1 15  1  0
  2 16  1  0
  5 17  1  0
  8 18  1  0
  9 19  1  0
 12 20  1  0
M  ISO  6  15  14  16  14  17  14  18  14  19  14  20   9
M  END
>  <minimizedAffinity>  (1) 
-4.93337965

>  <minimizedRMSD>  (1) 
0.777110636

$$$$
