
     RDKit          3D

 34 37  0  0  0  0  0  0  0  0999 V2000
   46.5070   34.5110   42.0310 N   0  0  0  0  0  0  0  0  0  0  0  0
   47.7040   35.1760   41.9690 C   0  0  0  0  0  0  0  0  0  0  0  0
   48.4660   35.1830   40.8220 C   0  0  0  0  0  0  0  0  0  0  0  0
   47.9720   34.4840   39.7170 C   0  0  0  0  0  0  0  0  0  0  0  0
   48.6440   34.4710   38.6560 O   0  0  0  0  0  0  0  0  0  0  0  0
   46.8040   33.8590   39.8410 N   0  0  0  0  0  0  0  0  0  0  0  0
   46.0690   33.8590   40.9670 C   0  0  0  0  0  0  0  0  0  0  0  0
   44.9800   33.2970   41.1360 O   0  0  0  0  0  0  0  0  0  0  0  0
   46.2720   33.1370   38.7320 C   0  0  0  0  0  0  0  0  0  0  0  0
   44.9130   33.1310   38.6940 N   0  0  0  0  0  0  0  0  0  0  0  0
   44.2440   32.4900   37.7050 C   0  0  0  0  0  0  0  0  0  0  0  0
   44.9360   31.8370   36.7280 N   0  0  0  0  0  0  0  0  0  0  0  0
   46.2820   31.8380   36.7600 C   0  0  0  0  0  0  0  0  0  0  0  0
   47.0200   31.1840   35.7820 C   0  0  0  0  0  0  0  0  0  0  0  0
   48.4060   31.2150   35.8600 C   0  0  0  0  0  0  0  0  0  0  0  0
   49.0820   31.8800   36.8850 C   0  0  0  0  0  0  0  0  0  0  0  0
   48.3570   32.5360   37.8650 C   0  0  0  0  0  0  0  0  0  0  0  0
   46.9900   32.4820   37.7540 C   0  0  0  0  0  0  0  0  0  0  0  0
   44.5140   35.8780   44.8230 C   0  0  0  0  0  0  0  0  0  0  0  0
   45.0920   35.7550   43.5310 C   0  0  0  0  0  0  0  0  0  0  0  0
   45.9130   34.6560   43.3250 C   0  0  0  0  0  0  0  0  0  0  0  0
   46.1280   33.7650   44.3340 N   0  0  0  0  0  0  0  0  0  0  0  0
   45.5530   33.9270   45.5500 C   0  0  0  0  0  0  0  0  0  0  0  0
   44.7480   34.9800   45.7940 N   0  0  0  0  0  0  0  0  0  0  0  0
   48.0644   35.7169   42.8565 H   0  0  0  0  0  0  0  0  0  0  0  0
   49.4261   35.7179   40.7771 H   0  0  0  0  0  0  0  0  0  0  0  0
   43.1441   32.4964   37.6903 H   0  0  0  0  0  0  0  0  0  0  0  0
   46.5163   30.6518   34.9616 H   0  0  0  0  0  0  0  0  0  0  0  0
   48.9924   30.6972   35.0867 H   0  0  0  0  0  0  0  0  0  0  0  0
   50.1816   31.8826   36.9135 H   0  0  0  0  0  0  0  0  0  0  0  0
   48.8504   33.0722   38.6891 H   0  0  0  0  0  0  0  0  0  0  0  0
   43.8557   36.7336   45.0342 H   0  0  0  0  0  0  0  0  0  0  0  0
   44.8989   36.4914   42.7370 H   0  0  0  0  0  0  0  0  0  0  0  0
   45.7450   33.1921   46.3457 H   0  0  0  0  0  0  0  0  0  0  0  0
  1 21  1  0
  2  1  1  0
  3  2  2  0
  4  6  1  0
  4  3  1  0
  5  4  2  0
  6  7  1  0
  7  8  2  0
  7  1  1  0
  9  6  1  0
 10  9  2  0
 11 10  1  0
 12 13  1  0
 12 11  2  0
 13 18  2  0
 14 15  2  0
 14 13  1  0
 15 16  1  0
 16 17  2  0
 18 17  1  0
 18  9  1  0
 19 24  2  0
 20 19  1  0
 21 20  2  0
 21 22  1  0
 22 23  2  0
 23 24  1  0
  2 25  1  0
  3 26  1  0
 11 27  1  0
 14 28  1  0
 15 29  1  0
 16 30  1  0
 17 31  1  0
 19 32  1  0
 20 33  1  0
 23 34  1  0
M  ISO  8  25  14  26  14  27  14  28  14  29  14  30  14  31  14  32  14
M  ISO  2  33  14  34  14
M  END
>  <minimizedAffinity>  (1) 
-6.19973707

>  <minimizedRMSD>  (1) 
0.399630964

$$$$
