
     RDKit          3D

 35 37  0  0  0  0  0  0  0  0999 V2000
   46.4310   34.4780   42.0340 N   0  0  0  0  0  0  0  0  0  0  0  0
   47.6500   35.1050   41.9550 C   0  0  0  0  0  0  0  0  0  0  0  0
   48.4010   35.0830   40.7940 C   0  0  0  0  0  0  0  0  0  0  0  0
   47.8730   34.3990   39.7050 C   0  0  0  0  0  0  0  0  0  0  0  0
   48.5280   34.3630   38.6390 O   0  0  0  0  0  0  0  0  0  0  0  0
   46.6810   33.8050   39.8390 N   0  0  0  0  0  0  0  0  0  0  0  0
   45.9650   33.8380   40.9760 C   0  0  0  0  0  0  0  0  0  0  0  0
   44.8600   33.3130   41.1530 O   0  0  0  0  0  0  0  0  0  0  0  0
   44.5060   35.9020   44.8390 C   0  0  0  0  0  0  0  0  0  0  0  0
   45.0630   35.7530   43.5440 C   0  0  0  0  0  0  0  0  0  0  0  0
   45.8590   34.6430   43.3270 C   0  0  0  0  0  0  0  0  0  0  0  0
   46.0770   33.7460   44.3380 N   0  0  0  0  0  0  0  0  0  0  0  0
   45.5250   33.9230   45.5650 C   0  0  0  0  0  0  0  0  0  0  0  0
   44.7400   35.0010   45.8130 N   0  0  0  0  0  0  0  0  0  0  0  0
   44.8950   32.5270   36.2370 N   0  0  0  0  0  0  0  0  0  0  0  0
   44.2330   32.1980   37.4880 C   0  0  0  0  0  0  0  0  0  0  0  0
   44.6310   33.2110   38.5760 C   0  0  0  0  0  0  0  0  0  0  0  0
   46.0930   33.0860   38.7490 C   0  0  0  0  0  0  0  0  0  0  0  0
   46.7590   33.3740   37.4390 C   0  0  0  0  0  0  0  0  0  0  0  0
   46.3090   32.2830   36.4610 C   0  0  0  0  0  0  0  0  0  0  0  0
   48.0383   35.6373   42.8359 H   0  0  0  0  0  0  0  0  0  0  0  0
   49.3771   35.5866   40.7346 H   0  0  0  0  0  0  0  0  0  0  0  0
   43.8686   36.7725   45.0534 H   0  0  0  0  0  0  0  0  0  0  0  0
   44.8708   36.4871   42.7476 H   0  0  0  0  0  0  0  0  0  0  0  0
   45.7150   33.1890   46.3620 H   0  0  0  0  0  0  0  0  0  0  0  0
   44.7355   33.5156   35.9960 H   0  0  0  0  0  0  0  0  0  0  0  0
   43.1431   32.2289   37.3426 H   0  0  0  0  0  0  0  0  0  0  0  0
   44.5386   31.1897   37.8041 H   0  0  0  0  0  0  0  0  0  0  0  0
   44.3716   34.2317   38.2584 H   0  0  0  0  0  0  0  0  0  0  0  0
   44.0999   33.0125   39.5186 H   0  0  0  0  0  0  0  0  0  0  0  0
   46.2722   32.0454   39.0572 H   0  0  0  0  0  0  0  0  0  0  0  0
   46.4530   34.3635   37.0686 H   0  0  0  0  0  0  0  0  0  0  0  0
   47.8537   33.3789   37.5467 H   0  0  0  0  0  0  0  0  0  0  0  0
   46.4630   31.2858   36.8990 H   0  0  0  0  0  0  0  0  0  0  0  0
   46.8832   32.3114   35.5232 H   0  0  0  0  0  0  0  0  0  0  0  0
  1 11  1  0
  2  1  1  0
  3  2  2  0
  4  6  1  0
  4  3  1  0
  5  4  2  0
  6  7  1  0
  7  8  2  0
  7  1  1  0
  9 14  2  0
 10  9  1  0
 11 10  2  0
 11 12  1  0
 12 13  2  0
 13 14  1  0
 15 20  1  0
 15 16  1  0
 16 17  1  0
 17 18  1  0
 18  6  1  0
 19 18  1  0
 20 19  1  0
  2 21  1  0
  3 22  1  0
  9 23  1  0
 10 24  1  0
 13 25  1  0
 15 26  1  0
 16 27  1  0
 16 28  1  0
 17 29  1  0
 17 30  1  0
 18 31  1  0
 19 32  1  0
 19 33  1  0
 20 34  1  0
 20 35  1  0
M  ISO  8  21  14  22  14  23  14  24  14  25  14  26   5  27  13  28  13
M  ISO  7  29  13  30  13  31  13  32  13  33  13  34  13  35  13
M  END
>  <minimizedAffinity>  (1) 
-5.65856504

>  <minimizedRMSD>  (1) 
0.293641746

$$$$
