
     RDKit          3D

 27 29  0  0  0  0  0  0  0  0999 V2000
   46.3960   34.4850   41.9380 N   0  0  0  0  0  0  0  0  0  0  0  0
   47.6800   34.9590   41.8940 C   0  0  0  0  0  0  0  0  0  0  0  0
   48.4230   34.9160   40.7340 C   0  0  0  0  0  0  0  0  0  0  0  0
   47.8180   34.3690   39.6030 C   0  0  0  0  0  0  0  0  0  0  0  0
   48.4770   34.3180   38.5310 O   0  0  0  0  0  0  0  0  0  0  0  0
   46.5600   33.9210   39.7040 N   0  0  0  0  0  0  0  0  0  0  0  0
   45.8570   33.9740   40.8450 C   0  0  0  0  0  0  0  0  0  0  0  0
   44.6910   33.5770   41.0020 O   0  0  0  0  0  0  0  0  0  0  0  0
   45.9200   33.3580   38.5630 C   0  0  0  0  0  0  0  0  0  0  0  0
   46.6750   33.0680   37.4320 C   0  0  0  0  0  0  0  0  0  0  0  0
   45.7700   32.5450   36.5250 C   0  0  0  0  0  0  0  0  0  0  0  0
   44.5290   32.5230   37.0880 N   0  0  0  0  0  0  0  0  0  0  0  0
   44.6280   33.0110   38.3050 N   0  0  0  0  0  0  0  0  0  0  0  0
   44.5300   35.9580   44.7630 C   0  0  0  0  0  0  0  0  0  0  0  0
   45.0770   35.7990   43.4650 C   0  0  0  0  0  0  0  0  0  0  0  0
   45.8430   34.6440   43.2480 C   0  0  0  0  0  0  0  0  0  0  0  0
   46.0280   33.7510   44.2450 N   0  0  0  0  0  0  0  0  0  0  0  0
   45.4840   33.9450   45.4740 C   0  0  0  0  0  0  0  0  0  0  0  0
   44.7390   35.0410   45.7320 N   0  0  0  0  0  0  0  0  0  0  0  0
   48.1282   35.3834   42.8045 H   0  0  0  0  0  0  0  0  0  0  0  0
   49.4538   35.2985   40.7016 H   0  0  0  0  0  0  0  0  0  0  0  0
   47.7550   33.2208   37.2894 H   0  0  0  0  0  0  0  0  0  0  0  0
   46.0140   32.2010   35.5091 H   0  0  0  0  0  0  0  0  0  0  0  0
   43.6660   32.1840   36.6394 H   0  0  0  0  0  0  0  0  0  0  0  0
   43.9223   36.8474   44.9857 H   0  0  0  0  0  0  0  0  0  0  0  0
   44.9098   36.5413   42.6707 H   0  0  0  0  0  0  0  0  0  0  0  0
   45.6520   33.2017   46.2673 H   0  0  0  0  0  0  0  0  0  0  0  0
  1 16  1  0
  2  1  1  0
  3  2  2  0
  4  6  1  0
  4  3  1  0
  5  4  2  0
  6  7  1  0
  7  8  2  0
  7  1  1  0
  9  6  1  0
 10  9  1  0
 11 12  1  0
 11 10  2  0
 12 13  1  0
 13  9  2  0
 14 19  2  0
 15 14  1  0
 16 15  2  0
 16 17  1  0
 17 18  2  0
 18 19  1  0
  2 20  1  0
  3 21  1  0
 10 22  1  0
 11 23  1  0
 12 24  1  0
 14 25  1  0
 15 26  1  0
 18 27  1  0
M  ISO  8  20  14  21  14  22  14  23  14  24   9  25  14  26  14  27  14
M  END
>  <minimizedAffinity>  (1) 
-5.59499073

>  <minimizedRMSD>  (1) 
0.0995012894

$$$$
