
     RDKit          3D

 27 29  0  0  0  0  0  0  0  0999 V2000
   46.3480   34.5020   41.9560 N   0  0  0  0  0  0  0  0  0  0  0  0
   47.6370   34.9560   41.9100 C   0  0  0  0  0  0  0  0  0  0  0  0
   48.3860   34.8790   40.7500 C   0  0  0  0  0  0  0  0  0  0  0  0
   47.7750   34.3200   39.6270 C   0  0  0  0  0  0  0  0  0  0  0  0
   48.4260   34.2330   38.5570 O   0  0  0  0  0  0  0  0  0  0  0  0
   46.5180   33.8950   39.7340 N   0  0  0  0  0  0  0  0  0  0  0  0
   45.8000   33.9760   40.8720 C   0  0  0  0  0  0  0  0  0  0  0  0
   44.6350   33.6020   41.0340 O   0  0  0  0  0  0  0  0  0  0  0  0
   44.3820   32.4940   37.2120 N   0  0  0  0  0  0  0  0  0  0  0  0
   44.5250   33.0450   38.4220 N   0  0  0  0  0  0  0  0  0  0  0  0
   45.8370   33.3120   38.6220 C   0  0  0  0  0  0  0  0  0  0  0  0
   46.5300   32.9060   37.4830 C   0  0  0  0  0  0  0  0  0  0  0  0
   45.5960   32.3900   36.5980 C   0  0  0  0  0  0  0  0  0  0  0  0
   44.4990   36.0280   44.7650 C   0  0  0  0  0  0  0  0  0  0  0  0
   45.0460   35.8490   43.4700 C   0  0  0  0  0  0  0  0  0  0  0  0
   45.7930   34.6930   43.2590 C   0  0  0  0  0  0  0  0  0  0  0  0
   45.9660   33.7970   44.2800 N   0  0  0  0  0  0  0  0  0  0  0  0
   45.4220   34.0140   45.5040 C   0  0  0  0  0  0  0  0  0  0  0  0
   44.6920   35.1260   45.7410 N   0  0  0  0  0  0  0  0  0  0  0  0
   48.0874   35.3914   42.8142 H   0  0  0  0  0  0  0  0  0  0  0  0
   49.4230   35.2442   40.7140 H   0  0  0  0  0  0  0  0  0  0  0  0
   43.4861   32.1921   36.8032 H   0  0  0  0  0  0  0  0  0  0  0  0
   47.6149   32.9810   37.3173 H   0  0  0  0  0  0  0  0  0  0  0  0
   45.7946   31.9778   35.5976 H   0  0  0  0  0  0  0  0  0  0  0  0
   43.9019   36.9275   44.9758 H   0  0  0  0  0  0  0  0  0  0  0  0
   44.8881   36.5875   42.6702 H   0  0  0  0  0  0  0  0  0  0  0  0
   45.5763   33.2799   46.3085 H   0  0  0  0  0  0  0  0  0  0  0  0
  1 16  1  0
  2  1  1  0
  3  2  2  0
  4  6  1  0
  4  3  1  0
  5  4  2  0
  6  7  1  0
  7  8  2  0
  7  1  1  0
  9 10  1  0
 10 11  2  0
 11  6  1  0
 12 11  1  0
 13  9  1  0
 13 12  2  0
 14 19  2  0
 15 14  1  0
 16 15  2  0
 16 17  1  0
 17 18  2  0
 18 19  1  0
  2 20  1  0
  3 21  1  0
  9 22  1  0
 12 23  1  0
 13 24  1  0
 14 25  1  0
 15 26  1  0
 18 27  1  0
M  ISO  8  20  14  21  14  22   9  23  14  24  14  25  14  26  14  27  14
M  END
>  <minimizedAffinity>  (1) 
-5.58157778

>  <minimizedRMSD>  (1) 
0.117913991

$$$$
