
     RDKit          3D

 25 27  0  0  0  0  0  0  0  0999 V2000
   46.4810   34.5070   42.0090 N   0  0  0  0  0  0  0  0  0  0  0  0
   47.6960   35.1340   41.9640 C   0  0  0  0  0  0  0  0  0  0  0  0
   48.4640   35.1200   40.8100 C   0  0  0  0  0  0  0  0  0  0  0  0
   47.9530   34.4390   39.6950 C   0  0  0  0  0  0  0  0  0  0  0  0
   48.6230   34.4070   38.6400 O   0  0  0  0  0  0  0  0  0  0  0  0
   46.7580   33.8500   39.8190 N   0  0  0  0  0  0  0  0  0  0  0  0
   46.0250   33.8740   40.9430 C   0  0  0  0  0  0  0  0  0  0  0  0
   44.9200   33.3480   41.1090 O   0  0  0  0  0  0  0  0  0  0  0  0
   46.2060   33.1490   38.7050 C   0  0  0  0  0  0  0  0  0  0  0  0
   45.3130   32.1510   38.7320 N   0  0  0  0  0  0  0  0  0  0  0  0
   45.0490   31.7660   37.5430 O   0  0  0  0  0  0  0  0  0  0  0  0
   45.7210   32.4540   36.6490 C   0  0  0  0  0  0  0  0  0  0  0  0
   46.4370   33.3110   37.4010 N   0  0  0  0  0  0  0  0  0  0  0  0
   44.5070   35.9350   44.7910 C   0  0  0  0  0  0  0  0  0  0  0  0
   45.0830   35.7970   43.4980 C   0  0  0  0  0  0  0  0  0  0  0  0
   45.8920   34.6670   43.3000 C   0  0  0  0  0  0  0  0  0  0  0  0
   46.0910   33.7710   44.3190 N   0  0  0  0  0  0  0  0  0  0  0  0
   45.5060   33.9710   45.5300 C   0  0  0  0  0  0  0  0  0  0  0  0
   44.7250   35.0340   45.7680 N   0  0  0  0  0  0  0  0  0  0  0  0
   48.0691   35.6571   42.8568 H   0  0  0  0  0  0  0  0  0  0  0  0
   49.4402   35.6253   40.7700 H   0  0  0  0  0  0  0  0  0  0  0  0
   45.7033   32.3545   35.5537 H   0  0  0  0  0  0  0  0  0  0  0  0
   43.8645   36.8032   44.9992 H   0  0  0  0  0  0  0  0  0  0  0  0
   44.9050   36.5327   42.6998 H   0  0  0  0  0  0  0  0  0  0  0  0
   45.6781   33.2416   46.3352 H   0  0  0  0  0  0  0  0  0  0  0  0
  1 16  1  0
  2  1  1  0
  3  2  2  0
  4  6  1  0
  4  3  1  0
  5  4  2  0
  6  7  1  0
  7  8  2  0
  7  1  1  0
  9 10  2  0
  9  6  1  0
 11 10  1  0
 12 13  2  0
 12 11  1  0
 13  9  1  0
 14 19  2  0
 15 14  1  0
 16 15  2  0
 16 17  1  0
 17 18  2  0
 18 19  1  0
  2 20  1  0
  3 21  1  0
 12 22  1  0
 14 23  1  0
 15 24  1  0
 18 25  1  0
M  ISO  6  20  14  21  14  22  14  23  14  24  14  25  14
M  END
>  <minimizedAffinity>  (1) 
-5.52143764

>  <minimizedRMSD>  (1) 
0.276682079

$$$$
