
     RDKit          3D

 28 30  0  0  0  0  0  0  0  0999 V2000
   46.4410   34.5130   42.0060 N   0  0  0  0  0  0  0  0  0  0  0  0
   47.6840   35.0850   41.9570 C   0  0  0  0  0  0  0  0  0  0  0  0
   48.4460   35.0630   40.8120 C   0  0  0  0  0  0  0  0  0  0  0  0
   47.9020   34.4300   39.6910 C   0  0  0  0  0  0  0  0  0  0  0  0
   48.5730   34.3930   38.6270 O   0  0  0  0  0  0  0  0  0  0  0  0
   46.6780   33.8870   39.7970 N   0  0  0  0  0  0  0  0  0  0  0  0
   45.9530   33.9220   40.9290 C   0  0  0  0  0  0  0  0  0  0  0  0
   44.8270   33.4400   41.0800 O   0  0  0  0  0  0  0  0  0  0  0  0
   44.5070   35.9460   44.8090 C   0  0  0  0  0  0  0  0  0  0  0  0
   45.0740   35.7960   43.5210 C   0  0  0  0  0  0  0  0  0  0  0  0
   45.8620   34.6730   43.3040 C   0  0  0  0  0  0  0  0  0  0  0  0
   46.0630   33.7700   44.3070 N   0  0  0  0  0  0  0  0  0  0  0  0
   45.4950   33.9590   45.5270 C   0  0  0  0  0  0  0  0  0  0  0  0
   44.7280   35.0330   45.7740 N   0  0  0  0  0  0  0  0  0  0  0  0
   46.1160   33.2400   38.6610 C   0  0  0  0  0  0  0  0  0  0  0  0
   46.8170   33.1350   37.4760 C   0  0  0  0  0  0  0  0  0  0  0  0
   46.3980   32.5420   36.3080 C   0  0  0  0  0  0  0  0  0  0  0  0
   45.1500   32.0130   36.3740 N   0  0  0  0  0  0  0  0  0  0  0  0
   44.4170   32.0840   37.5020 C   0  0  0  0  0  0  0  0  0  0  0  0
   44.8710   32.6820   38.6390 N   0  0  0  0  0  0  0  0  0  0  0  0
   48.0838   35.5751   42.8570 H   0  0  0  0  0  0  0  0  0  0  0  0
   49.4437   35.5252   40.7800 H   0  0  0  0  0  0  0  0  0  0  0  0
   43.8766   36.8211   45.0250 H   0  0  0  0  0  0  0  0  0  0  0  0
   44.8983   36.5363   42.7266 H   0  0  0  0  0  0  0  0  0  0  0  0
   45.6662   33.2208   46.3244 H   0  0  0  0  0  0  0  0  0  0  0  0
   47.8248   33.5756   37.4649 H   0  0  0  0  0  0  0  0  0  0  0  0
   47.0191   32.5002   35.4011 H   0  0  0  0  0  0  0  0  0  0  0  0
   43.4102   31.6408   37.5053 H   0  0  0  0  0  0  0  0  0  0  0  0
  1 11  1  0
  2  1  1  0
  3  2  2  0
  4  6  1  0
  4  3  1  0
  5  4  2  0
  6  7  1  0
  7  8  2  0
  7  1  1  0
  9 14  2  0
 10  9  1  0
 11 10  2  0
 11 12  1  0
 12 13  2  0
 13 14  1  0
 15  6  1  0
 16 15  2  0
 17 18  2  0
 17 16  1  0
 18 19  1  0
 19 20  2  0
 20 15  1  0
  2 21  1  0
  3 22  1  0
  9 23  1  0
 10 24  1  0
 13 25  1  0
 16 26  1  0
 17 27  1  0
 19 28  1  0
M  ISO  8  21  14  22  14  23  14  24  14  25  14  26  14  27  14  28  14
M  END
>  <minimizedAffinity>  (1) 
-5.42082739

>  <minimizedRMSD>  (1) 
0.172679573

$$$$
