
     RDKit          3D

 33 35  0  0  0  0  0  0  0  0999 V2000
   46.3900   34.4390   42.0170 N   0  0  0  0  0  0  0  0  0  0  0  0
   47.6020   35.0670   41.9110 C   0  0  0  0  0  0  0  0  0  0  0  0
   48.3430   35.0270   40.7490 C   0  0  0  0  0  0  0  0  0  0  0  0
   47.8080   34.3160   39.6740 C   0  0  0  0  0  0  0  0  0  0  0  0
   48.4650   34.2640   38.6000 O   0  0  0  0  0  0  0  0  0  0  0  0
   46.6230   33.7220   39.8270 N   0  0  0  0  0  0  0  0  0  0  0  0
   45.9250   33.7780   40.9690 C   0  0  0  0  0  0  0  0  0  0  0  0
   44.8200   33.2450   41.1660 O   0  0  0  0  0  0  0  0  0  0  0  0
   44.4980   35.9340   44.8050 C   0  0  0  0  0  0  0  0  0  0  0  0
   45.0510   35.7540   43.5130 C   0  0  0  0  0  0  0  0  0  0  0  0
   45.8300   34.6280   43.3120 C   0  0  0  0  0  0  0  0  0  0  0  0
   46.0430   33.7410   44.3350 N   0  0  0  0  0  0  0  0  0  0  0  0
   45.4840   33.9670   45.5550 C   0  0  0  0  0  0  0  0  0  0  0  0
   44.7190   35.0520   45.7910 N   0  0  0  0  0  0  0  0  0  0  0  0
   46.0800   33.0000   38.7350 C   0  0  0  0  0  0  0  0  0  0  0  0
   46.7280   33.1850   37.4050 C   0  0  0  0  0  0  0  0  0  0  0  0
   45.7160   32.5410   36.4480 C   0  0  0  0  0  0  0  0  0  0  0  0
   44.5400   32.1020   37.3290 C   0  0  0  0  0  0  0  0  0  0  0  0
   44.6360   33.2140   38.3930 C   0  0  0  0  0  0  0  0  0  0  0  0
   47.9956   35.6190   42.7773 H   0  0  0  0  0  0  0  0  0  0  0  0
   49.3159   35.5346   40.6725 H   0  0  0  0  0  0  0  0  0  0  0  0
   43.8732   36.8172   45.0039 H   0  0  0  0  0  0  0  0  0  0  0  0
   44.8691   36.4778   42.7049 H   0  0  0  0  0  0  0  0  0  0  0  0
   45.6604   33.2474   46.3680 H   0  0  0  0  0  0  0  0  0  0  0  0
   46.2651   32.0113   39.1803 H   0  0  0  0  0  0  0  0  0  0  0  0
   46.8678   34.2518   37.1762 H   0  0  0  0  0  0  0  0  0  0  0  0
   47.7330   32.7422   37.3423 H   0  0  0  0  0  0  0  0  0  0  0  0
   46.1635   31.6721   35.9433 H   0  0  0  0  0  0  0  0  0  0  0  0
   45.3972   33.2400   35.6608 H   0  0  0  0  0  0  0  0  0  0  0  0
   43.5829   32.1261   36.7874 H   0  0  0  0  0  0  0  0  0  0  0  0
   44.5811   31.0698   37.7069 H   0  0  0  0  0  0  0  0  0  0  0  0
   44.4439   34.2142   37.9775 H   0  0  0  0  0  0  0  0  0  0  0  0
   43.9170   33.1690   39.2243 H   0  0  0  0  0  0  0  0  0  0  0  0
  1 11  1  0
  2  1  1  0
  3  2  2  0
  4  6  1  0
  4  3  1  0
  5  4  2  0
  6  7  1  0
  7  8  2  0
  7  1  1  0
  9 14  2  0
 10  9  1  0
 11 10  2  0
 11 12  1  0
 12 13  2  0
 13 14  1  0
 15  6  1  0
 16 15  1  0
 17 18  1  0
 17 16  1  0
 18 19  1  0
 19 15  1  0
  2 20  1  0
  3 21  1  0
  9 22  1  0
 10 23  1  0
 13 24  1  0
 15 25  1  0
 16 26  1  0
 16 27  1  0
 17 28  1  0
 17 29  1  0
 18 30  1  0
 18 31  1  0
 19 32  1  0
 19 33  1  0
M  ISO  8  20  14  21  14  22  14  23  14  24  14  25  13  26  13  27  13
M  ISO  6  28  13  29  13  30  13  31  13  32  13  33  13
M  END
>  <minimizedAffinity>  (1) 
-5.34846735

>  <minimizedRMSD>  (1) 
0.325798988

$$$$
