
     RDKit          3D

 36 38  0  0  0  0  0  0  0  0999 V2000
   46.5200   34.4710   41.9610 N   0  0  0  0  0  0  0  0  0  0  0  0
   47.6980   35.1650   41.8760 C   0  0  0  0  0  0  0  0  0  0  0  0
   48.4640   35.1460   40.7330 C   0  0  0  0  0  0  0  0  0  0  0  0
   47.9960   34.3910   39.6580 C   0  0  0  0  0  0  0  0  0  0  0  0
   48.6780   34.3560   38.6010 O   0  0  0  0  0  0  0  0  0  0  0  0
   46.8310   33.7250   39.7910 N   0  0  0  0  0  0  0  0  0  0  0  0
   46.1060   33.7660   40.9250 C   0  0  0  0  0  0  0  0  0  0  0  0
   45.0330   33.1780   41.1060 O   0  0  0  0  0  0  0  0  0  0  0  0
   44.5220   35.9170   44.7070 C   0  0  0  0  0  0  0  0  0  0  0  0
   45.1070   35.7580   43.4220 C   0  0  0  0  0  0  0  0  0  0  0  0
   45.9190   34.6520   43.2450 C   0  0  0  0  0  0  0  0  0  0  0  0
   46.1270   33.7730   44.2770 N   0  0  0  0  0  0  0  0  0  0  0  0
   45.5440   33.9710   45.4870 C   0  0  0  0  0  0  0  0  0  0  0  0
   44.7430   35.0410   45.6980 N   0  0  0  0  0  0  0  0  0  0  0  0
   46.3110   32.9290   38.6950 C   0  0  0  0  0  0  0  0  0  0  0  0
   46.3220   33.5700   37.3550 C   0  0  0  0  0  0  0  0  0  0  0  0
   45.4530   32.6560   36.4740 C   0  0  0  0  0  0  0  0  0  0  0  0
   46.2170   31.3390   36.2960 C   0  0  0  0  0  0  0  0  0  0  0  0
   47.3450   31.1890   37.2690 C   0  0  0  0  0  0  0  0  0  0  0  0
   47.0040   31.5770   38.6720 C   0  0  0  0  0  0  0  0  0  0  0  0
   48.0396   35.7513   42.7418 H   0  0  0  0  0  0  0  0  0  0  0  0
   49.4093   35.7050   40.6697 H   0  0  0  0  0  0  0  0  0  0  0  0
   43.8697   36.7827   44.8942 H   0  0  0  0  0  0  0  0  0  0  0  0
   44.9238   36.4770   42.6100 H   0  0  0  0  0  0  0  0  0  0  0  0
   45.7243   33.2555   46.3028 H   0  0  0  0  0  0  0  0  0  0  0  0
   45.2379   32.8111   38.9063 H   0  0  0  0  0  0  0  0  0  0  0  0
   45.8924   34.5814   37.4059 H   0  0  0  0  0  0  0  0  0  0  0  0
   47.3414   33.6825   36.9573 H   0  0  0  0  0  0  0  0  0  0  0  0
   44.4865   32.4678   36.9643 H   0  0  0  0  0  0  0  0  0  0  0  0
   45.2537   33.1268   35.5000 H   0  0  0  0  0  0  0  0  0  0  0  0
   45.5159   30.5035   36.4386 H   0  0  0  0  0  0  0  0  0  0  0  0
   46.6489   31.3397   35.2843 H   0  0  0  0  0  0  0  0  0  0  0  0
   47.6609   30.1353   37.2702 H   0  0  0  0  0  0  0  0  0  0  0  0
   48.1396   31.8736   36.9375 H   0  0  0  0  0  0  0  0  0  0  0  0
   46.3344   30.8192   39.1049 H   0  0  0  0  0  0  0  0  0  0  0  0
   47.9318   31.6420   39.2594 H   0  0  0  0  0  0  0  0  0  0  0  0
  1 11  1  0
  2  1  1  0
  3  2  2  0
  4  6  1  0
  4  3  1  0
  5  4  2  0
  6  7  1  0
  7  8  2  0
  7  1  1  0
  9 14  2  0
 10  9  1  0
 11 10  2  0
 11 12  1  0
 12 13  2  0
 13 14  1  0
 15  6  1  0
 16 15  1  0
 17 16  1  0
 18 17  1  0
 18 19  1  0
 19 20  1  0
 20 15  1  0
  2 21  1  0
  3 22  1  0
  9 23  1  0
 10 24  1  0
 13 25  1  0
 15 26  1  0
 16 27  1  0
 16 28  1  0
 17 29  1  0
 17 30  1  0
 18 31  1  0
 18 32  1  0
 19 33  1  0
 19 34  1  0
 20 35  1  0
 20 36  1  0
M  ISO  8  21  14  22  14  23  14  24  14  25  14  26  13  27  13  28  13
M  ISO  8  29  13  30  13  31  13  32  13  33  13  34  13  35  13  36  13
M  END
>  <minimizedAffinity>  (1) 
-5.2648139

>  <minimizedRMSD>  (1) 
0.569455624

$$$$
