
     RDKit          3D

 29 31  0  0  0  0  0  0  0  0999 V2000
   46.4650   34.4010   41.9790 N   0  0  0  0  0  0  0  0  0  0  0  0
   47.6270   35.1160   41.8580 C   0  0  0  0  0  0  0  0  0  0  0  0
   48.3720   35.0830   40.7000 C   0  0  0  0  0  0  0  0  0  0  0  0
   47.9000   34.2940   39.6490 C   0  0  0  0  0  0  0  0  0  0  0  0
   48.5530   34.2410   38.5820 O   0  0  0  0  0  0  0  0  0  0  0  0
   46.7640   33.6240   39.8300 N   0  0  0  0  0  0  0  0  0  0  0  0
   46.0400   33.6620   40.9700 C   0  0  0  0  0  0  0  0  0  0  0  0
   44.9820   33.0670   41.2000 O   0  0  0  0  0  0  0  0  0  0  0  0
   44.5170   35.9190   44.7320 C   0  0  0  0  0  0  0  0  0  0  0  0
   45.0870   35.7270   43.4500 C   0  0  0  0  0  0  0  0  0  0  0  0
   45.8850   34.6040   43.2710 C   0  0  0  0  0  0  0  0  0  0  0  0
   46.0880   33.7410   44.3180 N   0  0  0  0  0  0  0  0  0  0  0  0
   45.5160   33.9760   45.5250 C   0  0  0  0  0  0  0  0  0  0  0  0
   44.7330   35.0580   45.7340 N   0  0  0  0  0  0  0  0  0  0  0  0
   46.2250   32.7960   38.7910 C   0  0  0  0  0  0  0  0  0  0  0  0
   45.3470   33.2000   37.7990 C   0  0  0  0  0  0  0  0  0  0  0  0
   44.9340   32.2570   36.8800 C   0  0  0  0  0  0  0  0  0  0  0  0
   45.3840   30.9630   36.9530 C   0  0  0  0  0  0  0  0  0  0  0  0
   46.2690   30.5920   37.9670 C   0  0  0  0  0  0  0  0  0  0  0  0
   46.6610   31.5240   38.8560 N   0  0  0  0  0  0  0  0  0  0  0  0
   47.9724   35.7294   42.7033 H   0  0  0  0  0  0  0  0  0  0  0  0
   49.3053   35.6576   40.6065 H   0  0  0  0  0  0  0  0  0  0  0  0
   43.8803   36.7984   44.9091 H   0  0  0  0  0  0  0  0  0  0  0  0
   44.9055   36.4374   42.6301 H   0  0  0  0  0  0  0  0  0  0  0  0
   45.6929   33.2715   46.3511 H   0  0  0  0  0  0  0  0  0  0  0  0
   44.9903   34.2392   37.7454 H   0  0  0  0  0  0  0  0  0  0  0  0
   44.2363   32.5460   36.0802 H   0  0  0  0  0  0  0  0  0  0  0  0
   45.0484   30.2199   36.2146 H   0  0  0  0  0  0  0  0  0  0  0  0
   46.6388   29.5585   38.0382 H   0  0  0  0  0  0  0  0  0  0  0  0
  1 11  1  0
  2  1  1  0
  3  2  2  0
  4  6  1  0
  4  3  1  0
  5  4  2  0
  6  7  1  0
  7  8  2  0
  7  1  1  0
  9 14  2  0
 10  9  1  0
 11 10  2  0
 11 12  1  0
 12 13  2  0
 13 14  1  0
 15 20  1  0
 15  6  1  0
 16 15  2  0
 17 18  2  0
 17 16  1  0
 18 19  1  0
 19 20  2  0
  2 21  1  0
  3 22  1  0
  9 23  1  0
 10 24  1  0
 13 25  1  0
 16 26  1  0
 17 27  1  0
 18 28  1  0
 19 29  1  0
M  ISO  8  21  14  22  14  23  14  24  14  25  14  26  14  27  14  28  14
M  ISO  1  29  14
M  END
>  <minimizedAffinity>  (1) 
-5.10760117

>  <minimizedRMSD>  (1) 
0.87900424

$$$$
