
     RDKit          3D

 23 24  0  0  0  0  0  0  0  0999 V2000
   46.4830   34.4990   42.0080 N   0  0  0  0  0  0  0  0  0  0  0  0
   47.6940   35.1380   41.9380 C   0  0  0  0  0  0  0  0  0  0  0  0
   48.4510   35.1260   40.7860 C   0  0  0  0  0  0  0  0  0  0  0  0
   47.9440   34.4380   39.6900 C   0  0  0  0  0  0  0  0  0  0  0  0
   48.6080   34.4070   38.6230 O   0  0  0  0  0  0  0  0  0  0  0  0
   46.7590   33.8350   39.8180 N   0  0  0  0  0  0  0  0  0  0  0  0
   46.0280   33.8540   40.9460 C   0  0  0  0  0  0  0  0  0  0  0  0
   44.9290   33.3150   41.1180 O   0  0  0  0  0  0  0  0  0  0  0  0
   44.5070   35.9330   44.7780 C   0  0  0  0  0  0  0  0  0  0  0  0
   45.0880   35.7730   43.5010 C   0  0  0  0  0  0  0  0  0  0  0  0
   45.8950   34.6580   43.3030 C   0  0  0  0  0  0  0  0  0  0  0  0
   46.0990   33.7730   44.3160 N   0  0  0  0  0  0  0  0  0  0  0  0
   45.5200   33.9650   45.5320 C   0  0  0  0  0  0  0  0  0  0  0  0
   44.7350   35.0320   45.7580 N   0  0  0  0  0  0  0  0  0  0  0  0
   46.1830   33.0990   38.6880 C   0  0  0  0  0  0  0  0  0  0  0  0
   46.4830   31.7640   38.7590 F   0  0  0  0  0  0  0  0  0  0  0  0
   44.8110   33.2240   38.6290 F   0  0  0  0  0  0  0  0  0  0  0  0
   46.6800   33.6150   37.4890 F   0  0  0  0  0  0  0  0  0  0  0  0
   48.0706   35.6731   42.8223 H   0  0  0  0  0  0  0  0  0  0  0  0
   49.4211   35.6422   40.7360 H   0  0  0  0  0  0  0  0  0  0  0  0
   43.8615   36.8012   44.9769 H   0  0  0  0  0  0  0  0  0  0  0  0
   44.9095   36.5007   42.6957 H   0  0  0  0  0  0  0  0  0  0  0  0
   45.6964   33.2388   46.3392 H   0  0  0  0  0  0  0  0  0  0  0  0
  1 11  1  0
  2  1  1  0
  3  2  2  0
  4  6  1  0
  4  3  1  0
  5  4  2  0
  6  7  1  0
  7  8  2  0
  7  1  1  0
  9 14  2  0
 10  9  1  0
 11 10  2  0
 11 12  1  0
 12 13  2  0
 13 14  1  0
 15 16  1  0
 15  6  1  0
 17 15  1  0
 18 15  1  0
  2 19  1  0
  3 20  1  0
  9 21  1  0
 10 22  1  0
 13 23  1  0
M  ISO  5  19  14  20  14  21  14  22  14  23  14
M  END
>  <minimizedAffinity>  (1) 
-5.08832359

>  <minimizedRMSD>  (1) 
0.357962072

$$$$
