
     RDKit          3D

 26 27  0  0  0  0  0  0  0  0999 V2000
   46.4720   34.4900   42.0220 N   0  0  0  0  0  0  0  0  0  0  0  0
   47.6760   35.1350   41.9500 C   0  0  0  0  0  0  0  0  0  0  0  0
   48.4320   35.1210   40.7970 C   0  0  0  0  0  0  0  0  0  0  0  0
   47.9260   34.4250   39.7040 C   0  0  0  0  0  0  0  0  0  0  0  0
   48.5830   34.3870   38.6330 O   0  0  0  0  0  0  0  0  0  0  0  0
   46.7460   33.8150   39.8330 N   0  0  0  0  0  0  0  0  0  0  0  0
   46.0160   33.8370   40.9680 C   0  0  0  0  0  0  0  0  0  0  0  0
   44.9230   33.2940   41.1450 O   0  0  0  0  0  0  0  0  0  0  0  0
   44.5010   35.9360   44.7950 C   0  0  0  0  0  0  0  0  0  0  0  0
   45.0810   35.7660   43.5250 C   0  0  0  0  0  0  0  0  0  0  0  0
   45.8860   34.6530   43.3190 C   0  0  0  0  0  0  0  0  0  0  0  0
   46.0890   33.7700   44.3360 N   0  0  0  0  0  0  0  0  0  0  0  0
   45.5140   33.9630   45.5520 C   0  0  0  0  0  0  0  0  0  0  0  0
   44.7240   35.0380   45.7820 N   0  0  0  0  0  0  0  0  0  0  0  0
   46.1630   33.0690   38.7200 C   0  0  0  0  0  0  0  0  0  0  0  0
   46.6490   31.6430   38.6880 C   0  0  0  0  0  0  0  0  0  0  0  0
   48.0494   35.6769   42.8314 H   0  0  0  0  0  0  0  0  0  0  0  0
   49.3998   35.6411   40.7434 H   0  0  0  0  0  0  0  0  0  0  0  0
   43.8593   36.8084   44.9878 H   0  0  0  0  0  0  0  0  0  0  0  0
   44.9024   36.4928   42.7189 H   0  0  0  0  0  0  0  0  0  0  0  0
   45.6926   33.2371   46.3590 H   0  0  0  0  0  0  0  0  0  0  0  0
   45.0680   33.0699   38.8252 H   0  0  0  0  0  0  0  0  0  0  0  0
   46.4700   33.5565   37.7829 H   0  0  0  0  0  0  0  0  0  0  0  0
   46.7744   31.2752   39.7171 H   0  0  0  0  0  0  0  0  0  0  0  0
   45.9136   31.0167   38.1618 H   0  0  0  0  0  0  0  0  0  0  0  0
   47.6138   31.5962   38.1618 H   0  0  0  0  0  0  0  0  0  0  0  0
  1 11  1  0
  2  1  1  0
  3  2  2  0
  4  6  1  0
  4  3  1  0
  5  4  2  0
  6  7  1  0
  7  8  2  0
  7  1  1  0
  9 14  2  0
 10  9  1  0
 11 10  2  0
 11 12  1  0
 12 13  2  0
 13 14  1  0
 15  6  1  0
 16 15  1  0
  2 17  1  0
  3 18  1  0
  9 19  1  0
 10 20  1  0
 13 21  1  0
 15 22  1  0
 15 23  1  0
 16 24  1  0
 16 25  1  0
 16 26  1  0
M  ISO  8  17  14  18  14  19  14  20  14  21  14  22   8  23   8  24   8
M  ISO  2  25   8  26   8
M  END
>  <minimizedAffinity>  (1) 
-4.72948647

>  <minimizedRMSD>  (1) 
0.275487632

$$$$
