
     RDKit          3D

 23 24  0  0  0  0  0  0  0  0999 V2000
   46.3950   34.4540   42.0160 N   0  0  0  0  0  0  0  0  0  0  0  0
   47.6130   35.0740   41.9350 C   0  0  0  0  0  0  0  0  0  0  0  0
   48.3640   35.0230   40.7760 C   0  0  0  0  0  0  0  0  0  0  0  0
   47.8330   34.3140   39.6890 C   0  0  0  0  0  0  0  0  0  0  0  0
   48.4940   34.2520   38.6250 O   0  0  0  0  0  0  0  0  0  0  0  0
   46.6410   33.7360   39.8430 N   0  0  0  0  0  0  0  0  0  0  0  0
   45.9220   33.7940   40.9760 C   0  0  0  0  0  0  0  0  0  0  0  0
   44.8180   33.2780   41.1700 O   0  0  0  0  0  0  0  0  0  0  0  0
   44.4870   35.9940   44.7830 C   0  0  0  0  0  0  0  0  0  0  0  0
   45.0500   35.7900   43.5090 C   0  0  0  0  0  0  0  0  0  0  0  0
   45.8250   34.6550   43.3130 C   0  0  0  0  0  0  0  0  0  0  0  0
   46.0120   33.7820   44.3460 N   0  0  0  0  0  0  0  0  0  0  0  0
   45.4470   34.0200   45.5610 C   0  0  0  0  0  0  0  0  0  0  0  0
   44.6940   35.1090   45.7830 N   0  0  0  0  0  0  0  0  0  0  0  0
   46.0660   32.9910   38.7260 C   0  0  0  0  0  0  0  0  0  0  0  0
   48.0002   35.6218   42.8068 H   0  0  0  0  0  0  0  0  0  0  0  0
   49.3427   35.5205   40.7087 H   0  0  0  0  0  0  0  0  0  0  0  0
   43.8701   36.8860   44.9670 H   0  0  0  0  0  0  0  0  0  0  0  0
   44.8809   36.5083   42.6933 H   0  0  0  0  0  0  0  0  0  0  0  0
   45.6110   33.3039   46.3797 H   0  0  0  0  0  0  0  0  0  0  0  0
   45.4371   32.1761   39.1138 H   0  0  0  0  0  0  0  0  0  0  0  0
   45.4529   33.6667   38.1115 H   0  0  0  0  0  0  0  0  0  0  0  0
   46.8750   32.5691   38.1115 H   0  0  0  0  0  0  0  0  0  0  0  0
  1 11  1  0
  2  1  1  0
  3  2  2  0
  4  6  1  0
  4  3  1  0
  5  4  2  0
  6  7  1  0
  7  8  2  0
  7  1  1  0
  9 14  2  0
 10  9  1  0
 11 10  2  0
 11 12  1  0
 12 13  2  0
 13 14  1  0
 15  6  1  0
  2 16  1  0
  3 17  1  0
  9 18  1  0
 10 19  1  0
 13 20  1  0
 15 21  1  0
 15 22  1  0
 15 23  1  0
M  ISO  8  16  14  17  14  18  14  19  14  20  14  21   8  22   8  23   8
M  END
>  <minimizedAffinity>  (1) 
-4.8759017

>  <minimizedRMSD>  (1) 
0.19870007

$$$$
