
     RDKit          3D

 37 40  0  0  0  0  0  0  0  0999 V2000
   45.0000   33.8050   41.7870 N   0  0  0  0  0  0  0  0  0  0  0  0
   46.2260   34.1150   41.2420 C   0  0  0  0  0  0  0  0  0  0  0  0
   46.5180   33.7930   39.9310 C   0  0  0  0  0  0  0  0  0  0  0  0
   45.5420   33.1490   39.1840 C   0  0  0  0  0  0  0  0  0  0  0  0
   45.7710   32.8400   38.0010 O   0  0  0  0  0  0  0  0  0  0  0  0
   44.3870   32.8800   39.7690 N   0  0  0  0  0  0  0  0  0  0  0  0
   44.0910   33.1920   41.0520 C   0  0  0  0  0  0  0  0  0  0  0  0
   43.0510   32.9770   41.6610 O   0  0  0  0  0  0  0  0  0  0  0  0
   44.4380   35.9400   44.7490 C   0  0  0  0  0  0  0  0  0  0  0  0
   44.4810   35.5190   43.4060 C   0  0  0  0  0  0  0  0  0  0  0  0
   44.9530   34.2420   43.1500 C   0  0  0  0  0  0  0  0  0  0  0  0
   45.3540   33.4550   44.1910 N   0  0  0  0  0  0  0  0  0  0  0  0
   45.2940   33.9100   45.4720 C   0  0  0  0  0  0  0  0  0  0  0  0
   44.8430   35.1330   45.7510 N   0  0  0  0  0  0  0  0  0  0  0  0
   43.3040   32.2150   39.0310 C   0  0  0  0  0  0  0  0  0  0  0  0
   42.2150   33.0830   38.6220 C   0  0  0  0  0  0  0  0  0  0  0  0
   42.5600   34.4150   38.3230 C   0  0  0  0  0  0  0  0  0  0  0  0
   41.4930   35.1300   37.9270 N   0  0  0  0  0  0  0  0  0  0  0  0
   40.4090   34.3360   37.9420 C   0  0  0  0  0  0  0  0  0  0  0  0
   39.0570   34.4200   37.6730 C   0  0  0  0  0  0  0  0  0  0  0  0
   38.2250   33.3300   37.8240 C   0  0  0  0  0  0  0  0  0  0  0  0
   38.7080   32.0900   38.2550 C   0  0  0  0  0  0  0  0  0  0  0  0
   40.0560   32.0110   38.5220 C   0  0  0  0  0  0  0  0  0  0  0  0
   40.8690   33.1080   38.3650 C   0  0  0  0  0  0  0  0  0  0  0  0
   46.9815   34.6249   41.8578 H   0  0  0  0  0  0  0  0  0  0  0  0
   47.4958   34.0399   39.4919 H   0  0  0  0  0  0  0  0  0  0  0  0
   44.0664   36.9479   44.9859 H   0  0  0  0  0  0  0  0  0  0  0  0
   44.1520   36.1797   42.5903 H   0  0  0  0  0  0  0  0  0  0  0  0
   45.6239   33.2563   46.2928 H   0  0  0  0  0  0  0  0  0  0  0  0
   43.7361   31.7612   38.1270 H   0  0  0  0  0  0  0  0  0  0  0  0
   42.8671   31.4805   39.7235 H   0  0  0  0  0  0  0  0  0  0  0  0
   43.5791   34.8211   38.4037 H   0  0  0  0  0  0  0  0  0  0  0  0
   41.5044   36.1237   37.6564 H   0  0  0  0  0  0  0  0  0  0  0  0
   38.6346   35.3764   37.3311 H   0  0  0  0  0  0  0  0  0  0  0  0
   37.1537   33.4388   37.5996 H   0  0  0  0  0  0  0  0  0  0  0  0
   38.0437   31.2214   38.3746 H   0  0  0  0  0  0  0  0  0  0  0  0
   40.4875   31.0591   38.8649 H   0  0  0  0  0  0  0  0  0  0  0  0
  1 11  1  0
  2  1  1  0
  3  2  2  0
  4  6  1  0
  4  3  1  0
  5  4  2  0
  6  7  1  0
  7  8  2  0
  7  1  1  0
  9 14  2  0
 10  9  1  0
 11 10  2  0
 11 12  1  0
 12 13  2  0
 13 14  1  0
 15  6  1  0
 16 15  1  0
 17 16  2  0
 18 19  1  0
 18 17  1  0
 19 24  2  0
 20 21  2  0
 20 19  1  0
 21 22  1  0
 22 23  2  0
 24 23  1  0
 24 16  1  0
  2 25  1  0
  3 26  1  0
  9 27  1  0
 10 28  1  0
 13 29  1  0
 15 30  1  0
 15 31  1  0
 17 32  1  0
 18 33  1  0
 20 34  1  0
 21 35  1  0
 22 36  1  0
 23 37  1  0
M  ISO  8  25  14  26  14  27  14  28  14  29  14  30   8  31   8  32  14
M  ISO  5  33   9  34  14  35  14  36  14  37  14
M  END
>  <minimizedAffinity>  (1) 
-6.19142151

>  <minimizedRMSD>  (1) 
2.51259565

$$$$
