
     RDKit          3D

 30 31  0  0  0  0  0  0  0  0999 V2000
   46.5430   34.4430   42.0220 N   0  0  0  0  0  0  0  0  0  0  0  0
   47.6770   35.2150   41.9290 C   0  0  0  0  0  0  0  0  0  0  0  0
   48.4410   35.2170   40.7750 C   0  0  0  0  0  0  0  0  0  0  0  0
   48.0180   34.4100   39.7150 C   0  0  0  0  0  0  0  0  0  0  0  0
   48.6880   34.3900   38.6550 O   0  0  0  0  0  0  0  0  0  0  0  0
   46.8980   33.6840   39.8790 N   0  0  0  0  0  0  0  0  0  0  0  0
   46.1760   33.6990   41.0070 C   0  0  0  0  0  0  0  0  0  0  0  0
   45.1370   33.0480   41.2200 O   0  0  0  0  0  0  0  0  0  0  0  0
   44.4960   35.9220   44.7180 C   0  0  0  0  0  0  0  0  0  0  0  0
   45.1010   35.7350   43.4610 C   0  0  0  0  0  0  0  0  0  0  0  0
   45.9330   34.6220   43.3090 C   0  0  0  0  0  0  0  0  0  0  0  0
   46.1290   33.7760   44.3490 N   0  0  0  0  0  0  0  0  0  0  0  0
   45.5290   33.9900   45.5410 C   0  0  0  0  0  0  0  0  0  0  0  0
   44.7160   35.0530   45.7380 N   0  0  0  0  0  0  0  0  0  0  0  0
   46.4550   32.8350   38.7980 C   0  0  0  0  0  0  0  0  0  0  0  0
   46.2630   33.4780   37.5410 N   0  0  0  0  0  0  0  0  0  0  0  0
   45.0720   33.4940   36.7680 C   0  0  0  0  0  0  0  0  0  0  0  0
   44.0220   33.8010   37.4610 N   0  0  0  0  0  0  0  0  0  0  0  0
   45.1350   33.1890   35.3590 N   0  0  0  0  0  0  0  0  0  0  0  0
   43.0720   33.8550   37.0440 H   0  0  0  0  0  0  0  0  0  0  0  0
   47.9808   35.8389   42.7825 H   0  0  0  0  0  0  0  0  0  0  0  0
   49.3494   35.8322   40.6948 H   0  0  0  0  0  0  0  0  0  0  0  0
   43.8342   36.7862   44.8767 H   0  0  0  0  0  0  0  0  0  0  0  0
   44.9262   36.4363   42.6318 H   0  0  0  0  0  0  0  0  0  0  0  0
   45.7053   33.2857   46.3674 H   0  0  0  0  0  0  0  0  0  0  0  0
   47.2070   32.0440   38.6607 H   0  0  0  0  0  0  0  0  0  0  0  0
   45.4636   32.4642   39.0975 H   0  0  0  0  0  0  0  0  0  0  0  0
   47.0720   33.9836   37.1528 H   0  0  0  0  0  0  0  0  0  0  0  0
   46.0387   32.9582   34.9219 H   0  0  0  0  0  0  0  0  0  0  0  0
   44.2763   33.2021   34.7903 H   0  0  0  0  0  0  0  0  0  0  0  0
  1 11  1  0
  2  1  1  0
  3  2  2  0
  4  6  1  0
  4  3  1  0
  5  4  2  0
  6  7  1  0
  7  8  2  0
  7  1  1  0
  9 14  2  0
 10  9  1  0
 11 10  2  0
 11 12  1  0
 12 13  2  0
 13 14  1  0
 15  6  1  0
 16 15  1  0
 17 18  2  0
 17 16  1  0
 19 17  1  0
 20 18  1  0
  2 21  1  0
  3 22  1  0
  9 23  1  0
 10 24  1  0
 13 25  1  0
 15 26  1  0
 15 27  1  0
 16 28  1  0
 19 29  1  0
 19 30  1  0
M  ISO  7  21  14  22  14  23  14  24  14  25  14  26   8  27   8
M  END
>  <minimizedAffinity>  (1) 
-5.8304553

>  <minimizedRMSD>  (1) 
0.825647175

$$$$
