
     RDKit          3D

 39 42  0  0  0  0  0  0  0  0999 V2000
   46.5330   34.5150   42.0130 N   0  0  0  0  0  0  0  0  0  0  0  0
   47.7190   35.2140   41.9710 C   0  0  0  0  0  0  0  0  0  0  0  0
   48.4800   35.2450   40.8030 C   0  0  0  0  0  0  0  0  0  0  0  0
   48.0010   34.5510   39.6990 C   0  0  0  0  0  0  0  0  0  0  0  0
   48.6790   34.5860   38.6570 O   0  0  0  0  0  0  0  0  0  0  0  0
   46.8370   33.8830   39.8010 N   0  0  0  0  0  0  0  0  0  0  0  0
   46.1240   33.8760   40.9430 C   0  0  0  0  0  0  0  0  0  0  0  0
   45.0500   33.2970   41.1150 O   0  0  0  0  0  0  0  0  0  0  0  0
   44.5250   35.8470   44.8130 C   0  0  0  0  0  0  0  0  0  0  0  0
   45.1050   35.7280   43.5330 C   0  0  0  0  0  0  0  0  0  0  0  0
   45.9440   34.6340   43.3050 C   0  0  0  0  0  0  0  0  0  0  0  0
   46.1800   33.7210   44.3080 N   0  0  0  0  0  0  0  0  0  0  0  0
   45.5890   33.8930   45.5250 C   0  0  0  0  0  0  0  0  0  0  0  0
   44.7700   34.9400   45.7790 N   0  0  0  0  0  0  0  0  0  0  0  0
   46.3220   33.1180   38.6850 C   0  0  0  0  0  0  0  0  0  0  0  0
   47.1130   31.9780   38.2200 C   0  0  0  0  0  0  0  0  0  0  0  0
   47.3240   31.0070   39.2230 C   0  0  0  0  0  0  0  0  0  0  0  0
   48.1100   29.8600   39.0570 C   0  0  0  0  0  0  0  0  0  0  0  0
   48.7420   29.6260   37.8350 C   0  0  0  0  0  0  0  0  0  0  0  0
   48.5630   30.5430   36.8210 C   0  0  0  0  0  0  0  0  0  0  0  0
   49.1170   30.3690   35.5720 C   0  0  0  0  0  0  0  0  0  0  0  0
   48.9210   31.2420   34.5330 C   0  0  0  0  0  0  0  0  0  0  0  0
   48.1170   32.3460   34.7900 C   0  0  0  0  0  0  0  0  0  0  0  0
   47.5780   32.4990   36.0420 C   0  0  0  0  0  0  0  0  0  0  0  0
   47.7750   31.6320   37.0840 C   0  0  0  0  0  0  0  0  0  0  0  0
   48.0683   35.7515   42.8650 H   0  0  0  0  0  0  0  0  0  0  0  0
   49.4283   35.8006   40.7573 H   0  0  0  0  0  0  0  0  0  0  0  0
   43.8598   36.6966   45.0269 H   0  0  0  0  0  0  0  0  0  0  0  0
   44.9046   36.4681   42.7442 H   0  0  0  0  0  0  0  0  0  0  0  0
   45.7834   33.1604   46.3222 H   0  0  0  0  0  0  0  0  0  0  0  0
   45.3334   32.7346   38.9777 H   0  0  0  0  0  0  0  0  0  0  0  0
   46.3249   33.8221   37.8399 H   0  0  0  0  0  0  0  0  0  0  0  0
   46.8394   31.1615   40.1983 H   0  0  0  0  0  0  0  0  0  0  0  0
   48.2287   29.1468   39.8860 H   0  0  0  0  0  0  0  0  0  0  0  0
   49.3667   28.7332   37.6846 H   0  0  0  0  0  0  0  0  0  0  0  0
   49.7485   29.4851   35.3993 H   0  0  0  0  0  0  0  0  0  0  0  0
   49.3772   31.0768   33.5458 H   0  0  0  0  0  0  0  0  0  0  0  0
   47.9159   33.0860   34.0013 H   0  0  0  0  0  0  0  0  0  0  0  0
   46.9433   33.3793   36.2218 H   0  0  0  0  0  0  0  0  0  0  0  0
  1 11  1  0
  2  1  1  0
  3  2  2  0
  4  6  1  0
  4  3  1  0
  5  4  2  0
  6  7  1  0
  7  8  2  0
  7  1  1  0
  9 14  2  0
 10  9  1  0
 11 10  2  0
 11 12  1  0
 12 13  2  0
 13 14  1  0
 15  6  1  0
 16 15  1  0
 16 17  2  0
 18 17  1  0
 19 18  2  0
 20 25  2  0
 20 19  1  0
 21 20  1  0
 22 23  1  0
 22 21  2  0
 23 24  2  0
 24 25  1  0
 25 16  1  0
  2 26  1  0
  3 27  1  0
  9 28  1  0
 10 29  1  0
 13 30  1  0
 15 31  1  0
 15 32  1  0
 17 33  1  0
 18 34  1  0
 19 35  1  0
 21 36  1  0
 22 37  1  0
 23 38  1  0
 24 39  1  0
M  ISO  8  26  14  27  14  28  14  29  14  30  14  31   8  32   8  33  14
M  ISO  6  34  14  35  14  36  14  37  14  38  14  39  14
M  END
>  <minimizedAffinity>  (1) 
-5.45217419

>  <minimizedRMSD>  (1) 
1.91811192

$$$$
