
     RDKit          3D

 37 40  0  0  0  0  0  0  0  0999 V2000
   45.3280   33.8020   41.9230 N   0  0  0  0  0  0  0  0  0  0  0  0
   46.5080   34.3020   41.4200 C   0  0  0  0  0  0  0  0  0  0  0  0
   46.8920   34.0310   40.1220 C   0  0  0  0  0  0  0  0  0  0  0  0
   46.0410   33.2330   39.3440 C   0  0  0  0  0  0  0  0  0  0  0  0
   46.3680   32.9750   38.1700 O   0  0  0  0  0  0  0  0  0  0  0  0
   44.9090   32.7820   39.9010 N   0  0  0  0  0  0  0  0  0  0  0  0
   44.5540   33.0590   41.1680 C   0  0  0  0  0  0  0  0  0  0  0  0
   43.5400   32.6800   41.7390 O   0  0  0  0  0  0  0  0  0  0  0  0
   44.4340   35.9310   44.8170 C   0  0  0  0  0  0  0  0  0  0  0  0
   44.6070   35.4920   43.4920 C   0  0  0  0  0  0  0  0  0  0  0  0
   45.1610   34.2260   43.2850 C   0  0  0  0  0  0  0  0  0  0  0  0
   45.5120   33.4650   44.3490 N   0  0  0  0  0  0  0  0  0  0  0  0
   45.3260   33.9310   45.6160 C   0  0  0  0  0  0  0  0  0  0  0  0
   44.7970   35.1410   45.8550 N   0  0  0  0  0  0  0  0  0  0  0  0
   43.9970   31.9580   39.1230 C   0  0  0  0  0  0  0  0  0  0  0  0
   42.8550   32.7650   38.7680 N   0  0  0  0  0  0  0  0  0  0  0  0
   42.9720   34.1020   38.5110 C   0  0  0  0  0  0  0  0  0  0  0  0
   41.7640   34.6300   38.2000 N   0  0  0  0  0  0  0  0  0  0  0  0
   40.8360   33.6640   38.2450 C   0  0  0  0  0  0  0  0  0  0  0  0
   39.4830   33.5120   38.0520 C   0  0  0  0  0  0  0  0  0  0  0  0
   38.8350   34.5410   37.7310 O   0  0  0  0  0  0  0  0  0  0  0  0
   38.8320   32.3400   38.1880 N   0  0  0  0  0  0  0  0  0  0  0  0
   39.5670   31.2440   38.5370 C   0  0  0  0  0  0  0  0  0  0  0  0
   38.8460   30.0180   38.6720 N   0  0  0  0  0  0  0  0  0  0  0  0
   40.8920   31.3680   38.7310 N   0  0  0  0  0  0  0  0  0  0  0  0
   41.5430   32.5360   38.5960 C   0  0  0  0  0  0  0  0  0  0  0  0
   47.1517   34.9241   42.0592 H   0  0  0  0  0  0  0  0  0  0  0  0
   47.8328   34.4273   39.7123 H   0  0  0  0  0  0  0  0  0  0  0  0
   44.0007   36.9232   45.0114 H   0  0  0  0  0  0  0  0  0  0  0  0
   44.3145   36.1272   42.6429 H   0  0  0  0  0  0  0  0  0  0  0  0
   45.6176   33.2976   46.4667 H   0  0  0  0  0  0  0  0  0  0  0  0
   44.5005   31.6032   38.2116 H   0  0  0  0  0  0  0  0  0  0  0  0
   43.6781   31.0842   39.7102 H   0  0  0  0  0  0  0  0  0  0  0  0
   43.9137   34.6691   38.5510 H   0  0  0  0  0  0  0  0  0  0  0  0
   37.8157   32.2735   38.0341 H   0  0  0  0  0  0  0  0  0  0  0  0
   39.3429   29.1544   38.9334 H   0  0  0  0  0  0  0  0  0  0  0  0
   37.8293   29.9977   38.5080 H   0  0  0  0  0  0  0  0  0  0  0  0
  1 11  1  0
  2  1  1  0
  3  2  2  0
  4  6  1  0
  4  3  1  0
  5  4  2  0
  6  7  1  0
  7  8  2  0
  7  1  1  0
  9 14  2  0
 10  9  1  0
 11 10  2  0
 11 12  1  0
 12 13  2  0
 13 14  1  0
 15  6  1  0
 16 15  1  0
 17 16  1  0
 18 19  1  0
 18 17  2  0
 19 26  2  0
 20 22  1  0
 20 19  1  0
 21 20  2  0
 22 23  1  0
 23 24  1  0
 23 25  2  0
 26 25  1  0
 26 16  1  0
  2 27  1  0
  3 28  1  0
  9 29  1  0
 10 30  1  0
 13 31  1  0
 15 32  1  0
 15 33  1  0
 17 34  1  0
 22 35  1  0
 24 36  1  0
 24 37  1  0
M  ISO  8  27  14  28  14  29  14  30  14  31  14  32   8  33   8  34  14
M  ISO  1  35   9
M  END
>  <minimizedAffinity>  (1) 
-5.44472599

>  <minimizedRMSD>  (1) 
2.61504412

$$$$
