
     RDKit          3D

 29 31  0  0  0  0  0  0  0  0999 V2000
   46.4970   34.4820   42.0060 N   0  0  0  0  0  0  0  0  0  0  0  0
   47.7000   35.1480   41.9500 C   0  0  0  0  0  0  0  0  0  0  0  0
   48.4640   35.1640   40.8040 C   0  0  0  0  0  0  0  0  0  0  0  0
   47.9590   34.4680   39.6910 C   0  0  0  0  0  0  0  0  0  0  0  0
   48.6290   34.4630   38.6340 O   0  0  0  0  0  0  0  0  0  0  0  0
   46.7800   33.8410   39.8170 N   0  0  0  0  0  0  0  0  0  0  0  0
   46.0590   33.8460   40.9480 C   0  0  0  0  0  0  0  0  0  0  0  0
   44.9810   33.2910   41.1140 O   0  0  0  0  0  0  0  0  0  0  0  0
   44.5150   35.8980   44.7860 C   0  0  0  0  0  0  0  0  0  0  0  0
   45.0920   35.7440   43.5140 C   0  0  0  0  0  0  0  0  0  0  0  0
   45.9110   34.6310   43.3120 C   0  0  0  0  0  0  0  0  0  0  0  0
   46.1270   33.7490   44.3180 N   0  0  0  0  0  0  0  0  0  0  0  0
   45.5480   33.9390   45.5340 C   0  0  0  0  0  0  0  0  0  0  0  0
   44.7510   34.9990   45.7690 N   0  0  0  0  0  0  0  0  0  0  0  0
   46.2410   33.1270   38.6760 C   0  0  0  0  0  0  0  0  0  0  0  0
   46.9290   31.8340   38.4170 C   0  0  0  0  0  0  0  0  0  0  0  0
   47.0520   30.8200   39.4450 C   0  0  0  0  0  0  0  0  0  0  0  0
   47.9550   29.5120   38.5700 S   0  0  0  0  0  0  0  0  0  0  0  0
   48.0230   30.5320   36.9640 C   0  0  0  0  0  0  0  0  0  0  0  0
   47.4360   31.6180   37.2120 N   0  0  0  0  0  0  0  0  0  0  0  0
   48.0603   35.6807   42.8424 H   0  0  0  0  0  0  0  0  0  0  0  0
   49.4254   35.6969   40.7612 H   0  0  0  0  0  0  0  0  0  0  0  0
   43.8627   36.7611   44.9851 H   0  0  0  0  0  0  0  0  0  0  0  0
   44.9060   36.4709   42.7097 H   0  0  0  0  0  0  0  0  0  0  0  0
   45.7340   33.2139   46.3400 H   0  0  0  0  0  0  0  0  0  0  0  0
   45.1755   32.9255   38.8609 H   0  0  0  0  0  0  0  0  0  0  0  0
   46.3932   33.7619   37.7907 H   0  0  0  0  0  0  0  0  0  0  0  0
   46.6920   30.8385   40.4842 H   0  0  0  0  0  0  0  0  0  0  0  0
   48.4829   30.2327   36.0106 H   0  0  0  0  0  0  0  0  0  0  0  0
  1 11  1  0
  2  1  1  0
  3  2  2  0
  4  6  1  0
  4  3  1  0
  5  4  2  0
  6  7  1  0
  7  8  2  0
  7  1  1  0
  9 14  2  0
 10  9  1  0
 11 10  2  0
 11 12  1  0
 12 13  2  0
 13 14  1  0
 15  6  1  0
 16 15  1  0
 16 17  2  0
 18 17  1  0
 19 20  2  0
 19 18  1  0
 20 16  1  0
  2 21  1  0
  3 22  1  0
  9 23  1  0
 10 24  1  0
 13 25  1  0
 15 26  1  0
 15 27  1  0
 17 28  1  0
 19 29  1  0
M  ISO  8  21  14  22  14  23  14  24  14  25  14  26   8  27   8  28  14
M  ISO  1  29  14
M  END
>  <minimizedAffinity>  (1) 
-4.78030443

>  <minimizedRMSD>  (1) 
0.610773444

$$$$
