
     RDKit          3D

 30 32  0  0  0  0  0  0  0  0999 V2000
   46.4920   34.4980   41.9890 N   0  0  0  0  0  0  0  0  0  0  0  0
   47.7050   35.1480   41.9360 C   0  0  0  0  0  0  0  0  0  0  0  0
   48.4620   35.1500   40.7880 C   0  0  0  0  0  0  0  0  0  0  0  0
   47.9640   34.4740   39.6780 C   0  0  0  0  0  0  0  0  0  0  0  0
   48.6220   34.4520   38.6120 O   0  0  0  0  0  0  0  0  0  0  0  0
   46.7880   33.8700   39.8020 N   0  0  0  0  0  0  0  0  0  0  0  0
   46.0500   33.8690   40.9260 C   0  0  0  0  0  0  0  0  0  0  0  0
   44.9620   33.3310   41.0930 O   0  0  0  0  0  0  0  0  0  0  0  0
   44.5250   35.8910   44.7830 C   0  0  0  0  0  0  0  0  0  0  0  0
   45.0970   35.7420   43.5110 C   0  0  0  0  0  0  0  0  0  0  0  0
   45.9050   34.6470   43.2960 C   0  0  0  0  0  0  0  0  0  0  0  0
   46.1360   33.7380   44.3000 N   0  0  0  0  0  0  0  0  0  0  0  0
   45.5510   33.9380   45.5170 C   0  0  0  0  0  0  0  0  0  0  0  0
   44.7550   35.0000   45.7590 N   0  0  0  0  0  0  0  0  0  0  0  0
   46.2210   33.1370   38.6590 C   0  0  0  0  0  0  0  0  0  0  0  0
   46.9330   31.8760   38.5910 N   0  0  0  0  0  0  0  0  0  0  0  0
   47.2240   30.9460   39.5090 C   0  0  0  0  0  0  0  0  0  0  0  0
   47.9330   29.9040   38.9570 C   0  0  0  0  0  0  0  0  0  0  0  0
   48.0830   30.1980   37.6670 N   0  0  0  0  0  0  0  0  0  0  0  0
   47.4870   31.3690   37.4580 C   0  0  0  0  0  0  0  0  0  0  0  0
   48.0749   35.6750   42.8279 H   0  0  0  0  0  0  0  0  0  0  0  0
   49.4307   35.6696   40.7482 H   0  0  0  0  0  0  0  0  0  0  0  0
   43.8751   36.7554   44.9841 H   0  0  0  0  0  0  0  0  0  0  0  0
   44.9070   36.4743   42.7125 H   0  0  0  0  0  0  0  0  0  0  0  0
   45.7338   33.2125   46.3234 H   0  0  0  0  0  0  0  0  0  0  0  0
   45.1466   32.9599   38.8151 H   0  0  0  0  0  0  0  0  0  0  0  0
   46.3284   33.7078   37.7248 H   0  0  0  0  0  0  0  0  0  0  0  0
   46.9337   31.0071   40.5682 H   0  0  0  0  0  0  0  0  0  0  0  0
   48.3020   29.0077   39.4771 H   0  0  0  0  0  0  0  0  0  0  0  0
   47.4471   31.8699   36.4795 H   0  0  0  0  0  0  0  0  0  0  0  0
  1 11  1  0
  2  1  1  0
  3  2  2  0
  4  6  1  0
  4  3  1  0
  5  4  2  0
  6  7  1  0
  7  8  2  0
  7  1  1  0
  9 14  2  0
 10  9  1  0
 11 10  2  0
 11 12  1  0
 12 13  2  0
 13 14  1  0
 15  6  1  0
 16 15  1  0
 16 17  1  0
 18 17  2  0
 19 18  1  0
 20 19  2  0
 20 16  1  0
  2 21  1  0
  3 22  1  0
  9 23  1  0
 10 24  1  0
 13 25  1  0
 15 26  1  0
 15 27  1  0
 17 28  1  0
 18 29  1  0
 20 30  1  0
M  ISO  8  21  14  22  14  23  14  24  14  25  14  26   8  27   8  28  14
M  ISO  2  29  14  30  14
M  END
>  <minimizedAffinity>  (1) 
-4.75804663

>  <minimizedRMSD>  (1) 
0.532753408

$$$$
