
     RDKit          3D

 28 30  0  0  0  0  0  0  0  0999 V2000
   46.5260   34.5030   42.0170 N   0  0  0  0  0  0  0  0  0  0  0  0
   47.7030   35.1740   41.9530 C   0  0  0  0  0  0  0  0  0  0  0  0
   48.4640   35.1920   40.8040 C   0  0  0  0  0  0  0  0  0  0  0  0
   47.9740   34.4850   39.6920 C   0  0  0  0  0  0  0  0  0  0  0  0
   48.6460   34.4870   38.6350 O   0  0  0  0  0  0  0  0  0  0  0  0
   46.8040   33.8430   39.8260 N   0  0  0  0  0  0  0  0  0  0  0  0
   46.0870   33.8450   40.9600 C   0  0  0  0  0  0  0  0  0  0  0  0
   45.0130   33.2740   41.1250 O   0  0  0  0  0  0  0  0  0  0  0  0
   44.5130   35.8920   44.7840 C   0  0  0  0  0  0  0  0  0  0  0  0
   45.1010   35.7480   43.5130 C   0  0  0  0  0  0  0  0  0  0  0  0
   45.9340   34.6430   43.3120 C   0  0  0  0  0  0  0  0  0  0  0  0
   46.1450   33.7640   44.3190 N   0  0  0  0  0  0  0  0  0  0  0  0
   45.5530   33.9480   45.5300 C   0  0  0  0  0  0  0  0  0  0  0  0
   44.7430   35.0000   45.7680 N   0  0  0  0  0  0  0  0  0  0  0  0
   46.2800   33.0900   38.6920 C   0  0  0  0  0  0  0  0  0  0  0  0
   46.9890   31.8170   38.4610 C   0  0  0  0  0  0  0  0  0  0  0  0
   47.1660   30.8500   39.4090 N   0  0  0  0  0  0  0  0  0  0  0  0
   47.8230   29.8890   38.8540 O   0  0  0  0  0  0  0  0  0  0  0  0
   48.0940   30.1650   37.5910 C   0  0  0  0  0  0  0  0  0  0  0  0
   47.5780   31.3800   37.3120 N   0  0  0  0  0  0  0  0  0  0  0  0
   48.0592   35.7175   42.8405 H   0  0  0  0  0  0  0  0  0  0  0  0
   49.4177   35.7383   40.7588 H   0  0  0  0  0  0  0  0  0  0  0  0
   43.8524   36.7499   44.9780 H   0  0  0  0  0  0  0  0  0  0  0  0
   44.9126   36.4758   42.7100 H   0  0  0  0  0  0  0  0  0  0  0  0
   45.7394   33.2213   46.3345 H   0  0  0  0  0  0  0  0  0  0  0  0
   45.2186   32.8699   38.8792 H   0  0  0  0  0  0  0  0  0  0  0  0
   46.4219   33.7102   37.7947 H   0  0  0  0  0  0  0  0  0  0  0  0
   48.6432   29.5186   36.8906 H   0  0  0  0  0  0  0  0  0  0  0  0
  1 11  1  0
  2  1  1  0
  3  2  2  0
  4  6  1  0
  4  3  1  0
  5  4  2  0
  6  7  1  0
  7  8  2  0
  7  1  1  0
  9 14  2  0
 10  9  1  0
 11 10  2  0
 11 12  1  0
 12 13  2  0
 13 14  1  0
 15  6  1  0
 16 15  1  0
 16 17  2  0
 18 17  1  0
 19 18  1  0
 20 19  2  0
 20 16  1  0
  2 21  1  0
  3 22  1  0
  9 23  1  0
 10 24  1  0
 13 25  1  0
 15 26  1  0
 15 27  1  0
 19 28  1  0
M  ISO  8  21  14  22  14  23  14  24  14  25  14  26   8  27   8  28  14
M  END
>  <minimizedAffinity>  (1) 
-4.75658417

>  <minimizedRMSD>  (1) 
0.616389632

$$$$
