
     RDKit          3D

 30 32  0  0  0  0  0  0  0  0999 V2000
   46.5040   34.4860   42.0190 N   0  0  0  0  0  0  0  0  0  0  0  0
   47.6990   35.1510   41.9590 C   0  0  0  0  0  0  0  0  0  0  0  0
   48.4510   35.1550   40.8030 C   0  0  0  0  0  0  0  0  0  0  0  0
   47.9580   34.4630   39.7020 C   0  0  0  0  0  0  0  0  0  0  0  0
   48.6200   34.4540   38.6430 O   0  0  0  0  0  0  0  0  0  0  0  0
   46.7960   33.8450   39.8400 N   0  0  0  0  0  0  0  0  0  0  0  0
   46.0590   33.8390   40.9680 C   0  0  0  0  0  0  0  0  0  0  0  0
   44.9830   33.2810   41.1400 O   0  0  0  0  0  0  0  0  0  0  0  0
   44.5050   35.9180   44.7880 C   0  0  0  0  0  0  0  0  0  0  0  0
   45.0910   35.7560   43.5190 C   0  0  0  0  0  0  0  0  0  0  0  0
   45.9110   34.6400   43.3230 C   0  0  0  0  0  0  0  0  0  0  0  0
   46.1200   33.7620   44.3310 N   0  0  0  0  0  0  0  0  0  0  0  0
   45.5330   33.9590   45.5440 C   0  0  0  0  0  0  0  0  0  0  0  0
   44.7330   35.0250   45.7720 N   0  0  0  0  0  0  0  0  0  0  0  0
   46.2410   33.1030   38.6980 C   0  0  0  0  0  0  0  0  0  0  0  0
   46.8750   31.7690   38.5790 C   0  0  0  0  0  0  0  0  0  0  0  0
   46.6170   30.6880   39.3890 C   0  0  0  0  0  0  0  0  0  0  0  0
   47.4150   29.6490   38.9410 C   0  0  0  0  0  0  0  0  0  0  0  0
   48.1220   30.1710   37.8650 C   0  0  0  0  0  0  0  0  0  0  0  0
   47.7830   31.4340   37.6690 O   0  0  0  0  0  0  0  0  0  0  0  0
   48.0647   35.6899   42.8455 H   0  0  0  0  0  0  0  0  0  0  0  0
   49.4113   35.6892   40.7533 H   0  0  0  0  0  0  0  0  0  0  0  0
   43.8533   36.7833   44.9794 H   0  0  0  0  0  0  0  0  0  0  0  0
   44.9108   36.4803   42.7110 H   0  0  0  0  0  0  0  0  0  0  0  0
   45.7132   33.2369   46.3540 H   0  0  0  0  0  0  0  0  0  0  0  0
   45.1580   32.9760   38.8425 H   0  0  0  0  0  0  0  0  0  0  0  0
   46.4404   33.6715   37.7777 H   0  0  0  0  0  0  0  0  0  0  0  0
   45.9112   30.6551   40.2321 H   0  0  0  0  0  0  0  0  0  0  0  0
   47.4761   28.6294   39.3493 H   0  0  0  0  0  0  0  0  0  0  0  0
   48.8565   29.6149   37.2639 H   0  0  0  0  0  0  0  0  0  0  0  0
  1 11  1  0
  2  1  1  0
  3  2  2  0
  4  6  1  0
  4  3  1  0
  5  4  2  0
  6  7  1  0
  7  8  2  0
  7  1  1  0
  9 14  2  0
 10  9  1  0
 11 10  2  0
 11 12  1  0
 12 13  2  0
 13 14  1  0
 15  6  1  0
 16 15  1  0
 16 17  2  0
 18 17  1  0
 19 18  2  0
 20 19  1  0
 20 16  1  0
  2 21  1  0
  3 22  1  0
  9 23  1  0
 10 24  1  0
 13 25  1  0
 15 26  1  0
 15 27  1  0
 17 28  1  0
 18 29  1  0
 19 30  1  0
M  ISO  8  21  14  22  14  23  14  24  14  25  14  26   8  27   8  28  14
M  ISO  2  29  14  30  14
M  END
>  <minimizedAffinity>  (1) 
-4.73719263

>  <minimizedRMSD>  (1) 
2.67870188

$$$$
