
     RDKit          3D

 24 25  0  0  0  0  0  0  0  0999 V2000
   46.4230   34.4720   42.0340 N   0  0  0  0  0  0  0  0  0  0  0  0
   47.6400   35.1100   41.9760 C   0  0  0  0  0  0  0  0  0  0  0  0
   48.3930   35.0830   40.8160 C   0  0  0  0  0  0  0  0  0  0  0  0
   47.8720   34.3880   39.7160 C   0  0  0  0  0  0  0  0  0  0  0  0
   48.5310   34.3450   38.6470 O   0  0  0  0  0  0  0  0  0  0  0  0
   46.6810   33.7960   39.8580 N   0  0  0  0  0  0  0  0  0  0  0  0
   45.9650   33.8310   40.9860 C   0  0  0  0  0  0  0  0  0  0  0  0
   44.8750   33.3070   41.1700 O   0  0  0  0  0  0  0  0  0  0  0  0
   44.4890   35.9630   44.8130 C   0  0  0  0  0  0  0  0  0  0  0  0
   45.0560   35.7860   43.5340 C   0  0  0  0  0  0  0  0  0  0  0  0
   45.8450   34.6490   43.3420 C   0  0  0  0  0  0  0  0  0  0  0  0
   46.0430   33.7710   44.3570 N   0  0  0  0  0  0  0  0  0  0  0  0
   45.4750   33.9870   45.5720 C   0  0  0  0  0  0  0  0  0  0  0  0
   44.7100   35.0600   45.8080 N   0  0  0  0  0  0  0  0  0  0  0  0
   46.1200   33.0670   38.7250 C   0  0  0  0  0  0  0  0  0  0  0  0
   46.5510   31.7430   38.8490 O   0  0  0  0  0  0  0  0  0  0  0  0
   48.0176   35.6461   42.8592 H   0  0  0  0  0  0  0  0  0  0  0  0
   49.3676   35.5898   40.7588 H   0  0  0  0  0  0  0  0  0  0  0  0
   43.8592   36.8431   45.0097 H   0  0  0  0  0  0  0  0  0  0  0  0
   44.8848   36.5104   42.7241 H   0  0  0  0  0  0  0  0  0  0  0  0
   45.6479   33.2626   46.3816 H   0  0  0  0  0  0  0  0  0  0  0  0
   46.4826   33.4972   37.7798 H   0  0  0  0  0  0  0  0  0  0  0  0
   45.0217   33.1277   38.7188 H   0  0  0  0  0  0  0  0  0  0  0  0
   46.6271   31.5092   39.8080 H   0  0  0  0  0  0  0  0  0  0  0  0
  1 11  1  0
  2  1  1  0
  3  2  2  0
  4  6  1  0
  4  3  1  0
  5  4  2  0
  6  7  1  0
  7  8  2  0
  7  1  1  0
  9 14  2  0
 10  9  1  0
 11 10  2  0
 11 12  1  0
 12 13  2  0
 13 14  1  0
 15 16  1  0
 15  6  1  0
  2 17  1  0
  3 18  1  0
  9 19  1  0
 10 20  1  0
 13 21  1  0
 15 22  1  0
 15 23  1  0
 16 24  1  0
M  ISO  8  17  14  18  14  19  14  20  14  21  14  22   8  23   8  24   3
M  END
>  <minimizedAffinity>  (1) 
-4.72624254

>  <minimizedRMSD>  (1) 
0.064741306

$$$$
