
     RDKit          3D

 24 25  0  0  0  0  0  0  0  0999 V2000
   46.3870   34.4530   42.0140 N   0  0  0  0  0  0  0  0  0  0  0  0
   47.6100   35.0740   41.9420 C   0  0  0  0  0  0  0  0  0  0  0  0
   48.3620   35.0190   40.7810 C   0  0  0  0  0  0  0  0  0  0  0  0
   47.8260   34.3110   39.6930 C   0  0  0  0  0  0  0  0  0  0  0  0
   48.4820   34.2410   38.6250 O   0  0  0  0  0  0  0  0  0  0  0  0
   46.6410   33.7430   39.8500 N   0  0  0  0  0  0  0  0  0  0  0  0
   45.9170   33.8000   40.9780 C   0  0  0  0  0  0  0  0  0  0  0  0
   44.8210   33.2960   41.1760 O   0  0  0  0  0  0  0  0  0  0  0  0
   44.4840   36.0050   44.7830 C   0  0  0  0  0  0  0  0  0  0  0  0
   45.0500   35.7890   43.5110 C   0  0  0  0  0  0  0  0  0  0  0  0
   45.8140   34.6580   43.3200 C   0  0  0  0  0  0  0  0  0  0  0  0
   46.0100   33.7710   44.3510 N   0  0  0  0  0  0  0  0  0  0  0  0
   45.4420   34.0220   45.5660 C   0  0  0  0  0  0  0  0  0  0  0  0
   44.6960   35.1120   45.7810 N   0  0  0  0  0  0  0  0  0  0  0  0
   46.0620   32.9940   38.7360 C   0  0  0  0  0  0  0  0  0  0  0  0
   46.5890   31.2660   38.9380 S   0  0  0  0  0  0  0  0  0  0  0  0
   47.9957   35.6204   42.8154 H   0  0  0  0  0  0  0  0  0  0  0  0
   49.3432   35.5117   40.7132 H   0  0  0  0  0  0  0  0  0  0  0  0
   43.8696   36.8988   44.9666 H   0  0  0  0  0  0  0  0  0  0  0  0
   44.8864   36.5045   42.6917 H   0  0  0  0  0  0  0  0  0  0  0  0
   45.6013   33.3104   46.3896 H   0  0  0  0  0  0  0  0  0  0  0  0
   46.4297   33.3930   37.7791 H   0  0  0  0  0  0  0  0  0  0  0  0
   44.9650   33.0752   38.7325 H   0  0  0  0  0  0  0  0  0  0  0  0
   46.6795   30.9692   40.2724 H   0  0  0  0  0  0  0  0  0  0  0  0
  1 11  1  0
  2  1  1  0
  3  2  2  0
  4  6  1  0
  4  3  1  0
  5  4  2  0
  6  7  1  0
  7  8  2  0
  7  1  1  0
  9 14  2  0
 10  9  1  0
 11 10  2  0
 11 12  1  0
 12 13  2  0
 13 14  1  0
 15 16  1  0
 15  6  1  0
  2 17  1  0
  3 18  1  0
  9 19  1  0
 10 20  1  0
 13 21  1  0
 15 22  1  0
 15 23  1  0
 16 24  1  0
M  ISO  8  17  14  18  14  19  14  20  14  21  14  22   8  23   8  24  11
M  END
>  <minimizedAffinity>  (1) 
-4.70391321

>  <minimizedRMSD>  (1) 
0.0163702797

$$$$
