
     RDKit          3D

 31 33  0  0  0  0  0  0  0  0999 V2000
   46.7160   34.1160   42.3090 N   0  0  0  0  0  0  0  0  0  0  0  0
   47.6120   35.1020   41.9960 C   0  0  0  0  0  0  0  0  0  0  0  0
   48.4150   35.0080   40.8780 C   0  0  0  0  0  0  0  0  0  0  0  0
   48.2810   33.8700   40.0750 C   0  0  0  0  0  0  0  0  0  0  0  0
   48.9990   33.7590   39.0540 O   0  0  0  0  0  0  0  0  0  0  0  0
   47.3930   32.9580   40.4420 N   0  0  0  0  0  0  0  0  0  0  0  0
   46.6120   33.0570   41.5370 C   0  0  0  0  0  0  0  0  0  0  0  0
   45.7790   32.2420   41.9180 O   0  0  0  0  0  0  0  0  0  0  0  0
   44.4750   35.9100   44.6360 C   0  0  0  0  0  0  0  0  0  0  0  0
   45.1750   35.5700   43.4650 C   0  0  0  0  0  0  0  0  0  0  0  0
   46.0070   34.4530   43.5130 C   0  0  0  0  0  0  0  0  0  0  0  0
   46.1240   33.7350   44.6550 N   0  0  0  0  0  0  0  0  0  0  0  0
   45.4260   34.1020   45.7680 C   0  0  0  0  0  0  0  0  0  0  0  0
   44.6090   35.1790   45.7630 N   0  0  0  0  0  0  0  0  0  0  0  0
   47.2280   31.7630   39.6190 C   0  0  0  0  0  0  0  0  0  0  0  0
   46.6600   32.0830   38.2820 C   0  0  0  0  0  0  0  0  0  0  0  0
   47.2010   31.7730   37.0520 C   0  0  0  0  0  0  0  0  0  0  0  0
   46.5050   32.1670   35.9210 C   0  0  0  0  0  0  0  0  0  0  0  0
   45.3330   32.8330   36.0390 N   0  0  0  0  0  0  0  0  0  0  0  0
   44.8210   33.1270   37.2610 C   0  0  0  0  0  0  0  0  0  0  0  0
   45.4940   32.7470   38.3610 N   0  0  0  0  0  0  0  0  0  0  0  0
   47.6934   35.9848   42.6471 H   0  0  0  0  0  0  0  0  0  0  0  0
   49.1356   35.8002   40.6266 H   0  0  0  0  0  0  0  0  0  0  0  0
   43.8081   36.7848   44.6338 H   0  0  0  0  0  0  0  0  0  0  0  0
   45.0698   36.1637   42.5450 H   0  0  0  0  0  0  0  0  0  0  0  0
   45.5301   33.5093   46.6888 H   0  0  0  0  0  0  0  0  0  0  0  0
   48.2102   31.2866   39.4831 H   0  0  0  0  0  0  0  0  0  0  0  0
   46.5276   31.0891   40.1340 H   0  0  0  0  0  0  0  0  0  0  0  0
   48.1545   31.2304   36.9716 H   0  0  0  0  0  0  0  0  0  0  0  0
   46.9066   31.9376   34.9230 H   0  0  0  0  0  0  0  0  0  0  0  0
   43.8680   33.6690   37.3502 H   0  0  0  0  0  0  0  0  0  0  0  0
  1 11  1  0
  2  1  1  0
  3  2  2  0
  4  6  1  0
  4  3  1  0
  5  4  2  0
  6  7  1  0
  7  8  2  0
  7  1  1  0
  9 14  2  0
 10 11  2  0
 10  9  1  0
 11 12  1  0
 12 13  2  0
 14 13  1  0
 15  6  1  0
 16 21  1  0
 16 15  1  0
 17 16  2  0
 18 19  2  0
 18 17  1  0
 19 20  1  0
 20 21  2  0
  2 22  1  0
  3 23  1  0
  9 24  1  0
 10 25  1  0
 13 26  1  0
 15 27  1  0
 15 28  1  0
 17 29  1  0
 18 30  1  0
 20 31  1  0
M  ISO  8  22  14  23  14  24  14  25  14  26  14  27   8  28   8  29  14
M  ISO  2  30  14  31  14
M  END
>  <minimizedAffinity>  (1) 
-4.6966176

>  <minimizedRMSD>  (1) 
1.72135198

$$$$
