
     RDKit          3D

 33 35  0  0  0  0  0  0  0  0999 V2000
   46.1570   32.8350   44.0280 N   0  0  0  0  0  0  0  0  0  0  0  0
   47.2240   33.7000   43.9560 C   0  0  0  0  0  0  0  0  0  0  0  0
   47.5610   34.3200   42.7780 C   0  0  0  0  0  0  0  0  0  0  0  0
   46.7750   34.0390   41.6510 C   0  0  0  0  0  0  0  0  0  0  0  0
   47.0630   34.5920   40.5650 O   0  0  0  0  0  0  0  0  0  0  0  0
   45.7480   33.1860   41.7940 N   0  0  0  0  0  0  0  0  0  0  0  0
   45.4430   32.5960   42.9560 C   0  0  0  0  0  0  0  0  0  0  0  0
   44.5210   31.8120   43.1430 O   0  0  0  0  0  0  0  0  0  0  0  0
   45.4890   32.6820   47.6610 C   0  0  0  0  0  0  0  0  0  0  0  0
   45.6160   33.2010   46.3510 C   0  0  0  0  0  0  0  0  0  0  0  0
   46.0210   32.3250   45.3680 C   0  0  0  0  0  0  0  0  0  0  0  0
   46.2840   31.0130   45.6760 N   0  0  0  0  0  0  0  0  0  0  0  0
   46.1460   30.5690   46.9510 C   0  0  0  0  0  0  0  0  0  0  0  0
   45.7550   31.3860   47.9310 N   0  0  0  0  0  0  0  0  0  0  0  0
   44.9270   32.8850   40.6360 C   0  0  0  0  0  0  0  0  0  0  0  0
   43.7890   33.7920   40.4550 C   0  0  0  0  0  0  0  0  0  0  0  0
   43.2290   34.5360   41.4610 C   0  0  0  0  0  0  0  0  0  0  0  0
   42.1620   35.3990   41.3370 C   0  0  0  0  0  0  0  0  0  0  0  0
   41.5900   35.5390   40.0890 C   0  0  0  0  0  0  0  0  0  0  0  0
   42.0950   34.8190   39.0070 C   0  0  0  0  0  0  0  0  0  0  0  0
   43.1690   33.9760   39.2230 C   0  0  0  0  0  0  0  0  0  0  0  0
   47.8189   33.8990   44.8596 H   0  0  0  0  0  0  0  0  0  0  0  0
   48.4151   35.0109   42.7205 H   0  0  0  0  0  0  0  0  0  0  0  0
   45.1672   33.3474   48.4757 H   0  0  0  0  0  0  0  0  0  0  0  0
   45.4010   34.2564   46.1275 H   0  0  0  0  0  0  0  0  0  0  0  0
   46.3607   29.5150   47.1811 H   0  0  0  0  0  0  0  0  0  0  0  0
   45.5609   32.9433   39.7389 H   0  0  0  0  0  0  0  0  0  0  0  0
   44.5087   31.8805   40.7971 H   0  0  0  0  0  0  0  0  0  0  0  0
   43.6735   34.4345   42.4620 H   0  0  0  0  0  0  0  0  0  0  0  0
   41.7790   35.9576   42.2038 H   0  0  0  0  0  0  0  0  0  0  0  0
   40.7363   36.2181   39.9479 H   0  0  0  0  0  0  0  0  0  0  0  0
   41.6497   34.9193   38.0062 H   0  0  0  0  0  0  0  0  0  0  0  0
   43.5599   33.4126   38.3629 H   0  0  0  0  0  0  0  0  0  0  0  0
  1 11  1  0
  2  1  1  0
  3  2  2  0
  4  6  1  0
  4  3  1  0
  5  4  2  0
  6  7  1  0
  7  8  2  0
  7  1  1  0
  9 14  2  0
 10  9  1  0
 11 12  1  0
 11 10  2  0
 12 13  2  0
 13 14  1  0
 15  6  1  0
 16 15  1  0
 16 17  2  0
 18 17  1  0
 19 18  2  0
 20 21  2  0
 20 19  1  0
 21 16  1  0
  2 22  1  0
  3 23  1  0
  9 24  1  0
 10 25  1  0
 13 26  1  0
 15 27  1  0
 15 28  1  0
 17 29  1  0
 18 30  1  0
 19 31  1  0
 20 32  1  0
 21 33  1  0
M  ISO  8  22  14  23  14  24  14  25  14  26  14  27   8  28   8  29  14
M  ISO  4  30  14  31  14  32  14  33  14
M  END
>  <minimizedAffinity>  (1) 
-4.68923187

>  <minimizedRMSD>  (1) 
3.37543297

$$$$
