
     RDKit          3D

 44 48  0  0  0  0  0  0  0  0999 V2000
   46.2180   32.5820   41.8330 C   0  0  0  0  0  0  0  0  0  0  0  0
   43.1270   34.4150   41.4630 N   0  0  0  0  0  0  0  0  0  0  0  0
   43.3650   35.5300   42.2350 C   0  0  0  0  0  0  0  0  0  0  0  0
   44.5640   35.7020   42.9000 C   0  0  0  0  0  0  0  0  0  0  0  0
   45.5350   34.6990   42.7640 C   0  0  0  0  0  0  0  0  0  0  0  0
   46.6310   34.8260   43.3550 O   0  0  0  0  0  0  0  0  0  0  0  0
   45.2330   33.6400   41.9960 N   0  0  0  0  0  0  0  0  0  0  0  0
   44.0600   33.5150   41.3720 C   0  0  0  0  0  0  0  0  0  0  0  0
   43.7350   32.5640   40.6570 O   0  0  0  0  0  0  0  0  0  0  0  0
   40.4020   35.2720   39.1270 C   0  0  0  0  0  0  0  0  0  0  0  0
   41.6750   35.2060   39.7070 C   0  0  0  0  0  0  0  0  0  0  0  0
   41.8300   34.4700   40.8880 C   0  0  0  0  0  0  0  0  0  0  0  0
   40.7430   33.8450   41.4320 N   0  0  0  0  0  0  0  0  0  0  0  0
   39.5220   33.9420   40.8240 C   0  0  0  0  0  0  0  0  0  0  0  0
   39.3480   34.6420   39.6910 N   0  0  0  0  0  0  0  0  0  0  0  0
   47.0130   32.6830   40.6420 C   0  0  0  0  0  0  0  0  0  0  0  0
   47.9360   33.5460   40.1900 C   0  0  0  0  0  0  0  0  0  0  0  0
   48.5500   33.3940   38.9690 C   0  0  0  0  0  0  0  0  0  0  0  0
   48.1560   32.2760   38.2100 C   0  0  0  0  0  0  0  0  0  0  0  0
   46.8820   31.4670   39.3190 S   0  0  0  0  0  0  0  0  0  0  0  0
   48.6420   31.9090   36.9320 N   0  0  0  0  0  0  0  0  0  0  0  0
   49.8580   31.4470   36.6670 C   0  0  0  0  0  0  0  0  0  0  0  0
   49.9460   31.2100   35.3450 N   0  0  0  0  0  0  0  0  0  0  0  0
   48.7710   31.5330   34.8180 C   0  0  0  0  0  0  0  0  0  0  0  0
   48.3690   31.4620   33.4800 C   0  0  0  0  0  0  0  0  0  0  0  0
   49.1490   31.0560   32.5980 O   0  0  0  0  0  0  0  0  0  0  0  0
   47.1240   31.8480   33.1930 N   0  0  0  0  0  0  0  0  0  0  0  0
   46.2720   32.2930   34.1630 C   0  0  0  0  0  0  0  0  0  0  0  0
   44.9680   32.6780   33.7400 N   0  0  0  0  0  0  0  0  0  0  0  0
   46.6510   32.3650   35.4570 N   0  0  0  0  0  0  0  0  0  0  0  0
   47.9050   31.9870   35.8080 C   0  0  0  0  0  0  0  0  0  0  0  0
   46.8945   32.6067   42.7000 H   0  0  0  0  0  0  0  0  0  0  0  0
   45.6539   31.6411   41.7520 H   0  0  0  0  0  0  0  0  0  0  0  0
   42.5844   36.2999   42.3242 H   0  0  0  0  0  0  0  0  0  0  0  0
   44.7506   36.5948   43.5149 H   0  0  0  0  0  0  0  0  0  0  0  0
   40.2581   35.8449   38.1990 H   0  0  0  0  0  0  0  0  0  0  0  0
   42.5317   35.7196   39.2463 H   0  0  0  0  0  0  0  0  0  0  0  0
   38.6580   33.4324   41.2755 H   0  0  0  0  0  0  0  0  0  0  0  0
   48.2112   34.4057   40.8187 H   0  0  0  0  0  0  0  0  0  0  0  0
   49.3061   34.1057   38.6060 H   0  0  0  0  0  0  0  0  0  0  0  0
   50.6587   31.2852   37.4037 H   0  0  0  0  0  0  0  0  0  0  0  0
   46.7981   31.8093   32.2167 H   0  0  0  0  0  0  0  0  0  0  0  0
   44.2836   33.0214   34.4289 H   0  0  0  0  0  0  0  0  0  0  0  0
   44.7092   32.6130   32.7452 H   0  0  0  0  0  0  0  0  0  0  0  0
  1  7  1  0
  2  3  1  0
  3  4  2  0
  5  4  1  0
  5  6  2  0
  7  5  1  0
  8  2  1  0
  8  7  1  0
  9  8  2  0
 10 15  2  0
 10 11  1  0
 11 12  2  0
 12 13  1  0
 12  2  1  0
 14 13  2  0
 15 14  1  0
 16  1  1  0
 17 16  2  0
 18 17  1  0
 19 18  2  0
 19 20  1  0
 20 16  1  0
 21 19  1  0
 22 21  1  0
 23 22  2  0
 24 23  1  0
 24 31  2  0
 25 24  1  0
 26 25  2  0
 27 25  1  0
 27 28  1  0
 28 30  2  0
 29 28  1  0
 30 31  1  0
 31 21  1  0
  1 32  1  0
  1 33  1  0
  3 34  1  0
  4 35  1  0
 10 36  1  0
 11 37  1  0
 14 38  1  0
 17 39  1  0
 18 40  1  0
 22 41  1  0
 27 42  1  0
 29 43  1  0
 29 44  1  0
M  ISO  8  32   8  33   8  34  14  35  14  36  14  37  14  38  14  39  14
M  ISO  3  40  14  41  14  42   9
M  END
>  <minimizedAffinity>  (1) 
-6.76584435

>  <minimizedRMSD>  (1) 
5.18392611

$$$$
