
     RDKit          3D

 44 48  0  0  0  0  0  0  0  0999 V2000
   47.1180   32.0790   39.7590 C   0  0  0  0  0  0  0  0  0  0  0  0
   47.0240   33.3860   43.1290 N   0  0  0  0  0  0  0  0  0  0  0  0
   47.5780   34.6380   42.9590 C   0  0  0  0  0  0  0  0  0  0  0  0
   47.9970   35.0770   41.7190 C   0  0  0  0  0  0  0  0  0  0  0  0
   47.8410   34.2020   40.6290 C   0  0  0  0  0  0  0  0  0  0  0  0
   48.2110   34.5690   39.4910 O   0  0  0  0  0  0  0  0  0  0  0  0
   47.2920   33.0010   40.8790 N   0  0  0  0  0  0  0  0  0  0  0  0
   46.8990   32.6130   42.0910 C   0  0  0  0  0  0  0  0  0  0  0  0
   46.3960   31.5270   42.3610 O   0  0  0  0  0  0  0  0  0  0  0  0
   45.3180   33.7670   46.3800 C   0  0  0  0  0  0  0  0  0  0  0  0
   45.6650   33.9650   45.0350 C   0  0  0  0  0  0  0  0  0  0  0  0
   46.6780   33.1760   44.4900 C   0  0  0  0  0  0  0  0  0  0  0  0
   47.2900   32.2470   45.2800 N   0  0  0  0  0  0  0  0  0  0  0  0
   46.9230   32.0870   46.5830 C   0  0  0  0  0  0  0  0  0  0  0  0
   45.9510   32.8340   47.1300 N   0  0  0  0  0  0  0  0  0  0  0  0
   45.8880   32.2370   39.0390 C   0  0  0  0  0  0  0  0  0  0  0  0
   45.5020   32.9370   37.9630 C   0  0  0  0  0  0  0  0  0  0  0  0
   44.2180   32.8980   37.4890 C   0  0  0  0  0  0  0  0  0  0  0  0
   43.3110   32.0740   38.1990 C   0  0  0  0  0  0  0  0  0  0  0  0
   44.3900   31.3810   39.5480 S   0  0  0  0  0  0  0  0  0  0  0  0
   41.9210   31.8340   37.9460 C   0  0  0  0  0  0  0  0  0  0  0  0
   41.3640   30.7170   37.3580 C   0  0  0  0  0  0  0  0  0  0  0  0
   40.0450   30.9740   37.3490 N   0  0  0  0  0  0  0  0  0  0  0  0
   39.7410   32.1680   37.8880 C   0  0  0  0  0  0  0  0  0  0  0  0
   38.4970   32.7470   38.0380 C   0  0  0  0  0  0  0  0  0  0  0  0
   38.4420   33.9940   38.6270 C   0  0  0  0  0  0  0  0  0  0  0  0
   39.6070   34.6110   39.0370 C   0  0  0  0  0  0  0  0  0  0  0  0
   40.8250   33.9890   38.8620 C   0  0  0  0  0  0  0  0  0  0  0  0
   40.9470   32.7460   38.2820 C   0  0  0  0  0  0  0  0  0  0  0  0
   47.9493   32.2337   39.0554 H   0  0  0  0  0  0  0  0  0  0  0  0
   47.0984   31.0670   40.1896 H   0  0  0  0  0  0  0  0  0  0  0  0
   47.6882   35.3006   43.8301 H   0  0  0  0  0  0  0  0  0  0  0  0
   48.4375   36.0764   41.5880 H   0  0  0  0  0  0  0  0  0  0  0  0
   44.5217   34.3774   46.8309 H   0  0  0  0  0  0  0  0  0  0  0  0
   45.1512   34.7232   44.4258 H   0  0  0  0  0  0  0  0  0  0  0  0
   47.4332   31.3312   47.1981 H   0  0  0  0  0  0  0  0  0  0  0  0
   46.2416   33.5638   37.4433 H   0  0  0  0  0  0  0  0  0  0  0  0
   43.9080   33.4750   36.6053 H   0  0  0  0  0  0  0  0  0  0  0  0
   41.8810   29.8215   36.9827 H   0  0  0  0  0  0  0  0  0  0  0  0
   39.3411   30.3249   36.9693 H   0  0  0  0  0  0  0  0  0  0  0  0
   37.5842   32.2341   37.7009 H   0  0  0  0  0  0  0  0  0  0  0  0
   37.4729   34.4947   38.7693 H   0  0  0  0  0  0  0  0  0  0  0  0
   39.5632   35.6050   39.5062 H   0  0  0  0  0  0  0  0  0  0  0  0
   41.7354   34.5062   39.1991 H   0  0  0  0  0  0  0  0  0  0  0  0
  1  7  1  0
  2 12  1  0
  3  2  1  0
  4  3  2  0
  5  7  1  0
  5  4  1  0
  6  5  2  0
  7  8  1  0
  8  9  2  0
  8  2  1  0
 10 15  2  0
 11 10  1  0
 12 11  2  0
 12 13  1  0
 13 14  2  0
 14 15  1  0
 16 20  1  0
 16  1  1  0
 17 16  2  0
 18 17  1  0
 18 19  2  0
 19 20  1  0
 21 19  1  0
 21 29  1  0
 22 21  2  0
 23 22  1  0
 23 24  1  0
 24 25  2  0
 24 29  1  0
 25 26  1  0
 26 27  2  0
 28 27  1  0
 29 28  2  0
  1 30  1  0
  1 31  1  0
  3 32  1  0
  4 33  1  0
 10 34  1  0
 11 35  1  0
 14 36  1  0
 17 37  1  0
 18 38  1  0
 22 39  1  0
 23 40  1  0
 25 41  1  0
 26 42  1  0
 27 43  1  0
 28 44  1  0
M  ISO  8  30   8  31   8  32  14  33  14  34  14  35  14  36  14  37  14
M  ISO  7  38  14  39  14  40   9  41  14  42  14  43  14  44  14
M  END
>  <minimizedAffinity>  (1) 
-5.94130754

>  <minimizedRMSD>  (1) 
3.59050798

$$$$
