
     RDKit          3D

 33 35  0  0  0  0  0  0  0  0999 V2000
   46.6500   34.0700   42.2620 N   0  0  0  0  0  0  0  0  0  0  0  0
   47.5310   35.0650   41.8980 C   0  0  0  0  0  0  0  0  0  0  0  0
   48.3020   34.9660   40.7560 C   0  0  0  0  0  0  0  0  0  0  0  0
   48.1540   33.8030   39.9710 C   0  0  0  0  0  0  0  0  0  0  0  0
   48.8340   33.6730   38.9280 O   0  0  0  0  0  0  0  0  0  0  0  0
   47.2720   32.8780   40.3950 N   0  0  0  0  0  0  0  0  0  0  0  0
   46.5480   33.0170   41.5060 C   0  0  0  0  0  0  0  0  0  0  0  0
   45.7390   32.2010   41.9210 O   0  0  0  0  0  0  0  0  0  0  0  0
   44.4830   35.8960   44.6300 C   0  0  0  0  0  0  0  0  0  0  0  0
   45.1520   35.5380   43.4500 C   0  0  0  0  0  0  0  0  0  0  0  0
   45.9840   34.4090   43.4630 C   0  0  0  0  0  0  0  0  0  0  0  0
   46.1050   33.7110   44.6150 N   0  0  0  0  0  0  0  0  0  0  0  0
   45.4440   34.0750   45.7510 C   0  0  0  0  0  0  0  0  0  0  0  0
   44.6360   35.1670   45.7550 N   0  0  0  0  0  0  0  0  0  0  0  0
   47.1030   31.6690   39.6000 C   0  0  0  0  0  0  0  0  0  0  0  0
   46.2940   31.8280   38.4210 C   0  0  0  0  0  0  0  0  0  0  0  0
   45.0340   32.2200   38.1920 C   0  0  0  0  0  0  0  0  0  0  0  0
   44.5060   32.2760   36.9400 C   0  0  0  0  0  0  0  0  0  0  0  0
   45.3570   31.8960   35.8670 C   0  0  0  0  0  0  0  0  0  0  0  0
   46.9230   31.4690   36.7930 S   0  0  0  0  0  0  0  0  0  0  0  0
   45.1450   31.8360   34.4920 C   0  0  0  0  0  0  0  0  0  0  0  0
   45.0330   30.7200   33.8820 O   0  0  0  0  0  0  0  0  0  0  0  0
   45.0560   33.0360   33.8010 O   0  0  0  0  0  0  0  0  0  0  0  0
   47.6226   35.9594   42.5318 H   0  0  0  0  0  0  0  0  0  0  0  0
   49.0041   35.7630   40.4698 H   0  0  0  0  0  0  0  0  0  0  0  0
   43.8275   36.7793   44.6381 H   0  0  0  0  0  0  0  0  0  0  0  0
   45.0264   36.1313   42.5323 H   0  0  0  0  0  0  0  0  0  0  0  0
   45.5658   33.4812   46.6689 H   0  0  0  0  0  0  0  0  0  0  0  0
   48.0994   31.3238   39.2868 H   0  0  0  0  0  0  0  0  0  0  0  0
   46.5748   30.9487   40.2420 H   0  0  0  0  0  0  0  0  0  0  0  0
   44.4039   32.5068   39.0468 H   0  0  0  0  0  0  0  0  0  0  0  0
   43.4693   32.6001   36.7660 H   0  0  0  0  0  0  0  0  0  0  0  0
   44.9057   33.0338   32.8225 H   0  0  0  0  0  0  0  0  0  0  0  0
  1 11  1  0
  2  1  1  0
  3  2  2  0
  4  6  1  0
  4  3  1  0
  5  4  2  0
  6  7  1  0
  7  8  2  0
  7  1  1  0
  9 14  2  0
 10 11  2  0
 10  9  1  0
 11 12  1  0
 12 13  2  0
 13 14  1  0
 15  6  1  0
 16 15  1  0
 17 16  2  0
 18 17  1  0
 19 20  1  0
 19 18  2  0
 20 16  1  0
 21 19  1  0
 22 21  2  0
 23 21  1  0
  2 24  1  0
  3 25  1  0
  9 26  1  0
 10 27  1  0
 13 28  1  0
 15 29  1  0
 15 30  1  0
 17 31  1  0
 18 32  1  0
 23 33  1  0
M  ISO  8  24  14  25  14  26  14  27  14  28  14  29   8  30   8  31  14
M  ISO  2  32  14  33   3
M  END
>  <minimizedAffinity>  (1) 
-5.91435051

>  <minimizedRMSD>  (1) 
0.670725703

$$$$
