
     RDKit          3D

 37 39  0  0  0  0  0  0  0  0999 V2000
   47.3810   33.5870   42.8540 N   0  0  0  0  0  0  0  0  0  0  0  0
   48.5500   34.3250   42.8260 C   0  0  0  0  0  0  0  0  0  0  0  0
   49.6560   33.8710   42.1210 C   0  0  0  0  0  0  0  0  0  0  0  0
   49.5490   32.6490   41.4450 C   0  0  0  0  0  0  0  0  0  0  0  0
   50.5320   32.2140   40.7990 O   0  0  0  0  0  0  0  0  0  0  0  0
   48.3690   31.9950   41.5260 N   0  0  0  0  0  0  0  0  0  0  0  0
   47.3250   32.4600   42.2130 C   0  0  0  0  0  0  0  0  0  0  0  0
   46.2450   31.8990   42.3100 O   0  0  0  0  0  0  0  0  0  0  0  0
   44.8080   36.0380   43.8490 C   0  0  0  0  0  0  0  0  0  0  0  0
   45.7750   35.3680   43.0860 C   0  0  0  0  0  0  0  0  0  0  0  0
   46.3970   34.2570   43.6400 C   0  0  0  0  0  0  0  0  0  0  0  0
   46.0500   33.8620   44.8870 N   0  0  0  0  0  0  0  0  0  0  0  0
   45.1060   34.5340   45.6010 C   0  0  0  0  0  0  0  0  0  0  0  0
   44.4870   35.6120   45.0920 N   0  0  0  0  0  0  0  0  0  0  0  0
   48.2350   30.7230   40.8310 C   0  0  0  0  0  0  0  0  0  0  0  0
   47.4660   30.7850   39.6180 C   0  0  0  0  0  0  0  0  0  0  0  0
   46.2780   30.3100   39.2140 C   0  0  0  0  0  0  0  0  0  0  0  0
   45.7970   30.5330   37.9660 C   0  0  0  0  0  0  0  0  0  0  0  0
   46.5980   31.2950   37.0860 C   0  0  0  0  0  0  0  0  0  0  0  0
   48.0570   31.6510   38.1720 S   0  0  0  0  0  0  0  0  0  0  0  0
   46.5280   31.7580   35.7920 N   0  0  0  0  0  0  0  0  0  0  0  0
   45.5920   32.7670   35.4580 C   0  0  0  0  0  0  0  0  0  0  0  0
   45.2710   33.6080   36.3790 N   0  0  0  0  0  0  0  0  0  0  0  0
   45.0370   32.8370   34.1500 N   0  0  0  0  0  0  0  0  0  0  0  0
   44.5830   34.3520   36.1350 H   0  0  0  0  0  0  0  0  0  0  0  0
   48.6039   35.2809   43.3676 H   0  0  0  0  0  0  0  0  0  0  0  0
   50.5887   34.4535   42.0940 H   0  0  0  0  0  0  0  0  0  0  0  0
   44.3037   36.9218   43.4311 H   0  0  0  0  0  0  0  0  0  0  0  0
   46.0342   35.7137   42.0744 H   0  0  0  0  0  0  0  0  0  0  0  0
   44.8455   34.1884   46.6123 H   0  0  0  0  0  0  0  0  0  0  0  0
   49.2429   30.3603   40.5808 H   0  0  0  0  0  0  0  0  0  0  0  0
   47.6926   30.0501   41.5115 H   0  0  0  0  0  0  0  0  0  0  0  0
   45.6739   29.7199   39.9189 H   0  0  0  0  0  0  0  0  0  0  0  0
   44.8208   30.1360   37.6508 H   0  0  0  0  0  0  0  0  0  0  0  0
   47.1533   31.3726   35.0699 H   0  0  0  0  0  0  0  0  0  0  0  0
   44.3570   33.5750   33.9179 H   0  0  0  0  0  0  0  0  0  0  0  0
   45.3151   32.1497   33.4351 H   0  0  0  0  0  0  0  0  0  0  0  0
  1 11  1  0
  2  1  1  0
  3  2  2  0
  4  6  1  0
  4  3  1  0
  5  4  2  0
  6  7  1  0
  7  8  2  0
  7  1  1  0
  9 14  2  0
 10 11  2  0
 10  9  1  0
 11 12  1  0
 12 13  2  0
 14 13  1  0
 15  6  1  0
 16 15  1  0
 17 16  2  0
 18 17  1  0
 19 18  2  0
 19 20  1  0
 20 16  1  0
 21 19  1  0
 22 21  1  0
 22 23  2  0
 24 22  1  0
 25 23  1  0
  2 26  1  0
  3 27  1  0
  9 28  1  0
 10 29  1  0
 13 30  1  0
 15 31  1  0
 15 32  1  0
 17 33  1  0
 18 34  1  0
 21 35  1  0
 24 36  1  0
 24 37  1  0
M  ISO  8  26  14  27  14  28  14  29  14  30  14  31   8  32   8  33  14
M  ISO  1  34  14
M  END
>  <minimizedAffinity>  (1) 
-5.87282419

>  <minimizedRMSD>  (1) 
1.75740814

$$$$
