
     RDKit          3D

 34 37  0  0  0  0  0  0  0  0999 V2000
   46.5530   34.6400   42.1360 C   0  0  0  0  0  0  0  0  0  0  0  0
   47.7520   35.2970   41.9460 C   0  0  0  0  0  0  0  0  0  0  0  0
   48.4590   35.1360   40.7390 C   0  0  0  0  0  0  0  0  0  0  0  0
   47.9650   34.3180   39.7270 C   0  0  0  0  0  0  0  0  0  0  0  0
   46.7700   33.6790   39.9520 C   0  0  0  0  0  0  0  0  0  0  0  0
   46.0830   33.8380   41.1300 C   0  0  0  0  0  0  0  0  0  0  0  0
   44.8110   33.1570   41.3630 C   0  0  0  0  0  0  0  0  0  0  0  0
   44.8500   31.9350   41.9470 N   0  0  0  0  0  0  0  0  0  0  0  0
   43.7500   31.2220   42.2080 C   0  0  0  0  0  0  0  0  0  0  0  0
   42.5170   31.6830   41.9000 N   0  0  0  0  0  0  0  0  0  0  0  0
   42.4340   32.9020   41.3150 C   0  0  0  0  0  0  0  0  0  0  0  0
   41.2150   33.4370   40.9720 C   0  0  0  0  0  0  0  0  0  0  0  0
   41.1530   34.6810   40.3760 C   0  0  0  0  0  0  0  0  0  0  0  0
   42.2920   35.3960   40.1170 C   0  0  0  0  0  0  0  0  0  0  0  0
   43.5500   34.8970   40.4450 C   0  0  0  0  0  0  0  0  0  0  0  0
   43.5600   33.6440   41.0420 C   0  0  0  0  0  0  0  0  0  0  0  0
   44.4410   35.9840   44.9520 C   0  0  0  0  0  0  0  0  0  0  0  0
   45.0260   35.9170   43.6690 C   0  0  0  0  0  0  0  0  0  0  0  0
   45.8730   34.8520   43.4100 C   0  0  0  0  0  0  0  0  0  0  0  0
   46.1000   33.9290   44.3900 N   0  0  0  0  0  0  0  0  0  0  0  0
   45.5140   34.0380   45.6090 C   0  0  0  0  0  0  0  0  0  0  0  0
   44.6950   35.0560   45.8840 N   0  0  0  0  0  0  0  0  0  0  0  0
   48.1550   35.9462   42.7373 H   0  0  0  0  0  0  0  0  0  0  0  0
   49.4135   35.6632   40.5941 H   0  0  0  0  0  0  0  0  0  0  0  0
   48.5117   34.1879   38.7814 H   0  0  0  0  0  0  0  0  0  0  0  0
   46.3543   33.0254   39.1710 H   0  0  0  0  0  0  0  0  0  0  0  0
   43.8504   30.2360   42.6851 H   0  0  0  0  0  0  0  0  0  0  0  0
   40.2907   32.8751   41.1720 H   0  0  0  0  0  0  0  0  0  0  0  0
   40.1743   35.1040   40.1052 H   0  0  0  0  0  0  0  0  0  0  0  0
   42.2115   36.3841   39.6404 H   0  0  0  0  0  0  0  0  0  0  0  0
   44.4744   35.4585   40.2443 H   0  0  0  0  0  0  0  0  0  0  0  0
   43.7622   36.8158   45.1915 H   0  0  0  0  0  0  0  0  0  0  0  0
   44.8174   36.6805   42.9050 H   0  0  0  0  0  0  0  0  0  0  0  0
   45.7160   33.2791   46.3793 H   0  0  0  0  0  0  0  0  0  0  0  0
  1 19  1  0
  2  1  2  0
  3  2  1  0
  4  5  1  0
  4  3  2  0
  5  6  2  0
  6  7  1  0
  6  1  1  0
  7  8  2  0
  8  9  1  0
 10  9  2  0
 11 10  1  0
 12 11  2  0
 13 12  1  0
 14 13  2  0
 14 15  1  0
 15 16  2  0
 16 11  1  0
 16  7  1  0
 17 22  2  0
 18 17  1  0
 19 18  2  0
 19 20  1  0
 20 21  2  0
 21 22  1  0
  2 23  1  0
  3 24  1  0
  4 25  1  0
  5 26  1  0
  9 27  1  0
 12 28  1  0
 13 29  1  0
 14 30  1  0
 15 31  1  0
 17 32  1  0
 18 33  1  0
 21 34  1  0
M  ISO  8  23  14  24  14  25  14  26  14  27  14  28  14  29  14  30  14
M  ISO  4  31  14  32  14  33  14  34  14
M  END
>  <minimizedAffinity>  (1) 
-6.65040302

>  <minimizedRMSD>  (1) 
0.494422019

$$$$
