
     RDKit          3D

 45 48  0  0  0  0  0  0  0  0999 V2000
   47.5990   33.6970   42.4860 N   0  0  0  0  0  0  0  0  0  0  0  0
   48.8490   34.0930   42.9120 C   0  0  0  0  0  0  0  0  0  0  0  0
   49.9960   33.5960   42.3270 C   0  0  0  0  0  0  0  0  0  0  0  0
   49.8480   32.6680   41.2820 C   0  0  0  0  0  0  0  0  0  0  0  0
   50.8750   32.2010   40.7340 O   0  0  0  0  0  0  0  0  0  0  0  0
   48.6000   32.3330   40.9250 N   0  0  0  0  0  0  0  0  0  0  0  0
   47.5170   32.8350   41.5150 C   0  0  0  0  0  0  0  0  0  0  0  0
   46.3560   32.5570   41.2220 O   0  0  0  0  0  0  0  0  0  0  0  0
   45.0320   36.1730   43.4260 C   0  0  0  0  0  0  0  0  0  0  0  0
   46.0290   35.5160   42.7040 C   0  0  0  0  0  0  0  0  0  0  0  0
   46.5870   34.3440   43.2380 C   0  0  0  0  0  0  0  0  0  0  0  0
   46.1400   33.8820   44.4450 N   0  0  0  0  0  0  0  0  0  0  0  0
   45.1630   34.5590   45.1150 C   0  0  0  0  0  0  0  0  0  0  0  0
   44.6090   35.6940   44.6180 N   0  0  0  0  0  0  0  0  0  0  0  0
   48.4180   31.3750   39.8440 C   0  0  0  0  0  0  0  0  0  0  0  0
   48.5270   31.9290   38.5280 C   0  0  0  0  0  0  0  0  0  0  0  0
   48.4250   33.1640   38.0090 C   0  0  0  0  0  0  0  0  0  0  0  0
   48.5760   33.4060   36.6570 C   0  0  0  0  0  0  0  0  0  0  0  0
   48.8440   32.2830   35.8500 C   0  0  0  0  0  0  0  0  0  0  0  0
   48.8700   30.8930   37.0930 S   0  0  0  0  0  0  0  0  0  0  0  0
   49.0530   32.1030   34.5110 N   0  0  0  0  0  0  0  0  0  0  0  0
   48.1120   32.7280   33.6530 C   0  0  0  0  0  0  0  0  0  0  0  0
   48.9300   33.3690   32.5240 C   0  0  0  0  0  0  0  0  0  0  0  0
   49.6000   32.2680   31.7720 C   0  0  0  0  0  0  0  0  0  0  0  0
   49.8580   31.0250   32.5640 C   0  0  0  0  0  0  0  0  0  0  0  0
   50.1530   31.3320   34.0380 C   0  0  0  0  0  0  0  0  0  0  0  0
   48.9338   34.8191   43.7340 H   0  0  0  0  0  0  0  0  0  0  0  0
   50.9922   33.9154   42.6671 H   0  0  0  0  0  0  0  0  0  0  0  0
   44.5843   37.0923   43.0205 H   0  0  0  0  0  0  0  0  0  0  0  0
   46.3710   35.9089   41.7352 H   0  0  0  0  0  0  0  0  0  0  0  0
   44.8147   34.1742   46.0849 H   0  0  0  0  0  0  0  0  0  0  0  0
   49.1816   30.5903   39.9496 H   0  0  0  0  0  0  0  0  0  0  0  0
   47.3901   30.9944   39.9364 H   0  0  0  0  0  0  0  0  0  0  0  0
   48.2147   34.0088   38.6813 H   0  0  0  0  0  0  0  0  0  0  0  0
   48.4917   34.4183   36.2348 H   0  0  0  0  0  0  0  0  0  0  0  0
   47.4140   31.9828   33.2437 H   0  0  0  0  0  0  0  0  0  0  0  0
   47.5114   33.4765   34.1906 H   0  0  0  0  0  0  0  0  0  0  0  0
   48.2654   33.9320   31.8521 H   0  0  0  0  0  0  0  0  0  0  0  0
   49.6753   34.0662   32.9344 H   0  0  0  0  0  0  0  0  0  0  0  0
   48.9613   32.0011   30.9171 H   0  0  0  0  0  0  0  0  0  0  0  0
   50.5869   32.6542   31.4772 H   0  0  0  0  0  0  0  0  0  0  0  0
   48.9707   30.3773   32.5071 H   0  0  0  0  0  0  0  0  0  0  0  0
   50.7420   30.5284   32.1374 H   0  0  0  0  0  0  0  0  0  0  0  0
   50.2389   30.3978   34.6123 H   0  0  0  0  0  0  0  0  0  0  0  0
   51.1023   31.8759   34.1520 H   0  0  0  0  0  0  0  0  0  0  0  0
  1  2  1  0
  1 11  1  0
  3  2  2  0
  4  3  1  0
  5  4  2  0
  6  4  1  0
  6  7  1  0
  7  1  1  0
  8  7  2  0
  9 14  2  0
 10 11  2  0
 10  9  1  0
 11 12  1  0
 12 13  2  0
 14 13  1  0
 15  6  1  0
 16 15  1  0
 17 16  2  0
 18 17  1  0
 19 18  2  0
 19 20  1  0
 20 16  1  0
 21 19  1  0
 22 21  1  0
 23 22  1  0
 24 23  1  0
 24 25  1  0
 25 26  1  0
 26 21  1  0
  2 27  1  0
  3 28  1  0
  9 29  1  0
 10 30  1  0
 13 31  1  0
 15 32  1  0
 15 33  1  0
 17 34  1  0
 18 35  1  0
 22 36  1  0
 22 37  1  0
 23 38  1  0
 23 39  1  0
 24 40  1  0
 24 41  1  0
 25 42  1  0
 25 43  1  0
 26 44  1  0
 26 45  1  0
M  ISO  8  27  14  28  14  29  14  30  14  31  14  32   8  33   8  34  14
M  ISO  8  35  14  36  13  37  13  38  13  39  13  40  13  41  13  42  13
M  ISO  3  43  13  44  13  45  13
M  END
>  <minimizedAffinity>  (1) 
-5.7977438

>  <minimizedRMSD>  (1) 
3.16613483

$$$$
