
     RDKit          3D

 36 39  0  0  0  0  0  0  0  0999 V2000
   47.0240   31.8270   45.4230 N   0  0  0  0  0  0  0  0  0  0  0  0
   47.5590   30.7420   44.7540 C   0  0  0  0  0  0  0  0  0  0  0  0
   48.0580   30.8770   43.4620 C   0  0  0  0  0  0  0  0  0  0  0  0
   48.0010   32.1400   42.8680 C   0  0  0  0  0  0  0  0  0  0  0  0
   48.4440   32.2910   41.7070 O   0  0  0  0  0  0  0  0  0  0  0  0
   47.4670   33.1470   43.5830 N   0  0  0  0  0  0  0  0  0  0  0  0
   46.9980   32.9810   44.8150 C   0  0  0  0  0  0  0  0  0  0  0  0
   46.5010   33.8650   45.5130 O   0  0  0  0  0  0  0  0  0  0  0  0
   47.0810   31.1910   49.0590 C   0  0  0  0  0  0  0  0  0  0  0  0
   47.4950   31.5660   47.7700 C   0  0  0  0  0  0  0  0  0  0  0  0
   46.5830   31.4420   46.7150 C   0  0  0  0  0  0  0  0  0  0  0  0
   45.3450   30.9660   46.9800 N   0  0  0  0  0  0  0  0  0  0  0  0
   44.9800   30.6110   48.2450 C   0  0  0  0  0  0  0  0  0  0  0  0
   45.8480   30.7260   49.2730 N   0  0  0  0  0  0  0  0  0  0  0  0
   47.3940   34.4730   42.9880 C   0  0  0  0  0  0  0  0  0  0  0  0
   46.0820   34.8520   42.5400 C   0  0  0  0  0  0  0  0  0  0  0  0
   45.1180   35.6760   42.9760 C   0  0  0  0  0  0  0  0  0  0  0  0
   43.9300   35.8390   42.3220 C   0  0  0  0  0  0  0  0  0  0  0  0
   43.7590   35.0850   41.1440 C   0  0  0  0  0  0  0  0  0  0  0  0
   45.3740   34.1530   41.0370 S   0  0  0  0  0  0  0  0  0  0  0  0
   42.6300   35.0480   40.2530 C   0  0  0  0  0  0  0  0  0  0  0  0
   42.7260   34.4370   38.9460 C   0  0  0  0  0  0  0  0  0  0  0  0
   41.0660   34.7050   38.3680 S   0  0  0  0  0  0  0  0  0  0  0  0
   40.4800   35.5900   39.9420 C   0  0  0  0  0  0  0  0  0  0  0  0
   41.5010   35.6040   40.7000 N   0  0  0  0  0  0  0  0  0  0  0  0
   47.5906   29.7601   45.2489 H   0  0  0  0  0  0  0  0  0  0  0  0
   48.4839   30.0163   42.9254 H   0  0  0  0  0  0  0  0  0  0  0  0
   47.7814   31.2816   49.9024 H   0  0  0  0  0  0  0  0  0  0  0  0
   48.5114   31.9479   47.5938 H   0  0  0  0  0  0  0  0  0  0  0  0
   43.9662   30.2263   48.4303 H   0  0  0  0  0  0  0  0  0  0  0  0
   47.7261   35.2055   43.7385 H   0  0  0  0  0  0  0  0  0  0  0  0
   48.0363   34.4520   42.0953 H   0  0  0  0  0  0  0  0  0  0  0  0
   45.2916   36.2456   43.9009 H   0  0  0  0  0  0  0  0  0  0  0  0
   43.1507   36.5204   42.6939 H   0  0  0  0  0  0  0  0  0  0  0  0
   43.5788   33.9481   38.4524 H   0  0  0  0  0  0  0  0  0  0  0  0
   39.4807   35.9992   40.1515 H   0  0  0  0  0  0  0  0  0  0  0  0
  1 11  1  0
  2  1  1  0
  3  2  2  0
  4  3  1  0
  4  6  1  0
  5  4  2  0
  6  7  1  0
  7  1  1  0
  7  8  2  0
  9 14  2  0
 10  9  1  0
 11 12  1  0
 11 10  2  0
 12 13  2  0
 13 14  1  0
 15  6  1  0
 16 17  2  0
 16 15  1  0
 18 17  1  0
 19 18  2  0
 20 19  1  0
 20 16  1  0
 21 25  1  0
 21 19  1  0
 22 21  2  0
 23 22  1  0
 23 24  1  0
 24 25  2  0
  2 26  1  0
  3 27  1  0
  9 28  1  0
 10 29  1  0
 13 30  1  0
 15 31  1  0
 15 32  1  0
 17 33  1  0
 18 34  1  0
 22 35  1  0
 24 36  1  0
M  ISO  8  26  14  27  14  28  14  29  14  30  14  31   8  32   8  33  14
M  ISO  3  34  14  35  14  36  14
M  END
>  <minimizedAffinity>  (1) 
-5.7847743

>  <minimizedRMSD>  (1) 
5.43450689

$$$$
