
     RDKit          3D

 43 46  0  0  0  0  0  0  0  0999 V2000
   46.6390   34.1210   42.1920 N   0  0  0  0  0  0  0  0  0  0  0  0
   47.5750   35.0820   41.8570 C   0  0  0  0  0  0  0  0  0  0  0  0
   48.3650   34.9420   40.7270 C   0  0  0  0  0  0  0  0  0  0  0  0
   48.1800   33.7940   39.9390 C   0  0  0  0  0  0  0  0  0  0  0  0
   48.8830   33.6420   38.9100 O   0  0  0  0  0  0  0  0  0  0  0  0
   47.2470   32.9130   40.3440 N   0  0  0  0  0  0  0  0  0  0  0  0
   46.5080   33.0770   41.4300 C   0  0  0  0  0  0  0  0  0  0  0  0
   45.6530   32.2980   41.8240 O   0  0  0  0  0  0  0  0  0  0  0  0
   44.4930   36.0220   44.5190 C   0  0  0  0  0  0  0  0  0  0  0  0
   45.1660   35.6450   43.3510 C   0  0  0  0  0  0  0  0  0  0  0  0
   45.9600   34.4880   43.3850 C   0  0  0  0  0  0  0  0  0  0  0  0
   46.0490   33.7780   44.5410 N   0  0  0  0  0  0  0  0  0  0  0  0
   45.3690   34.1910   45.6530 C   0  0  0  0  0  0  0  0  0  0  0  0
   44.6010   35.2940   45.6490 N   0  0  0  0  0  0  0  0  0  0  0  0
   47.0540   31.7170   39.5210 C   0  0  0  0  0  0  0  0  0  0  0  0
   46.6800   31.9700   38.1630 C   0  0  0  0  0  0  0  0  0  0  0  0
   45.7370   32.7040   37.5580 C   0  0  0  0  0  0  0  0  0  0  0  0
   45.5910   32.7600   36.2110 C   0  0  0  0  0  0  0  0  0  0  0  0
   46.5080   31.9890   35.4510 C   0  0  0  0  0  0  0  0  0  0  0  0
   47.5430   31.2140   36.8010 S   0  0  0  0  0  0  0  0  0  0  0  0
   46.6980   31.7720   34.0450 C   0  0  0  0  0  0  0  0  0  0  0  0
   46.8470   30.3070   33.7590 C   0  0  0  0  0  0  0  0  0  0  0  0
   47.4620   30.3580   32.3540 C   0  0  0  0  0  0  0  0  0  0  0  0
   48.3340   31.6060   32.3640 C   0  0  0  0  0  0  0  0  0  0  0  0
   48.0200   32.3340   33.6530 C   0  0  0  0  0  0  0  0  0  0  0  0
   47.6942   35.9695   42.4959 H   0  0  0  0  0  0  0  0  0  0  0  0
   49.1112   35.7036   40.4565 H   0  0  0  0  0  0  0  0  0  0  0  0
   43.8664   36.9260   44.5151 H   0  0  0  0  0  0  0  0  0  0  0  0
   45.0750   36.2400   42.4303 H   0  0  0  0  0  0  0  0  0  0  0  0
   45.4530   33.6028   46.5787 H   0  0  0  0  0  0  0  0  0  0  0  0
   47.9973   31.1512   39.5152 H   0  0  0  0  0  0  0  0  0  0  0  0
   46.2161   31.1656   39.9725 H   0  0  0  0  0  0  0  0  0  0  0  0
   45.0477   33.2896   38.1840 H   0  0  0  0  0  0  0  0  0  0  0  0
   44.8072   33.3678   35.7353 H   0  0  0  0  0  0  0  0  0  0  0  0
   45.8424   32.2204   33.5188 H   0  0  0  0  0  0  0  0  0  0  0  0
   47.5198   29.8189   34.4794 H   0  0  0  0  0  0  0  0  0  0  0  0
   45.9141   29.7286   33.8305 H   0  0  0  0  0  0  0  0  0  0  0  0
   46.6763   30.4389   31.5884 H   0  0  0  0  0  0  0  0  0  0  0  0
   48.0347   29.4497   32.1151 H   0  0  0  0  0  0  0  0  0  0  0  0
   49.3977   31.3275   32.3334 H   0  0  0  0  0  0  0  0  0  0  0  0
   48.1338   32.2403   31.4879 H   0  0  0  0  0  0  0  0  0  0  0  0
   48.7807   32.1254   34.4197 H   0  0  0  0  0  0  0  0  0  0  0  0
   48.0083   33.4281   33.5398 H   0  0  0  0  0  0  0  0  0  0  0  0
  1 11  1  0
  2  1  1  0
  3  2  2  0
  4  6  1  0
  4  3  1  0
  5  4  2  0
  6  7  1  0
  7  8  2  0
  7  1  1  0
  9 14  2  0
 10 11  2  0
 10  9  1  0
 11 12  1  0
 12 13  2  0
 14 13  1  0
 15  6  1  0
 16 15  1  0
 17 16  2  0
 18 17  1  0
 19 18  2  0
 19 20  1  0
 20 16  1  0
 21 19  1  0
 22 21  1  0
 23 24  1  0
 23 22  1  0
 24 25  1  0
 25 21  1  0
  2 26  1  0
  3 27  1  0
  9 28  1  0
 10 29  1  0
 13 30  1  0
 15 31  1  0
 15 32  1  0
 17 33  1  0
 18 34  1  0
 21 35  1  0
 22 36  1  0
 22 37  1  0
 23 38  1  0
 23 39  1  0
 24 40  1  0
 24 41  1  0
 25 42  1  0
 25 43  1  0
M  ISO  8  26  14  27  14  28  14  29  14  30  14  31   8  32   8  33  14
M  ISO  8  34  14  35  13  36  13  37  13  38  13  39  13  40  13  41  13
M  ISO  2  42  13  43  13
M  END
>  <minimizedAffinity>  (1) 
-5.46715403

>  <minimizedRMSD>  (1) 
1.4585917

$$$$
