
     RDKit          3D

 44 47  0  0  0  0  0  0  0  0999 V2000
   47.7410   33.6630   42.8270 N   0  0  0  0  0  0  0  0  0  0  0  0
   48.9030   34.3730   43.0110 C   0  0  0  0  0  0  0  0  0  0  0  0
   50.0970   33.9430   42.4550 C   0  0  0  0  0  0  0  0  0  0  0  0
   50.0800   32.7580   41.6990 C   0  0  0  0  0  0  0  0  0  0  0  0
   51.1440   32.3450   41.1850 O   0  0  0  0  0  0  0  0  0  0  0  0
   48.9090   32.1340   41.5710 N   0  0  0  0  0  0  0  0  0  0  0  0
   47.7730   32.5670   42.1140 C   0  0  0  0  0  0  0  0  0  0  0  0
   46.6760   32.0270   42.0190 O   0  0  0  0  0  0  0  0  0  0  0  0
   44.9940   36.0400   43.4830 C   0  0  0  0  0  0  0  0  0  0  0  0
   46.0630   35.3930   42.8410 C   0  0  0  0  0  0  0  0  0  0  0  0
   46.6650   34.3020   43.4940 C   0  0  0  0  0  0  0  0  0  0  0  0
   46.1920   33.9260   44.7020 N   0  0  0  0  0  0  0  0  0  0  0  0
   45.1560   34.5760   45.2910 C   0  0  0  0  0  0  0  0  0  0  0  0
   44.5580   35.6350   44.6760 N   0  0  0  0  0  0  0  0  0  0  0  0
   48.8640   30.8900   40.7840 C   0  0  0  0  0  0  0  0  0  0  0  0
   48.4380   31.0530   39.4320 C   0  0  0  0  0  0  0  0  0  0  0  0
   48.9780   31.6000   38.3100 C   0  0  0  0  0  0  0  0  0  0  0  0
   48.3100   31.6030   37.1270 C   0  0  0  0  0  0  0  0  0  0  0  0
   47.0250   31.0140   37.1050 C   0  0  0  0  0  0  0  0  0  0  0  0
   46.8490   30.4590   38.8910 S   0  0  0  0  0  0  0  0  0  0  0  0
   46.2270   30.9400   35.9920 N   0  0  0  0  0  0  0  0  0  0  0  0
   45.9940   32.2870   35.4420 C   0  0  0  0  0  0  0  0  0  0  0  0
   45.2640   32.2030   34.1250 C   0  0  0  0  0  0  0  0  0  0  0  0
   44.0610   31.4540   34.2920 N   0  0  0  0  0  0  0  0  0  0  0  0
   44.2540   30.1180   34.7450 C   0  0  0  0  0  0  0  0  0  0  0  0
   45.6080   29.8100   35.3110 C   0  0  0  0  0  0  0  0  0  0  0  0
   48.8850   35.2964   43.6085 H   0  0  0  0  0  0  0  0  0  0  0  0
   51.0280   34.5105   42.6004 H   0  0  0  0  0  0  0  0  0  0  0  0
   44.5079   36.8962   42.9925 H   0  0  0  0  0  0  0  0  0  0  0  0
   46.4190   35.7297   41.8562 H   0  0  0  0  0  0  0  0  0  0  0  0
   44.7951   34.2442   46.2757 H   0  0  0  0  0  0  0  0  0  0  0  0
   49.8740   30.4542   40.7745 H   0  0  0  0  0  0  0  0  0  0  0  0
   48.1173   30.2436   41.2684 H   0  0  0  0  0  0  0  0  0  0  0  0
   49.9800   32.0510   38.3616 H   0  0  0  0  0  0  0  0  0  0  0  0
   48.7515   32.0461   36.2222 H   0  0  0  0  0  0  0  0  0  0  0  0
   45.3899   32.8687   36.1538 H   0  0  0  0  0  0  0  0  0  0  0  0
   46.9654   32.7766   35.2787 H   0  0  0  0  0  0  0  0  0  0  0  0
   45.9049   31.7056   33.3822 H   0  0  0  0  0  0  0  0  0  0  0  0
   45.0178   33.2175   33.7782 H   0  0  0  0  0  0  0  0  0  0  0  0
   43.4699   31.9440   34.9786 H   0  0  0  0  0  0  0  0  0  0  0  0
   43.5073   29.9156   35.5270 H   0  0  0  0  0  0  0  0  0  0  0  0
   44.1514   29.4824   33.8531 H   0  0  0  0  0  0  0  0  0  0  0  0
   45.5044   28.9846   36.0307 H   0  0  0  0  0  0  0  0  0  0  0  0
   46.2593   29.5478   34.4642 H   0  0  0  0  0  0  0  0  0  0  0  0
  1  2  1  0
  1 11  1  0
  3  2  2  0
  4  3  1  0
  5  4  2  0
  6  4  1  0
  6  7  1  0
  7  1  1  0
  8  7  2  0
  9 14  2  0
 10  9  1  0
 10 11  2  0
 11 12  1  0
 12 13  2  0
 14 13  1  0
 15  6  1  0
 16 15  1  0
 17 16  2  0
 18 17  1  0
 19 18  2  0
 19 20  1  0
 20 16  1  0
 21 19  1  0
 22 21  1  0
 23 24  1  0
 23 22  1  0
 24 25  1  0
 25 26  1  0
 26 21  1  0
  2 27  1  0
  3 28  1  0
  9 29  1  0
 10 30  1  0
 13 31  1  0
 15 32  1  0
 15 33  1  0
 17 34  1  0
 18 35  1  0
 22 36  1  0
 22 37  1  0
 23 38  1  0
 23 39  1  0
 24 40  1  0
 25 41  1  0
 25 42  1  0
 26 43  1  0
 26 44  1  0
M  ISO  8  27  14  28  14  29  14  30  14  31  14  32   8  33   8  34  14
M  ISO  8  35  14  36  13  37  13  38  13  39  13  40   5  41  13  42  13
M  ISO  2  43  13  44  13
M  END
>  <minimizedAffinity>  (1) 
-5.40805817

>  <minimizedRMSD>  (1) 
2.45264196

$$$$
