
     RDKit          3D

 37 40  0  0  0  0  0  0  0  0999 V2000
   47.2950   33.0780   43.4060 N   0  0  0  0  0  0  0  0  0  0  0  0
   48.2530   34.0670   43.4720 C   0  0  0  0  0  0  0  0  0  0  0  0
   48.6410   34.7590   42.3420 C   0  0  0  0  0  0  0  0  0  0  0  0
   48.0260   34.4160   41.1200 C   0  0  0  0  0  0  0  0  0  0  0  0
   48.3590   35.0280   40.0780 O   0  0  0  0  0  0  0  0  0  0  0  0
   47.1080   33.4470   41.1410 N   0  0  0  0  0  0  0  0  0  0  0  0
   46.7560   32.7980   42.2580 C   0  0  0  0  0  0  0  0  0  0  0  0
   45.9210   31.9040   42.3230 O   0  0  0  0  0  0  0  0  0  0  0  0
   46.1170   32.7280   46.8920 C   0  0  0  0  0  0  0  0  0  0  0  0
   46.3380   33.2760   45.6150 C   0  0  0  0  0  0  0  0  0  0  0  0
   47.0730   32.5200   44.6960 C   0  0  0  0  0  0  0  0  0  0  0  0
   47.5450   31.2880   45.0660 N   0  0  0  0  0  0  0  0  0  0  0  0
   47.3030   30.8100   46.3090 C   0  0  0  0  0  0  0  0  0  0  0  0
   46.6020   31.5070   47.2210 N   0  0  0  0  0  0  0  0  0  0  0  0
   46.4590   33.0750   39.8930 C   0  0  0  0  0  0  0  0  0  0  0  0
   45.0900   33.5050   39.7760 C   0  0  0  0  0  0  0  0  0  0  0  0
   44.3290   34.4460   40.3560 C   0  0  0  0  0  0  0  0  0  0  0  0
   43.0190   34.6320   40.0410 C   0  0  0  0  0  0  0  0  0  0  0  0
   42.4920   33.7710   39.0580 C   0  0  0  0  0  0  0  0  0  0  0  0
   43.9500   32.7130   38.6290 S   0  0  0  0  0  0  0  0  0  0  0  0
   41.1830   33.6980   38.5060 C   0  0  0  0  0  0  0  0  0  0  0  0
   40.3700   34.7370   38.1830 C   0  0  0  0  0  0  0  0  0  0  0  0
   39.1470   34.4170   37.6630 C   0  0  0  0  0  0  0  0  0  0  0  0
   38.8240   33.0400   37.5000 C   0  0  0  0  0  0  0  0  0  0  0  0
   40.4280   32.2610   38.1610 S   0  0  0  0  0  0  0  0  0  0  0  0
   48.7157   34.3087   44.4403 H   0  0  0  0  0  0  0  0  0  0  0  0
   49.4033   35.5504   42.3930 H   0  0  0  0  0  0  0  0  0  0  0  0
   45.5414   33.3001   47.6346 H   0  0  0  0  0  0  0  0  0  0  0  0
   45.9450   34.2680   45.3478 H   0  0  0  0  0  0  0  0  0  0  0  0
   47.6927   29.8183   46.5824 H   0  0  0  0  0  0  0  0  0  0  0  0
   47.0298   33.5191   39.0642 H   0  0  0  0  0  0  0  0  0  0  0  0
   46.4429   31.9754   39.8666 H   0  0  0  0  0  0  0  0  0  0  0  0
   44.7842   35.0947   41.1189 H   0  0  0  0  0  0  0  0  0  0  0  0
   42.4076   35.4081   40.5247 H   0  0  0  0  0  0  0  0  0  0  0  0
   40.6797   35.7819   38.3321 H   0  0  0  0  0  0  0  0  0  0  0  0
   38.4315   35.2024   37.3781 H   0  0  0  0  0  0  0  0  0  0  0  0
   37.9129   32.5654   37.1067 H   0  0  0  0  0  0  0  0  0  0  0  0
  1  2  1  0
  1 11  1  0
  3  2  2  0
  4  6  1  0
  4  3  1  0
  5  4  2  0
  6  7  1  0
  7  8  2  0
  7  1  1  0
  9 14  2  0
 10  9  1  0
 11 12  1  0
 11 10  2  0
 12 13  2  0
 13 14  1  0
 15  6  1  0
 16 15  1  0
 16 17  2  0
 18 17  1  0
 19 18  2  0
 20 19  1  0
 20 16  1  0
 21 19  1  0
 22 21  2  0
 23 22  1  0
 24 23  2  0
 24 25  1  0
 25 21  1  0
  2 26  1  0
  3 27  1  0
  9 28  1  0
 10 29  1  0
 13 30  1  0
 15 31  1  0
 15 32  1  0
 17 33  1  0
 18 34  1  0
 22 35  1  0
 23 36  1  0
 24 37  1  0
M  ISO  8  26  14  27  14  28  14  29  14  30  14  31   8  32   8  33  14
M  ISO  4  34  14  35  14  36  14  37  14
M  END
>  <minimizedAffinity>  (1) 
-5.34803486

>  <minimizedRMSD>  (1) 
3.84182262

$$$$
