
     RDKit          3D

 39 41  0  0  0  0  0  0  0  0999 V2000
   46.6490   34.0970   42.3150 N   0  0  0  0  0  0  0  0  0  0  0  0
   47.5500   35.0880   41.9720 C   0  0  0  0  0  0  0  0  0  0  0  0
   48.3320   34.9740   40.8320 C   0  0  0  0  0  0  0  0  0  0  0  0
   48.1780   33.8220   40.0420 C   0  0  0  0  0  0  0  0  0  0  0  0
   48.8720   33.6930   39.0070 O   0  0  0  0  0  0  0  0  0  0  0  0
   47.2840   32.9100   40.4440 N   0  0  0  0  0  0  0  0  0  0  0  0
   46.5440   33.0510   41.5520 C   0  0  0  0  0  0  0  0  0  0  0  0
   45.7160   32.2430   41.9560 O   0  0  0  0  0  0  0  0  0  0  0  0
   44.4660   35.9210   44.6670 C   0  0  0  0  0  0  0  0  0  0  0  0
   45.1430   35.5660   43.4950 C   0  0  0  0  0  0  0  0  0  0  0  0
   45.9680   34.4390   43.5190 C   0  0  0  0  0  0  0  0  0  0  0  0
   46.0900   33.7260   44.6720 N   0  0  0  0  0  0  0  0  0  0  0  0
   45.4110   34.1120   45.7880 C   0  0  0  0  0  0  0  0  0  0  0  0
   44.6080   35.1920   45.7970 N   0  0  0  0  0  0  0  0  0  0  0  0
   47.1010   31.7050   39.6500 C   0  0  0  0  0  0  0  0  0  0  0  0
   46.3140   31.8840   38.4620 C   0  0  0  0  0  0  0  0  0  0  0  0
   45.0440   32.2200   38.2060 C   0  0  0  0  0  0  0  0  0  0  0  0
   44.5510   32.3140   36.9450 C   0  0  0  0  0  0  0  0  0  0  0  0
   45.4460   32.0400   35.8800 C   0  0  0  0  0  0  0  0  0  0  0  0
   47.0050   31.6490   36.8150 S   0  0  0  0  0  0  0  0  0  0  0  0
   45.4340   32.0000   34.4510 C   0  0  0  0  0  0  0  0  0  0  0  0
   44.6560   30.7750   33.9600 C   0  0  0  0  0  0  0  0  0  0  0  0
   46.8050   31.9240   33.8600 C   0  0  0  0  0  0  0  0  0  0  0  0
   47.6479   35.9779   42.6111 H   0  0  0  0  0  0  0  0  0  0  0  0
   49.0498   35.7602   40.5552 H   0  0  0  0  0  0  0  0  0  0  0  0
   43.8101   36.8041   44.6691 H   0  0  0  0  0  0  0  0  0  0  0  0
   45.0283   36.1603   42.5765 H   0  0  0  0  0  0  0  0  0  0  0  0
   45.5224   33.5229   46.7102 H   0  0  0  0  0  0  0  0  0  0  0  0
   48.0937   31.3371   39.3514 H   0  0  0  0  0  0  0  0  0  0  0  0
   46.5498   30.9952   40.2843 H   0  0  0  0  0  0  0  0  0  0  0  0
   44.3725   32.4284   39.0520 H   0  0  0  0  0  0  0  0  0  0  0  0
   43.5030   32.5906   36.7574 H   0  0  0  0  0  0  0  0  0  0  0  0
   44.9579   32.9374   34.1276 H   0  0  0  0  0  0  0  0  0  0  0  0
   44.2916   30.2012   34.8249 H   0  0  0  0  0  0  0  0  0  0  0  0
   43.8007   31.1036   33.3513 H   0  0  0  0  0  0  0  0  0  0  0  0
   45.3171   30.1406   33.3513 H   0  0  0  0  0  0  0  0  0  0  0  0
   47.5507   31.8827   34.6676 H   0  0  0  0  0  0  0  0  0  0  0  0
   46.8869   31.0199   33.2387 H   0  0  0  0  0  0  0  0  0  0  0  0
   46.9863   32.8135   33.2387 H   0  0  0  0  0  0  0  0  0  0  0  0
  1 11  1  0
  2  1  1  0
  3  2  2  0
  4  6  1  0
  4  3  1  0
  5  4  2  0
  6  7  1  0
  7  8  2  0
  7  1  1  0
  9 14  2  0
 10 11  2  0
 10  9  1  0
 11 12  1  0
 12 13  2  0
 13 14  1  0
 15  6  1  0
 16 15  1  0
 17 16  2  0
 18 17  1  0
 19 20  1  0
 19 18  2  0
 20 16  1  0
 21 19  1  0
 22 21  1  0
 23 21  1  0
  2 24  1  0
  3 25  1  0
  9 26  1  0
 10 27  1  0
 13 28  1  0
 15 29  1  0
 15 30  1  0
 17 31  1  0
 18 32  1  0
 21 33  1  0
 22 34  1  0
 22 35  1  0
 22 36  1  0
 23 37  1  0
 23 38  1  0
 23 39  1  0
M  ISO  8  24  14  25  14  26  14  27  14  28  14  29   8  30   8  31  14
M  ISO  8  32  14  33   8  34   8  35   8  36   8  37   8  38   8  39   8
M  END
>  <minimizedAffinity>  (1) 
-4.94005013

>  <minimizedRMSD>  (1) 
0.493206948

$$$$
