
     RDKit          3D

 42 44  0  0  0  0  0  0  0  0999 V2000
   46.6370   33.9920   42.3780 N   0  0  0  0  0  0  0  0  0  0  0  0
   47.4580   35.0010   41.9240 C   0  0  0  0  0  0  0  0  0  0  0  0
   48.2290   34.8430   40.7860 C   0  0  0  0  0  0  0  0  0  0  0  0
   48.1470   33.6180   40.1050 C   0  0  0  0  0  0  0  0  0  0  0  0
   48.8340   33.4460   39.0720 O   0  0  0  0  0  0  0  0  0  0  0  0
   47.3260   32.6900   40.6130 N   0  0  0  0  0  0  0  0  0  0  0  0
   46.5990   32.8770   41.7110 C   0  0  0  0  0  0  0  0  0  0  0  0
   45.8350   32.0480   42.2040 O   0  0  0  0  0  0  0  0  0  0  0  0
   44.4720   35.9470   44.6390 C   0  0  0  0  0  0  0  0  0  0  0  0
   45.1540   35.5360   43.4760 C   0  0  0  0  0  0  0  0  0  0  0  0
   45.9560   34.3900   43.5520 C   0  0  0  0  0  0  0  0  0  0  0  0
   46.0470   33.7210   44.7410 N   0  0  0  0  0  0  0  0  0  0  0  0
   45.3690   34.1550   45.8420 C   0  0  0  0  0  0  0  0  0  0  0  0
   44.5900   35.2590   45.7860 N   0  0  0  0  0  0  0  0  0  0  0  0
   47.2200   31.4050   39.9220 C   0  0  0  0  0  0  0  0  0  0  0  0
   46.2810   31.3790   38.8420 C   0  0  0  0  0  0  0  0  0  0  0  0
   44.9580   31.5630   38.7330 C   0  0  0  0  0  0  0  0  0  0  0  0
   44.2970   31.4630   37.5320 C   0  0  0  0  0  0  0  0  0  0  0  0
   45.0910   31.1560   36.4120 C   0  0  0  0  0  0  0  0  0  0  0  0
   46.7960   31.0210   37.1600 S   0  0  0  0  0  0  0  0  0  0  0  0
   44.8820   30.9430   34.9730 C   0  0  0  0  0  0  0  0  0  0  0  0
   43.4500   30.6290   34.6260 C   0  0  0  0  0  0  0  0  0  0  0  0
   45.2750   32.1810   34.1720 C   0  0  0  0  0  0  0  0  0  0  0  0
   45.7480   29.8250   34.4310 C   0  0  0  0  0  0  0  0  0  0  0  0
   47.5014   35.9508   42.4771 H   0  0  0  0  0  0  0  0  0  0  0  0
   48.8843   35.6502   40.4268 H   0  0  0  0  0  0  0  0  0  0  0  0
   43.8348   36.8430   44.6066 H   0  0  0  0  0  0  0  0  0  0  0  0
   45.0592   36.0989   42.5357 H   0  0  0  0  0  0  0  0  0  0  0  0
   45.4570   33.5999   46.7876 H   0  0  0  0  0  0  0  0  0  0  0  0
   48.2115   31.1503   39.5194 H   0  0  0  0  0  0  0  0  0  0  0  0
   46.8548   30.6825   40.6668 H   0  0  0  0  0  0  0  0  0  0  0  0
   44.3800   31.8028   39.6377 H   0  0  0  0  0  0  0  0  0  0  0  0
   43.2104   31.6142   37.4513 H   0  0  0  0  0  0  0  0  0  0  0  0
   42.8681   30.5014   35.5508 H   0  0  0  0  0  0  0  0  0  0  0  0
   43.0258   31.4555   34.0369 H   0  0  0  0  0  0  0  0  0  0  0  0
   43.4105   29.7009   34.0369 H   0  0  0  0  0  0  0  0  0  0  0  0
   45.5341   32.9973   34.8623 H   0  0  0  0  0  0  0  0  0  0  0  0
   46.1431   31.9473   33.5382 H   0  0  0  0  0  0  0  0  0  0  0  0
   44.4310   32.4908   33.5382 H   0  0  0  0  0  0  0  0  0  0  0  0
   46.1849   29.2609   35.2682 H   0  0  0  0  0  0  0  0  0  0  0  0
   45.1340   29.1510   33.8156 H   0  0  0  0  0  0  0  0  0  0  0  0
   46.5541   30.2510   33.8156 H   0  0  0  0  0  0  0  0  0  0  0  0
  1 11  1  0
  2  1  1  0
  3  2  2  0
  4  6  1  0
  4  3  1  0
  5  4  2  0
  6  7  1  0
  7  8  2  0
  7  1  1  0
  9 14  2  0
 10 11  2  0
 10  9  1  0
 11 12  1  0
 12 13  2  0
 14 13  1  0
 15  6  1  0
 16 15  1  0
 17 16  2  0
 18 17  1  0
 19 20  1  0
 19 18  2  0
 20 16  1  0
 21 19  1  0
 22 21  1  0
 23 21  1  0
 24 21  1  0
  2 25  1  0
  3 26  1  0
  9 27  1  0
 10 28  1  0
 13 29  1  0
 15 30  1  0
 15 31  1  0
 17 32  1  0
 18 33  1  0
 22 34  1  0
 22 35  1  0
 22 36  1  0
 23 37  1  0
 23 38  1  0
 23 39  1  0
 24 40  1  0
 24 41  1  0
 24 42  1  0
M  ISO  8  25  14  26  14  27  14  28  14  29  14  30   8  31   8  32  14
M  ISO  8  33  14  34   8  35   8  36   8  37   8  38   8  39   8  40   8
M  ISO  2  41   8  42   8
M  END
>  <minimizedAffinity>  (1) 
-4.85768604

>  <minimizedRMSD>  (1) 
0.41583392

$$$$
