
     RDKit          3D

 31 33  0  0  0  0  0  0  0  0999 V2000
   46.6410   34.0600   42.3290 N   0  0  0  0  0  0  0  0  0  0  0  0
   47.5060   35.0600   41.9390 C   0  0  0  0  0  0  0  0  0  0  0  0
   48.2870   34.9280   40.7990 C   0  0  0  0  0  0  0  0  0  0  0  0
   48.1670   33.7440   40.0600 C   0  0  0  0  0  0  0  0  0  0  0  0
   48.8570   33.5930   39.0260 O   0  0  0  0  0  0  0  0  0  0  0  0
   47.3060   32.8190   40.5020 N   0  0  0  0  0  0  0  0  0  0  0  0
   46.5700   32.9830   41.6040 C   0  0  0  0  0  0  0  0  0  0  0  0
   45.7690   32.1590   42.0440 O   0  0  0  0  0  0  0  0  0  0  0  0
   44.4760   35.9290   44.6540 C   0  0  0  0  0  0  0  0  0  0  0  0
   45.1530   35.5530   43.4790 C   0  0  0  0  0  0  0  0  0  0  0  0
   45.9610   34.4280   43.5120 C   0  0  0  0  0  0  0  0  0  0  0  0
   46.0650   33.7340   44.6870 N   0  0  0  0  0  0  0  0  0  0  0  0
   45.3940   34.1290   45.8010 C   0  0  0  0  0  0  0  0  0  0  0  0
   44.6020   35.2250   45.7820 N   0  0  0  0  0  0  0  0  0  0  0  0
   47.1620   31.5760   39.7500 C   0  0  0  0  0  0  0  0  0  0  0  0
   46.3470   31.6790   38.5680 C   0  0  0  0  0  0  0  0  0  0  0  0
   45.1270   32.1580   38.2890 C   0  0  0  0  0  0  0  0  0  0  0  0
   44.6000   32.1130   37.0390 C   0  0  0  0  0  0  0  0  0  0  0  0
   45.4080   31.5310   36.0330 C   0  0  0  0  0  0  0  0  0  0  0  0
   46.9300   31.0680   36.9880 S   0  0  0  0  0  0  0  0  0  0  0  0
   44.9090   31.3640   34.2920 S   0  0  0  0  0  0  0  0  0  0  0  0
   47.5786   35.9777   42.5411 H   0  0  0  0  0  0  0  0  0  0  0  0
   48.9766   35.7260   40.4866 H   0  0  0  0  0  0  0  0  0  0  0  0
   43.8307   36.8198   44.6432 H   0  0  0  0  0  0  0  0  0  0  0  0
   45.0431   36.1393   42.5548 H   0  0  0  0  0  0  0  0  0  0  0  0
   45.4965   33.5495   46.7304 H   0  0  0  0  0  0  0  0  0  0  0  0
   48.1648   31.2410   39.4466 H   0  0  0  0  0  0  0  0  0  0  0  0
   46.6522   30.8661   40.4180 H   0  0  0  0  0  0  0  0  0  0  0  0
   44.5324   32.6028   39.1006 H   0  0  0  0  0  0  0  0  0  0  0  0
   43.5973   32.5082   36.8192 H   0  0  0  0  0  0  0  0  0  0  0  0
   43.6112   30.9297   34.2286 H   0  0  0  0  0  0  0  0  0  0  0  0
  1 11  1  0
  2  1  1  0
  3  2  2  0
  4  6  1  0
  4  3  1  0
  5  4  2  0
  6  7  1  0
  7  8  2  0
  7  1  1  0
  9 14  2  0
 10 11  2  0
 10  9  1  0
 11 12  1  0
 12 13  2  0
 14 13  1  0
 15  6  1  0
 16 15  1  0
 17 16  2  0
 18 17  1  0
 19 20  1  0
 19 18  2  0
 20 16  1  0
 21 19  1  0
  2 22  1  0
  3 23  1  0
  9 24  1  0
 10 25  1  0
 13 26  1  0
 15 27  1  0
 15 28  1  0
 17 29  1  0
 18 30  1  0
 21 31  1  0
M  ISO  8  22  14  23  14  24  14  25  14  26  14  27   8  28   8  29  14
M  ISO  2  30  14  31  11
M  END
>  <minimizedAffinity>  (1) 
-4.69719028

>  <minimizedRMSD>  (1) 
0.351556838

$$$$
