
     RDKit          3D

 37 40  0  0  0  0  0  0  0  0999 V2000
   47.6100   33.7190   42.5450 N   0  0  0  0  0  0  0  0  0  0  0  0
   48.8500   34.1390   42.9650 C   0  0  0  0  0  0  0  0  0  0  0  0
   50.0080   33.6480   42.3850 C   0  0  0  0  0  0  0  0  0  0  0  0
   49.8780   32.7070   41.3550 C   0  0  0  0  0  0  0  0  0  0  0  0
   50.9100   32.2470   40.8160 O   0  0  0  0  0  0  0  0  0  0  0  0
   48.6260   32.3450   41.0020 N   0  0  0  0  0  0  0  0  0  0  0  0
   47.5330   32.8370   41.5790 C   0  0  0  0  0  0  0  0  0  0  0  0
   46.3850   32.5390   41.2920 O   0  0  0  0  0  0  0  0  0  0  0  0
   45.0060   36.1640   43.4620 C   0  0  0  0  0  0  0  0  0  0  0  0
   46.0200   35.5190   42.7410 C   0  0  0  0  0  0  0  0  0  0  0  0
   46.5860   34.3590   43.2850 C   0  0  0  0  0  0  0  0  0  0  0  0
   46.1330   33.9020   44.4930 N   0  0  0  0  0  0  0  0  0  0  0  0
   45.1450   34.5600   45.1640 C   0  0  0  0  0  0  0  0  0  0  0  0
   44.5880   35.6890   44.6400 N   0  0  0  0  0  0  0  0  0  0  0  0
   48.4630   31.3700   39.9330 C   0  0  0  0  0  0  0  0  0  0  0  0
   48.4640   31.9280   38.6110 C   0  0  0  0  0  0  0  0  0  0  0  0
   48.4850   33.1710   38.1050 C   0  0  0  0  0  0  0  0  0  0  0  0
   48.4700   33.4170   36.7570 C   0  0  0  0  0  0  0  0  0  0  0  0
   48.4330   32.2790   35.9190 C   0  0  0  0  0  0  0  0  0  0  0  0
   48.4200   30.8840   37.1480 S   0  0  0  0  0  0  0  0  0  0  0  0
   48.4080   32.0870   34.5160 C   0  0  0  0  0  0  0  0  0  0  0  0
   48.9360   33.0150   33.6690 C   0  0  0  0  0  0  0  0  0  0  0  0
   48.7490   32.5240   32.3700 C   0  0  0  0  0  0  0  0  0  0  0  0
   48.1000   31.2960   32.5480 C   0  0  0  0  0  0  0  0  0  0  0  0
   47.9130   31.0710   33.8500 O   0  0  0  0  0  0  0  0  0  0  0  0
   48.9237   34.8782   43.7762 H   0  0  0  0  0  0  0  0  0  0  0  0
   50.9988   33.9862   42.7225 H   0  0  0  0  0  0  0  0  0  0  0  0
   44.5466   37.0756   43.0523 H   0  0  0  0  0  0  0  0  0  0  0  0
   46.3625   35.9135   41.7730 H   0  0  0  0  0  0  0  0  0  0  0  0
   44.7951   34.1776   46.1342 H   0  0  0  0  0  0  0  0  0  0  0  0
   49.2881   30.6456   40.0004 H   0  0  0  0  0  0  0  0  0  0  0  0
   47.4737   30.9113   40.0773 H   0  0  0  0  0  0  0  0  0  0  0  0
   48.5154   34.0243   38.7985 H   0  0  0  0  0  0  0  0  0  0  0  0
   48.4858   34.4392   36.3511 H   0  0  0  0  0  0  0  0  0  0  0  0
   49.4154   33.9642   33.9502 H   0  0  0  0  0  0  0  0  0  0  0  0
   49.0457   32.9973   31.4224 H   0  0  0  0  0  0  0  0  0  0  0  0
   47.7912   30.6194   31.7375 H   0  0  0  0  0  0  0  0  0  0  0  0
  1  2  1  0
  1 11  1  0
  3  2  2  0
  4  3  1  0
  5  4  2  0
  6  4  1  0
  6  7  1  0
  7  1  1  0
  8  7  2  0
  9 14  2  0
 10 11  2  0
 10  9  1  0
 11 12  1  0
 12 13  2  0
 14 13  1  0
 15  6  1  0
 16 15  1  0
 17 16  2  0
 18 17  1  0
 19 18  2  0
 19 20  1  0
 20 16  1  0
 21 19  1  0
 22 21  2  0
 23 24  2  0
 23 22  1  0
 24 25  1  0
 25 21  1  0
  2 26  1  0
  3 27  1  0
  9 28  1  0
 10 29  1  0
 13 30  1  0
 15 31  1  0
 15 32  1  0
 17 33  1  0
 18 34  1  0
 22 35  1  0
 23 36  1  0
 24 37  1  0
M  ISO  8  26  14  27  14  28  14  29  14  30  14  31   8  32   8  33  14
M  ISO  4  34  14  35  14  36  14  37  14
M  END
>  <minimizedAffinity>  (1) 
-5.51130104

>  <minimizedRMSD>  (1) 
2.78125453

$$$$
