
     RDKit          3D

 47 51  0  0  0  0  0  0  0  0999 V2000
   48.7210   31.7840   38.7770 C   0  0  0  0  0  0  0  0  0  0  0  0
   48.7830   32.9870   38.2060 C   0  0  0  0  0  0  0  0  0  0  0  0
   48.6350   33.1470   36.8540 C   0  0  0  0  0  0  0  0  0  0  0  0
   48.4170   31.9850   36.0990 C   0  0  0  0  0  0  0  0  0  0  0  0
   48.4330   30.6690   37.4050 S   0  0  0  0  0  0  0  0  0  0  0  0
   48.2210   31.7110   34.7250 C   0  0  0  0  0  0  0  0  0  0  0  0
   48.5620   32.6360   33.7700 C   0  0  0  0  0  0  0  0  0  0  0  0
   48.2510   32.0700   32.5340 C   0  0  0  0  0  0  0  0  0  0  0  0
   47.7260   30.7990   32.8480 C   0  0  0  0  0  0  0  0  0  0  0  0
   47.7320   30.6370   34.1750 O   0  0  0  0  0  0  0  0  0  0  0  0
   47.2660   29.8420   31.8990 N   0  0  0  0  0  0  0  0  0  0  0  0
   46.1000   29.2100   32.1260 C   0  0  0  0  0  0  0  0  0  0  0  0
   45.6780   28.2780   31.1740 C   0  0  0  0  0  0  0  0  0  0  0  0
   46.4480   28.0320   30.0490 C   0  0  0  0  0  0  0  0  0  0  0  0
   46.0670   27.1810   29.1760 O   0  0  0  0  0  0  0  0  0  0  0  0
   47.6050   28.7040   29.8890 N   0  0  0  0  0  0  0  0  0  0  0  0
   48.0080   29.6010   30.8090 C   0  0  0  0  0  0  0  0  0  0  0  0
   49.0920   30.1910   30.6020 O   0  0  0  0  0  0  0  0  0  0  0  0
   48.8290   31.2880   40.1290 C   0  0  0  0  0  0  0  0  0  0  0  0
   47.7780   33.7350   42.5760 N   0  0  0  0  0  0  0  0  0  0  0  0
   48.9820   34.2380   43.0040 C   0  0  0  0  0  0  0  0  0  0  0  0
   50.1750   33.7780   42.4890 C   0  0  0  0  0  0  0  0  0  0  0  0
   50.1250   32.7720   41.5100 C   0  0  0  0  0  0  0  0  0  0  0  0
   51.1870   32.3380   41.0280 O   0  0  0  0  0  0  0  0  0  0  0  0
   48.8980   32.3320   41.1450 N   0  0  0  0  0  0  0  0  0  0  0  0
   47.7750   32.8000   41.6630 C   0  0  0  0  0  0  0  0  0  0  0  0
   46.6530   32.4350   41.3670 O   0  0  0  0  0  0  0  0  0  0  0  0
   45.0640   36.1290   43.3000 C   0  0  0  0  0  0  0  0  0  0  0  0
   46.1300   35.4850   42.6530 C   0  0  0  0  0  0  0  0  0  0  0  0
   46.7010   34.3660   43.2510 C   0  0  0  0  0  0  0  0  0  0  0  0
   46.2070   33.9260   44.4540 N   0  0  0  0  0  0  0  0  0  0  0  0
   45.1660   34.5750   45.0590 C   0  0  0  0  0  0  0  0  0  0  0  0
   44.6050   35.6760   44.4720 N   0  0  0  0  0  0  0  0  0  0  0  0
   48.9571   33.8720   38.8356 H   0  0  0  0  0  0  0  0  0  0  0  0
   48.6847   34.1396   36.3825 H   0  0  0  0  0  0  0  0  0  0  0  0
   48.9965   33.6312   33.9456 H   0  0  0  0  0  0  0  0  0  0  0  0
   48.3851   32.5152   31.5371 H   0  0  0  0  0  0  0  0  0  0  0  0
   45.5024   29.4187   33.0256 H   0  0  0  0  0  0  0  0  0  0  0  0
   44.7308   27.7377   31.3185 H   0  0  0  0  0  0  0  0  0  0  0  0
   48.1858   28.5302   29.0563 H   0  0  0  0  0  0  0  0  0  0  0  0
   47.9496   30.6611   40.3377 H   0  0  0  0  0  0  0  0  0  0  0  0
   49.7744   30.7285   40.1859 H   0  0  0  0  0  0  0  0  0  0  0  0
   48.9947   35.0240   43.7735 H   0  0  0  0  0  0  0  0  0  0  0  0
   51.1365   34.1861   42.8340 H   0  0  0  0  0  0  0  0  0  0  0  0
   44.6017   37.0144   42.8391 H   0  0  0  0  0  0  0  0  0  0  0  0
   46.5076   35.8585   41.6897 H   0  0  0  0  0  0  0  0  0  0  0  0
   44.7783   34.2101   46.0216 H   0  0  0  0  0  0  0  0  0  0  0  0
  1 19  1  0
  2  1  2  0
  3  2  1  0
  4  3  2  0
  4  5  1  0
  5  1  1  0
  6  4  1  0
  7  6  2  0
  8  9  2  0
  8  7  1  0
  9 10  1  0
 10  6  1  0
 11 12  1  0
 11  9  1  0
 13 12  2  0
 14 13  1  0
 15 14  2  0
 16 14  1  0
 16 17  1  0
 17 11  1  0
 18 17  2  0
 19 25  1  0
 20 21  1  0
 20 30  1  0
 22 21  2  0
 23 22  1  0
 24 23  2  0
 25 23  1  0
 25 26  1  0
 26 20  1  0
 27 26  2  0
 28 33  2  0
 29 30  2  0
 29 28  1  0
 30 31  1  0
 31 32  2  0
 33 32  1  0
  2 34  1  0
  3 35  1  0
  7 36  1  0
  8 37  1  0
 12 38  1  0
 13 39  1  0
 16 40  1  0
 19 41  1  0
 19 42  1  0
 21 43  1  0
 22 44  1  0
 28 45  1  0
 29 46  1  0
 32 47  1  0
M  ISO  8  34  14  35  14  36  14  37  14  38  14  39  14  40   9  41   8
M  ISO  6  42   8  43  14  44  14  45  14  46  14  47  14
M  END
>  <minimizedAffinity>  (1) 
-6.70155573

>  <minimizedRMSD>  (1) 
0.854427636

$$$$
