
     RDKit          3D

 45 49  0  0  0  0  0  0  0  0999 V2000
   48.6260   31.4070   40.0750 C   0  0  0  0  0  0  0  0  0  0  0  0
   47.6510   33.7750   42.6290 N   0  0  0  0  0  0  0  0  0  0  0  0
   48.8820   34.2360   43.0640 C   0  0  0  0  0  0  0  0  0  0  0  0
   50.0560   33.7660   42.5140 C   0  0  0  0  0  0  0  0  0  0  0  0
   49.9700   32.8000   41.4940 C   0  0  0  0  0  0  0  0  0  0  0  0
   51.0190   32.3640   40.9870 O   0  0  0  0  0  0  0  0  0  0  0  0
   48.7360   32.4050   41.1280 N   0  0  0  0  0  0  0  0  0  0  0  0
   47.6210   32.8830   41.6830 C   0  0  0  0  0  0  0  0  0  0  0  0
   46.4930   32.5530   41.3820 O   0  0  0  0  0  0  0  0  0  0  0  0
   44.9780   36.1710   43.4700 C   0  0  0  0  0  0  0  0  0  0  0  0
   46.0200   35.5420   42.7740 C   0  0  0  0  0  0  0  0  0  0  0  0
   46.5970   34.4040   43.3400 C   0  0  0  0  0  0  0  0  0  0  0  0
   46.1300   33.9390   44.5500 N   0  0  0  0  0  0  0  0  0  0  0  0
   45.1140   34.5810   45.1930 C   0  0  0  0  0  0  0  0  0  0  0  0
   44.5470   35.6930   44.6450 N   0  0  0  0  0  0  0  0  0  0  0  0
   48.5750   31.9550   38.7380 C   0  0  0  0  0  0  0  0  0  0  0  0
   48.5270   33.1860   38.2240 C   0  0  0  0  0  0  0  0  0  0  0  0
   48.4840   33.3930   36.8770 C   0  0  0  0  0  0  0  0  0  0  0  0
   48.4920   32.2540   36.0580 C   0  0  0  0  0  0  0  0  0  0  0  0
   48.5650   30.8820   37.3040 S   0  0  0  0  0  0  0  0  0  0  0  0
   48.4600   32.0430   34.6550 C   0  0  0  0  0  0  0  0  0  0  0  0
   49.0160   32.9460   33.7900 C   0  0  0  0  0  0  0  0  0  0  0  0
   48.8000   32.4170   32.5000 C   0  0  0  0  0  0  0  0  0  0  0  0
   48.1200   31.2220   32.7040 C   0  0  0  0  0  0  0  0  0  0  0  0
   47.9390   31.0380   34.0080 O   0  0  0  0  0  0  0  0  0  0  0  0
   47.6840   30.3220   31.6410 C   0  0  0  0  0  0  0  0  0  0  0  0
   48.1700   30.4460   30.3640 C   0  0  0  0  0  0  0  0  0  0  0  0
   47.7000   29.5510   29.4290 C   0  0  0  0  0  0  0  0  0  0  0  0
   46.8150   28.6190   29.7660 N   0  0  0  0  0  0  0  0  0  0  0  0
   46.3280   28.4820   31.0090 C   0  0  0  0  0  0  0  0  0  0  0  0
   46.7880   29.3550   31.9190 N   0  0  0  0  0  0  0  0  0  0  0  0
   49.4979   30.7396   40.1406 H   0  0  0  0  0  0  0  0  0  0  0  0
   47.6727   30.8826   40.2368 H   0  0  0  0  0  0  0  0  0  0  0  0
   48.9243   34.9910   43.8629 H   0  0  0  0  0  0  0  0  0  0  0  0
   51.0317   34.1355   42.8625 H   0  0  0  0  0  0  0  0  0  0  0  0
   44.5076   37.0700   43.0451 H   0  0  0  0  0  0  0  0  0  0  0  0
   46.3729   35.9344   41.8089 H   0  0  0  0  0  0  0  0  0  0  0  0
   44.7499   34.2001   46.1586 H   0  0  0  0  0  0  0  0  0  0  0  0
   48.5220   34.0523   38.9019 H   0  0  0  0  0  0  0  0  0  0  0  0
   48.4448   34.4068   36.4519 H   0  0  0  0  0  0  0  0  0  0  0  0
   49.5247   33.8870   34.0466 H   0  0  0  0  0  0  0  0  0  0  0  0
   49.1045   32.8562   31.5386 H   0  0  0  0  0  0  0  0  0  0  0  0
   48.9011   31.2241   30.0994 H   0  0  0  0  0  0  0  0  0  0  0  0
   48.0612   29.6083   28.3916 H   0  0  0  0  0  0  0  0  0  0  0  0
   45.5965   27.7019   31.2664 H   0  0  0  0  0  0  0  0  0  0  0  0
  1  7  1  0
  2  3  1  0
  2 12  1  0
  4  3  2  0
  5  4  1  0
  6  5  2  0
  7  5  1  0
  7  8  1  0
  8  2  1  0
  9  8  2  0
 10 15  2  0
 11 12  2  0
 11 10  1  0
 12 13  1  0
 13 14  2  0
 15 14  1  0
 16  1  1  0
 17 16  2  0
 18 17  1  0
 19 18  2  0
 19 20  1  0
 20 16  1  0
 21 19  1  0
 22 21  2  0
 23 24  2  0
 23 22  1  0
 24 25  1  0
 25 21  1  0
 26 31  1  0
 26 24  1  0
 27 26  2  0
 28 29  2  0
 28 27  1  0
 29 30  1  0
 30 31  2  0
  1 32  1  0
  1 33  1  0
  3 34  1  0
  4 35  1  0
 10 36  1  0
 11 37  1  0
 14 38  1  0
 17 39  1  0
 18 40  1  0
 22 41  1  0
 23 42  1  0
 27 43  1  0
 28 44  1  0
 30 45  1  0
M  ISO  8  32   8  33   8  34  14  35  14  36  14  37  14  38  14  39  14
M  ISO  6  40  14  41  14  42  14  43  14  44  14  45  14
M  END
>  <minimizedAffinity>  (1) 
-6.51508427

>  <minimizedRMSD>  (1) 
0.159838602

$$$$
