
     RDKit          3D

 43 47  0  0  0  0  0  0  0  0999 V2000
   48.3630   31.3930   39.8010 C   0  0  0  0  0  0  0  0  0  0  0  0
   47.5670   33.7020   42.4720 N   0  0  0  0  0  0  0  0  0  0  0  0
   48.8290   34.0790   42.8970 C   0  0  0  0  0  0  0  0  0  0  0  0
   49.9670   33.5730   42.3020 C   0  0  0  0  0  0  0  0  0  0  0  0
   49.8180   32.6590   41.2490 C   0  0  0  0  0  0  0  0  0  0  0  0
   50.8230   32.1860   40.6940 O   0  0  0  0  0  0  0  0  0  0  0  0
   48.5460   32.3430   40.8960 N   0  0  0  0  0  0  0  0  0  0  0  0
   47.4760   32.8490   41.4870 C   0  0  0  0  0  0  0  0  0  0  0  0
   46.3230   32.5930   41.2020 O   0  0  0  0  0  0  0  0  0  0  0  0
   45.0180   36.1700   43.4510 C   0  0  0  0  0  0  0  0  0  0  0  0
   46.0070   35.5170   42.7130 C   0  0  0  0  0  0  0  0  0  0  0  0
   46.5650   34.3510   43.2310 C   0  0  0  0  0  0  0  0  0  0  0  0
   46.1250   33.8820   44.4460 N   0  0  0  0  0  0  0  0  0  0  0  0
   45.1580   34.5460   45.1380 C   0  0  0  0  0  0  0  0  0  0  0  0
   44.6130   35.6840   44.6320 N   0  0  0  0  0  0  0  0  0  0  0  0
   48.4020   31.9940   38.4870 C   0  0  0  0  0  0  0  0  0  0  0  0
   48.4390   33.2420   38.0190 C   0  0  0  0  0  0  0  0  0  0  0  0
   48.4680   33.5100   36.6760 C   0  0  0  0  0  0  0  0  0  0  0  0
   48.4590   32.4080   35.8100 C   0  0  0  0  0  0  0  0  0  0  0  0
   48.4060   30.9850   37.0110 S   0  0  0  0  0  0  0  0  0  0  0  0
   48.4820   32.2260   34.4000 C   0  0  0  0  0  0  0  0  0  0  0  0
   49.0190   33.2000   33.5960 C   0  0  0  0  0  0  0  0  0  0  0  0
   48.8860   32.7050   32.2840 C   0  0  0  0  0  0  0  0  0  0  0  0
   48.2670   31.4510   32.4170 C   0  0  0  0  0  0  0  0  0  0  0  0
   48.0450   31.2110   33.7120 O   0  0  0  0  0  0  0  0  0  0  0  0
   47.9100   30.5410   31.3820 N   0  0  0  0  0  0  0  0  0  0  0  0
   48.2730   30.7120   30.0960 C   0  0  0  0  0  0  0  0  0  0  0  0
   47.7800   29.6790   29.3650 N   0  0  0  0  0  0  0  0  0  0  0  0
   47.1100   28.8700   30.2080 C   0  0  0  0  0  0  0  0  0  0  0  0
   47.2150   29.4370   31.4430 N   0  0  0  0  0  0  0  0  0  0  0  0
   49.1620   30.6392   39.8602 H   0  0  0  0  0  0  0  0  0  0  0  0
   47.3598   30.9583   39.9219 H   0  0  0  0  0  0  0  0  0  0  0  0
   48.9271   34.7961   43.7254 H   0  0  0  0  0  0  0  0  0  0  0  0
   50.9662   33.8792   42.6454 H   0  0  0  0  0  0  0  0  0  0  0  0
   44.5666   37.0932   43.0587 H   0  0  0  0  0  0  0  0  0  0  0  0
   46.3385   35.9152   41.7427 H   0  0  0  0  0  0  0  0  0  0  0  0
   44.8167   34.1601   46.1099 H   0  0  0  0  0  0  0  0  0  0  0  0
   48.4464   34.0800   38.7315 H   0  0  0  0  0  0  0  0  0  0  0  0
   48.4970   34.5415   36.2951 H   0  0  0  0  0  0  0  0  0  0  0  0
   49.4580   34.1590   33.9084 H   0  0  0  0  0  0  0  0  0  0  0  0
   49.2006   33.1968   31.3517 H   0  0  0  0  0  0  0  0  0  0  0  0
   48.8693   31.5488   29.7034 H   0  0  0  0  0  0  0  0  0  0  0  0
   46.5838   27.9388   29.9513 H   0  0  0  0  0  0  0  0  0  0  0  0
  1  7  1  0
  2  3  1  0
  2 12  1  0
  4  3  2  0
  5  4  1  0
  6  5  2  0
  7  5  1  0
  7  8  1  0
  8  2  1  0
  9  8  2  0
 10 15  2  0
 11 12  2  0
 11 10  1  0
 12 13  1  0
 13 14  2  0
 15 14  1  0
 16  1  1  0
 17 16  2  0
 18 17  1  0
 19 18  2  0
 19 20  1  0
 20 16  1  0
 21 19  1  0
 22 21  2  0
 23 24  2  0
 23 22  1  0
 24 25  1  0
 25 21  1  0
 26 30  1  0
 26 24  1  0
 27 26  1  0
 28 27  2  0
 28 29  1  0
 29 30  2  0
  1 31  1  0
  1 32  1  0
  3 33  1  0
  4 34  1  0
 10 35  1  0
 11 36  1  0
 14 37  1  0
 17 38  1  0
 18 39  1  0
 22 40  1  0
 23 41  1  0
 27 42  1  0
 29 43  1  0
M  ISO  8  31   8  32   8  33  14  34  14  35  14  36  14  37  14  38  14
M  ISO  5  39  14  40  14  41  14  42  14  43  14
M  END
>  <minimizedAffinity>  (1) 
-6.4451189

>  <minimizedRMSD>  (1) 
0.258948863

$$$$
