
     RDKit          3D

 42 46  0  0  0  0  0  0  0  0999 V2000
   48.3150   31.4370   39.7350 C   0  0  0  0  0  0  0  0  0  0  0  0
   47.5610   33.6900   42.4630 N   0  0  0  0  0  0  0  0  0  0  0  0
   48.8200   34.0380   42.9080 C   0  0  0  0  0  0  0  0  0  0  0  0
   49.9570   33.5240   42.3030 C   0  0  0  0  0  0  0  0  0  0  0  0
   49.7910   32.6420   41.2270 C   0  0  0  0  0  0  0  0  0  0  0  0
   50.7970   32.1680   40.6680 O   0  0  0  0  0  0  0  0  0  0  0  0
   48.5190   32.3560   40.8570 N   0  0  0  0  0  0  0  0  0  0  0  0
   47.4590   32.8660   41.4600 C   0  0  0  0  0  0  0  0  0  0  0  0
   46.3000   32.6370   41.1620 O   0  0  0  0  0  0  0  0  0  0  0  0
   45.0150   36.1670   43.4620 C   0  0  0  0  0  0  0  0  0  0  0  0
   46.0010   35.5150   42.7190 C   0  0  0  0  0  0  0  0  0  0  0  0
   46.5590   34.3390   43.2350 C   0  0  0  0  0  0  0  0  0  0  0  0
   46.1200   33.8700   44.4450 N   0  0  0  0  0  0  0  0  0  0  0  0
   45.1570   34.5320   45.1430 C   0  0  0  0  0  0  0  0  0  0  0  0
   44.6090   35.6760   44.6490 N   0  0  0  0  0  0  0  0  0  0  0  0
   48.3750   32.0760   38.4410 C   0  0  0  0  0  0  0  0  0  0  0  0
   48.3790   33.3350   37.9980 C   0  0  0  0  0  0  0  0  0  0  0  0
   48.4490   33.6150   36.6660 C   0  0  0  0  0  0  0  0  0  0  0  0
   48.5170   32.5280   35.7830 C   0  0  0  0  0  0  0  0  0  0  0  0
   48.4770   31.0820   36.9420 S   0  0  0  0  0  0  0  0  0  0  0  0
   48.5960   32.4070   34.3740 C   0  0  0  0  0  0  0  0  0  0  0  0
   49.1470   33.3850   33.6010 C   0  0  0  0  0  0  0  0  0  0  0  0
   49.0620   32.9440   32.2780 C   0  0  0  0  0  0  0  0  0  0  0  0
   48.4490   31.6910   32.3520 C   0  0  0  0  0  0  0  0  0  0  0  0
   48.1790   31.3950   33.6340 O   0  0  0  0  0  0  0  0  0  0  0  0
   48.1460   30.8320   31.2130 C   0  0  0  0  0  0  0  0  0  0  0  0
   47.5740   29.6190   31.1150 N   0  0  0  0  0  0  0  0  0  0  0  0
   47.5080   29.2370   29.8750 O   0  0  0  0  0  0  0  0  0  0  0  0
   48.0360   30.1960   29.1530 C   0  0  0  0  0  0  0  0  0  0  0  0
   48.4500   31.2160   29.9520 N   0  0  0  0  0  0  0  0  0  0  0  0
   49.0941   30.6615   39.7755 H   0  0  0  0  0  0  0  0  0  0  0  0
   47.3021   31.0213   39.8409 H   0  0  0  0  0  0  0  0  0  0  0  0
   48.9231   34.7329   43.7545 H   0  0  0  0  0  0  0  0  0  0  0  0
   50.9607   33.8008   42.6578 H   0  0  0  0  0  0  0  0  0  0  0  0
   44.5645   37.0923   43.0737 H   0  0  0  0  0  0  0  0  0  0  0  0
   46.3321   35.9163   41.7498 H   0  0  0  0  0  0  0  0  0  0  0  0
   44.8191   34.1396   46.1135 H   0  0  0  0  0  0  0  0  0  0  0  0
   48.3248   34.1620   38.7213 H   0  0  0  0  0  0  0  0  0  0  0  0
   48.4520   34.6518   36.2986 H   0  0  0  0  0  0  0  0  0  0  0  0
   49.5751   34.3361   33.9506 H   0  0  0  0  0  0  0  0  0  0  0  0
   49.4037   33.4695   31.3741 H   0  0  0  0  0  0  0  0  0  0  0  0
   48.1306   30.1781   28.0572 H   0  0  0  0  0  0  0  0  0  0  0  0
  1  7  1  0
  2  3  1  0
  2 12  1  0
  4  3  2  0
  5  4  1  0
  6  5  2  0
  7  5  1  0
  7  8  1  0
  8  2  1  0
  9  8  2  0
 10 15  2  0
 11 12  2  0
 11 10  1  0
 12 13  1  0
 13 14  2  0
 15 14  1  0
 16  1  1  0
 17 16  2  0
 18 17  1  0
 19 18  2  0
 19 20  1  0
 20 16  1  0
 21 19  1  0
 22 21  2  0
 23 24  2  0
 23 22  1  0
 24 25  1  0
 25 21  1  0
 26 24  1  0
 27 26  2  0
 28 27  1  0
 29 28  1  0
 29 30  2  0
 30 26  1  0
  1 31  1  0
  1 32  1  0
  3 33  1  0
  4 34  1  0
 10 35  1  0
 11 36  1  0
 14 37  1  0
 17 38  1  0
 18 39  1  0
 22 40  1  0
 23 41  1  0
 29 42  1  0
M  ISO  8  31   8  32   8  33  14  34  14  35  14  36  14  37  14  38  14
M  ISO  4  39  14  40  14  41  14  42  14
M  END
>  <minimizedAffinity>  (1) 
-6.41812038

>  <minimizedRMSD>  (1) 
0.457007676

$$$$
