
     RDKit          3D

 52 56  0  0  0  0  0  0  0  0999 V2000
   48.7080   31.2120   39.4780 C   0  0  0  0  0  0  0  0  0  0  0  0
   47.8800   33.4200   42.2220 N   0  0  0  0  0  0  0  0  0  0  0  0
   49.1300   33.7540   42.6960 C   0  0  0  0  0  0  0  0  0  0  0  0
   50.2770   33.2510   42.1120 C   0  0  0  0  0  0  0  0  0  0  0  0
   50.1370   32.3850   41.0160 C   0  0  0  0  0  0  0  0  0  0  0  0
   51.1530   31.9180   40.4720 O   0  0  0  0  0  0  0  0  0  0  0  0
   48.8800   32.1080   40.6150 N   0  0  0  0  0  0  0  0  0  0  0  0
   47.7950   32.6130   41.2040 C   0  0  0  0  0  0  0  0  0  0  0  0
   46.6480   32.3890   40.8700 O   0  0  0  0  0  0  0  0  0  0  0  0
   45.3340   35.8830   43.2250 C   0  0  0  0  0  0  0  0  0  0  0  0
   46.3340   35.2450   42.4900 C   0  0  0  0  0  0  0  0  0  0  0  0
   46.8640   34.0570   42.9800 C   0  0  0  0  0  0  0  0  0  0  0  0
   46.3880   33.5540   44.1680 N   0  0  0  0  0  0  0  0  0  0  0  0
   45.4140   34.1960   44.8640 C   0  0  0  0  0  0  0  0  0  0  0  0
   44.8910   35.3670   44.3810 N   0  0  0  0  0  0  0  0  0  0  0  0
   48.6910   31.8820   38.2010 C   0  0  0  0  0  0  0  0  0  0  0  0
   48.5480   33.1420   37.7890 C   0  0  0  0  0  0  0  0  0  0  0  0
   48.5760   33.4750   36.4640 C   0  0  0  0  0  0  0  0  0  0  0  0
   48.7630   32.4300   35.5500 C   0  0  0  0  0  0  0  0  0  0  0  0
   48.8970   30.9490   36.6730 S   0  0  0  0  0  0  0  0  0  0  0  0
   48.8560   32.3360   34.1440 C   0  0  0  0  0  0  0  0  0  0  0  0
   48.7210   33.4530   33.3570 C   0  0  0  0  0  0  0  0  0  0  0  0
   48.8710   33.0010   32.0310 C   0  0  0  0  0  0  0  0  0  0  0  0
   49.0840   31.6300   32.1270 C   0  0  0  0  0  0  0  0  0  0  0  0
   49.0660   31.2800   33.4120 O   0  0  0  0  0  0  0  0  0  0  0  0
   49.2910   30.7300   31.0480 N   0  0  0  0  0  0  0  0  0  0  0  0
   49.5530   29.3230   31.2750 C   0  0  0  0  0  0  0  0  0  0  0  0
   48.3850   28.5570   30.7050 C   0  0  0  0  0  0  0  0  0  0  0  0
   47.4600   29.4280   29.9040 C   0  0  0  0  0  0  0  0  0  0  0  0
   48.1720   30.3900   28.9830 C   0  0  0  0  0  0  0  0  0  0  0  0
   49.2440   31.1980   29.6780 C   0  0  0  0  0  0  0  0  0  0  0  0
   49.5373   30.4893   39.4785 H   0  0  0  0  0  0  0  0  0  0  0  0
   47.7264   30.7302   39.5979 H   0  0  0  0  0  0  0  0  0  0  0  0
   49.2165   34.4343   43.5561 H   0  0  0  0  0  0  0  0  0  0  0  0
   51.2719   33.5216   42.4952 H   0  0  0  0  0  0  0  0  0  0  0  0
   44.9026   36.8231   42.8507 H   0  0  0  0  0  0  0  0  0  0  0  0
   46.6951   35.6730   41.5432 H   0  0  0  0  0  0  0  0  0  0  0  0
   45.0462   33.7772   45.8124 H   0  0  0  0  0  0  0  0  0  0  0  0
   48.4034   33.9357   38.5367 H   0  0  0  0  0  0  0  0  0  0  0  0
   48.4571   34.5164   36.1302 H   0  0  0  0  0  0  0  0  0  0  0  0
   48.5348   34.4842   33.6915 H   0  0  0  0  0  0  0  0  0  0  0  0
   48.8286   33.6054   31.1129 H   0  0  0  0  0  0  0  0  0  0  0  0
   50.4828   29.0257   30.7680 H   0  0  0  0  0  0  0  0  0  0  0  0
   49.6714   29.1149   32.3486 H   0  0  0  0  0  0  0  0  0  0  0  0
   48.7709   27.7595   30.0531 H   0  0  0  0  0  0  0  0  0  0  0  0
   47.8105   28.1478   31.5491 H   0  0  0  0  0  0  0  0  0  0  0  0
   46.8137   28.7790   29.2948 H   0  0  0  0  0  0  0  0  0  0  0  0
   46.8903   30.0355   30.6226 H   0  0  0  0  0  0  0  0  0  0  0  0
   47.4300   31.0837   28.5610 H   0  0  0  0  0  0  0  0  0  0  0  0
   48.6676   29.7909   28.2049 H   0  0  0  0  0  0  0  0  0  0  0  0
   50.2164   31.0390   29.1889 H   0  0  0  0  0  0  0  0  0  0  0  0
   49.0214   32.2743   29.6335 H   0  0  0  0  0  0  0  0  0  0  0  0
  1  7  1  0
  2  3  1  0
  2 12  1  0
  4  3  2  0
  5  4  1  0
  6  5  2  0
  7  5  1  0
  7  8  1  0
  8  2  1  0
  9  8  2  0
 10 15  2  0
 11 12  2  0
 11 10  1  0
 12 13  1  0
 13 14  2  0
 15 14  1  0
 16  1  1  0
 17 16  2  0
 18 17  1  0
 19 18  2  0
 19 20  1  0
 20 16  1  0
 21 19  1  0
 22 21  2  0
 23 24  2  0
 23 22  1  0
 24 25  1  0
 25 21  1  0
 26 27  1  0
 26 24  1  0
 28 27  1  0
 29 28  1  0
 30 31  1  0
 30 29  1  0
 31 26  1  0
  1 32  1  0
  1 33  1  0
  3 34  1  0
  4 35  1  0
 10 36  1  0
 11 37  1  0
 14 38  1  0
 17 39  1  0
 18 40  1  0
 22 41  1  0
 23 42  1  0
 27 43  1  0
 27 44  1  0
 28 45  1  0
 28 46  1  0
 29 47  1  0
 29 48  1  0
 30 49  1  0
 30 50  1  0
 31 51  1  0
 31 52  1  0
M  ISO  8  32   8  33   8  34  14  35  14  36  14  37  14  38  14  39  14
M  ISO  8  40  14  41  14  42  14  43  13  44  13  45  13  46  13  47  13
M  ISO  5  48  13  49  13  50  13  51  13  52  13
M  END
>  <minimizedAffinity>  (1) 
-6.41496658

>  <minimizedRMSD>  (1) 
1.1752907

$$$$
