
     RDKit          3D

 44 48  0  0  0  0  0  0  0  0999 V2000
   48.3390   31.3970   39.7910 C   0  0  0  0  0  0  0  0  0  0  0  0
   47.5650   33.6930   42.4750 N   0  0  0  0  0  0  0  0  0  0  0  0
   48.8230   34.0690   42.9010 C   0  0  0  0  0  0  0  0  0  0  0  0
   49.9620   33.5660   42.3030 C   0  0  0  0  0  0  0  0  0  0  0  0
   49.8030   32.6560   41.2440 C   0  0  0  0  0  0  0  0  0  0  0  0
   50.8160   32.1860   40.6850 O   0  0  0  0  0  0  0  0  0  0  0  0
   48.5320   32.3420   40.8910 N   0  0  0  0  0  0  0  0  0  0  0  0
   47.4660   32.8450   41.4880 C   0  0  0  0  0  0  0  0  0  0  0  0
   46.3170   32.5900   41.2040 O   0  0  0  0  0  0  0  0  0  0  0  0
   45.0130   36.1790   43.4580 C   0  0  0  0  0  0  0  0  0  0  0  0
   46.0050   35.5230   42.7140 C   0  0  0  0  0  0  0  0  0  0  0  0
   46.5640   34.3410   43.2410 C   0  0  0  0  0  0  0  0  0  0  0  0
   46.1220   33.8780   44.4500 N   0  0  0  0  0  0  0  0  0  0  0  0
   45.1570   34.5490   45.1390 C   0  0  0  0  0  0  0  0  0  0  0  0
   44.6080   35.6920   44.6420 N   0  0  0  0  0  0  0  0  0  0  0  0
   48.3900   32.0090   38.4830 C   0  0  0  0  0  0  0  0  0  0  0  0
   48.4230   33.2570   38.0120 C   0  0  0  0  0  0  0  0  0  0  0  0
   48.4700   33.5140   36.6740 C   0  0  0  0  0  0  0  0  0  0  0  0
   48.4810   32.4070   35.8130 C   0  0  0  0  0  0  0  0  0  0  0  0
   48.4230   30.9830   37.0010 S   0  0  0  0  0  0  0  0  0  0  0  0
   48.5240   32.2520   34.4020 C   0  0  0  0  0  0  0  0  0  0  0  0
   49.0570   33.2050   33.5980 C   0  0  0  0  0  0  0  0  0  0  0  0
   48.9330   32.7290   32.2850 C   0  0  0  0  0  0  0  0  0  0  0  0
   48.3120   31.4790   32.4060 C   0  0  0  0  0  0  0  0  0  0  0  0
   48.0810   31.2260   33.6990 O   0  0  0  0  0  0  0  0  0  0  0  0
   47.9320   30.5220   31.3630 C   0  0  0  0  0  0  0  0  0  0  0  0
   48.3180   30.7110   30.0310 C   0  0  0  0  0  0  0  0  0  0  0  0
   47.7990   29.6570   29.3790 N   0  0  0  0  0  0  0  0  0  0  0  0
   47.1340   28.8590   30.2260 C   0  0  0  0  0  0  0  0  0  0  0  0
   47.2080   29.3850   31.4620 N   0  0  0  0  0  0  0  0  0  0  0  0
   49.1279   30.6325   39.8476 H   0  0  0  0  0  0  0  0  0  0  0  0
   47.3317   30.9705   39.9070 H   0  0  0  0  0  0  0  0  0  0  0  0
   48.9203   34.7827   43.7324 H   0  0  0  0  0  0  0  0  0  0  0  0
   50.9627   33.8684   42.6452 H   0  0  0  0  0  0  0  0  0  0  0  0
   44.5618   37.1029   43.0670 H   0  0  0  0  0  0  0  0  0  0  0  0
   46.3382   35.9208   41.7441 H   0  0  0  0  0  0  0  0  0  0  0  0
   44.8164   34.1620   46.1107 H   0  0  0  0  0  0  0  0  0  0  0  0
   48.4120   34.0986   38.7203 H   0  0  0  0  0  0  0  0  0  0  0  0
   48.4980   34.5433   36.2871 H   0  0  0  0  0  0  0  0  0  0  0  0
   49.4990   34.1617   33.9133 H   0  0  0  0  0  0  0  0  0  0  0  0
   49.2541   33.2292   31.3594 H   0  0  0  0  0  0  0  0  0  0  0  0
   48.9124   31.5365   29.6123 H   0  0  0  0  0  0  0  0  0  0  0  0
   46.6139   27.9283   29.9554 H   0  0  0  0  0  0  0  0  0  0  0  0
   46.7922   28.9955   32.3201 H   0  0  0  0  0  0  0  0  0  0  0  0
  1  7  1  0
  2  3  1  0
  2 12  1  0
  4  3  2  0
  5  4  1  0
  6  5  2  0
  7  5  1  0
  7  8  1  0
  8  2  1  0
  9  8  2  0
 10 15  2  0
 11 12  2  0
 11 10  1  0
 12 13  1  0
 13 14  2  0
 15 14  1  0
 16  1  1  0
 17 16  2  0
 18 17  1  0
 19 18  2  0
 19 20  1  0
 20 16  1  0
 21 19  1  0
 22 21  2  0
 23 24  2  0
 23 22  1  0
 24 25  1  0
 25 21  1  0
 26 30  1  0
 26 24  1  0
 27 26  2  0
 28 27  1  0
 28 29  2  0
 29 30  1  0
  1 31  1  0
  1 32  1  0
  3 33  1  0
  4 34  1  0
 10 35  1  0
 11 36  1  0
 14 37  1  0
 17 38  1  0
 18 39  1  0
 22 40  1  0
 23 41  1  0
 27 42  1  0
 29 43  1  0
 30 44  1  0
M  ISO  8  31   8  32   8  33  14  34  14  35  14  36  14  37  14  38  14
M  ISO  6  39  14  40  14  41  14  42  14  43  14  44   9
M  END
>  <minimizedAffinity>  (1) 
-6.40964508

>  <minimizedRMSD>  (1) 
0.24631682

$$$$
