
     RDKit          3D

 49 53  0  0  0  0  0  0  0  0999 V2000
   48.3650   31.3840   39.8070 C   0  0  0  0  0  0  0  0  0  0  0  0
   47.5780   33.6970   42.4840 N   0  0  0  0  0  0  0  0  0  0  0  0
   48.8230   34.0700   42.8960 C   0  0  0  0  0  0  0  0  0  0  0  0
   49.9690   33.5690   42.3000 C   0  0  0  0  0  0  0  0  0  0  0  0
   49.8100   32.6570   41.2500 C   0  0  0  0  0  0  0  0  0  0  0  0
   50.8260   32.1850   40.6890 O   0  0  0  0  0  0  0  0  0  0  0  0
   48.5500   32.3360   40.8990 N   0  0  0  0  0  0  0  0  0  0  0  0
   47.4780   32.8440   41.5020 C   0  0  0  0  0  0  0  0  0  0  0  0
   46.3160   32.5760   41.2090 O   0  0  0  0  0  0  0  0  0  0  0  0
   45.0170   36.1760   43.4490 C   0  0  0  0  0  0  0  0  0  0  0  0
   46.0150   35.5210   42.7080 C   0  0  0  0  0  0  0  0  0  0  0  0
   46.5740   34.3430   43.2420 C   0  0  0  0  0  0  0  0  0  0  0  0
   46.1320   33.8780   44.4540 N   0  0  0  0  0  0  0  0  0  0  0  0
   45.1550   34.5520   45.1400 C   0  0  0  0  0  0  0  0  0  0  0  0
   44.6070   35.6970   44.6280 N   0  0  0  0  0  0  0  0  0  0  0  0
   48.3980   31.9750   38.4910 C   0  0  0  0  0  0  0  0  0  0  0  0
   48.4240   33.2220   38.0210 C   0  0  0  0  0  0  0  0  0  0  0  0
   48.4500   33.4940   36.6790 C   0  0  0  0  0  0  0  0  0  0  0  0
   48.4470   32.3690   35.8180 C   0  0  0  0  0  0  0  0  0  0  0  0
   48.4060   30.9610   37.0140 S   0  0  0  0  0  0  0  0  0  0  0  0
   48.4710   32.2050   34.4120 C   0  0  0  0  0  0  0  0  0  0  0  0
   48.9460   33.2030   33.5930 C   0  0  0  0  0  0  0  0  0  0  0  0
   48.8310   32.7240   32.2830 C   0  0  0  0  0  0  0  0  0  0  0  0
   48.2810   31.4420   32.4200 C   0  0  0  0  0  0  0  0  0  0  0  0
   48.0800   31.1730   33.7200 O   0  0  0  0  0  0  0  0  0  0  0  0
   47.9590   30.5180   31.3880 N   0  0  0  0  0  0  0  0  0  0  0  0
   48.3000   30.5320   29.9590 C   0  0  0  0  0  0  0  0  0  0  0  0
   48.9610   29.1960   29.7040 C   0  0  0  0  0  0  0  0  0  0  0  0
   48.1240   28.2970   30.5930 C   0  0  0  0  0  0  0  0  0  0  0  0
   47.2140   29.2500   31.3450 C   0  0  0  0  0  0  0  0  0  0  0  0
   49.1653   30.6317   39.8668 H   0  0  0  0  0  0  0  0  0  0  0  0
   47.3612   30.9520   39.9328 H   0  0  0  0  0  0  0  0  0  0  0  0
   48.9202   34.7879   43.7237 H   0  0  0  0  0  0  0  0  0  0  0  0
   50.9687   33.8771   42.6400 H   0  0  0  0  0  0  0  0  0  0  0  0
   44.5658   37.0976   43.0528 H   0  0  0  0  0  0  0  0  0  0  0  0
   46.3506   35.9168   41.7381 H   0  0  0  0  0  0  0  0  0  0  0  0
   44.8082   34.1690   46.1111 H   0  0  0  0  0  0  0  0  0  0  0  0
   48.4246   34.0596   38.7340 H   0  0  0  0  0  0  0  0  0  0  0  0
   48.4719   34.5238   36.2930 H   0  0  0  0  0  0  0  0  0  0  0  0
   49.3380   34.1822   33.9054 H   0  0  0  0  0  0  0  0  0  0  0  0
   49.1103   33.2394   31.3522 H   0  0  0  0  0  0  0  0  0  0  0  0
   47.3931   30.6385   29.3457 H   0  0  0  0  0  0  0  0  0  0  0  0
   48.9562   31.3754   29.6979 H   0  0  0  0  0  0  0  0  0  0  0  0
   48.8880   28.9025   28.6464 H   0  0  0  0  0  0  0  0  0  0  0  0
   50.0403   29.1717   29.9152 H   0  0  0  0  0  0  0  0  0  0  0  0
   47.5347   27.5917   29.9886 H   0  0  0  0  0  0  0  0  0  0  0  0
   48.7398   27.6850   31.2685 H   0  0  0  0  0  0  0  0  0  0  0  0
   46.2602   29.3779   30.8122 H   0  0  0  0  0  0  0  0  0  0  0  0
   46.9614   28.8802   32.3497 H   0  0  0  0  0  0  0  0  0  0  0  0
  1  7  1  0
  2  3  1  0
  2 12  1  0
  4  3  2  0
  5  4  1  0
  6  5  2  0
  7  5  1  0
  7  8  1  0
  8  2  1  0
  9  8  2  0
 10 15  2  0
 11 12  2  0
 11 10  1  0
 12 13  1  0
 13 14  2  0
 15 14  1  0
 16  1  1  0
 17 16  2  0
 18 17  1  0
 19 18  2  0
 19 20  1  0
 20 16  1  0
 21 19  1  0
 22 21  2  0
 23 24  2  0
 23 22  1  0
 24 25  1  0
 25 21  1  0
 26 24  1  0
 27 26  1  0
 28 27  1  0
 28 29  1  0
 29 30  1  0
 30 26  1  0
  1 31  1  0
  1 32  1  0
  3 33  1  0
  4 34  1  0
 10 35  1  0
 11 36  1  0
 14 37  1  0
 17 38  1  0
 18 39  1  0
 22 40  1  0
 23 41  1  0
 27 42  1  0
 27 43  1  0
 28 44  1  0
 28 45  1  0
 29 46  1  0
 29 47  1  0
 30 48  1  0
 30 49  1  0
M  ISO  8  31   8  32   8  33  14  34  14  35  14  36  14  37  14  38  14
M  ISO  8  39  14  40  14  41  14  42  13  43  13  44  13  45  13  46  13
M  ISO  3  47  13  48  13  49  13
M  END
>  <minimizedAffinity>  (1) 
-6.2996335

>  <minimizedRMSD>  (1) 
0.31998387

$$$$
