
     RDKit          3D

 38 41  0  0  0  0  0  0  0  0999 V2000
   47.6060   33.7430   42.5600 N   0  0  0  0  0  0  0  0  0  0  0  0
   48.8480   34.1650   42.9870 C   0  0  0  0  0  0  0  0  0  0  0  0
   50.0060   33.6700   42.4070 C   0  0  0  0  0  0  0  0  0  0  0  0
   49.8750   32.7340   41.3780 C   0  0  0  0  0  0  0  0  0  0  0  0
   50.9080   32.2770   40.8440 O   0  0  0  0  0  0  0  0  0  0  0  0
   48.6280   32.3750   41.0210 N   0  0  0  0  0  0  0  0  0  0  0  0
   47.5360   32.8620   41.5910 C   0  0  0  0  0  0  0  0  0  0  0  0
   46.3940   32.5740   41.3090 O   0  0  0  0  0  0  0  0  0  0  0  0
   44.9950   36.1770   43.4740 C   0  0  0  0  0  0  0  0  0  0  0  0
   46.0100   35.5340   42.7580 C   0  0  0  0  0  0  0  0  0  0  0  0
   46.5770   34.3840   43.2970 C   0  0  0  0  0  0  0  0  0  0  0  0
   46.1200   33.9310   44.5040 N   0  0  0  0  0  0  0  0  0  0  0  0
   45.1330   34.5690   45.1830 C   0  0  0  0  0  0  0  0  0  0  0  0
   44.5740   35.7040   44.6510 N   0  0  0  0  0  0  0  0  0  0  0  0
   48.4770   31.3970   39.9480 C   0  0  0  0  0  0  0  0  0  0  0  0
   48.4580   31.9710   38.6220 C   0  0  0  0  0  0  0  0  0  0  0  0
   48.4710   33.2090   38.1260 C   0  0  0  0  0  0  0  0  0  0  0  0
   48.4430   33.4430   36.7810 C   0  0  0  0  0  0  0  0  0  0  0  0
   48.3980   32.3180   35.9450 C   0  0  0  0  0  0  0  0  0  0  0  0
   48.4000   30.9250   37.1700 S   0  0  0  0  0  0  0  0  0  0  0  0
   48.3620   32.1200   34.5340 C   0  0  0  0  0  0  0  0  0  0  0  0
   48.9640   33.0240   33.6930 C   0  0  0  0  0  0  0  0  0  0  0  0
   48.7390   32.5280   32.3950 C   0  0  0  0  0  0  0  0  0  0  0  0
   48.0110   31.3550   32.5730 C   0  0  0  0  0  0  0  0  0  0  0  0
   47.8010   31.1410   33.8810 O   0  0  0  0  0  0  0  0  0  0  0  0
   47.5780   30.5440   31.5110 O   0  0  0  0  0  0  0  0  0  0  0  0
   48.9206   34.9041   43.7985 H   0  0  0  0  0  0  0  0  0  0  0  0
   50.9975   34.0040   42.7466 H   0  0  0  0  0  0  0  0  0  0  0  0
   44.5355   37.0873   43.0614 H   0  0  0  0  0  0  0  0  0  0  0  0
   46.3522   35.9290   41.7901 H   0  0  0  0  0  0  0  0  0  0  0  0
   44.7843   34.1799   46.1510 H   0  0  0  0  0  0  0  0  0  0  0  0
   49.3171   30.6892   40.0056 H   0  0  0  0  0  0  0  0  0  0  0  0
   47.5007   30.9125   40.0968 H   0  0  0  0  0  0  0  0  0  0  0  0
   48.5051   34.0633   38.8181 H   0  0  0  0  0  0  0  0  0  0  0  0
   48.4552   34.4645   36.3730 H   0  0  0  0  0  0  0  0  0  0  0  0
   49.5057   33.9393   33.9737 H   0  0  0  0  0  0  0  0  0  0  0  0
   49.0679   32.9721   31.4439 H   0  0  0  0  0  0  0  0  0  0  0  0
   47.0626   29.7193   31.6962 H   0  0  0  0  0  0  0  0  0  0  0  0
  1  2  1  0
  1 11  1  0
  3  2  2  0
  4  3  1  0
  5  4  2  0
  6  4  1  0
  6  7  1  0
  7  1  1  0
  8  7  2  0
  9 14  2  0
 10 11  2  0
 10  9  1  0
 11 12  1  0
 12 13  2  0
 14 13  1  0
 15  6  1  0
 16 15  1  0
 17 16  2  0
 18 17  1  0
 19 18  2  0
 19 20  1  0
 20 16  1  0
 21 19  1  0
 22 21  2  0
 23 24  2  0
 23 22  1  0
 24 25  1  0
 25 21  1  0
 26 24  1  0
  2 27  1  0
  3 28  1  0
  9 29  1  0
 10 30  1  0
 13 31  1  0
 15 32  1  0
 15 33  1  0
 17 34  1  0
 18 35  1  0
 22 36  1  0
 23 37  1  0
 26 38  1  0
M  ISO  8  27  14  28  14  29  14  30  14  31  14  32   8  33   8  34  14
M  ISO  4  35  14  36  14  37  14  38   3
M  END
>  <minimizedAffinity>  (1) 
-5.87389803

>  <minimizedRMSD>  (1) 
0.0611411147

$$$$
