
     RDKit          3D

 39 42  0  0  0  0  0  0  0  0999 V2000
   48.4530   31.3820   39.9140 C   0  0  0  0  0  0  0  0  0  0  0  0
   47.6080   33.7200   42.5360 N   0  0  0  0  0  0  0  0  0  0  0  0
   48.8550   34.1360   42.9640 C   0  0  0  0  0  0  0  0  0  0  0  0
   50.0080   33.6430   42.3850 C   0  0  0  0  0  0  0  0  0  0  0  0
   49.8750   32.7080   41.3490 C   0  0  0  0  0  0  0  0  0  0  0  0
   50.9000   32.2430   40.8060 O   0  0  0  0  0  0  0  0  0  0  0  0
   48.6130   32.3560   40.9940 N   0  0  0  0  0  0  0  0  0  0  0  0
   47.5310   32.8480   41.5700 C   0  0  0  0  0  0  0  0  0  0  0  0
   46.3890   32.5650   41.2860 O   0  0  0  0  0  0  0  0  0  0  0  0
   45.0030   36.1640   43.4670 C   0  0  0  0  0  0  0  0  0  0  0  0
   46.0160   35.5200   42.7420 C   0  0  0  0  0  0  0  0  0  0  0  0
   46.5810   34.3660   43.2810 C   0  0  0  0  0  0  0  0  0  0  0  0
   46.1290   33.9050   44.4920 N   0  0  0  0  0  0  0  0  0  0  0  0
   45.1440   34.5580   45.1650 C   0  0  0  0  0  0  0  0  0  0  0  0
   44.5890   35.6900   44.6410 N   0  0  0  0  0  0  0  0  0  0  0  0
   48.4490   31.9660   38.5910 C   0  0  0  0  0  0  0  0  0  0  0  0
   48.4640   33.2030   38.0950 C   0  0  0  0  0  0  0  0  0  0  0  0
   48.4540   33.4360   36.7540 C   0  0  0  0  0  0  0  0  0  0  0  0
   48.4270   32.3150   35.9140 C   0  0  0  0  0  0  0  0  0  0  0  0
   48.4170   30.9060   37.1400 S   0  0  0  0  0  0  0  0  0  0  0  0
   48.4100   32.1320   34.5090 C   0  0  0  0  0  0  0  0  0  0  0  0
   48.9630   33.0390   33.6680 C   0  0  0  0  0  0  0  0  0  0  0  0
   48.7710   32.5530   32.3670 C   0  0  0  0  0  0  0  0  0  0  0  0
   48.0910   31.3450   32.5380 C   0  0  0  0  0  0  0  0  0  0  0  0
   47.8870   31.1180   33.8400 O   0  0  0  0  0  0  0  0  0  0  0  0
   47.6620   30.4610   31.5060 N   0  0  0  0  0  0  0  0  0  0  0  0
   49.2827   30.6621   39.9718 H   0  0  0  0  0  0  0  0  0  0  0  0
   47.4704   30.9083   40.0557 H   0  0  0  0  0  0  0  0  0  0  0  0
   48.9301   34.8713   43.7786 H   0  0  0  0  0  0  0  0  0  0  0  0
   51.0000   33.9738   42.7263 H   0  0  0  0  0  0  0  0  0  0  0  0
   44.5425   37.0760   43.0593 H   0  0  0  0  0  0  0  0  0  0  0  0
   46.3556   35.9154   41.7733 H   0  0  0  0  0  0  0  0  0  0  0  0
   44.7935   34.1731   46.1340 H   0  0  0  0  0  0  0  0  0  0  0  0
   48.4850   34.0576   38.7872 H   0  0  0  0  0  0  0  0  0  0  0  0
   48.4666   34.4583   36.3481 H   0  0  0  0  0  0  0  0  0  0  0  0
   49.4655   33.9756   33.9512 H   0  0  0  0  0  0  0  0  0  0  0  0
   49.0859   33.0193   31.4218 H   0  0  0  0  0  0  0  0  0  0  0  0
   47.1654   29.5912   31.7464 H   0  0  0  0  0  0  0  0  0  0  0  0
   47.8485   30.6918   30.5197 H   0  0  0  0  0  0  0  0  0  0  0  0
  1  7  1  0
  2  3  1  0
  2 12  1  0
  4  3  2  0
  5  4  1  0
  6  5  2  0
  7  5  1  0
  7  8  1  0
  8  2  1  0
  9  8  2  0
 10 15  2  0
 11 12  2  0
 11 10  1  0
 12 13  1  0
 13 14  2  0
 15 14  1  0
 16  1  1  0
 17 16  2  0
 18 17  1  0
 19 18  2  0
 19 20  1  0
 20 16  1  0
 21 19  1  0
 22 21  2  0
 23 24  2  0
 23 22  1  0
 24 25  1  0
 25 21  1  0
 26 24  1  0
  1 27  1  0
  1 28  1  0
  3 29  1  0
  4 30  1  0
 10 31  1  0
 11 32  1  0
 14 33  1  0
 17 34  1  0
 18 35  1  0
 22 36  1  0
 23 37  1  0
 26 38  1  0
 26 39  1  0
M  ISO  8  27   8  28   8  29  14  30  14  31  14  32  14  33  14  34  14
M  ISO  3  35  14  36  14  37  14
M  END
>  <minimizedAffinity>  (1) 
-5.87132025

>  <minimizedRMSD>  (1) 
0.0293348003

$$$$
