
     RDKit          3D

 39 42  0  0  0  0  0  0  0  0999 V2000
   48.3570   31.3660   39.7780 C   0  0  0  0  0  0  0  0  0  0  0  0
   47.5800   33.6840   42.4400 N   0  0  0  0  0  0  0  0  0  0  0  0
   48.8340   34.0630   42.8610 C   0  0  0  0  0  0  0  0  0  0  0  0
   49.9720   33.5510   42.2620 C   0  0  0  0  0  0  0  0  0  0  0  0
   49.8110   32.6350   41.2150 C   0  0  0  0  0  0  0  0  0  0  0  0
   50.8200   32.1630   40.6640 O   0  0  0  0  0  0  0  0  0  0  0  0
   48.5370   32.3180   40.8670 N   0  0  0  0  0  0  0  0  0  0  0  0
   47.4710   32.8290   41.4630 C   0  0  0  0  0  0  0  0  0  0  0  0
   46.3210   32.5740   41.1820 O   0  0  0  0  0  0  0  0  0  0  0  0
   45.0340   36.1840   43.4040 C   0  0  0  0  0  0  0  0  0  0  0  0
   46.0280   35.5130   42.6710 C   0  0  0  0  0  0  0  0  0  0  0  0
   46.5760   34.3410   43.2030 C   0  0  0  0  0  0  0  0  0  0  0  0
   46.1270   33.8880   44.4120 N   0  0  0  0  0  0  0  0  0  0  0  0
   45.1640   34.5570   45.1000 C   0  0  0  0  0  0  0  0  0  0  0  0
   44.6200   35.7080   44.5890 N   0  0  0  0  0  0  0  0  0  0  0  0
   48.4010   31.9520   38.4590 C   0  0  0  0  0  0  0  0  0  0  0  0
   48.4330   33.1960   37.9800 C   0  0  0  0  0  0  0  0  0  0  0  0
   48.4710   33.4430   36.6390 C   0  0  0  0  0  0  0  0  0  0  0  0
   48.4740   32.3270   35.7890 C   0  0  0  0  0  0  0  0  0  0  0  0
   48.4210   30.9220   36.9940 S   0  0  0  0  0  0  0  0  0  0  0  0
   48.5060   32.1640   34.3790 C   0  0  0  0  0  0  0  0  0  0  0  0
   48.9290   33.1800   33.5580 C   0  0  0  0  0  0  0  0  0  0  0  0
   48.8300   32.6690   32.2490 C   0  0  0  0  0  0  0  0  0  0  0  0
   48.3480   31.3720   32.3960 C   0  0  0  0  0  0  0  0  0  0  0  0
   48.1700   31.1140   33.6830 O   0  0  0  0  0  0  0  0  0  0  0  0
   48.1010   30.4880   31.2630 C   0  0  0  0  0  0  0  0  0  0  0  0
   48.2470   30.9730   30.1110 O   0  0  0  0  0  0  0  0  0  0  0  0
   49.1543   30.6112   39.8457 H   0  0  0  0  0  0  0  0  0  0  0  0
   47.3504   30.9390   39.8980 H   0  0  0  0  0  0  0  0  0  0  0  0
   48.9336   34.7837   43.6860 H   0  0  0  0  0  0  0  0  0  0  0  0
   50.9741   33.8549   42.5987 H   0  0  0  0  0  0  0  0  0  0  0  0
   44.5912   37.1077   43.0030 H   0  0  0  0  0  0  0  0  0  0  0  0
   46.3678   35.9013   41.6995 H   0  0  0  0  0  0  0  0  0  0  0  0
   44.8192   34.1733   46.0716 H   0  0  0  0  0  0  0  0  0  0  0  0
   48.4287   34.0425   38.6824 H   0  0  0  0  0  0  0  0  0  0  0  0
   48.4980   34.4688   36.2428 H   0  0  0  0  0  0  0  0  0  0  0  0
   49.2724   34.1808   33.8587 H   0  0  0  0  0  0  0  0  0  0  0  0
   49.0804   33.1853   31.3105 H   0  0  0  0  0  0  0  0  0  0  0  0
   47.7995   29.4403   31.4092 H   0  0  0  0  0  0  0  0  0  0  0  0
  1  7  1  0
  2  3  1  0
  2 12  1  0
  4  3  2  0
  5  4  1  0
  6  5  2  0
  7  5  1  0
  7  8  1  0
  8  2  1  0
  9  8  2  0
 10 15  2  0
 11 12  2  0
 11 10  1  0
 12 13  1  0
 13 14  2  0
 15 14  1  0
 16  1  1  0
 17 16  2  0
 18 17  1  0
 19 18  2  0
 19 20  1  0
 20 16  1  0
 21 19  1  0
 22 21  2  0
 23 24  2  0
 23 22  1  0
 24 25  1  0
 25 21  1  0
 26 24  1  0
 27 26  2  0
  1 28  1  0
  1 29  1  0
  3 30  1  0
  4 31  1  0
 10 32  1  0
 11 33  1  0
 14 34  1  0
 17 35  1  0
 18 36  1  0
 22 37  1  0
 23 38  1  0
 26 39  1  0
M  ISO  8  28   8  29   8  30  14  31  14  32  14  33  14  34  14  35  14
M  ISO  4  36  14  37  14  38  14  39   6
M  END
>  <minimizedAffinity>  (1) 
-5.74730015

>  <minimizedRMSD>  (1) 
0.282850564

$$$$
