
     RDKit          3D

 31 33  0  0  0  0  0  0  0  0999 V2000
   46.5180   34.6910   42.1670 C   0  0  0  0  0  0  0  0  0  0  0  0
   47.7750   35.2000   42.0180 C   0  0  0  0  0  0  0  0  0  0  0  0
   48.4980   35.0470   40.8240 C   0  0  0  0  0  0  0  0  0  0  0  0
   47.9120   34.3500   39.7530 C   0  0  0  0  0  0  0  0  0  0  0  0
   46.6490   33.8420   39.9130 C   0  0  0  0  0  0  0  0  0  0  0  0
   45.9780   34.0170   41.1050 C   0  0  0  0  0  0  0  0  0  0  0  0
   44.6660   33.4760   41.2390 N   0  0  0  0  0  0  0  0  0  0  0  0
   44.5220   32.1980   41.6850 C   0  0  0  0  0  0  0  0  0  0  0  0
   43.2840   31.5900   41.8450 C   0  0  0  0  0  0  0  0  0  0  0  0
   42.1690   32.3380   41.5310 C   0  0  0  0  0  0  0  0  0  0  0  0
   40.8620   31.7930   41.6660 N   0  0  0  0  0  0  0  0  0  0  0  0
   42.3120   33.6000   41.0910 N   0  0  0  0  0  0  0  0  0  0  0  0
   43.5400   34.1710   40.9420 C   0  0  0  0  0  0  0  0  0  0  0  0
   43.6640   35.3540   40.5290 O   0  0  0  0  0  0  0  0  0  0  0  0
   44.4340   36.0630   44.9890 C   0  0  0  0  0  0  0  0  0  0  0  0
   45.0300   35.9760   43.7280 C   0  0  0  0  0  0  0  0  0  0  0  0
   45.8430   34.8960   43.4350 C   0  0  0  0  0  0  0  0  0  0  0  0
   46.0310   33.9530   44.3970 N   0  0  0  0  0  0  0  0  0  0  0  0
   45.4390   34.0600   45.6180 C   0  0  0  0  0  0  0  0  0  0  0  0
   44.6450   35.1120   45.9100 N   0  0  0  0  0  0  0  0  0  0  0  0
   48.2345   35.7449   42.8558 H   0  0  0  0  0  0  0  0  0  0  0  0
   49.5100   35.4672   40.7279 H   0  0  0  0  0  0  0  0  0  0  0  0
   48.4557   34.2151   38.8063 H   0  0  0  0  0  0  0  0  0  0  0  0
   46.1696   33.2935   39.0888 H   0  0  0  0  0  0  0  0  0  0  0  0
   45.4264   31.6215   41.9295 H   0  0  0  0  0  0  0  0  0  0  0  0
   43.1964   30.5550   42.2071 H   0  0  0  0  0  0  0  0  0  0  0  0
   40.0387   32.3641   41.4275 H   0  0  0  0  0  0  0  0  0  0  0  0
   40.7389   30.8272   42.0023 H   0  0  0  0  0  0  0  0  0  0  0  0
   43.7861   36.9192   45.2279 H   0  0  0  0  0  0  0  0  0  0  0  0
   44.8543   36.7589   42.9756 H   0  0  0  0  0  0  0  0  0  0  0  0
   45.6095   33.2806   46.3752 H   0  0  0  0  0  0  0  0  0  0  0  0
  1 17  1  0
  2  1  2  0
  3  2  1  0
  4  5  1  0
  4  3  2  0
  5  6  2  0
  6  7  1  0
  6  1  1  0
  7  8  1  0
  8  9  2  0
 10 11  1  0
 10  9  1  0
 12 10  2  0
 13 12  1  0
 13  7  1  0
 14 13  2  0
 15 20  2  0
 16 15  1  0
 17 16  2  0
 17 18  1  0
 18 19  2  0
 19 20  1  0
  2 21  1  0
  3 22  1  0
  4 23  1  0
  5 24  1  0
  8 25  1  0
  9 26  1  0
 11 27  1  0
 11 28  1  0
 15 29  1  0
 16 30  1  0
 19 31  1  0
M  ISO  8  21  14  22  14  23  14  24  14  25  14  26  14  29  14  30  14
M  ISO  1  31  14
M  END
>  <minimizedAffinity>  (1) 
-6.00153208

>  <minimizedRMSD>  (1) 
0.827579439

$$$$
