
     RDKit          3D

 18 19  0  0  0  0  0  0  0  0999 V2000
   44.5420   35.7580   44.7100 C   0  0  0  0  0  0  0  0  0  0  0  0
   45.2250   35.6330   43.4940 C   0  0  0  0  0  0  0  0  0  0  0  0
   46.1570   34.6030   43.3700 C   0  0  0  0  0  0  0  0  0  0  0  0
   46.3600   33.7740   44.4250 N   0  0  0  0  0  0  0  0  0  0  0  0
   45.6790   33.9250   45.5870 C   0  0  0  0  0  0  0  0  0  0  0  0
   44.7800   34.9030   45.7330 N   0  0  0  0  0  0  0  0  0  0  0  0
   45.9290   33.0100   46.6940 C   0  0  0  0  0  0  0  0  0  0  0  0
   47.0710   32.2100   46.6880 C   0  0  0  0  0  0  0  0  0  0  0  0
   47.3790   31.3200   47.6950 C   0  0  0  0  0  0  0  0  0  0  0  0
   46.5520   31.2040   48.7430 N   0  0  0  0  0  0  0  0  0  0  0  0
   45.4430   31.9820   48.7480 C   0  0  0  0  0  0  0  0  0  0  0  0
   45.1300   32.8650   47.7540 N   0  0  0  0  0  0  0  0  0  0  0  0
   43.8018   36.5619   44.8361 H   0  0  0  0  0  0  0  0  0  0  0  0
   45.0323   36.3261   42.6619 H   0  0  0  0  0  0  0  0  0  0  0  0
   46.7176   34.4650   42.4337 H   0  0  0  0  0  0  0  0  0  0  0  0
   47.7618   32.2932   45.8360 H   0  0  0  0  0  0  0  0  0  0  0  0
   48.2938   30.7117   47.6387 H   0  0  0  0  0  0  0  0  0  0  0  0
   44.7548   31.8978   49.6019 H   0  0  0  0  0  0  0  0  0  0  0  0
  1  6  2  0
  2  1  1  0
  3  2  2  0
  3  4  1  0
  4  5  2  0
  5  6  1  0
  5  7  1  0
  7 12  1  0
  8  7  2  0
  8  9  1  0
  9 10  2  0
 10 11  1  0
 12 11  2  0
  1 13  1  0
  2 14  1  0
  3 15  1  0
  8 16  1  0
  9 17  1  0
 11 18  1  0
M  ISO  6  13  14  14  14  15  14  16  14  17  14  18  14
M  END
>  <minimizedAffinity>  (1) 
-4.35710621

>  <minimizedRMSD>  (1) 
0.605962038

$$$$
