
     RDKit          3D

 28 30  0  0  0  0  0  0  0  0999 V2000
   45.7840   33.9160   45.4790 C   0  0  0  0  0  0  0  0  0  0  0  0
   44.8150   34.9090   45.6180 C   0  0  0  0  0  0  0  0  0  0  0  0
   44.4960   35.8260   44.6470 C   0  0  0  0  0  0  0  0  0  0  0  0
   45.1430   35.7840   43.4850 N   0  0  0  0  0  0  0  0  0  0  0  0
   46.0900   34.8180   43.3440 C   0  0  0  0  0  0  0  0  0  0  0  0
   46.4190   33.9020   44.2930 N   0  0  0  0  0  0  0  0  0  0  0  0
   47.3840   31.3590   47.5460 C   0  0  0  0  0  0  0  0  0  0  0  0
   46.5210   31.2590   48.6320 C   0  0  0  0  0  0  0  0  0  0  0  0
   45.4000   32.0720   48.6400 C   0  0  0  0  0  0  0  0  0  0  0  0
   45.1810   32.9240   47.6100 N   0  0  0  0  0  0  0  0  0  0  0  0
   46.0480   32.9900   46.5690 C   0  0  0  0  0  0  0  0  0  0  0  0
   47.1270   32.2200   46.5440 N   0  0  0  0  0  0  0  0  0  0  0  0
   46.8350   34.7330   42.0700 C   0  0  0  0  0  0  0  0  0  0  0  0
   46.3240   33.9860   41.0240 C   0  0  0  0  0  0  0  0  0  0  0  0
   46.9110   33.8210   39.7870 C   0  0  0  0  0  0  0  0  0  0  0  0
   48.1160   34.4790   39.6290 C   0  0  0  0  0  0  0  0  0  0  0  0
   48.6780   35.2400   40.6370 C   0  0  0  0  0  0  0  0  0  0  0  0
   48.0380   35.3690   41.8640 C   0  0  0  0  0  0  0  0  0  0  0  0
   44.2685   34.9614   46.5712 H   0  0  0  0  0  0  0  0  0  0  0  0
   43.7183   36.5829   44.8268 H   0  0  0  0  0  0  0  0  0  0  0  0
   48.2847   30.7288   47.5056 H   0  0  0  0  0  0  0  0  0  0  0  0
   46.7219   30.5585   49.4560 H   0  0  0  0  0  0  0  0  0  0  0  0
   44.6904   32.0261   49.4793 H   0  0  0  0  0  0  0  0  0  0  0  0
   45.3633   33.4780   41.1941 H   0  0  0  0  0  0  0  0  0  0  0  0
   46.4565   33.2143   38.9900 H   0  0  0  0  0  0  0  0  0  0  0  0
   48.6458   34.3943   38.6687 H   0  0  0  0  0  0  0  0  0  0  0  0
   49.6391   35.7473   40.4667 H   0  0  0  0  0  0  0  0  0  0  0  0
   48.4893   35.9744   42.6639 H   0  0  0  0  0  0  0  0  0  0  0  0
  1  2  2  0
  1 11  1  0
  3  2  1  0
  4  3  2  0
  5  4  1  0
  5  6  2  0
  6  1  1  0
  7  8  2  0
  8  9  1  0
 10  9  2  0
 11 10  1  0
 12 11  2  0
 12  7  1  0
 13  5  1  0
 14 13  2  0
 15 14  1  0
 16 15  2  0
 16 17  1  0
 17 18  2  0
 18 13  1  0
  2 19  1  0
  3 20  1  0
  7 21  1  0
  8 22  1  0
  9 23  1  0
 14 24  1  0
 15 25  1  0
 16 26  1  0
 17 27  1  0
 18 28  1  0
M  ISO  8  19  14  20  14  21  14  22  14  23  14  24  14  25  14  26  14
M  ISO  2  27  14  28  14
M  END
>  <minimizedAffinity>  (1) 
-6.39337921

>  <minimizedRMSD>  (1) 
7.72323084

$$$$
