
     RDKit          3D

 24 26  0  0  0  0  0  0  0  0999 V2000
   45.8220   33.8050   45.6180 C   0  0  0  0  0  0  0  0  0  0  0  0
   44.8250   34.7660   45.7660 C   0  0  0  0  0  0  0  0  0  0  0  0
   44.5070   35.6690   44.7860 C   0  0  0  0  0  0  0  0  0  0  0  0
   45.1760   35.6440   43.6230 N   0  0  0  0  0  0  0  0  0  0  0  0
   46.1510   34.7040   43.4790 C   0  0  0  0  0  0  0  0  0  0  0  0
   46.4740   33.8040   44.4430 N   0  0  0  0  0  0  0  0  0  0  0  0
   46.9270   34.5790   42.2910 N   0  0  0  0  0  0  0  0  0  0  0  0
   46.2600   34.3570   41.1450 C   0  0  0  0  0  0  0  0  0  0  0  0
   47.1500   34.2650   40.1220 N   0  0  0  0  0  0  0  0  0  0  0  0
   48.3890   34.4370   40.6700 C   0  0  0  0  0  0  0  0  0  0  0  0
   48.2160   34.6270   42.0100 N   0  0  0  0  0  0  0  0  0  0  0  0
   47.4530   31.2260   47.6460 C   0  0  0  0  0  0  0  0  0  0  0  0
   46.6080   31.1430   48.7590 C   0  0  0  0  0  0  0  0  0  0  0  0
   45.4890   31.9700   48.8050 C   0  0  0  0  0  0  0  0  0  0  0  0
   45.2600   32.8230   47.7710 N   0  0  0  0  0  0  0  0  0  0  0  0
   46.1080   32.8690   46.7120 C   0  0  0  0  0  0  0  0  0  0  0  0
   47.1910   32.0920   46.6320 N   0  0  0  0  0  0  0  0  0  0  0  0
   44.2671   34.8017   46.7134 H   0  0  0  0  0  0  0  0  0  0  0  0
   43.7097   36.4086   44.9512 H   0  0  0  0  0  0  0  0  0  0  0  0
   45.1680   34.2646   41.0504 H   0  0  0  0  0  0  0  0  0  0  0  0
   49.3480   34.4247   40.1313 H   0  0  0  0  0  0  0  0  0  0  0  0
   48.3422   30.5807   47.5914 H   0  0  0  0  0  0  0  0  0  0  0  0
   46.8231   30.4409   49.5780 H   0  0  0  0  0  0  0  0  0  0  0  0
   44.8018   31.9340   49.6632 H   0  0  0  0  0  0  0  0  0  0  0  0
  1  2  2  0
  1 16  1  0
  3  2  1  0
  4  3  2  0
  5  4  1  0
  5  6  2  0
  6  1  1  0
  7  5  1  0
  8  7  1  0
  9 10  1  0
  9  8  2  0
 10 11  2  0
 11  7  1  0
 12 13  2  0
 13 14  1  0
 15 14  2  0
 16 15  1  0
 17 16  2  0
 17 12  1  0
  2 18  1  0
  3 19  1  0
  8 20  1  0
 10 21  1  0
 12 22  1  0
 13 23  1  0
 14 24  1  0
M  ISO  7  18  14  19  14  20  14  21  14  22  14  23  14  24  14
M  END
>  <minimizedAffinity>  (1) 
-5.55911255

>  <minimizedRMSD>  (1) 
7.12209129

$$$$
