
     RDKit          3D

 30 32  0  0  0  0  0  0  0  0999 V2000
   46.5120   34.6570   42.1510 C   0  0  0  0  0  0  0  0  0  0  0  0
   47.7390   35.2360   41.9580 C   0  0  0  0  0  0  0  0  0  0  0  0
   48.4700   35.0990   40.7790 C   0  0  0  0  0  0  0  0  0  0  0  0
   47.9220   34.3290   39.7370 C   0  0  0  0  0  0  0  0  0  0  0  0
   46.6850   33.7460   39.9320 C   0  0  0  0  0  0  0  0  0  0  0  0
   46.0080   33.9140   41.1160 C   0  0  0  0  0  0  0  0  0  0  0  0
   44.4420   36.0180   44.9820 C   0  0  0  0  0  0  0  0  0  0  0  0
   45.0250   35.9380   43.7130 C   0  0  0  0  0  0  0  0  0  0  0  0
   45.8450   34.8690   43.4160 C   0  0  0  0  0  0  0  0  0  0  0  0
   46.0530   33.9290   44.3860 N   0  0  0  0  0  0  0  0  0  0  0  0
   45.4670   34.0410   45.6120 C   0  0  0  0  0  0  0  0  0  0  0  0
   44.6690   35.0760   45.9080 N   0  0  0  0  0  0  0  0  0  0  0  0
   44.7350   33.2960   41.2760 N   0  0  0  0  0  0  0  0  0  0  0  0
   44.5330   32.0550   41.7560 C   0  0  0  0  0  0  0  0  0  0  0  0
   43.2490   31.5710   41.8630 C   0  0  0  0  0  0  0  0  0  0  0  0
   42.1530   32.3410   41.4820 C   0  0  0  0  0  0  0  0  0  0  0  0
   40.9690   31.9400   41.5620 O   0  0  0  0  0  0  0  0  0  0  0  0
   42.4470   33.5850   41.0070 N   0  0  0  0  0  0  0  0  0  0  0  0
   43.7030   34.0720   40.8980 C   0  0  0  0  0  0  0  0  0  0  0  0
   43.8030   35.2330   40.4430 O   0  0  0  0  0  0  0  0  0  0  0  0
   48.1677   35.8379   42.7728 H   0  0  0  0  0  0  0  0  0  0  0  0
   49.4520   35.5815   40.6661 H   0  0  0  0  0  0  0  0  0  0  0  0
   48.4653   34.1945   38.7900 H   0  0  0  0  0  0  0  0  0  0  0  0
   46.2368   33.1404   39.1305 H   0  0  0  0  0  0  0  0  0  0  0  0
   43.7867   36.8677   45.2238 H   0  0  0  0  0  0  0  0  0  0  0  0
   44.8321   36.7176   42.9613 H   0  0  0  0  0  0  0  0  0  0  0  0
   45.6527   33.2677   46.3719 H   0  0  0  0  0  0  0  0  0  0  0  0
   45.3873   31.4325   42.0604 H   0  0  0  0  0  0  0  0  0  0  0  0
   43.0855   30.5570   42.2568 H   0  0  0  0  0  0  0  0  0  0  0  0
   41.6658   34.1890   40.7140 H   0  0  0  0  0  0  0  0  0  0  0  0
  1  9  1  0
  2  1  2  0
  3  2  1  0
  4  5  1  0
  4  3  2  0
  5  6  2  0
  6 13  1  0
  6  1  1  0
  7 12  2  0
  8  7  1  0
  9  8  2  0
  9 10  1  0
 10 11  2  0
 11 12  1  0
 13 14  1  0
 14 15  2  0
 16 17  2  0
 16 15  1  0
 18 16  1  0
 19 18  1  0
 19 13  1  0
 20 19  2  0
  2 21  1  0
  3 22  1  0
  4 23  1  0
  5 24  1  0
  7 25  1  0
  8 26  1  0
 11 27  1  0
 14 28  1  0
 15 29  1  0
 18 30  1  0
M  ISO  8  21  14  22  14  23  14  24  14  25  14  26  14  27  14  28  14
M  ISO  2  29  14  30   9
M  END
>  <minimizedAffinity>  (1) 
-5.94349289

>  <minimizedRMSD>  (1) 
0.528882861

$$$$
