
     RDKit          3D

 26 28  0  0  0  0  0  0  0  0999 V2000
   45.8600   33.6070   45.8730 C   0  0  0  0  0  0  0  0  0  0  0  0
   44.9110   34.6280   45.8710 C   0  0  0  0  0  0  0  0  0  0  0  0
   44.7060   35.4560   44.7900 C   0  0  0  0  0  0  0  0  0  0  0  0
   45.4430   35.2890   43.6780 N   0  0  0  0  0  0  0  0  0  0  0  0
   46.3540   34.2980   43.6960 C   0  0  0  0  0  0  0  0  0  0  0  0
   46.5700   33.4730   44.7520 N   0  0  0  0  0  0  0  0  0  0  0  0
   47.3910   31.6330   48.5560 C   0  0  0  0  0  0  0  0  0  0  0  0
   46.2910   31.1750   49.2720 C   0  0  0  0  0  0  0  0  0  0  0  0
   45.0390   31.5540   48.8190 C   0  0  0  0  0  0  0  0  0  0  0  0
   44.9110   32.3430   47.7160 N   0  0  0  0  0  0  0  0  0  0  0  0
   46.0290   32.7610   47.0540 C   0  0  0  0  0  0  0  0  0  0  0  0
   47.2510   32.4170   47.4600 N   0  0  0  0  0  0  0  0  0  0  0  0
   47.1700   34.1010   42.4890 C   0  0  0  0  0  0  0  0  0  0  0  0
   46.6750   34.4050   41.2360 C   0  0  0  0  0  0  0  0  0  0  0  0
   47.4690   34.2070   40.1240 C   0  0  0  0  0  0  0  0  0  0  0  0
   48.7060   33.7190   40.3240 N   0  0  0  0  0  0  0  0  0  0  0  0
   49.1960   33.4220   41.5250 C   0  0  0  0  0  0  0  0  0  0  0  0
   48.4190   33.6160   42.6040 N   0  0  0  0  0  0  0  0  0  0  0  0
   44.2990   34.7789   46.7725 H   0  0  0  0  0  0  0  0  0  0  0  0
   43.9446   36.2485   44.8359 H   0  0  0  0  0  0  0  0  0  0  0  0
   48.4013   31.3516   48.8879 H   0  0  0  0  0  0  0  0  0  0  0  0
   46.4104   30.5383   50.1610 H   0  0  0  0  0  0  0  0  0  0  0  0
   44.1398   31.2151   49.3543 H   0  0  0  0  0  0  0  0  0  0  0  0
   45.6552   34.8021   41.1248 H   0  0  0  0  0  0  0  0  0  0  0  0
   47.1036   34.4396   39.1129 H   0  0  0  0  0  0  0  0  0  0  0  0
   50.2165   33.0257   41.6323 H   0  0  0  0  0  0  0  0  0  0  0  0
  1 11  1  0
  2  1  2  0
  3  2  1  0
  4  5  1  0
  4  3  2  0
  5  6  2  0
  6  1  1  0
  7  8  2  0
  9  8  1  0
 10  9  2  0
 11 12  2  0
 11 10  1  0
 12  7  1  0
 13 18  1  0
 13  5  1  0
 14 13  2  0
 15 16  2  0
 15 14  1  0
 16 17  1  0
 17 18  2  0
  2 19  1  0
  3 20  1  0
  7 21  1  0
  8 22  1  0
  9 23  1  0
 14 24  1  0
 15 25  1  0
 17 26  1  0
M  ISO  8  19  14  20  14  21  14  22  14  23  14  24  14  25  14  26  14
M  END
>  <minimizedAffinity>  (1) 
-5.36135101

>  <minimizedRMSD>  (1) 
7.48489523

$$$$
