
     RDKit          3D

 25 26  0  0  0  0  0  0  0  0999 V2000
   46.3310   32.8860   44.6890 C   0  0  0  0  0  0  0  0  0  0  0  0
   47.0530   31.8750   44.0750 C   0  0  0  0  0  0  0  0  0  0  0  0
   47.6650   30.8570   44.7650 C   0  0  0  0  0  0  0  0  0  0  0  0
   47.5760   30.8160   46.0920 N   0  0  0  0  0  0  0  0  0  0  0  0
   46.8720   31.8030   46.6970 C   0  0  0  0  0  0  0  0  0  0  0  0
   46.2660   32.8090   46.0170 N   0  0  0  0  0  0  0  0  0  0  0  0
   46.7290   31.8290   48.1250 N   0  0  0  0  0  0  0  0  0  0  0  0
   45.4900   32.0840   48.7740 C   0  0  0  0  0  0  0  0  0  0  0  0
   44.6030   32.6040   47.9950 N   0  0  0  0  0  0  0  0  0  0  0  0
   45.3860   31.7400   50.1700 N   0  0  0  0  0  0  0  0  0  0  0  0
   43.6650   32.8210   48.3950 H   0  0  0  0  0  0  0  0  0  0  0  0
   44.5450   35.9490   43.7690 C   0  0  0  0  0  0  0  0  0  0  0  0
   44.5390   35.8910   42.3780 C   0  0  0  0  0  0  0  0  0  0  0  0
   45.1520   34.7940   41.7670 C   0  0  0  0  0  0  0  0  0  0  0  0
   45.7250   33.8350   42.5370 N   0  0  0  0  0  0  0  0  0  0  0  0
   45.7010   33.9450   43.8960 C   0  0  0  0  0  0  0  0  0  0  0  0
   45.1240   34.9790   44.5010 N   0  0  0  0  0  0  0  0  0  0  0  0
   47.1405   31.8884   42.9786 H   0  0  0  0  0  0  0  0  0  0  0  0
   48.2253   30.0804   44.2238 H   0  0  0  0  0  0  0  0  0  0  0  0
   47.5617   31.6551   48.7058 H   0  0  0  0  0  0  0  0  0  0  0  0
   44.5058   31.9084   50.6777 H   0  0  0  0  0  0  0  0  0  0  0  0
   46.1919   31.3258   50.6598 H   0  0  0  0  0  0  0  0  0  0  0  0
   44.0693   36.8005   44.2776 H   0  0  0  0  0  0  0  0  0  0  0  0
   44.0667   36.6836   41.7790 H   0  0  0  0  0  0  0  0  0  0  0  0
   45.1699   34.7086   40.6705 H   0  0  0  0  0  0  0  0  0  0  0  0
  1  6  1  0
  2  1  2  0
  2  3  1  0
  3  4  2  0
  4  5  1  0
  5  7  1  0
  6  5  2  0
  7  8  1  0
  8 10  1  0
  9 11  1  0
  9  8  2  0
 12 17  2  0
 13 12  1  0
 14 13  2  0
 14 15  1  0
 15 16  2  0
 16 17  1  0
 16  1  1  0
  2 18  1  0
  3 19  1  0
  7 20  1  0
 10 21  1  0
 10 22  1  0
 12 23  1  0
 13 24  1  0
 14 25  1  0
M  ISO  5  18  14  19  14  23  14  24  14  25  14
M  END
>  <minimizedAffinity>  (1) 
-5.13043499

>  <minimizedRMSD>  (1) 
2.25922537

$$$$
