
     RDKit          3D

 29 32  0  0  0  0  0  0  0  0999 V2000
   45.9450   33.0600   45.5540 C   0  0  0  0  0  0  0  0  0  0  0  0
   45.3310   34.3090   45.5400 C   0  0  0  0  0  0  0  0  0  0  0  0
   45.0600   34.9950   44.3700 C   0  0  0  0  0  0  0  0  0  0  0  0
   45.3950   34.4470   43.1960 N   0  0  0  0  0  0  0  0  0  0  0  0
   45.9960   33.2220   43.2190 C   0  0  0  0  0  0  0  0  0  0  0  0
   46.2700   32.5370   44.3570 N   0  0  0  0  0  0  0  0  0  0  0  0
   46.4070   32.5200   42.0500 N   0  0  0  0  0  0  0  0  0  0  0  0
   46.2530   31.2200   41.7170 C   0  0  0  0  0  0  0  0  0  0  0  0
   46.7970   30.9890   40.5150 N   0  0  0  0  0  0  0  0  0  0  0  0
   47.3110   32.1330   40.0520 C   0  0  0  0  0  0  0  0  0  0  0  0
   47.9750   32.4800   38.8960 C   0  0  0  0  0  0  0  0  0  0  0  0
   48.3650   33.7620   38.7500 N   0  0  0  0  0  0  0  0  0  0  0  0
   48.1200   34.7050   39.7040 C   0  0  0  0  0  0  0  0  0  0  0  0
   47.4700   34.3760   40.8410 N   0  0  0  0  0  0  0  0  0  0  0  0
   47.0630   33.1030   41.0260 C   0  0  0  0  0  0  0  0  0  0  0  0
   47.5260   30.9920   48.1190 C   0  0  0  0  0  0  0  0  0  0  0  0
   46.6680   31.1650   49.2260 C   0  0  0  0  0  0  0  0  0  0  0  0
   45.5490   31.9990   49.0670 C   0  0  0  0  0  0  0  0  0  0  0  0
   45.3480   32.5920   47.8710 N   0  0  0  0  0  0  0  0  0  0  0  0
   46.2000   32.3960   46.8360 C   0  0  0  0  0  0  0  0  0  0  0  0
   47.2830   31.6060   46.9440 N   0  0  0  0  0  0  0  0  0  0  0  0
   45.0498   34.7693   46.4986 H   0  0  0  0  0  0  0  0  0  0  0  0
   44.5740   35.9812   44.4042 H   0  0  0  0  0  0  0  0  0  0  0  0
   45.7547   30.4632   42.3406 H   0  0  0  0  0  0  0  0  0  0  0  0
   48.1809   31.7330   38.1152 H   0  0  0  0  0  0  0  0  0  0  0  0
   48.4542   35.7411   39.5463 H   0  0  0  0  0  0  0  0  0  0  0  0
   48.4095   30.3440   48.2169 H   0  0  0  0  0  0  0  0  0  0  0  0
   46.8693   30.6624   50.1835 H   0  0  0  0  0  0  0  0  0  0  0  0
   44.8505   32.1656   49.9003 H   0  0  0  0  0  0  0  0  0  0  0  0
  1 20  1  0
  2  1  2  0
  3  2  1  0
  4  5  1  0
  4  3  2  0
  5  6  2  0
  6  1  1  0
  7  5  1  0
  8  7  1  0
  9  8  2  0
 10  9  1  0
 10 15  2  0
 11 10  1  0
 12 11  2  0
 12 13  1  0
 13 14  2  0
 14 15  1  0
 15  7  1  0
 16 17  2  0
 18 17  1  0
 19 18  2  0
 20 21  2  0
 20 19  1  0
 21 16  1  0
  2 22  1  0
  3 23  1  0
  8 24  1  0
 11 25  1  0
 13 26  1  0
 16 27  1  0
 17 28  1  0
 18 29  1  0
M  ISO  8  22  14  23  14  24  14  25  14  26  14  27  14  28  14  29  14
M  END
>  <minimizedAffinity>  (1) 
-5.05940771

>  <minimizedRMSD>  (1) 
8.75361443

$$$$
