
     RDKit          3D

 34 36  0  0  1  0  0  0  0  0999 V2000
   46.6140   34.7850   42.0910 C   0  0  0  0  0  0  0  0  0  0  0  0
   47.9210   35.1610   42.0310 C   0  0  0  0  0  0  0  0  0  0  0  0
   48.6890   34.9910   40.8810 C   0  0  0  0  0  0  0  0  0  0  0  0
   48.1020   34.4130   39.7400 C   0  0  0  0  0  0  0  0  0  0  0  0
   46.7660   34.0270   39.8000 C   0  0  0  0  0  0  0  0  0  0  0  0
   46.0380   34.2140   40.9640 C   0  0  0  0  0  0  0  0  0  0  0  0
   44.4460   36.1730   44.8370 C   0  0  0  0  0  0  0  0  0  0  0  0
   45.0870   36.0970   43.5870 C   0  0  0  0  0  0  0  0  0  0  0  0
   45.8920   35.0010   43.3340 C   0  0  0  0  0  0  0  0  0  0  0  0
   46.0210   34.0630   44.3000 N   0  0  0  0  0  0  0  0  0  0  0  0
   45.3870   34.1680   45.5000 C   0  0  0  0  0  0  0  0  0  0  0  0
   44.6080   35.2190   45.7580 N   0  0  0  0  0  0  0  0  0  0  0  0
   44.6490   33.7980   40.9820 C   0  0  2  0  0  0  0  0  0  0  0  0
   43.6550   34.9160   41.1250 C   0  0  0  0  0  0  0  0  0  0  0  0
   42.2540   34.4510   41.0200 C   0  0  0  0  0  0  0  0  0  0  0  0
   42.0090   32.9940   41.1120 C   0  0  0  0  0  0  0  0  0  0  0  0
   43.0870   32.1090   41.5910 C   0  0  0  0  0  0  0  0  0  0  0  0
   44.2760   32.8790   42.1400 C   0  0  0  0  0  0  0  0  0  0  0  0
   48.3858   35.6137   42.9192 H   0  0  0  0  0  0  0  0  0  0  0  0
   49.7430   35.3053   40.8651 H   0  0  0  0  0  0  0  0  0  0  0  0
   48.6870   34.2692   38.8196 H   0  0  0  0  0  0  0  0  0  0  0  0
   46.2867   33.5721   38.9206 H   0  0  0  0  0  0  0  0  0  0  0  0
   43.7992   37.0343   45.0602 H   0  0  0  0  0  0  0  0  0  0  0  0
   44.9519   36.8862   42.8328 H   0  0  0  0  0  0  0  0  0  0  0  0
   45.5178   33.3831   46.2595 H   0  0  0  0  0  0  0  0  0  0  0  0
   44.5888   33.3003   40.0029 H   0  0  0  0  0  0  0  0  0  0  0  0
   43.7962   35.3889   42.1081 H   0  0  0  0  0  0  0  0  0  0  0  0
   43.8322   35.6255   40.3033 H   0  0  0  0  0  0  0  0  0  0  0  0
   41.4259   35.1612   40.8789 H   0  0  0  0  0  0  0  0  0  0  0  0
   41.0327   32.5757   40.8260 H   0  0  0  0  0  0  0  0  0  0  0  0
   42.6861   31.4653   42.3878 H   0  0  0  0  0  0  0  0  0  0  0  0
   43.4402   31.5199   40.7318 H   0  0  0  0  0  0  0  0  0  0  0  0
   45.1053   32.2011   42.3905 H   0  0  0  0  0  0  0  0  0  0  0  0
   44.0511   33.4210   43.0704 H   0  0  0  0  0  0  0  0  0  0  0  0
  1  9  1  0
  2  1  2  0
  3  2  1  0
  4  5  1  0
  4  3  2  0
  5  6  2  0
  6  1  1  0
  7 12  2  0
  8  7  1  0
  9  8  2  0
  9 10  1  0
 10 11  2  0
 11 12  1  0
 13  6  1  0
 13 14  1  0
 13 18  1  0
 15 16  2  0
 15 14  1  0
 16 17  1  0
 17 18  1  0
  2 19  1  0
  3 20  1  0
  4 21  1  0
  5 22  1  0
  7 23  1  0
  8 24  1  0
 11 25  1  0
 13 26  1  6
 14 27  1  0
 14 28  1  0
 15 29  1  0
 16 30  1  0
 17 31  1  0
 17 32  1  0
 18 33  1  0
 18 34  1  0
M  ISO  8  19  14  20  14  21  14  22  14  23  14  24  14  25  14  26  13
M  ISO  8  27  13  28  13  29  13  30  13  31  13  32  13  33  13  34  13
M  END
>  <minimizedAffinity>  (1) 
-5.89180279

>  <minimizedRMSD>  (1) 
0.558921993

$$$$
