
     RDKit          3D

 21 22  0  0  0  0  0  0  0  0999 V2000
   46.0930   34.7530   43.3440 C   0  0  0  0  0  0  0  0  0  0  0  0
   45.1530   35.7680   43.5580 C   0  0  0  0  0  0  0  0  0  0  0  0
   44.4670   35.8950   44.7520 C   0  0  0  0  0  0  0  0  0  0  0  0
   44.6840   35.0400   45.7580 N   0  0  0  0  0  0  0  0  0  0  0  0
   45.5980   34.0650   45.5310 C   0  0  0  0  0  0  0  0  0  0  0  0
   46.2890   33.9090   44.3730 N   0  0  0  0  0  0  0  0  0  0  0  0
   46.9380   33.8290   39.8980 C   0  0  0  0  0  0  0  0  0  0  0  0
   48.1510   34.5180   39.6980 C   0  0  0  0  0  0  0  0  0  0  0  0
   48.6540   35.2870   40.7490 C   0  0  0  0  0  0  0  0  0  0  0  0
   47.9580   35.3360   41.9140 N   0  0  0  0  0  0  0  0  0  0  0  0
   46.7910   34.6570   42.0700 C   0  0  0  0  0  0  0  0  0  0  0  0
   46.2750   33.9090   41.0830 N   0  0  0  0  0  0  0  0  0  0  0  0
   45.8900   33.0930   46.5800 C   0  0  0  0  0  0  0  0  0  0  0  0
   45.1370   32.8890   47.5820 O   0  0  0  0  0  0  0  0  0  0  0  0
   47.0250   32.2940   46.5820 O   0  0  0  0  0  0  0  0  0  0  0  0
   44.9536   36.4877   42.7504 H   0  0  0  0  0  0  0  0  0  0  0  0
   43.7355   36.7072   44.8759 H   0  0  0  0  0  0  0  0  0  0  0  0
   46.5213   33.2176   39.0840 H   0  0  0  0  0  0  0  0  0  0  0  0
   48.6870   34.4517   38.7397 H   0  0  0  0  0  0  0  0  0  0  0  0
   49.5964   35.8428   40.6355 H   0  0  0  0  0  0  0  0  0  0  0  0
   47.1756   31.6498   47.3185 H   0  0  0  0  0  0  0  0  0  0  0  0
  1  2  2  0
  1  6  1  0
  2  3  1  0
  3  4  2  0
  5  4  1  0
  5 13  1  0
  6  5  2  0
  7 12  2  0
  8  7  1  0
  8  9  2  0
  9 10  1  0
 10 11  2  0
 11  1  1  0
 12 11  1  0
 13 15  1  0
 13 14  2  0
  2 16  1  0
  3 17  1  0
  7 18  1  0
  8 19  1  0
  9 20  1  0
 15 21  1  0
M  ISO  6  16  14  17  14  18  14  19  14  20  14  21   3
M  END
>  <minimizedAffinity>  (1) 
-5.0528388

>  <minimizedRMSD>  (1) 
4.50244713

$$$$
