
     RDKit          3D

 24 25  0  0  0  0  0  0  0  0999 V2000
   46.2260   33.0100   45.6660 C   0  0  0  0  0  0  0  0  0  0  0  0
   46.9720   31.9470   45.1370 C   0  0  0  0  0  0  0  0  0  0  0  0
   47.3780   30.8780   45.8940 C   0  0  0  0  0  0  0  0  0  0  0  0
   47.0610   30.8330   47.1870 N   0  0  0  0  0  0  0  0  0  0  0  0
   46.3360   31.8700   47.7010 C   0  0  0  0  0  0  0  0  0  0  0  0
   45.9190   32.9390   46.9770 N   0  0  0  0  0  0  0  0  0  0  0  0
   44.5060   36.0030   44.4280 C   0  0  0  0  0  0  0  0  0  0  0  0
   45.0900   36.1730   43.1750 C   0  0  0  0  0  0  0  0  0  0  0  0
   46.0730   35.2590   42.7600 C   0  0  0  0  0  0  0  0  0  0  0  0
   46.4160   34.2530   43.5890 N   0  0  0  0  0  0  0  0  0  0  0  0
   45.8140   34.1260   44.8120 C   0  0  0  0  0  0  0  0  0  0  0  0
   44.8780   34.9750   45.2360 N   0  0  0  0  0  0  0  0  0  0  0  0
   45.9080   31.9560   49.1290 C   0  0  0  0  0  0  0  0  0  0  0  0
   44.9980   30.7890   49.4820 C   0  0  0  0  0  0  0  0  0  0  0  0
   47.2426   31.9716   44.0711 H   0  0  0  0  0  0  0  0  0  0  0  0
   47.9606   30.0644   45.4372 H   0  0  0  0  0  0  0  0  0  0  0  0
   43.7342   36.7093   44.7680 H   0  0  0  0  0  0  0  0  0  0  0  0
   44.7877   37.0061   42.5235 H   0  0  0  0  0  0  0  0  0  0  0  0
   46.5541   35.3625   41.7762 H   0  0  0  0  0  0  0  0  0  0  0  0
   46.7973   31.9305   49.7759 H   0  0  0  0  0  0  0  0  0  0  0  0
   45.3570   32.8960   49.2800 H   0  0  0  0  0  0  0  0  0  0  0  0
   44.9267   30.6975   50.5759 H   0  0  0  0  0  0  0  0  0  0  0  0
   43.9964   30.9652   49.0627 H   0  0  0  0  0  0  0  0  0  0  0  0
   45.4130   29.8606   49.0627 H   0  0  0  0  0  0  0  0  0  0  0  0
  1  6  1  0
  2  1  2  0
  2  3  1  0
  3  4  2  0
  4  5  1  0
  5 13  1  0
  6  5  2  0
  7 12  2  0
  8  7  1  0
  9  8  2  0
  9 10  1  0
 10 11  2  0
 11 12  1  0
 11  1  1  0
 13 14  1  0
  2 15  1  0
  3 16  1  0
  7 17  1  0
  8 18  1  0
  9 19  1  0
 13 20  1  0
 13 21  1  0
 14 22  1  0
 14 23  1  0
 14 24  1  0
M  ISO  8  15  14  16  14  17  14  18  14  19  14  20   8  21   8  22   8
M  ISO  2  23   8  24   8
M  END
>  <minimizedAffinity>  (1) 
-4.62068653

>  <minimizedRMSD>  (1) 
1.24814785

$$$$
