
     RDKit          3D

 27 28  0  0  0  0  0  0  0  0999 V2000
   46.6800   34.7580   42.0100 C   0  0  0  0  0  0  0  0  0  0  0  0
   47.8880   35.3640   41.8700 C   0  0  0  0  0  0  0  0  0  0  0  0
   48.6530   35.2440   40.7120 C   0  0  0  0  0  0  0  0  0  0  0  0
   48.1760   34.4780   39.6590 C   0  0  0  0  0  0  0  0  0  0  0  0
   46.9570   33.8730   39.8150 C   0  0  0  0  0  0  0  0  0  0  0  0
   46.1910   33.9880   40.9600 C   0  0  0  0  0  0  0  0  0  0  0  0
   44.5060   36.1190   44.7770 C   0  0  0  0  0  0  0  0  0  0  0  0
   45.1520   36.0700   43.5290 C   0  0  0  0  0  0  0  0  0  0  0  0
   45.9490   34.9490   43.2700 C   0  0  0  0  0  0  0  0  0  0  0  0
   46.0630   33.9880   44.2040 N   0  0  0  0  0  0  0  0  0  0  0  0
   45.4200   34.0770   45.3990 C   0  0  0  0  0  0  0  0  0  0  0  0
   44.6540   35.1290   45.6760 N   0  0  0  0  0  0  0  0  0  0  0  0
   44.9300   33.3650   41.1070 N   0  0  0  0  0  0  0  0  0  0  0  0
   43.6810   34.0280   40.9380 C   0  0  0  0  0  0  0  0  0  0  0  0
   43.6150   34.7950   39.8810 N   0  0  0  0  0  0  0  0  0  0  0  0
   42.6390   33.8010   41.9090 N   0  0  0  0  0  0  0  0  0  0  0  0
   42.7330   35.3050   39.7020 H   0  0  0  0  0  0  0  0  0  0  0  0
   48.2759   35.9713   42.7011 H   0  0  0  0  0  0  0  0  0  0  0  0
   49.6257   35.7517   40.6336 H   0  0  0  0  0  0  0  0  0  0  0  0
   48.7558   34.3604   38.7316 H   0  0  0  0  0  0  0  0  0  0  0  0
   46.5673   33.2639   38.9860 H   0  0  0  0  0  0  0  0  0  0  0  0
   43.8688   36.9814   45.0225 H   0  0  0  0  0  0  0  0  0  0  0  0
   45.0362   36.8762   42.7897 H   0  0  0  0  0  0  0  0  0  0  0  0
   45.5340   33.2737   46.1417 H   0  0  0  0  0  0  0  0  0  0  0  0
   44.9138   32.3649   41.3527 H   0  0  0  0  0  0  0  0  0  0  0  0
   41.7280   34.2704   41.8060 H   0  0  0  0  0  0  0  0  0  0  0  0
   42.8059   33.1695   42.7054 H   0  0  0  0  0  0  0  0  0  0  0  0
  1  9  1  0
  2  1  2  0
  3  2  1  0
  4  5  1  0
  4  3  2  0
  5  6  2  0
  6 13  1  0
  6  1  1  0
  7 12  2  0
  8  7  1  0
  9  8  2  0
  9 10  1  0
 10 11  2  0
 11 12  1  0
 14 13  1  0
 14 16  1  0
 15 14  2  0
 17 15  1  0
  2 18  1  0
  3 19  1  0
  4 20  1  0
  5 21  1  0
  7 22  1  0
  8 23  1  0
 11 24  1  0
 13 25  1  0
 16 26  1  0
 16 27  1  0
M  ISO  7  18  14  19  14  20  14  21  14  22  14  23  14  24  14
M  END
>  <minimizedAffinity>  (1) 
-5.84540796

>  <minimizedRMSD>  (1) 
0.0945842713

$$$$
