
     RDKit          3D

 34 37  0  0  0  0  0  0  0  0999 V2000
   44.5590   35.6330   44.8110 C   0  0  0  0  0  0  0  0  0  0  0  0
   45.2730   35.6690   43.6060 C   0  0  0  0  0  0  0  0  0  0  0  0
   46.2770   34.7450   43.3470 C   0  0  0  0  0  0  0  0  0  0  0  0
   46.5420   33.8110   44.2940 N   0  0  0  0  0  0  0  0  0  0  0  0
   45.8450   33.7860   45.4530 C   0  0  0  0  0  0  0  0  0  0  0  0
   44.8730   34.6780   45.7080 N   0  0  0  0  0  0  0  0  0  0  0  0
   47.0190   34.7510   42.1410 N   0  0  0  0  0  0  0  0  0  0  0  0
   48.2190   35.2870   41.9580 C   0  0  0  0  0  0  0  0  0  0  0  0
   48.6510   35.1210   40.6900 N   0  0  0  0  0  0  0  0  0  0  0  0
   47.6980   34.4560   40.0330 C   0  0  0  0  0  0  0  0  0  0  0  0
   47.6130   34.0190   38.7120 C   0  0  0  0  0  0  0  0  0  0  0  0
   48.5590   34.2460   37.9070 O   0  0  0  0  0  0  0  0  0  0  0  0
   46.4890   33.3520   38.3290 N   0  0  0  0  0  0  0  0  0  0  0  0
   45.4980   33.1350   39.2370 C   0  0  0  0  0  0  0  0  0  0  0  0
   44.3240   32.4260   38.7980 N   0  0  0  0  0  0  0  0  0  0  0  0
   45.6110   33.5700   40.5080 N   0  0  0  0  0  0  0  0  0  0  0  0
   46.6900   34.2350   40.9560 C   0  0  0  0  0  0  0  0  0  0  0  0
   46.1490   32.7680   46.4610 C   0  0  0  0  0  0  0  0  0  0  0  0
   47.0540   31.7560   46.1530 C   0  0  0  0  0  0  0  0  0  0  0  0
   47.4010   30.7630   47.0280 C   0  0  0  0  0  0  0  0  0  0  0  0
   46.8470   30.7530   48.2440 N   0  0  0  0  0  0  0  0  0  0  0  0
   45.9640   31.7350   48.5560 C   0  0  0  0  0  0  0  0  0  0  0  0
   45.6090   32.7320   47.6930 N   0  0  0  0  0  0  0  0  0  0  0  0
   45.2830   31.8790   49.7990 N   0  0  0  0  0  0  0  0  0  0  0  0
   43.7640   36.3643   45.0189 H   0  0  0  0  0  0  0  0  0  0  0  0
   45.0356   36.4381   42.8563 H   0  0  0  0  0  0  0  0  0  0  0  0
   48.7913   35.8031   42.7430 H   0  0  0  0  0  0  0  0  0  0  0  0
   46.3896   33.0147   37.3609 H   0  0  0  0  0  0  0  0  0  0  0  0
   43.5549   32.2445   39.4586 H   0  0  0  0  0  0  0  0  0  0  0  0
   44.2534   32.1004   37.8234 H   0  0  0  0  0  0  0  0  0  0  0  0
   47.5142   31.7546   45.1539 H   0  0  0  0  0  0  0  0  0  0  0  0
   48.1233   29.9866   46.7356 H   0  0  0  0  0  0  0  0  0  0  0  0
   44.6287   32.6618   49.9401 H   0  0  0  0  0  0  0  0  0  0  0  0
   45.4450   31.2003   50.5566 H   0  0  0  0  0  0  0  0  0  0  0  0
  1  6  2  0
  2  1  1  0
  3  2  2  0
  3  4  1  0
  4  5  2  0
  5  6  1  0
  5 18  1  0
  7  3  1  0
  8  7  1  0
  9  8  2  0
 10  9  1  0
 10 17  2  0
 11 10  1  0
 12 11  2  0
 13 11  1  0
 13 14  1  0
 14 16  2  0
 15 14  1  0
 16 17  1  0
 17  7  1  0
 18 23  1  0
 19 18  2  0
 19 20  1  0
 20 21  2  0
 21 22  1  0
 22 24  1  0
 23 22  2  0
  1 25  1  0
  2 26  1  0
  8 27  1  0
 13 28  1  0
 15 29  1  0
 15 30  1  0
 19 31  1  0
 20 32  1  0
 24 33  1  0
 24 34  1  0
M  ISO  6  25  14  26  14  27  14  28   9  31  14  32  14
M  END
>  <minimizedAffinity>  (1) 
-7.21827364

>  <minimizedRMSD>  (1) 
0.596131861

$$$$
