
     RDKit          3D

 35 37  0  0  0  0  0  0  0  0999 V2000
   44.4450   35.7260   45.0420 C   0  0  0  0  0  0  0  0  0  0  0  0
   45.0470   35.7620   43.7910 C   0  0  0  0  0  0  0  0  0  0  0  0
   45.9990   34.8020   43.4670 C   0  0  0  0  0  0  0  0  0  0  0  0
   46.2890   33.8680   44.4080 N   0  0  0  0  0  0  0  0  0  0  0  0
   45.6900   33.8540   45.6180 C   0  0  0  0  0  0  0  0  0  0  0  0
   44.7680   34.7730   45.9480 N   0  0  0  0  0  0  0  0  0  0  0  0
   46.0480   32.8210   46.5850 C   0  0  0  0  0  0  0  0  0  0  0  0
   47.0090   31.8730   46.2560 C   0  0  0  0  0  0  0  0  0  0  0  0
   47.3950   30.8750   47.1160 C   0  0  0  0  0  0  0  0  0  0  0  0
   46.8400   30.7910   48.3200 N   0  0  0  0  0  0  0  0  0  0  0  0
   45.8970   31.7190   48.6480 C   0  0  0  0  0  0  0  0  0  0  0  0
   45.5040   32.7140   47.8070 N   0  0  0  0  0  0  0  0  0  0  0  0
   45.1950   31.7890   49.8880 N   0  0  0  0  0  0  0  0  0  0  0  0
   46.7090   34.6940   42.2380 N   0  0  0  0  0  0  0  0  0  0  0  0
   48.1280   34.8720   42.1150 C   0  0  0  0  0  0  0  0  0  0  0  0
   48.5450   35.3290   40.7420 C   0  0  0  0  0  0  0  0  0  0  0  0
   48.1340   34.3420   39.6700 C   0  0  0  0  0  0  0  0  0  0  0  0
   46.9810   33.4730   40.1640 C   0  0  0  0  0  0  0  0  0  0  0  0
   46.0590   34.3880   40.9790 C   0  0  0  0  0  0  0  0  0  0  0  0
   43.6924   36.4852   45.3014 H   0  0  0  0  0  0  0  0  0  0  0  0
   44.7736   36.5414   43.0645 H   0  0  0  0  0  0  0  0  0  0  0  0
   47.4809   31.9244   45.2637 H   0  0  0  0  0  0  0  0  0  0  0  0
   48.1610   30.1476   46.8093 H   0  0  0  0  0  0  0  0  0  0  0  0
   44.4970   32.5303   50.0435 H   0  0  0  0  0  0  0  0  0  0  0  0
   45.3862   31.0982   50.6277 H   0  0  0  0  0  0  0  0  0  0  0  0
   48.4521   35.6246   42.8488 H   0  0  0  0  0  0  0  0  0  0  0  0
   48.5998   33.8947   42.2948 H   0  0  0  0  0  0  0  0  0  0  0  0
   48.0727   36.2999   40.5316 H   0  0  0  0  0  0  0  0  0  0  0  0
   49.6419   35.4106   40.7281 H   0  0  0  0  0  0  0  0  0  0  0  0
   48.9913   33.6997   39.4202 H   0  0  0  0  0  0  0  0  0  0  0  0
   47.8069   34.8975   38.7787 H   0  0  0  0  0  0  0  0  0  0  0  0
   46.4341   33.0470   39.3099 H   0  0  0  0  0  0  0  0  0  0  0  0
   47.3494   32.6359   40.7752 H   0  0  0  0  0  0  0  0  0  0  0  0
   45.8729   35.3181   40.4220 H   0  0  0  0  0  0  0  0  0  0  0  0
   45.0979   33.8859   41.1638 H   0  0  0  0  0  0  0  0  0  0  0  0
  1  6  2  0
  2  1  1  0
  3  2  2  0
  3  4  1  0
  4  5  2  0
  5  6  1  0
  5  7  1  0
  7 12  1  0
  8  7  2  0
  8  9  1  0
  9 10  2  0
 10 11  1  0
 11 13  1  0
 12 11  2  0
 14  3  1  0
 15 14  1  0
 16 15  1  0
 17 18  1  0
 17 16  1  0
 18 19  1  0
 19 14  1  0
  1 20  1  0
  2 21  1  0
  8 22  1  0
  9 23  1  0
 13 24  1  0
 13 25  1  0
 15 26  1  0
 15 27  1  0
 16 28  1  0
 16 29  1  0
 17 30  1  0
 17 31  1  0
 18 32  1  0
 18 33  1  0
 19 34  1  0
 19 35  1  0
M  ISO  8  20  14  21  14  22  14  23  14  26  13  27  13  28  13  29  13
M  ISO  6  30  13  31  13  32  13  33  13  34  13  35  13
M  END
>  <minimizedAffinity>  (1) 
-6.66966295

>  <minimizedRMSD>  (1) 
0.317725778

$$$$
