
     RDKit          3D

 27 29  0  0  0  0  0  0  0  0999 V2000
   44.5920   35.7480   44.4630 C   0  0  0  0  0  0  0  0  0  0  0  0
   45.3390   35.8640   43.2910 C   0  0  0  0  0  0  0  0  0  0  0  0
   46.3740   34.9660   43.0710 C   0  0  0  0  0  0  0  0  0  0  0  0
   46.6220   34.0130   44.0020 N   0  0  0  0  0  0  0  0  0  0  0  0
   45.8720   33.9330   45.1340 C   0  0  0  0  0  0  0  0  0  0  0  0
   44.8600   34.7890   45.3770 N   0  0  0  0  0  0  0  0  0  0  0  0
   46.1790   32.8850   46.1090 C   0  0  0  0  0  0  0  0  0  0  0  0
   46.9560   31.7980   45.7460 C   0  0  0  0  0  0  0  0  0  0  0  0
   47.2760   30.7900   46.6140 C   0  0  0  0  0  0  0  0  0  0  0  0
   46.8360   30.8270   47.8660 N   0  0  0  0  0  0  0  0  0  0  0  0
   46.0670   31.9000   48.2290 C   0  0  0  0  0  0  0  0  0  0  0  0
   45.7350   32.9180   47.3810 N   0  0  0  0  0  0  0  0  0  0  0  0
   45.4990   32.1230   49.5310 N   0  0  0  0  0  0  0  0  0  0  0  0
   47.2360   34.9570   41.9070 C   0  0  0  0  0  0  0  0  0  0  0  0
   46.9680   34.2400   40.7620 C   0  0  0  0  0  0  0  0  0  0  0  0
   47.9990   34.4670   39.8690 C   0  0  0  0  0  0  0  0  0  0  0  0
   48.8500   35.3000   40.4780 N   0  0  0  0  0  0  0  0  0  0  0  0
   48.4040   35.5900   41.6780 N   0  0  0  0  0  0  0  0  0  0  0  0
   43.7671   36.4520   44.6475 H   0  0  0  0  0  0  0  0  0  0  0  0
   45.1126   36.6508   42.5564 H   0  0  0  0  0  0  0  0  0  0  0  0
   47.3327   31.7424   44.7140 H   0  0  0  0  0  0  0  0  0  0  0  0
   47.8980   29.9487   46.2744 H   0  0  0  0  0  0  0  0  0  0  0  0
   44.9318   32.9643   49.7082 H   0  0  0  0  0  0  0  0  0  0  0  0
   45.6593   31.4414   50.2864 H   0  0  0  0  0  0  0  0  0  0  0  0
   46.0899   33.6005   40.5887 H   0  0  0  0  0  0  0  0  0  0  0  0
   48.0994   34.0458   38.8578 H   0  0  0  0  0  0  0  0  0  0  0  0
   49.7235   35.6596   40.0673 H   0  0  0  0  0  0  0  0  0  0  0  0
  1  6  2  0
  2  1  1  0
  3  2  2  0
  3  4  1  0
  4  5  2  0
  5  6  1  0
  5  7  1  0
  7 12  1  0
  8  7  2  0
  8  9  1  0
  9 10  2  0
 10 11  1  0
 11 13  1  0
 12 11  2  0
 14  3  1  0
 15 14  1  0
 16 17  1  0
 16 15  2  0
 17 18  1  0
 18 14  2  0
  1 19  1  0
  2 20  1  0
  8 21  1  0
  9 22  1  0
 13 23  1  0
 13 24  1  0
 15 25  1  0
 16 26  1  0
 17 27  1  0
M  ISO  7  19  14  20  14  21  14  22  14  25  14  26  14  27   9
M  END
>  <minimizedAffinity>  (1) 
-6.41524076

>  <minimizedRMSD>  (1) 
0.729819357

$$$$
