
     RDKit          3D

 27 29  0  0  0  0  0  0  0  0999 V2000
   44.5040   35.7280   44.8880 C   0  0  0  0  0  0  0  0  0  0  0  0
   45.1480   35.7930   43.6590 C   0  0  0  0  0  0  0  0  0  0  0  0
   46.1230   34.8450   43.3790 C   0  0  0  0  0  0  0  0  0  0  0  0
   46.4300   33.8780   44.3000 N   0  0  0  0  0  0  0  0  0  0  0  0
   45.7590   33.8700   45.4910 C   0  0  0  0  0  0  0  0  0  0  0  0
   44.8110   34.7720   45.7920 N   0  0  0  0  0  0  0  0  0  0  0  0
   46.0950   32.8290   46.4700 C   0  0  0  0  0  0  0  0  0  0  0  0
   47.0060   31.8430   46.1480 C   0  0  0  0  0  0  0  0  0  0  0  0
   47.3820   30.8340   46.9930 C   0  0  0  0  0  0  0  0  0  0  0  0
   46.8410   30.7830   48.2170 N   0  0  0  0  0  0  0  0  0  0  0  0
   45.9450   31.7490   48.5380 C   0  0  0  0  0  0  0  0  0  0  0  0
   45.5620   32.7590   47.7040 N   0  0  0  0  0  0  0  0  0  0  0  0
   45.2660   31.8560   49.7950 N   0  0  0  0  0  0  0  0  0  0  0  0
   46.8770   34.7640   42.1760 N   0  0  0  0  0  0  0  0  0  0  0  0
   46.4070   34.1110   41.1230 N   0  0  0  0  0  0  0  0  0  0  0  0
   47.2880   34.1690   40.1100 C   0  0  0  0  0  0  0  0  0  0  0  0
   48.3640   34.9110   40.5920 C   0  0  0  0  0  0  0  0  0  0  0  0
   48.0850   35.2820   41.9120 C   0  0  0  0  0  0  0  0  0  0  0  0
   43.7286   36.4697   45.1301 H   0  0  0  0  0  0  0  0  0  0  0  0
   44.8926   36.5740   42.9277 H   0  0  0  0  0  0  0  0  0  0  0  0
   47.4596   31.8700   45.1463 H   0  0  0  0  0  0  0  0  0  0  0  0
   48.1150   30.0790   46.6726 H   0  0  0  0  0  0  0  0  0  0  0  0
   44.5985   32.6237   49.9561 H   0  0  0  0  0  0  0  0  0  0  0  0
   45.4453   31.1652   50.5376 H   0  0  0  0  0  0  0  0  0  0  0  0
   47.1818   33.7238   39.1097 H   0  0  0  0  0  0  0  0  0  0  0  0
   49.2764   35.1621   40.0312 H   0  0  0  0  0  0  0  0  0  0  0  0
   48.7207   35.8723   42.5883 H   0  0  0  0  0  0  0  0  0  0  0  0
  1  6  2  0
  2  1  1  0
  3  2  2  0
  3  4  1  0
  4  5  2  0
  5  6  1  0
  5  7  1  0
  7 12  1  0
  8  7  2  0
  8  9  1  0
  9 10  2  0
 10 11  1  0
 11 13  1  0
 12 11  2  0
 14  3  1  0
 15 14  1  0
 16 17  1  0
 16 15  2  0
 17 18  2  0
 18 14  1  0
  1 19  1  0
  2 20  1  0
  8 21  1  0
  9 22  1  0
 13 23  1  0
 13 24  1  0
 16 25  1  0
 17 26  1  0
 18 27  1  0
M  ISO  7  19  14  20  14  21  14  22  14  25  14  26  14  27  14
M  END
>  <minimizedAffinity>  (1) 
-6.28148651

>  <minimizedRMSD>  (1) 
0.589665174

$$$$
