
     RDKit          3D

 27 28  0  0  0  0  0  0  0  0999 V2000
   44.5370   35.7500   44.8450 C   0  0  0  0  0  0  0  0  0  0  0  0
   45.1730   35.8120   43.6170 C   0  0  0  0  0  0  0  0  0  0  0  0
   46.1430   34.8550   43.2860 C   0  0  0  0  0  0  0  0  0  0  0  0
   46.4200   33.8930   44.1990 N   0  0  0  0  0  0  0  0  0  0  0  0
   45.7840   33.8530   45.3930 C   0  0  0  0  0  0  0  0  0  0  0  0
   44.8610   34.7660   45.7050 N   0  0  0  0  0  0  0  0  0  0  0  0
   46.1170   32.7980   46.3430 C   0  0  0  0  0  0  0  0  0  0  0  0
   46.9750   31.7690   45.9760 C   0  0  0  0  0  0  0  0  0  0  0  0
   47.3250   30.7480   46.8270 C   0  0  0  0  0  0  0  0  0  0  0  0
   46.8290   30.7260   48.0670 N   0  0  0  0  0  0  0  0  0  0  0  0
   45.9910   31.7290   48.4280 C   0  0  0  0  0  0  0  0  0  0  0  0
   45.6250   32.7590   47.6030 N   0  0  0  0  0  0  0  0  0  0  0  0
   45.3720   31.8660   49.7050 N   0  0  0  0  0  0  0  0  0  0  0  0
   46.8080   34.9010   42.0300 N   0  0  0  0  0  0  0  0  0  0  0  0
   48.2260   34.8170   42.0190 C   0  0  0  0  0  0  0  0  0  0  0  0
   48.9720   34.7130   43.0660 N   0  0  0  0  0  0  0  0  0  0  0  0
   48.8220   34.8540   40.7330 N   0  0  0  0  0  0  0  0  0  0  0  0
   50.0090   34.6560   42.9770 H   0  0  0  0  0  0  0  0  0  0  0  0
   43.7754   36.4963   45.1152 H   0  0  0  0  0  0  0  0  0  0  0  0
   44.9183   36.6093   42.9033 H   0  0  0  0  0  0  0  0  0  0  0  0
   47.3931   31.7714   44.9586 H   0  0  0  0  0  0  0  0  0  0  0  0
   48.0085   29.9550   46.4894 H   0  0  0  0  0  0  0  0  0  0  0  0
   44.7471   32.6633   49.8916 H   0  0  0  0  0  0  0  0  0  0  0  0
   45.5497   31.1677   50.4410 H   0  0  0  0  0  0  0  0  0  0  0  0
   46.2763   34.9927   41.1526 H   0  0  0  0  0  0  0  0  0  0  0  0
   49.8461   34.7982   40.6382 H   0  0  0  0  0  0  0  0  0  0  0  0
   48.2308   34.9366   39.8936 H   0  0  0  0  0  0  0  0  0  0  0  0
  1  6  2  0
  2  1  1  0
  3  2  2  0
  3  4  1  0
  4  5  2  0
  5  6  1  0
  5  7  1  0
  7 12  1  0
  8  7  2  0
  8  9  1  0
  9 10  2  0
 10 11  1  0
 11 13  1  0
 12 11  2  0
 14  3  1  0
 15 14  1  0
 15 16  2  0
 17 15  1  0
 18 16  1  0
  1 19  1  0
  2 20  1  0
  8 21  1  0
  9 22  1  0
 13 23  1  0
 13 24  1  0
 14 25  1  0
 17 26  1  0
 17 27  1  0
M  ISO  4  19  14  20  14  21  14  22  14
M  END
>  <minimizedAffinity>  (1) 
-6.14001608

>  <minimizedRMSD>  (1) 
0.761069953

$$$$
