
     RDKit          3D

 25 27  0  0  0  0  0  0  0  0999 V2000
   44.5350   35.6740   44.8770 C   0  0  0  0  0  0  0  0  0  0  0  0
   45.2010   35.7020   43.6450 C   0  0  0  0  0  0  0  0  0  0  0  0
   46.1730   34.7450   43.3870 C   0  0  0  0  0  0  0  0  0  0  0  0
   46.4630   33.8070   44.3200 N   0  0  0  0  0  0  0  0  0  0  0  0
   45.7820   33.8180   45.5140 C   0  0  0  0  0  0  0  0  0  0  0  0
   44.8260   34.7300   45.8110 N   0  0  0  0  0  0  0  0  0  0  0  0
   46.1120   32.7910   46.5090 C   0  0  0  0  0  0  0  0  0  0  0  0
   47.0290   31.8020   46.2070 C   0  0  0  0  0  0  0  0  0  0  0  0
   47.3850   30.8050   47.0960 C   0  0  0  0  0  0  0  0  0  0  0  0
   46.8160   30.7920   48.3140 N   0  0  0  0  0  0  0  0  0  0  0  0
   45.9180   31.7660   48.6000 C   0  0  0  0  0  0  0  0  0  0  0  0
   45.5620   32.7470   47.7350 N   0  0  0  0  0  0  0  0  0  0  0  0
   45.2330   31.8850   49.8420 N   0  0  0  0  0  0  0  0  0  0  0  0
   46.8840   34.7450   42.1230 C   0  0  0  0  0  0  0  0  0  0  0  0
   46.4960   34.2400   40.9500 N   0  0  0  0  0  0  0  0  0  0  0  0
   47.4140   34.4380   40.0510 O   0  0  0  0  0  0  0  0  0  0  0  0
   48.4290   35.0760   40.5980 C   0  0  0  0  0  0  0  0  0  0  0  0
   48.1020   35.2700   41.8960 N   0  0  0  0  0  0  0  0  0  0  0  0
   43.7638   36.4283   45.0923 H   0  0  0  0  0  0  0  0  0  0  0  0
   44.9580   36.4690   42.8949 H   0  0  0  0  0  0  0  0  0  0  0  0
   47.4978   31.8085   45.2119 H   0  0  0  0  0  0  0  0  0  0  0  0
   48.1197   30.0371   46.8123 H   0  0  0  0  0  0  0  0  0  0  0  0
   44.5625   32.6529   49.9888 H   0  0  0  0  0  0  0  0  0  0  0  0
   45.4078   31.2032   50.5940 H   0  0  0  0  0  0  0  0  0  0  0  0
   49.3577   35.3887   40.0983 H   0  0  0  0  0  0  0  0  0  0  0  0
  1  6  2  0
  2  1  1  0
  3  2  2  0
  3  4  1  0
  4  5  2  0
  5  6  1  0
  5  7  1  0
  7 12  1  0
  8  7  2  0
  8  9  1  0
  9 10  2  0
 10 11  1  0
 11 13  1  0
 12 11  2  0
 14  3  1  0
 15 14  2  0
 16 17  1  0
 16 15  1  0
 17 18  2  0
 18 14  1  0
  1 19  1  0
  2 20  1  0
  8 21  1  0
  9 22  1  0
 13 23  1  0
 13 24  1  0
 17 25  1  0
M  ISO  5  19  14  20  14  21  14  22  14  25  14
M  END
>  <minimizedAffinity>  (1) 
-6.1315484

>  <minimizedRMSD>  (1) 
0.527741969

$$$$
