
     RDKit          3D

 29 31  0  0  0  0  0  0  0  0999 V2000
   46.6560   34.7990   42.0730 C   0  0  0  0  0  0  0  0  0  0  0  0
   47.9390   35.2370   42.0080 C   0  0  0  0  0  0  0  0  0  0  0  0
   48.7380   35.1150   40.8770 C   0  0  0  0  0  0  0  0  0  0  0  0
   48.1770   34.5000   39.7380 C   0  0  0  0  0  0  0  0  0  0  0  0
   46.8840   34.0580   39.8010 C   0  0  0  0  0  0  0  0  0  0  0  0
   46.1280   34.2010   40.9480 C   0  0  0  0  0  0  0  0  0  0  0  0
   44.4500   36.1110   44.8270 C   0  0  0  0  0  0  0  0  0  0  0  0
   45.0890   36.0620   43.5820 C   0  0  0  0  0  0  0  0  0  0  0  0
   45.9240   34.9880   43.3170 C   0  0  0  0  0  0  0  0  0  0  0  0
   46.0790   34.0380   44.2740 N   0  0  0  0  0  0  0  0  0  0  0  0
   45.4470   34.1070   45.4750 C   0  0  0  0  0  0  0  0  0  0  0  0
   44.6350   35.1510   45.7380 N   0  0  0  0  0  0  0  0  0  0  0  0
   44.7590   33.7060   40.9940 C   0  0  0  0  0  0  0  0  0  0  0  0
   43.6890   34.4500   40.5370 C   0  0  0  0  0  0  0  0  0  0  0  0
   42.3690   33.9940   40.5550 C   0  0  0  0  0  0  0  0  0  0  0  0
   42.1420   32.7250   41.0610 C   0  0  0  0  0  0  0  0  0  0  0  0
   43.2290   31.9970   41.5140 C   0  0  0  0  0  0  0  0  0  0  0  0
   44.5010   32.4980   41.4720 N   0  0  0  0  0  0  0  0  0  0  0  0
   48.3705   35.7151   42.8998 H   0  0  0  0  0  0  0  0  0  0  0  0
   49.7736   35.4858   40.8704 H   0  0  0  0  0  0  0  0  0  0  0  0
   48.7674   34.3784   38.8179 H   0  0  0  0  0  0  0  0  0  0  0  0
   46.4363   33.5779   38.9183 H   0  0  0  0  0  0  0  0  0  0  0  0
   43.7838   36.9549   45.0593 H   0  0  0  0  0  0  0  0  0  0  0  0
   44.9326   36.8541   42.8349 H   0  0  0  0  0  0  0  0  0  0  0  0
   45.5965   33.3177   46.2265 H   0  0  0  0  0  0  0  0  0  0  0  0
   43.8870   35.4556   40.1374 H   0  0  0  0  0  0  0  0  0  0  0  0
   41.5430   34.6176   40.1823 H   0  0  0  0  0  0  0  0  0  0  0  0
   41.1254   32.3067   41.1019 H   0  0  0  0  0  0  0  0  0  0  0  0
   43.0651   30.9875   41.9190 H   0  0  0  0  0  0  0  0  0  0  0  0
  1  9  1  0
  2  1  2  0
  3  2  1  0
  4  5  1  0
  4  3  2  0
  5  6  2  0
  6 13  1  0
  6  1  1  0
  7 12  2  0
  8  7  1  0
  9  8  2  0
  9 10  1  0
 10 11  2  0
 11 12  1  0
 13 18  2  0
 14 15  2  0
 14 13  1  0
 15 16  1  0
 16 17  2  0
 18 17  1  0
  2 19  1  0
  3 20  1  0
  4 21  1  0
  5 22  1  0
  7 23  1  0
  8 24  1  0
 11 25  1  0
 14 26  1  0
 15 27  1  0
 16 28  1  0
 17 29  1  0
M  ISO  8  19  14  20  14  21  14  22  14  23  14  24  14  25  14  26  14
M  ISO  3  27  14  28  14  29  14
M  END
>  <minimizedAffinity>  (1) 
-5.72527313

>  <minimizedRMSD>  (1) 
0.662426114

$$$$
