
     RDKit          3D

 27 29  0  0  0  0  0  0  0  0999 V2000
   46.0630   32.8160   46.3640 C   0  0  0  0  0  0  0  0  0  0  0  0
   47.0890   31.9120   46.1600 C   0  0  0  0  0  0  0  0  0  0  0  0
   47.4060   30.9180   47.0560 C   0  0  0  0  0  0  0  0  0  0  0  0
   46.6950   30.8050   48.1870 N   0  0  0  0  0  0  0  0  0  0  0  0
   45.6880   31.6930   48.3880 C   0  0  0  0  0  0  0  0  0  0  0  0
   45.3680   32.6820   47.5060 N   0  0  0  0  0  0  0  0  0  0  0  0
   44.8240   31.7350   49.5230 N   0  0  0  0  0  0  0  0  0  0  0  0
   44.5990   35.7480   44.7150 C   0  0  0  0  0  0  0  0  0  0  0  0
   45.2730   35.7590   43.5030 C   0  0  0  0  0  0  0  0  0  0  0  0
   46.2310   34.7630   43.2450 C   0  0  0  0  0  0  0  0  0  0  0  0
   46.4660   33.8220   44.1910 N   0  0  0  0  0  0  0  0  0  0  0  0
   45.7770   33.8550   45.3670 C   0  0  0  0  0  0  0  0  0  0  0  0
   44.8590   34.7910   45.6410 N   0  0  0  0  0  0  0  0  0  0  0  0
   46.9460   34.7770   41.9540 C   0  0  0  0  0  0  0  0  0  0  0  0
   48.2220   35.4750   41.7700 C   0  0  0  0  0  0  0  0  0  0  0  0
   48.2640   34.0130   41.9780 C   0  0  0  0  0  0  0  0  0  0  0  0
   47.6806   31.9917   45.2360 H   0  0  0  0  0  0  0  0  0  0  0  0
   48.2333   30.2237   46.8471 H   0  0  0  0  0  0  0  0  0  0  0  0
   44.0862   32.4513   49.5824 H   0  0  0  0  0  0  0  0  0  0  0  0
   44.9382   31.0490   50.2828 H   0  0  0  0  0  0  0  0  0  0  0  0
   43.8469   36.5221   44.9275 H   0  0  0  0  0  0  0  0  0  0  0  0
   45.0610   36.5362   42.7540 H   0  0  0  0  0  0  0  0  0  0  0  0
   46.0078   34.8031   41.3803 H   0  0  0  0  0  0  0  0  0  0  0  0
   48.4765   35.8911   40.7841 H   0  0  0  0  0  0  0  0  0  0  0  0
   48.7027   36.3311   42.2660 H   0  0  0  0  0  0  0  0  0  0  0  0
   48.6471   33.5983   42.9221 H   0  0  0  0  0  0  0  0  0  0  0  0
   48.6848   33.1531   41.4364 H   0  0  0  0  0  0  0  0  0  0  0  0
  1  6  1  0
  2  1  2  0
  2  3  1  0
  3  4  2  0
  4  5  1  0
  5  7  1  0
  6  5  2  0
  8 13  2  0
  9  8  1  0
 10  9  2  0
 10 11  1  0
 11 12  2  0
 12 13  1  0
 12  1  1  0
 14 16  1  0
 14 10  1  0
 15 14  1  0
 15 16  1  0
  2 17  1  0
  3 18  1  0
  7 19  1  0
  7 20  1  0
  8 21  1  0
  9 22  1  0
 14 23  1  0
 15 24  1  0
 15 25  1  0
 16 26  1  0
 16 27  1  0
M  ISO  8  17  14  18  14  21  14  22  14  23  13  24  13  25  13  26  13
M  ISO  1  27  13
M  END
>  <minimizedAffinity>  (1) 
-5.61629486

>  <minimizedRMSD>  (1) 
0.32305795

$$$$
