
     RDKit          3D

 23 24  0  0  0  0  0  0  0  0999 V2000
   44.4630   35.8790   44.8760 C   0  0  0  0  0  0  0  0  0  0  0  0
   45.0270   35.9100   43.5970 C   0  0  0  0  0  0  0  0  0  0  0  0
   45.9360   34.9250   43.2340 C   0  0  0  0  0  0  0  0  0  0  0  0
   46.2550   33.9550   44.1280 N   0  0  0  0  0  0  0  0  0  0  0  0
   45.6820   33.9590   45.3680 C   0  0  0  0  0  0  0  0  0  0  0  0
   44.7940   34.9050   45.7490 N   0  0  0  0  0  0  0  0  0  0  0  0
   46.0370   32.9080   46.3170 C   0  0  0  0  0  0  0  0  0  0  0  0
   46.9150   31.9030   45.9410 C   0  0  0  0  0  0  0  0  0  0  0  0
   47.2990   30.8840   46.7680 C   0  0  0  0  0  0  0  0  0  0  0  0
   46.8110   30.8390   48.0070 N   0  0  0  0  0  0  0  0  0  0  0  0
   45.9500   31.8180   48.3840 C   0  0  0  0  0  0  0  0  0  0  0  0
   45.5640   32.8330   47.5680 N   0  0  0  0  0  0  0  0  0  0  0  0
   45.3500   31.8970   49.6770 N   0  0  0  0  0  0  0  0  0  0  0  0
   46.5750   34.8780   41.9220 C   0  0  0  0  0  0  0  0  0  0  0  0
   47.8130   35.1480   41.7730 O   0  0  0  0  0  0  0  0  0  0  0  0
   45.8300   34.5330   40.8020 O   0  0  0  0  0  0  0  0  0  0  0  0
   43.7430   36.6557   45.1732 H   0  0  0  0  0  0  0  0  0  0  0  0
   44.7541   36.7048   42.8872 H   0  0  0  0  0  0  0  0  0  0  0  0
   47.3255   31.9267   44.9207 H   0  0  0  0  0  0  0  0  0  0  0  0
   48.0002   30.1131   46.4157 H   0  0  0  0  0  0  0  0  0  0  0  0
   44.7037   32.6678   49.8986 H   0  0  0  0  0  0  0  0  0  0  0  0
   45.5634   31.1832   50.3883 H   0  0  0  0  0  0  0  0  0  0  0  0
   46.2612   34.5005   39.9114 H   0  0  0  0  0  0  0  0  0  0  0  0
  1  6  2  0
  2  1  1  0
  3  2  2  0
  3  4  1  0
  4  5  2  0
  5  6  1  0
  5  7  1  0
  7 12  1  0
  8  7  2  0
  8  9  1  0
  9 10  2  0
 10 11  1  0
 11 13  1  0
 12 11  2  0
 14  3  1  0
 15 14  2  0
 16 14  1  0
  1 17  1  0
  2 18  1  0
  8 19  1  0
  9 20  1  0
 13 21  1  0
 13 22  1  0
 16 23  1  0
M  ISO  5  17  14  18  14  19  14  20  14  23   3
M  END
>  <minimizedAffinity>  (1) 
-5.55410814

>  <minimizedRMSD>  (1) 
0.557821214

$$$$
