
     RDKit          3D

 28 30  0  0  0  0  0  0  0  0999 V2000
   46.6590   34.7990   42.0660 C   0  0  0  0  0  0  0  0  0  0  0  0
   47.9450   35.2660   42.0090 C   0  0  0  0  0  0  0  0  0  0  0  0
   48.7160   35.1290   40.8480 C   0  0  0  0  0  0  0  0  0  0  0  0
   48.1680   34.5030   39.7170 C   0  0  0  0  0  0  0  0  0  0  0  0
   46.8780   34.0440   39.7990 C   0  0  0  0  0  0  0  0  0  0  0  0
   46.1450   34.1930   40.9540 C   0  0  0  0  0  0  0  0  0  0  0  0
   44.4520   36.1210   44.8220 C   0  0  0  0  0  0  0  0  0  0  0  0
   45.0960   36.0650   43.5750 C   0  0  0  0  0  0  0  0  0  0  0  0
   45.9250   34.9830   43.3210 C   0  0  0  0  0  0  0  0  0  0  0  0
   46.0950   34.0150   44.2700 N   0  0  0  0  0  0  0  0  0  0  0  0
   45.4390   34.1270   45.4640 C   0  0  0  0  0  0  0  0  0  0  0  0
   44.6370   35.1560   45.7330 N   0  0  0  0  0  0  0  0  0  0  0  0
   44.7830   33.6920   40.9920 C   0  0  0  0  0  0  0  0  0  0  0  0
   43.6990   34.4420   40.5230 C   0  0  0  0  0  0  0  0  0  0  0  0
   42.3920   33.9440   40.5670 C   0  0  0  0  0  0  0  0  0  0  0  0
   42.1380   32.7220   41.0640 N   0  0  0  0  0  0  0  0  0  0  0  0
   43.2100   32.0160   41.5110 C   0  0  0  0  0  0  0  0  0  0  0  0
   44.5040   32.4520   41.4920 N   0  0  0  0  0  0  0  0  0  0  0  0
   48.3804   35.7578   42.8914 H   0  0  0  0  0  0  0  0  0  0  0  0
   49.7474   35.5105   40.8222 H   0  0  0  0  0  0  0  0  0  0  0  0
   48.7547   34.3844   38.7941 H   0  0  0  0  0  0  0  0  0  0  0  0
   46.4226   33.5494   38.9284 H   0  0  0  0  0  0  0  0  0  0  0  0
   43.7880   36.9669   45.0534 H   0  0  0  0  0  0  0  0  0  0  0  0
   44.9474   36.8546   42.8237 H   0  0  0  0  0  0  0  0  0  0  0  0
   45.5774   33.3447   46.2248 H   0  0  0  0  0  0  0  0  0  0  0  0
   43.8782   35.4458   40.1104 H   0  0  0  0  0  0  0  0  0  0  0  0
   41.5626   34.5605   40.1901 H   0  0  0  0  0  0  0  0  0  0  0  0
   43.0200   31.0131   41.9209 H   0  0  0  0  0  0  0  0  0  0  0  0
  1  9  1  0
  2  1  2  0
  3  2  1  0
  4  5  1  0
  4  3  2  0
  5  6  2  0
  6 13  1  0
  6  1  1  0
  7 12  2  0
  8  7  1  0
  9  8  2  0
  9 10  1  0
 10 11  2  0
 11 12  1  0
 13 18  2  0
 14 15  2  0
 14 13  1  0
 15 16  1  0
 16 17  2  0
 18 17  1  0
  2 19  1  0
  3 20  1  0
  4 21  1  0
  5 22  1  0
  7 23  1  0
  8 24  1  0
 11 25  1  0
 14 26  1  0
 15 27  1  0
 17 28  1  0
M  ISO  8  19  14  20  14  21  14  22  14  23  14  24  14  25  14  26  14
M  ISO  2  27  14  28  14
M  END
>  <minimizedAffinity>  (1) 
-5.71566153

>  <minimizedRMSD>  (1) 
0.579238951

$$$$
