
     RDKit          3D

 29 31  0  0  0  0  0  0  0  0999 V2000
   44.4470   35.7300   45.0310 C   0  0  0  0  0  0  0  0  0  0  0  0
   44.6220   35.4620   43.6810 C   0  0  0  0  0  0  0  0  0  0  0  0
   45.2530   34.2930   43.3060 C   0  0  0  0  0  0  0  0  0  0  0  0
   45.6770   33.4500   44.2840 N   0  0  0  0  0  0  0  0  0  0  0  0
   45.4940   33.7340   45.5900 C   0  0  0  0  0  0  0  0  0  0  0  0
   44.8890   34.8570   45.9580 N   0  0  0  0  0  0  0  0  0  0  0  0
   45.9820   32.7750   46.5920 C   0  0  0  0  0  0  0  0  0  0  0  0
   47.0320   31.9140   46.3010 C   0  0  0  0  0  0  0  0  0  0  0  0
   47.4990   31.0160   47.2210 C   0  0  0  0  0  0  0  0  0  0  0  0
   46.9580   30.9420   48.4260 N   0  0  0  0  0  0  0  0  0  0  0  0
   45.9330   31.7820   48.7080 C   0  0  0  0  0  0  0  0  0  0  0  0
   45.4340   32.6930   47.8260 N   0  0  0  0  0  0  0  0  0  0  0  0
   45.2140   31.8570   49.9560 N   0  0  0  0  0  0  0  0  0  0  0  0
   45.4630   33.9610   41.8640 C   0  0  0  0  0  0  0  0  0  0  0  0
   44.4490   33.3490   41.1330 C   0  0  0  0  0  0  0  0  0  0  0  0
   45.2530   33.1800   39.4540 S   0  0  0  0  0  0  0  0  0  0  0  0
   46.8310   33.9910   40.1030 C   0  0  0  0  0  0  0  0  0  0  0  0
   46.5920   34.2160   41.2090 N   0  0  0  0  0  0  0  0  0  0  0  0
   48.0520   34.2270   39.2570 C   0  0  0  0  0  0  0  0  0  0  0  0
   48.9870   33.2310   39.4490 F   0  0  0  0  0  0  0  0  0  0  0  0
   47.7680   34.4050   37.9390 F   0  0  0  0  0  0  0  0  0  0  0  0
   48.6520   35.3900   39.7620 F   0  0  0  0  0  0  0  0  0  0  0  0
   43.9462   36.6574   45.3457 H   0  0  0  0  0  0  0  0  0  0  0  0
   44.2630   36.1710   42.9204 H   0  0  0  0  0  0  0  0  0  0  0  0
   47.4996   31.9552   45.3062 H   0  0  0  0  0  0  0  0  0  0  0  0
   48.3326   30.3488   46.9563 H   0  0  0  0  0  0  0  0  0  0  0  0
   44.4464   32.5345   50.0682 H   0  0  0  0  0  0  0  0  0  0  0  0
   45.4681   31.2330   50.7351 H   0  0  0  0  0  0  0  0  0  0  0  0
   43.4425   33.0456   41.4570 H   0  0  0  0  0  0  0  0  0  0  0  0
  1  6  2  0
  2  1  1  0
  3  2  2  0
  3  4  1  0
  4  5  2  0
  5  6  1  0
  5  7  1  0
  7 12  1  0
  8  7  2  0
  8  9  1  0
  9 10  2  0
 10 11  1  0
 11 13  1  0
 12 11  2  0
 14  3  1  0
 15 14  2  0
 16 17  1  0
 16 15  1  0
 17 18  2  0
 18 14  1  0
 19 20  1  0
 19 22  1  0
 19 17  1  0
 21 19  1  0
  1 23  1  0
  2 24  1  0
  8 25  1  0
  9 26  1  0
 13 27  1  0
 13 28  1  0
 15 29  1  0
M  ISO  5  23  14  24  14  25  14  26  14  29  14
M  END
>  <minimizedAffinity>  (1) 
-6.42729044

>  <minimizedRMSD>  (1) 
1.88098812

$$$$
