
     RDKit          3D

 29 31  0  0  0  0  0  0  0  0999 V2000
   44.4570   35.6900   44.9900 C   0  0  0  0  0  0  0  0  0  0  0  0
   44.6820   35.4170   43.6560 C   0  0  0  0  0  0  0  0  0  0  0  0
   45.3570   34.2420   43.2900 C   0  0  0  0  0  0  0  0  0  0  0  0
   45.7580   33.4300   44.2810 N   0  0  0  0  0  0  0  0  0  0  0  0
   45.5320   33.7060   45.5830 C   0  0  0  0  0  0  0  0  0  0  0  0
   44.8890   34.8250   45.9290 N   0  0  0  0  0  0  0  0  0  0  0  0
   46.0040   32.7630   46.5990 C   0  0  0  0  0  0  0  0  0  0  0  0
   47.0510   31.9040   46.3360 C   0  0  0  0  0  0  0  0  0  0  0  0
   47.5180   31.0120   47.2580 C   0  0  0  0  0  0  0  0  0  0  0  0
   46.9660   30.9440   48.4580 N   0  0  0  0  0  0  0  0  0  0  0  0
   45.9320   31.7890   48.7260 C   0  0  0  0  0  0  0  0  0  0  0  0
   45.4440   32.6890   47.8290 N   0  0  0  0  0  0  0  0  0  0  0  0
   45.1970   31.8710   49.9710 N   0  0  0  0  0  0  0  0  0  0  0  0
   45.6090   33.9280   41.8540 C   0  0  0  0  0  0  0  0  0  0  0  0
   44.6390   33.2620   41.1040 C   0  0  0  0  0  0  0  0  0  0  0  0
   45.4970   33.1600   39.4510 S   0  0  0  0  0  0  0  0  0  0  0  0
   47.0170   34.0540   40.1310 C   0  0  0  0  0  0  0  0  0  0  0  0
   46.7340   34.2550   41.2340 N   0  0  0  0  0  0  0  0  0  0  0  0
   48.0900   34.2580   39.1770 C   0  0  0  0  0  0  0  0  0  0  0  0
   48.3250   33.5340   38.1760 O   0  0  0  0  0  0  0  0  0  0  0  0
   48.8660   35.3670   39.4790 O   0  0  0  0  0  0  0  0  0  0  0  0
   43.9281   36.6083   45.2852 H   0  0  0  0  0  0  0  0  0  0  0  0
   44.3337   36.1175   42.8826 H   0  0  0  0  0  0  0  0  0  0  0  0
   47.5279   31.9391   45.3454 H   0  0  0  0  0  0  0  0  0  0  0  0
   48.3564   30.3475   47.0019 H   0  0  0  0  0  0  0  0  0  0  0  0
   44.4277   32.5485   50.0712 H   0  0  0  0  0  0  0  0  0  0  0  0
   45.4435   31.2518   50.7563 H   0  0  0  0  0  0  0  0  0  0  0  0
   43.6451   32.8984   41.4040 H   0  0  0  0  0  0  0  0  0  0  0  0
   49.6307   35.6089   38.8987 H   0  0  0  0  0  0  0  0  0  0  0  0
  1  6  2  0
  2  1  1  0
  3  2  2  0
  3  4  1  0
  4  5  2  0
  5  6  1  0
  5  7  1  0
  7 12  1  0
  8  7  2  0
  8  9  1  0
  9 10  2  0
 10 11  1  0
 11 13  1  0
 12 11  2  0
 14  3  1  0
 15 14  2  0
 16 17  1  0
 16 15  1  0
 17 18  2  0
 18 14  1  0
 19 21  1  0
 19 17  1  0
 20 19  2  0
  1 22  1  0
  2 23  1  0
  8 24  1  0
  9 25  1  0
 13 26  1  0
 13 27  1  0
 15 28  1  0
 21 29  1  0
M  ISO  6  22  14  23  14  24  14  25  14  28  14  29   3
M  END
>  <minimizedAffinity>  (1) 
-6.14298344

>  <minimizedRMSD>  (1) 
1.68002832

$$$$
