
     RDKit          3D

 29 31  0  0  0  0  0  0  0  0999 V2000
   44.4710   35.7030   44.9650 C   0  0  0  0  0  0  0  0  0  0  0  0
   44.6890   35.4320   43.6250 C   0  0  0  0  0  0  0  0  0  0  0  0
   45.3490   34.2620   43.2710 C   0  0  0  0  0  0  0  0  0  0  0  0
   45.7550   33.4360   44.2550 N   0  0  0  0  0  0  0  0  0  0  0  0
   45.5340   33.7170   45.5540 C   0  0  0  0  0  0  0  0  0  0  0  0
   44.9010   34.8370   45.9020 N   0  0  0  0  0  0  0  0  0  0  0  0
   46.0000   32.7770   46.5700 C   0  0  0  0  0  0  0  0  0  0  0  0
   47.0380   31.9160   46.3070 C   0  0  0  0  0  0  0  0  0  0  0  0
   47.5090   31.0160   47.2290 C   0  0  0  0  0  0  0  0  0  0  0  0
   46.9580   30.9500   48.4360 N   0  0  0  0  0  0  0  0  0  0  0  0
   45.9350   31.7970   48.7010 C   0  0  0  0  0  0  0  0  0  0  0  0
   45.4550   32.6960   47.7990 N   0  0  0  0  0  0  0  0  0  0  0  0
   45.2090   31.8810   49.9440 N   0  0  0  0  0  0  0  0  0  0  0  0
   45.6000   33.9370   41.8340 C   0  0  0  0  0  0  0  0  0  0  0  0
   44.6510   33.2640   41.0730 C   0  0  0  0  0  0  0  0  0  0  0  0
   45.4870   33.1460   39.4280 S   0  0  0  0  0  0  0  0  0  0  0  0
   47.0070   34.0520   40.0960 C   0  0  0  0  0  0  0  0  0  0  0  0
   46.7230   34.2610   41.2000 N   0  0  0  0  0  0  0  0  0  0  0  0
   48.2180   34.3590   39.2690 C   0  0  0  0  0  0  0  0  0  0  0  0
   43.9478   36.6235   45.2634 H   0  0  0  0  0  0  0  0  0  0  0  0
   44.3443   36.1336   42.8511 H   0  0  0  0  0  0  0  0  0  0  0  0
   47.5116   31.9498   45.3147 H   0  0  0  0  0  0  0  0  0  0  0  0
   48.3436   30.3484   46.9687 H   0  0  0  0  0  0  0  0  0  0  0  0
   44.4429   32.5616   50.0480 H   0  0  0  0  0  0  0  0  0  0  0  0
   45.4565   31.2604   50.7279 H   0  0  0  0  0  0  0  0  0  0  0  0
   43.6584   32.8964   41.3724 H   0  0  0  0  0  0  0  0  0  0  0  0
   49.0693   34.5748   39.9314 H   0  0  0  0  0  0  0  0  0  0  0  0
   48.4576   33.4932   38.6342 H   0  0  0  0  0  0  0  0  0  0  0  0
   48.0162   35.2344   38.6342 H   0  0  0  0  0  0  0  0  0  0  0  0
  1  6  2  0
  2  1  1  0
  3  2  2  0
  3  4  1  0
  4  5  2  0
  5  6  1  0
  5  7  1  0
  7 12  1  0
  8  7  2  0
  8  9  1  0
  9 10  2  0
 10 11  1  0
 11 13  1  0
 12 11  2  0
 14  3  1  0
 15 14  2  0
 16 17  1  0
 16 15  1  0
 17 18  2  0
 18 14  1  0
 19 17  1  0
  1 20  1  0
  2 21  1  0
  8 22  1  0
  9 23  1  0
 13 24  1  0
 13 25  1  0
 15 26  1  0
 19 27  1  0
 19 28  1  0
 19 29  1  0
M  ISO  8  20  14  21  14  22  14  23  14  26  14  27   8  28   8  29   8
M  END
>  <minimizedAffinity>  (1) 
-5.80854702

>  <minimizedRMSD>  (1) 
1.36896598

$$$$
