
     RDKit          3D

 46 50  0  0  0  0  0  0  0  0999 V2000
   45.6300   33.8750   41.7710 C   0  0  0  0  0  0  0  0  0  0  0  0
   44.6900   33.1730   41.0260 C   0  0  0  0  0  0  0  0  0  0  0  0
   45.5350   33.0650   39.3810 S   0  0  0  0  0  0  0  0  0  0  0  0
   47.0260   34.0040   40.0190 C   0  0  0  0  0  0  0  0  0  0  0  0
   46.7220   34.2020   41.1100 N   0  0  0  0  0  0  0  0  0  0  0  0
   44.5080   35.6940   44.8790 C   0  0  0  0  0  0  0  0  0  0  0  0
   44.7260   35.4010   43.5420 C   0  0  0  0  0  0  0  0  0  0  0  0
   45.3810   34.2190   43.2000 C   0  0  0  0  0  0  0  0  0  0  0  0
   45.7800   33.3990   44.1960 N   0  0  0  0  0  0  0  0  0  0  0  0
   45.5540   33.7120   45.4920 C   0  0  0  0  0  0  0  0  0  0  0  0
   44.9340   34.8320   45.8260 N   0  0  0  0  0  0  0  0  0  0  0  0
   46.0180   32.7720   46.5140 C   0  0  0  0  0  0  0  0  0  0  0  0
   47.0580   31.8850   46.2570 C   0  0  0  0  0  0  0  0  0  0  0  0
   47.5260   30.9900   47.1760 C   0  0  0  0  0  0  0  0  0  0  0  0
   46.9870   30.9360   48.3860 N   0  0  0  0  0  0  0  0  0  0  0  0
   45.9590   31.8040   48.6580 C   0  0  0  0  0  0  0  0  0  0  0  0
   45.4760   32.7100   47.7470 N   0  0  0  0  0  0  0  0  0  0  0  0
   45.2290   31.9230   49.8950 N   0  0  0  0  0  0  0  0  0  0  0  0
   48.1810   34.3130   39.1770 C   0  0  0  0  0  0  0  0  0  0  0  0
   47.9490   33.8730   37.7740 C   0  0  0  0  0  0  0  0  0  0  0  0
   48.8700   32.9430   37.1580 C   0  0  0  0  0  0  0  0  0  0  0  0
   50.0770   32.3380   37.4390 C   0  0  0  0  0  0  0  0  0  0  0  0
   50.4830   31.4790   36.4910 N   0  0  0  0  0  0  0  0  0  0  0  0
   49.5390   31.4850   35.5350 C   0  0  0  0  0  0  0  0  0  0  0  0
   49.5470   30.7440   34.3740 C   0  0  0  0  0  0  0  0  0  0  0  0
   48.4750   30.8850   33.5070 C   0  0  0  0  0  0  0  0  0  0  0  0
   47.4630   31.7490   33.8430 C   0  0  0  0  0  0  0  0  0  0  0  0
   47.5170   32.4610   35.0190 C   0  0  0  0  0  0  0  0  0  0  0  0
   48.5530   32.3680   35.9210 C   0  0  0  0  0  0  0  0  0  0  0  0
   43.7070   32.7852   41.3315 H   0  0  0  0  0  0  0  0  0  0  0  0
   43.9918   36.6220   45.1660 H   0  0  0  0  0  0  0  0  0  0  0  0
   44.3856   36.0942   42.7587 H   0  0  0  0  0  0  0  0  0  0  0  0
   47.5276   31.9055   45.2625 H   0  0  0  0  0  0  0  0  0  0  0  0
   48.3516   30.3127   46.9119 H   0  0  0  0  0  0  0  0  0  0  0  0
   44.4721   32.6162   49.9817 H   0  0  0  0  0  0  0  0  0  0  0  0
   45.4642   31.3148   50.6923 H   0  0  0  0  0  0  0  0  0  0  0  0
   48.3555   35.3990   39.1896 H   0  0  0  0  0  0  0  0  0  0  0  0
   49.0571   33.7782   39.5725 H   0  0  0  0  0  0  0  0  0  0  0  0
   46.9543   33.4043   37.7460 H   0  0  0  0  0  0  0  0  0  0  0  0
   48.0822   34.7947   37.1886 H   0  0  0  0  0  0  0  0  0  0  0  0
   50.6529   32.5404   38.3541 H   0  0  0  0  0  0  0  0  0  0  0  0
   51.3501   30.9230   36.4955 H   0  0  0  0  0  0  0  0  0  0  0  0
   50.3781   30.0617   34.1422 H   0  0  0  0  0  0  0  0  0  0  0  0
   48.4360   30.3150   32.5670 H   0  0  0  0  0  0  0  0  0  0  0  0
   46.6034   31.8730   33.1679 H   0  0  0  0  0  0  0  0  0  0  0  0
   46.6858   33.1429   35.2517 H   0  0  0  0  0  0  0  0  0  0  0  0
  1  8  1  0
  2  1  2  0
  3  4  1  0
  3  2  1  0
  4  5  2  0
  5  1  1  0
  6 11  2  0
  7  6  1  0
  8  7  2  0
  8  9  1  0
  9 10  2  0
 10 11  1  0
 10 12  1  0
 12 17  1  0
 13 12  2  0
 13 14  1  0
 14 15  2  0
 15 16  1  0
 16 18  1  0
 17 16  2  0
 19  4  1  0
 20 19  1  0
 21 22  2  0
 21 20  1  0
 23 22  1  0
 24 29  2  0
 24 23  1  0
 25 24  1  0
 26 27  1  0
 26 25  2  0
 27 28  2  0
 28 29  1  0
 29 21  1  0
  2 30  1  0
  6 31  1  0
  7 32  1  0
 13 33  1  0
 14 34  1  0
 18 35  1  0
 18 36  1  0
 19 37  1  0
 19 38  1  0
 20 39  1  0
 20 40  1  0
 22 41  1  0
 23 42  1  0
 25 43  1  0
 26 44  1  0
 27 45  1  0
 28 46  1  0
M  ISO  8  30  14  31  14  32  14  33  14  34  14  37   8  38   8  39   8
M  ISO  7  40   8  41  14  42   9  43  14  44  14  45  14  46  14
M  END
>  <minimizedAffinity>  (1) 
-6.75889349

>  <minimizedRMSD>  (1) 
1.35594141

$$$$
