
     RDKit          3D

 33 35  0  0  1  0  0  0  0  0999 V2000
   44.6570   35.1420   45.7390 C   0  0  0  0  0  0  0  0  0  0  0  0
   44.5540   35.6300   44.4390 C   0  0  0  0  0  0  0  0  0  0  0  0
   45.1470   34.9050   43.3980 C   0  0  0  0  0  0  0  0  0  0  0  0
   45.7900   33.7720   43.6970 N   0  0  0  0  0  0  0  0  0  0  0  0
   45.8860   33.3010   44.9780 C   0  0  0  0  0  0  0  0  0  0  0  0
   45.3210   33.9920   45.9640 N   0  0  0  0  0  0  0  0  0  0  0  0
   46.5720   32.0860   45.2890 N   0  0  0  0  0  0  0  0  0  0  0  0
   47.4420   31.6300   44.3680 C   0  0  0  0  0  0  0  0  0  0  0  0
   47.9630   30.4660   44.9140 C   0  0  0  0  0  0  0  0  0  0  0  0
   47.4070   30.2530   46.1260 N   0  0  0  0  0  0  0  0  0  0  0  0
   46.5470   31.2510   46.3600 C   0  0  0  0  0  0  0  0  0  0  0  0
   45.7110   31.4250   47.5350 C   0  0  2  0  0  0  0  0  0  0  0  0
   46.5120   32.2740   48.5360 C   0  0  0  0  0  0  0  0  0  0  0  0
   45.4430   30.0970   48.2000 C   0  0  0  0  0  0  0  0  0  0  0  0
   44.7900   29.1300   47.2920 C   0  0  0  0  0  0  0  0  0  0  0  0
   44.7390   27.7570   47.2200 C   0  0  0  0  0  0  0  0  0  0  0  0
   43.9720   27.3980   46.1600 N   0  0  0  0  0  0  0  0  0  0  0  0
   43.5320   28.5140   45.5540 C   0  0  0  0  0  0  0  0  0  0  0  0
   44.0290   29.5370   46.2420 N   0  0  0  0  0  0  0  0  0  0  0  0
   44.1999   35.6912   46.5753 H   0  0  0  0  0  0  0  0  0  0  0  0
   44.0168   36.5676   44.2335 H   0  0  0  0  0  0  0  0  0  0  0  0
   45.0851   35.2596   42.3586 H   0  0  0  0  0  0  0  0  0  0  0  0
   47.6862   32.0817   43.3952 H   0  0  0  0  0  0  0  0  0  0  0  0
   48.7117   29.8181   44.4348 H   0  0  0  0  0  0  0  0  0  0  0  0
   44.7579   31.8893   47.2418 H   0  0  0  0  0  0  0  0  0  0  0  0
   46.2397   31.9854   49.5619 H   0  0  0  0  0  0  0  0  0  0  0  0
   47.5879   32.1056   48.3811 H   0  0  0  0  0  0  0  0  0  0  0  0
   46.2814   33.3383   48.3811 H   0  0  0  0  0  0  0  0  0  0  0  0
   46.3998   29.6725   48.5382 H   0  0  0  0  0  0  0  0  0  0  0  0
   44.7598   30.2775   49.0430 H   0  0  0  0  0  0  0  0  0  0  0  0
   45.2394   27.0623   47.9106 H   0  0  0  0  0  0  0  0  0  0  0  0
   42.8877   28.5698   44.6642 H   0  0  0  0  0  0  0  0  0  0  0  0
   43.8571   30.5249   46.0064 H   0  0  0  0  0  0  0  0  0  0  0  0
  1  6  2  0
  2  1  1  0
  3  4  1  0
  3  2  2  0
  4  5  2  0
  5  7  1  0
  5  6  1  0
  7 11  1  0
  8  9  2  0
  8  7  1  0
  9 10  1  0
 10 11  2  0
 11 12  1  0
 12 14  1  0
 12 13  1  0
 15 14  1  0
 16 15  2  0
 17 16  1  0
 18 17  2  0
 18 19  1  0
 19 15  1  0
  1 20  1  0
  2 21  1  0
  3 22  1  0
  8 23  1  0
  9 24  1  0
 12 25  1  6
 13 26  1  0
 13 27  1  0
 13 28  1  0
 14 29  1  0
 14 30  1  0
 16 31  1  0
 18 32  1  0
 19 33  1  0
M  ISO  8  20  14  21  14  22  14  23  14  24  14  25   8  26   8  27   8
M  ISO  6  28   8  29   8  30   8  31  14  32  14  33   9
M  END
>  <minimizedAffinity>  (1) 
-4.71368361

>  <minimizedRMSD>  (1) 
0.684979439

$$$$
