
     RDKit          3D

 35 37  0  0  0  0  0  0  0  0999 V2000
   46.6880   34.8050   42.0610 C   0  0  0  0  0  0  0  0  0  0  0  0
   47.9600   35.2910   41.9980 C   0  0  0  0  0  0  0  0  0  0  0  0
   48.7310   35.1590   40.8350 C   0  0  0  0  0  0  0  0  0  0  0  0
   48.1960   34.5210   39.7100 C   0  0  0  0  0  0  0  0  0  0  0  0
   46.9130   34.0380   39.7890 C   0  0  0  0  0  0  0  0  0  0  0  0
   46.1740   34.1780   40.9460 C   0  0  0  0  0  0  0  0  0  0  0  0
   44.4520   36.0940   44.8030 C   0  0  0  0  0  0  0  0  0  0  0  0
   45.1050   36.0430   43.5650 C   0  0  0  0  0  0  0  0  0  0  0  0
   45.9480   34.9790   43.3050 C   0  0  0  0  0  0  0  0  0  0  0  0
   46.1170   34.0130   44.2580 N   0  0  0  0  0  0  0  0  0  0  0  0
   45.4600   34.1030   45.4510 C   0  0  0  0  0  0  0  0  0  0  0  0
   44.6350   35.1420   45.7110 N   0  0  0  0  0  0  0  0  0  0  0  0
   44.8380   33.6650   41.0030 N   0  0  0  0  0  0  0  0  0  0  0  0
   44.4670   32.3420   41.5080 C   0  0  0  0  0  0  0  0  0  0  0  0
   43.3540   31.7670   40.6240 C   0  0  0  0  0  0  0  0  0  0  0  0
   42.1180   32.6150   40.6880 C   0  0  0  0  0  0  0  0  0  0  0  0
   42.4780   34.0020   41.2270 C   0  0  0  0  0  0  0  0  0  0  0  0
   43.7400   34.5000   40.5270 C   0  0  0  0  0  0  0  0  0  0  0  0
   48.3892   35.7960   42.8759 H   0  0  0  0  0  0  0  0  0  0  0  0
   49.7562   35.5567   40.8064 H   0  0  0  0  0  0  0  0  0  0  0  0
   48.7865   34.4096   38.7887 H   0  0  0  0  0  0  0  0  0  0  0  0
   46.4685   33.5329   38.9187 H   0  0  0  0  0  0  0  0  0  0  0  0
   43.7782   36.9342   45.0265 H   0  0  0  0  0  0  0  0  0  0  0  0
   44.9502   36.8331   42.8154 H   0  0  0  0  0  0  0  0  0  0  0  0
   45.6036   33.3203   46.2105 H   0  0  0  0  0  0  0  0  0  0  0  0
   45.3426   31.6768   41.4787 H   0  0  0  0  0  0  0  0  0  0  0  0
   44.1128   32.4252   42.5461 H   0  0  0  0  0  0  0  0  0  0  0  0
   43.1105   30.7512   40.9689 H   0  0  0  0  0  0  0  0  0  0  0  0
   43.7102   31.7482   39.5834 H   0  0  0  0  0  0  0  0  0  0  0  0
   41.6883   32.7135   39.6802 H   0  0  0  0  0  0  0  0  0  0  0  0
   41.3828   32.1417   41.3555 H   0  0  0  0  0  0  0  0  0  0  0  0
   41.6496   34.6990   41.0320 H   0  0  0  0  0  0  0  0  0  0  0  0
   42.6553   33.9429   42.3110 H   0  0  0  0  0  0  0  0  0  0  0  0
   43.9256   35.5535   40.7834 H   0  0  0  0  0  0  0  0  0  0  0  0
   43.6384   34.4363   39.4336 H   0  0  0  0  0  0  0  0  0  0  0  0
  1  9  1  0
  2  1  2  0
  3  2  1  0
  4  5  1  0
  4  3  2  0
  5  6  2  0
  6 13  1  0
  6  1  1  0
  7 12  2  0
  8  7  1  0
  9  8  2  0
  9 10  1  0
 10 11  2  0
 11 12  1  0
 13 14  1  0
 15 16  1  0
 15 14  1  0
 16 17  1  0
 18 13  1  0
 18 17  1  0
  2 19  1  0
  3 20  1  0
  4 21  1  0
  5 22  1  0
  7 23  1  0
  8 24  1  0
 11 25  1  0
 14 26  1  0
 14 27  1  0
 15 28  1  0
 15 29  1  0
 16 30  1  0
 16 31  1  0
 17 32  1  0
 17 33  1  0
 18 34  1  0
 18 35  1  0
M  ISO  8  19  14  20  14  21  14  22  14  23  14  24  14  25  14  26  13
M  ISO  8  27  13  28  13  29  13  30  13  31  13  32  13  33  13  34  13
M  ISO  1  35  13
M  END
>  <minimizedAffinity>  (1) 
-5.56377172

>  <minimizedRMSD>  (1) 
0.785368264

$$$$
