
     RDKit          3D

 45 49  0  0  0  0  0  0  0  0999 V2000
   45.6070   33.9360   41.8350 C   0  0  0  0  0  0  0  0  0  0  0  0
   44.6600   33.2500   41.0740 C   0  0  0  0  0  0  0  0  0  0  0  0
   45.4950   33.1300   39.4310 S   0  0  0  0  0  0  0  0  0  0  0  0
   47.0210   34.0580   40.0940 C   0  0  0  0  0  0  0  0  0  0  0  0
   46.7150   34.2570   41.1920 N   0  0  0  0  0  0  0  0  0  0  0  0
   44.4740   35.7020   44.9690 C   0  0  0  0  0  0  0  0  0  0  0  0
   44.6920   35.4300   43.6250 C   0  0  0  0  0  0  0  0  0  0  0  0
   45.3520   34.2640   43.2700 C   0  0  0  0  0  0  0  0  0  0  0  0
   45.7530   33.4430   44.2600 N   0  0  0  0  0  0  0  0  0  0  0  0
   45.5320   33.7230   45.5550 C   0  0  0  0  0  0  0  0  0  0  0  0
   44.9050   34.8290   45.9000 N   0  0  0  0  0  0  0  0  0  0  0  0
   46.0050   32.7710   46.5680 C   0  0  0  0  0  0  0  0  0  0  0  0
   47.0430   31.9010   46.3020 C   0  0  0  0  0  0  0  0  0  0  0  0
   47.5170   30.9990   47.2110 C   0  0  0  0  0  0  0  0  0  0  0  0
   46.9760   30.9250   48.4170 N   0  0  0  0  0  0  0  0  0  0  0  0
   45.9450   31.7780   48.7030 C   0  0  0  0  0  0  0  0  0  0  0  0
   45.4530   32.6940   47.8030 N   0  0  0  0  0  0  0  0  0  0  0  0
   45.2040   31.8880   49.9290 N   0  0  0  0  0  0  0  0  0  0  0  0
   48.2180   34.3660   39.2750 C   0  0  0  0  0  0  0  0  0  0  0  0
   47.8730   33.9650   37.8400 C   0  0  0  0  0  0  0  0  0  0  0  0
   48.7160   32.9240   37.3320 N   0  0  0  0  0  0  0  0  0  0  0  0
   49.4380   32.1510   38.1950 C   0  0  0  0  0  0  0  0  0  0  0  0
   50.1500   31.2470   37.4990 N   0  0  0  0  0  0  0  0  0  0  0  0
   49.8930   31.4280   36.1780 C   0  0  0  0  0  0  0  0  0  0  0  0
   50.2720   30.8700   34.9740 C   0  0  0  0  0  0  0  0  0  0  0  0
   49.7940   31.3260   33.8020 N   0  0  0  0  0  0  0  0  0  0  0  0
   48.9100   32.3650   33.7730 C   0  0  0  0  0  0  0  0  0  0  0  0
   48.4990   32.9550   34.9100 N   0  0  0  0  0  0  0  0  0  0  0  0
   48.9860   32.4900   36.0840 C   0  0  0  0  0  0  0  0  0  0  0  0
   51.1930   29.7860   35.0240 N   0  0  0  0  0  0  0  0  0  0  0  0
   43.6702   32.8765   41.3752 H   0  0  0  0  0  0  0  0  0  0  0  0
   43.9536   36.6228   45.2711 H   0  0  0  0  0  0  0  0  0  0  0  0
   44.3452   36.1311   42.8516 H   0  0  0  0  0  0  0  0  0  0  0  0
   47.5120   31.9360   45.3076 H   0  0  0  0  0  0  0  0  0  0  0  0
   48.3496   30.3329   46.9408 H   0  0  0  0  0  0  0  0  0  0  0  0
   44.4448   32.5792   50.0117 H   0  0  0  0  0  0  0  0  0  0  0  0
   45.4320   31.2757   50.7252 H   0  0  0  0  0  0  0  0  0  0  0  0
   48.4473   35.4407   39.3252 H   0  0  0  0  0  0  0  0  0  0  0  0
   49.1019   33.8224   39.6398 H   0  0  0  0  0  0  0  0  0  0  0  0
   46.8303   33.6155   37.8147 H   0  0  0  0  0  0  0  0  0  0  0  0
   48.0246   34.8505   37.2053 H   0  0  0  0  0  0  0  0  0  0  0  0
   49.4375   32.2519   39.2904 H   0  0  0  0  0  0  0  0  0  0  0  0
   48.5281   32.7252   32.8064 H   0  0  0  0  0  0  0  0  0  0  0  0
   51.5064   29.3359   34.1522 H   0  0  0  0  0  0  0  0  0  0  0  0
   51.5461   29.4517   35.9320 H   0  0  0  0  0  0  0  0  0  0  0  0
  1  8  1  0
  2  1  2  0
  3  4  1  0
  3  2  1  0
  4  5  2  0
  5  1  1  0
  6 11  2  0
  7  6  1  0
  8  7  2  0
  8  9  1  0
  9 10  2  0
 10 11  1  0
 10 12  1  0
 12 17  1  0
 13 12  2  0
 13 14  1  0
 14 15  2  0
 15 16  1  0
 16 18  1  0
 17 16  2  0
 19  4  1  0
 20 19  1  0
 21 20  1  0
 21 22  1  0
 23 22  2  0
 24 23  1  0
 25 30  1  0
 25 24  2  0
 26 25  1  0
 27 26  2  0
 27 28  1  0
 28 29  2  0
 29 24  1  0
 29 21  1  0
  2 31  1  0
  6 32  1  0
  7 33  1  0
 13 34  1  0
 14 35  1  0
 18 36  1  0
 18 37  1  0
 19 38  1  0
 19 39  1  0
 20 40  1  0
 20 41  1  0
 22 42  1  0
 27 43  1  0
 30 44  1  0
 30 45  1  0
M  ISO  8  31  14  32  14  33  14  34  14  35  14  38   8  39   8  40   8
M  ISO  3  41   8  42  14  43  14
M  END
>  <minimizedAffinity>  (1) 
-6.71595192

>  <minimizedRMSD>  (1) 
2.00585222

$$$$
