
     RDKit          3D

 39 42  0  0  0  0  0  0  0  0999 V2000
   44.4320   35.9450   44.8740 C   0  0  0  0  0  0  0  0  0  0  0  0
   44.3110   35.6100   43.5300 C   0  0  0  0  0  0  0  0  0  0  0  0
   44.7180   34.3660   43.1170 C   0  0  0  0  0  0  0  0  0  0  0  0
   45.2240   33.5090   44.0400 N   0  0  0  0  0  0  0  0  0  0  0  0
   45.3310   33.8600   45.3480 C   0  0  0  0  0  0  0  0  0  0  0  0
   44.9410   35.0520   45.7450 N   0  0  0  0  0  0  0  0  0  0  0  0
   45.8890   32.8680   46.2770 C   0  0  0  0  0  0  0  0  0  0  0  0
   46.8470   31.9640   45.8920 C   0  0  0  0  0  0  0  0  0  0  0  0
   47.3850   31.0270   46.7270 C   0  0  0  0  0  0  0  0  0  0  0  0
   46.9700   30.9690   47.9890 N   0  0  0  0  0  0  0  0  0  0  0  0
   46.0260   31.8480   48.3960 C   0  0  0  0  0  0  0  0  0  0  0  0
   45.4750   32.7980   47.5650 N   0  0  0  0  0  0  0  0  0  0  0  0
   45.4440   31.9600   49.7080 N   0  0  0  0  0  0  0  0  0  0  0  0
   44.6100   33.9560   41.6900 C   0  0  0  0  0  0  0  0  0  0  0  0
   43.3600   33.7880   41.0800 C   0  0  0  0  0  0  0  0  0  0  0  0
   43.8450   33.2810   39.3490 S   0  0  0  0  0  0  0  0  0  0  0  0
   45.6900   33.3990   39.7990 C   0  0  0  0  0  0  0  0  0  0  0  0
   45.6430   33.7200   40.9050 N   0  0  0  0  0  0  0  0  0  0  0  0
   46.7390   33.0930   38.8210 C   0  0  0  0  0  0  0  0  0  0  0  0
   47.8610   34.0570   38.9320 C   0  0  0  0  0  0  0  0  0  0  0  0
   48.5420   34.1630   40.1780 C   0  0  0  0  0  0  0  0  0  0  0  0
   48.7320   35.4870   40.8370 C   0  0  0  0  0  0  0  0  0  0  0  0
   49.3890   35.5110   42.0310 C   0  0  0  0  0  0  0  0  0  0  0  0
   49.8610   34.3030   42.5930 C   0  0  0  0  0  0  0  0  0  0  0  0
   49.3780   33.0190   41.4140 S   0  0  0  0  0  0  0  0  0  0  0  0
   44.1128   36.9372   45.2255 H   0  0  0  0  0  0  0  0  0  0  0  0
   43.8959   36.3302   42.8095 H   0  0  0  0  0  0  0  0  0  0  0  0
   47.2018   31.9960   44.8513 H   0  0  0  0  0  0  0  0  0  0  0  0
   48.1520   30.3290   46.3603 H   0  0  0  0  0  0  0  0  0  0  0  0
   44.7278   32.6765   49.8943 H   0  0  0  0  0  0  0  0  0  0  0  0
   45.7438   31.3237   50.4604 H   0  0  0  0  0  0  0  0  0  0  0  0
   42.3555   33.9201   41.5085 H   0  0  0  0  0  0  0  0  0  0  0  0
   46.3146   33.1489   37.8077 H   0  0  0  0  0  0  0  0  0  0  0  0
   47.1225   32.0815   39.0206 H   0  0  0  0  0  0  0  0  0  0  0  0
   48.6084   33.7746   38.1759 H   0  0  0  0  0  0  0  0  0  0  0  0
   47.3867   35.0405   38.7986 H   0  0  0  0  0  0  0  0  0  0  0  0
   48.3552   36.4118   40.3758 H   0  0  0  0  0  0  0  0  0  0  0  0
   49.5510   36.4650   42.5542 H   0  0  0  0  0  0  0  0  0  0  0  0
   50.4038   34.1722   43.5408 H   0  0  0  0  0  0  0  0  0  0  0  0
  1  6  2  0
  2  1  1  0
  3  2  2  0
  3  4  1  0
  4  5  2  0
  5  6  1  0
  5  7  1  0
  7 12  1  0
  8  7  2  0
  8  9  1  0
  9 10  2  0
 10 11  1  0
 11 13  1  0
 12 11  2  0
 14  3  1  0
 15 14  2  0
 16 17  1  0
 16 15  1  0
 17 18  2  0
 18 14  1  0
 19 20  1  0
 19 17  1  0
 20 21  1  0
 21 22  2  0
 21 25  1  0
 22 23  1  0
 23 24  2  0
 25 24  1  0
  1 26  1  0
  2 27  1  0
  8 28  1  0
  9 29  1  0
 13 30  1  0
 13 31  1  0
 15 32  1  0
 19 33  1  0
 19 34  1  0
 20 35  1  0
 20 36  1  0
 22 37  1  0
 23 38  1  0
 24 39  1  0
M  ISO  8  26  14  27  14  28  14  29  14  32  14  33   8  34   8  35   8
M  ISO  4  36   8  37  14  38  14  39  14
M  END
>  <minimizedAffinity>  (1) 
-6.54606485

>  <minimizedRMSD>  (1) 
3.01336718

$$$$
