
     RDKit          3D

 42 45  0  0  0  0  0  0  0  0999 V2000
   45.6310   33.9270   41.7520 C   0  0  0  0  0  0  0  0  0  0  0  0
   44.6990   33.2760   40.9740 C   0  0  0  0  0  0  0  0  0  0  0  0
   45.5560   33.1390   39.3380 S   0  0  0  0  0  0  0  0  0  0  0  0
   47.0840   34.0220   40.0270 C   0  0  0  0  0  0  0  0  0  0  0  0
   46.7480   34.2150   41.1120 N   0  0  0  0  0  0  0  0  0  0  0  0
   44.5020   35.7170   44.8690 C   0  0  0  0  0  0  0  0  0  0  0  0
   44.7190   35.4390   43.5240 C   0  0  0  0  0  0  0  0  0  0  0  0
   45.3790   34.2630   43.1770 C   0  0  0  0  0  0  0  0  0  0  0  0
   45.7780   33.4410   44.1740 N   0  0  0  0  0  0  0  0  0  0  0  0
   45.5560   33.7320   45.4760 C   0  0  0  0  0  0  0  0  0  0  0  0
   44.9310   34.8460   45.8070 N   0  0  0  0  0  0  0  0  0  0  0  0
   46.0270   32.7810   46.4880 C   0  0  0  0  0  0  0  0  0  0  0  0
   47.0460   31.8930   46.2190 C   0  0  0  0  0  0  0  0  0  0  0  0
   47.5030   31.0010   47.1330 C   0  0  0  0  0  0  0  0  0  0  0  0
   46.9790   30.9450   48.3480 N   0  0  0  0  0  0  0  0  0  0  0  0
   45.9670   31.8180   48.6340 C   0  0  0  0  0  0  0  0  0  0  0  0
   45.4860   32.7330   47.7240 N   0  0  0  0  0  0  0  0  0  0  0  0
   45.2500   31.9500   49.8620 N   0  0  0  0  0  0  0  0  0  0  0  0
   48.3000   34.3060   39.2340 C   0  0  0  0  0  0  0  0  0  0  0  0
   47.9130   34.2070   37.7630 C   0  0  0  0  0  0  0  0  0  0  0  0
   48.6550   33.1270   37.0800 C   0  0  0  0  0  0  0  0  0  0  0  0
   49.5790   32.3870   37.8010 C   0  0  0  0  0  0  0  0  0  0  0  0
   50.2750   31.3770   37.1640 C   0  0  0  0  0  0  0  0  0  0  0  0
   50.0050   31.1620   35.8300 C   0  0  0  0  0  0  0  0  0  0  0  0
   49.0870   31.8880   35.0940 C   0  0  0  0  0  0  0  0  0  0  0  0
   48.4000   32.9020   35.7570 C   0  0  0  0  0  0  0  0  0  0  0  0
   43.6951   32.9248   41.2548 H   0  0  0  0  0  0  0  0  0  0  0  0
   43.9841   36.6406   45.1668 H   0  0  0  0  0  0  0  0  0  0  0  0
   44.3748   36.1369   42.7465 H   0  0  0  0  0  0  0  0  0  0  0  0
   47.5082   31.9082   45.2210 H   0  0  0  0  0  0  0  0  0  0  0  0
   48.3193   30.3154   46.8616 H   0  0  0  0  0  0  0  0  0  0  0  0
   44.5028   32.6535   49.9490 H   0  0  0  0  0  0  0  0  0  0  0  0
   45.4801   31.3417   50.6607 H   0  0  0  0  0  0  0  0  0  0  0  0
   48.6690   35.3175   39.4592 H   0  0  0  0  0  0  0  0  0  0  0  0
   49.0996   33.5905   39.4761 H   0  0  0  0  0  0  0  0  0  0  0  0
   46.8348   34.0016   37.6900 H   0  0  0  0  0  0  0  0  0  0  0  0
   48.1636   35.1604   37.2750 H   0  0  0  0  0  0  0  0  0  0  0  0
   49.7559   32.6006   38.8655 H   0  0  0  0  0  0  0  0  0  0  0  0
   51.0165   30.7678   37.7017 H   0  0  0  0  0  0  0  0  0  0  0  0
   50.5560   30.3601   35.3169 H   0  0  0  0  0  0  0  0  0  0  0  0
   48.9069   31.6739   34.0302 H   0  0  0  0  0  0  0  0  0  0  0  0
   47.6602   33.5149   35.2212 H   0  0  0  0  0  0  0  0  0  0  0  0
  1  8  1  0
  2  1  2  0
  3  4  1  0
  3  2  1  0
  4  5  2  0
  5  1  1  0
  6 11  2  0
  7  6  1  0
  8  7  2  0
  8  9  1  0
  9 10  2  0
 10 11  1  0
 10 12  1  0
 12 17  1  0
 13 12  2  0
 13 14  1  0
 14 15  2  0
 15 16  1  0
 16 18  1  0
 17 16  2  0
 19  4  1  0
 20 19  1  0
 21 20  1  0
 21 22  2  0
 23 22  1  0
 24 23  2  0
 25 26  2  0
 25 24  1  0
 26 21  1  0
  2 27  1  0
  6 28  1  0
  7 29  1  0
 13 30  1  0
 14 31  1  0
 18 32  1  0
 18 33  1  0
 19 34  1  0
 19 35  1  0
 20 36  1  0
 20 37  1  0
 22 38  1  0
 23 39  1  0
 24 40  1  0
 25 41  1  0
 26 42  1  0
M  ISO  8  27  14  28  14  29  14  30  14  31  14  34   8  35   8  36   8
M  ISO  6  37   8  38  14  39  14  40  14  41  14  42  14
M  END
>  <minimizedAffinity>  (1) 
-6.30729342

>  <minimizedRMSD>  (1) 
1.5796963

$$$$
