
     RDKit          3D

 27 29  0  0  0  0  0  0  0  0999 V2000
   46.6450   34.7760   42.0260 C   0  0  0  0  0  0  0  0  0  0  0  0
   47.9350   35.2680   41.9610 C   0  0  0  0  0  0  0  0  0  0  0  0
   48.6840   35.1190   40.7790 C   0  0  0  0  0  0  0  0  0  0  0  0
   48.1510   34.4840   39.6640 C   0  0  0  0  0  0  0  0  0  0  0  0
   46.8620   34.0060   39.7620 C   0  0  0  0  0  0  0  0  0  0  0  0
   46.1290   34.1520   40.9210 C   0  0  0  0  0  0  0  0  0  0  0  0
   44.4580   36.1280   44.7750 C   0  0  0  0  0  0  0  0  0  0  0  0
   45.0980   36.0610   43.5240 C   0  0  0  0  0  0  0  0  0  0  0  0
   45.9270   34.9650   43.2730 C   0  0  0  0  0  0  0  0  0  0  0  0
   46.0720   34.0350   44.2310 N   0  0  0  0  0  0  0  0  0  0  0  0
   45.4380   34.1290   45.4320 C   0  0  0  0  0  0  0  0  0  0  0  0
   44.6400   35.1710   45.6930 N   0  0  0  0  0  0  0  0  0  0  0  0
   44.7680   33.6610   41.0650 C   0  0  0  0  0  0  0  0  0  0  0  0
   43.5920   34.2690   40.7830 C   0  0  0  0  0  0  0  0  0  0  0  0
   42.4140   33.6120   40.9980 C   0  0  0  0  0  0  0  0  0  0  0  0
   42.5140   32.3170   41.5140 C   0  0  0  0  0  0  0  0  0  0  0  0
   44.3730   32.0520   41.6870 S   0  0  0  0  0  0  0  0  0  0  0  0
   48.3755   35.7753   42.8320 H   0  0  0  0  0  0  0  0  0  0  0  0
   49.7103   35.5125   40.7370 H   0  0  0  0  0  0  0  0  0  0  0  0
   48.7350   34.3673   38.7392 H   0  0  0  0  0  0  0  0  0  0  0  0
   46.4087   33.4977   38.8982 H   0  0  0  0  0  0  0  0  0  0  0  0
   43.7987   36.9788   45.0020 H   0  0  0  0  0  0  0  0  0  0  0  0
   44.9504   36.8462   42.7679 H   0  0  0  0  0  0  0  0  0  0  0  0
   45.5822   33.3456   46.1906 H   0  0  0  0  0  0  0  0  0  0  0  0
   43.5850   35.2927   40.3805 H   0  0  0  0  0  0  0  0  0  0  0  0
   41.4413   34.0760   40.7774 H   0  0  0  0  0  0  0  0  0  0  0  0
   41.7011   31.6181   41.7607 H   0  0  0  0  0  0  0  0  0  0  0  0
  1  9  1  0
  2  1  2  0
  3  2  1  0
  4  5  1  0
  4  3  2  0
  5  6  2  0
  6 13  1  0
  6  1  1  0
  7 12  2  0
  8  7  1  0
  9  8  2  0
  9 10  1  0
 10 11  2  0
 11 12  1  0
 13 17  1  0
 14 15  1  0
 14 13  2  0
 15 16  2  0
 16 17  1  0
  2 18  1  0
  3 19  1  0
  4 20  1  0
  5 21  1  0
  7 22  1  0
  8 23  1  0
 11 24  1  0
 14 25  1  0
 15 26  1  0
 16 27  1  0
M  ISO  8  18  14  19  14  20  14  21  14  22  14  23  14  24  14  25  14
M  ISO  2  26  14  27  14
M  END
>  <minimizedAffinity>  (1) 
-5.55920029

>  <minimizedRMSD>  (1) 
0.364158809

$$$$
