
     RDKit          3D

 37 40  0  0  0  0  0  0  0  0999 V2000
   44.5040   35.7180   44.8870 C   0  0  0  0  0  0  0  0  0  0  0  0
   44.7590   35.4500   43.5430 C   0  0  0  0  0  0  0  0  0  0  0  0
   45.4390   34.2840   43.1940 C   0  0  0  0  0  0  0  0  0  0  0  0
   45.8230   33.4590   44.1820 N   0  0  0  0  0  0  0  0  0  0  0  0
   45.5720   33.7270   45.4780 C   0  0  0  0  0  0  0  0  0  0  0  0
   44.9220   34.8420   45.8200 N   0  0  0  0  0  0  0  0  0  0  0  0
   46.0190   32.7870   46.5020 C   0  0  0  0  0  0  0  0  0  0  0  0
   47.0470   31.8920   46.2380 C   0  0  0  0  0  0  0  0  0  0  0  0
   47.5130   30.9880   47.1520 C   0  0  0  0  0  0  0  0  0  0  0  0
   46.9680   30.9430   48.3670 N   0  0  0  0  0  0  0  0  0  0  0  0
   45.9610   31.8150   48.6320 C   0  0  0  0  0  0  0  0  0  0  0  0
   45.4790   32.7320   47.7290 N   0  0  0  0  0  0  0  0  0  0  0  0
   45.2370   31.9390   49.8750 N   0  0  0  0  0  0  0  0  0  0  0  0
   45.7230   33.9740   41.7660 C   0  0  0  0  0  0  0  0  0  0  0  0
   44.7940   33.3220   40.9790 C   0  0  0  0  0  0  0  0  0  0  0  0
   45.6750   33.2230   39.3480 S   0  0  0  0  0  0  0  0  0  0  0  0
   47.1780   34.1090   40.0580 C   0  0  0  0  0  0  0  0  0  0  0  0
   46.8420   34.2860   41.1450 N   0  0  0  0  0  0  0  0  0  0  0  0
   48.3930   34.4260   39.2820 C   0  0  0  0  0  0  0  0  0  0  0  0
   48.0570   34.3170   37.8140 C   0  0  0  0  0  0  0  0  0  0  0  0
   48.7630   33.1700   37.1730 C   0  0  0  0  0  0  0  0  0  0  0  0
   48.4970   33.0930   35.8450 N   0  0  0  0  0  0  0  0  0  0  0  0
   49.1420   32.0850   35.3490 O   0  0  0  0  0  0  0  0  0  0  0  0
   49.8310   31.4790   36.2810 C   0  0  0  0  0  0  0  0  0  0  0  0
   49.6110   32.1370   37.4300 N   0  0  0  0  0  0  0  0  0  0  0  0
   43.9686   36.6327   45.1812 H   0  0  0  0  0  0  0  0  0  0  0  0
   44.4266   36.1524   42.7645 H   0  0  0  0  0  0  0  0  0  0  0  0
   47.5111   31.9111   45.2409 H   0  0  0  0  0  0  0  0  0  0  0  0
   48.3317   30.3031   46.8862 H   0  0  0  0  0  0  0  0  0  0  0  0
   44.4870   32.6390   49.9665 H   0  0  0  0  0  0  0  0  0  0  0  0
   45.4705   31.3274   50.6702 H   0  0  0  0  0  0  0  0  0  0  0  0
   43.7922   32.9563   41.2486 H   0  0  0  0  0  0  0  0  0  0  0  0
   48.7260   35.4487   39.5128 H   0  0  0  0  0  0  0  0  0  0  0  0
   49.2017   33.7263   39.5397 H   0  0  0  0  0  0  0  0  0  0  0  0
   46.9717   34.1737   37.7058 H   0  0  0  0  0  0  0  0  0  0  0  0
   48.3824   35.2427   37.3168 H   0  0  0  0  0  0  0  0  0  0  0  0
   50.4715   30.5947   36.1480 H   0  0  0  0  0  0  0  0  0  0  0  0
  1  6  2  0
  2  1  1  0
  3  2  2  0
  3  4  1  0
  4  5  2  0
  5  6  1  0
  5  7  1  0
  7 12  1  0
  8  7  2  0
  8  9  1  0
  9 10  2  0
 10 11  1  0
 11 13  1  0
 12 11  2  0
 14  3  1  0
 15 14  2  0
 16 17  1  0
 16 15  1  0
 17 18  2  0
 18 14  1  0
 19 17  1  0
 20 19  1  0
 21 25  1  0
 21 20  1  0
 22 21  2  0
 23 22  1  0
 23 24  1  0
 24 25  2  0
  1 26  1  0
  2 27  1  0
  8 28  1  0
  9 29  1  0
 13 30  1  0
 13 31  1  0
 15 32  1  0
 19 33  1  0
 19 34  1  0
 20 35  1  0
 20 36  1  0
 24 37  1  0
M  ISO  8  26  14  27  14  28  14  29  14  32  14  33   8  34   8  35   8
M  ISO  2  36   8  37  14
M  END
>  <minimizedAffinity>  (1) 
-6.21042633

>  <minimizedRMSD>  (1) 
1.01337099

$$$$
