
     RDKit          3D

 39 42  0  0  0  0  0  0  0  0999 V2000
   44.4600   35.7340   45.0060 C   0  0  0  0  0  0  0  0  0  0  0  0
   44.6340   35.4590   43.6560 C   0  0  0  0  0  0  0  0  0  0  0  0
   45.2610   34.2820   43.2860 C   0  0  0  0  0  0  0  0  0  0  0  0
   45.6760   33.4520   44.2710 N   0  0  0  0  0  0  0  0  0  0  0  0
   45.5050   33.7230   45.5770 C   0  0  0  0  0  0  0  0  0  0  0  0
   44.9010   34.8570   45.9370 N   0  0  0  0  0  0  0  0  0  0  0  0
   45.9780   32.7830   46.5800 C   0  0  0  0  0  0  0  0  0  0  0  0
   47.0190   31.9220   46.3070 C   0  0  0  0  0  0  0  0  0  0  0  0
   47.5160   31.0140   47.2030 C   0  0  0  0  0  0  0  0  0  0  0  0
   46.9780   30.9320   48.4180 N   0  0  0  0  0  0  0  0  0  0  0  0
   45.9430   31.7790   48.7020 C   0  0  0  0  0  0  0  0  0  0  0  0
   45.4380   32.6930   47.8180 N   0  0  0  0  0  0  0  0  0  0  0  0
   45.2200   31.8620   49.9450 N   0  0  0  0  0  0  0  0  0  0  0  0
   45.4700   33.9450   41.8550 C   0  0  0  0  0  0  0  0  0  0  0  0
   44.4690   33.3550   41.1020 C   0  0  0  0  0  0  0  0  0  0  0  0
   45.2830   33.1780   39.4430 S   0  0  0  0  0  0  0  0  0  0  0  0
   46.8810   33.9630   40.1040 C   0  0  0  0  0  0  0  0  0  0  0  0
   46.5920   34.1720   41.1980 N   0  0  0  0  0  0  0  0  0  0  0  0
   48.0830   34.1700   39.2750 C   0  0  0  0  0  0  0  0  0  0  0  0
   48.5430   32.8000   38.7770 C   0  0  0  0  0  0  0  0  0  0  0  0
   48.3550   32.6850   37.3160 C   0  0  0  0  0  0  0  0  0  0  0  0
   47.8750   31.5730   36.6900 C   0  0  0  0  0  0  0  0  0  0  0  0
   47.8320   31.8180   35.3250 C   0  0  0  0  0  0  0  0  0  0  0  0
   48.2960   33.0920   35.1730 N   0  0  0  0  0  0  0  0  0  0  0  0
   48.6130   33.6210   36.3660 N   0  0  0  0  0  0  0  0  0  0  0  0
   43.9637   36.6647   45.3183 H   0  0  0  0  0  0  0  0  0  0  0  0
   44.2787   36.1662   42.8920 H   0  0  0  0  0  0  0  0  0  0  0  0
   47.4784   31.9671   45.3086 H   0  0  0  0  0  0  0  0  0  0  0  0
   48.3527   30.3578   46.9214 H   0  0  0  0  0  0  0  0  0  0  0  0
   44.4528   32.5411   50.0502 H   0  0  0  0  0  0  0  0  0  0  0  0
   45.4702   31.2422   50.7287 H   0  0  0  0  0  0  0  0  0  0  0  0
   43.4528   33.0656   41.4081 H   0  0  0  0  0  0  0  0  0  0  0  0
   47.8416   34.8183   38.4197 H   0  0  0  0  0  0  0  0  0  0  0  0
   48.8777   34.6546   39.8613 H   0  0  0  0  0  0  0  0  0  0  0  0
   49.6088   32.6684   39.0153 H   0  0  0  0  0  0  0  0  0  0  0  0
   47.9421   32.0235   39.2730 H   0  0  0  0  0  0  0  0  0  0  0  0
   47.5725   30.6381   37.1844 H   0  0  0  0  0  0  0  0  0  0  0  0
   47.4956   31.1315   34.5341 H   0  0  0  0  0  0  0  0  0  0  0  0
   48.3899   33.5794   34.2705 H   0  0  0  0  0  0  0  0  0  0  0  0
  1  6  2  0
  2  1  1  0
  3  2  2  0
  3  4  1  0
  4  5  2  0
  5  6  1  0
  5  7  1  0
  7 12  1  0
  8  7  2  0
  8  9  1  0
  9 10  2  0
 10 11  1  0
 11 13  1  0
 12 11  2  0
 14  3  1  0
 15 14  2  0
 16 17  1  0
 16 15  1  0
 17 18  2  0
 18 14  1  0
 19 17  1  0
 20 19  1  0
 21 20  1  0
 22 21  1  0
 23 22  2  0
 24 23  1  0
 24 25  1  0
 25 21  2  0
  1 26  1  0
  2 27  1  0
  8 28  1  0
  9 29  1  0
 13 30  1  0
 13 31  1  0
 15 32  1  0
 19 33  1  0
 19 34  1  0
 20 35  1  0
 20 36  1  0
 22 37  1  0
 23 38  1  0
 24 39  1  0
M  ISO  8  26  14  27  14  28  14  29  14  32  14  33   8  34   8  35   8
M  ISO  4  36   8  37  14  38  14  39   9
M  END
>  <minimizedAffinity>  (1) 
-6.16694212

>  <minimizedRMSD>  (1) 
1.78956544

$$$$
