
     RDKit          3D

 45 48  0  0  0  0  0  0  0  0999 V2000
   44.4840   35.6890   44.9380 C   0  0  0  0  0  0  0  0  0  0  0  0
   44.7380   35.4270   43.6010 C   0  0  0  0  0  0  0  0  0  0  0  0
   45.4210   34.2740   43.2510 C   0  0  0  0  0  0  0  0  0  0  0  0
   45.8130   33.4480   44.2420 N   0  0  0  0  0  0  0  0  0  0  0  0
   45.5590   33.7150   45.5420 C   0  0  0  0  0  0  0  0  0  0  0  0
   44.9040   34.8190   45.8750 N   0  0  0  0  0  0  0  0  0  0  0  0
   46.0200   32.7630   46.5590 C   0  0  0  0  0  0  0  0  0  0  0  0
   47.0530   31.8870   46.3020 C   0  0  0  0  0  0  0  0  0  0  0  0
   47.5100   30.9890   47.2200 C   0  0  0  0  0  0  0  0  0  0  0  0
   46.9520   30.9320   48.4260 N   0  0  0  0  0  0  0  0  0  0  0  0
   45.9330   31.7880   48.6960 C   0  0  0  0  0  0  0  0  0  0  0  0
   45.4610   32.6960   47.7880 N   0  0  0  0  0  0  0  0  0  0  0  0
   45.1970   31.8950   49.9210 N   0  0  0  0  0  0  0  0  0  0  0  0
   45.7170   33.9530   41.8210 C   0  0  0  0  0  0  0  0  0  0  0  0
   44.8280   33.2240   41.0480 C   0  0  0  0  0  0  0  0  0  0  0  0
   45.7000   33.1410   39.4160 S   0  0  0  0  0  0  0  0  0  0  0  0
   47.1490   34.1380   40.1010 C   0  0  0  0  0  0  0  0  0  0  0  0
   46.8240   34.3330   41.2040 N   0  0  0  0  0  0  0  0  0  0  0  0
   48.3610   34.5170   39.3100 C   0  0  0  0  0  0  0  0  0  0  0  0
   48.0460   34.2190   37.8720 C   0  0  0  0  0  0  0  0  0  0  0  0
   49.0760   33.4830   37.1080 C   0  0  0  0  0  0  0  0  0  0  0  0
   49.5200   32.2320   37.7920 C   0  0  0  0  0  0  0  0  0  0  0  0
   48.4720   31.1940   37.4450 C   0  0  0  0  0  0  0  0  0  0  0  0
   47.6210   31.7750   36.3500 C   0  0  0  0  0  0  0  0  0  0  0  0
   48.4240   32.9210   35.8380 C   0  0  0  0  0  0  0  0  0  0  0  0
   43.9433   36.6010   45.2311 H   0  0  0  0  0  0  0  0  0  0  0  0
   44.4000   36.1288   42.8243 H   0  0  0  0  0  0  0  0  0  0  0  0
   47.5301   31.9139   45.3112 H   0  0  0  0  0  0  0  0  0  0  0  0
   48.3388   30.3126   46.9639 H   0  0  0  0  0  0  0  0  0  0  0  0
   44.4397   32.5876   50.0080 H   0  0  0  0  0  0  0  0  0  0  0  0
   45.4254   31.2793   50.7145 H   0  0  0  0  0  0  0  0  0  0  0  0
   43.8525   32.8019   41.3313 H   0  0  0  0  0  0  0  0  0  0  0  0
   48.5774   35.5880   39.4370 H   0  0  0  0  0  0  0  0  0  0  0  0
   49.2454   33.9562   39.6466 H   0  0  0  0  0  0  0  0  0  0  0  0
   47.1229   33.6212   37.8494 H   0  0  0  0  0  0  0  0  0  0  0  0
   47.9678   35.2009   37.3824 H   0  0  0  0  0  0  0  0  0  0  0  0
   49.9037   34.1923   36.9604 H   0  0  0  0  0  0  0  0  0  0  0  0
   50.5081   31.9206   37.4224 H   0  0  0  0  0  0  0  0  0  0  0  0
   49.6163   32.3706   38.8790 H   0  0  0  0  0  0  0  0  0  0  0  0
   48.9567   30.2701   37.0964 H   0  0  0  0  0  0  0  0  0  0  0  0
   47.8613   30.9443   38.3252 H   0  0  0  0  0  0  0  0  0  0  0  0
   47.4465   31.0342   35.5558 H   0  0  0  0  0  0  0  0  0  0  0  0
   46.6257   32.0808   36.7048 H   0  0  0  0  0  0  0  0  0  0  0  0
   49.1853   32.5807   35.1206 H   0  0  0  0  0  0  0  0  0  0  0  0
   47.8207   33.6642   35.2962 H   0  0  0  0  0  0  0  0  0  0  0  0
  1  6  2  0
  2  1  1  0
  3  2  2  0
  3  4  1  0
  4  5  2  0
  5  6  1  0
  5  7  1  0
  7 12  1  0
  8  7  2  0
  8  9  1  0
  9 10  2  0
 10 11  1  0
 11 13  1  0
 12 11  2  0
 14  3  1  0
 15 14  2  0
 16 17  1  0
 16 15  1  0
 17 18  2  0
 18 14  1  0
 19 17  1  0
 20 19  1  0
 21 22  1  0
 21 20  1  0
 23 22  1  0
 24 23  1  0
 25 24  1  0
 25 21  1  0
  1 26  1  0
  2 27  1  0
  8 28  1  0
  9 29  1  0
 13 30  1  0
 13 31  1  0
 15 32  1  0
 19 33  1  0
 19 34  1  0
 20 35  1  0
 20 36  1  0
 21 37  1  0
 22 38  1  0
 22 39  1  0
 23 40  1  0
 23 41  1  0
 24 42  1  0
 24 43  1  0
 25 44  1  0
 25 45  1  0
M  ISO  8  26  14  27  14  28  14  29  14  32  14  33   8  34   8  35   8
M  ISO  8  36   8  37  13  38  13  39  13  40  13  41  13  42  13  43  13
M  ISO  2  44  13  45  13
M  END
>  <minimizedAffinity>  (1) 
-6.16668653

>  <minimizedRMSD>  (1) 
1.40652692

$$$$
