
     RDKit          3D

 34 36  0  0  0  0  0  0  0  0999 V2000
   44.5080   35.6750   44.9270 C   0  0  0  0  0  0  0  0  0  0  0  0
   44.7980   35.4290   43.5920 C   0  0  0  0  0  0  0  0  0  0  0  0
   45.4950   34.2920   43.2620 C   0  0  0  0  0  0  0  0  0  0  0  0
   45.8780   33.4440   44.2540 N   0  0  0  0  0  0  0  0  0  0  0  0
   45.5890   33.6970   45.5440 C   0  0  0  0  0  0  0  0  0  0  0  0
   44.9120   34.7990   45.8740 N   0  0  0  0  0  0  0  0  0  0  0  0
   46.0170   32.7680   46.5730 C   0  0  0  0  0  0  0  0  0  0  0  0
   47.0570   31.8810   46.3260 C   0  0  0  0  0  0  0  0  0  0  0  0
   47.5230   30.9710   47.2440 C   0  0  0  0  0  0  0  0  0  0  0  0
   46.9520   30.9230   48.4490 N   0  0  0  0  0  0  0  0  0  0  0  0
   45.9300   31.7860   48.7080 C   0  0  0  0  0  0  0  0  0  0  0  0
   45.4630   32.6940   47.7970 N   0  0  0  0  0  0  0  0  0  0  0  0
   45.1880   31.8940   49.9310 N   0  0  0  0  0  0  0  0  0  0  0  0
   45.8300   33.9830   41.8430 C   0  0  0  0  0  0  0  0  0  0  0  0
   44.9820   33.1920   41.0620 C   0  0  0  0  0  0  0  0  0  0  0  0
   45.8810   33.1470   39.4340 S   0  0  0  0  0  0  0  0  0  0  0  0
   47.2740   34.2360   40.1350 C   0  0  0  0  0  0  0  0  0  0  0  0
   46.9140   34.4120   41.2240 N   0  0  0  0  0  0  0  0  0  0  0  0
   48.4610   34.6690   39.3590 C   0  0  0  0  0  0  0  0  0  0  0  0
   48.2140   34.2340   37.9140 C   0  0  0  0  0  0  0  0  0  0  0  0
   49.4270   33.9280   37.2260 N   0  0  0  0  0  0  0  0  0  0  0  0
   43.9514   36.5796   45.2133 H   0  0  0  0  0  0  0  0  0  0  0  0
   44.4750   36.1330   42.8110 H   0  0  0  0  0  0  0  0  0  0  0  0
   47.5362   31.9087   45.3363 H   0  0  0  0  0  0  0  0  0  0  0  0
   48.3520   30.2941   46.9900 H   0  0  0  0  0  0  0  0  0  0  0  0
   44.4310   32.5875   50.0146 H   0  0  0  0  0  0  0  0  0  0  0  0
   45.4122   31.2781   50.7255 H   0  0  0  0  0  0  0  0  0  0  0  0
   44.0287   32.7182   41.3389 H   0  0  0  0  0  0  0  0  0  0  0  0
   48.5732   35.7619   39.4134 H   0  0  0  0  0  0  0  0  0  0  0  0
   49.3833   34.2217   39.7581 H   0  0  0  0  0  0  0  0  0  0  0  0
   47.5742   33.3392   37.9183 H   0  0  0  0  0  0  0  0  0  0  0  0
   47.7305   35.0707   37.3884 H   0  0  0  0  0  0  0  0  0  0  0  0
   50.1724   33.7399   37.9115 H   0  0  0  0  0  0  0  0  0  0  0  0
   49.2861   33.0962   36.6351 H   0  0  0  0  0  0  0  0  0  0  0  0
  1  6  2  0
  2  1  1  0
  3  2  2  0
  3  4  1  0
  4  5  2  0
  5  6  1  0
  5  7  1  0
  7 12  1  0
  8  7  2  0
  8  9  1  0
  9 10  2  0
 10 11  1  0
 11 13  1  0
 12 11  2  0
 14  3  1  0
 15 14  2  0
 16 17  1  0
 16 15  1  0
 17 18  2  0
 18 14  1  0
 19 17  1  0
 20 19  1  0
 21 20  1  0
  1 22  1  0
  2 23  1  0
  8 24  1  0
  9 25  1  0
 13 26  1  0
 13 27  1  0
 15 28  1  0
 19 29  1  0
 19 30  1  0
 20 31  1  0
 20 32  1  0
 21 33  1  0
 21 34  1  0
M  ISO  8  22  14  23  14  24  14  25  14  28  14  29   8  30   8  31   8
M  ISO  3  32   8  33   5  34   5
M  END
>  <minimizedAffinity>  (1) 
-6.10920811

>  <minimizedRMSD>  (1) 
0.412276864

$$$$
