
     RDKit          3D

 43 47  0  0  0  0  0  0  0  0999 V2000
   45.0240   33.7250   41.6890 C   0  0  0  0  0  0  0  0  0  0  0  0
   43.8930   33.2420   41.0620 C   0  0  0  0  0  0  0  0  0  0  0  0
   44.4930   32.8890   39.3390 S   0  0  0  0  0  0  0  0  0  0  0  0
   46.2360   33.4850   39.8010 C   0  0  0  0  0  0  0  0  0  0  0  0
   46.0830   33.7720   40.9060 N   0  0  0  0  0  0  0  0  0  0  0  0
   44.5210   35.7440   44.8200 C   0  0  0  0  0  0  0  0  0  0  0  0
   44.5220   35.3850   43.4810 C   0  0  0  0  0  0  0  0  0  0  0  0
   45.0050   34.1440   43.1130 C   0  0  0  0  0  0  0  0  0  0  0  0
   45.4610   33.3200   44.0880 N   0  0  0  0  0  0  0  0  0  0  0  0
   45.4490   33.6890   45.3850 C   0  0  0  0  0  0  0  0  0  0  0  0
   44.9880   34.8760   45.7390 N   0  0  0  0  0  0  0  0  0  0  0  0
   45.9570   32.7440   46.3820 C   0  0  0  0  0  0  0  0  0  0  0  0
   46.9760   31.8570   46.0740 C   0  0  0  0  0  0  0  0  0  0  0  0
   47.4840   30.9570   46.9680 C   0  0  0  0  0  0  0  0  0  0  0  0
   46.9980   30.9080   48.1970 N   0  0  0  0  0  0  0  0  0  0  0  0
   45.9950   31.7720   48.5230 C   0  0  0  0  0  0  0  0  0  0  0  0
   45.4760   32.6790   47.6370 N   0  0  0  0  0  0  0  0  0  0  0  0
   45.3270   31.8880   49.7900 N   0  0  0  0  0  0  0  0  0  0  0  0
   47.3750   33.5050   38.8580 C   0  0  0  0  0  0  0  0  0  0  0  0
   46.8020   33.7080   37.4610 C   0  0  0  0  0  0  0  0  0  0  0  0
   47.5310   32.8440   36.5480 N   0  0  0  0  0  0  0  0  0  0  0  0
   48.7290   32.9420   35.9620 C   0  0  0  0  0  0  0  0  0  0  0  0
   48.9620   31.8580   35.1840 N   0  0  0  0  0  0  0  0  0  0  0  0
   47.8910   31.0390   35.2690 C   0  0  0  0  0  0  0  0  0  0  0  0
   47.5830   29.8050   34.6920 C   0  0  0  0  0  0  0  0  0  0  0  0
   46.3980   29.2140   34.9760 N   0  0  0  0  0  0  0  0  0  0  0  0
   45.5330   29.8420   35.8200 C   0  0  0  0  0  0  0  0  0  0  0  0
   45.8590   31.0310   36.3580 N   0  0  0  0  0  0  0  0  0  0  0  0
   47.0120   31.6630   36.1170 C   0  0  0  0  0  0  0  0  0  0  0  0
   42.8851   33.1009   41.4794 H   0  0  0  0  0  0  0  0  0  0  0  0
   44.1422   36.7292   45.1298 H   0  0  0  0  0  0  0  0  0  0  0  0
   44.1420   36.0814   42.7190 H   0  0  0  0  0  0  0  0  0  0  0  0
   47.3974   31.8784   45.0582 H   0  0  0  0  0  0  0  0  0  0  0  0
   48.2937   30.2762   46.6667 H   0  0  0  0  0  0  0  0  0  0  0  0
   44.5785   32.5843   49.9157 H   0  0  0  0  0  0  0  0  0  0  0  0
   45.5967   31.2749   50.5724 H   0  0  0  0  0  0  0  0  0  0  0  0
   48.0571   34.3307   39.1089 H   0  0  0  0  0  0  0  0  0  0  0  0
   47.9434   32.5648   38.9133 H   0  0  0  0  0  0  0  0  0  0  0  0
   45.7343   33.4436   37.4532 H   0  0  0  0  0  0  0  0  0  0  0  0
   46.9029   34.7598   37.1552 H   0  0  0  0  0  0  0  0  0  0  0  0
   49.4258   33.7830   36.0931 H   0  0  0  0  0  0  0  0  0  0  0  0
   48.2971   29.3170   34.0124 H   0  0  0  0  0  0  0  0  0  0  0  0
   44.5663   29.3762   36.0621 H   0  0  0  0  0  0  0  0  0  0  0  0
  1  8  1  0
  2  1  2  0
  3  4  1  0
  3  2  1  0
  4  5  2  0
  5  1  1  0
  6 11  2  0
  7  6  1  0
  8  7  2  0
  8  9  1  0
  9 10  2  0
 10 11  1  0
 10 12  1  0
 12 17  1  0
 13 12  2  0
 13 14  1  0
 14 15  2  0
 15 16  1  0
 16 18  1  0
 17 16  2  0
 19  4  1  0
 20 19  1  0
 21 20  1  0
 22 21  1  0
 23 24  1  0
 23 22  2  0
 24 29  2  0
 25 26  2  0
 25 24  1  0
 26 27  1  0
 27 28  2  0
 29 28  1  0
 29 21  1  0
  2 30  1  0
  6 31  1  0
  7 32  1  0
 13 33  1  0
 14 34  1  0
 18 35  1  0
 18 36  1  0
 19 37  1  0
 19 38  1  0
 20 39  1  0
 20 40  1  0
 22 41  1  0
 25 42  1  0
 27 43  1  0
M  ISO  8  30  14  31  14  32  14  33  14  34  14  37   8  38   8  39   8
M  ISO  4  40   8  41  14  42  14  43  14
M  END
>  <minimizedAffinity>  (1) 
-5.95143557

>  <minimizedRMSD>  (1) 
3.31386304

$$$$
