
     RDKit          3D

 40 43  0  0  0  0  0  0  0  0999 V2000
   44.7530   35.2820   44.9060 C   0  0  0  0  0  0  0  0  0  0  0  0
   45.4070   35.1080   43.6860 C   0  0  0  0  0  0  0  0  0  0  0  0
   46.3550   34.1070   43.5760 C   0  0  0  0  0  0  0  0  0  0  0  0
   46.6150   33.3320   44.6560 N   0  0  0  0  0  0  0  0  0  0  0  0
   45.9620   33.5280   45.8250 C   0  0  0  0  0  0  0  0  0  0  0  0
   45.0570   34.4770   45.9420 N   0  0  0  0  0  0  0  0  0  0  0  0
   46.2970   32.6470   46.9540 C   0  0  0  0  0  0  0  0  0  0  0  0
   47.4670   31.9150   46.9750 C   0  0  0  0  0  0  0  0  0  0  0  0
   47.8100   31.0900   48.0010 C   0  0  0  0  0  0  0  0  0  0  0  0
   47.0080   30.9600   49.0490 N   0  0  0  0  0  0  0  0  0  0  0  0
   45.8520   31.6730   49.0480 C   0  0  0  0  0  0  0  0  0  0  0  0
   45.4930   32.5050   48.0240 N   0  0  0  0  0  0  0  0  0  0  0  0
   44.8470   31.6810   50.0710 N   0  0  0  0  0  0  0  0  0  0  0  0
   47.0840   33.8840   42.2830 C   0  0  0  0  0  0  0  0  0  0  0  0
   46.8360   34.6810   41.1840 C   0  0  0  0  0  0  0  0  0  0  0  0
   47.9920   33.9590   39.9210 S   0  0  0  0  0  0  0  0  0  0  0  0
   48.6160   32.6660   41.1700 C   0  0  0  0  0  0  0  0  0  0  0  0
   47.9940   32.9290   42.1140 N   0  0  0  0  0  0  0  0  0  0  0  0
   49.6350   31.6570   40.8530 C   0  0  0  0  0  0  0  0  0  0  0  0
   49.9580   31.7810   39.3660 C   0  0  0  0  0  0  0  0  0  0  0  0
   51.3970   31.5080   39.1520 C   0  0  0  0  0  0  0  0  0  0  0  0
   52.2290   31.0060   40.1260 C   0  0  0  0  0  0  0  0  0  0  0  0
   53.5720   30.7440   39.9490 C   0  0  0  0  0  0  0  0  0  0  0  0
   54.0420   31.0260   38.7020 N   0  0  0  0  0  0  0  0  0  0  0  0
   53.2410   31.5180   37.7390 C   0  0  0  0  0  0  0  0  0  0  0  0
   51.9170   31.7740   37.9190 N   0  0  0  0  0  0  0  0  0  0  0  0
   43.9948   36.0707   45.0209 H   0  0  0  0  0  0  0  0  0  0  0  0
   45.1730   35.7549   42.8276 H   0  0  0  0  0  0  0  0  0  0  0  0
   48.1551   32.0029   46.1213 H   0  0  0  0  0  0  0  0  0  0  0  0
   48.7554   30.5291   47.9611 H   0  0  0  0  0  0  0  0  0  0  0  0
   44.0055   32.2649   49.9617 H   0  0  0  0  0  0  0  0  0  0  0  0
   44.9666   31.1029   50.9150 H   0  0  0  0  0  0  0  0  0  0  0  0
   46.1365   35.5238   41.0822 H   0  0  0  0  0  0  0  0  0  0  0  0
   50.5409   31.8378   41.4503 H   0  0  0  0  0  0  0  0  0  0  0  0
   49.2656   30.6474   41.0859 H   0  0  0  0  0  0  0  0  0  0  0  0
   49.3581   31.0546   38.7981 H   0  0  0  0  0  0  0  0  0  0  0  0
   49.7215   32.7987   39.0218 H   0  0  0  0  0  0  0  0  0  0  0  0
   51.7932   30.7991   41.1146 H   0  0  0  0  0  0  0  0  0  0  0  0
   54.2104   30.3407   40.7488 H   0  0  0  0  0  0  0  0  0  0  0  0
   53.6809   31.7245   36.7522 H   0  0  0  0  0  0  0  0  0  0  0  0
  1  6  2  0
  2  1  1  0
  3  2  2  0
  3  4  1  0
  4  5  2  0
  5  6  1  0
  5  7  1  0
  7  8  2  0
  7 12  1  0
  8  9  1  0
  9 10  2  0
 11 10  1  0
 11 13  1  0
 12 11  2  0
 14  3  1  0
 15 14  2  0
 16 17  1  0
 16 15  1  0
 17 18  2  0
 18 14  1  0
 19 17  1  0
 20 19  1  0
 21 20  1  0
 21 22  2  0
 23 22  1  0
 24 23  2  0
 25 26  2  0
 25 24  1  0
 26 21  1  0
  1 27  1  0
  2 28  1  0
  8 29  1  0
  9 30  1  0
 13 31  1  0
 13 32  1  0
 15 33  1  0
 19 34  1  0
 19 35  1  0
 20 36  1  0
 20 37  1  0
 22 38  1  0
 23 39  1  0
 25 40  1  0
M  ISO  8  27  14  28  14  29  14  30  14  33  14  34   8  35   8  36   8
M  ISO  4  37   8  38  14  39  14  40  14
M  END
>  <minimizedAffinity>  (1) 
-5.91891146

>  <minimizedRMSD>  (1) 
2.88097835

$$$$
