
     RDKit          3D

 42 45  0  0  0  0  0  0  0  0999 V2000
   45.2790   33.5460   44.2710 C   0  0  0  0  0  0  0  0  0  0  0  0
   45.3360   34.5890   45.1910 C   0  0  0  0  0  0  0  0  0  0  0  0
   44.6420   36.0070   44.2000 S   0  0  0  0  0  0  0  0  0  0  0  0
   44.4020   34.8910   42.6920 C   0  0  0  0  0  0  0  0  0  0  0  0
   44.7910   33.8750   43.0880 N   0  0  0  0  0  0  0  0  0  0  0  0
   45.8710   29.8340   44.2200 C   0  0  0  0  0  0  0  0  0  0  0  0
   45.4180   31.0920   43.8470 C   0  0  0  0  0  0  0  0  0  0  0  0
   45.7450   32.1770   44.6330 C   0  0  0  0  0  0  0  0  0  0  0  0
   46.4930   31.9650   45.7340 N   0  0  0  0  0  0  0  0  0  0  0  0
   46.9250   30.7430   46.0830 C   0  0  0  0  0  0  0  0  0  0  0  0
   46.6160   29.6980   45.3350 N   0  0  0  0  0  0  0  0  0  0  0  0
   47.7360   30.6000   47.2990 C   0  0  0  0  0  0  0  0  0  0  0  0
   48.0060   31.6770   48.1080 C   0  0  0  0  0  0  0  0  0  0  0  0
   48.7520   31.5850   49.2410 C   0  0  0  0  0  0  0  0  0  0  0  0
   49.2650   30.4250   49.6250 N   0  0  0  0  0  0  0  0  0  0  0  0
   49.0000   29.3450   48.8230 C   0  0  0  0  0  0  0  0  0  0  0  0
   48.2530   29.4010   47.6760 N   0  0  0  0  0  0  0  0  0  0  0  0
   49.4520   27.9990   49.0460 N   0  0  0  0  0  0  0  0  0  0  0  0
   43.8420   35.3610   41.4020 C   0  0  0  0  0  0  0  0  0  0  0  0
   42.3240   35.3350   41.5510 C   0  0  0  0  0  0  0  0  0  0  0  0
   41.6640   34.7250   40.4290 N   0  0  0  0  0  0  0  0  0  0  0  0
   41.3050   35.3070   39.2720 C   0  0  0  0  0  0  0  0  0  0  0  0
   40.6760   34.6190   38.2680 C   0  0  0  0  0  0  0  0  0  0  0  0
   40.4120   33.2800   38.4740 C   0  0  0  0  0  0  0  0  0  0  0  0
   39.8450   32.5660   37.6240 O   0  0  0  0  0  0  0  0  0  0  0  0
   40.7630   32.6650   39.6350 N   0  0  0  0  0  0  0  0  0  0  0  0
   41.3860   33.3990   40.5970 C   0  0  0  0  0  0  0  0  0  0  0  0
   41.6850   32.7670   41.6500 O   0  0  0  0  0  0  0  0  0  0  0  0
   45.6962   34.5790   46.2303 H   0  0  0  0  0  0  0  0  0  0  0  0
   45.6234   28.9533   43.6092 H   0  0  0  0  0  0  0  0  0  0  0  0
   44.8088   31.2212   42.9403 H   0  0  0  0  0  0  0  0  0  0  0  0
   47.5997   32.6596   47.8260 H   0  0  0  0  0  0  0  0  0  0  0  0
   48.9321   32.4853   49.8469 H   0  0  0  0  0  0  0  0  0  0  0  0
   49.1982   27.2538   48.3818 H   0  0  0  0  0  0  0  0  0  0  0  0
   50.0297   27.7796   49.8700 H   0  0  0  0  0  0  0  0  0  0  0  0
   44.1549   34.6926   40.5863 H   0  0  0  0  0  0  0  0  0  0  0  0
   44.1997   36.3725   41.1591 H   0  0  0  0  0  0  0  0  0  0  0  0
   42.0697   34.7683   42.4589 H   0  0  0  0  0  0  0  0  0  0  0  0
   41.9794   36.3779   41.6107 H   0  0  0  0  0  0  0  0  0  0  0  0
   41.5242   36.3750   39.1258 H   0  0  0  0  0  0  0  0  0  0  0  0
   40.3910   35.1169   37.3295 H   0  0  0  0  0  0  0  0  0  0  0  0
   40.5618   31.6657   39.7830 H   0  0  0  0  0  0  0  0  0  0  0  0
  1  8  1  0
  1  2  2  0
  3  2  1  0
  4  5  2  0
  4  3  1  0
  5  1  1  0
  6 11  2  0
  7  6  1  0
  7  8  2  0
  8  9  1  0
  9 10  2  0
 10 12  1  0
 11 10  1  0
 12 17  1  0
 12 13  2  0
 13 14  1  0
 14 15  2  0
 16 18  1  0
 16 15  1  0
 17 16  2  0
 19 20  1  0
 19  4  1  0
 21 27  1  0
 21 20  1  0
 22 21  1  0
 23 24  1  0
 23 22  2  0
 24 26  1  0
 25 24  2  0
 26 27  1  0
 27 28  2  0
  2 29  1  0
  6 30  1  0
  7 31  1  0
 13 32  1  0
 14 33  1  0
 18 34  1  0
 18 35  1  0
 19 36  1  0
 19 37  1  0
 20 38  1  0
 20 39  1  0
 22 40  1  0
 23 41  1  0
 26 42  1  0
M  ISO  8  29  14  30  14  31  14  32  14  33  14  36   8  37   8  38   8
M  ISO  4  39   8  40  14  41  14  42   9
M  END
>  <minimizedAffinity>  (1) 
-5.6680932

>  <minimizedRMSD>  (1) 
6.53238726

$$$$
