
     RDKit          3D

 55 59  0  0  0  0  0  0  0  0999 V2000
   45.2690   33.9780   41.8870 C   0  0  0  0  0  0  0  0  0  0  0  0
   44.2220   33.4980   41.1540 C   0  0  0  0  0  0  0  0  0  0  0  0
   44.9950   33.2950   39.4760 S   0  0  0  0  0  0  0  0  0  0  0  0
   46.6400   33.9170   40.0950 C   0  0  0  0  0  0  0  0  0  0  0  0
   46.3800   34.1190   41.1930 N   0  0  0  0  0  0  0  0  0  0  0  0
   44.4530   35.8050   45.0790 C   0  0  0  0  0  0  0  0  0  0  0  0
   44.5620   35.5190   43.7280 C   0  0  0  0  0  0  0  0  0  0  0  0
   45.1410   34.3060   43.3260 C   0  0  0  0  0  0  0  0  0  0  0  0
   45.5700   33.4620   44.2850 N   0  0  0  0  0  0  0  0  0  0  0  0
   45.4520   33.7680   45.5950 C   0  0  0  0  0  0  0  0  0  0  0  0
   44.9090   34.9050   45.9790 N   0  0  0  0  0  0  0  0  0  0  0  0
   45.9380   32.8110   46.5790 C   0  0  0  0  0  0  0  0  0  0  0  0
   46.9900   31.9390   46.2760 C   0  0  0  0  0  0  0  0  0  0  0  0
   47.4980   31.0160   47.1490 C   0  0  0  0  0  0  0  0  0  0  0  0
   46.9770   30.9260   48.3520 N   0  0  0  0  0  0  0  0  0  0  0  0
   45.9520   31.7620   48.6710 C   0  0  0  0  0  0  0  0  0  0  0  0
   45.4310   32.6920   47.8140 N   0  0  0  0  0  0  0  0  0  0  0  0
   45.2440   31.8250   49.9360 N   0  0  0  0  0  0  0  0  0  0  0  0
   47.7990   34.0230   39.2020 C   0  0  0  0  0  0  0  0  0  0  0  0
   48.3110   32.6560   38.8680 C   0  0  0  0  0  0  0  0  0  0  0  0
   47.9340   32.3940   37.4330 C   0  0  0  0  0  0  0  0  0  0  0  0
   48.8740   32.8470   36.5190 C   0  0  0  0  0  0  0  0  0  0  0  0
   48.5830   32.6340   35.1860 C   0  0  0  0  0  0  0  0  0  0  0  0
   47.4630   32.0290   34.7980 N   0  0  0  0  0  0  0  0  0  0  0  0
   46.5590   31.5950   35.7100 C   0  0  0  0  0  0  0  0  0  0  0  0
   46.8430   31.8010   36.9960 N   0  0  0  0  0  0  0  0  0  0  0  0
   45.3570   30.9450   35.3090 N   0  0  0  0  0  0  0  0  0  0  0  0
   45.1800   30.7900   33.8850 C   0  0  0  0  0  0  0  0  0  0  0  0
   44.0880   29.8510   33.5090 C   0  0  0  0  0  0  0  0  0  0  0  0
   42.8870   30.1020   34.3880 C   0  0  0  0  0  0  0  0  0  0  0  0
   43.2920   29.7130   35.7880 C   0  0  0  0  0  0  0  0  0  0  0  0
   44.4370   30.5060   36.3120 C   0  0  0  0  0  0  0  0  0  0  0  0
   43.1907   33.2867   41.4731 H   0  0  0  0  0  0  0  0  0  0  0  0
   44.0020   36.7505   45.4147 H   0  0  0  0  0  0  0  0  0  0  0  0
   44.1980   36.2362   42.9775 H   0  0  0  0  0  0  0  0  0  0  0  0
   47.4366   31.9995   45.2726 H   0  0  0  0  0  0  0  0  0  0  0  0
   48.3286   30.3603   46.8488 H   0  0  0  0  0  0  0  0  0  0  0  0
   44.4791   32.5026   50.0649 H   0  0  0  0  0  0  0  0  0  0  0  0
   45.5063   31.1921   50.7051 H   0  0  0  0  0  0  0  0  0  0  0  0
   47.5006   34.5371   38.2764 H   0  0  0  0  0  0  0  0  0  0  0  0
   48.5930   34.5945   39.7050 H   0  0  0  0  0  0  0  0  0  0  0  0
   49.4041   32.6209   38.9857 H   0  0  0  0  0  0  0  0  0  0  0  0
   47.8796   31.8965   39.5366 H   0  0  0  0  0  0  0  0  0  0  0  0
   49.7997   33.3480   36.8383 H   0  0  0  0  0  0  0  0  0  0  0  0
   49.2980   32.9744   34.4225 H   0  0  0  0  0  0  0  0  0  0  0  0
   44.9510   31.7765   33.4556 H   0  0  0  0  0  0  0  0  0  0  0  0
   46.1151   30.3638   33.4927 H   0  0  0  0  0  0  0  0  0  0  0  0
   43.8123   30.0112   32.4562 H   0  0  0  0  0  0  0  0  0  0  0  0
   44.4317   28.8147   33.6432 H   0  0  0  0  0  0  0  0  0  0  0  0
   42.6075   31.1654   34.3549 H   0  0  0  0  0  0  0  0  0  0  0  0
   42.0175   29.5197   34.0492 H   0  0  0  0  0  0  0  0  0  0  0  0
   42.4300   29.8621   36.4548 H   0  0  0  0  0  0  0  0  0  0  0  0
   43.6130   28.6614   35.7537 H   0  0  0  0  0  0  0  0  0  0  0  0
   44.9857   29.8832   37.0338 H   0  0  0  0  0  0  0  0  0  0  0  0
   44.0105   31.4124   36.7666 H   0  0  0  0  0  0  0  0  0  0  0  0
  1  8  1  0
  2  1  2  0
  3  4  1  0
  3  2  1  0
  4  5  2  0
  5  1  1  0
  6 11  2  0
  7  6  1  0
  8  7  2  0
  8  9  1  0
  9 10  2  0
 10 11  1  0
 10 12  1  0
 12 17  1  0
 13 12  2  0
 13 14  1  0
 14 15  2  0
 15 16  1  0
 16 18  1  0
 17 16  2  0
 19  4  1  0
 20 19  1  0
 21 20  1  0
 22 21  2  0
 23 22  1  0
 24 23  2  0
 24 25  1  0
 25 26  2  0
 26 21  1  0
 27 25  1  0
 27 32  1  0
 28 27  1  0
 29 28  1  0
 29 30  1  0
 30 31  1  0
 31 32  1  0
  2 33  1  0
  6 34  1  0
  7 35  1  0
 13 36  1  0
 14 37  1  0
 18 38  1  0
 18 39  1  0
 19 40  1  0
 19 41  1  0
 20 42  1  0
 20 43  1  0
 22 44  1  0
 23 45  1  0
 28 46  1  0
 28 47  1  0
 29 48  1  0
 29 49  1  0
 30 50  1  0
 30 51  1  0
 31 52  1  0
 31 53  1  0
 32 54  1  0
 32 55  1  0
M  ISO  8  33  14  34  14  35  14  36  14  37  14  40   8  41   8  42   8
M  ISO  8  43   8  44  14  45  14  46  13  47  13  48  13  49  13  50  13
M  ISO  5  51  13  52  13  53  13  54  13  55  13
M  END
>  <minimizedAffinity>  (1) 
-6.85736656

>  <minimizedRMSD>  (1) 
1.15450335

$$$$
