
     RDKit          3D

 50 54  0  0  0  0  0  0  0  0999 V2000
   45.1820   33.8420   41.7560 C   0  0  0  0  0  0  0  0  0  0  0  0
   44.1110   33.3410   41.0750 C   0  0  0  0  0  0  0  0  0  0  0  0
   44.8260   33.0770   39.3750 S   0  0  0  0  0  0  0  0  0  0  0  0
   46.4920   33.7130   39.9250 C   0  0  0  0  0  0  0  0  0  0  0  0
   46.2700   33.9530   41.0210 N   0  0  0  0  0  0  0  0  0  0  0  0
   44.4910   35.7770   44.9180 C   0  0  0  0  0  0  0  0  0  0  0  0
   44.5570   35.4530   43.5680 C   0  0  0  0  0  0  0  0  0  0  0  0
   45.0970   34.2160   43.1850 C   0  0  0  0  0  0  0  0  0  0  0  0
   45.5330   33.3890   44.1580 N   0  0  0  0  0  0  0  0  0  0  0  0
   45.4580   33.7260   45.4630 C   0  0  0  0  0  0  0  0  0  0  0  0
   44.9470   34.8970   45.8300 N   0  0  0  0  0  0  0  0  0  0  0  0
   45.9440   32.7910   46.4610 C   0  0  0  0  0  0  0  0  0  0  0  0
   46.9810   31.8990   46.1600 C   0  0  0  0  0  0  0  0  0  0  0  0
   47.4920   30.9880   47.0490 C   0  0  0  0  0  0  0  0  0  0  0  0
   46.9890   30.9390   48.2570 N   0  0  0  0  0  0  0  0  0  0  0  0
   45.9780   31.7960   48.5790 C   0  0  0  0  0  0  0  0  0  0  0  0
   45.4470   32.7180   47.7100 N   0  0  0  0  0  0  0  0  0  0  0  0
   45.3000   31.8940   49.8540 N   0  0  0  0  0  0  0  0  0  0  0  0
   47.6260   33.7850   38.9920 C   0  0  0  0  0  0  0  0  0  0  0  0
   48.0600   32.4030   38.6140 C   0  0  0  0  0  0  0  0  0  0  0  0
   47.8270   32.2720   37.1300 C   0  0  0  0  0  0  0  0  0  0  0  0
   48.8200   32.8760   36.3530 C   0  0  0  0  0  0  0  0  0  0  0  0
   48.6460   32.7810   34.9930 C   0  0  0  0  0  0  0  0  0  0  0  0
   47.6070   32.1580   34.4440 N   0  0  0  0  0  0  0  0  0  0  0  0
   46.6650   31.5860   35.2170 C   0  0  0  0  0  0  0  0  0  0  0  0
   46.8120   31.6650   36.5490 N   0  0  0  0  0  0  0  0  0  0  0  0
   45.4920   30.8830   34.7090 C   0  0  0  0  0  0  0  0  0  0  0  0
   45.7040   30.0110   33.6580 C   0  0  0  0  0  0  0  0  0  0  0  0
   44.6580   29.2910   33.0980 C   0  0  0  0  0  0  0  0  0  0  0  0
   43.4220   29.5140   33.6650 C   0  0  0  0  0  0  0  0  0  0  0  0
   43.1440   30.3690   34.7130 C   0  0  0  0  0  0  0  0  0  0  0  0
   44.2230   31.0720   35.2470 C   0  0  0  0  0  0  0  0  0  0  0  0
   43.0907   33.1442   41.4359 H   0  0  0  0  0  0  0  0  0  0  0  0
   44.0708   36.7419   45.2382 H   0  0  0  0  0  0  0  0  0  0  0  0
   44.1899   36.1587   42.8082 H   0  0  0  0  0  0  0  0  0  0  0  0
   47.4121   31.9310   45.1485 H   0  0  0  0  0  0  0  0  0  0  0  0
   48.3079   30.3122   46.7531 H   0  0  0  0  0  0  0  0  0  0  0  0
   44.5455   32.5830   49.9845 H   0  0  0  0  0  0  0  0  0  0  0  0
   45.5720   31.2748   50.6308 H   0  0  0  0  0  0  0  0  0  0  0  0
   47.3208   34.3321   38.0878 H   0  0  0  0  0  0  0  0  0  0  0  0
   48.4629   34.3086   39.4772 H   0  0  0  0  0  0  0  0  0  0  0  0
   49.1263   32.2630   38.8451 H   0  0  0  0  0  0  0  0  0  0  0  0
   47.4966   31.6420   39.1738 H   0  0  0  0  0  0  0  0  0  0  0  0
   49.6823   33.3924   36.8000 H   0  0  0  0  0  0  0  0  0  0  0  0
   49.3965   33.2388   34.3317 H   0  0  0  0  0  0  0  0  0  0  0  0
   46.7209   29.8852   33.2578 H   0  0  0  0  0  0  0  0  0  0  0  0
   44.8051   28.5922   32.2613 H   0  0  0  0  0  0  0  0  0  0  0  0
   42.5738   28.9563   33.2413 H   0  0  0  0  0  0  0  0  0  0  0  0
   42.1238   30.4892   35.1063 H   0  0  0  0  0  0  0  0  0  0  0  0
   44.0726   31.7687   36.0848 H   0  0  0  0  0  0  0  0  0  0  0  0
  1  8  1  0
  2  1  2  0
  3  4  1  0
  3  2  1  0
  4  5  2  0
  5  1  1  0
  6 11  2  0
  7  6  1  0
  8  7  2  0
  8  9  1  0
  9 10  2  0
 10 11  1  0
 10 12  1  0
 12 17  1  0
 13 12  2  0
 13 14  1  0
 14 15  2  0
 15 16  1  0
 16 18  1  0
 17 16  2  0
 19  4  1  0
 20 19  1  0
 21 20  1  0
 22 21  2  0
 23 22  1  0
 24 23  2  0
 24 25  1  0
 25 26  2  0
 26 21  1  0
 27 25  1  0
 27 32  1  0
 28 27  2  0
 29 28  1  0
 29 30  2  0
 30 31  1  0
 31 32  2  0
  2 33  1  0
  6 34  1  0
  7 35  1  0
 13 36  1  0
 14 37  1  0
 18 38  1  0
 18 39  1  0
 19 40  1  0
 19 41  1  0
 20 42  1  0
 20 43  1  0
 22 44  1  0
 23 45  1  0
 28 46  1  0
 29 47  1  0
 30 48  1  0
 31 49  1  0
 32 50  1  0
M  ISO  8  33  14  34  14  35  14  36  14  37  14  40   8  41   8  42   8
M  ISO  8  43   8  44  14  45  14  46  14  47  14  48  14  49  14  50  14
M  END
>  <minimizedAffinity>  (1) 
-6.63779259

>  <minimizedRMSD>  (1) 
1.26253521

$$$$
