
     RDKit          3D

 48 52  0  0  0  0  0  0  0  0999 V2000
   45.1780   33.8300   41.7490 C   0  0  0  0  0  0  0  0  0  0  0  0
   44.1070   33.3300   41.0650 C   0  0  0  0  0  0  0  0  0  0  0  0
   44.8240   33.0710   39.3700 S   0  0  0  0  0  0  0  0  0  0  0  0
   46.4910   33.7050   39.9170 C   0  0  0  0  0  0  0  0  0  0  0  0
   46.2680   33.9430   41.0160 N   0  0  0  0  0  0  0  0  0  0  0  0
   44.4930   35.7690   44.9050 C   0  0  0  0  0  0  0  0  0  0  0  0
   44.5580   35.4420   43.5570 C   0  0  0  0  0  0  0  0  0  0  0  0
   45.0960   34.2030   43.1810 C   0  0  0  0  0  0  0  0  0  0  0  0
   45.5310   33.3770   44.1470 N   0  0  0  0  0  0  0  0  0  0  0  0
   45.4580   33.7170   45.4540 C   0  0  0  0  0  0  0  0  0  0  0  0
   44.9480   34.8940   45.8270 N   0  0  0  0  0  0  0  0  0  0  0  0
   45.9430   32.7850   46.4550 C   0  0  0  0  0  0  0  0  0  0  0  0
   46.9800   31.8930   46.1540 C   0  0  0  0  0  0  0  0  0  0  0  0
   47.4920   30.9850   47.0430 C   0  0  0  0  0  0  0  0  0  0  0  0
   46.9910   30.9340   48.2560 N   0  0  0  0  0  0  0  0  0  0  0  0
   45.9840   31.7920   48.5700 C   0  0  0  0  0  0  0  0  0  0  0  0
   45.4540   32.7060   47.7060 N   0  0  0  0  0  0  0  0  0  0  0  0
   45.3000   31.8960   49.8480 N   0  0  0  0  0  0  0  0  0  0  0  0
   47.6190   33.7760   38.9810 C   0  0  0  0  0  0  0  0  0  0  0  0
   48.0560   32.3980   38.6030 C   0  0  0  0  0  0  0  0  0  0  0  0
   47.8240   32.2650   37.1180 C   0  0  0  0  0  0  0  0  0  0  0  0
   48.8070   32.8750   36.3490 C   0  0  0  0  0  0  0  0  0  0  0  0
   48.6420   32.7830   34.9790 C   0  0  0  0  0  0  0  0  0  0  0  0
   47.6120   32.1530   34.4280 N   0  0  0  0  0  0  0  0  0  0  0  0
   46.6820   31.5740   35.1980 C   0  0  0  0  0  0  0  0  0  0  0  0
   46.8140   31.6470   36.5270 N   0  0  0  0  0  0  0  0  0  0  0  0
   45.5270   30.8680   34.6500 C   0  0  0  0  0  0  0  0  0  0  0  0
   44.2580   31.0530   35.1850 C   0  0  0  0  0  0  0  0  0  0  0  0
   43.1270   30.4010   34.6950 C   0  0  0  0  0  0  0  0  0  0  0  0
   43.3210   29.5560   33.6500 N   0  0  0  0  0  0  0  0  0  0  0  0
   44.5350   29.3580   33.1130 C   0  0  0  0  0  0  0  0  0  0  0  0
   45.5980   30.0090   33.6180 N   0  0  0  0  0  0  0  0  0  0  0  0
   43.0861   33.1321   41.4237 H   0  0  0  0  0  0  0  0  0  0  0  0
   44.0731   36.7357   45.2199 H   0  0  0  0  0  0  0  0  0  0  0  0
   44.1924   36.1455   42.7945 H   0  0  0  0  0  0  0  0  0  0  0  0
   47.4097   31.9233   45.1418 H   0  0  0  0  0  0  0  0  0  0  0  0
   48.3085   30.3104   46.7460 H   0  0  0  0  0  0  0  0  0  0  0  0
   44.5466   32.5869   49.9742 H   0  0  0  0  0  0  0  0  0  0  0  0
   45.5687   31.2788   50.6276 H   0  0  0  0  0  0  0  0  0  0  0  0
   47.3087   34.3207   38.0771 H   0  0  0  0  0  0  0  0  0  0  0  0
   48.4565   34.3011   39.4635 H   0  0  0  0  0  0  0  0  0  0  0  0
   49.1226   32.2611   38.8344 H   0  0  0  0  0  0  0  0  0  0  0  0
   47.4938   31.6358   39.1624 H   0  0  0  0  0  0  0  0  0  0  0  0
   49.6625   33.3981   36.8012 H   0  0  0  0  0  0  0  0  0  0  0  0
   49.3915   33.2488   34.3223 H   0  0  0  0  0  0  0  0  0  0  0  0
   44.1404   31.7443   36.0325 H   0  0  0  0  0  0  0  0  0  0  0  0
   42.1305   30.5626   35.1319 H   0  0  0  0  0  0  0  0  0  0  0  0
   44.6597   28.6679   32.2655 H   0  0  0  0  0  0  0  0  0  0  0  0
  1  8  1  0
  2  1  2  0
  3  4  1  0
  3  2  1  0
  4  5  2  0
  5  1  1  0
  6 11  2  0
  7  6  1  0
  8  7  2  0
  8  9  1  0
  9 10  2  0
 10 11  1  0
 10 12  1  0
 12 17  1  0
 13 12  2  0
 13 14  1  0
 14 15  2  0
 15 16  1  0
 16 18  1  0
 17 16  2  0
 19  4  1  0
 20 19  1  0
 21 20  1  0
 22 21  2  0
 23 22  1  0
 24 23  2  0
 24 25  1  0
 25 26  2  0
 26 21  1  0
 27 28  2  0
 27 25  1  0
 29 28  1  0
 30 29  2  0
 31 32  2  0
 31 30  1  0
 32 27  1  0
  2 33  1  0
  6 34  1  0
  7 35  1  0
 13 36  1  0
 14 37  1  0
 18 38  1  0
 18 39  1  0
 19 40  1  0
 19 41  1  0
 20 42  1  0
 20 43  1  0
 22 44  1  0
 23 45  1  0
 28 46  1  0
 29 47  1  0
 31 48  1  0
M  ISO  8  33  14  34  14  35  14  36  14  37  14  40   8  41   8  42   8
M  ISO  6  43   8  44  14  45  14  46  14  47  14  48  14
M  END
>  <minimizedAffinity>  (1) 
-6.58560705

>  <minimizedRMSD>  (1) 
1.39529216

$$$$
