
     RDKit          3D

 53 57  0  0  0  0  0  0  0  0999 V2000
   45.1510   33.8120   41.7230 C   0  0  0  0  0  0  0  0  0  0  0  0
   44.0690   33.3260   41.0480 C   0  0  0  0  0  0  0  0  0  0  0  0
   44.7780   33.0600   39.3450 S   0  0  0  0  0  0  0  0  0  0  0  0
   46.4560   33.6730   39.8820 C   0  0  0  0  0  0  0  0  0  0  0  0
   46.2410   33.9140   40.9810 N   0  0  0  0  0  0  0  0  0  0  0  0
   44.5080   35.7590   44.8840 C   0  0  0  0  0  0  0  0  0  0  0  0
   44.5590   35.4290   43.5350 C   0  0  0  0  0  0  0  0  0  0  0  0
   45.0860   34.1860   43.1540 C   0  0  0  0  0  0  0  0  0  0  0  0
   45.5230   33.3610   44.1250 N   0  0  0  0  0  0  0  0  0  0  0  0
   45.4620   33.7070   45.4280 C   0  0  0  0  0  0  0  0  0  0  0  0
   44.9640   34.8790   45.7940 N   0  0  0  0  0  0  0  0  0  0  0  0
   45.9560   32.7570   46.4210 C   0  0  0  0  0  0  0  0  0  0  0  0
   46.9740   31.8650   46.1160 C   0  0  0  0  0  0  0  0  0  0  0  0
   47.4830   30.9500   47.0010 C   0  0  0  0  0  0  0  0  0  0  0  0
   46.9860   30.9020   48.2130 N   0  0  0  0  0  0  0  0  0  0  0  0
   45.9920   31.7600   48.5400 C   0  0  0  0  0  0  0  0  0  0  0  0
   45.4580   32.6920   47.6740 N   0  0  0  0  0  0  0  0  0  0  0  0
   45.3120   31.8690   49.8140 N   0  0  0  0  0  0  0  0  0  0  0  0
   47.5740   33.7280   38.9390 C   0  0  0  0  0  0  0  0  0  0  0  0
   47.9440   32.3390   38.5020 C   0  0  0  0  0  0  0  0  0  0  0  0
   47.6940   32.2830   37.0150 C   0  0  0  0  0  0  0  0  0  0  0  0
   48.7990   32.6620   36.2570 C   0  0  0  0  0  0  0  0  0  0  0  0
   48.6290   32.6300   34.8860 C   0  0  0  0  0  0  0  0  0  0  0  0
   47.4980   32.2650   34.3210 N   0  0  0  0  0  0  0  0  0  0  0  0
   46.4410   31.9020   35.0810 C   0  0  0  0  0  0  0  0  0  0  0  0
   46.5780   31.9230   36.4110 N   0  0  0  0  0  0  0  0  0  0  0  0
   45.1320   31.4790   34.5180 C   0  0  0  0  0  0  0  0  0  0  0  0
   45.2190   30.2150   33.7000 C   0  0  0  0  0  0  0  0  0  0  0  0
   43.7740   29.8270   33.5390 C   0  0  0  0  0  0  0  0  0  0  0  0
   43.0850   30.3110   34.7890 C   0  0  0  0  0  0  0  0  0  0  0  0
   44.1330   31.0740   35.5820 C   0  0  0  0  0  0  0  0  0  0  0  0
   43.0480   33.1403   41.4128 H   0  0  0  0  0  0  0  0  0  0  0  0
   44.0994   36.7288   45.2042 H   0  0  0  0  0  0  0  0  0  0  0  0
   44.1906   36.1339   42.7752 H   0  0  0  0  0  0  0  0  0  0  0  0
   47.3988   31.8937   45.1017 H   0  0  0  0  0  0  0  0  0  0  0  0
   48.2929   30.2692   46.6998 H   0  0  0  0  0  0  0  0  0  0  0  0
   44.5655   32.5672   49.9413 H   0  0  0  0  0  0  0  0  0  0  0  0
   45.5749   31.2483   50.5928 H   0  0  0  0  0  0  0  0  0  0  0  0
   47.2808   34.3208   38.0600 H   0  0  0  0  0  0  0  0  0  0  0  0
   48.4398   34.1952   39.4310 H   0  0  0  0  0  0  0  0  0  0  0  0
   49.0044   32.1415   38.7178 H   0  0  0  0  0  0  0  0  0  0  0  0
   47.3526   31.5807   39.0360 H   0  0  0  0  0  0  0  0  0  0  0  0
   49.7484   32.9679   36.7209 H   0  0  0  0  0  0  0  0  0  0  0  0
   49.4719   32.9210   34.2419 H   0  0  0  0  0  0  0  0  0  0  0  0
   44.8316   32.3636   33.9373 H   0  0  0  0  0  0  0  0  0  0  0  0
   45.6900   30.4052   32.7243 H   0  0  0  0  0  0  0  0  0  0  0  0
   45.8322   29.4318   34.1696 H   0  0  0  0  0  0  0  0  0  0  0  0
   43.3427   30.3111   32.6504 H   0  0  0  0  0  0  0  0  0  0  0  0
   43.6558   28.7420   33.4021 H   0  0  0  0  0  0  0  0  0  0  0  0
   42.2459   30.9733   34.5298 H   0  0  0  0  0  0  0  0  0  0  0  0
   42.6739   29.4726   35.3705 H   0  0  0  0  0  0  0  0  0  0  0  0
   44.6018   30.4302   36.3407 H   0  0  0  0  0  0  0  0  0  0  0  0
   43.7204   31.9282   36.1388 H   0  0  0  0  0  0  0  0  0  0  0  0
  1  8  1  0
  2  1  2  0
  3  4  1  0
  3  2  1  0
  4  5  2  0
  5  1  1  0
  6 11  2  0
  7  6  1  0
  8  7  2  0
  8  9  1  0
  9 10  2  0
 10 11  1  0
 10 12  1  0
 12 17  1  0
 13 12  2  0
 13 14  1  0
 14 15  2  0
 15 16  1  0
 16 18  1  0
 17 16  2  0
 19  4  1  0
 20 19  1  0
 21 20  1  0
 22 21  2  0
 23 22  1  0
 24 23  2  0
 24 25  1  0
 25 26  2  0
 26 21  1  0
 27 25  1  0
 27 31  1  0
 28 27  1  0
 29 28  1  0
 29 30  1  0
 30 31  1  0
  2 32  1  0
  6 33  1  0
  7 34  1  0
 13 35  1  0
 14 36  1  0
 18 37  1  0
 18 38  1  0
 19 39  1  0
 19 40  1  0
 20 41  1  0
 20 42  1  0
 22 43  1  0
 23 44  1  0
 27 45  1  0
 28 46  1  0
 28 47  1  0
 29 48  1  0
 29 49  1  0
 30 50  1  0
 30 51  1  0
 31 52  1  0
 31 53  1  0
M  ISO  8  32  14  33  14  34  14  35  14  36  14  39   8  40   8  41   8
M  ISO  8  42   8  43  14  44  14  45  13  46  13  47  13  48  13  49  13
M  ISO  4  50  13  51  13  52  13  53  13
M  END
>  <minimizedAffinity>  (1) 
-6.52836466

>  <minimizedRMSD>  (1) 
1.47948086

$$$$
