
     RDKit          3D

 46 50  0  0  0  0  0  0  0  0999 V2000
   45.1770   33.8300   41.7400 C   0  0  0  0  0  0  0  0  0  0  0  0
   44.1070   33.3310   41.0570 C   0  0  0  0  0  0  0  0  0  0  0  0
   44.8230   33.0690   39.3630 S   0  0  0  0  0  0  0  0  0  0  0  0
   46.4920   33.7030   39.9090 C   0  0  0  0  0  0  0  0  0  0  0  0
   46.2640   33.9410   41.0070 N   0  0  0  0  0  0  0  0  0  0  0  0
   44.4970   35.7690   44.8960 C   0  0  0  0  0  0  0  0  0  0  0  0
   44.5600   35.4440   43.5480 C   0  0  0  0  0  0  0  0  0  0  0  0
   45.0950   34.2040   43.1700 C   0  0  0  0  0  0  0  0  0  0  0  0
   45.5290   33.3770   44.1420 N   0  0  0  0  0  0  0  0  0  0  0  0
   45.4570   33.7160   45.4440 C   0  0  0  0  0  0  0  0  0  0  0  0
   44.9500   34.8930   45.8170 N   0  0  0  0  0  0  0  0  0  0  0  0
   45.9400   32.7860   46.4480 C   0  0  0  0  0  0  0  0  0  0  0  0
   46.9770   31.8930   46.1480 C   0  0  0  0  0  0  0  0  0  0  0  0
   47.4930   30.9830   47.0350 C   0  0  0  0  0  0  0  0  0  0  0  0
   46.9900   30.9360   48.2440 N   0  0  0  0  0  0  0  0  0  0  0  0
   45.9850   31.7870   48.5670 C   0  0  0  0  0  0  0  0  0  0  0  0
   45.4480   32.7110   47.6940 N   0  0  0  0  0  0  0  0  0  0  0  0
   45.3010   31.8910   49.8400 N   0  0  0  0  0  0  0  0  0  0  0  0
   47.6220   33.7720   38.9720 C   0  0  0  0  0  0  0  0  0  0  0  0
   48.0490   32.3860   38.5910 C   0  0  0  0  0  0  0  0  0  0  0  0
   47.8090   32.2580   37.1070 C   0  0  0  0  0  0  0  0  0  0  0  0
   48.7920   32.8470   36.3250 C   0  0  0  0  0  0  0  0  0  0  0  0
   48.6290   32.7630   34.9640 C   0  0  0  0  0  0  0  0  0  0  0  0
   47.5930   32.1580   34.4160 N   0  0  0  0  0  0  0  0  0  0  0  0
   46.6480   31.5930   35.1890 C   0  0  0  0  0  0  0  0  0  0  0  0
   46.7930   31.6640   36.5160 N   0  0  0  0  0  0  0  0  0  0  0  0
   45.4540   30.8920   34.6650 C   0  0  0  0  0  0  0  0  0  0  0  0
   44.1900   31.0710   35.2090 C   0  0  0  0  0  0  0  0  0  0  0  0
   43.1440   29.9660   34.1610 S   0  0  0  0  0  0  0  0  0  0  0  0
   44.6720   29.4550   33.1510 C   0  0  0  0  0  0  0  0  0  0  0  0
   45.5030   30.0480   33.6430 N   0  0  0  0  0  0  0  0  0  0  0  0
   43.0859   33.1348   41.4159 H   0  0  0  0  0  0  0  0  0  0  0  0
   44.0796   36.7364   45.2121 H   0  0  0  0  0  0  0  0  0  0  0  0
   44.1953   36.1493   42.7867 H   0  0  0  0  0  0  0  0  0  0  0  0
   47.4052   31.9237   45.1352 H   0  0  0  0  0  0  0  0  0  0  0  0
   48.3098   30.3086   46.7384 H   0  0  0  0  0  0  0  0  0  0  0  0
   44.5475   32.5820   49.9648 H   0  0  0  0  0  0  0  0  0  0  0  0
   45.5683   31.2739   50.6202 H   0  0  0  0  0  0  0  0  0  0  0  0
   47.3154   34.3211   38.0695 H   0  0  0  0  0  0  0  0  0  0  0  0
   48.4629   34.2924   39.4537 H   0  0  0  0  0  0  0  0  0  0  0  0
   49.1156   32.2409   38.8176 H   0  0  0  0  0  0  0  0  0  0  0  0
   47.4849   31.6269   39.1527 H   0  0  0  0  0  0  0  0  0  0  0  0
   49.6585   33.3558   36.7727 H   0  0  0  0  0  0  0  0  0  0  0  0
   49.3880   33.2155   34.3089 H   0  0  0  0  0  0  0  0  0  0  0  0
   43.8872   31.7098   36.0518 H   0  0  0  0  0  0  0  0  0  0  0  0
   44.7338   28.7584   32.3019 H   0  0  0  0  0  0  0  0  0  0  0  0
  1  8  1  0
  2  1  2  0
  3  4  1  0
  3  2  1  0
  4  5  2  0
  5  1  1  0
  6 11  2  0
  7  6  1  0
  8  7  2  0
  8  9  1  0
  9 10  2  0
 10 11  1  0
 10 12  1  0
 12 17  1  0
 13 12  2  0
 13 14  1  0
 14 15  2  0
 15 16  1  0
 16 18  1  0
 17 16  2  0
 19  4  1  0
 20 19  1  0
 21 20  1  0
 22 21  2  0
 23 22  1  0
 24 23  2  0
 24 25  1  0
 25 26  2  0
 26 21  1  0
 27 25  1  0
 27 28  2  0
 29 28  1  0
 30 31  2  0
 30 29  1  0
 31 27  1  0
  2 32  1  0
  6 33  1  0
  7 34  1  0
 13 35  1  0
 14 36  1  0
 18 37  1  0
 18 38  1  0
 19 39  1  0
 19 40  1  0
 20 41  1  0
 20 42  1  0
 22 43  1  0
 23 44  1  0
 28 45  1  0
 30 46  1  0
M  ISO  8  32  14  33  14  34  14  35  14  36  14  39   8  40   8  41   8
M  ISO  5  42   8  43  14  44  14  45  14  46  14
M  END
>  <minimizedAffinity>  (1) 
-6.42505836

>  <minimizedRMSD>  (1) 
1.22979891

$$$$
