
     RDKit          3D

 47 51  0  0  0  0  0  0  0  0999 V2000
   45.4030   33.9100   41.8400 C   0  0  0  0  0  0  0  0  0  0  0  0
   44.3970   33.3590   41.1020 C   0  0  0  0  0  0  0  0  0  0  0  0
   45.2310   33.1910   39.4370 S   0  0  0  0  0  0  0  0  0  0  0  0
   46.8220   33.9200   40.0800 C   0  0  0  0  0  0  0  0  0  0  0  0
   46.5230   34.1150   41.1730 N   0  0  0  0  0  0  0  0  0  0  0  0
   44.4650   35.7480   44.9980 C   0  0  0  0  0  0  0  0  0  0  0  0
   44.6170   35.4530   43.6470 C   0  0  0  0  0  0  0  0  0  0  0  0
   45.2300   34.2460   43.2770 C   0  0  0  0  0  0  0  0  0  0  0  0
   45.6470   33.4240   44.2520 N   0  0  0  0  0  0  0  0  0  0  0  0
   45.4880   33.7340   45.5590 C   0  0  0  0  0  0  0  0  0  0  0  0
   44.9110   34.8690   45.9170 N   0  0  0  0  0  0  0  0  0  0  0  0
   45.9630   32.7960   46.5620 C   0  0  0  0  0  0  0  0  0  0  0  0
   47.0200   31.9200   46.2870 C   0  0  0  0  0  0  0  0  0  0  0  0
   47.5190   31.0110   47.1850 C   0  0  0  0  0  0  0  0  0  0  0  0
   46.9810   30.9460   48.3840 N   0  0  0  0  0  0  0  0  0  0  0  0
   45.9610   31.7830   48.6680 C   0  0  0  0  0  0  0  0  0  0  0  0
   45.4330   32.7050   47.7980 N   0  0  0  0  0  0  0  0  0  0  0  0
   45.2400   31.8630   49.9260 N   0  0  0  0  0  0  0  0  0  0  0  0
   47.9780   34.0800   39.2020 C   0  0  0  0  0  0  0  0  0  0  0  0
   48.6330   32.7430   38.9660 C   0  0  0  0  0  0  0  0  0  0  0  0
   48.3030   32.3610   37.5450 C   0  0  0  0  0  0  0  0  0  0  0  0
   48.8410   33.2170   36.5970 C   0  0  0  0  0  0  0  0  0  0  0  0
   48.5760   32.9220   35.2790 C   0  0  0  0  0  0  0  0  0  0  0  0
   47.8500   31.8840   34.9240 N   0  0  0  0  0  0  0  0  0  0  0  0
   47.3340   31.0610   35.8620 C   0  0  0  0  0  0  0  0  0  0  0  0
   47.5790   31.3280   37.1470 N   0  0  0  0  0  0  0  0  0  0  0  0
   46.5330   29.9080   35.5960 N   0  0  0  0  0  0  0  0  0  0  0  0
   46.2490   29.8200   34.2970 N   0  0  0  0  0  0  0  0  0  0  0  0
   45.4880   28.7200   34.0680 C   0  0  0  0  0  0  0  0  0  0  0  0
   45.3210   28.1340   35.2980 C   0  0  0  0  0  0  0  0  0  0  0  0
   45.9760   28.8830   36.2480 C   0  0  0  0  0  0  0  0  0  0  0  0
   43.3746   33.0877   41.4038 H   0  0  0  0  0  0  0  0  0  0  0  0
   43.9866   36.6873   45.3123 H   0  0  0  0  0  0  0  0  0  0  0  0
   44.2616   36.1561   42.8793 H   0  0  0  0  0  0  0  0  0  0  0  0
   47.4790   31.9634   45.2883 H   0  0  0  0  0  0  0  0  0  0  0  0
   48.3528   30.3492   46.9081 H   0  0  0  0  0  0  0  0  0  0  0  0
   44.4731   32.5415   50.0378 H   0  0  0  0  0  0  0  0  0  0  0  0
   45.4955   31.2413   50.7064 H   0  0  0  0  0  0  0  0  0  0  0  0
   47.6497   34.5000   38.2398 H   0  0  0  0  0  0  0  0  0  0  0  0
   48.7018   34.7587   39.6769 H   0  0  0  0  0  0  0  0  0  0  0  0
   49.7223   32.8231   39.0967 H   0  0  0  0  0  0  0  0  0  0  0  0
   48.2726   31.9873   39.6795 H   0  0  0  0  0  0  0  0  0  0  0  0
   49.4489   34.0879   36.8834 H   0  0  0  0  0  0  0  0  0  0  0  0
   48.9854   33.5767   34.4956 H   0  0  0  0  0  0  0  0  0  0  0  0
   45.0901   28.3724   33.1032 H   0  0  0  0  0  0  0  0  0  0  0  0
   44.7536   27.2120   35.4931 H   0  0  0  0  0  0  0  0  0  0  0  0
   46.0304   28.6791   37.3276 H   0  0  0  0  0  0  0  0  0  0  0  0
  1  8  1  0
  2  1  2  0
  3  4  1  0
  3  2  1  0
  4  5  2  0
  5  1  1  0
  6 11  2  0
  7  6  1  0
  8  7  2  0
  8  9  1  0
  9 10  2  0
 10 11  1  0
 10 12  1  0
 12 17  1  0
 13 12  2  0
 13 14  1  0
 14 15  2  0
 15 16  1  0
 16 18  1  0
 17 16  2  0
 19  4  1  0
 20 19  1  0
 21 20  1  0
 22 21  2  0
 23 22  1  0
 24 23  2  0
 24 25  1  0
 25 26  2  0
 26 21  1  0
 27 25  1  0
 27 31  1  0
 28 27  1  0
 29 28  2  0
 29 30  1  0
 30 31  2  0
  2 32  1  0
  6 33  1  0
  7 34  1  0
 13 35  1  0
 14 36  1  0
 18 37  1  0
 18 38  1  0
 19 39  1  0
 19 40  1  0
 20 41  1  0
 20 42  1  0
 22 43  1  0
 23 44  1  0
 29 45  1  0
 30 46  1  0
 31 47  1  0
M  ISO  8  32  14  33  14  34  14  35  14  36  14  39   8  40   8  41   8
M  ISO  6  42   8  43  14  44  14  45  14  46  14  47  14
M  END
>  <minimizedAffinity>  (1) 
-6.42249966

>  <minimizedRMSD>  (1) 
0.146903366

$$$$
