
     RDKit          3D

 33 35  0  0  0  0  0  0  0  0999 V2000
   46.6560   34.7990   42.0410 C   0  0  0  0  0  0  0  0  0  0  0  0
   47.9500   35.2810   41.9820 C   0  0  0  0  0  0  0  0  0  0  0  0
   48.7200   35.1430   40.8180 C   0  0  0  0  0  0  0  0  0  0  0  0
   48.1670   34.5040   39.6930 C   0  0  0  0  0  0  0  0  0  0  0  0
   46.8830   34.0330   39.7700 C   0  0  0  0  0  0  0  0  0  0  0  0
   46.1520   34.1830   40.9270 C   0  0  0  0  0  0  0  0  0  0  0  0
   44.4660   36.0940   44.8170 C   0  0  0  0  0  0  0  0  0  0  0  0
   45.1060   36.0490   43.5700 C   0  0  0  0  0  0  0  0  0  0  0  0
   45.9320   34.9810   43.2790 C   0  0  0  0  0  0  0  0  0  0  0  0
   46.0860   34.0110   44.2280 N   0  0  0  0  0  0  0  0  0  0  0  0
   45.4450   34.0910   45.4280 C   0  0  0  0  0  0  0  0  0  0  0  0
   44.6470   35.1250   45.7090 N   0  0  0  0  0  0  0  0  0  0  0  0
   44.8220   33.6790   40.9620 N   0  0  0  0  0  0  0  0  0  0  0  0
   44.3730   32.3750   41.3600 C   0  0  0  0  0  0  0  0  0  0  0  0
   43.2030   31.8720   40.5410 C   0  0  0  0  0  0  0  0  0  0  0  0
   43.2740   32.5050   39.3010 O   0  0  0  0  0  0  0  0  0  0  0  0
   42.8340   33.8210   39.5340 C   0  0  0  0  0  0  0  0  0  0  0  0
   43.7010   34.5090   40.5650 C   0  0  0  0  0  0  0  0  0  0  0  0
   48.3825   35.7805   42.8615 H   0  0  0  0  0  0  0  0  0  0  0  0
   49.7486   35.5314   40.7848 H   0  0  0  0  0  0  0  0  0  0  0  0
   48.7539   34.3851   38.7703 H   0  0  0  0  0  0  0  0  0  0  0  0
   46.4326   33.5312   38.9009 H   0  0  0  0  0  0  0  0  0  0  0  0
   43.8069   36.9405   45.0598 H   0  0  0  0  0  0  0  0  0  0  0  0
   44.9524   36.8524   42.8345 H   0  0  0  0  0  0  0  0  0  0  0  0
   45.5863   33.2950   46.1739 H   0  0  0  0  0  0  0  0  0  0  0  0
   45.2082   31.6681   41.2475 H   0  0  0  0  0  0  0  0  0  0  0  0
   44.0335   32.4503   42.4036 H   0  0  0  0  0  0  0  0  0  0  0  0
   43.2717   30.7816   40.4134 H   0  0  0  0  0  0  0  0  0  0  0  0
   42.2486   32.0928   41.0414 H   0  0  0  0  0  0  0  0  0  0  0  0
   42.8781   34.3870   38.5918 H   0  0  0  0  0  0  0  0  0  0  0  0
   41.8022   33.7831   39.9135 H   0  0  0  0  0  0  0  0  0  0  0  0
   44.0854   35.4474   40.1388 H   0  0  0  0  0  0  0  0  0  0  0  0
   43.0858   34.7040   41.4558 H   0  0  0  0  0  0  0  0  0  0  0  0
  1  9  1  0
  2  1  2  0
  3  2  1  0
  4  5  1  0
  4  3  2  0
  5  6  2  0
  6 13  1  0
  6  1  1  0
  7 12  2  0
  8  7  1  0
  9  8  2  0
  9 10  1  0
 10 11  2  0
 11 12  1  0
 13 14  1  0
 15 14  1  0
 16 17  1  0
 16 15  1  0
 17 18  1  0
 18 13  1  0
  2 19  1  0
  3 20  1  0
  4 21  1  0
  5 22  1  0
  7 23  1  0
  8 24  1  0
 11 25  1  0
 14 26  1  0
 14 27  1  0
 15 28  1  0
 15 29  1  0
 17 30  1  0
 17 31  1  0
 18 32  1  0
 18 33  1  0
M  ISO  8  19  14  20  14  21  14  22  14  23  14  24  14  25  14  26  13
M  ISO  7  27  13  28  13  29  13  30  13  31  13  32  13  33  13
M  END
>  <minimizedAffinity>  (1) 
-5.4742651

>  <minimizedRMSD>  (1) 
0.364650309

$$$$
