
     RDKit          3D

 47 51  0  0  0  0  0  0  0  0999 V2000
   45.2570   33.8600   41.7870 C   0  0  0  0  0  0  0  0  0  0  0  0
   44.2010   33.3460   41.0890 C   0  0  0  0  0  0  0  0  0  0  0  0
   44.9730   33.1170   39.4000 S   0  0  0  0  0  0  0  0  0  0  0  0
   46.6150   33.7770   39.9820 C   0  0  0  0  0  0  0  0  0  0  0  0
   46.3690   34.0050   41.0810 N   0  0  0  0  0  0  0  0  0  0  0  0
   44.4810   35.7690   44.9480 C   0  0  0  0  0  0  0  0  0  0  0  0
   44.5760   35.4470   43.5990 C   0  0  0  0  0  0  0  0  0  0  0  0
   45.1460   34.2220   43.2210 C   0  0  0  0  0  0  0  0  0  0  0  0
   45.5770   33.4070   44.1950 N   0  0  0  0  0  0  0  0  0  0  0  0
   45.4740   33.7420   45.5050 C   0  0  0  0  0  0  0  0  0  0  0  0
   44.9380   34.8950   45.8660 N   0  0  0  0  0  0  0  0  0  0  0  0
   45.9730   32.7890   46.4970 C   0  0  0  0  0  0  0  0  0  0  0  0
   47.0030   31.9100   46.2120 C   0  0  0  0  0  0  0  0  0  0  0  0
   47.5040   31.0040   47.0960 C   0  0  0  0  0  0  0  0  0  0  0  0
   46.9860   30.9430   48.3150 N   0  0  0  0  0  0  0  0  0  0  0  0
   45.9730   31.7980   48.6190 C   0  0  0  0  0  0  0  0  0  0  0  0
   45.4570   32.7120   47.7480 N   0  0  0  0  0  0  0  0  0  0  0  0
   45.2770   31.8920   49.8840 N   0  0  0  0  0  0  0  0  0  0  0  0
   47.7540   33.8740   39.0680 C   0  0  0  0  0  0  0  0  0  0  0  0
   48.2550   32.5000   38.7280 C   0  0  0  0  0  0  0  0  0  0  0  0
   47.9540   32.2860   37.2660 C   0  0  0  0  0  0  0  0  0  0  0  0
   48.8160   32.9600   36.4140 C   0  0  0  0  0  0  0  0  0  0  0  0
   48.5920   32.8040   35.0660 C   0  0  0  0  0  0  0  0  0  0  0  0
   47.6090   32.0530   34.5990 N   0  0  0  0  0  0  0  0  0  0  0  0
   46.7860   31.4090   35.4410 C   0  0  0  0  0  0  0  0  0  0  0  0
   46.9850   31.5460   36.7560 N   0  0  0  0  0  0  0  0  0  0  0  0
   45.6580   30.5450   35.0980 C   0  0  0  0  0  0  0  0  0  0  0  0
   44.8100   31.0370   34.1060 C   0  0  0  0  0  0  0  0  0  0  0  0
   43.8050   30.0900   33.9150 C   0  0  0  0  0  0  0  0  0  0  0  0
   44.1180   29.0770   34.8160 C   0  0  0  0  0  0  0  0  0  0  0  0
   45.2060   29.3800   35.4860 O   0  0  0  0  0  0  0  0  0  0  0  0
   43.1775   33.1269   41.4272 H   0  0  0  0  0  0  0  0  0  0  0  0
   44.0381   36.7257   45.2622 H   0  0  0  0  0  0  0  0  0  0  0  0
   44.2074   36.1467   42.8344 H   0  0  0  0  0  0  0  0  0  0  0  0
   47.4458   31.9456   45.2057 H   0  0  0  0  0  0  0  0  0  0  0  0
   48.3254   30.3333   46.8037 H   0  0  0  0  0  0  0  0  0  0  0  0
   44.5202   32.5801   50.0055 H   0  0  0  0  0  0  0  0  0  0  0  0
   45.5383   31.2709   50.6630 H   0  0  0  0  0  0  0  0  0  0  0  0
   47.4396   34.3859   38.1465 H   0  0  0  0  0  0  0  0  0  0  0  0
   48.5602   34.4436   39.5533 H   0  0  0  0  0  0  0  0  0  0  0  0
   49.3385   32.4353   38.9067 H   0  0  0  0  0  0  0  0  0  0  0  0
   47.7705   31.7337   39.3509 H   0  0  0  0  0  0  0  0  0  0  0  0
   49.6356   33.5863   36.7961 H   0  0  0  0  0  0  0  0  0  0  0  0
   49.2518   33.3206   34.3535 H   0  0  0  0  0  0  0  0  0  0  0  0
   44.9147   31.9939   33.5736 H   0  0  0  0  0  0  0  0  0  0  0  0
   42.9590   30.1336   33.2133 H   0  0  0  0  0  0  0  0  0  0  0  0
   43.5362   28.1529   34.9484 H   0  0  0  0  0  0  0  0  0  0  0  0
  1  8  1  0
  2  1  2  0
  3  4  1  0
  3  2  1  0
  4  5  2  0
  5  1  1  0
  6 11  2  0
  7  6  1  0
  8  7  2  0
  8  9  1  0
  9 10  2  0
 10 11  1  0
 10 12  1  0
 12 17  1  0
 13 12  2  0
 13 14  1  0
 14 15  2  0
 15 16  1  0
 16 18  1  0
 17 16  2  0
 19  4  1  0
 20 19  1  0
 21 20  1  0
 22 21  2  0
 23 22  1  0
 24 23  2  0
 24 25  1  0
 25 26  2  0
 26 21  1  0
 27 25  1  0
 27 31  1  0
 28 27  2  0
 29 28  1  0
 29 30  2  0
 30 31  1  0
  2 32  1  0
  6 33  1  0
  7 34  1  0
 13 35  1  0
 14 36  1  0
 18 37  1  0
 18 38  1  0
 19 39  1  0
 19 40  1  0
 20 41  1  0
 20 42  1  0
 22 43  1  0
 23 44  1  0
 28 45  1  0
 29 46  1  0
 30 47  1  0
M  ISO  8  32  14  33  14  34  14  35  14  36  14  39   8  40   8  41   8
M  ISO  6  42   8  43  14  44  14  45  14  46  14  47  14
M  END
>  <minimizedAffinity>  (1) 
-6.34339094

>  <minimizedRMSD>  (1) 
1.13233364

$$$$
