
     RDKit          3D

 47 51  0  0  0  0  0  0  0  0999 V2000
   45.2910   33.9190   41.8330 C   0  0  0  0  0  0  0  0  0  0  0  0
   44.2550   33.4090   41.1090 C   0  0  0  0  0  0  0  0  0  0  0  0
   45.0510   33.2130   39.4400 S   0  0  0  0  0  0  0  0  0  0  0  0
   46.6820   33.8770   40.0520 C   0  0  0  0  0  0  0  0  0  0  0  0
   46.4150   34.0850   41.1500 N   0  0  0  0  0  0  0  0  0  0  0  0
   44.4690   35.7780   45.0120 C   0  0  0  0  0  0  0  0  0  0  0  0
   44.5790   35.4800   43.6610 C   0  0  0  0  0  0  0  0  0  0  0  0
   45.1600   34.2620   43.2790 C   0  0  0  0  0  0  0  0  0  0  0  0
   45.5880   33.4300   44.2430 N   0  0  0  0  0  0  0  0  0  0  0  0
   45.4690   33.7450   45.5530 C   0  0  0  0  0  0  0  0  0  0  0  0
   44.9210   34.8940   45.9260 N   0  0  0  0  0  0  0  0  0  0  0  0
   45.9490   32.8080   46.5460 C   0  0  0  0  0  0  0  0  0  0  0  0
   47.0030   31.9320   46.2610 C   0  0  0  0  0  0  0  0  0  0  0  0
   47.5080   31.0240   47.1470 C   0  0  0  0  0  0  0  0  0  0  0  0
   46.9870   30.9450   48.3550 N   0  0  0  0  0  0  0  0  0  0  0  0
   45.9630   31.7850   48.6530 C   0  0  0  0  0  0  0  0  0  0  0  0
   45.4350   32.7070   47.7890 N   0  0  0  0  0  0  0  0  0  0  0  0
   45.2530   31.8600   49.9180 N   0  0  0  0  0  0  0  0  0  0  0  0
   47.8330   33.9970   39.1600 C   0  0  0  0  0  0  0  0  0  0  0  0
   48.4010   32.6250   38.8690 C   0  0  0  0  0  0  0  0  0  0  0  0
   48.0670   32.3180   37.4480 C   0  0  0  0  0  0  0  0  0  0  0  0
   48.8370   32.9970   36.5170 C   0  0  0  0  0  0  0  0  0  0  0  0
   48.6060   32.7860   35.1840 C   0  0  0  0  0  0  0  0  0  0  0  0
   47.6590   31.9410   34.7980 N   0  0  0  0  0  0  0  0  0  0  0  0
   46.9200   31.2890   35.7030 C   0  0  0  0  0  0  0  0  0  0  0  0
   47.1440   31.4950   36.9920 N   0  0  0  0  0  0  0  0  0  0  0  0
   45.8720   30.3540   35.2550 C   0  0  0  0  0  0  0  0  0  0  0  0
   45.5340   29.0940   35.5290 C   0  0  0  0  0  0  0  0  0  0  0  0
   44.4800   28.4940   34.9310 C   0  0  0  0  0  0  0  0  0  0  0  0
   43.7760   29.3070   34.0010 C   0  0  0  0  0  0  0  0  0  0  0  0
   44.7410   30.9340   34.0800 S   0  0  0  0  0  0  0  0  0  0  0  0
   43.2276   33.1766   41.4258 H   0  0  0  0  0  0  0  0  0  0  0  0
   44.0169   36.7273   45.3352 H   0  0  0  0  0  0  0  0  0  0  0  0
   44.2161   36.1882   42.9015 H   0  0  0  0  0  0  0  0  0  0  0  0
   47.4535   31.9781   45.2585 H   0  0  0  0  0  0  0  0  0  0  0  0
   48.3401   30.3661   46.8559 H   0  0  0  0  0  0  0  0  0  0  0  0
   44.4867   32.5375   50.0391 H   0  0  0  0  0  0  0  0  0  0  0  0
   45.5159   31.2357   50.6939 H   0  0  0  0  0  0  0  0  0  0  0  0
   47.5173   34.4689   38.2179 H   0  0  0  0  0  0  0  0  0  0  0  0
   48.6044   34.6145   39.6434 H   0  0  0  0  0  0  0  0  0  0  0  0
   49.4919   32.6281   39.0103 H   0  0  0  0  0  0  0  0  0  0  0  0
   47.9794   31.8690   39.5478 H   0  0  0  0  0  0  0  0  0  0  0  0
   49.6219   33.6949   36.8440 H   0  0  0  0  0  0  0  0  0  0  0  0
   49.2068   33.3182   34.4318 H   0  0  0  0  0  0  0  0  0  0  0  0
   46.1282   28.5273   36.2610 H   0  0  0  0  0  0  0  0  0  0  0  0
   44.1893   27.4555   35.1477 H   0  0  0  0  0  0  0  0  0  0  0  0
   42.8957   29.0551   33.3914 H   0  0  0  0  0  0  0  0  0  0  0  0
  1  8  1  0
  2  1  2  0
  3  4  1  0
  3  2  1  0
  4  5  2  0
  5  1  1  0
  6 11  2  0
  7  6  1  0
  8  7  2  0
  8  9  1  0
  9 10  2  0
 10 11  1  0
 10 12  1  0
 12 17  1  0
 13 12  2  0
 13 14  1  0
 14 15  2  0
 15 16  1  0
 16 18  1  0
 17 16  2  0
 19  4  1  0
 20 19  1  0
 21 20  1  0
 22 21  2  0
 23 22  1  0
 24 23  2  0
 24 25  1  0
 25 26  2  0
 26 21  1  0
 27 28  2  0
 27 25  1  0
 29 28  1  0
 30 31  1  0
 30 29  2  0
 31 27  1  0
  2 32  1  0
  6 33  1  0
  7 34  1  0
 13 35  1  0
 14 36  1  0
 18 37  1  0
 18 38  1  0
 19 39  1  0
 19 40  1  0
 20 41  1  0
 20 42  1  0
 22 43  1  0
 23 44  1  0
 28 45  1  0
 29 46  1  0
 30 47  1  0
M  ISO  8  32  14  33  14  34  14  35  14  36  14  39   8  40   8  41   8
M  ISO  6  42   8  43  14  44  14  45  14  46  14  47  14
M  END
>  <minimizedAffinity>  (1) 
-6.27568483

>  <minimizedRMSD>  (1) 
0.631723225

$$$$
