
     RDKit          3D

 52 55  0  0  0  0  0  0  0  0999 V2000
   45.2610   33.9300   41.8250 C   0  0  0  0  0  0  0  0  0  0  0  0
   44.2040   33.4410   41.1110 C   0  0  0  0  0  0  0  0  0  0  0  0
   44.9880   33.2260   39.4300 S   0  0  0  0  0  0  0  0  0  0  0  0
   46.6350   33.8540   40.0310 C   0  0  0  0  0  0  0  0  0  0  0  0
   46.3800   34.0690   41.1330 N   0  0  0  0  0  0  0  0  0  0  0  0
   44.4740   35.7980   45.0080 C   0  0  0  0  0  0  0  0  0  0  0  0
   44.5740   35.4960   43.6550 C   0  0  0  0  0  0  0  0  0  0  0  0
   45.1430   34.2740   43.2690 C   0  0  0  0  0  0  0  0  0  0  0  0
   45.5700   33.4430   44.2320 N   0  0  0  0  0  0  0  0  0  0  0  0
   45.4650   33.7520   45.5400 C   0  0  0  0  0  0  0  0  0  0  0  0
   44.9250   34.9120   45.9110 N   0  0  0  0  0  0  0  0  0  0  0  0
   45.9440   32.8120   46.5320 C   0  0  0  0  0  0  0  0  0  0  0  0
   46.9940   31.9340   46.2340 C   0  0  0  0  0  0  0  0  0  0  0  0
   47.5030   31.0180   47.1170 C   0  0  0  0  0  0  0  0  0  0  0  0
   46.9830   30.9430   48.3250 N   0  0  0  0  0  0  0  0  0  0  0  0
   45.9630   31.7840   48.6380 C   0  0  0  0  0  0  0  0  0  0  0  0
   45.4350   32.7140   47.7700 N   0  0  0  0  0  0  0  0  0  0  0  0
   45.2570   31.8640   49.9020 N   0  0  0  0  0  0  0  0  0  0  0  0
   47.7770   33.9450   39.1250 C   0  0  0  0  0  0  0  0  0  0  0  0
   48.3020   32.5700   38.8210 C   0  0  0  0  0  0  0  0  0  0  0  0
   47.9770   32.3050   37.3720 C   0  0  0  0  0  0  0  0  0  0  0  0
   48.8140   32.9660   36.4840 C   0  0  0  0  0  0  0  0  0  0  0  0
   48.5670   32.7640   35.1430 C   0  0  0  0  0  0  0  0  0  0  0  0
   47.5930   31.9900   34.7150 N   0  0  0  0  0  0  0  0  0  0  0  0
   46.7890   31.3570   35.5970 C   0  0  0  0  0  0  0  0  0  0  0  0
   47.0070   31.5340   36.9010 N   0  0  0  0  0  0  0  0  0  0  0  0
   45.6950   30.4870   35.1200 C   0  0  0  0  0  0  0  0  0  0  0  0
   45.7680   29.0760   35.6810 C   0  0  0  0  0  0  0  0  0  0  0  0
   45.6670   30.3680   33.6110 C   0  0  0  0  0  0  0  0  0  0  0  0
   44.3650   31.0510   35.6250 C   0  0  0  0  0  0  0  0  0  0  0  0
   43.1744   33.2316   41.4367 H   0  0  0  0  0  0  0  0  0  0  0  0
   44.0312   36.7504   45.3350 H   0  0  0  0  0  0  0  0  0  0  0  0
   44.2116   36.2062   42.8972 H   0  0  0  0  0  0  0  0  0  0  0  0
   47.4376   31.9829   45.2286 H   0  0  0  0  0  0  0  0  0  0  0  0
   48.3313   30.3569   46.8222 H   0  0  0  0  0  0  0  0  0  0  0  0
   44.4949   32.5460   50.0239 H   0  0  0  0  0  0  0  0  0  0  0  0
   45.5176   31.2388   50.6779 H   0  0  0  0  0  0  0  0  0  0  0  0
   47.4620   34.4299   38.1892 H   0  0  0  0  0  0  0  0  0  0  0  0
   48.5711   34.5375   39.6029 H   0  0  0  0  0  0  0  0  0  0  0  0
   49.3898   32.5335   38.9804 H   0  0  0  0  0  0  0  0  0  0  0  0
   47.8477   31.8137   39.4780 H   0  0  0  0  0  0  0  0  0  0  0  0
   49.6305   33.6161   36.8315 H   0  0  0  0  0  0  0  0  0  0  0  0
   49.2073   33.2681   34.4041 H   0  0  0  0  0  0  0  0  0  0  0  0
   45.7658   29.1179   36.7802 H   0  0  0  0  0  0  0  0  0  0  0  0
   44.8985   28.4982   35.3344 H   0  0  0  0  0  0  0  0  0  0  0  0
   46.6924   28.5910   35.3344 H   0  0  0  0  0  0  0  0  0  0  0  0
   45.4235   29.3330   33.3293 H   0  0  0  0  0  0  0  0  0  0  0  0
   44.9043   31.0480   33.2037 H   0  0  0  0  0  0  0  0  0  0  0  0
   46.6529   30.6366   33.2037 H   0  0  0  0  0  0  0  0  0  0  0  0
   44.3614   31.0525   36.7250 H   0  0  0  0  0  0  0  0  0  0  0  0
   44.2394   32.0798   35.2565 H   0  0  0  0  0  0  0  0  0  0  0  0
   43.5382   30.4261   35.2565 H   0  0  0  0  0  0  0  0  0  0  0  0
  1  8  1  0
  2  1  2  0
  3  4  1  0
  3  2  1  0
  4  5  2  0
  5  1  1  0
  6 11  2  0
  7  6  1  0
  8  7  2  0
  8  9  1  0
  9 10  2  0
 10 11  1  0
 10 12  1  0
 12 17  1  0
 13 12  2  0
 13 14  1  0
 14 15  2  0
 15 16  1  0
 16 18  1  0
 17 16  2  0
 19  4  1  0
 20 19  1  0
 21 20  1  0
 22 21  2  0
 23 22  1  0
 24 23  2  0
 24 25  1  0
 25 26  2  0
 26 21  1  0
 27 25  1  0
 27 30  1  0
 27 28  1  0
 29 27  1  0
  2 31  1  0
  6 32  1  0
  7 33  1  0
 13 34  1  0
 14 35  1  0
 18 36  1  0
 18 37  1  0
 19 38  1  0
 19 39  1  0
 20 40  1  0
 20 41  1  0
 22 42  1  0
 23 43  1  0
 28 44  1  0
 28 45  1  0
 28 46  1  0
 29 47  1  0
 29 48  1  0
 29 49  1  0
 30 50  1  0
 30 51  1  0
 30 52  1  0
M  ISO  8  31  14  32  14  33  14  34  14  35  14  38   8  39   8  40   8
M  ISO  8  41   8  42  14  43  14  44   8  45   8  46   8  47   8  48   8
M  ISO  4  49   8  50   8  51   8  52   8
M  END
>  <minimizedAffinity>  (1) 
-6.18238449

>  <minimizedRMSD>  (1) 
0.626896083

$$$$
