
     RDKit          3D

 42 45  0  0  0  0  0  0  0  0999 V2000
   45.4070   33.9100   41.8430 C   0  0  0  0  0  0  0  0  0  0  0  0
   44.4060   33.3550   41.0990 C   0  0  0  0  0  0  0  0  0  0  0  0
   45.2350   33.1850   39.4340 S   0  0  0  0  0  0  0  0  0  0  0  0
   46.8220   33.9180   40.0850 C   0  0  0  0  0  0  0  0  0  0  0  0
   46.5330   34.1200   41.1780 N   0  0  0  0  0  0  0  0  0  0  0  0
   44.4610   35.7460   45.0030 C   0  0  0  0  0  0  0  0  0  0  0  0
   44.6130   35.4520   43.6470 C   0  0  0  0  0  0  0  0  0  0  0  0
   45.2310   34.2490   43.2750 C   0  0  0  0  0  0  0  0  0  0  0  0
   45.6490   33.4310   44.2530 N   0  0  0  0  0  0  0  0  0  0  0  0
   45.4880   33.7420   45.5620 C   0  0  0  0  0  0  0  0  0  0  0  0
   44.9090   34.8710   45.9240 N   0  0  0  0  0  0  0  0  0  0  0  0
   45.9770   32.7870   46.5570 C   0  0  0  0  0  0  0  0  0  0  0  0
   47.0190   31.9160   46.2840 C   0  0  0  0  0  0  0  0  0  0  0  0
   47.5100   31.0070   47.1760 C   0  0  0  0  0  0  0  0  0  0  0  0
   46.9780   30.9370   48.3710 N   0  0  0  0  0  0  0  0  0  0  0  0
   45.9490   31.7800   48.6760 C   0  0  0  0  0  0  0  0  0  0  0  0
   45.4400   32.6990   47.7970 N   0  0  0  0  0  0  0  0  0  0  0  0
   45.2310   31.8610   49.9300 N   0  0  0  0  0  0  0  0  0  0  0  0
   47.9900   34.0880   39.2130 C   0  0  0  0  0  0  0  0  0  0  0  0
   48.6570   32.7670   38.9890 C   0  0  0  0  0  0  0  0  0  0  0  0
   48.3370   32.3690   37.5700 C   0  0  0  0  0  0  0  0  0  0  0  0
   48.8320   33.2490   36.6200 C   0  0  0  0  0  0  0  0  0  0  0  0
   48.5610   32.9270   35.3010 C   0  0  0  0  0  0  0  0  0  0  0  0
   47.8770   31.8550   34.9590 N   0  0  0  0  0  0  0  0  0  0  0  0
   47.4050   31.0140   35.9130 C   0  0  0  0  0  0  0  0  0  0  0  0
   47.6490   31.2960   37.1870 N   0  0  0  0  0  0  0  0  0  0  0  0
   46.6540   29.8230   35.6980 N   0  0  0  0  0  0  0  0  0  0  0  0
   43.3840   33.0810   41.3998 H   0  0  0  0  0  0  0  0  0  0  0  0
   43.9796   36.6840   45.3168 H   0  0  0  0  0  0  0  0  0  0  0  0
   44.2531   36.1541   42.8806 H   0  0  0  0  0  0  0  0  0  0  0  0
   47.4795   31.9597   45.2860 H   0  0  0  0  0  0  0  0  0  0  0  0
   48.3406   30.3427   46.8954 H   0  0  0  0  0  0  0  0  0  0  0  0
   44.4669   32.5424   50.0428 H   0  0  0  0  0  0  0  0  0  0  0  0
   45.4841   31.2373   50.7096 H   0  0  0  0  0  0  0  0  0  0  0  0
   47.6661   34.5013   38.2464 H   0  0  0  0  0  0  0  0  0  0  0  0
   48.7021   34.7758   39.6925 H   0  0  0  0  0  0  0  0  0  0  0  0
   49.7448   32.8617   39.1224 H   0  0  0  0  0  0  0  0  0  0  0  0
   48.3025   32.0123   39.7065 H   0  0  0  0  0  0  0  0  0  0  0  0
   49.4042   34.1468   36.8968 H   0  0  0  0  0  0  0  0  0  0  0  0
   48.9316   33.5928   34.5076 H   0  0  0  0  0  0  0  0  0  0  0  0
   46.3449   29.2571   36.5011 H   0  0  0  0  0  0  0  0  0  0  0  0
   46.4200   29.5277   34.7394 H   0  0  0  0  0  0  0  0  0  0  0  0
  1  8  1  0
  2  1  2  0
  3  4  1  0
  3  2  1  0
  4  5  2  0
  5  1  1  0
  6 11  2  0
  7  6  1  0
  8  7  2  0
  8  9  1  0
  9 10  2  0
 10 11  1  0
 10 12  1  0
 12 17  1  0
 13 12  2  0
 13 14  1  0
 14 15  2  0
 15 16  1  0
 16 18  1  0
 17 16  2  0
 19  4  1  0
 20 19  1  0
 21 20  1  0
 22 21  2  0
 23 22  1  0
 24 23  2  0
 24 25  1  0
 25 26  2  0
 26 21  1  0
 27 25  1  0
  2 28  1  0
  6 29  1  0
  7 30  1  0
 13 31  1  0
 14 32  1  0
 18 33  1  0
 18 34  1  0
 19 35  1  0
 19 36  1  0
 20 37  1  0
 20 38  1  0
 22 39  1  0
 23 40  1  0
 27 41  1  0
 27 42  1  0
M  ISO  8  28  14  29  14  30  14  31  14  32  14  35   8  36   8  37   8
M  ISO  3  38   8  39  14  40  14
M  END
>  <minimizedAffinity>  (1) 
-6.11184502

>  <minimizedRMSD>  (1) 
0.0321593732

$$$$
