
     RDKit          3D

 43 46  0  0  0  0  0  0  0  0999 V2000
   45.4100   33.9100   41.8380 C   0  0  0  0  0  0  0  0  0  0  0  0
   44.4120   33.3540   41.0960 C   0  0  0  0  0  0  0  0  0  0  0  0
   45.2530   33.1910   39.4340 S   0  0  0  0  0  0  0  0  0  0  0  0
   46.8370   33.9280   40.0840 C   0  0  0  0  0  0  0  0  0  0  0  0
   46.5360   34.1220   41.1740 N   0  0  0  0  0  0  0  0  0  0  0  0
   44.4620   35.7480   45.0030 C   0  0  0  0  0  0  0  0  0  0  0  0
   44.6190   35.4500   43.6440 C   0  0  0  0  0  0  0  0  0  0  0  0
   45.2340   34.2450   43.2740 C   0  0  0  0  0  0  0  0  0  0  0  0
   45.6520   33.4210   44.2560 N   0  0  0  0  0  0  0  0  0  0  0  0
   45.4890   33.7290   45.5620 C   0  0  0  0  0  0  0  0  0  0  0  0
   44.9070   34.8700   45.9220 N   0  0  0  0  0  0  0  0  0  0  0  0
   45.9630   32.7960   46.5650 C   0  0  0  0  0  0  0  0  0  0  0  0
   47.0200   31.9230   46.2880 C   0  0  0  0  0  0  0  0  0  0  0  0
   47.5170   31.0160   47.1900 C   0  0  0  0  0  0  0  0  0  0  0  0
   46.9800   30.9500   48.3840 N   0  0  0  0  0  0  0  0  0  0  0  0
   45.9530   31.7870   48.6750 C   0  0  0  0  0  0  0  0  0  0  0  0
   45.4360   32.7040   47.7930 N   0  0  0  0  0  0  0  0  0  0  0  0
   45.2360   31.8620   49.9300 N   0  0  0  0  0  0  0  0  0  0  0  0
   47.9910   34.0930   39.2110 C   0  0  0  0  0  0  0  0  0  0  0  0
   48.6700   32.7730   38.9870 C   0  0  0  0  0  0  0  0  0  0  0  0
   48.3430   32.3570   37.5750 C   0  0  0  0  0  0  0  0  0  0  0  0
   48.8210   33.2440   36.6210 C   0  0  0  0  0  0  0  0  0  0  0  0
   48.5540   32.9220   35.3080 C   0  0  0  0  0  0  0  0  0  0  0  0
   47.8850   31.8360   34.9720 N   0  0  0  0  0  0  0  0  0  0  0  0
   47.4350   30.9940   35.9180 C   0  0  0  0  0  0  0  0  0  0  0  0
   47.6790   31.2820   37.1970 N   0  0  0  0  0  0  0  0  0  0  0  0
   46.6820   29.7700   35.5740 C   0  0  0  0  0  0  0  0  0  0  0  0
   43.3900   33.0766   41.3935 H   0  0  0  0  0  0  0  0  0  0  0  0
   43.9816   36.6868   45.3158 H   0  0  0  0  0  0  0  0  0  0  0  0
   44.2642   36.1526   42.8756 H   0  0  0  0  0  0  0  0  0  0  0  0
   47.4795   31.9659   45.2895 H   0  0  0  0  0  0  0  0  0  0  0  0
   48.3524   30.3551   46.9155 H   0  0  0  0  0  0  0  0  0  0  0  0
   44.4676   32.5383   50.0445 H   0  0  0  0  0  0  0  0  0  0  0  0
   45.4942   31.2391   50.7086 H   0  0  0  0  0  0  0  0  0  0  0  0
   47.6590   34.4986   38.2439 H   0  0  0  0  0  0  0  0  0  0  0  0
   48.7024   34.7843   39.6864 H   0  0  0  0  0  0  0  0  0  0  0  0
   49.7579   32.8798   39.1093 H   0  0  0  0  0  0  0  0  0  0  0  0
   48.3266   32.0210   39.7127 H   0  0  0  0  0  0  0  0  0  0  0  0
   49.3799   34.1505   36.8965 H   0  0  0  0  0  0  0  0  0  0  0  0
   48.9109   33.5934   34.5131 H   0  0  0  0  0  0  0  0  0  0  0  0
   46.3686   29.2606   36.4972 H   0  0  0  0  0  0  0  0  0  0  0  0
   45.7934   30.0397   34.9843 H   0  0  0  0  0  0  0  0  0  0  0  0
   47.3234   29.0985   34.9843 H   0  0  0  0  0  0  0  0  0  0  0  0
  1  8  1  0
  2  1  2  0
  3  4  1  0
  3  2  1  0
  4  5  2  0
  5  1  1  0
  6 11  2  0
  7  6  1  0
  8  7  2  0
  8  9  1  0
  9 10  2  0
 10 11  1  0
 10 12  1  0
 12 17  1  0
 13 12  2  0
 13 14  1  0
 14 15  2  0
 15 16  1  0
 16 18  1  0
 17 16  2  0
 19  4  1  0
 20 19  1  0
 21 20  1  0
 22 21  2  0
 23 22  1  0
 24 23  2  0
 24 25  1  0
 25 26  2  0
 26 21  1  0
 27 25  1  0
  2 28  1  0
  6 29  1  0
  7 30  1  0
 13 31  1  0
 14 32  1  0
 18 33  1  0
 18 34  1  0
 19 35  1  0
 19 36  1  0
 20 37  1  0
 20 38  1  0
 22 39  1  0
 23 40  1  0
 27 41  1  0
 27 42  1  0
 27 43  1  0
M  ISO  8  28  14  29  14  30  14  31  14  32  14  35   8  36   8  37   8
M  ISO  6  38   8  39  14  40  14  41   8  42   8  43   8
M  END
>  <minimizedAffinity>  (1) 
-6.1116972

>  <minimizedRMSD>  (1) 
0.0257912595

$$$$
