
     RDKit          3D

 47 51  0  0  0  0  0  0  0  0999 V2000
   45.2530   33.9350   41.8280 C   0  0  0  0  0  0  0  0  0  0  0  0
   44.1970   33.4530   41.1080 C   0  0  0  0  0  0  0  0  0  0  0  0
   44.9550   33.2260   39.4290 S   0  0  0  0  0  0  0  0  0  0  0  0
   46.6090   33.8440   40.0280 C   0  0  0  0  0  0  0  0  0  0  0  0
   46.3620   34.0620   41.1280 N   0  0  0  0  0  0  0  0  0  0  0  0
   44.4760   35.8040   45.0060 C   0  0  0  0  0  0  0  0  0  0  0  0
   44.5720   35.5040   43.6530 C   0  0  0  0  0  0  0  0  0  0  0  0
   45.1390   34.2800   43.2650 C   0  0  0  0  0  0  0  0  0  0  0  0
   45.5670   33.4450   44.2270 N   0  0  0  0  0  0  0  0  0  0  0  0
   45.4600   33.7640   45.5390 C   0  0  0  0  0  0  0  0  0  0  0  0
   44.9270   34.9160   45.9120 N   0  0  0  0  0  0  0  0  0  0  0  0
   45.9400   32.8210   46.5300 C   0  0  0  0  0  0  0  0  0  0  0  0
   46.9890   31.9410   46.2340 C   0  0  0  0  0  0  0  0  0  0  0  0
   47.4970   31.0240   47.1160 C   0  0  0  0  0  0  0  0  0  0  0  0
   46.9820   30.9490   48.3240 N   0  0  0  0  0  0  0  0  0  0  0  0
   45.9660   31.7930   48.6290 C   0  0  0  0  0  0  0  0  0  0  0  0
   45.4360   32.7200   47.7730 N   0  0  0  0  0  0  0  0  0  0  0  0
   45.2690   31.8660   49.9000 N   0  0  0  0  0  0  0  0  0  0  0  0
   47.7590   33.9270   39.1180 C   0  0  0  0  0  0  0  0  0  0  0  0
   48.2260   32.5480   38.7590 C   0  0  0  0  0  0  0  0  0  0  0  0
   47.9050   32.3580   37.2970 C   0  0  0  0  0  0  0  0  0  0  0  0
   48.8440   32.9190   36.4410 C   0  0  0  0  0  0  0  0  0  0  0  0
   48.6130   32.7830   35.0970 C   0  0  0  0  0  0  0  0  0  0  0  0
   47.5460   32.1480   34.6270 N   0  0  0  0  0  0  0  0  0  0  0  0
   46.6520   31.6150   35.4730 C   0  0  0  0  0  0  0  0  0  0  0  0
   46.8600   31.7360   36.7860 N   0  0  0  0  0  0  0  0  0  0  0  0
   45.4260   30.8840   35.0220 C   0  0  0  0  0  0  0  0  0  0  0  0
   45.3430   30.3640   33.6380 C   0  0  0  0  0  0  0  0  0  0  0  0
   45.6050   29.3970   34.7340 C   0  0  0  0  0  0  0  0  0  0  0  0
   43.1668   33.2520   41.4371 H   0  0  0  0  0  0  0  0  0  0  0  0
   44.0360   36.7574   45.3338 H   0  0  0  0  0  0  0  0  0  0  0  0
   44.2089   36.2154   42.8966 H   0  0  0  0  0  0  0  0  0  0  0  0
   47.4333   31.9894   45.2289 H   0  0  0  0  0  0  0  0  0  0  0  0
   48.3227   30.3608   46.8186 H   0  0  0  0  0  0  0  0  0  0  0  0
   44.5066   32.5460   50.0309 H   0  0  0  0  0  0  0  0  0  0  0  0
   45.5368   31.2378   50.6710 H   0  0  0  0  0  0  0  0  0  0  0  0
   47.4626   34.4614   38.2034 H   0  0  0  0  0  0  0  0  0  0  0  0
   48.5769   34.4682   39.6162 H   0  0  0  0  0  0  0  0  0  0  0  0
   49.3095   32.4576   38.9257 H   0  0  0  0  0  0  0  0  0  0  0  0
   47.7319   31.7852   39.3787 H   0  0  0  0  0  0  0  0  0  0  0  0
   49.7301   33.4469   36.8233 H   0  0  0  0  0  0  0  0  0  0  0  0
   49.3337   33.2131   34.3859 H   0  0  0  0  0  0  0  0  0  0  0  0
   44.7660   31.5121   35.6384 H   0  0  0  0  0  0  0  0  0  0  0  0
   46.1405   30.6009   32.9184 H   0  0  0  0  0  0  0  0  0  0  0  0
   44.5909   30.4305   32.8380 H   0  0  0  0  0  0  0  0  0  0  0  0
   44.8285   28.6781   35.0346 H   0  0  0  0  0  0  0  0  0  0  0  0
   46.3784   28.6445   34.9475 H   0  0  0  0  0  0  0  0  0  0  0  0
  1  8  1  0
  2  1  2  0
  3  4  1  0
  3  2  1  0
  4  5  2  0
  5  1  1  0
  6 11  2  0
  7  6  1  0
  8  7  2  0
  8  9  1  0
  9 10  2  0
 10 11  1  0
 10 12  1  0
 12 17  1  0
 13 12  2  0
 13 14  1  0
 14 15  2  0
 15 16  1  0
 16 18  1  0
 17 16  2  0
 19  4  1  0
 20 19  1  0
 21 20  1  0
 22 21  2  0
 23 22  1  0
 24 23  2  0
 24 25  1  0
 25 26  2  0
 26 21  1  0
 27 25  1  0
 28 29  1  0
 28 27  1  0
 29 27  1  0
  2 30  1  0
  6 31  1  0
  7 32  1  0
 13 33  1  0
 14 34  1  0
 18 35  1  0
 18 36  1  0
 19 37  1  0
 19 38  1  0
 20 39  1  0
 20 40  1  0
 22 41  1  0
 23 42  1  0
 27 43  1  0
 28 44  1  0
 28 45  1  0
 29 46  1  0
 29 47  1  0
M  ISO  8  30  14  31  14  32  14  33  14  34  14  37   8  38   8  39   8
M  ISO  8  40   8  41  14  42  14  43  13  44  13  45  13  46  13  47  13
M  END
>  <minimizedAffinity>  (1) 
-6.09687471

>  <minimizedRMSD>  (1) 
0.924149871

$$$$
