
     RDKit          3D

 43 46  0  0  0  0  0  0  0  0999 V2000
   45.3960   33.9170   41.8450 C   0  0  0  0  0  0  0  0  0  0  0  0
   44.3890   33.3690   41.1040 C   0  0  0  0  0  0  0  0  0  0  0  0
   45.2260   33.2040   39.4430 S   0  0  0  0  0  0  0  0  0  0  0  0
   46.8170   33.9280   40.0870 C   0  0  0  0  0  0  0  0  0  0  0  0
   46.5190   34.1230   41.1810 N   0  0  0  0  0  0  0  0  0  0  0  0
   44.4640   35.7540   45.0100 C   0  0  0  0  0  0  0  0  0  0  0  0
   44.6150   35.4580   43.6570 C   0  0  0  0  0  0  0  0  0  0  0  0
   45.2250   34.2520   43.2850 C   0  0  0  0  0  0  0  0  0  0  0  0
   45.6400   33.4290   44.2610 N   0  0  0  0  0  0  0  0  0  0  0  0
   45.4890   33.7240   45.5630 C   0  0  0  0  0  0  0  0  0  0  0  0
   44.9100   34.8710   45.9270 N   0  0  0  0  0  0  0  0  0  0  0  0
   45.9580   32.7970   46.5700 C   0  0  0  0  0  0  0  0  0  0  0  0
   47.0170   31.9250   46.2910 C   0  0  0  0  0  0  0  0  0  0  0  0
   47.5220   31.0170   47.1860 C   0  0  0  0  0  0  0  0  0  0  0  0
   46.9880   30.9450   48.3880 N   0  0  0  0  0  0  0  0  0  0  0  0
   45.9530   31.7870   48.6780 C   0  0  0  0  0  0  0  0  0  0  0  0
   45.4330   32.7030   47.7990 N   0  0  0  0  0  0  0  0  0  0  0  0
   45.2370   31.8620   49.9350 N   0  0  0  0  0  0  0  0  0  0  0  0
   47.9750   34.0900   39.2120 C   0  0  0  0  0  0  0  0  0  0  0  0
   48.6250   32.7580   38.9670 C   0  0  0  0  0  0  0  0  0  0  0  0
   48.2880   32.3690   37.5500 C   0  0  0  0  0  0  0  0  0  0  0  0
   48.8550   33.2080   36.5980 C   0  0  0  0  0  0  0  0  0  0  0  0
   48.5870   32.9100   35.2800 C   0  0  0  0  0  0  0  0  0  0  0  0
   47.8240   31.8720   34.9330 N   0  0  0  0  0  0  0  0  0  0  0  0
   47.2970   31.0870   35.8770 C   0  0  0  0  0  0  0  0  0  0  0  0
   47.5430   31.3550   37.1590 N   0  0  0  0  0  0  0  0  0  0  0  0
   46.4480   29.9310   35.4870 C   0  0  0  0  0  0  0  0  0  0  0  0
   46.8860   29.3630   34.2890 F   0  0  0  0  0  0  0  0  0  0  0  0
   46.4300   28.9570   36.4360 F   0  0  0  0  0  0  0  0  0  0  0  0
   45.1600   30.4070   35.2390 F   0  0  0  0  0  0  0  0  0  0  0  0
   43.3655   33.0988   41.4032 H   0  0  0  0  0  0  0  0  0  0  0  0
   43.9880   36.6940   45.3258 H   0  0  0  0  0  0  0  0  0  0  0  0
   44.2599   36.1621   42.8901 H   0  0  0  0  0  0  0  0  0  0  0  0
   47.4727   31.9711   45.2909 H   0  0  0  0  0  0  0  0  0  0  0  0
   48.3585   30.3602   46.9050 H   0  0  0  0  0  0  0  0  0  0  0  0
   44.4672   32.5367   50.0498 H   0  0  0  0  0  0  0  0  0  0  0  0
   45.4976   31.2406   50.7140 H   0  0  0  0  0  0  0  0  0  0  0  0
   47.6494   34.5183   38.2525 H   0  0  0  0  0  0  0  0  0  0  0  0
   48.7002   34.7621   39.6940 H   0  0  0  0  0  0  0  0  0  0  0  0
   49.7152   32.8393   39.0893 H   0  0  0  0  0  0  0  0  0  0  0  0
   48.2654   32.0034   39.6820 H   0  0  0  0  0  0  0  0  0  0  0  0
   49.4843   34.0644   36.8819 H   0  0  0  0  0  0  0  0  0  0  0  0
   49.0144   33.5462   34.4909 H   0  0  0  0  0  0  0  0  0  0  0  0
  1  8  1  0
  2  1  2  0
  3  4  1  0
  3  2  1  0
  4  5  2  0
  5  1  1  0
  6 11  2  0
  7  6  1  0
  8  7  2  0
  8  9  1  0
  9 10  2  0
 10 11  1  0
 10 12  1  0
 12 17  1  0
 13 12  2  0
 13 14  1  0
 14 15  2  0
 15 16  1  0
 16 18  1  0
 17 16  2  0
 19  4  1  0
 20 19  1  0
 21 20  1  0
 22 21  2  0
 23 22  1  0
 24 23  2  0
 24 25  1  0
 25 26  2  0
 26 21  1  0
 27 25  1  0
 27 29  1  0
 28 27  1  0
 30 27  1  0
  2 31  1  0
  6 32  1  0
  7 33  1  0
 13 34  1  0
 14 35  1  0
 18 36  1  0
 18 37  1  0
 19 38  1  0
 19 39  1  0
 20 40  1  0
 20 41  1  0
 22 42  1  0
 23 43  1  0
M  ISO  8  31  14  32  14  33  14  34  14  35  14  38   8  39   8  40   8
M  ISO  3  41   8  42  14  43  14
M  END
>  <minimizedAffinity>  (1) 
-6.06409883

>  <minimizedRMSD>  (1) 
0.149079591

$$$$
