
     RDKit          3D

 43 46  0  0  0  0  0  0  0  0999 V2000
   45.3950   33.9120   41.8410 C   0  0  0  0  0  0  0  0  0  0  0  0
   44.3870   33.3620   41.1060 C   0  0  0  0  0  0  0  0  0  0  0  0
   45.2140   33.1910   39.4400 S   0  0  0  0  0  0  0  0  0  0  0  0
   46.8090   33.9170   40.0780 C   0  0  0  0  0  0  0  0  0  0  0  0
   46.5210   34.1170   41.1710 N   0  0  0  0  0  0  0  0  0  0  0  0
   44.4650   35.7530   45.0020 C   0  0  0  0  0  0  0  0  0  0  0  0
   44.6150   35.4550   43.6530 C   0  0  0  0  0  0  0  0  0  0  0  0
   45.2260   34.2480   43.2790 C   0  0  0  0  0  0  0  0  0  0  0  0
   45.6440   33.4230   44.2560 N   0  0  0  0  0  0  0  0  0  0  0  0
   45.4890   33.7270   45.5560 C   0  0  0  0  0  0  0  0  0  0  0  0
   44.9120   34.8700   45.9180 N   0  0  0  0  0  0  0  0  0  0  0  0
   45.9610   32.7950   46.5640 C   0  0  0  0  0  0  0  0  0  0  0  0
   47.0200   31.9220   46.2850 C   0  0  0  0  0  0  0  0  0  0  0  0
   47.5230   31.0140   47.1820 C   0  0  0  0  0  0  0  0  0  0  0  0
   46.9910   30.9460   48.3790 N   0  0  0  0  0  0  0  0  0  0  0  0
   45.9590   31.7880   48.6750 C   0  0  0  0  0  0  0  0  0  0  0  0
   45.4390   32.7010   47.8010 N   0  0  0  0  0  0  0  0  0  0  0  0
   45.2420   31.8690   49.9310 N   0  0  0  0  0  0  0  0  0  0  0  0
   47.9620   34.0760   39.1960 C   0  0  0  0  0  0  0  0  0  0  0  0
   48.6130   32.7470   38.9520 C   0  0  0  0  0  0  0  0  0  0  0  0
   48.2790   32.3640   37.5320 C   0  0  0  0  0  0  0  0  0  0  0  0
   48.8530   33.1980   36.5820 C   0  0  0  0  0  0  0  0  0  0  0  0
   48.5860   32.9040   35.2650 C   0  0  0  0  0  0  0  0  0  0  0  0
   47.8280   31.8870   34.9120 N   0  0  0  0  0  0  0  0  0  0  0  0
   47.2790   31.0900   35.8520 C   0  0  0  0  0  0  0  0  0  0  0  0
   47.5240   31.3550   37.1360 N   0  0  0  0  0  0  0  0  0  0  0  0
   46.4370   29.9590   35.4820 C   0  0  0  0  0  0  0  0  0  0  0  0
   46.0800   29.7010   34.3010 O   0  0  0  0  0  0  0  0  0  0  0  0
   45.9620   29.0740   36.4330 O   0  0  0  0  0  0  0  0  0  0  0  0
   43.3651   33.0924   41.4110 H   0  0  0  0  0  0  0  0  0  0  0  0
   43.9896   36.6935   45.3174 H   0  0  0  0  0  0  0  0  0  0  0  0
   44.2584   36.1581   42.8859 H   0  0  0  0  0  0  0  0  0  0  0  0
   47.4765   31.9671   45.2852 H   0  0  0  0  0  0  0  0  0  0  0  0
   48.3578   30.3546   46.9023 H   0  0  0  0  0  0  0  0  0  0  0  0
   44.4747   32.5469   50.0432 H   0  0  0  0  0  0  0  0  0  0  0  0
   45.4995   31.2487   50.7119 H   0  0  0  0  0  0  0  0  0  0  0  0
   47.6302   34.4999   38.2367 H   0  0  0  0  0  0  0  0  0  0  0  0
   48.6888   34.7503   39.6725 H   0  0  0  0  0  0  0  0  0  0  0  0
   49.7027   32.8283   39.0779 H   0  0  0  0  0  0  0  0  0  0  0  0
   48.2536   31.9899   39.6645 H   0  0  0  0  0  0  0  0  0  0  0  0
   49.4882   34.0495   36.8676 H   0  0  0  0  0  0  0  0  0  0  0  0
   49.0206   33.5403   34.4800 H   0  0  0  0  0  0  0  0  0  0  0  0
   45.3915   28.3126   36.1594 H   0  0  0  0  0  0  0  0  0  0  0  0
  1  8  1  0
  2  1  2  0
  3  4  1  0
  3  2  1  0
  4  5  2  0
  5  1  1  0
  6 11  2  0
  7  6  1  0
  8  7  2  0
  8  9  1  0
  9 10  2  0
 10 11  1  0
 10 12  1  0
 12 17  1  0
 13 12  2  0
 13 14  1  0
 14 15  2  0
 15 16  1  0
 16 18  1  0
 17 16  2  0
 19  4  1  0
 20 19  1  0
 21 20  1  0
 22 21  2  0
 23 22  1  0
 24 23  2  0
 24 25  1  0
 25 26  2  0
 26 21  1  0
 27 25  1  0
 27 29  1  0
 28 27  2  0
  2 30  1  0
  6 31  1  0
  7 32  1  0
 13 33  1  0
 14 34  1  0
 18 35  1  0
 18 36  1  0
 19 37  1  0
 19 38  1  0
 20 39  1  0
 20 40  1  0
 22 41  1  0
 23 42  1  0
 29 43  1  0
M  ISO  8  30  14  31  14  32  14  33  14  34  14  37   8  38   8  39   8
M  ISO  4  40   8  41  14  42  14  43   3
M  END
>  <minimizedAffinity>  (1) 
-6.00536776

>  <minimizedRMSD>  (1) 
0.164566115

$$$$
