
     RDKit          3D

 16 16  0  0  0  0  0  0  0  0999 V2000
   45.1810   35.2250   44.0520 C   0  0  0  0  0  0  0  0  0  0  0  0
   46.2350   34.5740   43.3740 C   0  0  0  0  0  0  0  0  0  0  0  0
   46.9140   33.5580   44.0610 C   0  0  0  0  0  0  0  0  0  0  0  0
   46.5180   33.2660   45.3270 N   0  0  0  0  0  0  0  0  0  0  0  0
   45.5070   33.9070   45.9420 C   0  0  0  0  0  0  0  0  0  0  0  0
   44.8410   34.8800   45.3080 N   0  0  0  0  0  0  0  0  0  0  0  0
   46.5510   34.9950   42.0150 C   0  0  0  0  0  0  0  0  0  0  0  0
   48.0630   35.1880   41.9240 C   0  0  0  0  0  0  0  0  0  0  0  0
   44.6276   36.0288   43.5444 H   0  0  0  0  0  0  0  0  0  0  0  0
   47.7441   33.0127   43.5881 H   0  0  0  0  0  0  0  0  0  0  0  0
   45.2269   33.6305   46.9692 H   0  0  0  0  0  0  0  0  0  0  0  0
   46.2288   34.2235   41.3001 H   0  0  0  0  0  0  0  0  0  0  0  0
   46.0294   35.9327   41.7729 H   0  0  0  0  0  0  0  0  0  0  0  0
   48.4874   35.2422   42.9374 H   0  0  0  0  0  0  0  0  0  0  0  0
   48.5091   34.3395   41.3845 H   0  0  0  0  0  0  0  0  0  0  0  0
   48.2817   36.1213   41.3845 H   0  0  0  0  0  0  0  0  0  0  0  0
  1  6  2  0
  2  1  1  0
  2  3  2  0
  3  4  1  0
  4  5  2  0
  6  5  1  0
  7  2  1  0
  8  7  1  0
  1  9  1  0
  3 10  1  0
  5 11  1  0
  7 12  1  0
  7 13  1  0
  8 14  1  0
  8 15  1  0
  8 16  1  0
M  ISO  8   9  14  10  14  11  14  12   8  13   8  14   8  15   8  16   8
M  END
>  <minimizedAffinity>  (1) 
-3.02196288

>  <minimizedRMSD>  (1) 
1.38744295

$$$$
