
     RDKit          3D

 27 29  0  0  0  0  0  0  0  0999 V2000
   46.6140   34.7410   42.0990 C   0  0  0  0  0  0  0  0  0  0  0  0
   47.8860   35.2300   41.9950 C   0  0  0  0  0  0  0  0  0  0  0  0
   48.6420   35.1020   40.8270 C   0  0  0  0  0  0  0  0  0  0  0  0
   48.0810   34.4500   39.7190 C   0  0  0  0  0  0  0  0  0  0  0  0
   46.8050   33.9620   39.8290 C   0  0  0  0  0  0  0  0  0  0  0  0
   46.0980   34.1100   40.9970 C   0  0  0  0  0  0  0  0  0  0  0  0
   44.4500   36.0650   44.8780 C   0  0  0  0  0  0  0  0  0  0  0  0
   45.0720   36.0040   43.6240 C   0  0  0  0  0  0  0  0  0  0  0  0
   45.9130   34.9240   43.3520 C   0  0  0  0  0  0  0  0  0  0  0  0
   46.0880   33.9850   44.3110 N   0  0  0  0  0  0  0  0  0  0  0  0
   45.4680   34.0730   45.5190 C   0  0  0  0  0  0  0  0  0  0  0  0
   44.6540   35.1150   45.7900 N   0  0  0  0  0  0  0  0  0  0  0  0
   44.7750   33.5910   41.0740 N   0  0  0  0  0  0  0  0  0  0  0  0
   43.8260   34.3850   40.5000 C   0  0  0  0  0  0  0  0  0  0  0  0
   42.6060   33.7530   40.6540 C   0  0  0  0  0  0  0  0  0  0  0  0
   42.8290   32.6010   41.3090 N   0  0  0  0  0  0  0  0  0  0  0  0
   44.1450   32.5140   41.5580 C   0  0  0  0  0  0  0  0  0  0  0  0
   48.3301   35.7423   42.8612 H   0  0  0  0  0  0  0  0  0  0  0  0
   49.6635   35.5071   40.7770 H   0  0  0  0  0  0  0  0  0  0  0  0
   48.6508   34.3333   38.7853 H   0  0  0  0  0  0  0  0  0  0  0  0
   46.3429   33.4470   38.9738 H   0  0  0  0  0  0  0  0  0  0  0  0
   43.7842   36.9085   45.1129 H   0  0  0  0  0  0  0  0  0  0  0  0
   44.9016   36.7885   42.8720 H   0  0  0  0  0  0  0  0  0  0  0  0
   45.6306   33.2926   46.2770 H   0  0  0  0  0  0  0  0  0  0  0  0
   43.9997   35.3518   40.0049 H   0  0  0  0  0  0  0  0  0  0  0  0
   41.6316   34.1249   40.3045 H   0  0  0  0  0  0  0  0  0  0  0  0
   44.6339   31.6800   42.0828 H   0  0  0  0  0  0  0  0  0  0  0  0
  1  9  1  0
  2  1  2  0
  3  2  1  0
  4  5  1  0
  4  3  2  0
  5  6  2  0
  6 13  1  0
  6  1  1  0
  7 12  2  0
  8  7  1  0
  9  8  2  0
  9 10  1  0
 10 11  2  0
 11 12  1  0
 13 17  1  0
 14 15  2  0
 14 13  1  0
 15 16  1  0
 16 17  2  0
  2 18  1  0
  3 19  1  0
  4 20  1  0
  5 21  1  0
  7 22  1  0
  8 23  1  0
 11 24  1  0
 14 25  1  0
 15 26  1  0
 17 27  1  0
M  ISO  8  18  14  19  14  20  14  21  14  22  14  23  14  24  14  25  14
M  ISO  2  26  14  27  14
M  END
>  <minimizedAffinity>  (1) 
-5.45183945

>  <minimizedRMSD>  (1) 
0.424680203

$$$$
