
     RDKit          3D

 23 24  0  0  0  0  0  0  0  0999 V2000
   46.7010   34.6810   41.6760 C   0  0  0  0  0  0  0  0  0  0  0  0
   45.2480   35.9590   43.1670 C   0  0  0  0  0  0  0  0  0  0  0  0
   46.0460   34.8240   42.9570 C   0  0  0  0  0  0  0  0  0  0  0  0
   46.1440   33.9190   44.0080 C   0  0  0  0  0  0  0  0  0  0  0  0
   45.4820   34.1660   45.1600 N   0  0  0  0  0  0  0  0  0  0  0  0
   44.7160   35.2730   45.3390 C   0  0  0  0  0  0  0  0  0  0  0  0
   44.6000   36.1690   44.3380 N   0  0  0  0  0  0  0  0  0  0  0  0
   48.0440   35.4090   41.7540 C   0  0  0  0  0  0  0  0  0  0  0  0
   49.0680   34.3800   41.8130 N   0  0  0  0  0  0  0  0  0  0  0  0
   49.0290   33.2540   41.1160 N   0  0  0  0  0  0  0  0  0  0  0  0
   50.0990   32.4920   41.3640 C   0  0  0  0  0  0  0  0  0  0  0  0
   50.8980   33.1580   42.2860 C   0  0  0  0  0  0  0  0  0  0  0  0
   50.2030   34.3260   42.5260 C   0  0  0  0  0  0  0  0  0  0  0  0
   46.0790   35.1268   40.8858 H   0  0  0  0  0  0  0  0  0  0  0  0
   46.8534   33.6177   41.4388 H   0  0  0  0  0  0  0  0  0  0  0  0
   45.1458   36.6983   42.3589 H   0  0  0  0  0  0  0  0  0  0  0  0
   46.7548   33.0102   43.9028 H   0  0  0  0  0  0  0  0  0  0  0  0
   44.1942   35.4375   46.2933 H   0  0  0  0  0  0  0  0  0  0  0  0
   48.1878   36.0376   40.8629 H   0  0  0  0  0  0  0  0  0  0  0  0
   48.0895   36.0666   42.6346 H   0  0  0  0  0  0  0  0  0  0  0  0
   50.3102   31.5096   40.9166 H   0  0  0  0  0  0  0  0  0  0  0  0
   51.8547   32.8323   42.7202 H   0  0  0  0  0  0  0  0  0  0  0  0
   50.5381   35.1144   43.2160 H   0  0  0  0  0  0  0  0  0  0  0  0
  1  8  1  0
  1  3  1  0
  2  7  2  0
  3  2  1  0
  3  4  2  0
  4  5  1  0
  5  6  2  0
  7  6  1  0
  8  9  1  0
  9 13  1  0
 10 11  2  0
 10  9  1  0
 11 12  1  0
 12 13  2  0
  1 14  1  0
  1 15  1  0
  2 16  1  0
  4 17  1  0
  6 18  1  0
  8 19  1  0
  8 20  1  0
 11 21  1  0
 12 22  1  0
 13 23  1  0
M  ISO  8  14   8  15   8  16  14  17  14  18  14  19   8  20   8  21  14
M  ISO  2  22  14  23  14
M  END
>  <minimizedAffinity>  (1) 
-4.23546982

>  <minimizedRMSD>  (1) 
2.57581854

$$$$
