
 OpenBabel03232520553D

 30 31  0  0  1  0  0  0  0  0999 V2000
   46.1470   33.6900   45.3190 C   0  0  2  0  0  0  0  0  0  0  0  0
   44.9820   34.7390   45.4700 C   0  0  0  0  0  0  0  0  0  0  0  0
   44.7260   35.6180   44.3580 C   0  0  0  0  0  0  0  0  0  0  0  0
   45.5260   35.5190   43.1450 C   0  0  1  0  0  0  0  0  0  0  0  0
   46.6430   34.5600   43.1660 C   0  0  0  0  0  0  0  0  0  0  0  0
   46.1620   33.3280   43.9250 C   0  0  0  0  0  0  0  0  0  0  0  0
   46.9800   34.3990   45.6090 H   0  0  0  0  0  0  0  0  0  0  0  0
   44.2780   34.9950   46.2270 H   0  0  0  0  0  0  0  0  0  0  0  0
   43.9470   36.3630   44.3830 H   0  0  0  0  0  0  0  0  0  0  0  0
   45.9320   36.5390   42.8980 H   0  0  0  0  0  0  0  0  0  0  0  0
   46.9630   34.2980   42.1390 H   0  0  0  0  0  0  0  0  0  0  0  0
   47.5150   34.9500   43.7270 H   0  0  0  0  0  0  0  0  0  0  0  0
   45.0500   33.2490   43.6230 H   0  0  0  0  0  0  0  0  0  0  0  0
   46.5810   32.4900   43.4470 H   0  0  0  0  0  0  0  0  0  0  0  0
   45.1730   32.9110   47.4730 C   0  0  0  0  0  0  0  0  0  0  0  0
   45.9540   32.7200   46.3480 C   0  0  0  0  0  0  0  0  0  0  0  0
   46.5210   31.4440   46.1930 C   0  0  0  0  0  0  0  0  0  0  0  0
   46.2820   30.4920   47.1140 N   0  0  0  0  0  0  0  0  0  0  0  0
   45.5070   30.7160   48.2010 C   0  0  0  0  0  0  0  0  0  0  0  0
   44.9550   31.9090   48.3880 N   0  0  0  0  0  0  0  0  0  0  0  0
   45.3060   29.6490   49.1410 N   0  0  0  0  0  0  0  0  0  0  0  0
   44.7060   33.8580   47.6750 H   0  0  0  0  0  0  0  0  0  0  0  0
   45.3390   28.6420   48.8050 H   0  0  0  0  0  0  0  0  0  0  0  0
   45.1290   29.8470   50.1500 H   0  0  0  0  0  0  0  0  0  0  0  0
   47.4570   30.9440   45.1540 C   0  0  0  0  0  0  0  0  0  0  0  0
   48.2830   31.6380   44.8990 H   0  0  0  0  0  0  0  0  0  0  0  0
   44.5590   35.1730   41.9840 C   0  0  0  0  0  0  0  0  0  0  0  0
   43.5750   34.2910   42.3520 F   0  0  0  0  0  0  0  0  0  0  0  0
   43.9240   36.3620   41.6360 F   0  0  0  0  0  0  0  0  0  0  0  0
   45.2900   34.7600   40.8780 F   0  0  0  0  0  0  0  0  0  0  0  0
  1  2  1  0  0  0  0
  1  7  1  1  0  0  0
  1 16  1  0  0  0  0
  2  8  1  0  0  0  0
  3  9  1  0  0  0  0
  3  2  2  0  0  0  0
  4 10  1  6  0  0  0
  4  5  1  0  0  0  0
  4  3  1  0  0  0  0
  5 12  1  0  0  0  0
  5  6  1  0  0  0  0
  6  1  1  0  0  0  0
 11  5  1  0  0  0  0
 13  6  1  0  0  0  0
 14  6  1  0  0  0  0
 15 22  1  0  0  0  0
 15 20  1  0  0  0  0
 16 15  2  0  0  0  0
 17 16  1  0  0  0  0
 17 18  2  0  0  0  0
 18 19  1  0  0  0  0
 19 20  2  0  0  0  0
 19 21  1  0  0  0  0
 21 24  1  0  0  0  0
 23 21  1  0  0  0  0
 25 17  1  0  0  0  0
 26 25  1  0  0  0  0
 27 28  1  0  0  0  0
 27  4  1  0  0  0  0
 29 27  1  0  0  0  0
 30 27  1  0  0  0  0
M  END
>  <minimizedAffinity>
-5.6839118

>  <minimizedRMSD>
0.125691086

$$$$
