
 OpenBabel03232521003D

 41 44  0  0  1  0  0  0  0  0999 V2000
   45.3330   32.8930   47.5180 C   0  0  0  0  0  0  0  0  0  0  0  0
   45.8870   32.6330   46.3120 C   0  0  0  0  0  0  0  0  0  0  0  0
   46.1670   31.2900   46.0680 C   0  0  0  0  0  0  0  0  0  0  0  0
   45.9080   30.3060   46.9680 N   0  0  0  0  0  0  0  0  0  0  0  0
   45.3430   30.6350   48.1840 C   0  0  0  0  0  0  0  0  0  0  0  0
   45.0700   31.9030   48.4300 N   0  0  0  0  0  0  0  0  0  0  0  0
   45.1370   29.6140   49.1580 N   0  0  0  0  0  0  0  0  0  0  0  0
   45.0780   33.8990   47.8130 H   0  0  0  0  0  0  0  0  0  0  0  0
   44.3040   28.9840   49.1130 H   0  0  0  0  0  0  0  0  0  0  0  0
   45.7910   29.4300   49.9650 H   0  0  0  0  0  0  0  0  0  0  0  0
   46.1490   33.5850   45.2840 C   0  0  2  0  0  0  0  0  0  0  0  0
   44.9530   34.6890   45.5070 C   0  0  0  0  0  0  0  0  0  0  0  0
   44.7310   35.6180   44.4370 C   0  0  0  0  0  0  0  0  0  0  0  0
   45.5350   35.5380   43.2110 C   0  0  1  0  0  0  0  0  0  0  0  0
   46.5870   34.5330   43.1710 C   0  0  0  0  0  0  0  0  0  0  0  0
   46.1280   33.3020   43.9190 C   0  0  0  0  0  0  0  0  0  0  0  0
   46.9740   34.2850   45.6190 H   0  0  0  0  0  0  0  0  0  0  0  0
   44.2740   34.8570   46.3320 H   0  0  0  0  0  0  0  0  0  0  0  0
   43.9690   36.3480   44.5410 H   0  0  0  0  0  0  0  0  0  0  0  0
   45.9730   36.5340   42.9950 H   0  0  0  0  0  0  0  0  0  0  0  0
   46.8370   34.3120   42.0910 H   0  0  0  0  0  0  0  0  0  0  0  0
   47.5400   34.8590   43.6490 H   0  0  0  0  0  0  0  0  0  0  0  0
   46.9850   32.6510   43.5960 H   0  0  0  0  0  0  0  0  0  0  0  0
   45.1930   32.8820   43.4900 H   0  0  0  0  0  0  0  0  0  0  0  0
   44.5210   35.2780   42.0600 C   0  0  0  0  0  0  0  0  0  0  0  0
   43.4600   34.4780   42.4520 F   0  0  0  0  0  0  0  0  0  0  0  0
   43.9800   36.5160   41.7240 F   0  0  0  0  0  0  0  0  0  0  0  0
   45.1980   34.8180   40.9460 F   0  0  0  0  0  0  0  0  0  0  0  0
   46.7950   30.5900   44.9620 C   0  0  0  0  0  0  0  0  0  0  0  0
   46.4400   29.8160   43.9040 C   0  0  0  0  0  0  0  0  0  0  0  0
   47.6160   29.4330   43.2390 C   0  0  0  0  0  0  0  0  0  0  0  0
   48.6150   29.9890   43.9230 N   0  0  0  0  0  0  0  0  0  0  0  0
   48.1570   30.6770   44.9460 N   0  0  0  0  0  0  0  0  0  0  0  0
   45.3910   29.6350   43.7540 H   0  0  0  0  0  0  0  0  0  0  0  0
   47.5630   28.8090   42.3640 H   0  0  0  0  0  0  0  0  0  0  0  0
   50.0010   29.8200   43.5390 C   0  0  0  0  0  0  0  0  0  0  0  0
   50.5440   30.1230   42.2840 C   0  0  0  0  0  3  0  0  0  0  0  0
   52.3360   29.6450   42.5610 S   0  0  0  0  0  0  0  0  0  0  0  0
   51.9650   29.1270   44.3480 C   0  0  0  0  0  0  0  0  0  0  0  0
   52.7910   28.7540   44.9290 H   0  0  0  0  0  0  0  0  0  0  0  0
   50.7570   29.3350   44.5030 N   0  0  0  0  0  0  0  0  0  0  0  0
  1  8  1  0  0  0  0
  1  6  1  0  0  0  0
  2  1  2  0  0  0  0
  3  2  1  0  0  0  0
  3  4  2  0  0  0  0
  4  5  1  0  0  0  0
  5  6  2  0  0  0  0
  5  7  1  0  0  0  0
  7 10  1  0  0  0  0
  9  7  1  0  0  0  0
 11 12  1  0  0  0  0
 11 17  1  1  0  0  0
 11  2  1  0  0  0  0
 12 18  1  0  0  0  0
 13 19  1  0  0  0  0
 13 12  2  0  0  0  0
 14 20  1  6  0  0  0
 14 13  1  0  0  0  0
 15 14  1  0  0  0  0
 15 22  1  0  0  0  0
 15 16  1  0  0  0  0
 16 11  1  0  0  0  0
 21 15  1  0  0  0  0
 23 16  1  0  0  0  0
 24 16  1  0  0  0  0
 25 26  1  0  0  0  0
 25 14  1  0  0  0  0
 27 25  1  0  0  0  0
 28 25  1  0  0  0  0
 29  3  1  0  0  0  0
 30 29  1  0  0  0  0
 31 30  2  0  0  0  0
 31 32  1  0  0  0  0
 32 33  1  0  0  0  0
 33 29  2  0  0  0  0
 34 30  1  0  0  0  0
 35 31  1  0  0  0  0
 36 32  1  0  0  0  0
 36 41  1  0  0  0  0
 37 38  1  0  0  0  0
 37 36  2  0  0  0  0
 38 39  1  0  0  0  0
 39 41  2  0  0  0  0
 39 40  1  0  0  0  0
M  END
>  <minimizedAffinity>
-5.70808792

>  <minimizedRMSD>
0.204943761

$$$$
