
 OpenBabel03232520403D

 25 27  0  0  0  0  0  0  0  0999 V2000
   43.5240   31.5830   42.3510 C   0  0  0  0  0  0  0  0  0  0  0  0
   42.4310   32.2380   41.7680 C   0  0  0  0  0  0  0  0  0  0  0  0
   42.6420   33.4140   41.0860 C   0  0  0  0  0  0  0  0  0  0  0  0
   43.9060   33.9270   40.9870 N   0  0  0  0  0  0  0  0  0  0  0  0
   44.9360   33.2510   41.5720 C   0  0  0  0  0  0  0  0  0  0  0  0
   44.7590   32.0920   42.2500 N   0  0  0  0  0  0  0  0  0  0  0  0
   43.3610   30.6510   42.8930 H   0  0  0  0  0  0  0  0  0  0  0  0
   41.8280   33.9570   40.6180 H   0  0  0  0  0  0  0  0  0  0  0  0
   46.3200   33.7460   41.5050 C   0  0  0  0  0  0  0  0  0  0  0  0
   46.6670   34.9330   42.0880 C   0  0  0  0  0  0  0  0  0  0  0  0
   47.9430   35.4540   42.0630 C   0  0  0  0  0  0  0  0  0  0  0  0
   48.9410   34.7590   41.4220 C   0  0  0  0  0  0  0  0  0  0  0  0
   48.5660   33.5650   40.8420 C   0  0  0  0  0  0  0  0  0  0  0  0
   47.3080   33.0670   40.8760 N   0  0  0  0  0  0  0  0  0  0  0  0
   45.8600   35.4760   42.5960 H   0  0  0  0  0  0  0  0  0  0  0  0
   48.0730   36.4030   42.5660 H   0  0  0  0  0  0  0  0  0  0  0  0
   49.9270   35.1560   41.4000 H   0  0  0  0  0  0  0  0  0  0  0  0
   49.3290   32.9870   40.3250 H   0  0  0  0  0  0  0  0  0  0  0  0
   40.7480   31.5480   41.9040 S   0  0  0  0  0  0  0  0  0  0  0  0
   39.7210   32.3110   40.6420 C   0  0  0  0  0  0  0  0  0  0  0  0
   39.6960   31.6070   39.4150 C   0  0  0  0  0  0  0  0  0  0  0  0
   38.5480   32.6720   38.3540 S   0  0  0  0  0  0  0  0  0  0  0  0
   38.3430   33.8610   39.8180 C   0  0  0  0  0  0  0  0  0  0  0  0
   37.7710   34.9020   40.1360 H   0  0  0  0  0  0  0  0  0  0  0  0
   38.9750   33.4120   40.6300 N   0  0  0  0  0  0  0  0  0  0  0  0
  1  7  1  0  0  0  0
  2 19  1  0  0  0  0
  2  1  2  0  0  0  0
  3  2  1  0  0  0  0
  4  3  2  0  0  0  0
  4  5  1  0  0  0  0
  5  6  2  0  0  0  0
  6  1  1  0  0  0  0
  8  3  1  0  0  0  0
  9  5  1  0  0  0  0
  9 10  1  0  0  0  0
 10 15  1  0  0  0  0
 11 10  2  0  0  0  0
 11 16  1  0  0  0  0
 12 11  1  0  0  0  0
 13 14  1  0  0  0  0
 13 12  2  0  0  0  0
 14  9  2  0  0  0  0
 17 12  1  0  0  0  0
 18 13  1  0  0  0  0
 20 19  1  0  0  0  0
 21 20  2  0  0  0  0
 22 21  1  0  0  0  0
 22 23  1  0  0  0  0
 23 24  1  0  0  0  0
 23 25  2  0  0  0  0
 25 20  1  0  0  0  0
M  END
>  <minimizedAffinity>
-4.03118515

>  <minimizedRMSD>
3.58953547

$$$$
