
 OpenBabel03232518243D

 16 17  0  0  0  0  0  0  0  0999 V2000
   44.5010   35.9530   44.5090 C   0  0  0  0  0  0  0  0  0  0  0  0
   45.1850   35.9370   43.2710 C   0  0  0  0  0  0  0  0  0  0  0  0
   46.1520   34.9290   43.0680 C   0  0  0  0  0  0  0  0  0  0  0  0
   46.3710   34.0300   44.0730 N   0  0  0  0  0  0  0  0  0  0  0  0
   45.6860   34.1020   45.2260 C   0  0  0  0  0  0  0  0  0  0  0  0
   44.7670   35.0380   45.4530 N   0  0  0  0  0  0  0  0  0  0  0  0
   43.7460   36.6840   44.7570 H   0  0  0  0  0  0  0  0  0  0  0  0
   44.9410   36.6900   42.5400 H   0  0  0  0  0  0  0  0  0  0  0  0
   46.6760   34.9120   42.1250 H   0  0  0  0  0  0  0  0  0  0  0  0
   46.0200   32.8940   46.5020 S   0  0  0  0  0  0  0  0  0  0  0  0
   47.0240   31.5690   45.7820 C   0  0  0  0  0  0  0  0  0  0  0  0
   47.5280   30.6230   46.6780 C   0  0  0  0  0  0  0  0  0  0  0  0
   48.4640   29.4850   45.5690 S   0  0  0  0  0  0  0  0  0  0  0  0
   47.9850   30.5340   44.0510 C   0  0  0  0  0  0  0  0  0  0  0  0
   48.1610   30.5360   42.8750 H   0  0  0  0  0  0  0  0  0  0  0  0
   47.3670   31.3410   44.5290 N   0  0  0  0  0  0  0  0  0  0  0  0
  1  7  1  0  0  0  0
  1  6  1  0  0  0  0
  2  1  2  0  0  0  0
  3  2  1  0  0  0  0
  3  4  2  0  0  0  0
  4  5  1  0  0  0  0
  5  6  2  0  0  0  0
  5 10  1  0  0  0  0
  8  2  1  0  0  0  0
  9  3  1  0  0  0  0
 11 10  1  0  0  0  0
 11 12  2  0  0  0  0
 13 12  1  0  0  0  0
 14 16  2  0  0  0  0
 14 13  1  0  0  0  0
 15 14  1  0  0  0  0
 16 11  1  0  0  0  0
M  END
>  <minimizedAffinity>
-3.44280195

>  <minimizedRMSD>
0.417598158

$$$$
