
 OpenBabel03232520593D

 41 44  0  0  1  0  0  0  0  0999 V2000
   45.3110   32.8910   47.5120 C   0  0  0  0  0  0  0  0  0  0  0  0
   45.8820   32.6360   46.3130 C   0  0  0  0  0  0  0  0  0  0  0  0
   46.1830   31.2960   46.0760 C   0  0  0  0  0  0  0  0  0  0  0  0
   45.9270   30.3110   46.9750 N   0  0  0  0  0  0  0  0  0  0  0  0
   45.3430   30.6350   48.1840 C   0  0  0  0  0  0  0  0  0  0  0  0
   45.0510   31.8990   48.4230 N   0  0  0  0  0  0  0  0  0  0  0  0
   45.1390   29.6140   49.1580 N   0  0  0  0  0  0  0  0  0  0  0  0
   45.0400   33.8950   47.8010 H   0  0  0  0  0  0  0  0  0  0  0  0
   44.3160   28.9730   49.1040 H   0  0  0  0  0  0  0  0  0  0  0  0
   45.7860   29.4410   49.9730 H   0  0  0  0  0  0  0  0  0  0  0  0
   46.1450   33.5880   45.2850 C   0  0  2  0  0  0  0  0  0  0  0  0
   44.9480   34.6910   45.5090 C   0  0  0  0  0  0  0  0  0  0  0  0
   44.7250   35.6200   44.4390 C   0  0  0  0  0  0  0  0  0  0  0  0
   45.5300   35.5420   43.2140 C   0  0  1  0  0  0  0  0  0  0  0  0
   46.5830   34.5370   43.1730 C   0  0  0  0  0  0  0  0  0  0  0  0
   46.1250   33.3060   43.9200 C   0  0  0  0  0  0  0  0  0  0  0  0
   46.9690   34.2880   45.6210 H   0  0  0  0  0  0  0  0  0  0  0  0
   44.2680   34.8580   46.3340 H   0  0  0  0  0  0  0  0  0  0  0  0
   43.9630   36.3500   44.5440 H   0  0  0  0  0  0  0  0  0  0  0  0
   45.9670   36.5390   42.9990 H   0  0  0  0  0  0  0  0  0  0  0  0
   46.8330   34.3180   42.0930 H   0  0  0  0  0  0  0  0  0  0  0  0
   47.5350   34.8640   43.6520 H   0  0  0  0  0  0  0  0  0  0  0  0
   46.9820   32.6550   43.5980 H   0  0  0  0  0  0  0  0  0  0  0  0
   45.1900   32.8860   43.4910 H   0  0  0  0  0  0  0  0  0  0  0  0
   44.5160   35.2820   42.0620 C   0  0  0  0  0  0  0  0  0  0  0  0
   43.4580   34.4760   42.4510 F   0  0  0  0  0  0  0  0  0  0  0  0
   43.9710   36.5190   41.7300 F   0  0  0  0  0  0  0  0  0  0  0  0
   45.1940   34.8280   40.9470 F   0  0  0  0  0  0  0  0  0  0  0  0
   46.8340   30.6010   44.9800 C   0  0  0  0  0  0  0  0  0  0  0  0
   46.5020   29.8120   43.9250 C   0  0  0  0  0  0  0  0  0  0  0  0
   47.6910   29.4490   43.2700 C   0  0  0  0  0  0  0  0  0  0  0  0
   48.6740   30.0320   43.9570 N   0  0  0  0  0  0  0  0  0  0  0  0
   48.1930   30.7170   44.9710 N   0  0  0  0  0  0  0  0  0  0  0  0
   45.4590   29.6070   43.7690 H   0  0  0  0  0  0  0  0  0  0  0  0
   47.6570   28.8180   42.3990 H   0  0  0  0  0  0  0  0  0  0  0  0
   50.0650   29.8900   43.5830 C   0  0  0  0  0  0  0  0  0  0  0  0
   51.0040   29.0670   44.2180 C   0  0  0  0  0  3  0  0  0  0  0  0
   52.5270   29.4220   43.1850 S   0  0  0  0  0  0  0  0  0  0  0  0
   51.5560   30.6310   42.0920 C   0  0  0  0  0  0  0  0  0  0  0  0
   52.0970   31.1110   41.2940 H   0  0  0  0  0  0  0  0  0  0  0  0
   50.4070   30.6300   42.5470 N   0  0  0  0  0  0  0  0  0  0  0  0
  1  8  1  0  0  0  0
  1  6  1  0  0  0  0
  2  1  2  0  0  0  0
  3  2  1  0  0  0  0
  3  4  2  0  0  0  0
  4  5  1  0  0  0  0
  5  6  2  0  0  0  0
  5  7  1  0  0  0  0
  7 10  1  0  0  0  0
  9  7  1  0  0  0  0
 11 12  1  0  0  0  0
 11 17  1  1  0  0  0
 11  2  1  0  0  0  0
 12 18  1  0  0  0  0
 13 19  1  0  0  0  0
 13 12  2  0  0  0  0
 14 20  1  6  0  0  0
 14 13  1  0  0  0  0
 15 14  1  0  0  0  0
 15 22  1  0  0  0  0
 15 16  1  0  0  0  0
 16 11  1  0  0  0  0
 21 15  1  0  0  0  0
 23 16  1  0  0  0  0
 24 16  1  0  0  0  0
 25 26  1  0  0  0  0
 25 14  1  0  0  0  0
 27 25  1  0  0  0  0
 28 25  1  0  0  0  0
 29  3  1  0  0  0  0
 30 29  1  0  0  0  0
 31 30  2  0  0  0  0
 31 32  1  0  0  0  0
 32 33  1  0  0  0  0
 33 29  2  0  0  0  0
 34 30  1  0  0  0  0
 35 31  1  0  0  0  0
 36 32  1  0  0  0  0
 36 37  2  0  0  0  0
 38 37  1  0  0  0  0
 39 41  2  0  0  0  0
 39 38  1  0  0  0  0
 40 39  1  0  0  0  0
 41 36  1  0  0  0  0
M  END
>  <minimizedAffinity>
-5.73367977

>  <minimizedRMSD>
0.583209157

$$$$
