
 OpenBabel03232521003D

 41 44  0  0  1  0  0  0  0  0999 V2000
   45.3130   32.8920   47.5140 C   0  0  0  0  0  0  0  0  0  0  0  0
   45.8840   32.6350   46.3140 C   0  0  0  0  0  0  0  0  0  0  0  0
   46.1840   31.2950   46.0790 C   0  0  0  0  0  0  0  0  0  0  0  0
   45.9290   30.3110   46.9790 N   0  0  0  0  0  0  0  0  0  0  0  0
   45.3460   30.6360   48.1880 C   0  0  0  0  0  0  0  0  0  0  0  0
   45.0530   31.9010   48.4260 N   0  0  0  0  0  0  0  0  0  0  0  0
   45.1410   29.6160   49.1620 N   0  0  0  0  0  0  0  0  0  0  0  0
   45.0410   33.8950   47.8020 H   0  0  0  0  0  0  0  0  0  0  0  0
   44.3180   28.9740   49.1090 H   0  0  0  0  0  0  0  0  0  0  0  0
   45.7890   29.4430   49.9780 H   0  0  0  0  0  0  0  0  0  0  0  0
   46.1450   33.5870   45.2860 C   0  0  2  0  0  0  0  0  0  0  0  0
   44.9490   34.6900   45.5090 C   0  0  0  0  0  0  0  0  0  0  0  0
   44.7250   35.6180   44.4390 C   0  0  0  0  0  0  0  0  0  0  0  0
   45.5290   35.5390   43.2130 C   0  0  1  0  0  0  0  0  0  0  0  0
   46.5830   34.5350   43.1730 C   0  0  0  0  0  0  0  0  0  0  0  0
   46.1250   33.3040   43.9220 C   0  0  0  0  0  0  0  0  0  0  0  0
   46.9700   34.2880   45.6210 H   0  0  0  0  0  0  0  0  0  0  0  0
   44.2690   34.8570   46.3340 H   0  0  0  0  0  0  0  0  0  0  0  0
   43.9630   36.3480   44.5430 H   0  0  0  0  0  0  0  0  0  0  0  0
   45.9670   36.5360   42.9970 H   0  0  0  0  0  0  0  0  0  0  0  0
   46.8320   34.3140   42.0940 H   0  0  0  0  0  0  0  0  0  0  0  0
   47.5350   34.8620   43.6520 H   0  0  0  0  0  0  0  0  0  0  0  0
   46.9820   32.6530   43.5990 H   0  0  0  0  0  0  0  0  0  0  0  0
   45.1900   32.8830   43.4930 H   0  0  0  0  0  0  0  0  0  0  0  0
   44.5160   35.2780   42.0620 C   0  0  0  0  0  0  0  0  0  0  0  0
   43.4620   34.4670   42.4510 F   0  0  0  0  0  0  0  0  0  0  0  0
   43.9650   36.5140   41.7350 F   0  0  0  0  0  0  0  0  0  0  0  0
   45.1940   34.8310   40.9450 F   0  0  0  0  0  0  0  0  0  0  0  0
   46.8350   30.6000   44.9830 C   0  0  0  0  0  0  0  0  0  0  0  0
   46.5030   29.8090   43.9290 C   0  0  0  0  0  0  0  0  0  0  0  0
   47.6910   29.4460   43.2740 C   0  0  0  0  0  0  0  0  0  0  0  0
   48.6740   30.0310   43.9600 N   0  0  0  0  0  0  0  0  0  0  0  0
   48.1940   30.7160   44.9730 N   0  0  0  0  0  0  0  0  0  0  0  0
   45.4590   29.6040   43.7740 H   0  0  0  0  0  0  0  0  0  0  0  0
   47.6580   28.8150   42.4040 H   0  0  0  0  0  0  0  0  0  0  0  0
   50.0650   29.8890   43.5850 C   0  0  0  0  0  0  0  0  0  0  0  0
   51.0040   29.0650   44.2180 C   0  0  0  0  0  3  0  0  0  0  0  0
   52.5270   29.4210   43.1840 S   0  0  0  0  0  0  0  0  0  0  0  0
   51.5550   30.6310   42.0920 C   0  0  0  0  0  0  0  0  0  0  0  0
   52.0970   31.1100   41.2950 H   0  0  0  0  0  0  0  0  0  0  0  0
   50.4070   30.6280   42.5480 N   0  0  0  0  0  0  0  0  0  0  0  0
  1  8  1  0  0  0  0
  1  6  1  0  0  0  0
  2  1  2  0  0  0  0
  3  2  1  0  0  0  0
  3  4  2  0  0  0  0
  4  5  1  0  0  0  0
  5  6  2  0  0  0  0
  5  7  1  0  0  0  0
  7 10  1  0  0  0  0
  9  7  1  0  0  0  0
 11 12  1  0  0  0  0
 11 17  1  1  0  0  0
 11  2  1  0  0  0  0
 12 18  1  0  0  0  0
 13 19  1  0  0  0  0
 13 12  2  0  0  0  0
 14 20  1  6  0  0  0
 14 13  1  0  0  0  0
 15 14  1  0  0  0  0
 15 22  1  0  0  0  0
 15 16  1  0  0  0  0
 16 11  1  0  0  0  0
 21 15  1  0  0  0  0
 23 16  1  0  0  0  0
 24 16  1  0  0  0  0
 25 26  1  0  0  0  0
 25 14  1  0  0  0  0
 27 25  1  0  0  0  0
 28 25  1  0  0  0  0
 29  3  1  0  0  0  0
 30 29  1  0  0  0  0
 31 30  2  0  0  0  0
 31 32  1  0  0  0  0
 32 33  1  0  0  0  0
 33 29  2  0  0  0  0
 34 30  1  0  0  0  0
 35 31  1  0  0  0  0
 36 32  1  0  0  0  0
 36 37  2  0  0  0  0
 38 37  1  0  0  0  0
 39 41  2  0  0  0  0
 39 38  1  0  0  0  0
 40 39  1  0  0  0  0
 41 36  1  0  0  0  0
M  END
>  <minimizedAffinity>
-5.73455763

>  <minimizedRMSD>
0.409042597

$$$$
