
 OpenBabel03232521003D

 41 44  0  0  1  0  0  0  0  0999 V2000
   45.3110   32.8940   47.5110 C   0  0  0  0  0  0  0  0  0  0  0  0
   45.8820   32.6380   46.3120 C   0  0  0  0  0  0  0  0  0  0  0  0
   46.1820   31.2980   46.0760 C   0  0  0  0  0  0  0  0  0  0  0  0
   45.9260   30.3140   46.9760 N   0  0  0  0  0  0  0  0  0  0  0  0
   45.3430   30.6390   48.1840 C   0  0  0  0  0  0  0  0  0  0  0  0
   45.0500   31.9030   48.4230 N   0  0  0  0  0  0  0  0  0  0  0  0
   45.1380   29.6180   49.1590 N   0  0  0  0  0  0  0  0  0  0  0  0
   45.0400   33.8980   47.8000 H   0  0  0  0  0  0  0  0  0  0  0  0
   44.3150   28.9770   49.1060 H   0  0  0  0  0  0  0  0  0  0  0  0
   45.7850   29.4450   49.9750 H   0  0  0  0  0  0  0  0  0  0  0  0
   46.1440   33.5900   45.2840 C   0  0  2  0  0  0  0  0  0  0  0  0
   44.9480   34.6930   45.5070 C   0  0  0  0  0  0  0  0  0  0  0  0
   44.7250   35.6220   44.4370 C   0  0  0  0  0  0  0  0  0  0  0  0
   45.5290   35.5420   43.2110 C   0  0  1  0  0  0  0  0  0  0  0  0
   46.5820   34.5380   43.1710 C   0  0  0  0  0  0  0  0  0  0  0  0
   46.1240   33.3070   43.9190 C   0  0  0  0  0  0  0  0  0  0  0  0
   46.9690   34.2900   45.6190 H   0  0  0  0  0  0  0  0  0  0  0  0
   44.2680   34.8600   46.3320 H   0  0  0  0  0  0  0  0  0  0  0  0
   43.9620   36.3520   44.5410 H   0  0  0  0  0  0  0  0  0  0  0  0
   45.9670   36.5390   42.9960 H   0  0  0  0  0  0  0  0  0  0  0  0
   46.8320   34.3170   42.0920 H   0  0  0  0  0  0  0  0  0  0  0  0
   47.5340   34.8640   43.6500 H   0  0  0  0  0  0  0  0  0  0  0  0
   46.9810   32.6560   43.5970 H   0  0  0  0  0  0  0  0  0  0  0  0
   45.1890   32.8870   43.4900 H   0  0  0  0  0  0  0  0  0  0  0  0
   44.5150   35.2820   42.0600 C   0  0  0  0  0  0  0  0  0  0  0  0
   43.4580   34.4760   42.4500 F   0  0  0  0  0  0  0  0  0  0  0  0
   43.9690   36.5190   41.7280 F   0  0  0  0  0  0  0  0  0  0  0  0
   45.1930   34.8290   40.9450 F   0  0  0  0  0  0  0  0  0  0  0  0
   46.8320   30.6020   44.9800 C   0  0  0  0  0  0  0  0  0  0  0  0
   46.5010   29.8130   43.9260 C   0  0  0  0  0  0  0  0  0  0  0  0
   47.6890   29.4490   43.2710 C   0  0  0  0  0  0  0  0  0  0  0  0
   48.6720   30.0320   43.9580 N   0  0  0  0  0  0  0  0  0  0  0  0
   48.1920   30.7180   44.9710 N   0  0  0  0  0  0  0  0  0  0  0  0
   45.4570   29.6080   43.7700 H   0  0  0  0  0  0  0  0  0  0  0  0
   47.6550   28.8180   42.4000 H   0  0  0  0  0  0  0  0  0  0  0  0
   50.0630   29.8890   43.5830 C   0  0  0  0  0  0  0  0  0  0  0  0
   51.0010   29.0660   44.2170 C   0  0  0  0  0  3  0  0  0  0  0  0
   52.5240   29.4200   43.1840 S   0  0  0  0  0  0  0  0  0  0  0  0
   51.5550   30.6310   42.0930 C   0  0  0  0  0  0  0  0  0  0  0  0
   52.0960   31.1110   41.2950 H   0  0  0  0  0  0  0  0  0  0  0  0
   50.4050   30.6300   42.5470 N   0  0  0  0  0  0  0  0  0  0  0  0
  1  8  1  0  0  0  0
  1  6  1  0  0  0  0
  2  1  2  0  0  0  0
  3  2  1  0  0  0  0
  3  4  2  0  0  0  0
  4  5  1  0  0  0  0
  5  6  2  0  0  0  0
  5  7  1  0  0  0  0
  7 10  1  0  0  0  0
  9  7  1  0  0  0  0
 11 12  1  0  0  0  0
 11 17  1  1  0  0  0
 11  2  1  0  0  0  0
 12 18  1  0  0  0  0
 13 19  1  0  0  0  0
 13 12  2  0  0  0  0
 14 20  1  6  0  0  0
 14 13  1  0  0  0  0
 15 14  1  0  0  0  0
 15 22  1  0  0  0  0
 15 16  1  0  0  0  0
 16 11  1  0  0  0  0
 21 15  1  0  0  0  0
 23 16  1  0  0  0  0
 24 16  1  0  0  0  0
 25 26  1  0  0  0  0
 25 14  1  0  0  0  0
 27 25  1  0  0  0  0
 28 25  1  0  0  0  0
 29  3  1  0  0  0  0
 30 29  1  0  0  0  0
 31 30  2  0  0  0  0
 31 32  1  0  0  0  0
 32 33  1  0  0  0  0
 33 29  2  0  0  0  0
 34 30  1  0  0  0  0
 35 31  1  0  0  0  0
 36 32  1  0  0  0  0
 36 37  2  0  0  0  0
 38 37  1  0  0  0  0
 39 41  2  0  0  0  0
 39 38  1  0  0  0  0
 40 39  1  0  0  0  0
 41 36  1  0  0  0  0
M  END
>  <minimizedAffinity>
-5.73347378

>  <minimizedRMSD>
0.243705854

$$$$
