
 OpenBabel03232519083D

 45 47  0  0  1  0  0  0  0  0999 V2000
   46.6170   33.5760   42.5770 C   0  0  0  0  0  0  0  0  0  0  0  0
   43.0710   33.0520   41.7670 C   0  0  0  0  0  0  0  0  0  0  0  0
   42.9320   31.7690   42.1670 C   0  0  0  0  0  0  0  0  0  0  0  0
   44.5690   31.3520   42.7710 S   0  0  0  0  0  0  0  0  0  0  0  0
   45.2250   33.0790   42.3640 C   0  0  0  0  0  0  0  0  0  0  0  0
   44.2490   33.5160   41.9400 N   0  0  0  0  0  0  0  0  0  0  0  0
   42.0960   31.0470   42.1790 H   0  0  0  0  0  0  0  0  0  0  0  0
   40.9790   35.6610   39.9630 C   0  0  0  0  0  0  0  0  0  0  0  0
   42.0870   34.9970   40.4870 C   0  0  0  0  0  0  0  0  0  0  0  0
   41.9330   33.7900   41.1950 C   0  0  0  0  0  0  0  0  0  0  0  0
   40.6630   33.3790   41.2970 N   0  0  0  0  0  0  0  0  0  0  0  0
   39.5860   33.9850   40.8110 C   0  0  0  0  0  0  0  0  0  0  0  0
   39.7630   35.1160   40.1520 N   0  0  0  0  0  0  0  0  0  0  0  0
   41.2170   36.5750   39.4400 H   0  0  0  0  0  0  0  0  0  0  0  0
   43.0880   35.3890   40.3650 H   0  0  0  0  0  0  0  0  0  0  0  0
   38.5820   33.6030   40.9260 H   0  0  0  0  0  0  0  0  0  0  0  0
   46.9660   33.2650   44.0170 C   0  0  0  0  0  0  0  0  0  0  0  0
   47.9720   33.5760   44.3030 H   0  0  0  0  0  0  0  0  0  0  0  0
   46.3080   34.0090   44.5950 H   0  0  0  0  0  0  0  0  0  0  0  0
   46.6020   32.3030   44.3780 H   0  0  0  0  0  0  0  0  0  0  0  0
   46.6150   35.0490   42.3620 C   0  0  0  0  0  0  0  0  0  0  0  0
   45.7650   35.3330   41.7070 H   0  0  0  0  0  0  0  0  0  0  0  0
   46.5820   35.6300   43.2880 H   0  0  0  0  0  0  0  0  0  0  0  0
   47.5210   35.3580   41.8050 H   0  0  0  0  0  0  0  0  0  0  0  0
   47.5410   32.8850   41.6400 C   0  0  1  0  0  0  0  0  0  0  0  0
   47.2530   31.8020   41.7840 H   0  0  0  0  0  0  0  0  0  0  0  0
   47.2450   33.0280   40.2250 N   0  0  0  0  0  0  0  0  0  0  0  0
   46.4780   32.0950   39.5750 C   0  0  0  0  0  0  0  0  0  0  0  0
   46.1340   32.1050   38.2570 C   0  0  0  0  0  0  0  0  0  0  0  0
   46.5860   33.1460   37.4620 C   0  0  0  0  0  0  0  0  0  0  0  0
   46.3070   33.2210   36.2410 O   0  0  0  0  0  0  0  0  0  0  0  0
   47.3380   34.0690   38.0750 N   0  0  0  0  0  0  0  0  0  0  0  0
   47.6320   33.9850   39.3770 C   0  0  0  0  0  0  0  0  0  0  0  0
   48.3340   34.9130   39.7740 O   0  0  0  0  0  0  0  0  0  0  0  0
   47.6710   34.8470   37.4630 H   0  0  0  0  0  0  0  0  0  0  0  0
   48.8950   33.0630   41.9930 N   0  0  0  0  0  0  0  0  0  0  0  0
   50.0660   33.7550   42.3870 C   0  0  0  0  0  0  0  0  0  0  0  0
   51.2830   33.9170   42.6190 O   0  0  0  0  0  0  0  0  0  0  0  0
   49.7650   35.1150   42.7800 N   0  0  0  0  0  0  0  0  0  0  0  0
   49.7480   35.9820   42.2450 H   0  0  0  0  0  0  0  0  0  0  0  0
   49.5060   35.3990   43.7510 H   0  0  0  0  0  0  0  0  0  0  0  0
   49.7970   31.8790   41.8860 C   0  0  0  0  0  0  0  0  0  0  0  0
   48.9070   30.8230   41.6120 F   0  0  0  0  0  0  0  0  0  0  0  0
   50.4980   31.6490   42.9430 F   0  0  0  0  0  0  0  0  0  0  0  0
   50.5420   32.0250   40.7010 F   0  0  0  0  0  0  0  0  0  0  0  0
  1 17  1  0  0  0  0
  2  6  1  0  0  0  0
  2  3  2  0  0  0  0
  3  7  1  0  0  0  0
  3  4  1  0  0  0  0
  5  1  1  0  0  0  0
  5  4  1  0  0  0  0
  6  5  2  0  0  0  0
  8 13  2  0  0  0  0
  8  9  1  0  0  0  0
  9 10  2  0  0  0  0
 10 11  1  0  0  0  0
 10  2  1  0  0  0  0
 12 16  1  0  0  0  0
 12 11  2  0  0  0  0
 13 12  1  0  0  0  0
 14  8  1  0  0  0  0
 15  9  1  0  0  0  0
 17 18  1  0  0  0  0
 17 20  1  0  0  0  0
 17 19  1  0  0  0  0
 21  1  1  0  0  0  0
 21 23  1  0  0  0  0
 22 21  1  0  0  0  0
 24 21  1  0  0  0  0
 25 26  1  1  0  0  0
 25 36  1  0  0  0  0
 25  1  1  0  0  0  0
 27 25  1  0  0  0  0
 28 27  1  0  0  0  0
 29 28  2  0  0  0  0
 30 32  1  0  0  0  0
 30 29  1  0  0  0  0
 31 30  2  0  0  0  0
 32 33  1  0  0  0  0
 33 34  2  0  0  0  0
 33 27  1  0  0  0  0
 35 32  1  0  0  0  0
 36 37  1  0  0  0  0
 37 38  2  0  0  0  0
 37 39  1  0  0  0  0
 39 41  1  0  0  0  0
 40 39  1  0  0  0  0
 42 36  1  0  0  0  0
 42 44  1  0  0  0  0
 43 42  1  0  0  0  0
 45 42  1  0  0  0  0
M  END
>  <minimizedAffinity>
-5.92858028

>  <minimizedRMSD>
5.77449274

$$$$
