
 OpenBabel03232521003D

 41 44  0  0  1  0  0  0  0  0999 V2000
   45.3100   32.8940   47.5100 C   0  0  0  0  0  0  0  0  0  0  0  0
   45.8810   32.6380   46.3110 C   0  0  0  0  0  0  0  0  0  0  0  0
   46.1820   31.2980   46.0740 C   0  0  0  0  0  0  0  0  0  0  0  0
   45.9250   30.3130   46.9740 N   0  0  0  0  0  0  0  0  0  0  0  0
   45.3420   30.6380   48.1820 C   0  0  0  0  0  0  0  0  0  0  0  0
   45.0490   31.9020   48.4210 N   0  0  0  0  0  0  0  0  0  0  0  0
   45.1370   29.6170   49.1560 N   0  0  0  0  0  0  0  0  0  0  0  0
   45.0380   33.8970   47.7990 H   0  0  0  0  0  0  0  0  0  0  0  0
   44.3130   28.9760   49.1030 H   0  0  0  0  0  0  0  0  0  0  0  0
   45.7840   29.4430   49.9720 H   0  0  0  0  0  0  0  0  0  0  0  0
   46.1440   33.5900   45.2830 C   0  0  2  0  0  0  0  0  0  0  0  0
   44.9470   34.6940   45.5070 C   0  0  0  0  0  0  0  0  0  0  0  0
   44.7250   35.6230   44.4370 C   0  0  0  0  0  0  0  0  0  0  0  0
   45.5290   35.5440   43.2120 C   0  0  1  0  0  0  0  0  0  0  0  0
   46.5820   34.5390   43.1710 C   0  0  0  0  0  0  0  0  0  0  0  0
   46.1230   33.3080   43.9180 C   0  0  0  0  0  0  0  0  0  0  0  0
   46.9680   34.2900   45.6190 H   0  0  0  0  0  0  0  0  0  0  0  0
   44.2680   34.8600   46.3320 H   0  0  0  0  0  0  0  0  0  0  0  0
   43.9620   36.3530   44.5420 H   0  0  0  0  0  0  0  0  0  0  0  0
   45.9670   36.5410   42.9960 H   0  0  0  0  0  0  0  0  0  0  0  0
   46.8320   34.3190   42.0910 H   0  0  0  0  0  0  0  0  0  0  0  0
   47.5340   34.8650   43.6500 H   0  0  0  0  0  0  0  0  0  0  0  0
   46.9800   32.6570   43.5960 H   0  0  0  0  0  0  0  0  0  0  0  0
   45.1890   32.8880   43.4890 H   0  0  0  0  0  0  0  0  0  0  0  0
   44.5160   35.2840   42.0600 C   0  0  0  0  0  0  0  0  0  0  0  0
   43.4550   34.4830   42.4510 F   0  0  0  0  0  0  0  0  0  0  0  0
   43.9740   36.5220   41.7250 F   0  0  0  0  0  0  0  0  0  0  0  0
   45.1930   34.8270   40.9460 F   0  0  0  0  0  0  0  0  0  0  0  0
   46.8320   30.6030   44.9780 C   0  0  0  0  0  0  0  0  0  0  0  0
   46.5010   29.8140   43.9230 C   0  0  0  0  0  0  0  0  0  0  0  0
   47.6890   29.4510   43.2690 C   0  0  0  0  0  0  0  0  0  0  0  0
   48.6720   30.0330   43.9560 N   0  0  0  0  0  0  0  0  0  0  0  0
   48.1920   30.7180   44.9700 N   0  0  0  0  0  0  0  0  0  0  0  0
   45.4570   29.6100   43.7670 H   0  0  0  0  0  0  0  0  0  0  0  0
   47.6560   28.8200   42.3980 H   0  0  0  0  0  0  0  0  0  0  0  0
   50.0630   29.8900   43.5820 C   0  0  0  0  0  0  0  0  0  0  0  0
   51.0010   29.0660   44.2160 C   0  0  0  0  0  3  0  0  0  0  0  0
   52.5240   29.4210   43.1840 S   0  0  0  0  0  0  0  0  0  0  0  0
   51.5550   30.6310   42.0920 C   0  0  0  0  0  0  0  0  0  0  0  0
   52.0980   31.1110   41.2950 H   0  0  0  0  0  0  0  0  0  0  0  0
   50.4060   30.6310   42.5460 N   0  0  0  0  0  0  0  0  0  0  0  0
  1  8  1  0  0  0  0
  1  6  1  0  0  0  0
  2  1  2  0  0  0  0
  3  2  1  0  0  0  0
  3  4  2  0  0  0  0
  4  5  1  0  0  0  0
  5  6  2  0  0  0  0
  5  7  1  0  0  0  0
  7 10  1  0  0  0  0
  9  7  1  0  0  0  0
 11 12  1  0  0  0  0
 11 17  1  1  0  0  0
 11  2  1  0  0  0  0
 12 18  1  0  0  0  0
 13 19  1  0  0  0  0
 13 12  2  0  0  0  0
 14 20  1  6  0  0  0
 14 13  1  0  0  0  0
 15 14  1  0  0  0  0
 15 22  1  0  0  0  0
 15 16  1  0  0  0  0
 16 11  1  0  0  0  0
 21 15  1  0  0  0  0
 23 16  1  0  0  0  0
 24 16  1  0  0  0  0
 25 26  1  0  0  0  0
 25 14  1  0  0  0  0
 27 25  1  0  0  0  0
 28 25  1  0  0  0  0
 29  3  1  0  0  0  0
 30 29  1  0  0  0  0
 31 30  2  0  0  0  0
 31 32  1  0  0  0  0
 32 33  1  0  0  0  0
 33 29  2  0  0  0  0
 34 30  1  0  0  0  0
 35 31  1  0  0  0  0
 36 32  1  0  0  0  0
 36 37  2  0  0  0  0
 38 37  1  0  0  0  0
 39 41  2  0  0  0  0
 39 38  1  0  0  0  0
 40 39  1  0  0  0  0
 41 36  1  0  0  0  0
M  END
>  <minimizedAffinity>
-5.73264503

>  <minimizedRMSD>
0.320519656

$$$$
