
 OpenBabel03232521003D

 41 44  0  0  1  0  0  0  0  0999 V2000
   45.3070   32.9130   47.4880 C   0  0  0  0  0  0  0  0  0  0  0  0
   45.8640   32.6510   46.2830 C   0  0  0  0  0  0  0  0  0  0  0  0
   46.1540   31.3090   46.0460 C   0  0  0  0  0  0  0  0  0  0  0  0
   45.9010   30.3270   46.9510 N   0  0  0  0  0  0  0  0  0  0  0  0
   45.3330   30.6580   48.1650 C   0  0  0  0  0  0  0  0  0  0  0  0
   45.0500   31.9240   48.4040 N   0  0  0  0  0  0  0  0  0  0  0  0
   45.1320   29.6400   49.1430 N   0  0  0  0  0  0  0  0  0  0  0  0
   45.0440   33.9180   47.7780 H   0  0  0  0  0  0  0  0  0  0  0  0
   44.3040   29.0040   49.1000 H   0  0  0  0  0  0  0  0  0  0  0  0
   45.7870   29.4650   49.9520 H   0  0  0  0  0  0  0  0  0  0  0  0
   46.1210   33.5990   45.2510 C   0  0  2  0  0  0  0  0  0  0  0  0
   44.9390   34.7150   45.4910 C   0  0  0  0  0  0  0  0  0  0  0  0
   44.7100   35.6460   44.4230 C   0  0  0  0  0  0  0  0  0  0  0  0
   45.4960   35.5570   43.1860 C   0  0  1  0  0  0  0  0  0  0  0  0
   46.5370   34.5420   43.1310 C   0  0  0  0  0  0  0  0  0  0  0  0
   46.0770   33.3160   43.8870 C   0  0  0  0  0  0  0  0  0  0  0  0
   46.9580   34.2910   45.5740 H   0  0  0  0  0  0  0  0  0  0  0  0
   44.2740   34.8900   46.3260 H   0  0  0  0  0  0  0  0  0  0  0  0
   43.9580   36.3840   44.5380 H   0  0  0  0  0  0  0  0  0  0  0  0
   45.9410   36.5490   42.9630 H   0  0  0  0  0  0  0  0  0  0  0  0
   46.7690   34.3180   42.0480 H   0  0  0  0  0  0  0  0  0  0  0  0
   47.5000   34.8580   43.5960 H   0  0  0  0  0  0  0  0  0  0  0  0
   46.9230   32.6560   43.5520 H   0  0  0  0  0  0  0  0  0  0  0  0
   45.1320   32.9050   43.4710 H   0  0  0  0  0  0  0  0  0  0  0  0
   44.4630   35.3070   42.0500 C   0  0  0  0  0  0  0  0  0  0  0  0
   43.3980   34.5210   42.4590 F   0  0  0  0  0  0  0  0  0  0  0  0
   43.9330   36.5510   41.7180 F   0  0  0  0  0  0  0  0  0  0  0  0
   45.1180   34.8360   40.9280 F   0  0  0  0  0  0  0  0  0  0  0  0
   46.7890   30.6070   44.9450 C   0  0  0  0  0  0  0  0  0  0  0  0
   46.4480   29.7760   43.9260 C   0  0  0  0  0  0  0  0  0  0  0  0
   47.6240   29.4400   43.2350 C   0  0  0  0  0  0  0  0  0  0  0  0
   48.6090   30.0790   43.8670 N   0  0  0  0  0  0  0  0  0  0  0  0
   48.1410   30.7750   44.8800 N   0  0  0  0  0  0  0  0  0  0  0  0
   45.4080   29.5270   43.8180 H   0  0  0  0  0  0  0  0  0  0  0  0
   47.5820   28.7830   42.3840 H   0  0  0  0  0  0  0  0  0  0  0  0
   49.9890   29.9790   43.4420 C   0  0  0  0  0  0  0  0  0  0  0  0
   50.9360   29.0770   43.9440 C   0  0  0  0  0  3  0  0  0  0  0  0
   52.4360   29.5530   42.9250 S   0  0  0  0  0  0  0  0  0  0  0  0
   51.4480   30.8940   42.0180 C   0  0  0  0  0  0  0  0  0  0  0  0
   51.9740   31.4680   41.2730 H   0  0  0  0  0  0  0  0  0  0  0  0
   50.3110   30.8410   42.4980 N   0  0  0  0  0  0  0  0  0  0  0  0
  1  8  1  0  0  0  0
  1  6  1  0  0  0  0
  2  1  2  0  0  0  0
  3  2  1  0  0  0  0
  3  4  2  0  0  0  0
  4  5  1  0  0  0  0
  5  6  2  0  0  0  0
  5  7  1  0  0  0  0
  7 10  1  0  0  0  0
  9  7  1  0  0  0  0
 11 12  1  0  0  0  0
 11 17  1  1  0  0  0
 11  2  1  0  0  0  0
 12 18  1  0  0  0  0
 13 19  1  0  0  0  0
 13 12  2  0  0  0  0
 14 20  1  6  0  0  0
 14 13  1  0  0  0  0
 15 14  1  0  0  0  0
 15 22  1  0  0  0  0
 15 16  1  0  0  0  0
 16 11  1  0  0  0  0
 21 15  1  0  0  0  0
 23 16  1  0  0  0  0
 24 16  1  0  0  0  0
 25 26  1  0  0  0  0
 25 14  1  0  0  0  0
 27 25  1  0  0  0  0
 28 25  1  0  0  0  0
 29  3  1  0  0  0  0
 30 29  1  0  0  0  0
 31 32  1  0  0  0  0
 31 30  2  0  0  0  0
 32 33  1  0  0  0  0
 33 29  2  0  0  0  0
 34 30  1  0  0  0  0
 35 31  1  0  0  0  0
 36 32  1  0  0  0  0
 36 37  2  0  0  0  0
 38 37  1  0  0  0  0
 39 41  2  0  0  0  0
 39 38  1  0  0  0  0
 40 39  1  0  0  0  0
 41 36  1  0  0  0  0
M  END
>  <minimizedAffinity>
-5.74411917

>  <minimizedRMSD>
0.450586289

$$$$
