
 OpenBabel03232503363D

 28 29  0  0  0  0  0  0  0  0999 V2000
   45.0680   33.9190   41.3930 C   0  0  0  0  0  0  0  0  0  0  0  0
   46.2720   34.3670   40.8610 C   0  0  0  0  0  0  0  0  0  0  0  0
   47.2650   34.7780   41.7360 C   0  0  0  0  0  0  0  0  0  0  0  0
   47.0060   34.7220   43.0830 N   0  0  0  0  0  0  0  0  0  0  0  0
   45.8210   34.2800   43.5480 C   0  0  0  0  0  0  0  0  0  0  0  0
   44.8580   33.8820   42.7300 N   0  0  0  0  0  0  0  0  0  0  0  0
   44.3400   33.6140   40.6540 H   0  0  0  0  0  0  0  0  0  0  0  0
   46.5270   34.4320   39.8270 H   0  0  0  0  0  0  0  0  0  0  0  0
   48.6120   35.2830   41.2770 C   0  0  0  0  0  0  0  0  0  0  0  0
   48.9240   34.7080   40.3850 H   0  0  0  0  0  0  0  0  0  0  0  0
   48.5510   36.3820   41.1020 H   0  0  0  0  0  0  0  0  0  0  0  0
   49.6240   35.0810   42.4260 C   0  0  0  0  0  0  0  0  0  0  0  0
   50.3070   34.2660   42.1120 H   0  0  0  0  0  0  0  0  0  0  0  0
   50.1950   36.0100   42.6160 H   0  0  0  0  0  0  0  0  0  0  0  0
   49.0980   34.6900   43.3210 H   0  0  0  0  0  0  0  0  0  0  0  0
   45.6800   34.2730   44.9970 C   0  0  0  0  0  0  0  0  0  0  0  0
   44.7520   34.8930   45.5460 O   0  0  0  0  0  0  0  0  0  0  0  0
   46.5940   33.5620   45.7730 O   0  0  0  0  0  0  0  0  0  0  0  0
   46.1350   32.4130   46.3890 C   0  0  0  0  0  0  0  0  0  0  0  0
   46.0670   31.2790   45.5560 C   0  0  0  0  0  0  0  0  0  0  0  0
   45.6050   30.1130   46.1670 C   0  0  0  0  0  0  0  0  0  0  0  0
   45.2340   30.0240   47.4680 N   0  0  0  0  0  0  0  0  0  0  0  0
   45.3270   31.1640   48.2150 C   0  0  0  0  0  0  0  0  0  0  0  0
   45.7650   32.3180   47.6790 N   0  0  0  0  0  0  0  0  0  0  0  0
   46.3500   31.3180   44.5350 H   0  0  0  0  0  0  0  0  0  0  0  0
   45.5480   29.2310   45.5320 H   0  0  0  0  0  0  0  0  0  0  0  0
   44.9440   31.1720   49.6590 C   0  0  0  0  0  0  0  0  0  0  0  0
   44.9260   32.2480   49.9670 H   0  0  0  0  0  0  0  0  0  0  0  0
  1  6  1  0  0  0  0
  2  1  2  0  0  0  0
  2  3  1  0  0  0  0
  3  4  2  0  0  0  0
  4  5  1  0  0  0  0
  5 16  1  0  0  0  0
  6  5  2  0  0  0  0
  7  1  1  0  0  0  0
  8  2  1  0  0  0  0
  9  3  1  0  0  0  0
  9 12  1  0  0  0  0
 10  9  1  0  0  0  0
 11  9  1  0  0  0  0
 12 14  1  0  0  0  0
 12 15  1  0  0  0  0
 13 12  1  0  0  0  0
 16 17  2  0  0  0  0
 16 18  1  0  0  0  0
 18 19  1  0  0  0  0
 19 24  1  0  0  0  0
 20 21  1  0  0  0  0
 20 19  2  0  0  0  0
 21 22  2  0  0  0  0
 22 23  1  0  0  0  0
 23 27  1  0  0  0  0
 24 23  2  0  0  0  0
 25 20  1  0  0  0  0
 26 21  1  0  0  0  0
 27 28  1  0  0  0  0
M  END
>  <minimizedAffinity>
-5.15293503

>  <minimizedRMSD>
0.820454597

$$$$
