
 OpenBabel03232520553D

 31 32  0  0  1  0  0  0  0  0999 V2000
   46.2000   33.6650   45.3010 C   0  0  2  0  0  0  0  0  0  0  0  0
   44.9880   34.7100   45.4730 C   0  0  0  0  0  0  0  0  0  0  0  0
   44.7340   35.5940   44.3650 C   0  0  0  0  0  0  0  0  0  0  0  0
   45.5270   35.5190   43.1540 C   0  0  1  0  0  0  0  0  0  0  0  0
   46.6500   34.5830   43.1830 C   0  0  0  0  0  0  0  0  0  0  0  0
   46.2020   33.3330   43.9290 C   0  0  0  0  0  0  0  0  0  0  0  0
   46.9200   34.5040   45.5790 H   0  0  0  0  0  0  0  0  0  0  0  0
   44.2510   34.9570   46.2370 H   0  0  0  0  0  0  0  0  0  0  0  0
   43.9690   36.3210   44.3650 H   0  0  0  0  0  0  0  0  0  0  0  0
   45.9060   36.5330   42.9110 H   0  0  0  0  0  0  0  0  0  0  0  0
   47.0510   34.3810   42.1770 H   0  0  0  0  0  0  0  0  0  0  0  0
   47.4840   35.0220   43.7750 H   0  0  0  0  0  0  0  0  0  0  0  0
   46.7510   32.5890   43.4070 H   0  0  0  0  0  0  0  0  0  0  0  0
   45.1200   33.1830   43.5870 H   0  0  0  0  0  0  0  0  0  0  0  0
   45.1870   32.9140   47.4370 C   0  0  0  0  0  0  0  0  0  0  0  0
   45.9950   32.6900   46.3310 C   0  0  0  0  0  0  0  0  0  0  0  0
   46.5620   31.3960   46.2110 C   0  0  0  0  0  0  0  0  0  0  0  0
   46.2750   30.5100   47.1560 N   0  0  0  0  0  0  0  0  0  0  0  0
   45.4870   30.7390   48.2270 C   0  0  0  0  0  0  0  0  0  0  0  0
   44.9410   31.9380   48.3730 N   0  0  0  0  0  0  0  0  0  0  0  0
   45.3000   29.6810   49.1830 N   0  0  0  0  0  0  0  0  0  0  0  0
   44.7390   33.8860   47.5710 H   0  0  0  0  0  0  0  0  0  0  0  0
   45.6000   29.7860   50.1930 H   0  0  0  0  0  0  0  0  0  0  0  0
   44.8630   28.7930   48.8850 H   0  0  0  0  0  0  0  0  0  0  0  0
   47.4710   30.8620   45.1740 C   0  0  0  0  0  0  0  0  0  0  0  0
   48.3330   29.7250   45.5800 C   0  0  0  0  0  0  0  0  0  0  0  0
   48.1900   28.7680   45.0340 H   0  0  0  0  0  0  0  0  0  0  0  0
   44.5650   35.1670   41.9910 C   0  0  0  0  0  0  0  0  0  0  0  0
   43.5780   34.2810   42.3640 F   0  0  0  0  0  0  0  0  0  0  0  0
   43.9190   36.3550   41.6500 F   0  0  0  0  0  0  0  0  0  0  0  0
   45.2940   34.7600   40.8850 F   0  0  0  0  0  0  0  0  0  0  0  0
  1  2  1  0  0  0  0
  1  7  1  1  0  0  0
  1 16  1  0  0  0  0
  2  8  1  0  0  0  0
  3  9  1  0  0  0  0
  3  2  2  0  0  0  0
  4 10  1  6  0  0  0
  4  5  1  0  0  0  0
  4  3  1  0  0  0  0
  5 12  1  0  0  0  0
  5  6  1  0  0  0  0
  6  1  1  0  0  0  0
 11  5  1  0  0  0  0
 13  6  1  0  0  0  0
 14  6  1  0  0  0  0
 15 22  1  0  0  0  0
 15 20  1  0  0  0  0
 16 15  2  0  0  0  0
 17 16  1  0  0  0  0
 17 18  2  0  0  0  0
 18 19  1  0  0  0  0
 19 20  2  0  0  0  0
 19 21  1  0  0  0  0
 21 23  1  0  0  0  0
 24 21  1  0  0  0  0
 25 26  1  0  0  0  0
 25 17  1  0  0  0  0
 27 26  1  0  0  0  0
 28 29  1  0  0  0  0
 28  4  1  0  0  0  0
 30 28  1  0  0  0  0
 31 28  1  0  0  0  0
M  END
>  <minimizedAffinity>
-5.56025887

>  <minimizedRMSD>
0.37851271

$$$$
