
 OpenBabel03232514463D

 40 43  0  0  1  0  0  0  0  0999 V2000
   45.5540   33.6710   45.8420 C   0  0  0  0  0  0  0  0  0  0  0  0
   46.1980   33.4150   44.5940 C   0  0  0  0  0  0  0  0  0  0  0  0
   47.1650   32.3690   44.5820 C   0  0  0  0  0  0  0  0  0  0  0  0
   47.4340   31.6920   45.6810 N   0  0  0  0  0  0  0  0  0  0  0  0
   46.7940   31.9740   46.8510 C   0  0  0  0  0  0  0  0  0  0  0  0
   45.8520   32.9700   46.9160 N   0  0  0  0  0  0  0  0  0  0  0  0
   44.8080   34.4180   46.0090 H   0  0  0  0  0  0  0  0  0  0  0  0
   46.9730   31.4470   47.8040 H   0  0  0  0  0  0  0  0  0  0  0  0
   45.9250   34.3330   43.4700 C   0  0  2  0  0  0  0  0  0  0  0  0
   45.1550   35.4830   43.9110 C   0  0  0  0  0  0  0  0  0  0  0  0
   44.1520   36.0950   43.0280 C   0  0  0  0  0  0  0  0  0  0  0  0
   43.9420   35.5330   41.6640 C   0  0  0  0  0  0  0  0  0  0  0  0
   45.0300   34.6420   41.2600 C   0  0  0  0  0  0  0  0  0  0  0  0
   45.1080   33.5510   42.3910 C   0  0  0  0  0  0  0  0  0  0  0  0
   46.8340   34.5560   42.8840 H   0  0  0  0  0  0  0  0  0  0  0  0
   45.0880   36.1020   44.7850 H   0  0  0  0  0  0  0  0  0  0  0  0
   43.5490   36.9310   43.2730 H   0  0  0  0  0  0  0  0  0  0  0  0
   43.8870   36.4150   40.9650 H   0  0  0  0  0  0  0  0  0  0  0  0
   42.9790   34.9840   41.6250 H   0  0  0  0  0  0  0  0  0  0  0  0
   46.0180   35.0940   41.1660 H   0  0  0  0  0  0  0  0  0  0  0  0
   44.7470   34.1500   40.3010 H   0  0  0  0  0  0  0  0  0  0  0  0
   45.7130   32.8410   41.8540 H   0  0  0  0  0  0  0  0  0  0  0  0
   44.1340   33.2830   42.7540 H   0  0  0  0  0  0  0  0  0  0  0  0
   47.9200   31.8310   43.5010 C   0  0  0  0  0  0  0  0  0  0  0  0
   48.8910   32.4370   42.9280 N   0  0  0  0  0  0  0  0  0  0  0  0
   49.3610   31.6830   41.9760 O   0  0  0  0  0  0  0  0  0  0  0  0
   48.7380   30.5640   41.8750 C   0  0  0  0  0  0  0  0  0  0  0  0
   47.8310   30.5980   42.7970 N   0  0  0  0  0  0  0  0  0  0  0  0
   49.0430   29.5260   40.9000 C   0  0  0  0  0  0  0  0  0  0  0  0
   48.2980   29.3400   39.8870 O   0  0  0  0  0  0  0  0  0  0  0  0
   50.2560   28.6730   41.0890 C   0  0  1  0  0  0  0  0  0  0  0  0
   50.8070   27.9770   39.9360 C   0  0  0  0  0  0  0  0  0  0  0  0
   51.4930   29.2160   40.4630 C   0  0  1  0  0  0  0  0  0  0  0  0
   50.3810   28.4140   42.1720 H   0  0  0  0  0  0  0  0  0  0  0  0
   50.2420   28.0290   38.9720 H   0  0  0  0  0  0  0  0  0  0  0  0
   51.2430   26.9740   40.0850 H   0  0  0  0  0  0  0  0  0  0  0  0
   52.4240   28.8830   41.0740 H   0  0  0  0  0  0  0  0  0  0  0  0
   51.7410   30.3710   39.6220 C   0  0  0  0  0  0  0  0  0  0  0  0
   52.4550   31.4970   40.3050 C   0  0  0  0  0  0  0  0  0  0  0  0
   52.9240   31.2040   41.2610 H   0  0  0  0  0  0  0  0  0  0  0  0
  1  7  1  0  0  0  0
  1  6  1  0  0  0  0
  2  1  2  0  0  0  0
  3  2  1  0  0  0  0
  3  4  2  0  0  0  0
  4  5  1  0  0  0  0
  5  6  2  0  0  0  0
  5  8  1  0  0  0  0
  9 15  1  6  0  0  0
  9 10  1  0  0  0  0
  9  2  1  0  0  0  0
 10 16  1  0  0  0  0
 11 17  1  0  0  0  0
 11 10  2  0  0  0  0
 12 11  1  0  0  0  0
 13 12  1  0  0  0  0
 13 14  1  0  0  0  0
 14 23  1  0  0  0  0
 14  9  1  0  0  0  0
 18 12  1  0  0  0  0
 19 12  1  0  0  0  0
 20 13  1  0  0  0  0
 21 13  1  0  0  0  0
 22 14  1  0  0  0  0
 24  3  1  0  0  0  0
 25 24  2  0  0  0  0
 26 25  1  0  0  0  0
 27 26  1  0  0  0  0
 27 28  2  0  0  0  0
 28 24  1  0  0  0  0
 29 31  1  0  0  0  0
 29 27  1  0  0  0  0
 30 29  2  0  0  0  0
 31 34  1  1  0  0  0
 32 36  1  0  0  0  0
 32 33  1  0  0  0  0
 32 31  1  0  0  0  0
 33 37  1  1  0  0  0
 33 31  1  0  0  0  0
 35 32  1  0  0  0  0
 38 39  1  0  0  0  0
 38 33  1  0  0  0  0
 39 40  1  0  0  0  0
M  END
>  <minimizedAffinity>
-3.84212756

>  <minimizedRMSD>
2.88529992

$$$$
