
 OpenBabel03232519043D

 39 39  0  0  1  0  0  0  0  0999 V2000
   44.4140   35.9410   44.6920 C   0  0  0  0  0  0  0  0  0  0  0  0
   44.4140   35.7930   43.2990 C   0  0  0  0  0  0  0  0  0  0  0  0
   45.3330   34.8340   42.8460 C   0  0  0  0  0  0  0  0  0  0  0  0
   45.4490   33.7500   43.6610 N   0  0  0  0  0  0  0  0  0  0  0  0
   45.4890   33.9310   44.9760 C   0  0  0  0  0  0  0  0  0  0  0  0
   44.9530   35.0470   45.5230 N   0  0  0  0  0  0  0  0  0  0  0  0
   46.0400   32.9600   45.7830 N   0  0  0  0  0  0  0  0  0  0  0  0
   45.4830   32.8810   47.1610 C   0  0  0  0  0  0  0  0  0  0  0  0
   46.3260   32.0250   48.0740 C   0  0  0  0  0  0  0  0  0  0  0  0
   47.5170   31.6090   47.5310 O   0  0  0  0  0  0  0  0  0  0  0  0
   47.2590   30.9790   46.3360 C   0  0  0  0  0  0  0  0  0  0  0  0
   47.1030   32.1190   45.3470 C   0  0  1  0  0  0  0  0  0  0  0  0
   43.8100   36.6360   45.3210 H   0  0  0  0  0  0  0  0  0  0  0  0
   43.7110   36.4430   42.8370 H   0  0  0  0  0  0  0  0  0  0  0  0
   46.2780   35.5530   42.9600 H   0  0  0  0  0  0  0  0  0  0  0  0
   45.2800   34.8610   41.7250 H   0  0  0  0  0  0  0  0  0  0  0  0
   45.4120   33.7220   42.7870 H   0  0  0  0  0  0  0  0  0  0  0  0
   44.5060   32.3740   47.0410 H   0  0  0  0  0  0  0  0  0  0  0  0
   45.2720   33.8940   47.5560 H   0  0  0  0  0  0  0  0  0  0  0  0
   45.7810   31.1280   48.4010 H   0  0  0  0  0  0  0  0  0  0  0  0
   46.5550   32.6780   48.9370 H   0  0  0  0  0  0  0  0  0  0  0  0
   48.1250   30.3780   45.9950 H   0  0  0  0  0  0  0  0  0  0  0  0
   46.3090   30.4210   46.3670 H   0  0  0  0  0  0  0  0  0  0  0  0
   48.0330   32.7490   45.3630 H   0  0  0  0  0  0  0  0  0  0  0  0
   46.7510   31.8380   44.0470 N   0  0  1  0  0  0  0  0  0  0  0  0
   45.4550   31.7250   43.7180 C   0  0  0  0  0  0  0  0  0  0  0  0
   45.4100   31.4100   42.2380 C   0  0  0  0  0  0  0  0  0  0  0  0
   46.8120   31.7860   41.7440 C   0  0  0  0  0  0  0  0  0  0  0  0
   47.4810   32.3080   42.9840 C   0  0  1  0  0  0  0  0  0  0  0  0
   45.4150   30.6610   44.0760 H   0  0  0  0  0  0  0  0  0  0  0  0
   44.5290   31.9090   44.2570 H   0  0  0  0  0  0  0  0  0  0  0  0
   44.6340   32.0940   41.7840 H   0  0  0  0  0  0  0  0  0  0  0  0
   45.1550   30.4250   41.9120 H   0  0  0  0  0  0  0  0  0  0  0  0
   46.6890   32.5280   40.9300 H   0  0  0  0  0  0  0  0  0  0  0  0
   47.2670   30.9400   41.1940 H   0  0  0  0  0  0  0  0  0  0  0  0
   47.9630   31.2950   43.1550 H   0  0  0  0  0  0  0  0  0  0  0  0
   48.8220   32.8740   42.8590 C   0  0  0  0  0  0  0  0  0  0  0  0
   48.8100   34.4160   42.6910 C   0  0  0  0  0  0  0  0  0  0  0  0
   49.7600   34.7270   42.2700 H   0  0  0  0  0  0  0  0  0  0  0  0
  1 13  1  0  0  0  0
  1  6  2  0  0  0  0
  2  1  1  0  0  0  0
  3 15  1  0  0  0  0
  4  5  2  0  0  0  0
  5  6  1  0  0  0  0
  5  7  1  0  0  0  0
  7  8  1  0  0  0  0
  8 19  1  0  0  0  0
  8  9  1  0  0  0  0
  9 20  1  0  0  0  0
  9 21  1  0  0  0  0
 10  9  1  0  0  0  0
 11 23  1  0  0  0  0
 11 10  1  0  0  0  0
 12 24  1  6  0  0  0
 12  7  1  0  0  0  0
 12 11  1  0  0  0  0
 14  2  1  0  0  0  0
 16  3  1  0  0  0  0
 17  4  1  0  0  0  0
 18  8  1  0  0  0  0
 22 11  1  0  0  0  0
 25 26  1  6  0  0  0
 25 12  1  0  0  0  0
 26 30  1  0  0  0  0
 26 31  1  0  0  0  0
 27 26  1  0  0  0  0
 28 27  1  0  0  0  0
 28 29  1  0  0  0  0
 29 36  1  1  0  0  0
 29 25  1  0  0  0  0
 32 27  1  0  0  0  0
 33 27  1  0  0  0  0
 34 28  1  0  0  0  0
 35 28  1  0  0  0  0
 37 29  1  0  0  0  0
 38 37  1  0  0  0  0
 39 38  1  0  0  0  0
M  END
>  <minimizedAffinity>
-4.67785549

>  <minimizedRMSD>
0.960268855

$$$$
