
 OpenBabel03232519423D

 41 43  0  0  0  0  0  0  0  0999 V2000
   46.6270   34.3440   41.9570 N   0  0  0  0  0  0  0  0  0  0  0  0
   47.7340   35.1500   41.8310 C   0  0  0  0  0  0  0  0  0  0  0  0
   48.4350   35.2200   40.6610 C   0  0  0  0  0  0  0  0  0  0  0  0
   47.9860   34.4390   39.5920 C   0  0  0  0  0  0  0  0  0  0  0  0
   48.6050   34.4890   38.5150 O   0  0  0  0  0  0  0  0  0  0  0  0
   46.8970   33.6700   39.7760 N   0  0  0  0  0  0  0  0  0  0  0  0
   46.2300   33.6250   40.9370 C   0  0  0  0  0  0  0  0  0  0  0  0
   45.2430   32.9600   41.1650 O   0  0  0  0  0  0  0  0  0  0  0  0
   48.1340   35.7760   42.6200 H   0  0  0  0  0  0  0  0  0  0  0  0
   49.3100   35.8440   40.5270 H   0  0  0  0  0  0  0  0  0  0  0  0
   46.4110   32.8540   38.7340 C   0  0  0  0  0  0  0  0  0  0  0  0
   45.4530   33.2510   37.8300 C   0  0  0  0  0  0  0  0  0  0  0  0
   45.0250   32.4010   36.8350 C   0  0  0  0  0  0  0  0  0  0  0  0
   45.5490   31.1300   36.7240 C   0  0  0  0  0  0  0  0  0  0  0  0
   46.4920   30.7630   37.6280 C   0  0  0  0  0  0  0  0  0  0  0  0
   46.9720   31.5790   38.6650 C   0  0  0  0  0  0  0  0  0  0  0  0
   45.1080   34.2600   38.0020 H   0  0  0  0  0  0  0  0  0  0  0  0
   44.2690   32.7710   36.1550 H   0  0  0  0  0  0  0  0  0  0  0  0
   45.2110   30.4640   35.9410 H   0  0  0  0  0  0  0  0  0  0  0  0
   46.8840   29.7460   37.5060 H   0  0  0  0  0  0  0  0  0  0  0  0
   48.0140   31.0780   39.5980 C   0  0  0  0  0  0  0  0  0  0  0  0
   48.1970   30.0110   39.2530 H   0  0  0  0  0  0  0  0  0  0  0  0
   49.3070   31.8140   39.5620 C   0  0  0  0  0  0  0  0  0  0  0  0
   50.0600   30.9500   39.7750 H   0  0  0  0  0  0  0  0  0  0  0  0
   49.7180   32.0720   38.5970 H   0  0  0  0  0  0  0  0  0  0  0  0
   49.6090   32.3690   40.4620 H   0  0  0  0  0  0  0  0  0  0  0  0
   47.5710   31.0280   41.0250 C   0  0  0  0  0  0  0  0  0  0  0  0
   46.5790   30.6830   41.2370 H   0  0  0  0  0  0  0  0  0  0  0  0
   48.0810   31.7280   41.7160 H   0  0  0  0  0  0  0  0  0  0  0  0
   48.1370   30.0960   41.4310 H   0  0  0  0  0  0  0  0  0  0  0  0
   44.6070   35.5800   44.8050 C   0  0  0  0  0  0  0  0  0  0  0  0
   45.1550   35.4770   43.4990 C   0  0  0  0  0  0  0  0  0  0  0  0
   46.0710   34.4490   43.2840 C   0  0  0  0  0  0  0  0  0  0  0  0
   46.4050   33.6020   44.2920 N   0  0  0  0  0  0  0  0  0  0  0  0
   45.8440   33.7530   45.5250 C   0  0  0  0  0  0  0  0  0  0  0  0
   44.9690   34.7150   45.7740 N   0  0  0  0  0  0  0  0  0  0  0  0
   43.8950   36.3490   45.0370 H   0  0  0  0  0  0  0  0  0  0  0  0
   44.8330   36.1900   42.7640 H   0  0  0  0  0  0  0  0  0  0  0  0
   46.2210   32.8170   46.6180 C   0  0  0  0  0  0  0  0  0  0  0  0
   45.1880   32.8080   47.7230 C   0  0  0  0  0  0  0  0  0  0  0  0
   45.5720   32.0770   48.4870 H   0  0  0  0  0  0  0  0  0  0  0  0
  1 33  1  0  0  0  0
  2  1  1  0  0  0  0
  2  9  1  0  0  0  0
  3  2  2  0  0  0  0
  4  6  1  0  0  0  0
  4  3  1  0  0  0  0
  5  4  2  0  0  0  0
  6  7  1  0  0  0  0
  7  8  2  0  0  0  0
  7  1  1  0  0  0  0
 10  3  1  0  0  0  0
 11  6  1  0  0  0  0
 12 17  1  0  0  0  0
 12 11  2  0  0  0  0
 13 12  1  0  0  0  0
 14 13  2  0  0  0  0
 14 15  1  0  0  0  0
 15 16  2  0  0  0  0
 16 11  1  0  0  0  0
 16 21  1  0  0  0  0
 18 13  1  0  0  0  0
 19 14  1  0  0  0  0
 20 15  1  0  0  0  0
 21 27  1  0  0  0  0
 22 21  1  0  0  0  0
 23 21  1  0  0  0  0
 23 24  1  0  0  0  0
 23 26  1  0  0  0  0
 25 23  1  0  0  0  0
 27 28  1  0  0  0  0
 27 30  1  0  0  0  0
 27 29  1  0  0  0  0
 31 37  1  0  0  0  0
 31 36  1  0  0  0  0
 32 31  2  0  0  0  0
 33 32  1  0  0  0  0
 33 34  2  0  0  0  0
 34 35  1  0  0  0  0
 35 36  2  0  0  0  0
 35 39  1  0  0  0  0
 38 32  1  0  0  0  0
 39 40  1  0  0  0  0
 40 41  1  0  0  0  0
M  END
>  <minimizedAffinity>
-5.52118778

>  <minimizedRMSD>
0.266876668

$$$$
