
 OpenBabel03232518043D

 50 52  0  0  1  0  0  0  0  0999 V2000
   50.2980   31.9760   41.2720 C   0  0  1  0  0  0  0  0  0  0  0  0
   51.6430   31.6820   40.8250 C   0  0  0  0  0  0  0  0  0  0  0  0
   51.3480   31.4200   42.2590 C   0  0  2  0  0  0  0  0  0  0  0  0
   49.5130   31.1880   41.0540 H   0  0  0  0  0  0  0  0  0  0  0  0
   52.2970   32.5710   40.5860 H   0  0  0  0  0  0  0  0  0  0  0  0
   51.8650   30.8560   40.1110 H   0  0  0  0  0  0  0  0  0  0  0  0
   51.8080   32.0800   42.9890 H   0  0  0  0  0  0  0  0  0  0  0  0
   51.1120   30.0040   42.7150 C   0  0  1  0  0  0  0  0  0  0  0  0
   51.0830   30.0010   43.8220 H   0  0  0  0  0  0  0  0  0  0  0  0
   49.8090   29.4230   42.2430 C   0  0  0  0  0  0  0  0  0  0  0  0
   48.9360   30.0450   42.5800 H   0  0  0  0  0  0  0  0  0  0  0  0
   49.8250   29.3640   41.1370 H   0  0  0  0  0  0  0  0  0  0  0  0
   49.6590   28.3970   42.6280 H   0  0  0  0  0  0  0  0  0  0  0  0
   52.2250   29.1180   42.2410 C   0  0  0  0  0  0  0  0  0  0  0  0
   52.2980   29.2940   41.1260 H   0  0  0  0  0  0  0  0  0  0  0  0
   51.9650   28.0460   42.4240 H   0  0  0  0  0  0  0  0  0  0  0  0
   53.5090   29.3730   42.7960 N   0  0  0  0  0  0  0  0  0  0  0  0
   53.6170   29.4580   44.1560 C   0  0  0  0  0  0  0  0  0  0  0  0
   54.7690   29.6850   44.8800 C   0  0  0  0  0  0  0  0  0  0  0  0
   55.9310   29.8440   44.1550 C   0  0  0  0  0  0  0  0  0  0  0  0
   57.1220   30.0790   44.8970 N   0  0  0  0  0  0  0  0  0  0  0  0
   55.8510   29.7650   42.8150 N   0  0  0  0  0  0  0  0  0  0  0  0
   54.6900   29.5410   42.1780 C   0  0  0  0  0  0  0  0  0  0  0  0
   54.6790   29.4800   40.9220 O   0  0  0  0  0  0  0  0  0  0  0  0
   57.3760   30.9060   45.4430 H   0  0  0  0  0  0  0  0  0  0  0  0
   57.6210   29.1770   44.7100 H   0  0  0  0  0  0  0  0  0  0  0  0
   49.8880   33.2470   41.5780 O   0  0  0  0  0  0  0  0  0  0  0  0
   48.4700   33.1180   41.6040 C   0  0  0  0  0  0  0  0  0  0  0  0
   48.1250   32.6620   42.4990 H   0  0  0  0  0  0  0  0  0  0  0  0
   48.2120   32.3550   40.7640 H   0  0  0  0  0  0  0  0  0  0  0  0
   47.9510   34.4220   41.1830 C   0  0  0  0  0  0  0  0  0  0  0  0
   44.1820   34.8070   41.3370 C   0  0  0  0  0  0  0  0  0  0  0  0
   45.4290   34.4210   40.8300 C   0  0  0  0  0  0  0  0  0  0  0  0
   46.5820   34.7490   41.5570 C   0  0  0  0  0  0  0  0  0  0  0  0
   46.4280   35.4290   42.7230 N   0  0  0  0  0  0  0  0  0  0  0  0
   45.1920   35.7860   43.1800 C   0  0  0  0  0  0  0  0  0  0  0  0
   44.0960   35.4830   42.5070 N   0  0  0  0  0  0  0  0  0  0  0  0
   45.5800   33.8790   39.9070 H   0  0  0  0  0  0  0  0  0  0  0  0
   45.0450   36.3240   44.0980 H   0  0  0  0  0  0  0  0  0  0  0  0
   43.0240   34.4310   40.5340 C   0  0  0  0  0  0  0  0  0  0  0  0
   42.4680   35.0780   39.6650 O   0  0  0  0  0  0  0  0  0  0  0  0
   42.6540   33.4250   40.7940 H   0  0  0  0  0  0  0  0  0  0  0  0
   48.8510   35.5890   41.4870 C   0  0  0  0  0  0  0  0  0  0  0  0
   48.3000   36.5510   41.4930 H   0  0  0  0  0  0  0  0  0  0  0  0
   49.7090   35.6980   40.8070 H   0  0  0  0  0  0  0  0  0  0  0  0
   49.2930   35.4890   42.5120 H   0  0  0  0  0  0  0  0  0  0  0  0
   48.0020   34.3410   39.6310 C   0  0  0  0  0  0  0  0  0  0  0  0
   47.5200   33.4030   39.3520 H   0  0  0  0  0  0  0  0  0  0  0  0
   47.5350   35.2530   39.2200 H   0  0  0  0  0  0  0  0  0  0  0  0
   49.0670   34.2660   39.3180 H   0  0  0  0  0  0  0  0  0  0  0  0
  1  4  1  6  0  0  0
  1 27  1  0  0  0  0
  1  3  1  0  0  0  0
  2  1  1  0  0  0  0
  2  3  1  0  0  0  0
  3  8  1  0  0  0  0
  3  7  1  1  0  0  0
  5  2  1  0  0  0  0
  6  2  1  0  0  0  0
  8  9  1  1  0  0  0
 10 11  1  0  0  0  0
 10 13  1  0  0  0  0
 10  8  1  0  0  0  0
 12 10  1  0  0  0  0
 14 16  1  0  0  0  0
 14  8  1  0  0  0  0
 14 17  1  0  0  0  0
 15 14  1  0  0  0  0
 17 18  1  0  0  0  0
 18 19  2  0  0  0  0
 20 19  1  0  0  0  0
 20 21  1  0  0  0  0
 21 25  1  0  0  0  0
 22 20  2  0  0  0  0
 23 17  1  0  0  0  0
 23 22  1  0  0  0  0
 24 23  2  0  0  0  0
 26 21  1  0  0  0  0
 27 28  1  0  0  0  0
 28 29  1  0  0  0  0
 30 28  1  0  0  0  0
 31 43  1  0  0  0  0
 31 34  1  0  0  0  0
 31 28  1  0  0  0  0
 32 37  1  0  0  0  0
 33 32  2  0  0  0  0
 33 34  1  0  0  0  0
 34 35  2  0  0  0  0
 35 36  1  0  0  0  0
 36 39  1  0  0  0  0
 37 36  2  0  0  0  0
 38 33  1  0  0  0  0
 40 42  1  0  0  0  0
 40 32  1  0  0  0  0
 41 40  2  0  0  0  0
 43 44  1  0  0  0  0
 43 46  1  0  0  0  0
 45 43  1  0  0  0  0
 47 31  1  0  0  0  0
 48 47  1  0  0  0  0
 49 47  1  0  0  0  0
 50 47  1  0  0  0  0
M  END
>  <minimizedAffinity>
-4.5287056

>  <minimizedRMSD>
3.33716774

$$$$
