
 OpenBabel03232521003D

 41 44  0  0  1  0  0  0  0  0999 V2000
   45.3130   32.9040   47.5110 C   0  0  0  0  0  0  0  0  0  0  0  0
   45.9060   32.6500   46.3160 C   0  0  0  0  0  0  0  0  0  0  0  0
   46.2110   31.3050   46.0910 C   0  0  0  0  0  0  0  0  0  0  0  0
   45.9460   30.3130   46.9790 N   0  0  0  0  0  0  0  0  0  0  0  0
   45.3390   30.6230   48.1860 C   0  0  0  0  0  0  0  0  0  0  0  0
   45.0400   31.8960   48.4200 N   0  0  0  0  0  0  0  0  0  0  0  0
   45.0590   29.6140   49.1390 N   0  0  0  0  0  0  0  0  0  0  0  0
   45.0390   33.9090   47.7890 H   0  0  0  0  0  0  0  0  0  0  0  0
   44.5340   28.8400   48.6370 H   0  0  0  0  0  0  0  0  0  0  0  0
   45.4380   29.8910   50.0800 H   0  0  0  0  0  0  0  0  0  0  0  0
   46.1600   33.6000   45.2850 C   0  0  2  0  0  0  0  0  0  0  0  0
   44.9450   34.6910   45.5060 C   0  0  0  0  0  0  0  0  0  0  0  0
   44.7190   35.6160   44.4320 C   0  0  0  0  0  0  0  0  0  0  0  0
   45.5260   35.5440   43.2130 C   0  0  1  0  0  0  0  0  0  0  0  0
   46.5860   34.5400   43.1690 C   0  0  0  0  0  0  0  0  0  0  0  0
   46.1360   33.3090   43.9230 C   0  0  0  0  0  0  0  0  0  0  0  0
   46.9720   34.3140   45.6200 H   0  0  0  0  0  0  0  0  0  0  0  0
   44.2620   34.8440   46.3320 H   0  0  0  0  0  0  0  0  0  0  0  0
   43.9510   36.3360   44.5330 H   0  0  0  0  0  0  0  0  0  0  0  0
   45.9410   36.5560   43.0280 H   0  0  0  0  0  0  0  0  0  0  0  0
   47.5870   34.8730   43.5310 H   0  0  0  0  0  0  0  0  0  0  0  0
   46.7690   34.2950   42.0810 H   0  0  0  0  0  0  0  0  0  0  0  0
   46.9920   32.6580   43.6010 H   0  0  0  0  0  0  0  0  0  0  0  0
   45.1810   32.9720   43.4670 H   0  0  0  0  0  0  0  0  0  0  0  0
   44.5210   35.2720   42.0560 C   0  0  0  0  0  0  0  0  0  0  0  0
   43.4630   34.4650   42.4460 F   0  0  0  0  0  0  0  0  0  0  0  0
   43.9670   36.5050   41.7210 F   0  0  0  0  0  0  0  0  0  0  0  0
   45.2000   34.8150   40.9420 F   0  0  0  0  0  0  0  0  0  0  0  0
   46.8950   30.6190   45.0100 C   0  0  0  0  0  0  0  0  0  0  0  0
   46.5970   29.8300   43.9460 C   0  0  0  0  0  0  0  0  0  0  0  0
   47.7940   29.4680   43.3180 C   0  0  0  0  0  0  0  0  0  0  0  0
   48.7580   30.0550   44.0290 N   0  0  0  0  0  0  0  0  0  0  0  0
   48.2530   30.7380   45.0300 N   0  0  0  0  0  0  0  0  0  0  0  0
   45.5570   29.6180   43.7620 H   0  0  0  0  0  0  0  0  0  0  0  0
   47.7810   28.8470   42.4550 H   0  0  0  0  0  0  0  0  0  0  0  0
   50.1060   29.8410   43.5880 C   0  0  0  0  0  0  0  0  0  0  0  0
   50.6930   30.3010   42.4420 C   0  0  0  0  0  3  0  0  0  0  0  0
   52.0060   29.8270   42.4720 C   0  0  0  0  0  3  0  0  0  0  0  0
   52.1280   29.1010   43.6500 C   0  0  0  0  0  0  0  0  0  0  0  0
   53.1060   28.6670   43.8110 H   0  0  0  0  0  0  0  0  0  0  0  0
   50.9800   29.1270   44.2940 O   0  0  0  0  0  0  0  0  0  0  0  0
  1  8  1  0  0  0  0
  1  6  1  0  0  0  0
  2  1  2  0  0  0  0
  3  2  1  0  0  0  0
  3  4  2  0  0  0  0
  4  5  1  0  0  0  0
  5  6  2  0  0  0  0
  5  7  1  0  0  0  0
  7 10  1  0  0  0  0
  9  7  1  0  0  0  0
 11 12  1  0  0  0  0
 11 17  1  1  0  0  0
 11  2  1  0  0  0  0
 12 18  1  0  0  0  0
 13 19  1  0  0  0  0
 13 12  2  0  0  0  0
 14 20  1  6  0  0  0
 14 13  1  0  0  0  0
 15 14  1  0  0  0  0
 15 21  1  0  0  0  0
 15 16  1  0  0  0  0
 16 11  1  0  0  0  0
 22 15  1  0  0  0  0
 23 16  1  0  0  0  0
 24 16  1  0  0  0  0
 25 26  1  0  0  0  0
 25 14  1  0  0  0  0
 27 25  1  0  0  0  0
 28 25  1  0  0  0  0
 29 33  2  0  0  0  0
 29  3  1  0  0  0  0
 30 29  1  0  0  0  0
 31 30  2  0  0  0  0
 31 32  1  0  0  0  0
 32 33  1  0  0  0  0
 34 30  1  0  0  0  0
 35 31  1  0  0  0  0
 36 32  1  0  0  0  0
 36 41  1  0  0  0  0
 37 38  1  0  0  0  0
 37 36  2  0  0  0  0
 38 39  2  0  0  0  0
 39 40  1  0  0  0  0
 39 41  1  0  0  0  0
M  END
>  <minimizedAffinity>
-5.67917395

>  <minimizedRMSD>
0.25785616

$$$$
