
 OpenBabel03232521003D

 41 44  0  0  1  0  0  0  0  0999 V2000
   45.3540   32.8810   47.5000 C   0  0  0  0  0  0  0  0  0  0  0  0
   45.9200   32.6360   46.2900 C   0  0  0  0  0  0  0  0  0  0  0  0
   46.2010   31.2900   46.0410 C   0  0  0  0  0  0  0  0  0  0  0  0
   45.9380   30.2900   46.9200 N   0  0  0  0  0  0  0  0  0  0  0  0
   45.3590   30.5910   48.1430 C   0  0  0  0  0  0  0  0  0  0  0  0
   45.0840   31.8650   48.4000 N   0  0  0  0  0  0  0  0  0  0  0  0
   45.0840   29.5730   49.0880 N   0  0  0  0  0  0  0  0  0  0  0  0
   45.1000   33.8870   47.7970 H   0  0  0  0  0  0  0  0  0  0  0  0
   44.5370   28.8140   48.5860 H   0  0  0  0  0  0  0  0  0  0  0  0
   45.4840   29.8320   50.0260 H   0  0  0  0  0  0  0  0  0  0  0  0
   46.1670   33.5960   45.2680 C   0  0  2  0  0  0  0  0  0  0  0  0
   44.9500   34.6810   45.5020 C   0  0  0  0  0  0  0  0  0  0  0  0
   44.7180   35.6150   44.4370 C   0  0  0  0  0  0  0  0  0  0  0  0
   45.5210   35.5570   43.2150 C   0  0  1  0  0  0  0  0  0  0  0  0
   46.5850   34.5570   43.1590 C   0  0  0  0  0  0  0  0  0  0  0  0
   46.1410   33.3180   43.9030 C   0  0  0  0  0  0  0  0  0  0  0  0
   46.9790   34.3090   45.6070 H   0  0  0  0  0  0  0  0  0  0  0  0
   44.2690   34.8240   46.3310 H   0  0  0  0  0  0  0  0  0  0  0  0
   43.9470   36.3310   44.5480 H   0  0  0  0  0  0  0  0  0  0  0  0
   45.9330   36.5720   43.0390 H   0  0  0  0  0  0  0  0  0  0  0  0
   47.5860   34.8900   43.5210 H   0  0  0  0  0  0  0  0  0  0  0  0
   46.7650   34.3230   42.0680 H   0  0  0  0  0  0  0  0  0  0  0  0
   46.9970   32.6720   43.5720 H   0  0  0  0  0  0  0  0  0  0  0  0
   45.1860   32.9820   43.4470 H   0  0  0  0  0  0  0  0  0  0  0  0
   44.5130   35.2920   42.0590 C   0  0  0  0  0  0  0  0  0  0  0  0
   43.4490   34.4950   42.4500 F   0  0  0  0  0  0  0  0  0  0  0  0
   43.9700   36.5300   41.7230 F   0  0  0  0  0  0  0  0  0  0  0  0
   45.1890   34.8290   40.9460 F   0  0  0  0  0  0  0  0  0  0  0  0
   46.8530   30.6090   44.9380 C   0  0  0  0  0  0  0  0  0  0  0  0
   46.5230   29.8430   43.8660 C   0  0  0  0  0  0  0  0  0  0  0  0
   47.7020   29.4700   43.2120 C   0  0  0  0  0  0  0  0  0  0  0  0
   48.6890   30.0260   43.9170 N   0  0  0  0  0  0  0  0  0  0  0  0
   48.2140   30.7020   44.9370 N   0  0  0  0  0  0  0  0  0  0  0  0
   45.4770   29.6540   43.6960 H   0  0  0  0  0  0  0  0  0  0  0  0
   47.6640   28.8630   42.3400 H   0  0  0  0  0  0  0  0  0  0  0  0
   50.0250   29.7940   43.4490 C   0  0  0  0  0  0  0  0  0  0  0  0
   50.8570   30.6800   42.8240 C   0  0  0  0  0  3  0  0  0  0  0  0
   52.0390   29.9800   42.5730 C   0  0  0  0  0  3  0  0  0  0  0  0
   51.8400   28.6980   43.0710 C   0  0  0  0  0  0  0  0  0  0  0  0
   52.6850   28.0340   42.9460 H   0  0  0  0  0  0  0  0  0  0  0  0
   50.6330   28.6170   43.5880 O   0  0  0  0  0  0  0  0  0  0  0  0
  1  8  1  0  0  0  0
  1  6  1  0  0  0  0
  2  1  2  0  0  0  0
  3  2  1  0  0  0  0
  3  4  2  0  0  0  0
  4  5  1  0  0  0  0
  5  6  2  0  0  0  0
  5  7  1  0  0  0  0
  7 10  1  0  0  0  0
  9  7  1  0  0  0  0
 11 12  1  0  0  0  0
 11 17  1  1  0  0  0
 11  2  1  0  0  0  0
 12 18  1  0  0  0  0
 13 19  1  0  0  0  0
 13 12  2  0  0  0  0
 14 20  1  6  0  0  0
 14 13  1  0  0  0  0
 15 14  1  0  0  0  0
 15 21  1  0  0  0  0
 15 16  1  0  0  0  0
 16 11  1  0  0  0  0
 22 15  1  0  0  0  0
 23 16  1  0  0  0  0
 24 16  1  0  0  0  0
 25 26  1  0  0  0  0
 25 14  1  0  0  0  0
 27 25  1  0  0  0  0
 28 25  1  0  0  0  0
 29  3  1  0  0  0  0
 30 29  1  0  0  0  0
 31 30  2  0  0  0  0
 31 32  1  0  0  0  0
 32 33  1  0  0  0  0
 33 29  2  0  0  0  0
 34 30  1  0  0  0  0
 35 31  1  0  0  0  0
 36 41  1  0  0  0  0
 36 32  1  0  0  0  0
 37 36  2  0  0  0  0
 38 37  1  0  0  0  0
 38 39  2  0  0  0  0
 39 41  1  0  0  0  0
 40 39  1  0  0  0  0
M  END
>  <minimizedAffinity>
-5.72517061

>  <minimizedRMSD>
0.186233982

$$$$
