
 OpenBabel03232519253D

 25 26  0  0  0  0  0  0  0  0999 V2000
   47.5380   34.8290   41.4850 C   0  0  0  0  0  0  0  0  0  0  0  0
   47.3980   35.3180   40.5170 H   0  0  0  0  0  0  0  0  0  0  0  0
   47.6610   35.5360   42.3270 H   0  0  0  0  0  0  0  0  0  0  0  0
   48.7370   33.9780   41.4800 N   0  0  0  0  0  0  0  0  0  0  0  0
   49.6010   34.2260   42.4800 C   0  0  0  0  0  0  0  0  0  0  0  0
   50.7410   33.4230   42.4810 C   0  0  0  0  0  0  0  0  0  0  0  0
   50.9250   32.4590   41.5100 C   0  0  0  0  0  0  0  0  0  0  0  0
   52.0900   31.6760   41.5550 N   0  0  0  0  0  0  0  0  0  0  0  0
   49.9950   32.2810   40.5380 N   0  0  0  0  0  0  0  0  0  0  0  0
   48.8930   33.0460   40.5230 C   0  0  0  0  0  0  0  0  0  0  0  0
   48.0000   32.9100   39.6290 O   0  0  0  0  0  0  0  0  0  0  0  0
   52.6180   30.9040   42.0020 H   0  0  0  0  0  0  0  0  0  0  0  0
   52.6580   32.0900   40.7630 H   0  0  0  0  0  0  0  0  0  0  0  0
   46.3350   33.9480   41.8460 C   0  0  0  0  0  0  0  0  0  0  0  0
   46.6860   32.9020   41.8270 H   0  0  0  0  0  0  0  0  0  0  0  0
   45.6190   34.1160   41.0190 H   0  0  0  0  0  0  0  0  0  0  0  0
   45.1490   35.6600   43.1500 C   0  0  0  0  0  0  0  0  0  0  0  0
   45.7820   34.4090   43.0980 C   0  0  0  0  0  0  0  0  0  0  0  0
   45.8390   33.6750   44.2860 C   0  0  0  0  0  0  0  0  0  0  0  0
   45.2910   34.1930   45.4080 N   0  0  0  0  0  0  0  0  0  0  0  0
   44.6880   35.4060   45.4140 C   0  0  0  0  0  0  0  0  0  0  0  0
   44.6180   36.1330   44.2910 N   0  0  0  0  0  0  0  0  0  0  0  0
   45.0980   36.2380   42.2350 H   0  0  0  0  0  0  0  0  0  0  0  0
   46.3190   32.7050   44.2880 H   0  0  0  0  0  0  0  0  0  0  0  0
   44.2340   35.8660   46.2820 H   0  0  0  0  0  0  0  0  0  0  0  0
  1 14  1  0  0  0  0
  1  3  1  0  0  0  0
  2  1  1  0  0  0  0
  4  1  1  0  0  0  0
  4  5  1  0  0  0  0
  5  6  2  0  0  0  0
  7  8  1  0  0  0  0
  7  6  1  0  0  0  0
  8 12  1  0  0  0  0
  9  7  2  0  0  0  0
 10  9  1  0  0  0  0
 10  4  1  0  0  0  0
 11 10  2  0  0  0  0
 13  8  1  0  0  0  0
 14 18  1  0  0  0  0
 15 14  1  0  0  0  0
 16 14  1  0  0  0  0
 17 22  1  0  0  0  0
 18 17  2  0  0  0  0
 18 19  1  0  0  0  0
 19 24  1  0  0  0  0
 19 20  2  0  0  0  0
 20 21  1  0  0  0  0
 21 25  1  0  0  0  0
 22 21  2  0  0  0  0
 23 17  1  0  0  0  0
M  END
>  <minimizedAffinity>
-4.59187889

>  <minimizedRMSD>
3.57086825

$$$$
