
 OpenBabel03232521003D

 41 44  0  0  1  0  0  0  0  0999 V2000
   45.3540   32.8870   47.5020 C   0  0  0  0  0  0  0  0  0  0  0  0
   45.9200   32.6400   46.2930 C   0  0  0  0  0  0  0  0  0  0  0  0
   46.2000   31.2940   46.0450 C   0  0  0  0  0  0  0  0  0  0  0  0
   45.9380   30.2950   46.9260 N   0  0  0  0  0  0  0  0  0  0  0  0
   45.3600   30.5990   48.1490 C   0  0  0  0  0  0  0  0  0  0  0  0
   45.0850   31.8730   48.4040 N   0  0  0  0  0  0  0  0  0  0  0  0
   45.0850   29.5820   49.0960 N   0  0  0  0  0  0  0  0  0  0  0  0
   45.1010   33.8940   47.7980 H   0  0  0  0  0  0  0  0  0  0  0  0
   44.5380   28.8220   48.5950 H   0  0  0  0  0  0  0  0  0  0  0  0
   45.4860   29.8430   50.0320 H   0  0  0  0  0  0  0  0  0  0  0  0
   46.1670   33.5990   45.2690 C   0  0  2  0  0  0  0  0  0  0  0  0
   44.9500   34.6840   45.5020 C   0  0  0  0  0  0  0  0  0  0  0  0
   44.7170   35.6160   44.4360 C   0  0  0  0  0  0  0  0  0  0  0  0
   45.5200   35.5560   43.2130 C   0  0  1  0  0  0  0  0  0  0  0  0
   46.5830   34.5560   43.1590 C   0  0  0  0  0  0  0  0  0  0  0  0
   46.1400   33.3180   43.9040 C   0  0  0  0  0  0  0  0  0  0  0  0
   46.9780   34.3120   45.6060 H   0  0  0  0  0  0  0  0  0  0  0  0
   44.2690   34.8280   46.3310 H   0  0  0  0  0  0  0  0  0  0  0  0
   43.9460   36.3330   44.5450 H   0  0  0  0  0  0  0  0  0  0  0  0
   45.9310   36.5710   43.0350 H   0  0  0  0  0  0  0  0  0  0  0  0
   47.5840   34.8910   43.5200 H   0  0  0  0  0  0  0  0  0  0  0  0
   46.7640   34.3210   42.0680 H   0  0  0  0  0  0  0  0  0  0  0  0
   46.9960   32.6720   43.5740 H   0  0  0  0  0  0  0  0  0  0  0  0
   45.1850   32.9820   43.4490 H   0  0  0  0  0  0  0  0  0  0  0  0
   44.5110   35.2900   42.0570 C   0  0  0  0  0  0  0  0  0  0  0  0
   43.4490   34.4900   42.4490 F   0  0  0  0  0  0  0  0  0  0  0  0
   43.9660   36.5260   41.7220 F   0  0  0  0  0  0  0  0  0  0  0  0
   45.1870   34.8280   40.9440 F   0  0  0  0  0  0  0  0  0  0  0  0
   46.8520   30.6110   44.9430 C   0  0  0  0  0  0  0  0  0  0  0  0
   46.5210   29.8440   43.8730 C   0  0  0  0  0  0  0  0  0  0  0  0
   47.7000   29.4690   43.2180 C   0  0  0  0  0  0  0  0  0  0  0  0
   48.6880   30.0270   43.9210 N   0  0  0  0  0  0  0  0  0  0  0  0
   48.2130   30.7040   44.9410 N   0  0  0  0  0  0  0  0  0  0  0  0
   45.4750   29.6540   43.7030 H   0  0  0  0  0  0  0  0  0  0  0  0
   47.6610   28.8610   42.3470 H   0  0  0  0  0  0  0  0  0  0  0  0
   50.0230   29.7940   43.4540 C   0  0  0  0  0  0  0  0  0  0  0  0
   50.8550   30.6810   42.8290 C   0  0  0  0  0  3  0  0  0  0  0  0
   52.0360   29.9810   42.5750 C   0  0  0  0  0  3  0  0  0  0  0  0
   51.8370   28.6980   43.0710 C   0  0  0  0  0  0  0  0  0  0  0  0
   52.6810   28.0330   42.9450 H   0  0  0  0  0  0  0  0  0  0  0  0
   50.6290   28.6170   43.5890 O   0  0  0  0  0  0  0  0  0  0  0  0
  1  8  1  0  0  0  0
  1  6  1  0  0  0  0
  2  1  2  0  0  0  0
  3  2  1  0  0  0  0
  3  4  2  0  0  0  0
  4  5  1  0  0  0  0
  5  6  2  0  0  0  0
  5  7  1  0  0  0  0
  7 10  1  0  0  0  0
  9  7  1  0  0  0  0
 11 12  1  0  0  0  0
 11 17  1  1  0  0  0
 11  2  1  0  0  0  0
 12 18  1  0  0  0  0
 13 19  1  0  0  0  0
 13 12  2  0  0  0  0
 14 20  1  6  0  0  0
 14 13  1  0  0  0  0
 15 14  1  0  0  0  0
 15 21  1  0  0  0  0
 15 16  1  0  0  0  0
 16 11  1  0  0  0  0
 22 15  1  0  0  0  0
 23 16  1  0  0  0  0
 24 16  1  0  0  0  0
 25 26  1  0  0  0  0
 25 14  1  0  0  0  0
 27 25  1  0  0  0  0
 28 25  1  0  0  0  0
 29  3  1  0  0  0  0
 30 29  1  0  0  0  0
 31 30  2  0  0  0  0
 31 32  1  0  0  0  0
 32 33  1  0  0  0  0
 33 29  2  0  0  0  0
 34 30  1  0  0  0  0
 35 31  1  0  0  0  0
 36 41  1  0  0  0  0
 36 32  1  0  0  0  0
 37 36  2  0  0  0  0
 38 37  1  0  0  0  0
 38 39  2  0  0  0  0
 39 41  1  0  0  0  0
 40 39  1  0  0  0  0
M  END
>  <minimizedAffinity>
-5.72678566

>  <minimizedRMSD>
0.343355536

$$$$
