
 OpenBabel03232519593D

 26 28  0  0  1  0  0  0  0  0999 V2000
   45.3180   34.0250   42.3600 N   0  0  0  0  0  0  0  0  0  0  0  0
   46.2930   34.3920   41.5760 C   0  0  0  0  0  0  0  0  0  0  0  0
   45.9480   34.1250   40.2460 C   0  0  0  0  0  0  0  0  0  0  0  0
   44.7250   33.5840   40.2730 N   0  0  0  0  0  0  0  0  0  0  0  0
   44.3240   33.5150   41.5620 C   0  0  0  0  0  0  0  0  0  0  0  0
   46.3630   34.2250   39.2540 H   0  0  0  0  0  0  0  0  0  0  0  0
   43.3720   33.1230   41.9250 H   0  0  0  0  0  0  0  0  0  0  0  0
   44.6240   35.2760   44.2630 C   0  0  0  0  0  0  0  0  0  0  0  0
   45.2300   34.0980   43.7450 C   0  0  0  0  0  0  0  0  0  0  0  0
   45.6620   33.1580   44.6710 C   0  0  0  0  0  0  0  0  0  0  0  0
   45.4890   33.4080   45.9910 N   0  0  0  0  0  0  0  0  0  0  0  0
   44.9120   34.5350   46.4360 C   0  0  0  0  0  0  0  0  0  0  0  0
   44.4820   35.4620   45.5820 N   0  0  0  0  0  0  0  0  0  0  0  0
   44.2500   36.0750   43.6380 H   0  0  0  0  0  0  0  0  0  0  0  0
   46.1040   32.3060   44.2090 H   0  0  0  0  0  0  0  0  0  0  0  0
   44.8800   34.5170   47.5170 H   0  0  0  0  0  0  0  0  0  0  0  0
   47.6220   35.0240   41.8170 C   0  0  2  0  0  0  0  0  0  0  0  0
   48.5420   35.2210   40.6300 C   0  0  0  0  0  0  0  0  0  0  0  0
   48.8690   34.1710   41.6340 C   0  0  1  0  0  0  0  0  0  0  0  0
   47.7040   35.6640   42.7190 H   0  0  0  0  0  0  0  0  0  0  0  0
   48.1640   34.9700   39.6290 H   0  0  0  0  0  0  0  0  0  0  0  0
   49.1010   36.1990   40.6880 H   0  0  0  0  0  0  0  0  0  0  0  0
   48.6430   33.1220   41.3470 H   0  0  0  0  0  0  0  0  0  0  0  0
   50.0880   34.4390   42.4640 C   0  0  0  0  0  0  0  0  0  0  0  0
   51.0130   33.2350   42.3550 C   0  0  0  0  0  0  0  0  0  0  0  0
   51.6630   33.2230   43.2540 H   0  0  0  0  0  0  0  0  0  0  0  0
  1  9  1  0  0  0  0
  2 17  1  0  0  0  0
  2  1  1  0  0  0  0
  3  4  1  0  0  0  0
  3  2  2  0  0  0  0
  4  5  2  0  0  0  0
  5  7  1  0  0  0  0
  5  1  1  0  0  0  0
  6  3  1  0  0  0  0
  8 13  1  0  0  0  0
  9  8  2  0  0  0  0
  9 10  1  0  0  0  0
 10 11  2  0  0  0  0
 11 12  1  0  0  0  0
 12 16  1  0  0  0  0
 13 12  2  0  0  0  0
 14  8  1  0  0  0  0
 15 10  1  0  0  0  0
 17 20  1  1  0  0  0
 18 22  1  0  0  0  0
 18 19  1  0  0  0  0
 18 17  1  0  0  0  0
 19 23  1  6  0  0  0
 19 17  1  0  0  0  0
 19 24  1  0  0  0  0
 21 18  1  0  0  0  0
 25 24  1  0  0  0  0
 25 26  1  0  0  0  0
M  END
>  <minimizedAffinity>
-4.54621029

>  <minimizedRMSD>
1.04788303

$$$$
