
 OpenBabel03232520133D

 28 29  0  0  0  0  0  0  0  0999 V2000
   47.5230   34.1280   42.2330 C   0  0  0  0  0  0  0  0  0  0  0  0
   48.3570   35.2330   41.6860 C   0  0  0  0  0  0  0  0  0  0  0  0
   49.7230   35.3710   42.2900 C   0  0  0  0  0  0  0  0  0  0  0  0
   50.4520   34.0820   42.4850 C   0  0  0  0  0  0  0  0  0  0  0  0
   49.6050   32.8700   42.1870 C   0  0  0  0  0  0  0  0  0  0  0  0
   48.3080   33.0500   42.9430 C   0  0  0  0  0  0  0  0  0  0  0  0
   47.8170   36.1910   41.8420 H   0  0  0  0  0  0  0  0  0  0  0  0
   48.4940   35.1590   40.5680 H   0  0  0  0  0  0  0  0  0  0  0  0
   50.3380   35.9890   41.5880 H   0  0  0  0  0  0  0  0  0  0  0  0
   49.6580   35.9890   43.2140 H   0  0  0  0  0  0  0  0  0  0  0  0
   50.7230   34.0200   43.5800 H   0  0  0  0  0  0  0  0  0  0  0  0
   51.4410   34.0370   41.9630 H   0  0  0  0  0  0  0  0  0  0  0  0
   50.1240   31.9970   42.6770 H   0  0  0  0  0  0  0  0  0  0  0  0
   49.4850   32.6400   41.1300 H   0  0  0  0  0  0  0  0  0  0  0  0
   48.5510   33.4260   43.9510 H   0  0  0  0  0  0  0  0  0  0  0  0
   47.6720   32.1500   42.9460 H   0  0  0  0  0  0  0  0  0  0  0  0
   45.2590   34.4360   45.1290 C   0  0  0  0  0  0  0  0  0  0  0  0
   44.5480   35.6090   44.8550 C   0  0  0  0  0  0  0  0  0  0  0  0
   44.8310   36.2960   43.6830 C   0  0  0  0  0  0  0  0  0  0  0  0
   45.7900   35.7630   42.8850 N   0  0  0  0  0  0  0  0  0  0  0  0
   46.4660   34.6430   43.1500 C   0  0  0  0  0  0  0  0  0  0  0  0
   46.1950   33.9780   44.2800 N   0  0  0  0  0  0  0  0  0  0  0  0
   45.0580   33.8680   46.0500 H   0  0  0  0  0  0  0  0  0  0  0  0
   43.7880   35.9850   45.5400 H   0  0  0  0  0  0  0  0  0  0  0  0
   44.3250   37.2080   43.4020 H   0  0  0  0  0  0  0  0  0  0  0  0
   46.8120   33.4540   41.0610 C   0  0  0  0  0  0  0  0  0  0  0  0
   47.2430   33.9860   39.7320 C   0  0  0  0  0  0  0  0  0  0  0  0
   48.2120   34.5110   39.7220 H   0  0  0  0  0  0  0  0  0  0  0  0
  1  6  1  0  0  0  0
  1 21  1  0  0  0  0
  2  7  1  0  0  0  0
  2  1  1  0  0  0  0
  2  3  1  0  0  0  0
  3  4  1  0  0  0  0
  3 10  1  0  0  0  0
  4 11  1  0  0  0  0
  5  4  1  0  0  0  0
  5 13  1  0  0  0  0
  5  6  1  0  0  0  0
  6 16  1  0  0  0  0
  6 15  1  0  0  0  0
  8  2  1  0  0  0  0
  9  3  1  0  0  0  0
 12  4  1  0  0  0  0
 14  5  1  0  0  0  0
 17 23  1  0  0  0  0
 18 17  1  0  0  0  0
 18 24  1  0  0  0  0
 19 18  2  0  0  0  0
 20 21  2  0  0  0  0
 20 19  1  0  0  0  0
 21 22  1  0  0  0  0
 22 17  2  0  0  0  0
 25 19  1  0  0  0  0
 26  1  1  0  0  0  0
 27 26  1  0  0  0  0
 28 27  1  0  0  0  0
M  END
>  <minimizedAffinity>
-4.97541904

>  <minimizedRMSD>
0.544508398

$$$$
