
 OpenBabel03232520593D

 41 44  0  0  1  0  0  0  0  0999 V2000
   45.3260   32.9180   47.4570 C   0  0  0  0  0  0  0  0  0  0  0  0
   45.9130   32.6750   46.2570 C   0  0  0  0  0  0  0  0  0  0  0  0
   46.2320   31.3340   46.0250 C   0  0  0  0  0  0  0  0  0  0  0  0
   45.9850   30.3370   46.9110 N   0  0  0  0  0  0  0  0  0  0  0  0
   45.3830   30.6350   48.1240 C   0  0  0  0  0  0  0  0  0  0  0  0
   45.0720   31.9040   48.3640 N   0  0  0  0  0  0  0  0  0  0  0  0
   45.1220   29.6200   49.0760 N   0  0  0  0  0  0  0  0  0  0  0  0
   45.0420   33.9190   47.7400 H   0  0  0  0  0  0  0  0  0  0  0  0
   44.6020   28.8410   48.5750 H   0  0  0  0  0  0  0  0  0  0  0  0
   45.5040   29.8990   50.0150 H   0  0  0  0  0  0  0  0  0  0  0  0
   46.1490   33.6310   45.2280 C   0  0  2  0  0  0  0  0  0  0  0  0
   44.9370   34.7180   45.4740 C   0  0  0  0  0  0  0  0  0  0  0  0
   44.6910   35.6490   44.4090 C   0  0  0  0  0  0  0  0  0  0  0  0
   45.4780   35.5850   43.1760 C   0  0  1  0  0  0  0  0  0  0  0  0
   46.5400   34.5830   43.1100 C   0  0  0  0  0  0  0  0  0  0  0  0
   46.1040   33.3470   43.8640 C   0  0  0  0  0  0  0  0  0  0  0  0
   46.9660   34.3440   45.5530 H   0  0  0  0  0  0  0  0  0  0  0  0
   44.2670   34.8660   46.3110 H   0  0  0  0  0  0  0  0  0  0  0  0
   43.9230   36.3670   44.5260 H   0  0  0  0  0  0  0  0  0  0  0  0
   45.8890   36.5990   42.9910 H   0  0  0  0  0  0  0  0  0  0  0  0
   47.5460   34.9170   43.4570 H   0  0  0  0  0  0  0  0  0  0  0  0
   46.7050   34.3450   42.0170 H   0  0  0  0  0  0  0  0  0  0  0  0
   46.9550   32.6990   43.5240 H   0  0  0  0  0  0  0  0  0  0  0  0
   45.1420   33.0120   43.4220 H   0  0  0  0  0  0  0  0  0  0  0  0
   44.4550   35.3180   42.0340 C   0  0  0  0  0  0  0  0  0  0  0  0
   43.3910   34.5280   42.4440 F   0  0  0  0  0  0  0  0  0  0  0  0
   43.9140   36.5550   41.6960 F   0  0  0  0  0  0  0  0  0  0  0  0
   45.1140   34.8430   40.9160 F   0  0  0  0  0  0  0  0  0  0  0  0
   46.9160   30.6590   44.9370 C   0  0  0  0  0  0  0  0  0  0  0  0
   46.6280   29.8250   43.9050 C   0  0  0  0  0  0  0  0  0  0  0  0
   47.8200   29.5170   43.2420 C   0  0  0  0  0  0  0  0  0  0  0  0
   48.7730   30.1780   43.9010 N   0  0  0  0  0  0  0  0  0  0  0  0
   48.2650   30.8580   44.9030 N   0  0  0  0  0  0  0  0  0  0  0  0
   45.5970   29.5480   43.7660 H   0  0  0  0  0  0  0  0  0  0  0  0
   47.8140   28.8720   42.3970 H   0  0  0  0  0  0  0  0  0  0  0  0
   50.1150   30.0300   43.4150 C   0  0  0  0  0  0  0  0  0  0  0  0
   51.1620   29.4070   44.0340 C   0  0  0  0  0  3  0  0  0  0  0  0
   52.2470   29.5310   43.1640 C   0  0  0  0  0  3  0  0  0  0  0  0
   51.7760   30.2320   42.0600 C   0  0  0  0  0  0  0  0  0  0  0  0
   52.5160   30.4070   41.2910 H   0  0  0  0  0  0  0  0  0  0  0  0
   50.5030   30.5160   42.2390 O   0  0  0  0  0  0  0  0  0  0  0  0
  1  8  1  0  0  0  0
  1  6  1  0  0  0  0
  2  1  2  0  0  0  0
  3  2  1  0  0  0  0
  3  4  2  0  0  0  0
  4  5  1  0  0  0  0
  5  6  2  0  0  0  0
  5  7  1  0  0  0  0
  7 10  1  0  0  0  0
  9  7  1  0  0  0  0
 11 12  1  0  0  0  0
 11 17  1  1  0  0  0
 11  2  1  0  0  0  0
 12 18  1  0  0  0  0
 13 19  1  0  0  0  0
 13 12  2  0  0  0  0
 14 20  1  6  0  0  0
 14 13  1  0  0  0  0
 15 14  1  0  0  0  0
 15 21  1  0  0  0  0
 15 16  1  0  0  0  0
 16 11  1  0  0  0  0
 22 15  1  0  0  0  0
 23 16  1  0  0  0  0
 24 16  1  0  0  0  0
 25 26  1  0  0  0  0
 25 14  1  0  0  0  0
 27 25  1  0  0  0  0
 28 25  1  0  0  0  0
 29  3  1  0  0  0  0
 30 29  1  0  0  0  0
 31 32  1  0  0  0  0
 31 30  2  0  0  0  0
 32 33  1  0  0  0  0
 33 29  2  0  0  0  0
 34 30  1  0  0  0  0
 35 31  1  0  0  0  0
 36 32  1  0  0  0  0
 36 37  2  0  0  0  0
 38 37  1  0  0  0  0
 39 41  1  0  0  0  0
 39 38  2  0  0  0  0
 40 39  1  0  0  0  0
 41 36  1  0  0  0  0
M  END
>  <minimizedAffinity>
-5.70615911

>  <minimizedRMSD>
0.349611491

$$$$
