
 OpenBabel03232518413D

 19 19  0  0  0  0  0  0  0  0999 V2000
   44.7150   35.3990   45.0170 C   0  0  0  0  0  0  0  0  0  0  0  0
   45.5620   34.8620   44.0420 C   0  0  0  0  0  0  0  0  0  0  0  0
   46.2640   33.7060   44.3420 C   0  0  0  0  0  0  0  0  0  0  0  0
   46.0560   33.1860   45.5940 N   0  0  0  0  0  0  0  0  0  0  0  0
   45.2510   33.7010   46.5110 C   0  0  0  0  0  0  0  0  0  0  0  0
   44.5800   34.8150   46.2100 N   0  0  0  0  0  0  0  0  0  0  0  0
   44.1840   36.3000   44.7500 H   0  0  0  0  0  0  0  0  0  0  0  0
   45.7040   35.5140   42.7180 C   0  0  0  0  0  0  0  0  0  0  0  0
   44.9940   36.7280   42.7770 F   0  0  0  0  0  0  0  0  0  0  0  0
   45.0770   34.8140   41.7320 F   0  0  0  0  0  0  0  0  0  0  0  0
   47.0030   35.7820   42.3950 F   0  0  0  0  0  0  0  0  0  0  0  0
   45.0530   33.1660   47.7690 O   0  0  0  0  0  0  0  0  0  0  0  0
   45.8620   32.1580   48.3320 C   0  0  0  0  0  0  0  0  0  0  0  0
   47.1870   32.5540   48.3700 F   0  0  0  0  0  0  0  0  0  0  0  0
   45.6570   30.9530   47.7140 F   0  0  0  0  0  0  0  0  0  0  0  0
   45.4770   32.0480   49.6800 F   0  0  0  0  0  0  0  0  0  0  0  0
   47.1810   33.0240   43.4280 C   0  0  0  0  0  0  0  0  0  0  0  0
   47.6590   31.6720   43.9310 C   0  0  0  0  0  0  0  0  0  0  0  0
   47.8160   31.7330   45.0420 H   0  0  0  0  0  0  0  0  0  0  0  0
  1  6  1  0  0  0  0
  2  3  1  0  0  0  0
  2  1  2  0  0  0  0
  3  4  2  0  0  0  0
  4  5  1  0  0  0  0
  5 12  1  0  0  0  0
  6  5  2  0  0  0  0
  7  1  1  0  0  0  0
  8  9  1  0  0  0  0
  8  2  1  0  0  0  0
 10  8  1  0  0  0  0
 11  8  1  0  0  0  0
 12 13  1  0  0  0  0
 13 14  1  0  0  0  0
 13 16  1  0  0  0  0
 15 13  1  0  0  0  0
 17 18  1  0  0  0  0
 17  3  1  0  0  0  0
 18 19  1  0  0  0  0
M  END
>  <minimizedAffinity>
-4.92188025

>  <minimizedRMSD>
0.287550658

$$$$
