
 OpenBabel03232521003D

 41 44  0  0  1  0  0  0  0  0999 V2000
   45.4610   32.8580   47.5100 C   0  0  0  0  0  0  0  0  0  0  0  0
   45.9440   32.6110   46.2650 C   0  0  0  0  0  0  0  0  0  0  0  0
   46.1370   31.2590   45.9740 C   0  0  0  0  0  0  0  0  0  0  0  0
   45.8710   30.2540   46.8460 N   0  0  0  0  0  0  0  0  0  0  0  0
   45.3780   30.5570   48.1060 C   0  0  0  0  0  0  0  0  0  0  0  0
   45.1870   31.8380   48.4040 N   0  0  0  0  0  0  0  0  0  0  0  0
   45.1000   29.5340   49.0450 N   0  0  0  0  0  0  0  0  0  0  0  0
   45.2790   33.8690   47.8410 H   0  0  0  0  0  0  0  0  0  0  0  0
   44.4860   28.8160   48.5590 H   0  0  0  0  0  0  0  0  0  0  0  0
   45.5660   29.7500   49.9620 H   0  0  0  0  0  0  0  0  0  0  0  0
   46.1860   33.5800   45.2500 C   0  0  2  0  0  0  0  0  0  0  0  0
   44.9640   34.6570   45.4940 C   0  0  0  0  0  0  0  0  0  0  0  0
   44.7260   35.5980   44.4360 C   0  0  0  0  0  0  0  0  0  0  0  0
   45.5290   35.5530   43.2120 C   0  0  1  0  0  0  0  0  0  0  0  0
   46.5970   34.5590   43.1490 C   0  0  0  0  0  0  0  0  0  0  0  0
   46.1600   33.3120   43.8830 C   0  0  0  0  0  0  0  0  0  0  0  0
   46.9940   34.2950   45.5940 H   0  0  0  0  0  0  0  0  0  0  0  0
   44.2830   34.7910   46.3240 H   0  0  0  0  0  0  0  0  0  0  0  0
   43.9520   36.3100   44.5520 H   0  0  0  0  0  0  0  0  0  0  0  0
   45.9350   36.5720   43.0440 H   0  0  0  0  0  0  0  0  0  0  0  0
   47.5970   34.8950   43.5120 H   0  0  0  0  0  0  0  0  0  0  0  0
   46.7780   34.3340   42.0550 H   0  0  0  0  0  0  0  0  0  0  0  0
   47.0200   32.6730   43.5460 H   0  0  0  0  0  0  0  0  0  0  0  0
   45.2070   32.9750   43.4250 H   0  0  0  0  0  0  0  0  0  0  0  0
   44.5210   35.2920   42.0550 C   0  0  0  0  0  0  0  0  0  0  0  0
   43.4500   34.5040   42.4460 F   0  0  0  0  0  0  0  0  0  0  0  0
   43.9880   36.5320   41.7140 F   0  0  0  0  0  0  0  0  0  0  0  0
   45.1960   34.8200   40.9450 F   0  0  0  0  0  0  0  0  0  0  0  0
   46.6900   30.5690   44.8220 C   0  0  0  0  0  0  0  0  0  0  0  0
   46.2570   29.8880   43.7300 C   0  0  0  0  0  0  0  0  0  0  0  0
   47.3750   29.4340   43.0220 C   0  0  0  0  0  0  0  0  0  0  0  0
   48.4310   29.8630   43.7170 N   0  0  0  0  0  0  0  0  0  0  0  0
   48.0520   30.5330   44.7800 N   0  0  0  0  0  0  0  0  0  0  0  0
   45.1930   29.8060   43.5870 H   0  0  0  0  0  0  0  0  0  0  0  0
   47.2530   28.8740   42.1270 H   0  0  0  0  0  0  0  0  0  0  0  0
   49.7240   29.5260   43.1960 C   0  0  0  0  0  0  0  0  0  0  0  0
   50.9340   30.0450   43.5670 C   0  0  0  0  0  3  0  0  0  0  0  0
   51.8840   29.3980   42.7740 C   0  0  0  0  0  3  0  0  0  0  0  0
   51.1760   28.5180   41.9650 C   0  0  0  0  0  0  0  0  0  0  0  0
   51.7900   27.9390   41.2880 H   0  0  0  0  0  0  0  0  0  0  0  0
   49.8930   28.6160   42.2390 O   0  0  0  0  0  0  0  0  0  0  0  0
  1  8  1  0  0  0  0
  1  6  1  0  0  0  0
  2  1  2  0  0  0  0
  3  2  1  0  0  0  0
  3  4  2  0  0  0  0
  4  5  1  0  0  0  0
  5  6  2  0  0  0  0
  5  7  1  0  0  0  0
  7 10  1  0  0  0  0
  9  7  1  0  0  0  0
 11 12  1  0  0  0  0
 11 17  1  1  0  0  0
 11  2  1  0  0  0  0
 12 18  1  0  0  0  0
 13 19  1  0  0  0  0
 13 12  2  0  0  0  0
 14 20  1  6  0  0  0
 14 13  1  0  0  0  0
 15 14  1  0  0  0  0
 15 21  1  0  0  0  0
 15 16  1  0  0  0  0
 16 11  1  0  0  0  0
 22 15  1  0  0  0  0
 23 16  1  0  0  0  0
 24 16  1  0  0  0  0
 25 26  1  0  0  0  0
 25 14  1  0  0  0  0
 27 25  1  0  0  0  0
 28 25  1  0  0  0  0
 29  3  1  0  0  0  0
 30 29  1  0  0  0  0
 31 32  1  0  0  0  0
 31 30  2  0  0  0  0
 32 33  1  0  0  0  0
 33 29  2  0  0  0  0
 34 30  1  0  0  0  0
 35 31  1  0  0  0  0
 36 37  2  0  0  0  0
 36 32  1  0  0  0  0
 38 37  1  0  0  0  0
 39 41  1  0  0  0  0
 39 38  2  0  0  0  0
 40 39  1  0  0  0  0
 41 36  1  0  0  0  0
M  END
>  <minimizedAffinity>
-5.67000198

>  <minimizedRMSD>
0.147834718

$$$$
