
 OpenBabel03232521003D

 41 44  0  0  1  0  0  0  0  0999 V2000
   45.2990   32.9060   47.5010 C   0  0  0  0  0  0  0  0  0  0  0  0
   45.9000   32.6520   46.3100 C   0  0  0  0  0  0  0  0  0  0  0  0
   46.2150   31.3090   46.0910 C   0  0  0  0  0  0  0  0  0  0  0  0
   45.9510   30.3180   46.9800 N   0  0  0  0  0  0  0  0  0  0  0  0
   45.3360   30.6280   48.1830 C   0  0  0  0  0  0  0  0  0  0  0  0
   45.0280   31.9000   48.4120 N   0  0  0  0  0  0  0  0  0  0  0  0
   45.0570   29.6200   49.1390 N   0  0  0  0  0  0  0  0  0  0  0  0
   45.0180   33.9110   47.7740 H   0  0  0  0  0  0  0  0  0  0  0  0
   44.5390   28.8410   48.6360 H   0  0  0  0  0  0  0  0  0  0  0  0
   45.4290   29.9030   50.0810 H   0  0  0  0  0  0  0  0  0  0  0  0
   46.1540   33.6000   45.2770 C   0  0  2  0  0  0  0  0  0  0  0  0
   44.9470   34.6980   45.5040 C   0  0  0  0  0  0  0  0  0  0  0  0
   44.7200   35.6240   44.4310 C   0  0  0  0  0  0  0  0  0  0  0  0
   45.5190   35.5470   43.2070 C   0  0  1  0  0  0  0  0  0  0  0  0
   46.5740   34.5370   43.1590 C   0  0  0  0  0  0  0  0  0  0  0  0
   46.1210   33.3090   43.9150 C   0  0  0  0  0  0  0  0  0  0  0  0
   46.9720   34.3100   45.6070 H   0  0  0  0  0  0  0  0  0  0  0  0
   44.2690   34.8550   46.3330 H   0  0  0  0  0  0  0  0  0  0  0  0
   43.9550   36.3480   44.5360 H   0  0  0  0  0  0  0  0  0  0  0  0
   45.9390   36.5560   43.0200 H   0  0  0  0  0  0  0  0  0  0  0  0
   47.5790   34.8650   43.5150 H   0  0  0  0  0  0  0  0  0  0  0  0
   46.7500   34.2910   42.0690 H   0  0  0  0  0  0  0  0  0  0  0  0
   46.9710   32.6530   43.5880 H   0  0  0  0  0  0  0  0  0  0  0  0
   45.1620   32.9770   43.4650 H   0  0  0  0  0  0  0  0  0  0  0  0
   44.5060   35.2800   42.0560 C   0  0  0  0  0  0  0  0  0  0  0  0
   43.4460   34.4780   42.4520 F   0  0  0  0  0  0  0  0  0  0  0  0
   43.9570   36.5150   41.7230 F   0  0  0  0  0  0  0  0  0  0  0  0
   45.1770   34.8190   40.9390 F   0  0  0  0  0  0  0  0  0  0  0  0
   46.9080   30.6230   45.0160 C   0  0  0  0  0  0  0  0  0  0  0  0
   46.6190   29.8460   43.9410 C   0  0  0  0  0  0  0  0  0  0  0  0
   47.8220   29.4760   43.3290 C   0  0  0  0  0  0  0  0  0  0  0  0
   48.7810   30.0460   44.0600 N   0  0  0  0  0  0  0  0  0  0  0  0
   48.2670   30.7270   45.0590 N   0  0  0  0  0  0  0  0  0  0  0  0
   45.5810   29.6460   43.7380 H   0  0  0  0  0  0  0  0  0  0  0  0
   47.8170   28.8610   42.4620 H   0  0  0  0  0  0  0  0  0  0  0  0
   50.1340   29.8200   43.6390 C   0  0  0  0  0  0  0  0  0  0  0  0
   51.0660   29.0110   44.2250 C   0  0  0  0  0  3  0  0  0  0  0  0
   52.2190   29.1320   43.4470 C   0  0  0  0  0  3  0  0  0  0  0  0
   51.9020   30.0210   42.4270 C   0  0  0  0  0  0  0  0  0  0  0  0
   52.7110   30.2150   41.7340 H   0  0  0  0  0  0  0  0  0  0  0  0
   50.6540   30.4140   42.5680 O   0  0  0  0  0  0  0  0  0  0  0  0
  1  8  1  0  0  0  0
  1  6  1  0  0  0  0
  2  1  2  0  0  0  0
  3  2  1  0  0  0  0
  3  4  2  0  0  0  0
  4  5  1  0  0  0  0
  5  6  2  0  0  0  0
  5  7  1  0  0  0  0
  7 10  1  0  0  0  0
  9  7  1  0  0  0  0
 11 12  1  0  0  0  0
 11 17  1  1  0  0  0
 11  2  1  0  0  0  0
 12 18  1  0  0  0  0
 13 19  1  0  0  0  0
 13 12  2  0  0  0  0
 14 20  1  6  0  0  0
 14 13  1  0  0  0  0
 15 14  1  0  0  0  0
 15 21  1  0  0  0  0
 15 16  1  0  0  0  0
 16 11  1  0  0  0  0
 22 15  1  0  0  0  0
 23 16  1  0  0  0  0
 24 16  1  0  0  0  0
 25 26  1  0  0  0  0
 25 14  1  0  0  0  0
 27 25  1  0  0  0  0
 28 25  1  0  0  0  0
 29 33  2  0  0  0  0
 29  3  1  0  0  0  0
 30 29  1  0  0  0  0
 31 30  2  0  0  0  0
 31 32  1  0  0  0  0
 32 33  1  0  0  0  0
 34 30  1  0  0  0  0
 35 31  1  0  0  0  0
 36 32  1  0  0  0  0
 36 37  2  0  0  0  0
 38 37  1  0  0  0  0
 39 41  1  0  0  0  0
 39 38  2  0  0  0  0
 40 39  1  0  0  0  0
 41 36  1  0  0  0  0
M  END
>  <minimizedAffinity>
-5.66842508

>  <minimizedRMSD>
0.273283184

$$$$
