
 OpenBabel03232521003D

 41 44  0  0  1  0  0  0  0  0999 V2000
   45.4370   32.8660   47.5090 C   0  0  0  0  0  0  0  0  0  0  0  0
   45.9380   32.6170   46.2710 C   0  0  0  0  0  0  0  0  0  0  0  0
   46.1500   31.2650   45.9910 C   0  0  0  0  0  0  0  0  0  0  0  0
   45.8840   30.2620   46.8670 N   0  0  0  0  0  0  0  0  0  0  0  0
   45.3730   30.5680   48.1180 C   0  0  0  0  0  0  0  0  0  0  0  0
   45.1640   31.8480   48.4050 N   0  0  0  0  0  0  0  0  0  0  0  0
   45.0950   29.5480   49.0600 N   0  0  0  0  0  0  0  0  0  0  0  0
   45.2390   33.8770   47.8300 H   0  0  0  0  0  0  0  0  0  0  0  0
   44.4960   28.8200   48.5710 H   0  0  0  0  0  0  0  0  0  0  0  0
   45.5470   29.7750   49.9820 H   0  0  0  0  0  0  0  0  0  0  0  0
   46.1820   33.5820   45.2530 C   0  0  2  0  0  0  0  0  0  0  0  0
   44.9630   34.6630   45.4950 C   0  0  0  0  0  0  0  0  0  0  0  0
   44.7270   35.6020   44.4350 C   0  0  0  0  0  0  0  0  0  0  0  0
   45.5270   35.5510   43.2100 C   0  0  1  0  0  0  0  0  0  0  0  0
   46.5920   34.5530   43.1480 C   0  0  0  0  0  0  0  0  0  0  0  0
   46.1530   33.3100   43.8870 C   0  0  0  0  0  0  0  0  0  0  0  0
   46.9920   34.2950   45.5930 H   0  0  0  0  0  0  0  0  0  0  0  0
   44.2840   34.8020   46.3260 H   0  0  0  0  0  0  0  0  0  0  0  0
   43.9550   36.3160   44.5500 H   0  0  0  0  0  0  0  0  0  0  0  0
   45.9360   36.5680   43.0380 H   0  0  0  0  0  0  0  0  0  0  0  0
   47.5940   34.8870   43.5090 H   0  0  0  0  0  0  0  0  0  0  0  0
   46.7710   34.3240   42.0550 H   0  0  0  0  0  0  0  0  0  0  0  0
   47.0100   32.6670   43.5510 H   0  0  0  0  0  0  0  0  0  0  0  0
   45.1970   32.9750   43.4310 H   0  0  0  0  0  0  0  0  0  0  0  0
   44.5170   35.2900   42.0550 C   0  0  0  0  0  0  0  0  0  0  0  0
   43.4520   34.4930   42.4460 F   0  0  0  0  0  0  0  0  0  0  0  0
   43.9740   36.5280   41.7220 F   0  0  0  0  0  0  0  0  0  0  0  0
   45.1900   34.8280   40.9400 F   0  0  0  0  0  0  0  0  0  0  0  0
   46.7250   30.5740   44.8510 C   0  0  0  0  0  0  0  0  0  0  0  0
   46.3130   29.8860   43.7550 C   0  0  0  0  0  0  0  0  0  0  0  0
   47.4450   29.4370   43.0660 C   0  0  0  0  0  0  0  0  0  0  0  0
   48.4870   29.8750   43.7750 N   0  0  0  0  0  0  0  0  0  0  0  0
   48.0880   30.5470   44.8290 N   0  0  0  0  0  0  0  0  0  0  0  0
   45.2520   29.7960   43.5960 H   0  0  0  0  0  0  0  0  0  0  0  0
   47.3410   28.8720   42.1720 H   0  0  0  0  0  0  0  0  0  0  0  0
   49.7910   29.5450   43.2750 C   0  0  0  0  0  0  0  0  0  0  0  0
   50.1130   28.6040   42.3400 C   0  0  0  0  0  3  0  0  0  0  0  0
   51.5010   28.6650   42.1980 C   0  0  0  0  0  3  0  0  0  0  0  0
   51.9330   29.6560   43.0730 C   0  0  0  0  0  0  0  0  0  0  0  0
   53.0010   29.8190   43.0730 H   0  0  0  0  0  0  0  0  0  0  0  0
   50.8920   30.1620   43.7000 O   0  0  0  0  0  0  0  0  0  0  0  0
  1  8  1  0  0  0  0
  1  6  1  0  0  0  0
  2  1  2  0  0  0  0
  3  2  1  0  0  0  0
  3  4  2  0  0  0  0
  4  5  1  0  0  0  0
  5  6  2  0  0  0  0
  5  7  1  0  0  0  0
  7 10  1  0  0  0  0
  9  7  1  0  0  0  0
 11 12  1  0  0  0  0
 11 17  1  1  0  0  0
 11  2  1  0  0  0  0
 12 18  1  0  0  0  0
 13 19  1  0  0  0  0
 13 12  2  0  0  0  0
 14 20  1  6  0  0  0
 14 13  1  0  0  0  0
 15 14  1  0  0  0  0
 15 21  1  0  0  0  0
 15 16  1  0  0  0  0
 16 11  1  0  0  0  0
 22 15  1  0  0  0  0
 23 16  1  0  0  0  0
 24 16  1  0  0  0  0
 25 26  1  0  0  0  0
 25 14  1  0  0  0  0
 27 25  1  0  0  0  0
 28 25  1  0  0  0  0
 29  3  1  0  0  0  0
 30 29  1  0  0  0  0
 31 30  2  0  0  0  0
 31 32  1  0  0  0  0
 32 33  1  0  0  0  0
 33 29  2  0  0  0  0
 34 30  1  0  0  0  0
 35 31  1  0  0  0  0
 36 41  1  0  0  0  0
 36 32  1  0  0  0  0
 37 36  2  0  0  0  0
 38 37  1  0  0  0  0
 38 39  2  0  0  0  0
 39 40  1  0  0  0  0
 39 41  1  0  0  0  0
M  END
>  <minimizedAffinity>
-5.66670656

>  <minimizedRMSD>
0.0884488076

$$$$
