
 OpenBabel03232521003D

 47 51  0  0  1  0  0  0  0  0999 V2000
   45.3280   32.8480   47.4650 C   0  0  0  0  0  0  0  0  0  0  0  0
   45.9270   32.6350   46.2640 C   0  0  0  0  0  0  0  0  0  0  0  0
   46.2530   31.2970   46.0070 C   0  0  0  0  0  0  0  0  0  0  0  0
   46.0000   30.2780   46.8670 N   0  0  0  0  0  0  0  0  0  0  0  0
   45.3860   30.5480   48.0800 C   0  0  0  0  0  0  0  0  0  0  0  0
   45.0670   31.8140   48.3490 N   0  0  0  0  0  0  0  0  0  0  0  0
   45.1160   29.5100   48.9990 N   0  0  0  0  0  0  0  0  0  0  0  0
   45.0390   33.8420   47.7650 H   0  0  0  0  0  0  0  0  0  0  0  0
   44.4580   28.7630   48.6610 H   0  0  0  0  0  0  0  0  0  0  0  0
   45.5370   29.4810   49.9540 H   0  0  0  0  0  0  0  0  0  0  0  0
   46.9490   30.6510   44.9090 C   0  0  0  0  0  0  0  0  0  0  0  0
   46.6630   29.8450   43.8520 C   0  0  0  0  0  0  0  0  0  0  0  0
   47.8710   29.5490   43.1930 C   0  0  0  0  0  0  0  0  0  0  0  0
   48.8130   30.1900   43.8830 N   0  0  0  0  0  0  0  0  0  0  0  0
   48.3010   30.8460   44.8960 N   0  0  0  0  0  0  0  0  0  0  0  0
   45.6250   29.5810   43.7030 H   0  0  0  0  0  0  0  0  0  0  0  0
   47.8330   28.9140   42.3230 H   0  0  0  0  0  0  0  0  0  0  0  0
   50.1540   30.0420   43.3980 C   0  0  0  0  0  0  0  0  0  0  0  0
   51.0040   29.4020   44.2370 N   0  0  0  0  0  0  0  0  0  0  0  0
   52.2890   29.2160   43.8630 C   0  0  0  0  0  3  0  0  0  0  0  0
   52.7950   29.6410   42.6700 N   0  0  0  0  0  0  0  0  0  0  0  0
   51.9420   30.2760   41.8460 C   0  0  0  0  0  0  0  0  0  0  0  0
   52.3840   30.7410   40.6100 C   0  0  0  0  0  3  0  0  0  0  0  0
   51.5050   31.3930   39.7630 C   0  0  0  0  0  0  0  0  0  0  0  0
   51.8970   31.7340   38.8130 H   0  0  0  0  0  0  0  0  0  0  0  0
   50.1880   31.5840   40.1430 C   0  0  0  0  0  0  0  0  0  0  0  0
   49.5050   32.1040   39.4590 H   0  0  0  0  0  0  0  0  0  0  0  0
   49.6990   31.1370   41.3720 C   0  0  0  0  0  3  0  0  0  0  0  0
   50.6160   30.4930   42.1790 C   0  0  0  0  0  0  0  0  0  0  0  0
   46.1650   33.6120   45.2570 C   0  0  2  0  0  0  0  0  0  0  0  0
   44.9330   34.6790   45.5070 C   0  0  0  0  0  0  0  0  0  0  0  0
   44.6910   35.6300   44.4570 C   0  0  0  0  0  0  0  0  0  0  0  0
   45.5040   35.5990   43.2350 C   0  0  1  0  0  0  0  0  0  0  0  0
   46.5720   34.6090   43.1660 C   0  0  0  0  0  0  0  0  0  0  0  0
   46.1360   33.3560   43.8860 C   0  0  0  0  0  0  0  0  0  0  0  0
   46.9680   34.3290   45.6030 H   0  0  0  0  0  0  0  0  0  0  0  0
   44.2490   34.8010   46.3370 H   0  0  0  0  0  0  0  0  0  0  0  0
   43.9110   36.3350   44.5780 H   0  0  0  0  0  0  0  0  0  0  0  0
   45.9130   36.6140   43.0470 H   0  0  0  0  0  0  0  0  0  0  0  0
   47.5650   34.9570   43.5620 H   0  0  0  0  0  0  0  0  0  0  0  0
   46.7880   34.4140   42.0740 H   0  0  0  0  0  0  0  0  0  0  0  0
   45.1850   33.0180   43.4210 H   0  0  0  0  0  0  0  0  0  0  0  0
   46.9980   32.7250   43.5430 H   0  0  0  0  0  0  0  0  0  0  0  0
   44.4970   35.3470   42.0730 C   0  0  0  0  0  0  0  0  0  0  0  0
   43.4160   34.5770   42.4590 F   0  0  0  0  0  0  0  0  0  0  0  0
   43.9800   36.5880   41.7170 F   0  0  0  0  0  0  0  0  0  0  0  0
   45.1720   34.8570   40.9710 F   0  0  0  0  0  0  0  0  0  0  0  0
  1  8  1  0  0  0  0
  1  6  1  0  0  0  0
  2  1  2  0  0  0  0
  3  2  1  0  0  0  0
  3  4  2  0  0  0  0
  4  5  1  0  0  0  0
  5  6  2  0  0  0  0
  5  7  1  0  0  0  0
  7 10  1  0  0  0  0
  9  7  1  0  0  0  0
 11  3  1  0  0  0  0
 12 11  1  0  0  0  0
 13 12  2  0  0  0  0
 13 14  1  0  0  0  0
 14 15  1  0  0  0  0
 15 11  2  0  0  0  0
 16 12  1  0  0  0  0
 17 13  1  0  0  0  0
 18 14  1  0  0  0  0
 18 19  1  0  0  0  0
 20 19  2  0  0  0  0
 21 20  1  0  0  0  0
 22 29  1  0  0  0  0
 22 21  2  0  0  0  0
 23 22  1  0  0  0  0
 24 26  1  0  0  0  0
 24 23  2  0  0  0  0
 25 24  1  0  0  0  0
 26 28  2  0  0  0  0
 27 26  1  0  0  0  0
 28 29  1  0  0  0  0
 29 18  2  0  0  0  0
 30 31  1  0  0  0  0
 30 36  1  1  0  0  0
 30  2  1  0  0  0  0
 31 37  1  0  0  0  0
 32 38  1  0  0  0  0
 32 31  2  0  0  0  0
 33 39  1  6  0  0  0
 33 32  1  0  0  0  0
 34 33  1  0  0  0  0
 34 40  1  0  0  0  0
 34 35  1  0  0  0  0
 35 30  1  0  0  0  0
 41 34  1  0  0  0  0
 42 35  1  0  0  0  0
 43 35  1  0  0  0  0
 44 45  1  0  0  0  0
 44 33  1  0  0  0  0
 46 44  1  0  0  0  0
 47 44  1  0  0  0  0
M  END
>  <minimizedAffinity>
-6.64459419

>  <minimizedRMSD>
0.411815226

$$$$
