
 OpenBabel03232518583D

 42 45  0  0  1  0  0  0  0  0999 V2000
   46.7640   33.3770   45.0980 C   0  0  0  0  0  0  0  0  0  0  0  0
   47.6680   33.3790   44.4380 H   0  0  0  0  0  0  0  0  0  0  0  0
   47.1130   33.8770   46.0250 H   0  0  0  0  0  0  0  0  0  0  0  0
   45.7650   34.1940   44.3620 C   0  0  0  0  0  0  0  0  0  0  0  0
   44.9780   35.0660   45.0520 C   0  0  0  0  0  0  0  0  0  0  0  0
   44.1470   35.6990   44.1640 C   0  0  0  0  0  0  0  0  0  0  0  0
   44.4960   35.1520   42.9540 N   0  0  0  0  0  0  0  0  0  0  0  0
   45.4540   34.2590   43.0600 N   0  0  0  0  0  0  0  0  0  0  0  0
   44.9270   35.3020   46.1110 H   0  0  0  0  0  0  0  0  0  0  0  0
   43.3700   36.4580   44.2670 H   0  0  0  0  0  0  0  0  0  0  0  0
   44.4120   34.6920   40.5940 N   0  0  0  0  0  0  0  0  0  0  0  0
   43.2730   34.2310   39.8260 C   0  0  0  0  0  0  0  0  0  0  0  0
   42.2330   33.9970   40.9170 C   0  0  0  0  0  0  0  0  0  0  0  0
   42.3900   35.2780   41.7150 C   0  0  0  0  0  0  0  0  0  0  0  0
   43.8890   35.4960   41.6600 C   0  0  1  0  0  0  0  0  0  0  0  0
   45.0120   33.9140   40.9110 H   0  0  0  0  0  0  0  0  0  0  0  0
   43.4600   33.3250   39.2500 H   0  0  0  0  0  0  0  0  0  0  0  0
   42.9530   35.0880   39.1930 H   0  0  0  0  0  0  0  0  0  0  0  0
   41.2080   33.9020   40.5180 H   0  0  0  0  0  0  0  0  0  0  0  0
   42.5230   33.1390   41.5230 H   0  0  0  0  0  0  0  0  0  0  0  0
   41.8180   36.1210   41.3060 H   0  0  0  0  0  0  0  0  0  0  0  0
   42.0560   35.0770   42.7540 H   0  0  0  0  0  0  0  0  0  0  0  0
   44.0680   36.5750   41.5310 H   0  0  0  0  0  0  0  0  0  0  0  0
   46.2290   32.0240   45.2740 C   0  0  2  0  0  0  0  0  0  0  0  0
   45.2610   31.8430   44.7160 H   0  0  0  0  0  0  0  0  0  0  0  0
   45.8180   32.2210   48.9310 C   0  0  0  0  0  0  0  0  0  0  0  0
   45.3220   30.9000   49.2370 C   0  0  0  0  0  0  0  0  0  0  0  0
   45.1500   29.9740   48.1610 C   0  0  0  0  0  0  0  0  0  0  0  0
   45.4680   30.3990   46.8990 N   0  0  0  0  0  0  0  0  0  0  0  0
   45.9250   31.6340   46.6630 C   0  0  0  0  0  0  0  0  0  0  0  0
   46.0990   32.5400   47.6730 N   0  0  0  0  0  0  0  0  0  0  0  0
   45.9410   32.9010   49.7370 H   0  0  0  0  0  0  0  0  0  0  0  0
   45.0790   30.5970   50.2500 H   0  0  0  0  0  0  0  0  0  0  0  0
   44.7850   28.9910   48.3550 H   0  0  0  0  0  0  0  0  0  0  0  0
   47.1350   30.9360   44.6560 C   0  0  0  0  0  0  0  0  0  0  0  0
   46.6790   29.9790   44.9170 H   0  0  0  0  0  0  0  0  0  0  0  0
   48.0660   30.9910   45.2940 H   0  0  0  0  0  0  0  0  0  0  0  0
   47.3990   31.1290   43.2760 N   0  0  0  0  0  0  0  0  0  0  0  0
   48.6300   31.4830   42.8260 C   0  0  0  0  0  0  0  0  0  0  0  0
   48.6160   31.6140   41.4530 C   0  0  0  0  0  0  0  0  0  0  0  0
   47.3580   31.3380   41.0440 N   0  0  0  0  0  0  0  0  0  0  0  0
   46.6670   31.0560   42.1540 C   0  0  0  0  0  0  0  0  0  0  0  0
  1 24  1  0  0  0  0
  1  3  1  0  0  0  0
  2  1  1  0  0  0  0
  4  5  1  0  0  0  0
  4  1  1  0  0  0  0
  5  9  1  0  0  0  0
  6 10  1  0  0  0  0
  6  5  2  0  0  0  0
  7  8  1  0  0  0  0
  7  6  1  0  0  0  0
  8  4  2  0  0  0  0
 11 16  1  0  0  0  0
 11 15  1  0  0  0  0
 12 11  1  0  0  0  0
 12 13  1  0  0  0  0
 13 20  1  0  0  0  0
 13 14  1  0  0  0  0
 14 22  1  0  0  0  0
 15 23  1  6  0  0  0
 15 14  1  0  0  0  0
 15  7  1  0  0  0  0
 17 12  1  0  0  0  0
 18 12  1  0  0  0  0
 19 13  1  0  0  0  0
 21 14  1  0  0  0  0
 24 25  1  6  0  0  0
 24 30  1  0  0  0  0
 26 27  1  0  0  0  0
 26 32  1  0  0  0  0
 27 33  1  0  0  0  0
 28 34  1  0  0  0  0
 28 27  2  0  0  0  0
 29 28  1  0  0  0  0
 30 29  2  0  0  0  0
 30 31  1  0  0  0  0
 31 26  2  0  0  0  0
 35 36  1  0  0  0  0
 35 24  1  0  0  0  0
 35 37  1  0  0  0  0
 38 35  1  0  0  0  0
 39 38  1  0  0  0  0
 40 39  2  0  0  0  0
 41 40  1  0  0  0  0
 41 42  2  0  0  0  0
 42 38  1  0  0  0  0
M  END
>  <minimizedAffinity>
-5.08418989

>  <minimizedRMSD>
0.578776479

$$$$
