
 OpenBabel03232519433D

 42 44  0  0  0  0  0  0  0  0999 V2000
   46.5290   34.4390   41.9770 N   0  0  0  0  0  0  0  0  0  0  0  0
   47.6770   35.2020   41.8670 C   0  0  0  0  0  0  0  0  0  0  0  0
   48.4170   35.2070   40.7160 C   0  0  0  0  0  0  0  0  0  0  0  0
   47.9720   34.4140   39.6550 C   0  0  0  0  0  0  0  0  0  0  0  0
   48.6300   34.4100   38.6020 O   0  0  0  0  0  0  0  0  0  0  0  0
   46.8490   33.6940   39.8250 N   0  0  0  0  0  0  0  0  0  0  0  0
   46.1430   33.7090   40.9620 C   0  0  0  0  0  0  0  0  0  0  0  0
   45.1250   33.0900   41.1740 O   0  0  0  0  0  0  0  0  0  0  0  0
   48.0730   35.8350   42.6490 H   0  0  0  0  0  0  0  0  0  0  0  0
   49.3210   35.7950   40.5960 H   0  0  0  0  0  0  0  0  0  0  0  0
   46.3630   32.8700   38.7870 C   0  0  0  0  0  0  0  0  0  0  0  0
   45.4430   33.2750   37.8470 C   0  0  0  0  0  0  0  0  0  0  0  0
   45.0130   32.4200   36.8630 C   0  0  0  0  0  0  0  0  0  0  0  0
   45.4950   31.1300   36.7950 C   0  0  0  0  0  0  0  0  0  0  0  0
   46.4010   30.7520   37.7320 C   0  0  0  0  0  0  0  0  0  0  0  0
   46.8800   31.5770   38.7610 C   0  0  0  0  0  0  0  0  0  0  0  0
   45.0980   34.2870   37.9420 H   0  0  0  0  0  0  0  0  0  0  0  0
   44.2840   32.8320   36.1650 H   0  0  0  0  0  0  0  0  0  0  0  0
   45.1480   30.4710   36.0160 H   0  0  0  0  0  0  0  0  0  0  0  0
   46.7620   29.7160   37.6420 H   0  0  0  0  0  0  0  0  0  0  0  0
   47.8770   31.0600   39.7390 C   0  0  0  0  0  0  0  0  0  0  0  0
   48.0270   29.9770   39.4230 H   0  0  0  0  0  0  0  0  0  0  0  0
   49.2010   31.7390   39.7190 C   0  0  0  0  0  0  0  0  0  0  0  0
   49.9110   30.8550   39.9860 H   0  0  0  0  0  0  0  0  0  0  0  0
   49.6530   31.9510   38.7610 H   0  0  0  0  0  0  0  0  0  0  0  0
   49.5000   32.3120   40.6130 H   0  0  0  0  0  0  0  0  0  0  0  0
   47.3940   31.0740   41.1540 C   0  0  0  0  0  0  0  0  0  0  0  0
   47.9070   30.1290   41.5970 H   0  0  0  0  0  0  0  0  0  0  0  0
   47.9110   31.7670   41.8420 H   0  0  0  0  0  0  0  0  0  0  0  0
   46.3810   30.7750   41.3440 H   0  0  0  0  0  0  0  0  0  0  0  0
   44.5320   35.8600   44.7410 C   0  0  0  0  0  0  0  0  0  0  0  0
   45.1120   35.7010   43.4640 C   0  0  0  0  0  0  0  0  0  0  0  0
   45.9400   34.6010   43.2730 C   0  0  0  0  0  0  0  0  0  0  0  0
   46.1620   33.7310   44.3030 N   0  0  0  0  0  0  0  0  0  0  0  0
   45.5780   33.9330   45.5140 C   0  0  0  0  0  0  0  0  0  0  0  0
   44.7790   34.9760   45.7310 N   0  0  0  0  0  0  0  0  0  0  0  0
   43.8860   36.7180   44.8900 H   0  0  0  0  0  0  0  0  0  0  0  0
   44.9180   36.4070   42.6650 H   0  0  0  0  0  0  0  0  0  0  0  0
   45.8390   32.9660   46.6240 C   0  0  0  0  0  0  0  0  0  0  0  0
   44.9210   33.1270   47.6460 F   0  0  0  0  0  0  0  0  0  0  0  0
   47.1330   33.0500   47.1020 F   0  0  0  0  0  0  0  0  0  0  0  0
   45.6610   31.6550   46.1770 F   0  0  0  0  0  0  0  0  0  0  0  0
  1 33  1  0  0  0  0
  2  1  1  0  0  0  0
  2  9  1  0  0  0  0
  3  2  2  0  0  0  0
  4  6  1  0  0  0  0
  4  3  1  0  0  0  0
  5  4  2  0  0  0  0
  6  7  1  0  0  0  0
  7  8  2  0  0  0  0
  7  1  1  0  0  0  0
 10  3  1  0  0  0  0
 11  6  1  0  0  0  0
 12 17  1  0  0  0  0
 12 11  2  0  0  0  0
 13 12  1  0  0  0  0
 14 13  2  0  0  0  0
 14 15  1  0  0  0  0
 15 16  2  0  0  0  0
 16 11  1  0  0  0  0
 16 21  1  0  0  0  0
 18 13  1  0  0  0  0
 19 14  1  0  0  0  0
 20 15  1  0  0  0  0
 21 27  1  0  0  0  0
 22 21  1  0  0  0  0
 23 21  1  0  0  0  0
 23 24  1  0  0  0  0
 23 26  1  0  0  0  0
 25 23  1  0  0  0  0
 27 30  1  0  0  0  0
 27 28  1  0  0  0  0
 27 29  1  0  0  0  0
 31 37  1  0  0  0  0
 31 36  1  0  0  0  0
 32 31  2  0  0  0  0
 33 32  1  0  0  0  0
 33 34  2  0  0  0  0
 34 35  1  0  0  0  0
 35 36  2  0  0  0  0
 35 39  1  0  0  0  0
 38 32  1  0  0  0  0
 39 41  1  0  0  0  0
 39 40  1  0  0  0  0
 42 39  1  0  0  0  0
M  END
>  <minimizedAffinity>
-6.1333375

>  <minimizedRMSD>
0.273778111

$$$$
