
 OpenBabel03232521003D

 47 51  0  0  1  0  0  0  0  0999 V2000
   45.3310   32.8540   47.4170 C   0  0  0  0  0  0  0  0  0  0  0  0
   45.9100   32.6780   46.2000 C   0  0  0  0  0  0  0  0  0  0  0  0
   46.2370   31.3500   45.8990 C   0  0  0  0  0  0  0  0  0  0  0  0
   46.0050   30.3060   46.7340 N   0  0  0  0  0  0  0  0  0  0  0  0
   45.4120   30.5370   47.9650 C   0  0  0  0  0  0  0  0  0  0  0  0
   45.0910   31.7940   48.2760 N   0  0  0  0  0  0  0  0  0  0  0  0
   45.1640   29.4730   48.8590 N   0  0  0  0  0  0  0  0  0  0  0  0
   45.0430   33.8370   47.7510 H   0  0  0  0  0  0  0  0  0  0  0  0
   44.5050   28.7320   48.5120 H   0  0  0  0  0  0  0  0  0  0  0  0
   45.6020   29.4180   49.8050 H   0  0  0  0  0  0  0  0  0  0  0  0
   46.9160   30.7390   44.7700 C   0  0  0  0  0  0  0  0  0  0  0  0
   46.6090   30.0010   43.6720 C   0  0  0  0  0  0  0  0  0  0  0  0
   47.8090   29.6990   43.0020 C   0  0  0  0  0  0  0  0  0  0  0  0
   48.7700   30.2690   43.7280 N   0  0  0  0  0  0  0  0  0  0  0  0
   48.2750   30.8880   44.7730 N   0  0  0  0  0  0  0  0  0  0  0  0
   45.5640   29.7820   43.5040 H   0  0  0  0  0  0  0  0  0  0  0  0
   47.7540   29.1130   42.1000 H   0  0  0  0  0  0  0  0  0  0  0  0
   50.1070   30.1000   43.2410 C   0  0  0  0  0  0  0  0  0  0  0  0
   51.0070   29.6760   44.1620 N   0  0  0  0  0  0  0  0  0  0  0  0
   52.2940   29.4900   43.7910 C   0  0  0  0  0  3  0  0  0  0  0  0
   52.7520   29.7060   42.5250 N   0  0  0  0  0  0  0  0  0  0  0  0
   51.8480   30.1270   41.6210 C   0  0  0  0  0  0  0  0  0  0  0  0
   52.2400   30.3690   40.3070 C   0  0  0  0  0  3  0  0  0  0  0  0
   51.3100   30.8020   39.3780 C   0  0  0  0  0  0  0  0  0  0  0  0
   51.6650   30.9760   38.3700 H   0  0  0  0  0  0  0  0  0  0  0  0
   49.9920   30.9940   39.7530 C   0  0  0  0  0  0  0  0  0  0  0  0
   49.2680   31.3370   39.0040 H   0  0  0  0  0  0  0  0  0  0  0  0
   49.5530   30.7640   41.0580 C   0  0  0  0  0  3  0  0  0  0  0  0
   50.5200   30.3330   41.9450 C   0  0  0  0  0  0  0  0  0  0  0  0
   46.1240   33.6850   45.2170 C   0  0  2  0  0  0  0  0  0  0  0  0
   44.8930   34.7390   45.5210 C   0  0  0  0  0  0  0  0  0  0  0  0
   44.6260   35.7180   44.5040 C   0  0  0  0  0  0  0  0  0  0  0  0
   45.4160   35.7260   43.2660 C   0  0  1  0  0  0  0  0  0  0  0  0
   46.4870   34.7440   43.1490 C   0  0  0  0  0  0  0  0  0  0  0  0
   46.0700   33.4680   43.8410 C   0  0  0  0  0  0  0  0  0  0  0  0
   46.9300   34.3960   45.5680 H   0  0  0  0  0  0  0  0  0  0  0  0
   44.2240   34.8330   46.3670 H   0  0  0  0  0  0  0  0  0  0  0  0
   43.8460   36.4150   44.6600 H   0  0  0  0  0  0  0  0  0  0  0  0
   45.8170   36.7480   43.1000 H   0  0  0  0  0  0  0  0  0  0  0  0
   47.4860   35.0840   43.5350 H   0  0  0  0  0  0  0  0  0  0  0  0
   46.6830   34.5810   42.0480 H   0  0  0  0  0  0  0  0  0  0  0  0
   45.1120   33.1390   43.3840 H   0  0  0  0  0  0  0  0  0  0  0  0
   46.9280   32.8520   43.4630 H   0  0  0  0  0  0  0  0  0  0  0  0
   44.3880   35.5030   42.1170 C   0  0  0  0  0  0  0  0  0  0  0  0
   43.2570   34.8260   42.5340 F   0  0  0  0  0  0  0  0  0  0  0  0
   43.9580   36.7630   41.7160 F   0  0  0  0  0  0  0  0  0  0  0  0
   45.0220   34.9250   41.0320 F   0  0  0  0  0  0  0  0  0  0  0  0
  1  8  1  0  0  0  0
  1  6  1  0  0  0  0
  2  1  2  0  0  0  0
  3  2  1  0  0  0  0
  3  4  2  0  0  0  0
  4  5  1  0  0  0  0
  5  6  2  0  0  0  0
  5  7  1  0  0  0  0
  7 10  1  0  0  0  0
  9  7  1  0  0  0  0
 11 15  2  0  0  0  0
 11  3  1  0  0  0  0
 12 11  1  0  0  0  0
 13 12  2  0  0  0  0
 13 14  1  0  0  0  0
 14 15  1  0  0  0  0
 16 12  1  0  0  0  0
 17 13  1  0  0  0  0
 18 14  1  0  0  0  0
 18 19  1  0  0  0  0
 20 19  2  0  0  0  0
 21 20  1  0  0  0  0
 22 29  1  0  0  0  0
 22 21  2  0  0  0  0
 23 22  1  0  0  0  0
 24 26  1  0  0  0  0
 24 23  2  0  0  0  0
 25 24  1  0  0  0  0
 26 28  2  0  0  0  0
 27 26  1  0  0  0  0
 28 29  1  0  0  0  0
 29 18  2  0  0  0  0
 30 31  1  0  0  0  0
 30 36  1  1  0  0  0
 30  2  1  0  0  0  0
 31 37  1  0  0  0  0
 32 38  1  0  0  0  0
 32 31  2  0  0  0  0
 33 39  1  6  0  0  0
 33 32  1  0  0  0  0
 34 33  1  0  0  0  0
 34 40  1  0  0  0  0
 34 35  1  0  0  0  0
 35 30  1  0  0  0  0
 41 34  1  0  0  0  0
 42 35  1  0  0  0  0
 43 35  1  0  0  0  0
 44 45  1  0  0  0  0
 44 33  1  0  0  0  0
 46 44  1  0  0  0  0
 47 44  1  0  0  0  0
M  END
>  <minimizedAffinity>
-6.39557266

>  <minimizedRMSD>
0.470267951

$$$$
