
 OpenBabel03232516343D

 27 28  0  0  1  0  0  0  0  0999 V2000
   45.5200   34.0130   43.4050 C   0  0  2  0  0  0  0  0  0  0  0  0
   45.1460   35.3840   43.8380 C   0  0  0  0  0  0  0  0  0  0  0  0
   44.3810   36.2210   42.9300 C   0  0  0  0  0  0  0  0  0  0  0  0
   44.0000   35.7070   41.6210 C   0  0  0  0  0  0  0  0  0  0  0  0
   44.4600   34.3630   41.2520 C   0  0  0  0  0  0  0  0  0  0  0  0
   44.5280   33.4550   42.4250 C   0  0  0  0  0  0  0  0  0  0  0  0
   45.3090   35.9700   44.7320 H   0  0  0  0  0  0  0  0  0  0  0  0
   44.0810   37.2080   43.1730 H   0  0  0  0  0  0  0  0  0  0  0  0
   42.8800   35.7530   41.5680 H   0  0  0  0  0  0  0  0  0  0  0  0
   44.3960   36.4190   40.8390 H   0  0  0  0  0  0  0  0  0  0  0  0
   45.3450   34.3640   40.5830 H   0  0  0  0  0  0  0  0  0  0  0  0
   43.6520   33.9170   40.5730 H   0  0  0  0  0  0  0  0  0  0  0  0
   44.7870   32.4110   42.1590 H   0  0  0  0  0  0  0  0  0  0  0  0
   43.5340   33.4860   42.9250 H   0  0  0  0  0  0  0  0  0  0  0  0
   45.6410   33.6860   45.8880 C   0  0  0  0  0  0  0  0  0  0  0  0
   45.7000   33.1420   44.5850 C   0  0  0  0  0  0  0  0  0  0  0  0
   45.9400   31.7690   44.5190 C   0  0  0  0  0  0  0  0  0  0  0  0
   46.0950   31.0610   45.6620 N   0  0  0  0  0  0  0  0  0  0  0  0
   46.0310   31.6190   46.8720 C   0  0  0  0  0  0  0  0  0  0  0  0
   45.8040   32.9290   46.9800 N   0  0  0  0  0  0  0  0  0  0  0  0
   45.4640   34.7350   46.0720 H   0  0  0  0  0  0  0  0  0  0  0  0
   46.0060   31.2460   43.5810 H   0  0  0  0  0  0  0  0  0  0  0  0
   46.1580   31.0360   47.7730 H   0  0  0  0  0  0  0  0  0  0  0  0
   46.9200   34.0570   42.7620 C   0  0  0  0  0  0  0  0  0  0  0  0
   47.9140   33.9900   43.7130 F   0  0  0  0  0  0  0  0  0  0  0  0
   47.0570   33.2200   41.7050 F   0  0  0  0  0  0  0  0  0  0  0  0
   47.0690   35.3560   42.2160 F   0  0  0  0  0  0  0  0  0  0  0  0
  1 24  1  6  0  0  0
  1  2  1  0  0  0  0
  1 16  1  0  0  0  0
  2  7  1  0  0  0  0
  3  8  1  0  0  0  0
  3  2  2  0  0  0  0
  4  3  1  0  0  0  0
  5  4  1  0  0  0  0
  5  6  1  0  0  0  0
  6 14  1  0  0  0  0
  6  1  1  0  0  0  0
  9  4  1  0  0  0  0
 10  4  1  0  0  0  0
 11  5  1  0  0  0  0
 12  5  1  0  0  0  0
 13  6  1  0  0  0  0
 15 21  1  0  0  0  0
 15 20  1  0  0  0  0
 16 15  2  0  0  0  0
 17 16  1  0  0  0  0
 17 18  2  0  0  0  0
 18 19  1  0  0  0  0
 19 20  2  0  0  0  0
 19 23  1  0  0  0  0
 22 17  1  0  0  0  0
 24 25  1  0  0  0  0
 26 24  1  0  0  0  0
 27 24  1  0  0  0  0
M  END
>  <minimizedAffinity>
-4.30862427

>  <minimizedRMSD>
2.31606317

$$$$
