
 OpenBabel03232518273D

 25 27  0  0  0  0  0  0  0  0999 V2000
   45.4490   32.9960   47.4430 S   0  0  0  0  0  0  0  0  0  0  0  0
   48.6640   29.5210   48.6010 N   0  0  0  0  0  0  0  0  0  0  0  0
   48.6840   30.6040   49.4010 C   0  0  0  0  0  0  0  0  0  0  0  0
   47.7510   31.4780   48.9690 N   0  0  0  0  0  0  0  0  0  0  0  0
   47.1230   30.9600   47.8840 C   0  0  0  0  0  0  0  0  0  0  0  0
   46.1030   31.3820   47.0280 C   0  0  0  0  0  0  0  0  0  0  0  0
   45.7220   30.5850   46.0220 N   0  0  0  0  0  0  0  0  0  0  0  0
   46.3520   29.3770   45.8720 C   0  0  0  0  0  0  0  0  0  0  0  0
   47.3530   28.9170   46.6790 N   0  0  0  0  0  0  0  0  0  0  0  0
   47.7160   29.7350   47.6800 C   0  0  0  0  0  0  0  0  0  0  0  0
   49.2930   28.7010   48.7270 H   0  0  0  0  0  0  0  0  0  0  0  0
   49.3270   30.7780   50.2560 H   0  0  0  0  0  0  0  0  0  0  0  0
   46.0260   28.7510   45.0530 H   0  0  0  0  0  0  0  0  0  0  0  0
   44.6150   35.6640   44.6310 C   0  0  0  0  0  0  0  0  0  0  0  0
   45.5160   35.3940   43.6000 C   0  0  0  0  0  0  0  0  0  0  0  0
   46.4360   34.3250   43.7820 C   0  0  0  0  0  0  0  0  0  0  0  0
   46.3840   33.6240   44.9590 N   0  0  0  0  0  0  0  0  0  0  0  0
   45.4840   33.9410   45.9140 C   0  0  0  0  0  0  0  0  0  0  0  0
   44.6030   34.9510   45.7620 N   0  0  0  0  0  0  0  0  0  0  0  0
   43.9080   36.4740   44.5110 H   0  0  0  0  0  0  0  0  0  0  0  0
   45.5120   35.9770   42.6970 H   0  0  0  0  0  0  0  0  0  0  0  0
   47.4080   33.9920   42.7350 C   0  0  0  0  0  0  0  0  0  0  0  0
   47.4800   35.0820   41.8820 F   0  0  0  0  0  0  0  0  0  0  0  0
   48.6590   33.8320   43.2860 F   0  0  0  0  0  0  0  0  0  0  0  0
   46.9610   32.8870   42.0500 F   0  0  0  0  0  0  0  0  0  0  0  0
  2 11  1  0  0  0  0
  2  3  1  0  0  0  0
  3 12  1  0  0  0  0
  4  3  2  0  0  0  0
  5  4  1  0  0  0  0
  6  1  1  0  0  0  0
  6  5  2  0  0  0  0
  7  6  1  0  0  0  0
  8  7  2  0  0  0  0
  8  9  1  0  0  0  0
  9 10  2  0  0  0  0
 10  5  1  0  0  0  0
 10  2  1  0  0  0  0
 13  8  1  0  0  0  0
 14 19  1  0  0  0  0
 15 16  1  0  0  0  0
 15 14  2  0  0  0  0
 16 17  2  0  0  0  0
 17 18  1  0  0  0  0
 18  1  1  0  0  0  0
 19 18  2  0  0  0  0
 20 14  1  0  0  0  0
 21 15  1  0  0  0  0
 22 24  1  0  0  0  0
 22 16  1  0  0  0  0
 23 22  1  0  0  0  0
 25 22  1  0  0  0  0
M  END
>  <minimizedAffinity>
-5.1344285

>  <minimizedRMSD>
0.471289307

$$$$
