
 OpenBabel03232520233D

 27 29  0  0  0  0  0  0  0  0999 V2000
   45.3210   34.1460   41.5650 C   0  0  0  0  0  0  0  0  0  0  0  0
   46.4570   34.2620   40.7950 C   0  0  0  0  0  0  0  0  0  0  0  0
   46.2030   33.8790   39.5400 N   0  0  0  0  0  0  0  0  0  0  0  0
   44.9020   33.5110   39.4870 C   0  0  0  0  0  0  0  0  0  0  0  0
   44.1680   33.0430   38.4160 C   0  0  0  0  0  0  0  0  0  0  0  0
   42.8420   32.7380   38.6390 C   0  0  0  0  0  0  0  0  0  0  0  0
   42.1850   32.8650   39.8580 C   0  0  0  0  0  0  0  0  0  0  0  0
   42.9860   33.3380   40.8750 C   0  0  0  0  0  0  0  0  0  0  0  0
   44.3120   33.6650   40.7440 C   0  0  0  0  0  0  0  0  0  0  0  0
   46.9280   33.8880   38.7900 H   0  0  0  0  0  0  0  0  0  0  0  0
   44.6030   32.9150   37.4340 H   0  0  0  0  0  0  0  0  0  0  0  0
   42.2890   32.3710   37.7750 H   0  0  0  0  0  0  0  0  0  0  0  0
   41.1600   32.6100   39.9560 H   0  0  0  0  0  0  0  0  0  0  0  0
   42.5490   33.4650   41.8570 H   0  0  0  0  0  0  0  0  0  0  0  0
   44.4580   35.9490   44.7110 C   0  0  0  0  0  0  0  0  0  0  0  0
   44.5980   35.6670   43.3440 C   0  0  0  0  0  0  0  0  0  0  0  0
   45.1670   34.4570   42.9730 C   0  0  0  0  0  0  0  0  0  0  0  0
   45.5670   33.5890   43.9660 N   0  0  0  0  0  0  0  0  0  0  0  0
   45.4110   33.9040   45.2740 C   0  0  0  0  0  0  0  0  0  0  0  0
   44.8620   35.0740   45.6560 N   0  0  0  0  0  0  0  0  0  0  0  0
   44.0170   36.8880   44.9890 H   0  0  0  0  0  0  0  0  0  0  0  0
   44.2910   36.3330   42.5660 H   0  0  0  0  0  0  0  0  0  0  0  0
   45.7360   33.2010   46.0450 H   0  0  0  0  0  0  0  0  0  0  0  0
   47.7490   34.7560   41.3570 C   0  0  0  0  0  0  0  0  0  0  0  0
   47.6100   35.8810   42.1220 F   0  0  0  0  0  0  0  0  0  0  0  0
   48.6740   35.0520   40.3640 F   0  0  0  0  0  0  0  0  0  0  0  0
   48.3490   33.8010   42.1530 F   0  0  0  0  0  0  0  0  0  0  0  0
  1 17  1  0  0  0  0
  2 24  1  0  0  0  0
  2  1  2  0  0  0  0
  3  2  1  0  0  0  0
  4  3  1  0  0  0  0
  4  9  1  0  0  0  0
  5  6  1  0  0  0  0
  5  4  2  0  0  0  0
  6  7  2  0  0  0  0
  7 13  1  0  0  0  0
  7  8  1  0  0  0  0
  8 14  1  0  0  0  0
  9  8  2  0  0  0  0
  9  1  1  0  0  0  0
 10  3  1  0  0  0  0
 11  5  1  0  0  0  0
 12  6  1  0  0  0  0
 15 21  1  0  0  0  0
 15 20  1  0  0  0  0
 16 15  2  0  0  0  0
 17 16  1  0  0  0  0
 17 18  2  0  0  0  0
 18 19  1  0  0  0  0
 19 20  2  0  0  0  0
 19 23  1  0  0  0  0
 22 16  1  0  0  0  0
 24 25  1  0  0  0  0
 24 27  1  0  0  0  0
 26 24  1  0  0  0  0
M  END
>  <minimizedAffinity>
-5.35694933

>  <minimizedRMSD>
2.63103151

$$$$
