
 OpenBabel03232519333D

 42 44  0  0  1  0  0  0  0  0999 V2000
   46.8820   34.3440   40.3290 C   0  0  1  0  0  0  0  0  0  0  0  0
   48.1320   34.0280   39.4900 C   0  0  0  0  0  0  0  0  0  0  0  0
   47.5900   33.7100   38.0980 C   0  0  0  0  0  0  0  0  0  0  0  0
   46.8680   32.3980   38.1600 C   0  0  0  0  0  0  0  0  0  0  0  0
   46.5910   32.0050   39.5740 C   0  0  0  0  0  0  0  0  0  0  0  0
   46.0150   33.1840   40.3930 C   0  0  2  0  0  0  0  0  0  0  0  0
   46.5450   35.2780   39.8970 H   0  0  0  0  0  0  0  0  0  0  0  0
   48.7090   33.2070   39.9040 H   0  0  0  0  0  0  0  0  0  0  0  0
   48.7710   34.9530   39.4320 H   0  0  0  0  0  0  0  0  0  0  0  0
   48.4790   33.6500   37.4050 H   0  0  0  0  0  0  0  0  0  0  0  0
   46.9850   34.5280   37.7150 H   0  0  0  0  0  0  0  0  0  0  0  0
   46.0010   32.3440   37.4720 H   0  0  0  0  0  0  0  0  0  0  0  0
   47.5680   31.6250   37.7730 H   0  0  0  0  0  0  0  0  0  0  0  0
   45.7870   31.2320   39.5420 H   0  0  0  0  0  0  0  0  0  0  0  0
   47.4960   31.5770   40.0390 H   0  0  0  0  0  0  0  0  0  0  0  0
   45.9880   32.5880   41.3310 H   0  0  0  0  0  0  0  0  0  0  0  0
   47.3300   34.7530   41.7500 C   0  0  0  0  0  0  0  0  0  0  0  0
   47.1610   35.8100   41.9500 H   0  0  0  0  0  0  0  0  0  0  0  0
   48.4640   34.6750   41.6690 H   0  0  0  0  0  0  0  0  0  0  0  0
   46.7820   33.7530   42.6700 C   0  0  0  0  0  0  0  0  0  0  0  0
   45.9570   33.0860   42.3290 H   0  0  0  0  0  0  0  0  0  0  0  0
   47.6220   33.1600   43.1020 H   0  0  0  0  0  0  0  0  0  0  0  0
   45.9630   33.6720   44.9320 C   0  0  0  0  0  0  0  0  0  0  0  0
   46.0160   34.3730   43.7270 C   0  0  0  0  0  0  0  0  0  0  0  0
   45.3470   35.5290   43.5410 C   0  0  0  0  0  0  0  0  0  0  0  0
   44.6050   35.9990   44.5780 N   0  0  0  0  0  0  0  0  0  0  0  0
   44.5300   35.3450   45.7600 C   0  0  0  0  0  0  0  0  0  0  0  0
   45.2060   34.1850   45.9390 N   0  0  0  0  0  0  0  0  0  0  0  0
   46.4930   32.7480   45.0930 H   0  0  0  0  0  0  0  0  0  0  0  0
   45.3040   36.1500   42.6730 H   0  0  0  0  0  0  0  0  0  0  0  0
   43.9400   35.7210   46.5810 H   0  0  0  0  0  0  0  0  0  0  0  0
   44.6920   33.4250   39.7380 C   0  0  0  0  0  0  0  0  0  0  0  0
   44.7090   33.7740   38.7070 H   0  0  0  0  0  0  0  0  0  0  0  0
   44.1060   32.4840   39.7410 H   0  0  0  0  0  0  0  0  0  0  0  0
   43.8600   34.4550   40.5050 C   0  0  0  0  0  0  0  0  0  0  0  0
   44.2360   35.5070   40.3160 H   0  0  0  0  0  0  0  0  0  0  0  0
   43.6130   34.2250   41.5170 H   0  0  0  0  0  0  0  0  0  0  0  0
   42.5600   34.5130   39.7880 N   0  0  0  0  0  0  0  0  0  0  0  0
   42.2710   33.7660   38.6810 C   0  0  0  0  0  0  0  0  0  0  0  0
   41.0070   34.0590   38.2750 C   0  0  0  0  0  0  0  0  0  0  0  0
   40.5340   34.9700   39.1240 N   0  0  0  0  0  0  0  0  0  0  0  0
   41.4680   35.2530   40.0470 C   0  0  0  0  0  0  0  0  0  0  0  0
  1  7  1  6  0  0  0
  1  6  1  0  0  0  0
  1 17  1  0  0  0  0
  2  8  1  0  0  0  0
  2  1  1  0  0  0  0
  3  4  1  0  0  0  0
  3  2  1  0  0  0  0
  4  5  1  0  0  0  0
  5 15  1  0  0  0  0
  5  6  1  0  0  0  0
  6 16  1  1  0  0  0
  9  2  1  0  0  0  0
 10  3  1  0  0  0  0
 11  3  1  0  0  0  0
 12  4  1  0  0  0  0
 13  4  1  0  0  0  0
 14  5  1  0  0  0  0
 17 18  1  0  0  0  0
 17 20  1  0  0  0  0
 19 17  1  0  0  0  0
 20 22  1  0  0  0  0
 20 24  1  0  0  0  0
 21 20  1  0  0  0  0
 23 29  1  0  0  0  0
 23 28  1  0  0  0  0
 24 23  2  0  0  0  0
 25 24  1  0  0  0  0
 25 26  2  0  0  0  0
 26 27  1  0  0  0  0
 27 28  2  0  0  0  0
 27 31  1  0  0  0  0
 30 25  1  0  0  0  0
 32 34  1  0  0  0  0
 32  6  1  0  0  0  0
 32 35  1  0  0  0  0
 33 32  1  0  0  0  0
 35 37  1  0  0  0  0
 36 35  1  0  0  0  0
 38 42  1  0  0  0  0
 38 35  1  0  0  0  0
 39 38  1  0  0  0  0
 40 39  2  0  0  0  0
 40 41  1  0  0  0  0
 41 42  2  0  0  0  0
M  END
>  <minimizedAffinity>
-4.75432301

>  <minimizedRMSD>
1.79827309

$$$$
