
 OpenBabel03232519203D

 28 29  0  0  1  0  0  0  0  0999 V2000
   44.8990   30.6490   46.7750 N   0  0  0  0  0  0  0  0  0  0  0  0
   44.9290   29.1950   46.8210 C   0  0  0  0  0  0  0  0  0  0  0  0
   46.4090   28.9160   46.9530 C   0  0  0  0  0  0  0  0  0  0  0  0
   46.9300   29.9860   47.8480 C   0  0  0  0  0  0  0  0  0  0  0  0
   45.9520   31.1440   47.5210 C   0  0  2  0  0  0  0  0  0  0  0  0
   44.6910   31.0290   45.8510 H   0  0  0  0  0  0  0  0  0  0  0  0
   44.3190   28.7820   47.6250 H   0  0  0  0  0  0  0  0  0  0  0  0
   44.6390   28.8240   45.8090 H   0  0  0  0  0  0  0  0  0  0  0  0
   46.8920   28.8990   45.9540 H   0  0  0  0  0  0  0  0  0  0  0  0
   46.4690   27.9030   47.4440 H   0  0  0  0  0  0  0  0  0  0  0  0
   47.9600   30.2960   47.6050 H   0  0  0  0  0  0  0  0  0  0  0  0
   46.8740   29.6660   48.9000 H   0  0  0  0  0  0  0  0  0  0  0  0
   45.6420   31.5950   48.9730 C   0  0  0  0  0  0  0  0  0  0  0  0
   44.3930   31.2190   49.3460 F   0  0  0  0  0  0  0  0  0  0  0  0
   46.6570   31.0350   49.7310 F   0  0  0  0  0  0  0  0  0  0  0  0
   45.8670   32.9550   48.9820 F   0  0  0  0  0  0  0  0  0  0  0  0
   46.5190   32.2700   46.9740 O   0  0  0  0  0  0  0  0  0  0  0  0
   46.6090   32.4980   45.5600 C   0  0  0  0  0  0  0  0  0  0  0  0
   47.1800   31.6540   44.8460 O   0  0  0  0  0  0  0  0  0  0  0  0
   44.5430   35.4970   45.3150 C   0  0  0  0  0  0  0  0  0  0  0  0
   44.7950   35.9710   44.0380 C   0  0  0  0  0  0  0  0  0  0  0  0
   45.7010   35.2700   43.2430 C   0  0  0  0  0  0  0  0  0  0  0  0
   46.2850   34.1480   43.7850 N   0  0  0  0  0  0  0  0  0  0  0  0
   45.9930   33.7310   45.0540 C   0  0  0  0  0  0  0  0  0  0  0  0
   45.1360   34.3980   45.8060 N   0  0  0  0  0  0  0  0  0  0  0  0
   43.8480   35.9810   46.0110 H   0  0  0  0  0  0  0  0  0  0  0  0
   44.2890   36.8630   43.6920 H   0  0  0  0  0  0  0  0  0  0  0  0
   45.9260   35.5970   42.2530 H   0  0  0  0  0  0  0  0  0  0  0  0
  1  2  1  0  0  0  0
  1  5  1  0  0  0  0
  2  3  1  0  0  0  0
  2  7  1  0  0  0  0
  3 10  1  0  0  0  0
  3  4  1  0  0  0  0
  4 12  1  0  0  0  0
  5 17  1  6  0  0  0
  5  4  1  0  0  0  0
  5 13  1  0  0  0  0
  6  1  1  0  0  0  0
  8  2  1  0  0  0  0
  9  3  1  0  0  0  0
 11  4  1  0  0  0  0
 13 16  1  0  0  0  0
 13 14  1  0  0  0  0
 13 15  1  0  0  0  0
 18 17  1  0  0  0  0
 19 18  2  0  0  0  0
 20 25  1  0  0  0  0
 20 26  1  0  0  0  0
 21 20  2  0  0  0  0
 22 23  2  0  0  0  0
 22 21  1  0  0  0  0
 23 24  1  0  0  0  0
 24 18  1  0  0  0  0
 24 25  2  0  0  0  0
 27 21  1  0  0  0  0
 28 22  1  0  0  0  0
M  END
>  <minimizedAffinity>
-5.17459345

>  <minimizedRMSD>
1.80666709

$$$$
