
 OpenBabel03232520373D

 14 14  0  0  0  0  0  0  0  0999 V2000
   42.2940   32.9020   41.1210 C   0  0  0  0  0  0  0  0  0  0  0  0
   43.4040   33.5140   41.7550 C   0  0  0  0  0  0  0  0  0  0  0  0
   43.4800   34.9020   41.7860 C   0  0  0  0  0  0  0  0  0  0  0  0
   42.4580   35.6230   41.1910 N   0  0  0  0  0  0  0  0  0  0  0  0
   41.4260   34.9970   40.6030 C   0  0  0  0  0  0  0  0  0  0  0  0
   41.3270   33.6700   40.5580 N   0  0  0  0  0  0  0  0  0  0  0  0
   42.3010   31.8110   41.1360 H   0  0  0  0  0  0  0  0  0  0  0  0
   44.3110   35.4040   42.2600 H   0  0  0  0  0  0  0  0  0  0  0  0
   40.3490   35.8140   39.9760 C   0  0  0  0  0  0  0  0  0  0  0  0
   39.3020   34.9710   39.6460 F   0  0  0  0  0  0  0  0  0  0  0  0
   40.8470   36.2870   38.7780 F   0  0  0  0  0  0  0  0  0  0  0  0
   39.9030   36.8300   40.7830 F   0  0  0  0  0  0  0  0  0  0  0  0
   44.7000   32.5180   42.5100 S   0  0  0  0  0  0  0  0  0  0  0  0
   44.2630   31.1880   42.5750 H   0  0  0  0  0  0  0  0  0  0  0  0
  1  7  1  0  0  0  0
  1  2  1  0  0  0  0
  2  3  2  0  0  0  0
  2 13  1  0  0  0  0
  3  8  1  0  0  0  0
  4  3  1  0  0  0  0
  5  4  2  0  0  0  0
  6  5  1  0  0  0  0
  6  1  2  0  0  0  0
  9  5  1  0  0  0  0
  9 12  1  0  0  0  0
 10  9  1  0  0  0  0
 11  9  1  0  0  0  0
 13 14  1  0  0  0  0
M  END
>  <minimizedAffinity>
-3.62279415

>  <minimizedRMSD>
7.01578236

$$$$
