
 OpenBabel03232520323D

 44 48  0  0  1  0  0  0  0  0999 V2000
   46.8210   34.5430   41.3640 C   0  0  0  0  0  0  0  0  0  0  0  0
   48.1010   34.9320   40.9870 C   0  0  0  0  0  0  0  0  0  0  0  0
   48.3420   34.5760   39.7290 N   0  0  0  0  0  0  0  0  0  0  0  0
   47.2380   33.9610   39.2820 C   0  0  0  0  0  0  0  0  0  0  0  0
   46.9660   33.3970   38.0260 C   0  0  0  0  0  0  0  0  0  0  0  0
   45.7470   32.8220   37.8200 C   0  0  0  0  0  0  0  0  0  0  0  0
   44.7480   32.7530   38.7640 C   0  0  0  0  0  0  0  0  0  0  0  0
   45.0680   33.3210   39.9710 C   0  0  0  0  0  0  0  0  0  0  0  0
   46.2620   33.9150   40.2590 C   0  0  0  0  0  0  0  0  0  0  0  0
   49.2070   34.7170   39.1360 H   0  0  0  0  0  0  0  0  0  0  0  0
   47.7100   33.4180   37.2400 H   0  0  0  0  0  0  0  0  0  0  0  0
   45.5760   32.3940   36.8320 H   0  0  0  0  0  0  0  0  0  0  0  0
   43.7960   32.2810   38.5380 H   0  0  0  0  0  0  0  0  0  0  0  0
   44.3020   33.2910   40.7600 H   0  0  0  0  0  0  0  0  0  0  0  0
   44.7370   36.0340   44.0690 C   0  0  0  0  0  0  0  0  0  0  0  0
   45.3650   35.8650   42.8140 C   0  0  0  0  0  0  0  0  0  0  0  0
   46.1640   34.7380   42.6490 C   0  0  0  0  0  0  0  0  0  0  0  0
   46.3160   33.8430   43.6890 N   0  0  0  0  0  0  0  0  0  0  0  0
   45.6820   34.0710   44.8650 C   0  0  0  0  0  0  0  0  0  0  0  0
   44.8970   35.1520   45.0660 N   0  0  0  0  0  0  0  0  0  0  0  0
   44.1060   36.8760   44.2720 H   0  0  0  0  0  0  0  0  0  0  0  0
   45.2120   36.5960   42.0350 H   0  0  0  0  0  0  0  0  0  0  0  0
   45.9390   33.2480   45.5350 H   0  0  0  0  0  0  0  0  0  0  0  0
   49.0420   35.6450   41.8930 C   0  0  0  0  0  0  0  0  0  0  0  0
   49.6230   36.4040   41.3200 H   0  0  0  0  0  0  0  0  0  0  0  0
   48.4460   36.1950   42.6580 H   0  0  0  0  0  0  0  0  0  0  0  0
   49.9770   34.7020   42.5740 C   0  0  0  0  0  0  0  0  0  0  0  0
   49.6730   34.6070   43.6480 H   0  0  0  0  0  0  0  0  0  0  0  0
   51.0130   35.1280   42.6150 H   0  0  0  0  0  0  0  0  0  0  0  0
   50.0970   33.3560   41.9180 C   0  0  1  0  0  0  0  0  0  0  0  0
   51.0500   32.3380   42.3390 C   0  0  0  0  0  0  0  0  0  0  0  0
   49.6510   32.1900   42.8200 C   0  0  2  0  0  0  0  0  0  0  0  0
   49.7710   33.2890   40.8450 H   0  0  0  0  0  0  0  0  0  0  0  0
   51.8490   32.6730   43.0410 H   0  0  0  0  0  0  0  0  0  0  0  0
   51.4360   31.6080   41.6090 H   0  0  0  0  0  0  0  0  0  0  0  0
   49.4550   32.3920   43.8820 H   0  0  0  0  0  0  0  0  0  0  0  0
   48.9040   31.1700   42.2690 O   0  0  0  0  0  0  0  0  0  0  0  0
   47.6330   30.8090   42.6830 C   0  0  0  0  0  0  0  0  0  0  0  0
   47.5230   30.5570   44.0500 C   0  0  0  0  0  0  0  0  0  0  0  0
   46.2710   30.1920   44.5150 C   0  0  0  0  0  0  0  0  0  0  0  0
   45.1870   30.0850   43.6620 C   0  0  0  0  0  0  0  0  0  0  0  0
   44.1790   29.8090   43.9360 H   0  0  0  0  0  0  0  0  0  0  0  0
   45.3520   30.3500   42.3000 C   0  0  0  0  0  0  0  0  0  0  0  0
   46.5750   30.7030   41.8660 N   0  0  0  0  0  0  0  0  0  0  0  0
  1 17  1  0  0  0  0
  2  1  2  0  0  0  0
  2 24  1  0  0  0  0
  3  2  1  0  0  0  0
  4  3  1  0  0  0  0
  4  9  1  0  0  0  0
  5  4  2  0  0  0  0
  6  5  1  0  0  0  0
  6  7  2  0  0  0  0
  7  8  1  0  0  0  0
  8  9  2  0  0  0  0
  8 14  1  0  0  0  0
  9  1  1  0  0  0  0
 10  3  1  0  0  0  0
 11  5  1  0  0  0  0
 12  6  1  0  0  0  0
 13  7  1  0  0  0  0
 15 21  1  0  0  0  0
 15 20  1  0  0  0  0
 16 15  2  0  0  0  0
 17 16  1  0  0  0  0
 17 18  2  0  0  0  0
 18 19  1  0  0  0  0
 19 20  2  0  0  0  0
 19 23  1  0  0  0  0
 22 16  1  0  0  0  0
 24 27  1  0  0  0  0
 24 26  1  0  0  0  0
 25 24  1  0  0  0  0
 27 29  1  0  0  0  0
 27 28  1  0  0  0  0
 30 33  1  6  0  0  0
 30 31  1  0  0  0  0
 30 27  1  0  0  0  0
 30 32  1  0  0  0  0
 31 32  1  0  0  0  0
 31 34  1  0  0  0  0
 32 36  1  1  0  0  0
 35 31  1  0  0  0  0
 37 38  1  0  0  0  0
 37 32  1  0  0  0  0
 38 39  1  0  0  0  0
 39 40  2  0  0  0  0
 41 42  1  0  0  0  0
 41 40  1  0  0  0  0
 43 41  2  0  0  0  0
 44 43  1  0  0  0  0
 44 38  2  0  0  0  0
M  END
>  <minimizedAffinity>
-5.57818699

>  <minimizedRMSD>
0.888966084

$$$$
