
 OpenBabel03232519373D

 32 34  0  0  0  0  0  0  0  0999 V2000
   46.5560   34.4520   41.9450 N   0  0  0  0  0  0  0  0  0  0  0  0
   47.6920   35.2200   41.8390 C   0  0  0  0  0  0  0  0  0  0  0  0
   48.4380   35.2400   40.6950 C   0  0  0  0  0  0  0  0  0  0  0  0
   48.0020   34.4430   39.6210 C   0  0  0  0  0  0  0  0  0  0  0  0
   48.6580   34.4340   38.5540 O   0  0  0  0  0  0  0  0  0  0  0  0
   46.8840   33.7170   39.7920 N   0  0  0  0  0  0  0  0  0  0  0  0
   46.1770   33.7190   40.9210 C   0  0  0  0  0  0  0  0  0  0  0  0
   45.1520   33.0770   41.1320 O   0  0  0  0  0  0  0  0  0  0  0  0
   48.0860   35.8540   42.6170 H   0  0  0  0  0  0  0  0  0  0  0  0
   49.3360   35.8290   40.5690 H   0  0  0  0  0  0  0  0  0  0  0  0
   46.3960   32.8930   38.7400 C   0  0  0  0  0  0  0  0  0  0  0  0
   45.4560   33.3030   37.8080 C   0  0  0  0  0  0  0  0  0  0  0  0
   45.0410   32.4330   36.8220 C   0  0  0  0  0  0  0  0  0  0  0  0
   45.5540   31.1420   36.7430 C   0  0  0  0  0  0  0  0  0  0  0  0
   46.4860   30.7600   37.6780 C   0  0  0  0  0  0  0  0  0  0  0  0
   46.9370   31.6110   38.7010 C   0  0  0  0  0  0  0  0  0  0  0  0
   45.0740   34.3070   37.8910 H   0  0  0  0  0  0  0  0  0  0  0  0
   44.3020   32.7430   36.0830 H   0  0  0  0  0  0  0  0  0  0  0  0
   45.1990   30.5120   35.9600 H   0  0  0  0  0  0  0  0  0  0  0  0
   46.8380   29.7460   37.5540 H   0  0  0  0  0  0  0  0  0  0  0  0
   47.9480   31.0940   39.6590 C   0  0  0  0  0  0  0  0  0  0  0  0
   49.2520   31.8280   39.6220 C   0  0  0  0  0  0  0  0  0  0  0  0
   47.4380   31.1130   41.0850 C   0  0  0  0  0  0  0  0  0  0  0  0
   44.5410   35.8600   44.7120 C   0  0  0  0  0  0  0  0  0  0  0  0
   45.1300   35.7080   43.4280 C   0  0  0  0  0  0  0  0  0  0  0  0
   45.9590   34.6070   43.2440 C   0  0  0  0  0  0  0  0  0  0  0  0
   46.1790   33.7340   44.2610 N   0  0  0  0  0  0  0  0  0  0  0  0
   45.5920   33.9230   45.4720 C   0  0  0  0  0  0  0  0  0  0  0  0
   44.7890   34.9620   45.7000 N   0  0  0  0  0  0  0  0  0  0  0  0
   43.8900   36.7270   44.8540 H   0  0  0  0  0  0  0  0  0  0  0  0
   44.9250   36.4320   42.6470 H   0  0  0  0  0  0  0  0  0  0  0  0
   45.8160   33.1800   46.2390 H   0  0  0  0  0  0  0  0  0  0  0  0
  1 26  1  0  0  0  0
  2  1  1  0  0  0  0
  2  9  1  0  0  0  0
  3  2  2  0  0  0  0
  4  6  1  0  0  0  0
  4  3  1  0  0  0  0
  5  4  2  0  0  0  0
  6  7  1  0  0  0  0
  7  8  2  0  0  0  0
  7  1  1  0  0  0  0
 10  3  1  0  0  0  0
 11  6  1  0  0  0  0
 12 17  1  0  0  0  0
 12 11  2  0  0  0  0
 13 12  1  0  0  0  0
 14 13  2  0  0  0  0
 14 15  1  0  0  0  0
 15 16  2  0  0  0  0
 16 11  1  0  0  0  0
 16 21  1  0  0  0  0
 18 13  1  0  0  0  0
 19 14  1  0  0  0  0
 20 15  1  0  0  0  0
 21 23  1  0  0  0  0
 22 21  1  0  0  0  0
 24 30  1  0  0  0  0
 24 29  1  0  0  0  0
 25 24  2  0  0  0  0
 26 25  1  0  0  0  0
 26 27  2  0  0  0  0
 27 28  1  0  0  0  0
 28 29  2  0  0  0  0
 28 32  1  0  0  0  0
 31 25  1  0  0  0  0
M  END
>  <minimizedAffinity>
-5.16853476

>  <minimizedRMSD>
0.33619678

$$$$
