
 OpenBabel03232520373D

 13 13  0  0  0  0  0  0  0  0999 V2000
   44.7700   34.9700   45.5600 C   0  0  0  0  0  0  0  0  0  0  0  0
   45.4360   34.9110   44.3090 C   0  0  0  0  0  0  0  0  0  0  0  0
   46.3720   33.8870   44.0970 C   0  0  0  0  0  0  0  0  0  0  0  0
   46.6000   32.9830   45.1160 N   0  0  0  0  0  0  0  0  0  0  0  0
   45.9340   33.0930   46.2860 C   0  0  0  0  0  0  0  0  0  0  0  0
   45.0380   34.0540   46.5200 N   0  0  0  0  0  0  0  0  0  0  0  0
   44.0450   35.7550   45.7400 H   0  0  0  0  0  0  0  0  0  0  0  0
   46.8870   33.8300   43.1480 H   0  0  0  0  0  0  0  0  0  0  0  0
   46.2990   32.0340   47.2850 C   0  0  0  0  0  0  0  0  0  0  0  0
   47.5590   32.3910   48.0430 C   0  0  0  0  0  0  0  0  0  0  0  0
   45.1270   31.8570   48.2540 C   0  0  0  0  0  0  0  0  0  0  0  0
   45.0910   36.1190   43.0270 S   0  0  0  0  0  0  0  0  0  0  0  0
   43.7700   35.8770   42.5800 H   0  0  0  0  0  0  0  0  0  0  0  0
  1  7  1  0  0  0  0
  1  6  1  0  0  0  0
  2  1  2  0  0  0  0
  3  2  1  0  0  0  0
  3  4  2  0  0  0  0
  4  5  1  0  0  0  0
  5  6  2  0  0  0  0
  5  9  1  0  0  0  0
  8  3  1  0  0  0  0
  9 10  1  0  0  0  0
  9 11  1  0  0  0  0
 12  2  1  0  0  0  0
 13 12  1  0  0  0  0
M  END
>  <minimizedAffinity>
-3.41396284

>  <minimizedRMSD>
1.75320077

$$$$
