
 OpenBabel03232518163D

 25 26  0  0  1  0  0  0  0  0999 V2000
   44.1370   34.8240   41.6320 C   0  0  2  0  0  0  0  0  0  0  0  0
   42.6040   35.0130   41.4720 C   0  0  0  0  0  0  0  0  0  0  0  0
   42.6330   35.2240   39.9420 C   0  0  1  0  0  0  0  0  0  0  0  0
   43.4600   34.0480   39.5170 C   0  0  0  0  0  0  0  0  0  0  0  0
   44.3720   33.7240   40.6980 C   0  0  0  0  0  0  0  0  0  0  0  0
   44.5410   35.7800   41.2520 H   0  0  0  0  0  0  0  0  0  0  0  0
   42.0810   34.0990   41.7570 H   0  0  0  0  0  0  0  0  0  0  0  0
   42.2640   35.9290   41.9710 H   0  0  0  0  0  0  0  0  0  0  0  0
   43.1000   36.2010   39.8140 H   0  0  0  0  0  0  0  0  0  0  0  0
   42.7940   33.1970   39.3730 H   0  0  0  0  0  0  0  0  0  0  0  0
   44.0980   34.2800   38.6390 H   0  0  0  0  0  0  0  0  0  0  0  0
   44.1090   32.7440   41.1460 H   0  0  0  0  0  0  0  0  0  0  0  0
   45.4290   33.6650   40.3920 H   0  0  0  0  0  0  0  0  0  0  0  0
   44.2850   35.6770   43.9270 C   0  0  0  0  0  0  0  0  0  0  0  0
   44.5380   34.6120   43.0220 C   0  0  0  0  0  0  0  0  0  0  0  0
   45.1710   33.4250   43.4920 C   0  0  0  0  0  0  0  0  0  0  0  0
   45.5060   33.3740   44.8070 N   0  0  0  0  0  0  0  0  0  0  0  0
   45.2530   34.4110   45.6540 C   0  0  0  0  0  0  0  0  0  0  0  0
   44.6480   35.5520   45.2200 N   0  0  0  0  0  0  0  0  0  0  0  0
   43.8060   36.5710   43.5610 H   0  0  0  0  0  0  0  0  0  0  0  0
   45.3470   32.6350   42.7750 H   0  0  0  0  0  0  0  0  0  0  0  0
   45.5390   34.3290   46.7040 H   0  0  0  0  0  0  0  0  0  0  0  0
   41.2530   35.2350   39.3460 C   0  0  0  0  0  0  0  0  0  0  0  0
   40.2950   36.0560   40.1940 C   0  0  0  0  0  0  0  0  0  0  0  0
   41.2190   35.8790   37.9780 C   0  0  0  0  0  0  0  0  0  0  0  0
  1  6  1  6  0  0  0
  1 15  1  0  0  0  0
  2  1  1  0  0  0  0
  2  7  1  0  0  0  0
  2  8  1  0  0  0  0
  3  9  1  6  0  0  0
  3  2  1  0  0  0  0
  4  3  1  0  0  0  0
  4  5  1  0  0  0  0
  5 12  1  0  0  0  0
  5  1  1  0  0  0  0
 10  4  1  0  0  0  0
 11  4  1  0  0  0  0
 13  5  1  0  0  0  0
 14 19  1  0  0  0  0
 15 16  1  0  0  0  0
 15 14  2  0  0  0  0
 16 17  2  0  0  0  0
 17 18  1  0  0  0  0
 18 22  1  0  0  0  0
 19 18  2  0  0  0  0
 20 14  1  0  0  0  0
 21 16  1  0  0  0  0
 23  3  1  0  0  0  0
 23 24  1  0  0  0  0
 25 23  1  0  0  0  0
M  END
>  <minimizedAffinity>
-4.72163057

>  <minimizedRMSD>
0.424745798

$$$$
