
 OpenBabel03232519433D

 41 43  0  0  0  0  0  0  0  0999 V2000
   46.6340   34.3540   41.9690 N   0  0  0  0  0  0  0  0  0  0  0  0
   47.7360   35.1560   41.8410 C   0  0  0  0  0  0  0  0  0  0  0  0
   48.4340   35.2230   40.6680 C   0  0  0  0  0  0  0  0  0  0  0  0
   47.9820   34.4390   39.6020 C   0  0  0  0  0  0  0  0  0  0  0  0
   48.6010   34.4870   38.5220 O   0  0  0  0  0  0  0  0  0  0  0  0
   46.8980   33.6710   39.7880 N   0  0  0  0  0  0  0  0  0  0  0  0
   46.2320   33.6290   40.9510 C   0  0  0  0  0  0  0  0  0  0  0  0
   45.2470   32.9640   41.1820 O   0  0  0  0  0  0  0  0  0  0  0  0
   48.1400   35.7860   42.6250 H   0  0  0  0  0  0  0  0  0  0  0  0
   49.3130   35.8510   40.5310 H   0  0  0  0  0  0  0  0  0  0  0  0
   46.4080   32.8550   38.7480 C   0  0  0  0  0  0  0  0  0  0  0  0
   45.4420   33.2610   37.8460 C   0  0  0  0  0  0  0  0  0  0  0  0
   45.0160   32.4030   36.8530 C   0  0  0  0  0  0  0  0  0  0  0  0
   45.5400   31.1340   36.7410 C   0  0  0  0  0  0  0  0  0  0  0  0
   46.4880   30.7640   37.6430 C   0  0  0  0  0  0  0  0  0  0  0  0
   46.9710   31.5780   38.6790 C   0  0  0  0  0  0  0  0  0  0  0  0
   45.0230   34.2720   37.9330 H   0  0  0  0  0  0  0  0  0  0  0  0
   44.2600   32.7210   36.1460 H   0  0  0  0  0  0  0  0  0  0  0  0
   45.2000   30.4700   35.9610 H   0  0  0  0  0  0  0  0  0  0  0  0
   46.8780   29.7440   37.5170 H   0  0  0  0  0  0  0  0  0  0  0  0
   48.0140   31.0800   39.6130 C   0  0  0  0  0  0  0  0  0  0  0  0
   48.2110   30.0220   39.2450 H   0  0  0  0  0  0  0  0  0  0  0  0
   49.3010   31.8220   39.5850 C   0  0  0  0  0  0  0  0  0  0  0  0
   49.7150   32.0890   38.6220 H   0  0  0  0  0  0  0  0  0  0  0  0
   50.0670   30.9690   39.7980 H   0  0  0  0  0  0  0  0  0  0  0  0
   49.6010   32.3770   40.4870 H   0  0  0  0  0  0  0  0  0  0  0  0
   47.5590   31.0140   41.0380 C   0  0  0  0  0  0  0  0  0  0  0  0
   48.1240   30.0740   41.4240 H   0  0  0  0  0  0  0  0  0  0  0  0
   48.0550   31.7000   41.7440 H   0  0  0  0  0  0  0  0  0  0  0  0
   46.5660   30.6560   41.2320 H   0  0  0  0  0  0  0  0  0  0  0  0
   44.5930   35.5880   44.8080 C   0  0  0  0  0  0  0  0  0  0  0  0
   45.1490   35.4820   43.5060 C   0  0  0  0  0  0  0  0  0  0  0  0
   46.0800   34.4600   43.2970 C   0  0  0  0  0  0  0  0  0  0  0  0
   46.4230   33.6190   44.3070 N   0  0  0  0  0  0  0  0  0  0  0  0
   45.8600   33.7640   45.5410 C   0  0  0  0  0  0  0  0  0  0  0  0
   44.9730   34.7170   45.7830 N   0  0  0  0  0  0  0  0  0  0  0  0
   43.8790   36.3900   44.9280 H   0  0  0  0  0  0  0  0  0  0  0  0
   44.8470   36.1700   42.7410 H   0  0  0  0  0  0  0  0  0  0  0  0
   46.2450   32.8350   46.6420 C   0  0  0  0  0  0  0  0  0  0  0  0
   46.4550   31.4350   46.1650 C   0  0  0  0  0  0  0  0  0  0  0  0
   45.1830   32.8170   47.7180 C   0  0  0  0  0  0  0  0  0  0  0  0
  1 33  1  0  0  0  0
  2  1  1  0  0  0  0
  2  9  1  0  0  0  0
  3  2  2  0  0  0  0
  4  6  1  0  0  0  0
  4  3  1  0  0  0  0
  5  4  2  0  0  0  0
  6  7  1  0  0  0  0
  7  8  2  0  0  0  0
  7  1  1  0  0  0  0
 10  3  1  0  0  0  0
 11  6  1  0  0  0  0
 12 17  1  0  0  0  0
 12 11  2  0  0  0  0
 13 12  1  0  0  0  0
 14 13  2  0  0  0  0
 14 15  1  0  0  0  0
 15 16  2  0  0  0  0
 16 11  1  0  0  0  0
 16 21  1  0  0  0  0
 18 13  1  0  0  0  0
 19 14  1  0  0  0  0
 20 15  1  0  0  0  0
 21 27  1  0  0  0  0
 22 21  1  0  0  0  0
 23 21  1  0  0  0  0
 23 25  1  0  0  0  0
 23 26  1  0  0  0  0
 24 23  1  0  0  0  0
 27 30  1  0  0  0  0
 27 28  1  0  0  0  0
 27 29  1  0  0  0  0
 31 37  1  0  0  0  0
 31 36  1  0  0  0  0
 32 31  2  0  0  0  0
 33 32  1  0  0  0  0
 33 34  2  0  0  0  0
 34 35  1  0  0  0  0
 35 36  2  0  0  0  0
 35 39  1  0  0  0  0
 38 32  1  0  0  0  0
 39 41  1  0  0  0  0
 40 39  1  0  0  0  0
M  END
>  <minimizedAffinity>
-5.74445724

>  <minimizedRMSD>
0.227514371

$$$$
