
 OpenBabel03232519093D

 46 48  0  0  1  0  0  0  0  0999 V2000
   45.7250   31.3270   43.0450 C   0  0  0  0  0  0  0  0  0  0  0  0
   45.9830   29.8220   46.3840 C   0  0  0  0  0  0  0  0  0  0  0  0
   46.1800   30.9390   47.1220 C   0  0  0  0  0  0  0  0  0  0  0  0
   46.1550   32.2380   45.8910 S   0  0  0  0  0  0  0  0  0  0  0  0
   45.8640   30.9810   44.4920 C   0  0  0  0  0  0  0  0  0  0  0  0
   45.8510   30.0420   45.1350 N   0  0  0  0  0  0  0  0  0  0  0  0
   46.3220   31.0540   48.2000 H   0  0  0  0  0  0  0  0  0  0  0  0
   46.9170   26.3770   47.6880 C   0  0  0  0  0  0  0  0  0  0  0  0
   47.0150   27.6180   47.0650 C   0  0  0  0  0  0  0  0  0  0  0  0
   45.9310   28.4960   47.0310 C   0  0  0  0  0  0  0  0  0  0  0  0
   44.8360   28.0230   47.6440 N   0  0  0  0  0  0  0  0  0  0  0  0
   44.7040   26.8470   48.2500 C   0  0  0  0  0  0  0  0  0  0  0  0
   45.7550   26.0450   48.2580 N   0  0  0  0  0  0  0  0  0  0  0  0
   47.7830   25.7290   47.6890 H   0  0  0  0  0  0  0  0  0  0  0  0
   47.9410   27.9360   46.5860 H   0  0  0  0  0  0  0  0  0  0  0  0
   43.7570   26.6120   48.6970 H   0  0  0  0  0  0  0  0  0  0  0  0
   44.2540   31.5590   42.7780 C   0  0  0  0  0  0  0  0  0  0  0  0
   44.0030   31.7360   41.7320 H   0  0  0  0  0  0  0  0  0  0  0  0
   43.7810   32.1990   43.5290 H   0  0  0  0  0  0  0  0  0  0  0  0
   43.7840   30.5330   42.9850 H   0  0  0  0  0  0  0  0  0  0  0  0
   46.1990   30.1390   42.2710 C   0  0  0  0  0  0  0  0  0  0  0  0
   45.7370   29.2280   42.6880 H   0  0  0  0  0  0  0  0  0  0  0  0
   45.9130   30.3030   41.2060 H   0  0  0  0  0  0  0  0  0  0  0  0
   47.2840   30.0600   42.3340 H   0  0  0  0  0  0  0  0  0  0  0  0
   46.5260   32.5200   42.7020 C   0  0  1  0  0  0  0  0  0  0  0  0
   47.1880   32.6660   43.5990 H   0  0  0  0  0  0  0  0  0  0  0  0
   47.5390   32.3580   41.6510 N   0  0  0  0  0  0  0  0  0  0  0  0
   48.8610   32.2850   41.8800 C   0  0  0  0  0  0  0  0  0  0  0  0
   49.8360   32.1170   40.9260 C   0  0  0  0  0  0  0  0  0  0  0  0
   51.2810   32.0460   41.2460 C   0  0  0  0  0  0  0  0  0  0  0  0
   49.4460   32.0110   39.6010 C   0  0  0  0  0  0  0  0  0  0  0  0
   50.2930   31.8580   38.6920 O   0  0  0  0  0  0  0  0  0  0  0  0
   48.1310   32.0790   39.3470 N   0  0  0  0  0  0  0  0  0  0  0  0
   47.2450   32.2440   40.3400 C   0  0  0  0  0  0  0  0  0  0  0  0
   46.0630   32.2810   39.9160 O   0  0  0  0  0  0  0  0  0  0  0  0
   47.8810   31.9950   38.3440 H   0  0  0  0  0  0  0  0  0  0  0  0
   45.7350   33.6830   42.5020 N   0  0  0  0  0  0  0  0  0  0  0  0
   44.7580   34.5030   41.9240 C   0  0  0  0  0  0  0  0  0  0  0  0
   44.1190   35.5640   41.7210 O   0  0  0  0  0  0  0  0  0  0  0  0
   43.9500   33.7740   40.9740 N   0  0  0  0  0  0  0  0  0  0  0  0
   44.1300   33.6650   39.9680 H   0  0  0  0  0  0  0  0  0  0  0  0
   43.0750   33.2680   41.2050 H   0  0  0  0  0  0  0  0  0  0  0  0
   46.0820   34.8780   43.3180 C   0  0  0  0  0  0  0  0  0  0  0  0
   47.2880   34.5030   43.9510 F   0  0  0  0  0  0  0  0  0  0  0  0
   45.1800   35.2070   44.1840 F   0  0  0  0  0  0  0  0  0  0  0  0
   46.4640   35.8960   42.4190 F   0  0  0  0  0  0  0  0  0  0  0  0
  1  5  1  0  0  0  0
  2 10  1  0  0  0  0
  2  3  2  0  0  0  0
  3  7  1  0  0  0  0
  4  3  1  0  0  0  0
  5  6  2  0  0  0  0
  5  4  1  0  0  0  0
  6  2  1  0  0  0  0
  8 14  1  0  0  0  0
  8 13  1  0  0  0  0
  9  8  2  0  0  0  0
 10  9  1  0  0  0  0
 10 11  2  0  0  0  0
 11 12  1  0  0  0  0
 12 13  2  0  0  0  0
 12 16  1  0  0  0  0
 15  9  1  0  0  0  0
 17 20  1  0  0  0  0
 17  1  1  0  0  0  0
 17 19  1  0  0  0  0
 18 17  1  0  0  0  0
 21 24  1  0  0  0  0
 21 22  1  0  0  0  0
 21  1  1  0  0  0  0
 23 21  1  0  0  0  0
 25  1  1  0  0  0  0
 25 26  1  1  0  0  0
 27 28  1  0  0  0  0
 27 25  1  0  0  0  0
 29 30  1  0  0  0  0
 29 28  2  0  0  0  0
 31 29  1  0  0  0  0
 32 31  2  0  0  0  0
 33 31  1  0  0  0  0
 33 34  1  0  0  0  0
 34 27  1  0  0  0  0
 35 34  2  0  0  0  0
 36 33  1  0  0  0  0
 37 25  1  0  0  0  0
 37 43  1  0  0  0  0
 38 37  1  0  0  0  0
 39 38  2  0  0  0  0
 40 42  1  0  0  0  0
 40 38  1  0  0  0  0
 41 40  1  0  0  0  0
 43 44  1  0  0  0  0
 43 45  1  0  0  0  0
 46 43  1  0  0  0  0
M  END
>  <minimizedAffinity>
-4.93045998

>  <minimizedRMSD>
5.22735786

$$$$
