
 OpenBabel03232520203D

 35 37  0  0  0  0  0  0  0  0999 V2000
   47.6150   34.1910   42.1510 C   0  0  0  0  0  0  0  0  0  0  0  0
   48.5280   35.3250   41.7800 C   0  0  0  0  0  0  0  0  0  0  0  0
   49.8500   35.3210   42.4320 C   0  0  0  0  0  0  0  0  0  0  0  0
   50.5180   33.9840   42.5090 C   0  0  0  0  0  0  0  0  0  0  0  0
   49.6350   32.8420   42.0820 C   0  0  0  0  0  0  0  0  0  0  0  0
   48.2980   33.0150   42.7850 C   0  0  0  0  0  0  0  0  0  0  0  0
   48.0030   36.2810   42.0400 H   0  0  0  0  0  0  0  0  0  0  0  0
   48.6800   35.3780   40.6630 H   0  0  0  0  0  0  0  0  0  0  0  0
   49.7800   35.8450   43.4130 H   0  0  0  0  0  0  0  0  0  0  0  0
   50.5300   35.9750   41.8210 H   0  0  0  0  0  0  0  0  0  0  0  0
   50.7290   33.8080   43.5940 H   0  0  0  0  0  0  0  0  0  0  0  0
   51.5160   33.9450   42.0070 H   0  0  0  0  0  0  0  0  0  0  0  0
   49.4970   32.9170   40.9930 H   0  0  0  0  0  0  0  0  0  0  0  0
   50.1520   31.8990   42.3720 H   0  0  0  0  0  0  0  0  0  0  0  0
   48.5230   33.1490   43.8480 H   0  0  0  0  0  0  0  0  0  0  0  0
   47.7100   32.0980   42.5600 H   0  0  0  0  0  0  0  0  0  0  0  0
   45.2890   34.4010   45.0300 C   0  0  0  0  0  0  0  0  0  0  0  0
   44.5640   35.5590   44.7650 C   0  0  0  0  0  0  0  0  0  0  0  0
   44.8770   36.2610   43.6070 C   0  0  0  0  0  0  0  0  0  0  0  0
   45.8600   35.7900   42.8010 N   0  0  0  0  0  0  0  0  0  0  0  0
   46.5480   34.6540   43.0900 C   0  0  0  0  0  0  0  0  0  0  0  0
   46.2410   33.9720   44.2210 N   0  0  0  0  0  0  0  0  0  0  0  0
   45.1010   33.8090   45.9050 H   0  0  0  0  0  0  0  0  0  0  0  0
   43.7960   35.8820   45.4430 H   0  0  0  0  0  0  0  0  0  0  0  0
   44.3430   37.1660   43.3570 H   0  0  0  0  0  0  0  0  0  0  0  0
   46.9680   33.6850   40.8820 C   0  0  0  0  0  0  0  0  0  0  0  0
   45.8260   32.9880   40.5250 C   0  0  0  0  0  0  0  0  0  0  0  0
   45.6370   32.7420   39.2170 C   0  0  0  0  0  0  0  0  0  0  0  0
   46.5080   33.1500   38.2800 C   0  0  0  0  0  0  0  0  0  0  0  0
   47.8100   34.0110   39.3070 S   0  0  0  0  0  0  0  0  0  0  0  0
   45.2110   32.7190   41.3700 H   0  0  0  0  0  0  0  0  0  0  0  0
   44.7580   32.1970   38.8870 H   0  0  0  0  0  0  0  0  0  0  0  0
   46.5440   33.0220   36.8350 C   0  0  0  0  0  0  0  0  0  0  0  0
   47.9770   33.0170   36.3830 C   0  0  0  0  0  0  0  0  0  0  0  0
   45.9240   31.7130   36.3370 C   0  0  0  0  0  0  0  0  0  0  0  0
  1  6  1  0  0  0  0
  1 21  1  0  0  0  0
  2  7  1  0  0  0  0
  2  1  1  0  0  0  0
  2  3  1  0  0  0  0
  3  4  1  0  0  0  0
  3  9  1  0  0  0  0
  4 11  1  0  0  0  0
  5 14  1  0  0  0  0
  5  4  1  0  0  0  0
  5  6  1  0  0  0  0
  6 15  1  0  0  0  0
  8  2  1  0  0  0  0
 10  3  1  0  0  0  0
 12  4  1  0  0  0  0
 13  5  1  0  0  0  0
 16  6  1  0  0  0  0
 17 23  1  0  0  0  0
 18 17  1  0  0  0  0
 18 24  1  0  0  0  0
 19 18  2  0  0  0  0
 20 21  2  0  0  0  0
 20 19  1  0  0  0  0
 21 22  1  0  0  0  0
 22 17  2  0  0  0  0
 25 19  1  0  0  0  0
 26  1  1  0  0  0  0
 27 26  2  0  0  0  0
 27 31  1  0  0  0  0
 28 27  1  0  0  0  0
 29 28  2  0  0  0  0
 29 30  1  0  0  0  0
 30 26  1  0  0  0  0
 32 28  1  0  0  0  0
 33 29  1  0  0  0  0
 34 33  1  0  0  0  0
 35 33  1  0  0  0  0
M  END
>  <minimizedAffinity>
-5.62593842

>  <minimizedRMSD>
0.139793605

$$$$
