
 OpenBabel03232520593D

 41 44  0  0  1  0  0  0  0  0999 V2000
   45.3410   32.8980   47.5010 C   0  0  0  0  0  0  0  0  0  0  0  0
   45.9090   32.6450   46.2930 C   0  0  0  0  0  0  0  0  0  0  0  0
   46.1900   31.2960   46.0550 C   0  0  0  0  0  0  0  0  0  0  0  0
   45.9250   30.3010   46.9390 N   0  0  0  0  0  0  0  0  0  0  0  0
   45.3440   30.6190   48.1570 C   0  0  0  0  0  0  0  0  0  0  0  0
   45.0700   31.8930   48.4080 N   0  0  0  0  0  0  0  0  0  0  0  0
   45.0760   29.6030   49.1140 N   0  0  0  0  0  0  0  0  0  0  0  0
   45.0880   33.9040   47.7920 H   0  0  0  0  0  0  0  0  0  0  0  0
   45.1760   29.7990   50.1390 H   0  0  0  0  0  0  0  0  0  0  0  0
   44.7700   28.6230   48.8500 H   0  0  0  0  0  0  0  0  0  0  0  0
   46.1540   33.5970   45.2650 C   0  0  2  0  0  0  0  0  0  0  0  0
   44.9480   34.6940   45.4990 C   0  0  0  0  0  0  0  0  0  0  0  0
   44.7150   35.6240   44.4300 C   0  0  0  0  0  0  0  0  0  0  0  0
   45.5120   35.5500   43.2030 C   0  0  1  0  0  0  0  0  0  0  0  0
   46.5700   34.5470   43.1530 C   0  0  0  0  0  0  0  0  0  0  0  0
   46.1190   33.3130   43.9010 C   0  0  0  0  0  0  0  0  0  0  0  0
   46.9670   34.3120   45.5940 H   0  0  0  0  0  0  0  0  0  0  0  0
   44.2780   34.8430   46.3370 H   0  0  0  0  0  0  0  0  0  0  0  0
   43.9490   36.3450   44.5460 H   0  0  0  0  0  0  0  0  0  0  0  0
   45.9410   36.5590   43.0040 H   0  0  0  0  0  0  0  0  0  0  0  0
   46.8230   34.3470   42.0830 H   0  0  0  0  0  0  0  0  0  0  0  0
   47.4650   34.9220   43.6870 H   0  0  0  0  0  0  0  0  0  0  0  0
   45.1790   32.9310   43.4530 H   0  0  0  0  0  0  0  0  0  0  0  0
   46.9620   32.6590   43.5580 H   0  0  0  0  0  0  0  0  0  0  0  0
   44.4950   35.2860   42.0530 C   0  0  0  0  0  0  0  0  0  0  0  0
   43.4350   34.4900   42.4520 F   0  0  0  0  0  0  0  0  0  0  0  0
   43.9520   36.5250   41.7200 F   0  0  0  0  0  0  0  0  0  0  0  0
   45.1650   34.8280   40.9370 F   0  0  0  0  0  0  0  0  0  0  0  0
   46.8490   30.6080   44.9590 C   0  0  0  0  0  0  0  0  0  0  0  0
   46.5240   29.8200   43.9050 C   0  0  0  0  0  0  0  0  0  0  0  0
   47.7100   29.4560   43.2510 C   0  0  0  0  0  0  0  0  0  0  0  0
   48.6910   30.0410   43.9400 N   0  0  0  0  0  0  0  0  0  0  0  0
   48.2100   30.7260   44.9510 N   0  0  0  0  0  0  0  0  0  0  0  0
   45.4810   29.6090   43.7420 H   0  0  0  0  0  0  0  0  0  0  0  0
   47.6880   28.8260   42.3800 H   0  0  0  0  0  0  0  0  0  0  0  0
   50.0810   29.9070   43.5800 C   0  0  0  0  0  0  0  0  0  0  0  0
   51.0790   29.2960   44.3130 C   0  0  0  0  0  3  0  0  0  0  0  0
   52.1850   29.4200   43.5830 N   0  0  0  0  0  0  0  0  0  0  0  0
   51.9230   30.0810   42.4290 C   0  0  0  0  0  3  0  0  0  0  0  0
   50.6220   30.3860   42.4200 N   0  0  0  0  0  0  0  0  0  0  0  0
   50.0450   30.8990   41.6900 H   0  0  0  0  0  0  0  0  0  0  0  0
  1  8  1  0  0  0  0
  1  6  1  0  0  0  0
  2  1  2  0  0  0  0
  3  2  1  0  0  0  0
  3  4  2  0  0  0  0
  4  5  1  0  0  0  0
  5  6  2  0  0  0  0
  5  7  1  0  0  0  0
  7  9  1  0  0  0  0
 10  7  1  0  0  0  0
 11 12  1  0  0  0  0
 11 17  1  1  0  0  0
 11  2  1  0  0  0  0
 12 18  1  0  0  0  0
 13 19  1  0  0  0  0
 13 12  2  0  0  0  0
 14 20  1  6  0  0  0
 14 13  1  0  0  0  0
 15 14  1  0  0  0  0
 15 22  1  0  0  0  0
 15 16  1  0  0  0  0
 16 11  1  0  0  0  0
 21 15  1  0  0  0  0
 23 16  1  0  0  0  0
 24 16  1  0  0  0  0
 25 26  1  0  0  0  0
 25 14  1  0  0  0  0
 27 25  1  0  0  0  0
 28 25  1  0  0  0  0
 29  3  1  0  0  0  0
 30 29  1  0  0  0  0
 31 30  2  0  0  0  0
 31 32  1  0  0  0  0
 32 33  1  0  0  0  0
 33 29  2  0  0  0  0
 34 30  1  0  0  0  0
 35 31  1  0  0  0  0
 36 32  1  0  0  0  0
 36 37  2  0  0  0  0
 38 37  1  0  0  0  0
 39 38  2  0  0  0  0
 40 39  1  0  0  0  0
 40 36  1  0  0  0  0
 41 40  1  0  0  0  0
M  END
>  <minimizedAffinity>
-5.69397879

>  <minimizedRMSD>
0.211969525

$$$$
