
 OpenBabel03232520593D

 41 44  0  0  1  0  0  0  0  0999 V2000
   45.3470   32.8750   47.4900 C   0  0  0  0  0  0  0  0  0  0  0  0
   45.9160   32.6320   46.2790 C   0  0  0  0  0  0  0  0  0  0  0  0
   46.1980   31.2850   46.0320 C   0  0  0  0  0  0  0  0  0  0  0  0
   45.9340   30.2830   46.9090 N   0  0  0  0  0  0  0  0  0  0  0  0
   45.3530   30.5910   48.1290 C   0  0  0  0  0  0  0  0  0  0  0  0
   45.0760   31.8630   48.3890 N   0  0  0  0  0  0  0  0  0  0  0  0
   45.0850   29.5670   49.0780 N   0  0  0  0  0  0  0  0  0  0  0  0
   45.0920   33.8790   47.7870 H   0  0  0  0  0  0  0  0  0  0  0  0
   45.1850   29.7570   50.1040 H   0  0  0  0  0  0  0  0  0  0  0  0
   44.7810   28.5890   48.8070 H   0  0  0  0  0  0  0  0  0  0  0  0
   46.1600   33.5920   45.2590 C   0  0  2  0  0  0  0  0  0  0  0  0
   44.9500   34.6830   45.4990 C   0  0  0  0  0  0  0  0  0  0  0  0
   44.7160   35.6210   44.4350 C   0  0  0  0  0  0  0  0  0  0  0  0
   45.5150   35.5570   43.2100 C   0  0  1  0  0  0  0  0  0  0  0  0
   46.5760   34.5570   43.1540 C   0  0  0  0  0  0  0  0  0  0  0  0
   46.1280   33.3170   43.8930 C   0  0  0  0  0  0  0  0  0  0  0  0
   46.9700   34.3060   45.5950 H   0  0  0  0  0  0  0  0  0  0  0  0
   44.2780   34.8250   46.3360 H   0  0  0  0  0  0  0  0  0  0  0  0
   43.9480   36.3380   44.5550 H   0  0  0  0  0  0  0  0  0  0  0  0
   45.9420   36.5690   43.0180 H   0  0  0  0  0  0  0  0  0  0  0  0
   46.8320   34.3660   42.0840 H   0  0  0  0  0  0  0  0  0  0  0  0
   47.4700   34.9310   43.6920 H   0  0  0  0  0  0  0  0  0  0  0  0
   45.1890   32.9350   43.4410 H   0  0  0  0  0  0  0  0  0  0  0  0
   46.9730   32.6670   43.5470 H   0  0  0  0  0  0  0  0  0  0  0  0
   44.5010   35.2990   42.0560 C   0  0  0  0  0  0  0  0  0  0  0  0
   43.4330   34.5130   42.4530 F   0  0  0  0  0  0  0  0  0  0  0  0
   43.9700   36.5410   41.7170 F   0  0  0  0  0  0  0  0  0  0  0  0
   45.1720   34.8310   40.9450 F   0  0  0  0  0  0  0  0  0  0  0  0
   46.8590   30.6060   44.9310 C   0  0  0  0  0  0  0  0  0  0  0  0
   46.5370   29.8130   43.8790 C   0  0  0  0  0  0  0  0  0  0  0  0
   47.7230   29.4660   43.2170 C   0  0  0  0  0  0  0  0  0  0  0  0
   48.7010   30.0640   43.8990 N   0  0  0  0  0  0  0  0  0  0  0  0
   48.2180   30.7420   44.9130 N   0  0  0  0  0  0  0  0  0  0  0  0
   45.4960   29.5890   43.7240 H   0  0  0  0  0  0  0  0  0  0  0  0
   47.7040   28.8350   42.3460 H   0  0  0  0  0  0  0  0  0  0  0  0
   50.0910   29.9490   43.5300 C   0  0  0  0  0  0  0  0  0  0  0  0
   50.6730   30.3360   42.3380 C   0  0  0  0  0  3  0  0  0  0  0  0
   51.9640   30.0360   42.4580 N   0  0  0  0  0  0  0  0  0  0  0  0
   52.2130   29.4790   43.6690 C   0  0  0  0  0  3  0  0  0  0  0  0
   51.0580   29.4220   44.3380 N   0  0  0  0  0  0  0  0  0  0  0  0
   50.8490   29.0540   45.3130 H   0  0  0  0  0  0  0  0  0  0  0  0
  1  8  1  0  0  0  0
  1  6  1  0  0  0  0
  2  1  2  0  0  0  0
  3  2  1  0  0  0  0
  3  4  2  0  0  0  0
  4  5  1  0  0  0  0
  5  6  2  0  0  0  0
  5  7  1  0  0  0  0
  7  9  1  0  0  0  0
 10  7  1  0  0  0  0
 11 12  1  0  0  0  0
 11 17  1  1  0  0  0
 11  2  1  0  0  0  0
 12 18  1  0  0  0  0
 13 19  1  0  0  0  0
 13 12  2  0  0  0  0
 14 20  1  6  0  0  0
 14 13  1  0  0  0  0
 15 14  1  0  0  0  0
 15 22  1  0  0  0  0
 15 16  1  0  0  0  0
 16 11  1  0  0  0  0
 21 15  1  0  0  0  0
 23 16  1  0  0  0  0
 24 16  1  0  0  0  0
 25 26  1  0  0  0  0
 25 14  1  0  0  0  0
 27 25  1  0  0  0  0
 28 25  1  0  0  0  0
 29  3  1  0  0  0  0
 30 29  1  0  0  0  0
 31 30  2  0  0  0  0
 31 32  1  0  0  0  0
 32 33  1  0  0  0  0
 33 29  2  0  0  0  0
 34 30  1  0  0  0  0
 35 31  1  0  0  0  0
 36 32  1  0  0  0  0
 36 40  1  0  0  0  0
 37 38  1  0  0  0  0
 37 36  2  0  0  0  0
 38 39  2  0  0  0  0
 39 40  1  0  0  0  0
 40 41  1  0  0  0  0
M  END
>  <minimizedAffinity>
-5.70299387

>  <minimizedRMSD>
0.231785402

$$$$
