
 OpenBabel03232520593D

 41 44  0  0  1  0  0  0  0  0999 V2000
   45.3400   32.8820   47.4820 C   0  0  0  0  0  0  0  0  0  0  0  0
   45.9120   32.6390   46.2730 C   0  0  0  0  0  0  0  0  0  0  0  0
   46.2000   31.2930   46.0290 C   0  0  0  0  0  0  0  0  0  0  0  0
   45.9400   30.2910   46.9080 N   0  0  0  0  0  0  0  0  0  0  0  0
   45.3560   30.6000   48.1270 C   0  0  0  0  0  0  0  0  0  0  0  0
   45.0740   31.8720   48.3830 N   0  0  0  0  0  0  0  0  0  0  0  0
   45.0920   29.5770   49.0780 N   0  0  0  0  0  0  0  0  0  0  0  0
   45.0810   33.8860   47.7770 H   0  0  0  0  0  0  0  0  0  0  0  0
   45.1890   29.7690   50.1040 H   0  0  0  0  0  0  0  0  0  0  0  0
   44.7920   28.5970   48.8090 H   0  0  0  0  0  0  0  0  0  0  0  0
   46.1530   33.5980   45.2510 C   0  0  2  0  0  0  0  0  0  0  0  0
   44.9460   34.6910   45.4940 C   0  0  0  0  0  0  0  0  0  0  0  0
   44.7080   35.6270   44.4310 C   0  0  0  0  0  0  0  0  0  0  0  0
   45.5020   35.5620   43.2020 C   0  0  1  0  0  0  0  0  0  0  0  0
   46.5620   34.5610   43.1440 C   0  0  0  0  0  0  0  0  0  0  0  0
   46.1150   33.3220   43.8850 C   0  0  0  0  0  0  0  0  0  0  0  0
   46.9650   34.3120   45.5830 H   0  0  0  0  0  0  0  0  0  0  0  0
   44.2770   34.8340   46.3350 H   0  0  0  0  0  0  0  0  0  0  0  0
   43.9410   36.3460   44.5530 H   0  0  0  0  0  0  0  0  0  0  0  0
   45.9300   36.5730   43.0080 H   0  0  0  0  0  0  0  0  0  0  0  0
   46.8130   34.3680   42.0720 H   0  0  0  0  0  0  0  0  0  0  0  0
   47.4580   34.9340   43.6770 H   0  0  0  0  0  0  0  0  0  0  0  0
   45.1740   32.9410   43.4370 H   0  0  0  0  0  0  0  0  0  0  0  0
   46.9580   32.6710   43.5360 H   0  0  0  0  0  0  0  0  0  0  0  0
   44.4830   35.3030   42.0530 C   0  0  0  0  0  0  0  0  0  0  0  0
   43.4190   34.5150   42.4530 F   0  0  0  0  0  0  0  0  0  0  0  0
   43.9480   36.5460   41.7180 F   0  0  0  0  0  0  0  0  0  0  0  0
   45.1500   34.8390   40.9380 F   0  0  0  0  0  0  0  0  0  0  0  0
   46.8660   30.6150   44.9300 C   0  0  0  0  0  0  0  0  0  0  0  0
   46.5490   29.8120   43.8840 C   0  0  0  0  0  0  0  0  0  0  0  0
   47.7370   29.4730   43.2210 C   0  0  0  0  0  0  0  0  0  0  0  0
   48.7100   30.0860   43.8970 N   0  0  0  0  0  0  0  0  0  0  0  0
   48.2230   30.7640   44.9080 N   0  0  0  0  0  0  0  0  0  0  0  0
   45.5100   29.5760   43.7330 H   0  0  0  0  0  0  0  0  0  0  0  0
   47.7220   28.8370   42.3530 H   0  0  0  0  0  0  0  0  0  0  0  0
   50.1000   29.9830   43.5240 C   0  0  0  0  0  0  0  0  0  0  0  0
   50.6910   30.4520   42.3680 C   0  0  0  0  0  3  0  0  0  0  0  0
   51.9790   30.1280   42.4680 N   0  0  0  0  0  0  0  0  0  0  0  0
   52.2170   29.4790   43.6350 C   0  0  0  0  0  3  0  0  0  0  0  0
   51.0570   29.3850   44.2930 N   0  0  0  0  0  0  0  0  0  0  0  0
   50.8410   28.9480   45.2370 H   0  0  0  0  0  0  0  0  0  0  0  0
  1  8  1  0  0  0  0
  1  6  1  0  0  0  0
  2  1  2  0  0  0  0
  3  2  1  0  0  0  0
  3  4  2  0  0  0  0
  4  5  1  0  0  0  0
  5  6  2  0  0  0  0
  5  7  1  0  0  0  0
  7  9  1  0  0  0  0
 10  7  1  0  0  0  0
 11 12  1  0  0  0  0
 11 17  1  1  0  0  0
 11  2  1  0  0  0  0
 12 18  1  0  0  0  0
 13 19  1  0  0  0  0
 13 12  2  0  0  0  0
 14 20  1  6  0  0  0
 14 13  1  0  0  0  0
 15 14  1  0  0  0  0
 15 22  1  0  0  0  0
 15 16  1  0  0  0  0
 16 11  1  0  0  0  0
 21 15  1  0  0  0  0
 23 16  1  0  0  0  0
 24 16  1  0  0  0  0
 25 26  1  0  0  0  0
 25 14  1  0  0  0  0
 27 25  1  0  0  0  0
 28 25  1  0  0  0  0
 29  3  1  0  0  0  0
 30 29  1  0  0  0  0
 31 30  2  0  0  0  0
 31 32  1  0  0  0  0
 32 33  1  0  0  0  0
 33 29  2  0  0  0  0
 34 30  1  0  0  0  0
 35 31  1  0  0  0  0
 36 32  1  0  0  0  0
 36 40  1  0  0  0  0
 37 38  1  0  0  0  0
 37 36  2  0  0  0  0
 38 39  2  0  0  0  0
 39 40  1  0  0  0  0
 40 41  1  0  0  0  0
M  END
>  <minimizedAffinity>
-5.70149088

>  <minimizedRMSD>
0.257438749

$$$$
