
 OpenBabel03232516263D

 29 30  0  0  0  0  0  0  0  0999 V2000
   45.7140   33.9220   41.6210 C   0  0  0  0  0  0  0  0  0  0  0  0
   45.3730   33.9460   45.2700 C   0  0  0  0  0  0  0  0  0  0  0  0
   44.7750   35.1920   45.5390 C   0  0  0  0  0  0  0  0  0  0  0  0
   44.4900   36.0250   44.4520 C   0  0  0  0  0  0  0  0  0  0  0  0
   44.8080   35.5810   43.1910 N   0  0  0  0  0  0  0  0  0  0  0  0
   45.3860   34.3670   42.9970 C   0  0  0  0  0  0  0  0  0  0  0  0
   45.6570   33.5740   44.0280 N   0  0  0  0  0  0  0  0  0  0  0  0
   45.5590   33.3690   46.1650 H   0  0  0  0  0  0  0  0  0  0  0  0
   44.4890   35.6310   46.4640 H   0  0  0  0  0  0  0  0  0  0  0  0
   44.0410   36.9860   44.5080 H   0  0  0  0  0  0  0  0  0  0  0  0
   44.5380   34.2280   40.7060 C   0  0  0  0  0  0  0  0  0  0  0  0
   44.6320   33.6450   39.7610 H   0  0  0  0  0  0  0  0  0  0  0  0
   44.5730   35.2900   40.3950 H   0  0  0  0  0  0  0  0  0  0  0  0
   43.6210   33.9210   41.2150 H   0  0  0  0  0  0  0  0  0  0  0  0
   45.8880   32.4250   41.5970 C   0  0  0  0  0  0  0  0  0  0  0  0
   45.3120   31.9130   40.8160 H   0  0  0  0  0  0  0  0  0  0  0  0
   46.9630   32.1930   41.3930 H   0  0  0  0  0  0  0  0  0  0  0  0
   45.6080   31.9890   42.5810 H   0  0  0  0  0  0  0  0  0  0  0  0
   46.9070   34.6230   41.0410 C   0  0  0  0  0  0  0  0  0  0  0  0
   46.7350   35.7100   41.1780 H   0  0  0  0  0  0  0  0  0  0  0  0
   46.8970   34.4070   39.9520 H   0  0  0  0  0  0  0  0  0  0  0  0
   48.1850   34.2580   41.6470 C   0  0  0  0  0  0  0  0  0  0  0  0
   48.8670   34.6550   42.7400 N   0  0  0  0  0  0  0  0  0  0  0  0
   50.0020   33.9980   42.8420 O   0  0  0  0  0  0  0  0  0  0  0  0
   50.1020   33.1590   41.8380 C   0  0  0  0  0  0  0  0  0  0  0  0
   48.9930   33.3060   41.0890 N   0  0  0  0  0  0  0  0  0  0  0  0
   51.2000   32.2080   41.5270 C   0  0  0  0  0  0  0  0  0  0  0  0
   51.0370   31.5610   40.1760 C   0  0  0  0  0  0  0  0  0  0  0  0
   51.2360   31.0680   42.5410 C   0  0  0  0  0  0  0  0  0  0  0  0
  1  6  1  0  0  0  0
  2  3  1  0  0  0  0
  2  8  1  0  0  0  0
  3  9  1  0  0  0  0
  4 10  1  0  0  0  0
  4  3  2  0  0  0  0
  5  4  1  0  0  0  0
  6  5  2  0  0  0  0
  6  7  1  0  0  0  0
  7  2  2  0  0  0  0
 11 14  1  0  0  0  0
 11  1  1  0  0  0  0
 12 11  1  0  0  0  0
 13 11  1  0  0  0  0
 15  1  1  0  0  0  0
 15 18  1  0  0  0  0
 16 15  1  0  0  0  0
 17 15  1  0  0  0  0
 19 20  1  0  0  0  0
 19  1  1  0  0  0  0
 19 22  1  0  0  0  0
 21 19  1  0  0  0  0
 22 23  2  0  0  0  0
 23 24  1  0  0  0  0
 25 24  1  0  0  0  0
 26 22  1  0  0  0  0
 26 25  2  0  0  0  0
 27 25  1  0  0  0  0
 27 29  1  0  0  0  0
 28 27  1  0  0  0  0
M  END
>  <minimizedAffinity>
-4.42885303

>  <minimizedRMSD>
1.41205084

$$$$
