
 OpenBabel03232521003D

 41 44  0  0  1  0  0  0  0  0999 V2000
   45.4220   32.9090   47.4730 C   0  0  0  0  0  0  0  0  0  0  0  0
   45.9190   32.6410   46.2410 C   0  0  0  0  0  0  0  0  0  0  0  0
   46.1380   31.2860   45.9790 C   0  0  0  0  0  0  0  0  0  0  0  0
   45.8810   30.2970   46.8700 N   0  0  0  0  0  0  0  0  0  0  0  0
   45.3730   30.6270   48.1170 C   0  0  0  0  0  0  0  0  0  0  0  0
   45.1580   31.9110   48.3870 N   0  0  0  0  0  0  0  0  0  0  0  0
   45.1300   29.6110   49.0830 N   0  0  0  0  0  0  0  0  0  0  0  0
   45.2170   33.9170   47.7930 H   0  0  0  0  0  0  0  0  0  0  0  0
   44.7880   28.7110   48.6360 H   0  0  0  0  0  0  0  0  0  0  0  0
   45.3200   29.8940   50.0700 H   0  0  0  0  0  0  0  0  0  0  0  0
   46.1560   33.5890   45.2050 C   0  0  2  0  0  0  0  0  0  0  0  0
   44.9610   34.6940   45.4570 C   0  0  0  0  0  0  0  0  0  0  0  0
   44.7220   35.6260   44.3920 C   0  0  0  0  0  0  0  0  0  0  0  0
   45.4990   35.5480   43.1520 C   0  0  1  0  0  0  0  0  0  0  0  0
   46.5460   34.5330   43.0850 C   0  0  0  0  0  0  0  0  0  0  0  0
   46.0980   33.3060   43.8430 C   0  0  0  0  0  0  0  0  0  0  0  0
   46.9580   34.3170   45.5190 H   0  0  0  0  0  0  0  0  0  0  0  0
   44.3170   34.8220   46.3150 H   0  0  0  0  0  0  0  0  0  0  0  0
   43.9600   36.3560   44.5170 H   0  0  0  0  0  0  0  0  0  0  0  0
   45.9260   36.5520   42.9650 H   0  0  0  0  0  0  0  0  0  0  0  0
   46.7920   34.3380   42.0190 H   0  0  0  0  0  0  0  0  0  0  0  0
   47.4750   34.9070   43.5760 H   0  0  0  0  0  0  0  0  0  0  0  0
   46.9340   32.6440   43.4910 H   0  0  0  0  0  0  0  0  0  0  0  0
   45.1770   32.8710   43.4110 H   0  0  0  0  0  0  0  0  0  0  0  0
   44.4600   35.2930   42.0210 C   0  0  0  0  0  0  0  0  0  0  0  0
   43.4050   34.5010   42.4340 F   0  0  0  0  0  0  0  0  0  0  0  0
   43.9250   36.5410   41.7020 F   0  0  0  0  0  0  0  0  0  0  0  0
   45.1120   34.8300   40.8910 F   0  0  0  0  0  0  0  0  0  0  0  0
   46.7090   30.5780   44.8450 C   0  0  0  0  0  0  0  0  0  0  0  0
   46.2910   29.7960   43.8150 C   0  0  0  0  0  0  0  0  0  0  0  0
   47.4190   29.3950   43.0930 C   0  0  0  0  0  0  0  0  0  0  0  0
   48.4590   29.9500   43.7160 N   0  0  0  0  0  0  0  0  0  0  0  0
   48.0670   30.6540   44.7520 N   0  0  0  0  0  0  0  0  0  0  0  0
   45.2320   29.6290   43.7350 H   0  0  0  0  0  0  0  0  0  0  0  0
   47.2640   28.7660   42.2350 H   0  0  0  0  0  0  0  0  0  0  0  0
   49.7950   29.7420   43.2340 C   0  0  0  0  0  0  0  0  0  0  0  0
   50.4260   30.8880   42.9470 N   0  0  0  0  0  0  0  0  0  0  0  0
   51.6010   30.6580   42.5230 O   0  0  0  0  0  0  0  0  0  0  0  0
   51.8960   29.3380   42.4810 C   0  0  0  0  0  0  0  0  0  0  0  0
   52.1250   28.3080   42.4460 H   0  0  0  0  0  0  0  0  0  0  0  0
   50.7140   28.8230   42.9410 N   0  0  0  0  0  0  0  0  0  0  0  0
  1  8  1  0  0  0  0
  1  6  1  0  0  0  0
  2  1  2  0  0  0  0
  3  2  1  0  0  0  0
  3  4  2  0  0  0  0
  4  5  1  0  0  0  0
  5  6  2  0  0  0  0
  5  7  1  0  0  0  0
  7 10  1  0  0  0  0
  9  7  1  0  0  0  0
 11 12  1  0  0  0  0
 11 17  1  1  0  0  0
 11  2  1  0  0  0  0
 12 18  1  0  0  0  0
 13 19  1  0  0  0  0
 13 12  2  0  0  0  0
 14 20  1  6  0  0  0
 14 13  1  0  0  0  0
 15 14  1  0  0  0  0
 15 22  1  0  0  0  0
 15 16  1  0  0  0  0
 16 11  1  0  0  0  0
 21 15  1  0  0  0  0
 23 16  1  0  0  0  0
 24 16  1  0  0  0  0
 25 26  1  0  0  0  0
 25 14  1  0  0  0  0
 27 25  1  0  0  0  0
 28 25  1  0  0  0  0
 29  3  1  0  0  0  0
 30 29  1  0  0  0  0
 31 32  1  0  0  0  0
 31 30  2  0  0  0  0
 32 33  1  0  0  0  0
 33 29  2  0  0  0  0
 34 30  1  0  0  0  0
 35 31  1  0  0  0  0
 36 32  1  0  0  0  0
 37 36  2  0  0  0  0
 38 37  1  0  0  0  0
 39 38  1  0  0  0  0
 39 41  2  0  0  0  0
 40 39  1  0  0  0  0
 41 36  1  0  0  0  0
M  END
>  <minimizedAffinity>
-6.00398445

>  <minimizedRMSD>
0.20675461

$$$$
