
 OpenBabel03232520593D

 41 44  0  0  1  0  0  0  0  0999 V2000
   45.3290   32.8930   47.5000 C   0  0  0  0  0  0  0  0  0  0  0  0
   45.9040   32.6410   46.2990 C   0  0  0  0  0  0  0  0  0  0  0  0
   46.1990   31.2960   46.0610 C   0  0  0  0  0  0  0  0  0  0  0  0
   45.9390   30.3020   46.9450 N   0  0  0  0  0  0  0  0  0  0  0  0
   45.3490   30.6150   48.1600 C   0  0  0  0  0  0  0  0  0  0  0  0
   45.0610   31.8900   48.4070 N   0  0  0  0  0  0  0  0  0  0  0  0
   45.1000   29.5960   49.1200 N   0  0  0  0  0  0  0  0  0  0  0  0
   45.0610   33.8930   47.7990 H   0  0  0  0  0  0  0  0  0  0  0  0
   44.8230   28.6780   48.6630 H   0  0  0  0  0  0  0  0  0  0  0  0
   45.2230   29.8920   50.1140 H   0  0  0  0  0  0  0  0  0  0  0  0
   46.1540   33.5920   45.2690 C   0  0  2  0  0  0  0  0  0  0  0  0
   44.9480   34.6890   45.5020 C   0  0  0  0  0  0  0  0  0  0  0  0
   44.7230   35.6220   44.4350 C   0  0  0  0  0  0  0  0  0  0  0  0
   45.5230   35.5520   43.2080 C   0  0  1  0  0  0  0  0  0  0  0  0
   46.5770   34.5430   43.1580 C   0  0  0  0  0  0  0  0  0  0  0  0
   46.1230   33.3120   43.9050 C   0  0  0  0  0  0  0  0  0  0  0  0
   46.9460   34.3240   45.5990 H   0  0  0  0  0  0  0  0  0  0  0  0
   44.2890   34.8120   46.3480 H   0  0  0  0  0  0  0  0  0  0  0  0
   43.9550   36.3480   44.5470 H   0  0  0  0  0  0  0  0  0  0  0  0
   45.9470   36.5590   43.0310 H   0  0  0  0  0  0  0  0  0  0  0  0
   46.8430   34.3510   42.0970 H   0  0  0  0  0  0  0  0  0  0  0  0
   47.4940   34.9210   43.6670 H   0  0  0  0  0  0  0  0  0  0  0  0
   46.9680   32.6550   43.5680 H   0  0  0  0  0  0  0  0  0  0  0  0
   45.2110   32.8720   43.4570 H   0  0  0  0  0  0  0  0  0  0  0  0
   44.5060   35.2930   42.0580 C   0  0  0  0  0  0  0  0  0  0  0  0
   43.4420   34.5030   42.4540 F   0  0  0  0  0  0  0  0  0  0  0  0
   43.9780   36.5400   41.7250 F   0  0  0  0  0  0  0  0  0  0  0  0
   45.1790   34.8260   40.9430 F   0  0  0  0  0  0  0  0  0  0  0  0
   46.8620   30.6070   44.9660 C   0  0  0  0  0  0  0  0  0  0  0  0
   46.5360   29.8100   43.9150 C   0  0  0  0  0  0  0  0  0  0  0  0
   47.7190   29.4490   43.2640 C   0  0  0  0  0  0  0  0  0  0  0  0
   48.6990   30.0430   43.9460 N   0  0  0  0  0  0  0  0  0  0  0  0
   48.2200   30.7320   44.9550 N   0  0  0  0  0  0  0  0  0  0  0  0
   45.4910   29.6040   43.7720 H   0  0  0  0  0  0  0  0  0  0  0  0
   47.6390   28.8140   42.4000 H   0  0  0  0  0  0  0  0  0  0  0  0
   50.0690   29.8830   43.5470 C   0  0  0  0  0  0  0  0  0  0  0  0
   50.8120   29.2770   44.4820 N   0  0  0  0  0  0  0  0  0  0  0  0
   52.0140   29.1580   44.0910 O   0  0  0  0  0  0  0  0  0  0  0  0
   52.2170   29.6670   42.8530 C   0  0  0  0  0  0  0  0  0  0  0  0
   52.3750   30.0650   41.8870 H   0  0  0  0  0  0  0  0  0  0  0  0
   50.9510   30.1060   42.5730 N   0  0  0  0  0  0  0  0  0  0  0  0
  1  8  1  0  0  0  0
  1  6  1  0  0  0  0
  2  1  2  0  0  0  0
  3  2  1  0  0  0  0
  3  4  2  0  0  0  0
  4  5  1  0  0  0  0
  5  6  2  0  0  0  0
  5  7  1  0  0  0  0
  7 10  1  0  0  0  0
  9  7  1  0  0  0  0
 11 12  1  0  0  0  0
 11 17  1  1  0  0  0
 11  2  1  0  0  0  0
 12 18  1  0  0  0  0
 13 19  1  0  0  0  0
 13 12  2  0  0  0  0
 14 20  1  6  0  0  0
 14 13  1  0  0  0  0
 15 14  1  0  0  0  0
 15 22  1  0  0  0  0
 15 16  1  0  0  0  0
 16 11  1  0  0  0  0
 21 15  1  0  0  0  0
 23 16  1  0  0  0  0
 24 16  1  0  0  0  0
 25 26  1  0  0  0  0
 25 14  1  0  0  0  0
 27 25  1  0  0  0  0
 28 25  1  0  0  0  0
 29  3  1  0  0  0  0
 30 29  1  0  0  0  0
 31 30  2  0  0  0  0
 31 32  1  0  0  0  0
 32 33  1  0  0  0  0
 33 29  2  0  0  0  0
 34 30  1  0  0  0  0
 35 31  1  0  0  0  0
 36 32  1  0  0  0  0
 36 37  2  0  0  0  0
 38 37  1  0  0  0  0
 39 38  1  0  0  0  0
 40 39  1  0  0  0  0
 41 39  2  0  0  0  0
 41 36  1  0  0  0  0
M  END
>  <minimizedAffinity>
-5.93006134

>  <minimizedRMSD>
0.237928063

$$$$
