
 OpenBabel03232521003D

 41 44  0  0  1  0  0  0  0  0999 V2000
   45.3300   32.8930   47.5110 C   0  0  0  0  0  0  0  0  0  0  0  0
   45.9050   32.6370   46.3110 C   0  0  0  0  0  0  0  0  0  0  0  0
   46.1970   31.2910   46.0750 C   0  0  0  0  0  0  0  0  0  0  0  0
   45.9330   30.2980   46.9600 N   0  0  0  0  0  0  0  0  0  0  0  0
   45.3430   30.6160   48.1740 C   0  0  0  0  0  0  0  0  0  0  0  0
   45.0590   31.8920   48.4190 N   0  0  0  0  0  0  0  0  0  0  0  0
   45.0900   29.5980   49.1350 N   0  0  0  0  0  0  0  0  0  0  0  0
   45.0640   33.8930   47.8090 H   0  0  0  0  0  0  0  0  0  0  0  0
   44.8120   28.6800   48.6790 H   0  0  0  0  0  0  0  0  0  0  0  0
   45.2130   29.8960   50.1290 H   0  0  0  0  0  0  0  0  0  0  0  0
   46.1590   33.5860   45.2790 C   0  0  2  0  0  0  0  0  0  0  0  0
   44.9530   34.6840   45.5060 C   0  0  0  0  0  0  0  0  0  0  0  0
   44.7310   35.6150   44.4370 C   0  0  0  0  0  0  0  0  0  0  0  0
   45.5340   35.5420   43.2130 C   0  0  1  0  0  0  0  0  0  0  0  0
   46.5880   34.5330   43.1680 C   0  0  0  0  0  0  0  0  0  0  0  0
   46.1320   33.3030   43.9160 C   0  0  0  0  0  0  0  0  0  0  0  0
   46.9500   34.3190   45.6110 H   0  0  0  0  0  0  0  0  0  0  0  0
   44.2910   34.8080   46.3500 H   0  0  0  0  0  0  0  0  0  0  0  0
   43.9630   36.3410   44.5450 H   0  0  0  0  0  0  0  0  0  0  0  0
   45.9600   36.5480   43.0350 H   0  0  0  0  0  0  0  0  0  0  0  0
   46.8580   34.3390   42.1080 H   0  0  0  0  0  0  0  0  0  0  0  0
   47.5040   34.9110   43.6790 H   0  0  0  0  0  0  0  0  0  0  0  0
   46.9780   32.6450   43.5830 H   0  0  0  0  0  0  0  0  0  0  0  0
   45.2220   32.8620   43.4660 H   0  0  0  0  0  0  0  0  0  0  0  0
   44.5220   35.2810   42.0600 C   0  0  0  0  0  0  0  0  0  0  0  0
   43.4600   34.4850   42.4520 F   0  0  0  0  0  0  0  0  0  0  0  0
   43.9880   36.5260   41.7280 F   0  0  0  0  0  0  0  0  0  0  0  0
   45.1990   34.8180   40.9450 F   0  0  0  0  0  0  0  0  0  0  0  0
   46.8590   30.5990   44.9810 C   0  0  0  0  0  0  0  0  0  0  0  0
   46.5300   29.8140   43.9220 C   0  0  0  0  0  0  0  0  0  0  0  0
   47.7130   29.4380   43.2800 C   0  0  0  0  0  0  0  0  0  0  0  0
   48.6960   30.0110   43.9750 N   0  0  0  0  0  0  0  0  0  0  0  0
   48.2190   30.7020   44.9830 N   0  0  0  0  0  0  0  0  0  0  0  0
   45.4830   29.6260   43.7690 H   0  0  0  0  0  0  0  0  0  0  0  0
   47.6310   28.8100   42.4100 H   0  0  0  0  0  0  0  0  0  0  0  0
   50.0660   29.8320   43.5870 C   0  0  0  0  0  0  0  0  0  0  0  0
   50.5220   28.6020   43.8520 N   0  0  0  0  0  0  0  0  0  0  0  0
   51.7360   28.4870   43.4980 O   0  0  0  0  0  0  0  0  0  0  0  0
   52.2340   29.6220   42.9550 C   0  0  0  0  0  0  0  0  0  0  0  0
   52.6230   30.5090   42.5320 H   0  0  0  0  0  0  0  0  0  0  0  0
   51.1280   30.4260   43.0440 N   0  0  0  0  0  0  0  0  0  0  0  0
  1  8  1  0  0  0  0
  1  6  1  0  0  0  0
  2  1  2  0  0  0  0
  3  2  1  0  0  0  0
  3  4  2  0  0  0  0
  4  5  1  0  0  0  0
  5  6  2  0  0  0  0
  5  7  1  0  0  0  0
  7 10  1  0  0  0  0
  9  7  1  0  0  0  0
 11 12  1  0  0  0  0
 11 17  1  1  0  0  0
 11  2  1  0  0  0  0
 12 18  1  0  0  0  0
 13 19  1  0  0  0  0
 13 12  2  0  0  0  0
 14 20  1  6  0  0  0
 14 13  1  0  0  0  0
 15 14  1  0  0  0  0
 15 22  1  0  0  0  0
 15 16  1  0  0  0  0
 16 11  1  0  0  0  0
 21 15  1  0  0  0  0
 23 16  1  0  0  0  0
 24 16  1  0  0  0  0
 25 26  1  0  0  0  0
 25 14  1  0  0  0  0
 27 25  1  0  0  0  0
 28 25  1  0  0  0  0
 29 33  2  0  0  0  0
 29  3  1  0  0  0  0
 30 29  1  0  0  0  0
 31 30  2  0  0  0  0
 31 32  1  0  0  0  0
 32 33  1  0  0  0  0
 34 30  1  0  0  0  0
 35 31  1  0  0  0  0
 36 37  2  0  0  0  0
 36 32  1  0  0  0  0
 38 37  1  0  0  0  0
 39 41  2  0  0  0  0
 39 38  1  0  0  0  0
 40 39  1  0  0  0  0
 41 36  1  0  0  0  0
M  END
>  <minimizedAffinity>
-5.93454266

>  <minimizedRMSD>
0.216155976

$$$$
