
 OpenBabel03232520453D

 36 38  0  0  0  0  0  0  0  0999 V2000
   46.5510   34.4520   42.5310 C   0  0  0  0  0  0  0  0  0  0  0  0
   47.8580   34.8180   42.4120 C   0  0  0  0  0  0  0  0  0  0  0  0
   48.5240   34.8130   41.1850 C   0  0  0  0  0  0  0  0  0  0  0  0
   47.8390   34.4220   40.0270 C   0  0  0  0  0  0  0  0  0  0  0  0
   46.5210   34.0530   40.1450 C   0  0  0  0  0  0  0  0  0  0  0  0
   45.8960   34.0720   41.3860 C   0  0  0  0  0  0  0  0  0  0  0  0
   48.4670   35.1300   43.2270 H   0  0  0  0  0  0  0  0  0  0  0  0
   49.5430   35.0930   41.0680 H   0  0  0  0  0  0  0  0  0  0  0  0
   48.2960   34.3970   39.0510 H   0  0  0  0  0  0  0  0  0  0  0  0
   45.9920   33.7510   39.2510 H   0  0  0  0  0  0  0  0  0  0  0  0
   44.5330   33.6830   41.4660 N   0  0  0  0  0  0  0  0  0  0  0  0
   43.7130   34.7020   41.0550 C   0  0  0  0  0  0  0  0  0  0  0  0
   42.3250   34.5410   41.0510 C   0  0  0  0  0  0  0  0  0  0  0  0
   41.8220   33.3180   41.4750 C   0  0  0  0  0  0  0  0  0  0  0  0
   40.5810   33.1040   41.4970 O   0  0  0  0  0  0  0  0  0  0  0  0
   42.6670   32.3520   41.8680 N   0  0  0  0  0  0  0  0  0  0  0  0
   43.9960   32.5220   41.8660 C   0  0  0  0  0  0  0  0  0  0  0  0
   44.8510   31.6820   42.2130 O   0  0  0  0  0  0  0  0  0  0  0  0
   44.0250   35.6660   40.7170 H   0  0  0  0  0  0  0  0  0  0  0  0
   42.3060   31.4180   42.1930 H   0  0  0  0  0  0  0  0  0  0  0  0
   41.4020   35.6220   40.6130 C   0  0  0  0  0  0  0  0  0  0  0  0
   40.6180   35.6650   41.4090 H   0  0  0  0  0  0  0  0  0  0  0  0
   40.9420   35.3330   39.6690 H   0  0  0  0  0  0  0  0  0  0  0  0
   41.9350   36.5930   40.6130 H   0  0  0  0  0  0  0  0  0  0  0  0
   44.5350   35.3960   45.5660 C   0  0  0  0  0  0  0  0  0  0  0  0
   45.0580   35.4720   44.2740 C   0  0  0  0  0  0  0  0  0  0  0  0
   45.9390   34.4870   43.8470 C   0  0  0  0  0  0  0  0  0  0  0  0
   46.2480   33.4990   44.7060 N   0  0  0  0  0  0  0  0  0  0  0  0
   45.7300   33.4450   45.9520 C   0  0  0  0  0  0  0  0  0  0  0  0
   44.8760   34.3940   46.3790 N   0  0  0  0  0  0  0  0  0  0  0  0
   43.8550   36.1790   45.8640 H   0  0  0  0  0  0  0  0  0  0  0  0
   44.8130   36.2640   43.5820 H   0  0  0  0  0  0  0  0  0  0  0  0
   46.0430   32.3810   46.9210 C   0  0  0  0  0  0  0  0  0  0  0  0
   47.3770   32.5470   47.5800 C   0  0  0  0  0  0  0  0  0  0  0  0
   45.9300   31.0570   46.2040 C   0  0  0  0  0  0  0  0  0  0  0  0
   44.9620   32.4150   47.9820 C   0  0  0  0  0  0  0  0  0  0  0  0
  1 27  1  0  0  0  0
  2  1  1  0  0  0  0
  2  7  1  0  0  0  0
  3  2  2  0  0  0  0
  4  5  2  0  0  0  0
  4  3  1  0  0  0  0
  5  6  1  0  0  0  0
  6 11  1  0  0  0  0
  6  1  2  0  0  0  0
  8  3  1  0  0  0  0
  9  4  1  0  0  0  0
 10  5  1  0  0  0  0
 11 17  1  0  0  0  0
 12 11  1  0  0  0  0
 13 12  2  0  0  0  0
 13 14  1  0  0  0  0
 14 15  2  0  0  0  0
 14 16  1  0  0  0  0
 16 20  1  0  0  0  0
 17 16  1  0  0  0  0
 17 18  2  0  0  0  0
 19 12  1  0  0  0  0
 21 13  1  0  0  0  0
 21 22  1  0  0  0  0
 23 21  1  0  0  0  0
 24 21  1  0  0  0  0
 25 31  1  0  0  0  0
 25 30  1  0  0  0  0
 26 25  2  0  0  0  0
 27 26  1  0  0  0  0
 27 28  2  0  0  0  0
 28 29  1  0  0  0  0
 29 30  2  0  0  0  0
 29 33  1  0  0  0  0
 32 26  1  0  0  0  0
 33 34  1  0  0  0  0
 33 36  1  0  0  0  0
 35 33  1  0  0  0  0
M  END
>  <minimizedAffinity>
-6.83851957

>  <minimizedRMSD>
0.693547666

$$$$
