
 OpenBabel03232521003D

 41 44  0  0  1  0  0  0  0  0999 V2000
   45.3270   32.8950   47.4980 C   0  0  0  0  0  0  0  0  0  0  0  0
   45.9050   32.6440   46.2980 C   0  0  0  0  0  0  0  0  0  0  0  0
   46.2040   31.2990   46.0610 C   0  0  0  0  0  0  0  0  0  0  0  0
   45.9440   30.3040   46.9460 N   0  0  0  0  0  0  0  0  0  0  0  0
   45.3520   30.6170   48.1600 C   0  0  0  0  0  0  0  0  0  0  0  0
   45.0600   31.8920   48.4050 N   0  0  0  0  0  0  0  0  0  0  0  0
   45.1040   29.5980   49.1190 N   0  0  0  0  0  0  0  0  0  0  0  0
   45.0560   33.8940   47.7960 H   0  0  0  0  0  0  0  0  0  0  0  0
   44.8300   28.6790   48.6630 H   0  0  0  0  0  0  0  0  0  0  0  0
   45.2240   29.8950   50.1130 H   0  0  0  0  0  0  0  0  0  0  0  0
   46.1540   33.5950   45.2680 C   0  0  2  0  0  0  0  0  0  0  0  0
   44.9480   34.6910   45.5010 C   0  0  0  0  0  0  0  0  0  0  0  0
   44.7220   35.6240   44.4340 C   0  0  0  0  0  0  0  0  0  0  0  0
   45.5210   35.5540   43.2070 C   0  0  1  0  0  0  0  0  0  0  0  0
   46.5760   34.5460   43.1570 C   0  0  0  0  0  0  0  0  0  0  0  0
   46.1230   33.3140   43.9040 C   0  0  0  0  0  0  0  0  0  0  0  0
   46.9460   34.3270   45.5980 H   0  0  0  0  0  0  0  0  0  0  0  0
   44.2890   34.8130   46.3480 H   0  0  0  0  0  0  0  0  0  0  0  0
   43.9540   36.3490   44.5460 H   0  0  0  0  0  0  0  0  0  0  0  0
   45.9450   36.5610   43.0300 H   0  0  0  0  0  0  0  0  0  0  0  0
   46.8420   34.3540   42.0950 H   0  0  0  0  0  0  0  0  0  0  0  0
   47.4930   34.9240   43.6650 H   0  0  0  0  0  0  0  0  0  0  0  0
   46.9690   32.6580   43.5670 H   0  0  0  0  0  0  0  0  0  0  0  0
   45.2120   32.8740   43.4560 H   0  0  0  0  0  0  0  0  0  0  0  0
   44.5050   35.2940   42.0570 C   0  0  0  0  0  0  0  0  0  0  0  0
   43.4420   34.5030   42.4530 F   0  0  0  0  0  0  0  0  0  0  0  0
   43.9750   36.5410   41.7250 F   0  0  0  0  0  0  0  0  0  0  0  0
   45.1780   34.8280   40.9420 F   0  0  0  0  0  0  0  0  0  0  0  0
   46.8710   30.6110   44.9680 C   0  0  0  0  0  0  0  0  0  0  0  0
   46.5480   29.8120   43.9180 C   0  0  0  0  0  0  0  0  0  0  0  0
   47.7330   29.4550   43.2680 C   0  0  0  0  0  0  0  0  0  0  0  0
   48.7100   30.0520   43.9510 N   0  0  0  0  0  0  0  0  0  0  0  0
   48.2280   30.7410   44.9580 N   0  0  0  0  0  0  0  0  0  0  0  0
   45.5040   29.6020   43.7740 H   0  0  0  0  0  0  0  0  0  0  0  0
   47.6570   28.8180   42.4050 H   0  0  0  0  0  0  0  0  0  0  0  0
   50.0810   29.8970   43.5530 C   0  0  0  0  0  0  0  0  0  0  0  0
   50.7480   29.0290   44.3250 N   0  0  0  0  0  0  0  0  0  0  0  0
   51.9540   28.9240   43.9410 O   0  0  0  0  0  0  0  0  0  0  0  0
   52.2360   29.7040   42.8730 C   0  0  0  0  0  0  0  0  0  0  0  0
   52.4560   30.3140   42.0390 H   0  0  0  0  0  0  0  0  0  0  0  0
   51.0110   30.2870   42.6840 N   0  0  0  0  0  0  0  0  0  0  0  0
  1  8  1  0  0  0  0
  1  6  1  0  0  0  0
  2  1  2  0  0  0  0
  3  2  1  0  0  0  0
  3  4  2  0  0  0  0
  4  5  1  0  0  0  0
  5  6  2  0  0  0  0
  5  7  1  0  0  0  0
  7 10  1  0  0  0  0
  9  7  1  0  0  0  0
 11 12  1  0  0  0  0
 11 17  1  1  0  0  0
 11  2  1  0  0  0  0
 12 18  1  0  0  0  0
 13 19  1  0  0  0  0
 13 12  2  0  0  0  0
 14 20  1  6  0  0  0
 14 13  1  0  0  0  0
 15 14  1  0  0  0  0
 15 22  1  0  0  0  0
 15 16  1  0  0  0  0
 16 11  1  0  0  0  0
 21 15  1  0  0  0  0
 23 16  1  0  0  0  0
 24 16  1  0  0  0  0
 25 26  1  0  0  0  0
 25 14  1  0  0  0  0
 27 25  1  0  0  0  0
 28 25  1  0  0  0  0
 29  3  1  0  0  0  0
 30 29  1  0  0  0  0
 31 30  2  0  0  0  0
 31 32  1  0  0  0  0
 32 33  1  0  0  0  0
 33 29  2  0  0  0  0
 34 30  1  0  0  0  0
 35 31  1  0  0  0  0
 36 32  1  0  0  0  0
 36 37  2  0  0  0  0
 38 37  1  0  0  0  0
 39 38  1  0  0  0  0
 40 39  1  0  0  0  0
 41 39  2  0  0  0  0
 41 36  1  0  0  0  0
M  END
>  <minimizedAffinity>
-5.92736483

>  <minimizedRMSD>
0.249217644

$$$$
