
 OpenBabel03232521003D

 41 44  0  0  1  0  0  0  0  0999 V2000
   45.3480   32.8920   47.5120 C   0  0  0  0  0  0  0  0  0  0  0  0
   45.9100   32.6390   46.3050 C   0  0  0  0  0  0  0  0  0  0  0  0
   46.1880   31.2910   46.0590 C   0  0  0  0  0  0  0  0  0  0  0  0
   45.9250   30.2960   46.9420 N   0  0  0  0  0  0  0  0  0  0  0  0
   45.3500   30.6110   48.1640 C   0  0  0  0  0  0  0  0  0  0  0  0
   45.0770   31.8880   48.4180 N   0  0  0  0  0  0  0  0  0  0  0  0
   45.0980   29.5910   49.1220 N   0  0  0  0  0  0  0  0  0  0  0  0
   45.0930   33.8930   47.8180 H   0  0  0  0  0  0  0  0  0  0  0  0
   44.8080   28.6770   48.6640 H   0  0  0  0  0  0  0  0  0  0  0  0
   45.2330   29.8820   50.1160 H   0  0  0  0  0  0  0  0  0  0  0  0
   46.1610   33.5910   45.2760 C   0  0  2  0  0  0  0  0  0  0  0  0
   44.9490   34.6830   45.5040 C   0  0  0  0  0  0  0  0  0  0  0  0
   44.7250   35.6150   44.4370 C   0  0  0  0  0  0  0  0  0  0  0  0
   45.5310   35.5480   43.2140 C   0  0  1  0  0  0  0  0  0  0  0  0
   46.5890   34.5440   43.1680 C   0  0  0  0  0  0  0  0  0  0  0  0
   46.1360   33.3100   43.9130 C   0  0  0  0  0  0  0  0  0  0  0  0
   46.9480   34.3260   45.6110 H   0  0  0  0  0  0  0  0  0  0  0  0
   44.2860   34.8030   46.3480 H   0  0  0  0  0  0  0  0  0  0  0  0
   43.9540   36.3380   44.5450 H   0  0  0  0  0  0  0  0  0  0  0  0
   45.9520   36.5570   43.0380 H   0  0  0  0  0  0  0  0  0  0  0  0
   46.8600   34.3530   42.1070 H   0  0  0  0  0  0  0  0  0  0  0  0
   47.5020   34.9250   43.6810 H   0  0  0  0  0  0  0  0  0  0  0  0
   46.9860   32.6570   43.5790 H   0  0  0  0  0  0  0  0  0  0  0  0
   45.2290   32.8670   43.4600 H   0  0  0  0  0  0  0  0  0  0  0  0
   44.5200   35.2860   42.0590 C   0  0  0  0  0  0  0  0  0  0  0  0
   43.4580   34.4910   42.4500 F   0  0  0  0  0  0  0  0  0  0  0  0
   43.9880   36.5310   41.7240 F   0  0  0  0  0  0  0  0  0  0  0  0
   45.2000   34.8220   40.9470 F   0  0  0  0  0  0  0  0  0  0  0  0
   46.8340   30.6000   44.9560 C   0  0  0  0  0  0  0  0  0  0  0  0
   46.4890   29.8220   43.8970 C   0  0  0  0  0  0  0  0  0  0  0  0
   47.6620   29.4420   43.2400 C   0  0  0  0  0  0  0  0  0  0  0  0
   48.6570   30.0030   43.9290 N   0  0  0  0  0  0  0  0  0  0  0  0
   48.1950   30.6930   44.9450 N   0  0  0  0  0  0  0  0  0  0  0  0
   45.4390   29.6430   43.7520 H   0  0  0  0  0  0  0  0  0  0  0  0
   47.5670   28.8180   42.3690 H   0  0  0  0  0  0  0  0  0  0  0  0
   50.0220   29.8160   43.5270 C   0  0  0  0  0  0  0  0  0  0  0  0
   50.1590   29.6960   42.2010 N   0  0  0  0  0  0  0  0  0  0  0  0
   51.3810   29.5300   41.8910 O   0  0  0  0  0  0  0  0  0  0  0  0
   52.2000   29.5190   42.9680 C   0  0  0  0  0  0  0  0  0  0  0  0
   52.8400   29.5120   43.8090 H   0  0  0  0  0  0  0  0  0  0  0  0
   51.2770   29.7040   43.9620 N   0  0  0  0  0  0  0  0  0  0  0  0
  1  8  1  0  0  0  0
  1  6  1  0  0  0  0
  2  1  2  0  0  0  0
  3  2  1  0  0  0  0
  3  4  2  0  0  0  0
  4  5  1  0  0  0  0
  5  6  2  0  0  0  0
  5  7  1  0  0  0  0
  7 10  1  0  0  0  0
  9  7  1  0  0  0  0
 11 12  1  0  0  0  0
 11 17  1  1  0  0  0
 11  2  1  0  0  0  0
 12 18  1  0  0  0  0
 13 19  1  0  0  0  0
 13 12  2  0  0  0  0
 14 20  1  6  0  0  0
 14 13  1  0  0  0  0
 15 14  1  0  0  0  0
 15 22  1  0  0  0  0
 15 16  1  0  0  0  0
 16 11  1  0  0  0  0
 21 15  1  0  0  0  0
 23 16  1  0  0  0  0
 24 16  1  0  0  0  0
 25 26  1  0  0  0  0
 25 14  1  0  0  0  0
 27 25  1  0  0  0  0
 28 25  1  0  0  0  0
 29  3  1  0  0  0  0
 30 29  1  0  0  0  0
 31 30  2  0  0  0  0
 31 32  1  0  0  0  0
 32 33  1  0  0  0  0
 33 29  2  0  0  0  0
 34 30  1  0  0  0  0
 35 31  1  0  0  0  0
 36 32  1  0  0  0  0
 36 41  1  0  0  0  0
 37 36  2  0  0  0  0
 38 37  1  0  0  0  0
 38 39  1  0  0  0  0
 39 40  1  0  0  0  0
 39 41  2  0  0  0  0
M  END
>  <minimizedAffinity>
-5.95836973

>  <minimizedRMSD>
0.16443342

$$$$
