
 OpenBabel03232521003D

 41 44  0  0  1  0  0  0  0  0999 V2000
   45.3670   32.8430   47.4830 C   0  0  0  0  0  0  0  0  0  0  0  0
   45.9250   32.6050   46.2710 C   0  0  0  0  0  0  0  0  0  0  0  0
   46.2040   31.2610   46.0070 C   0  0  0  0  0  0  0  0  0  0  0  0
   45.9450   30.2550   46.8780 N   0  0  0  0  0  0  0  0  0  0  0  0
   45.3740   30.5540   48.1060 C   0  0  0  0  0  0  0  0  0  0  0  0
   45.1010   31.8280   48.3770 N   0  0  0  0  0  0  0  0  0  0  0  0
   45.1260   29.5220   49.0520 N   0  0  0  0  0  0  0  0  0  0  0  0
   45.1130   33.8400   47.8020 H   0  0  0  0  0  0  0  0  0  0  0  0
   44.8350   28.6140   48.5830 H   0  0  0  0  0  0  0  0  0  0  0  0
   45.2650   29.8010   50.0490 H   0  0  0  0  0  0  0  0  0  0  0  0
   46.1710   33.5710   45.2530 C   0  0  2  0  0  0  0  0  0  0  0  0
   44.9610   34.6600   45.5000 C   0  0  0  0  0  0  0  0  0  0  0  0
   44.7320   35.6050   44.4460 C   0  0  0  0  0  0  0  0  0  0  0  0
   45.5320   35.5540   43.2180 C   0  0  1  0  0  0  0  0  0  0  0  0
   46.5900   34.5500   43.1550 C   0  0  0  0  0  0  0  0  0  0  0  0
   46.1410   33.3070   43.8860 C   0  0  0  0  0  0  0  0  0  0  0  0
   46.9600   34.3010   45.5930 H   0  0  0  0  0  0  0  0  0  0  0  0
   44.3010   34.7680   46.3480 H   0  0  0  0  0  0  0  0  0  0  0  0
   43.9610   36.3260   44.5670 H   0  0  0  0  0  0  0  0  0  0  0  0
   45.9530   36.5650   43.0540 H   0  0  0  0  0  0  0  0  0  0  0  0
   46.8570   34.3730   42.0910 H   0  0  0  0  0  0  0  0  0  0  0  0
   47.5060   34.9250   43.6690 H   0  0  0  0  0  0  0  0  0  0  0  0
   46.9890   32.6580   43.5400 H   0  0  0  0  0  0  0  0  0  0  0  0
   45.2320   32.8700   43.4320 H   0  0  0  0  0  0  0  0  0  0  0  0
   44.5170   35.3060   42.0650 C   0  0  0  0  0  0  0  0  0  0  0  0
   43.4460   34.5240   42.4560 F   0  0  0  0  0  0  0  0  0  0  0  0
   43.9990   36.5580   41.7330 F   0  0  0  0  0  0  0  0  0  0  0  0
   45.1890   34.8360   40.9500 F   0  0  0  0  0  0  0  0  0  0  0  0
   46.8460   30.5840   44.8920 C   0  0  0  0  0  0  0  0  0  0  0  0
   46.4970   29.8210   43.8240 C   0  0  0  0  0  0  0  0  0  0  0  0
   47.6690   29.4490   43.1590 C   0  0  0  0  0  0  0  0  0  0  0  0
   48.6650   30.0020   43.8510 N   0  0  0  0  0  0  0  0  0  0  0  0
   48.2070   30.6780   44.8780 N   0  0  0  0  0  0  0  0  0  0  0  0
   45.4470   29.6430   43.6810 H   0  0  0  0  0  0  0  0  0  0  0  0
   47.5710   28.8360   42.2800 H   0  0  0  0  0  0  0  0  0  0  0  0
   50.0290   29.8200   43.4420 C   0  0  0  0  0  0  0  0  0  0  0  0
   50.1390   29.4020   42.1760 N   0  0  0  0  0  0  0  0  0  0  0  0
   51.3590   29.2520   41.8570 O   0  0  0  0  0  0  0  0  0  0  0  0
   52.2060   29.5510   42.8690 C   0  0  0  0  0  0  0  0  0  0  0  0
   52.8680   29.7850   43.6590 H   0  0  0  0  0  0  0  0  0  0  0  0
   51.3010   29.9010   43.8340 N   0  0  0  0  0  0  0  0  0  0  0  0
  1  8  1  0  0  0  0
  1  6  1  0  0  0  0
  2  1  2  0  0  0  0
  3  2  1  0  0  0  0
  3  4  2  0  0  0  0
  4  5  1  0  0  0  0
  5  6  2  0  0  0  0
  5  7  1  0  0  0  0
  7 10  1  0  0  0  0
  9  7  1  0  0  0  0
 11 12  1  0  0  0  0
 11 17  1  1  0  0  0
 11  2  1  0  0  0  0
 12 18  1  0  0  0  0
 13 19  1  0  0  0  0
 13 12  2  0  0  0  0
 14 20  1  6  0  0  0
 14 13  1  0  0  0  0
 15 14  1  0  0  0  0
 15 22  1  0  0  0  0
 15 16  1  0  0  0  0
 16 11  1  0  0  0  0
 21 15  1  0  0  0  0
 23 16  1  0  0  0  0
 24 16  1  0  0  0  0
 25 26  1  0  0  0  0
 25 14  1  0  0  0  0
 27 25  1  0  0  0  0
 28 25  1  0  0  0  0
 29  3  1  0  0  0  0
 30 29  1  0  0  0  0
 31 30  2  0  0  0  0
 31 32  1  0  0  0  0
 32 33  1  0  0  0  0
 33 29  2  0  0  0  0
 34 30  1  0  0  0  0
 35 31  1  0  0  0  0
 36 41  1  0  0  0  0
 36 32  1  0  0  0  0
 37 36  2  0  0  0  0
 38 37  1  0  0  0  0
 38 39  1  0  0  0  0
 39 40  1  0  0  0  0
 39 41  2  0  0  0  0
M  END
>  <minimizedAffinity>
-5.9343667

>  <minimizedRMSD>
0.17044726

$$$$
