
 OpenBabel03232521003D

 41 44  0  0  1  0  0  0  0  0999 V2000
   45.3680   32.8770   47.5020 C   0  0  0  0  0  0  0  0  0  0  0  0
   45.9090   32.6220   46.2860 C   0  0  0  0  0  0  0  0  0  0  0  0
   46.1640   31.2720   46.0290 C   0  0  0  0  0  0  0  0  0  0  0  0
   45.8990   30.2760   46.9110 N   0  0  0  0  0  0  0  0  0  0  0  0
   45.3450   30.5930   48.1420 C   0  0  0  0  0  0  0  0  0  0  0  0
   45.0960   31.8730   48.4070 N   0  0  0  0  0  0  0  0  0  0  0  0
   45.0930   29.5720   49.0980 N   0  0  0  0  0  0  0  0  0  0  0  0
   45.1330   33.8800   47.8170 H   0  0  0  0  0  0  0  0  0  0  0  0
   44.7820   28.6650   48.6400 H   0  0  0  0  0  0  0  0  0  0  0  0
   45.2460   29.8560   50.0920 H   0  0  0  0  0  0  0  0  0  0  0  0
   46.1590   33.5760   45.2590 C   0  0  2  0  0  0  0  0  0  0  0  0
   44.9570   34.6760   45.4990 C   0  0  0  0  0  0  0  0  0  0  0  0
   44.7320   35.6130   44.4360 C   0  0  0  0  0  0  0  0  0  0  0  0
   45.5280   35.5450   43.2070 C   0  0  1  0  0  0  0  0  0  0  0  0
   46.5790   34.5330   43.1510 C   0  0  0  0  0  0  0  0  0  0  0  0
   46.1230   33.3000   43.8950 C   0  0  0  0  0  0  0  0  0  0  0  0
   46.9540   34.3040   45.5900 H   0  0  0  0  0  0  0  0  0  0  0  0
   44.3000   34.7970   46.3480 H   0  0  0  0  0  0  0  0  0  0  0  0
   43.9660   36.3410   44.5530 H   0  0  0  0  0  0  0  0  0  0  0  0
   45.9550   36.5520   43.0320 H   0  0  0  0  0  0  0  0  0  0  0  0
   46.8410   34.3440   42.0880 H   0  0  0  0  0  0  0  0  0  0  0  0
   47.4990   34.9060   43.6580 H   0  0  0  0  0  0  0  0  0  0  0  0
   46.9660   32.6420   43.5520 H   0  0  0  0  0  0  0  0  0  0  0  0
   45.2090   32.8650   43.4470 H   0  0  0  0  0  0  0  0  0  0  0  0
   44.5080   35.2930   42.0590 C   0  0  0  0  0  0  0  0  0  0  0  0
   43.4430   34.5040   42.4540 F   0  0  0  0  0  0  0  0  0  0  0  0
   43.9810   36.5430   41.7330 F   0  0  0  0  0  0  0  0  0  0  0  0
   45.1760   34.8300   40.9400 F   0  0  0  0  0  0  0  0  0  0  0  0
   46.7830   30.5770   44.9130 C   0  0  0  0  0  0  0  0  0  0  0  0
   46.4130   29.8000   43.8620 C   0  0  0  0  0  0  0  0  0  0  0  0
   47.5700   29.4140   43.1810 C   0  0  0  0  0  0  0  0  0  0  0  0
   48.5810   29.9730   43.8470 N   0  0  0  0  0  0  0  0  0  0  0  0
   48.1440   30.6650   44.8730 N   0  0  0  0  0  0  0  0  0  0  0  0
   45.3590   29.6250   43.7400 H   0  0  0  0  0  0  0  0  0  0  0  0
   47.4540   28.7900   42.3130 H   0  0  0  0  0  0  0  0  0  0  0  0
   49.9370   29.7800   43.4170 C   0  0  0  0  0  0  0  0  0  0  0  0
   50.4650   30.8780   42.8610 N   0  0  0  0  0  0  0  0  0  0  0  0
   51.6610   30.6630   42.4940 O   0  0  0  0  0  0  0  0  0  0  0  0
   52.0750   29.4030   42.7600 C   0  0  0  0  0  0  0  0  0  0  0  0
   52.3970   28.4190   42.9670 H   0  0  0  0  0  0  0  0  0  0  0  0
   50.9380   28.9040   43.3400 N   0  0  0  0  0  0  0  0  0  0  0  0
  1  8  1  0  0  0  0
  1  6  1  0  0  0  0
  2  1  2  0  0  0  0
  3  2  1  0  0  0  0
  3  4  2  0  0  0  0
  4  5  1  0  0  0  0
  5  6  2  0  0  0  0
  5  7  1  0  0  0  0
  7 10  1  0  0  0  0
  9  7  1  0  0  0  0
 11 12  1  0  0  0  0
 11 17  1  1  0  0  0
 11  2  1  0  0  0  0
 12 18  1  0  0  0  0
 13 19  1  0  0  0  0
 13 12  2  0  0  0  0
 14 20  1  6  0  0  0
 14 13  1  0  0  0  0
 15 14  1  0  0  0  0
 15 22  1  0  0  0  0
 15 16  1  0  0  0  0
 16 11  1  0  0  0  0
 21 15  1  0  0  0  0
 23 16  1  0  0  0  0
 24 16  1  0  0  0  0
 25 26  1  0  0  0  0
 25 14  1  0  0  0  0
 27 25  1  0  0  0  0
 28 25  1  0  0  0  0
 29  3  1  0  0  0  0
 30 29  1  0  0  0  0
 31 32  1  0  0  0  0
 31 30  2  0  0  0  0
 32 33  1  0  0  0  0
 33 29  2  0  0  0  0
 34 30  1  0  0  0  0
 35 31  1  0  0  0  0
 36 32  1  0  0  0  0
 37 36  2  0  0  0  0
 38 39  1  0  0  0  0
 38 37  1  0  0  0  0
 39 40  1  0  0  0  0
 39 41  2  0  0  0  0
 41 36  1  0  0  0  0
M  END
>  <minimizedAffinity>
-6.00836611

>  <minimizedRMSD>
0.144078225

$$$$
