
 OpenBabel03232520593D

 41 44  0  0  1  0  0  0  0  0999 V2000
   45.3260   32.8880   47.5090 C   0  0  0  0  0  0  0  0  0  0  0  0
   45.9040   32.6380   46.3100 C   0  0  0  0  0  0  0  0  0  0  0  0
   46.1990   31.2930   46.0700 C   0  0  0  0  0  0  0  0  0  0  0  0
   45.9360   30.2970   46.9520 N   0  0  0  0  0  0  0  0  0  0  0  0
   45.3430   30.6090   48.1660 C   0  0  0  0  0  0  0  0  0  0  0  0
   45.0560   31.8830   48.4140 N   0  0  0  0  0  0  0  0  0  0  0  0
   45.0910   29.5880   49.1230 N   0  0  0  0  0  0  0  0  0  0  0  0
   45.0580   33.8870   47.8100 H   0  0  0  0  0  0  0  0  0  0  0  0
   44.8160   28.6710   48.6640 H   0  0  0  0  0  0  0  0  0  0  0  0
   45.2120   29.8830   50.1180 H   0  0  0  0  0  0  0  0  0  0  0  0
   46.1570   33.5910   45.2820 C   0  0  2  0  0  0  0  0  0  0  0  0
   44.9470   34.6840   45.5090 C   0  0  0  0  0  0  0  0  0  0  0  0
   44.7240   35.6170   44.4420 C   0  0  0  0  0  0  0  0  0  0  0  0
   45.5310   35.5500   43.2200 C   0  0  1  0  0  0  0  0  0  0  0  0
   46.5880   34.5450   43.1740 C   0  0  0  0  0  0  0  0  0  0  0  0
   46.1330   33.3110   43.9180 C   0  0  0  0  0  0  0  0  0  0  0  0
   46.9450   34.3240   45.6170 H   0  0  0  0  0  0  0  0  0  0  0  0
   44.2820   34.8040   46.3520 H   0  0  0  0  0  0  0  0  0  0  0  0
   43.9540   36.3400   44.5510 H   0  0  0  0  0  0  0  0  0  0  0  0
   45.9530   36.5590   43.0450 H   0  0  0  0  0  0  0  0  0  0  0  0
   46.8600   34.3550   42.1140 H   0  0  0  0  0  0  0  0  0  0  0  0
   47.5020   34.9250   43.6880 H   0  0  0  0  0  0  0  0  0  0  0  0
   46.9830   32.6570   43.5840 H   0  0  0  0  0  0  0  0  0  0  0  0
   45.2260   32.8690   43.4640 H   0  0  0  0  0  0  0  0  0  0  0  0
   44.5210   35.2900   42.0640 C   0  0  0  0  0  0  0  0  0  0  0  0
   43.4540   34.5020   42.4550 F   0  0  0  0  0  0  0  0  0  0  0  0
   43.9960   36.5370   41.7240 F   0  0  0  0  0  0  0  0  0  0  0  0
   45.2010   34.8190   40.9540 F   0  0  0  0  0  0  0  0  0  0  0  0
   46.8640   30.6060   44.9750 C   0  0  0  0  0  0  0  0  0  0  0  0
   46.5400   29.8140   43.9200 C   0  0  0  0  0  0  0  0  0  0  0  0
   47.7240   29.4510   43.2730 C   0  0  0  0  0  0  0  0  0  0  0  0
   48.7030   30.0380   43.9610 N   0  0  0  0  0  0  0  0  0  0  0  0
   48.2230   30.7260   44.9700 N   0  0  0  0  0  0  0  0  0  0  0  0
   45.4940   29.6120   43.7720 H   0  0  0  0  0  0  0  0  0  0  0  0
   47.6460   28.8190   42.4060 H   0  0  0  0  0  0  0  0  0  0  0  0
   50.0740   29.8750   43.5680 C   0  0  0  0  0  0  0  0  0  0  0  0
   50.3250   30.3690   42.3500 N   0  0  0  0  0  0  0  0  0  0  0  0
   51.5460   30.2020   42.0420 O   0  0  0  0  0  0  0  0  0  0  0  0
   52.2530   29.5800   43.0130 C   0  0  0  0  0  0  0  0  0  0  0  0
   52.8050   29.0940   43.7720 H   0  0  0  0  0  0  0  0  0  0  0  0
   51.2630   29.4040   43.9430 N   0  0  0  0  0  0  0  0  0  0  0  0
  1  8  1  0  0  0  0
  1  6  1  0  0  0  0
  2  1  2  0  0  0  0
  3  2  1  0  0  0  0
  3  4  2  0  0  0  0
  4  5  1  0  0  0  0
  5  6  2  0  0  0  0
  5  7  1  0  0  0  0
  7 10  1  0  0  0  0
  9  7  1  0  0  0  0
 11 12  1  0  0  0  0
 11 17  1  1  0  0  0
 11  2  1  0  0  0  0
 12 18  1  0  0  0  0
 13 19  1  0  0  0  0
 13 12  2  0  0  0  0
 14 20  1  6  0  0  0
 14 13  1  0  0  0  0
 15 14  1  0  0  0  0
 15 22  1  0  0  0  0
 15 16  1  0  0  0  0
 16 11  1  0  0  0  0
 21 15  1  0  0  0  0
 23 16  1  0  0  0  0
 24 16  1  0  0  0  0
 25 26  1  0  0  0  0
 25 14  1  0  0  0  0
 27 25  1  0  0  0  0
 28 25  1  0  0  0  0
 29  3  1  0  0  0  0
 30 29  1  0  0  0  0
 31 30  2  0  0  0  0
 31 32  1  0  0  0  0
 32 33  1  0  0  0  0
 33 29  2  0  0  0  0
 34 30  1  0  0  0  0
 35 31  1  0  0  0  0
 36 41  1  0  0  0  0
 36 32  1  0  0  0  0
 37 36  2  0  0  0  0
 38 37  1  0  0  0  0
 38 39  1  0  0  0  0
 39 40  1  0  0  0  0
 39 41  2  0  0  0  0
M  END
>  <minimizedAffinity>
-5.95487499

>  <minimizedRMSD>
0.212591007

$$$$
