
 OpenBabel03232521003D

 41 44  0  0  1  0  0  0  0  0999 V2000
   45.4520   32.8640   47.5290 C   0  0  0  0  0  0  0  0  0  0  0  0
   45.9310   32.6100   46.2870 C   0  0  0  0  0  0  0  0  0  0  0  0
   46.1190   31.2550   45.9970 C   0  0  0  0  0  0  0  0  0  0  0  0
   45.8490   30.2550   46.8710 N   0  0  0  0  0  0  0  0  0  0  0  0
   45.3600   30.5710   48.1300 C   0  0  0  0  0  0  0  0  0  0  0  0
   45.1750   31.8550   48.4260 N   0  0  0  0  0  0  0  0  0  0  0  0
   45.1040   29.5430   49.0780 N   0  0  0  0  0  0  0  0  0  0  0  0
   45.2710   33.8700   47.8700 H   0  0  0  0  0  0  0  0  0  0  0  0
   44.7380   28.6590   48.6170 H   0  0  0  0  0  0  0  0  0  0  0  0
   45.3090   29.8020   50.0690 H   0  0  0  0  0  0  0  0  0  0  0  0
   46.1800   33.5720   45.2670 C   0  0  2  0  0  0  0  0  0  0  0  0
   44.9610   34.6550   45.5000 C   0  0  0  0  0  0  0  0  0  0  0  0
   44.7340   35.5940   44.4390 C   0  0  0  0  0  0  0  0  0  0  0  0
   45.5430   35.5420   43.2180 C   0  0  1  0  0  0  0  0  0  0  0  0
   46.6080   34.5450   43.1670 C   0  0  0  0  0  0  0  0  0  0  0  0
   46.1610   33.3020   43.9010 C   0  0  0  0  0  0  0  0  0  0  0  0
   46.9610   34.3090   45.6090 H   0  0  0  0  0  0  0  0  0  0  0  0
   44.2940   34.7630   46.3420 H   0  0  0  0  0  0  0  0  0  0  0  0
   43.9580   36.3110   44.5510 H   0  0  0  0  0  0  0  0  0  0  0  0
   45.9590   36.5550   43.0520 H   0  0  0  0  0  0  0  0  0  0  0  0
   46.8830   34.3640   42.1060 H   0  0  0  0  0  0  0  0  0  0  0  0
   47.5180   34.9280   43.6860 H   0  0  0  0  0  0  0  0  0  0  0  0
   47.0150   32.6570   43.5640 H   0  0  0  0  0  0  0  0  0  0  0  0
   45.2570   32.8570   43.4420 H   0  0  0  0  0  0  0  0  0  0  0  0
   44.5380   35.2830   42.0580 C   0  0  0  0  0  0  0  0  0  0  0  0
   43.4720   34.4900   42.4430 F   0  0  0  0  0  0  0  0  0  0  0  0
   44.0090   36.5290   41.7220 F   0  0  0  0  0  0  0  0  0  0  0  0
   45.2220   34.8190   40.9490 F   0  0  0  0  0  0  0  0  0  0  0  0
   46.6640   30.5570   44.8440 C   0  0  0  0  0  0  0  0  0  0  0  0
   46.2150   29.9000   43.7430 C   0  0  0  0  0  0  0  0  0  0  0  0
   47.3250   29.4120   43.0490 C   0  0  0  0  0  0  0  0  0  0  0  0
   48.3880   29.7940   43.7580 N   0  0  0  0  0  0  0  0  0  0  0  0
   48.0250   30.4720   44.8220 N   0  0  0  0  0  0  0  0  0  0  0  0
   45.1500   29.8690   43.6010 H   0  0  0  0  0  0  0  0  0  0  0  0
   47.1450   28.8630   42.1420 H   0  0  0  0  0  0  0  0  0  0  0  0
   49.7150   29.4560   43.3280 C   0  0  0  0  0  0  0  0  0  0  0  0
   50.6210   29.5770   44.3060 N   0  0  0  0  0  0  0  0  0  0  0  0
   51.7800   29.2710   43.8830 O   0  0  0  0  0  0  0  0  0  0  0  0
   51.7840   28.9090   42.5790 C   0  0  0  0  0  0  0  0  0  0  0  0
   51.7880   28.6280   41.5600 H   0  0  0  0  0  0  0  0  0  0  0  0
   50.4520   29.0490   42.2950 N   0  0  0  0  0  0  0  0  0  0  0  0
  1  8  1  0  0  0  0
  1  6  1  0  0  0  0
  2  1  2  0  0  0  0
  3  2  1  0  0  0  0
  3  4  2  0  0  0  0
  4  5  1  0  0  0  0
  5  6  2  0  0  0  0
  5  7  1  0  0  0  0
  7 10  1  0  0  0  0
  9  7  1  0  0  0  0
 11 12  1  0  0  0  0
 11 17  1  1  0  0  0
 11  2  1  0  0  0  0
 12 18  1  0  0  0  0
 13 19  1  0  0  0  0
 13 12  2  0  0  0  0
 14 20  1  6  0  0  0
 14 13  1  0  0  0  0
 15 14  1  0  0  0  0
 15 22  1  0  0  0  0
 15 16  1  0  0  0  0
 16 11  1  0  0  0  0
 21 15  1  0  0  0  0
 23 16  1  0  0  0  0
 24 16  1  0  0  0  0
 25 26  1  0  0  0  0
 25 14  1  0  0  0  0
 27 25  1  0  0  0  0
 28 25  1  0  0  0  0
 29  3  1  0  0  0  0
 30 29  1  0  0  0  0
 31 30  2  0  0  0  0
 31 32  1  0  0  0  0
 32 33  1  0  0  0  0
 33 29  2  0  0  0  0
 34 30  1  0  0  0  0
 35 31  1  0  0  0  0
 36 32  1  0  0  0  0
 36 37  2  0  0  0  0
 38 37  1  0  0  0  0
 39 38  1  0  0  0  0
 40 39  1  0  0  0  0
 41 39  2  0  0  0  0
 41 36  1  0  0  0  0
M  END
>  <minimizedAffinity>
-5.92773294

>  <minimizedRMSD>
0.155754119

$$$$
