
 OpenBabel03232520203D

 44 48  0  0  0  0  0  0  0  0999 V2000
   47.5920   34.1520   42.2150 C   0  0  0  0  0  0  0  0  0  0  0  0
   48.4370   35.2880   41.7130 C   0  0  0  0  0  0  0  0  0  0  0  0
   49.7700   35.4190   42.3280 C   0  0  0  0  0  0  0  0  0  0  0  0
   50.5100   34.1350   42.5210 C   0  0  0  0  0  0  0  0  0  0  0  0
   49.6840   32.9050   42.2280 C   0  0  0  0  0  0  0  0  0  0  0  0
   48.3580   33.0840   42.9390 C   0  0  0  0  0  0  0  0  0  0  0  0
   48.5660   35.2280   40.5960 H   0  0  0  0  0  0  0  0  0  0  0  0
   47.8580   36.2270   41.8780 H   0  0  0  0  0  0  0  0  0  0  0  0
   50.3880   36.0660   41.6610 H   0  0  0  0  0  0  0  0  0  0  0  0
   49.6540   36.0150   43.2750 H   0  0  0  0  0  0  0  0  0  0  0  0
   50.7880   34.0690   43.6020 H   0  0  0  0  0  0  0  0  0  0  0  0
   51.4660   34.0820   41.9590 H   0  0  0  0  0  0  0  0  0  0  0  0
   49.4640   32.8580   41.1360 H   0  0  0  0  0  0  0  0  0  0  0  0
   50.2350   32.0260   42.5970 H   0  0  0  0  0  0  0  0  0  0  0  0
   47.7750   32.1580   42.8710 H   0  0  0  0  0  0  0  0  0  0  0  0
   48.5660   33.4070   43.9920 H   0  0  0  0  0  0  0  0  0  0  0  0
   45.2490   34.4560   45.0620 C   0  0  0  0  0  0  0  0  0  0  0  0
   44.5270   35.6110   44.7500 C   0  0  0  0  0  0  0  0  0  0  0  0
   44.8480   36.2710   43.5770 C   0  0  0  0  0  0  0  0  0  0  0  0
   45.8390   35.7700   42.7950 N   0  0  0  0  0  0  0  0  0  0  0  0
   46.5200   34.6460   43.1250 C   0  0  0  0  0  0  0  0  0  0  0  0
   46.2130   33.9870   44.2790 N   0  0  0  0  0  0  0  0  0  0  0  0
   45.0000   33.9310   45.9860 H   0  0  0  0  0  0  0  0  0  0  0  0
   43.7340   36.0080   45.3840 H   0  0  0  0  0  0  0  0  0  0  0  0
   44.3380   37.1730   43.2610 H   0  0  0  0  0  0  0  0  0  0  0  0
   46.9500   33.4900   41.0110 C   0  0  0  0  0  0  0  0  0  0  0  0
   45.8780   32.6620   40.7510 C   0  0  0  0  0  0  0  0  0  0  0  0
   45.6630   32.2970   39.4810 C   0  0  0  0  0  0  0  0  0  0  0  0
   46.4580   32.7150   38.4820 C   0  0  0  0  0  0  0  0  0  0  0  0
   47.7010   33.7710   39.3800 S   0  0  0  0  0  0  0  0  0  0  0  0
   45.3670   32.4350   41.6480 H   0  0  0  0  0  0  0  0  0  0  0  0
   44.8250   31.6460   39.2480 H   0  0  0  0  0  0  0  0  0  0  0  0
   46.4680   32.4940   37.0880 N   0  0  0  0  0  0  0  0  0  0  0  0
   45.3320   32.6860   36.3630 C   0  0  0  0  0  0  0  0  0  0  0  0
   45.6120   32.4070   35.0590 N   0  0  0  0  0  0  0  0  0  0  0  0
   46.9190   32.0460   35.0090 C   0  0  0  0  0  0  0  0  0  0  0  0
   47.7860   31.6550   34.0040 C   0  0  0  0  0  0  0  0  0  0  0  0
   49.0730   31.3450   34.2460 N   0  0  0  0  0  0  0  0  0  0  0  0
   49.5570   31.4140   35.5210 C   0  0  0  0  0  0  0  0  0  0  0  0
   48.7340   31.7940   36.5230 N   0  0  0  0  0  0  0  0  0  0  0  0
   47.4560   32.1030   36.2990 C   0  0  0  0  0  0  0  0  0  0  0  0
   47.2890   31.5830   32.6820 N   0  0  0  0  0  0  0  0  0  0  0  0
   46.4280   30.9650   32.6330 H   0  0  0  0  0  0  0  0  0  0  0  0
   47.5020   31.9500   31.7190 H   0  0  0  0  0  0  0  0  0  0  0  0
  1  6  1  0  0  0  0
  1 21  1  0  0  0  0
  2  8  1  0  0  0  0
  2  1  1  0  0  0  0
  2  3  1  0  0  0  0
  3  4  1  0  0  0  0
  3 10  1  0  0  0  0
  4 11  1  0  0  0  0
  5  4  1  0  0  0  0
  5 14  1  0  0  0  0
  5  6  1  0  0  0  0
  6 16  1  0  0  0  0
  7  2  1  0  0  0  0
  9  3  1  0  0  0  0
 12  4  1  0  0  0  0
 13  5  1  0  0  0  0
 15  6  1  0  0  0  0
 17 23  1  0  0  0  0
 18 17  1  0  0  0  0
 18 24  1  0  0  0  0
 19 18  2  0  0  0  0
 20 21  2  0  0  0  0
 20 19  1  0  0  0  0
 21 22  1  0  0  0  0
 22 17  2  0  0  0  0
 25 19  1  0  0  0  0
 26  1  1  0  0  0  0
 27 26  2  0  0  0  0
 27 31  1  0  0  0  0
 28 27  1  0  0  0  0
 29 30  1  0  0  0  0
 29 28  2  0  0  0  0
 30 26  1  0  0  0  0
 32 28  1  0  0  0  0
 33 29  1  0  0  0  0
 34 33  1  0  0  0  0
 35 34  2  0  0  0  0
 36 35  1  0  0  0  0
 36 41  1  0  0  0  0
 37 38  1  0  0  0  0
 37 36  2  0  0  0  0
 38 39  2  0  0  0  0
 39 40  1  0  0  0  0
 41 40  2  0  0  0  0
 41 33  1  0  0  0  0
 42 37  1  0  0  0  0
 43 42  1  0  0  0  0
 44 42  1  0  0  0  0
M  END
>  <minimizedAffinity>
-6.82322407

>  <minimizedRMSD>
1.37595594

$$$$
