
 OpenBabel03232519013D

 34 37  0  0  1  0  0  0  0  0999 V2000
   46.8660   33.8840   44.3610 C   0  0  0  0  0  0  0  0  0  0  0  0
   47.5390   33.0850   43.3980 C   0  0  0  0  0  0  0  0  0  0  0  0
   47.7290   31.7290   43.6920 C   0  0  0  0  0  0  0  0  0  0  0  0
   47.2630   31.2470   44.8790 N   0  0  0  0  0  0  0  0  0  0  0  0
   46.6330   32.0350   45.7620 C   0  0  0  0  0  0  0  0  0  0  0  0
   46.4300   33.3450   45.5160 N   0  0  0  0  0  0  0  0  0  0  0  0
   46.1670   31.4740   46.9880 N   0  0  0  0  0  0  0  0  0  0  0  0
   45.1250   32.2180   47.6860 C   0  0  0  0  0  0  0  0  0  0  0  0
   44.7530   31.6340   49.0080 C   0  0  0  0  0  0  0  0  0  0  0  0
   45.6230   30.6590   49.4390 O   0  0  0  0  0  0  0  0  0  0  0  0
   45.7190   29.6740   48.4840 C   0  0  0  0  0  0  0  0  0  0  0  0
   46.7330   30.2280   47.4720 C   0  0  2  0  0  0  0  0  0  0  0  0
   46.7300   34.9280   44.1120 H   0  0  0  0  0  0  0  0  0  0  0  0
   47.8830   33.5280   42.4780 H   0  0  0  0  0  0  0  0  0  0  0  0
   48.2380   31.0950   42.9780 H   0  0  0  0  0  0  0  0  0  0  0  0
   44.1920   32.2940   47.0650 H   0  0  0  0  0  0  0  0  0  0  0  0
   45.5050   33.2450   47.8190 H   0  0  0  0  0  0  0  0  0  0  0  0
   44.7320   32.4340   49.7770 H   0  0  0  0  0  0  0  0  0  0  0  0
   43.7060   31.2210   48.9880 H   0  0  0  0  0  0  0  0  0  0  0  0
   44.7700   29.5670   47.8800 H   0  0  0  0  0  0  0  0  0  0  0  0
   45.9990   28.6810   48.8260 H   0  0  0  0  0  0  0  0  0  0  0  0
   46.9320   29.5340   46.6560 H   0  0  0  0  0  0  0  0  0  0  0  0
   47.9530   30.6100   48.1990 N   0  0  0  0  0  0  0  0  0  0  0  0
   48.3180   31.8330   48.6650 C   0  0  0  0  0  0  0  0  0  0  0  0
   49.5170   31.7390   49.2740 N   0  0  0  0  0  0  0  0  0  0  0  0
   49.9380   30.4730   49.2110 C   0  0  0  0  0  0  0  0  0  0  0  0
   51.1050   29.8650   49.6890 C   0  0  0  0  0  0  0  0  0  0  0  0
   51.2620   28.5530   49.4770 N   0  0  0  0  0  0  0  0  0  0  0  0
   50.2990   27.8610   48.8170 C   0  0  0  0  0  0  0  0  0  0  0  0
   49.1890   28.4650   48.3690 N   0  0  0  0  0  0  0  0  0  0  0  0
   48.9590   29.7640   48.5390 C   0  0  0  0  0  0  0  0  0  0  0  0
   52.0980   30.6330   50.3820 N   0  0  0  0  0  0  0  0  0  0  0  0
   52.1080   31.6390   50.1920 H   0  0  0  0  0  0  0  0  0  0  0  0
   52.7490   30.1490   51.0330 H   0  0  0  0  0  0  0  0  0  0  0  0
  1  6  1  0  0  0  0
  2  3  1  0  0  0  0
  2  1  2  0  0  0  0
  3  4  2  0  0  0  0
  4  5  1  0  0  0  0
  5  7  1  0  0  0  0
  6  5  2  0  0  0  0
  7 12  1  0  0  0  0
  7  8  1  0  0  0  0
  8 17  1  0  0  0  0
  8  9  1  0  0  0  0
  9 10  1  0  0  0  0
  9 18  1  0  0  0  0
 11 21  1  0  0  0  0
 11 10  1  0  0  0  0
 12 22  1  6  0  0  0
 12 23  1  0  0  0  0
 12 11  1  0  0  0  0
 13  1  1  0  0  0  0
 14  2  1  0  0  0  0
 15  3  1  0  0  0  0
 16  8  1  0  0  0  0
 19  9  1  0  0  0  0
 20 11  1  0  0  0  0
 23 31  1  0  0  0  0
 23 24  1  0  0  0  0
 24 25  2  0  0  0  0
 26 25  1  0  0  0  0
 26 27  1  0  0  0  0
 27 32  1  0  0  0  0
 28 27  2  0  0  0  0
 29 28  1  0  0  0  0
 30 31  1  0  0  0  0
 30 29  2  0  0  0  0
 31 26  2  0  0  0  0
 32 34  1  0  0  0  0
 33 32  1  0  0  0  0
M  END
>  <minimizedAffinity>
-4.68067837

>  <minimizedRMSD>
2.88861156

$$$$
