
 OpenBabel03232521003D

 42 45  0  0  1  0  0  0  0  0999 V2000
   45.3470   32.8910   47.5090 C   0  0  0  0  0  0  0  0  0  0  0  0
   45.9180   32.6380   46.3010 C   0  0  0  0  0  0  0  0  0  0  0  0
   46.2000   31.2900   46.0630 C   0  0  0  0  0  0  0  0  0  0  0  0
   45.9350   30.2960   46.9480 N   0  0  0  0  0  0  0  0  0  0  0  0
   45.3520   30.6050   48.1680 C   0  0  0  0  0  0  0  0  0  0  0  0
   45.0760   31.8810   48.4150 N   0  0  0  0  0  0  0  0  0  0  0  0
   45.0720   29.5930   49.1160 N   0  0  0  0  0  0  0  0  0  0  0  0
   45.0920   33.8980   47.7990 H   0  0  0  0  0  0  0  0  0  0  0  0
   44.2780   29.6600   49.7710 H   0  0  0  0  0  0  0  0  0  0  0  0
   45.7140   28.7480   49.1360 H   0  0  0  0  0  0  0  0  0  0  0  0
   46.1650   33.5920   45.2740 C   0  0  2  0  0  0  0  0  0  0  0  0
   44.9530   34.6830   45.5050 C   0  0  0  0  0  0  0  0  0  0  0  0
   44.7230   35.6140   44.4350 C   0  0  0  0  0  0  0  0  0  0  0  0
   45.5260   35.5440   43.2120 C   0  0  1  0  0  0  0  0  0  0  0  0
   46.5850   34.5400   43.1630 C   0  0  0  0  0  0  0  0  0  0  0  0
   46.1330   33.3060   43.9100 C   0  0  0  0  0  0  0  0  0  0  0  0
   46.9860   34.2970   45.6030 H   0  0  0  0  0  0  0  0  0  0  0  0
   44.2760   34.8320   46.3370 H   0  0  0  0  0  0  0  0  0  0  0  0
   43.9530   36.3340   44.5460 H   0  0  0  0  0  0  0  0  0  0  0  0
   45.9560   36.5560   43.0110 H   0  0  0  0  0  0  0  0  0  0  0  0
   47.5700   34.8730   43.5630 H   0  0  0  0  0  0  0  0  0  0  0  0
   46.8020   34.3200   42.0760 H   0  0  0  0  0  0  0  0  0  0  0  0
   46.9890   32.6590   43.5800 H   0  0  0  0  0  0  0  0  0  0  0  0
   45.1810   32.9730   43.4460 H   0  0  0  0  0  0  0  0  0  0  0  0
   44.5140   35.2790   42.0580 C   0  0  0  0  0  0  0  0  0  0  0  0
   43.4550   34.4780   42.4490 F   0  0  0  0  0  0  0  0  0  0  0  0
   43.9710   36.5170   41.7250 F   0  0  0  0  0  0  0  0  0  0  0  0
   45.1900   34.8210   40.9420 F   0  0  0  0  0  0  0  0  0  0  0  0
   46.8570   30.6030   44.9670 C   0  0  0  0  0  0  0  0  0  0  0  0
   46.5360   29.8340   43.8950 C   0  0  0  0  0  0  0  0  0  0  0  0
   47.7210   29.4570   43.2520 C   0  0  0  0  0  0  0  0  0  0  0  0
   48.7010   30.0140   43.9630 N   0  0  0  0  0  0  0  0  0  0  0  0
   48.2170   30.6930   44.9770 N   0  0  0  0  0  0  0  0  0  0  0  0
   45.4800   29.6480   43.7220 H   0  0  0  0  0  0  0  0  0  0  0  0
   47.6830   28.8360   42.3690 H   0  0  0  0  0  0  0  0  0  0  0  0
   52.4790   30.1590   41.4560 H   0  0  0  0  0  0  0  0  0  0  0  0
   51.8520   29.9780   42.2780 N   0  0  0  0  0  0  0  0  0  0  0  0
   50.5490   30.2240   42.3790 N   0  0  0  0  0  0  0  0  0  0  0  0
   50.0900   29.8500   43.6050 C   0  0  0  0  0  0  0  0  0  0  0  0
   51.1640   29.3450   44.3080 C   0  0  0  0  0  3  0  0  0  0  0  0
   52.2440   29.4400   43.4500 C   0  0  0  0  0  0  0  0  0  0  0  0
   53.2160   29.1070   43.7650 H   0  0  0  0  0  0  0  0  0  0  0  0
  1  8  1  0  0  0  0
  1  6  1  0  0  0  0
  2  1  2  0  0  0  0
  3  2  1  0  0  0  0
  3  4  2  0  0  0  0
  4  5  1  0  0  0  0
  5  6  2  0  0  0  0
  5  7  1  0  0  0  0
  7 10  1  0  0  0  0
  7  9  1  0  0  0  0
 11 12  1  0  0  0  0
 11 17  1  1  0  0  0
 11  2  1  0  0  0  0
 12 18  1  0  0  0  0
 13 19  1  0  0  0  0
 13 12  2  0  0  0  0
 14 20  1  6  0  0  0
 14 13  1  0  0  0  0
 15 14  1  0  0  0  0
 15 21  1  0  0  0  0
 15 16  1  0  0  0  0
 16 11  1  0  0  0  0
 22 15  1  0  0  0  0
 23 16  1  0  0  0  0
 24 16  1  0  0  0  0
 25 26  1  0  0  0  0
 25 14  1  0  0  0  0
 27 25  1  0  0  0  0
 28 25  1  0  0  0  0
 29 33  2  0  0  0  0
 29  3  1  0  0  0  0
 30 29  1  0  0  0  0
 31 30  2  0  0  0  0
 31 32  1  0  0  0  0
 32 33  1  0  0  0  0
 34 30  1  0  0  0  0
 35 31  1  0  0  0  0
 36 37  1  0  0  0  0
 37 38  1  0  0  0  0
 37 41  1  0  0  0  0
 38 39  2  0  0  0  0
 39 32  1  0  0  0  0
 39 40  1  0  0  0  0
 41 42  1  0  0  0  0
 41 40  2  0  0  0  0
M  END
>  <minimizedAffinity>
-6.00872374

>  <minimizedRMSD>
0.191400066

$$$$
