
 OpenBabel03232520533D

 38 41  0  0  1  0  0  0  0  0999 V2000
   47.3840   31.2760   46.8010 C   0  0  0  0  0  0  0  0  0  0  0  0
   46.8170   31.4810   45.5560 C   0  0  0  0  0  0  0  0  0  0  0  0
   46.2970   30.3610   44.9010 C   0  0  0  0  0  0  0  0  0  0  0  0
   46.3570   29.1480   45.4800 N   0  0  0  0  0  0  0  0  0  0  0  0
   46.9220   28.9670   46.7100 C   0  0  0  0  0  0  0  0  0  0  0  0
   47.4300   30.0350   47.3600 N   0  0  0  0  0  0  0  0  0  0  0  0
   47.8310   32.0240   47.4390 H   0  0  0  0  0  0  0  0  0  0  0  0
   45.8490   30.4780   43.9360 H   0  0  0  0  0  0  0  0  0  0  0  0
   46.9880   27.6850   47.3240 N   0  0  0  0  0  0  0  0  0  0  0  0
   48.0020   26.9860   47.8740 C   0  0  0  0  0  0  0  0  0  0  0  0
   47.5450   25.8010   48.3280 N   0  0  0  0  0  0  0  0  0  0  0  0
   46.2310   25.7340   48.0700 C   0  0  0  0  0  0  0  0  0  0  0  0
   45.2320   24.8210   48.2770 C   0  0  0  0  0  0  0  0  0  0  0  0
   43.9460   24.9980   47.9110 N   0  0  0  0  0  0  0  0  0  0  0  0
   43.6300   26.1600   47.2980 C   0  0  0  0  0  0  0  0  0  0  0  0
   44.5940   27.0710   47.0840 N   0  0  0  0  0  0  0  0  0  0  0  0
   45.8780   26.8980   47.4480 C   0  0  0  0  0  0  0  0  0  0  0  0
   46.8030   32.8240   44.9980 C   0  0  2  0  0  0  0  0  0  0  0  0
   45.5760   33.5630   45.4660 C   0  0  0  0  0  0  0  0  0  0  0  0
   45.1540   34.7020   44.6870 C   0  0  0  0  0  0  0  0  0  0  0  0
   45.8900   35.1090   43.4980 C   0  0  1  0  0  0  0  0  0  0  0  0
   47.1350   34.3710   43.1880 C   0  0  0  0  0  0  0  0  0  0  0  0
   46.9620   32.9180   43.5200 C   0  0  0  0  0  0  0  0  0  0  0  0
   47.6640   33.3780   45.4770 H   0  0  0  0  0  0  0  0  0  0  0  0
   44.8750   33.4650   46.2840 H   0  0  0  0  0  0  0  0  0  0  0  0
   44.3050   35.2850   44.9350 H   0  0  0  0  0  0  0  0  0  0  0  0
   46.1390   36.1910   43.6110 H   0  0  0  0  0  0  0  0  0  0  0  0
   47.4320   34.5140   42.1470 H   0  0  0  0  0  0  0  0  0  0  0  0
   47.9320   34.7590   43.8810 H   0  0  0  0  0  0  0  0  0  0  0  0
   46.1430   32.4380   42.9720 H   0  0  0  0  0  0  0  0  0  0  0  0
   47.9500   32.4350   43.2850 H   0  0  0  0  0  0  0  0  0  0  0  0
   44.9210   35.0470   42.3090 C   0  0  0  0  0  0  0  0  0  0  0  0
   43.9060   34.1410   42.4890 F   0  0  0  0  0  0  0  0  0  0  0  0
   44.3180   36.3010   42.1930 F   0  0  0  0  0  0  0  0  0  0  0  0
   45.6310   34.8270   41.1400 F   0  0  0  0  0  0  0  0  0  0  0  0
   45.5210   23.5860   48.9190 N   0  0  0  0  0  0  0  0  0  0  0  0
   44.8340   23.1520   49.5920 H   0  0  0  0  0  0  0  0  0  0  0  0
   46.3390   22.9430   48.8730 H   0  0  0  0  0  0  0  0  0  0  0  0
  1  6  1  0  0  0  0
  1  7  1  0  0  0  0
  2  1  2  0  0  0  0
  3  4  2  0  0  0  0
  3  2  1  0  0  0  0
  4  5  1  0  0  0  0
  5  9  1  0  0  0  0
  5  6  2  0  0  0  0
  8  3  1  0  0  0  0
  9 17  1  0  0  0  0
  9 10  1  0  0  0  0
 10 11  2  0  0  0  0
 12 13  1  0  0  0  0
 12 11  1  0  0  0  0
 13 36  1  0  0  0  0
 14 13  2  0  0  0  0
 15 14  1  0  0  0  0
 16 15  2  0  0  0  0
 16 17  1  0  0  0  0
 17 12  2  0  0  0  0
 18 19  1  0  0  0  0
 18 24  1  1  0  0  0
 18  2  1  0  0  0  0
 19 25  1  0  0  0  0
 20 26  1  0  0  0  0
 20 19  2  0  0  0  0
 21 27  1  1  0  0  0
 21 20  1  0  0  0  0
 22 21  1  0  0  0  0
 22 23  1  0  0  0  0
 22 29  1  0  0  0  0
 23 18  1  0  0  0  0
 28 22  1  0  0  0  0
 30 23  1  0  0  0  0
 31 23  1  0  0  0  0
 32 33  1  0  0  0  0
 32 21  1  0  0  0  0
 34 32  1  0  0  0  0
 35 32  1  0  0  0  0
 36 37  1  0  0  0  0
 38 36  1  0  0  0  0
M  END
>  <minimizedAffinity>
-5.84340858

>  <minimizedRMSD>
2.18250585

$$$$
