
 OpenBabel03232521003D

 42 45  0  0  1  0  0  0  0  0999 V2000
   45.4520   32.8450   47.5060 C   0  0  0  0  0  0  0  0  0  0  0  0
   45.9500   32.6020   46.2630 C   0  0  0  0  0  0  0  0  0  0  0  0
   46.1580   31.2500   45.9760 C   0  0  0  0  0  0  0  0  0  0  0  0
   45.8920   30.2430   46.8470 N   0  0  0  0  0  0  0  0  0  0  0  0
   45.3850   30.5440   48.1030 C   0  0  0  0  0  0  0  0  0  0  0  0
   45.1810   31.8230   48.3970 N   0  0  0  0  0  0  0  0  0  0  0  0
   45.1060   29.5190   49.0370 N   0  0  0  0  0  0  0  0  0  0  0  0
   45.2580   33.8540   47.8340 H   0  0  0  0  0  0  0  0  0  0  0  0
   44.3500   29.6020   49.7330 H   0  0  0  0  0  0  0  0  0  0  0  0
   45.7090   28.6450   49.0020 H   0  0  0  0  0  0  0  0  0  0  0  0
   46.1900   33.5720   45.2510 C   0  0  2  0  0  0  0  0  0  0  0  0
   44.9700   34.6500   45.4980 C   0  0  0  0  0  0  0  0  0  0  0  0
   44.7320   35.5950   44.4420 C   0  0  0  0  0  0  0  0  0  0  0  0
   45.5340   35.5490   43.2180 C   0  0  1  0  0  0  0  0  0  0  0  0
   46.6010   34.5540   43.1530 C   0  0  0  0  0  0  0  0  0  0  0  0
   46.1600   33.3070   43.8820 C   0  0  0  0  0  0  0  0  0  0  0  0
   47.0050   34.2790   45.5890 H   0  0  0  0  0  0  0  0  0  0  0  0
   44.2920   34.7820   46.3320 H   0  0  0  0  0  0  0  0  0  0  0  0
   43.9560   36.3070   44.5630 H   0  0  0  0  0  0  0  0  0  0  0  0
   45.9560   36.5670   43.0310 H   0  0  0  0  0  0  0  0  0  0  0  0
   47.5840   34.8890   43.5580 H   0  0  0  0  0  0  0  0  0  0  0  0
   46.8200   34.3520   42.0630 H   0  0  0  0  0  0  0  0  0  0  0  0
   47.0200   32.6700   43.5430 H   0  0  0  0  0  0  0  0  0  0  0  0
   45.2100   32.9730   43.4140 H   0  0  0  0  0  0  0  0  0  0  0  0
   44.5250   35.2930   42.0590 C   0  0  0  0  0  0  0  0  0  0  0  0
   43.4550   34.5050   42.4480 F   0  0  0  0  0  0  0  0  0  0  0  0
   43.9960   36.5360   41.7230 F   0  0  0  0  0  0  0  0  0  0  0  0
   45.2000   34.8260   40.9480 F   0  0  0  0  0  0  0  0  0  0  0  0
   46.7270   30.5650   44.8310 C   0  0  0  0  0  0  0  0  0  0  0  0
   46.3160   29.8850   43.7300 C   0  0  0  0  0  0  0  0  0  0  0  0
   47.4500   29.4390   43.0390 C   0  0  0  0  0  0  0  0  0  0  0  0
   48.4900   29.8690   43.7520 N   0  0  0  0  0  0  0  0  0  0  0  0
   48.0900   30.5340   44.8110 N   0  0  0  0  0  0  0  0  0  0  0  0
   45.2450   29.8040   43.5750 H   0  0  0  0  0  0  0  0  0  0  0  0
   47.3370   28.8710   42.1270 H   0  0  0  0  0  0  0  0  0  0  0  0
   51.9640   28.6000   41.1250 H   0  0  0  0  0  0  0  0  0  0  0  0
   51.4480   28.9530   41.9690 N   0  0  0  0  0  0  0  0  0  0  0  0
   50.1360   29.1220   42.1090 N   0  0  0  0  0  0  0  0  0  0  0  0
   49.8510   29.6010   43.3510 C   0  0  0  0  0  0  0  0  0  0  0  0
   51.0480   29.7380   44.0220 C   0  0  0  0  0  3  0  0  0  0  0  0
   52.0210   29.3250   43.1300 C   0  0  0  0  0  0  0  0  0  0  0  0
   53.0570   29.3360   43.4160 H   0  0  0  0  0  0  0  0  0  0  0  0
  1  8  1  0  0  0  0
  1  6  1  0  0  0  0
  2  1  2  0  0  0  0
  3  2  1  0  0  0  0
  3  4  2  0  0  0  0
  4  5  1  0  0  0  0
  5  6  2  0  0  0  0
  5  7  1  0  0  0  0
  7  9  1  0  0  0  0
 10  7  1  0  0  0  0
 11 12  1  0  0  0  0
 11 17  1  1  0  0  0
 11  2  1  0  0  0  0
 12 18  1  0  0  0  0
 13 19  1  0  0  0  0
 13 12  2  0  0  0  0
 14 20  1  6  0  0  0
 14 13  1  0  0  0  0
 15 14  1  0  0  0  0
 15 21  1  0  0  0  0
 15 16  1  0  0  0  0
 16 11  1  0  0  0  0
 22 15  1  0  0  0  0
 23 16  1  0  0  0  0
 24 16  1  0  0  0  0
 25 26  1  0  0  0  0
 25 14  1  0  0  0  0
 27 25  1  0  0  0  0
 28 25  1  0  0  0  0
 29  3  1  0  0  0  0
 30 29  1  0  0  0  0
 31 30  2  0  0  0  0
 31 32  1  0  0  0  0
 32 33  1  0  0  0  0
 33 29  2  0  0  0  0
 34 30  1  0  0  0  0
 35 31  1  0  0  0  0
 36 37  1  0  0  0  0
 37 38  1  0  0  0  0
 37 41  1  0  0  0  0
 38 39  2  0  0  0  0
 39 32  1  0  0  0  0
 39 40  1  0  0  0  0
 41 42  1  0  0  0  0
 41 40  2  0  0  0  0
M  END
>  <minimizedAffinity>
-5.94682455

>  <minimizedRMSD>
0.105822518

$$$$
