
 OpenBabel03232520593D

 42 45  0  0  1  0  0  0  0  0999 V2000
   45.4750   32.8570   47.5230 C   0  0  0  0  0  0  0  0  0  0  0  0
   45.9470   32.6050   46.2720 C   0  0  0  0  0  0  0  0  0  0  0  0
   46.1240   31.2490   45.9810 C   0  0  0  0  0  0  0  0  0  0  0  0
   45.8520   30.2470   46.8560 N   0  0  0  0  0  0  0  0  0  0  0  0
   45.3730   30.5570   48.1200 C   0  0  0  0  0  0  0  0  0  0  0  0
   45.1980   31.8400   48.4180 N   0  0  0  0  0  0  0  0  0  0  0  0
   45.0890   29.5370   49.0580 N   0  0  0  0  0  0  0  0  0  0  0  0
   45.3060   33.8690   47.8550 H   0  0  0  0  0  0  0  0  0  0  0  0
   44.3460   29.6340   49.7660 H   0  0  0  0  0  0  0  0  0  0  0  0
   45.6740   28.6520   49.0120 H   0  0  0  0  0  0  0  0  0  0  0  0
   46.1890   33.5710   45.2560 C   0  0  2  0  0  0  0  0  0  0  0  0
   44.9690   34.6510   45.4970 C   0  0  0  0  0  0  0  0  0  0  0  0
   44.7330   35.5920   44.4370 C   0  0  0  0  0  0  0  0  0  0  0  0
   45.5380   35.5410   43.2150 C   0  0  1  0  0  0  0  0  0  0  0  0
   46.6050   34.5450   43.1560 C   0  0  0  0  0  0  0  0  0  0  0  0
   46.1610   33.3010   43.8890 C   0  0  0  0  0  0  0  0  0  0  0  0
   47.0040   34.2790   45.5940 H   0  0  0  0  0  0  0  0  0  0  0  0
   44.2900   34.7860   46.3300 H   0  0  0  0  0  0  0  0  0  0  0  0
   43.9580   36.3050   44.5550 H   0  0  0  0  0  0  0  0  0  0  0  0
   45.9610   36.5580   43.0250 H   0  0  0  0  0  0  0  0  0  0  0  0
   47.5870   34.8820   43.5610 H   0  0  0  0  0  0  0  0  0  0  0  0
   46.8250   34.3390   42.0670 H   0  0  0  0  0  0  0  0  0  0  0  0
   47.0220   32.6630   43.5540 H   0  0  0  0  0  0  0  0  0  0  0  0
   45.2120   32.9650   43.4200 H   0  0  0  0  0  0  0  0  0  0  0  0
   44.5300   35.2810   42.0560 C   0  0  0  0  0  0  0  0  0  0  0  0
   43.4660   34.4840   42.4430 F   0  0  0  0  0  0  0  0  0  0  0  0
   43.9930   36.5210   41.7220 F   0  0  0  0  0  0  0  0  0  0  0  0
   45.2090   34.8210   40.9430 F   0  0  0  0  0  0  0  0  0  0  0  0
   46.6610   30.5550   44.8260 C   0  0  0  0  0  0  0  0  0  0  0  0
   46.2180   29.9030   43.7200 C   0  0  0  0  0  0  0  0  0  0  0  0
   47.3300   29.4190   43.0190 C   0  0  0  0  0  0  0  0  0  0  0  0
   48.3890   29.8010   43.7310 N   0  0  0  0  0  0  0  0  0  0  0  0
   48.0210   30.4700   44.7990 N   0  0  0  0  0  0  0  0  0  0  0  0
   45.1440   29.8650   43.5690 H   0  0  0  0  0  0  0  0  0  0  0  0
   47.1910   28.8660   42.1020 H   0  0  0  0  0  0  0  0  0  0  0  0
   51.7670   28.0480   41.2630 H   0  0  0  0  0  0  0  0  0  0  0  0
   51.2840   28.5740   42.0320 N   0  0  0  0  0  0  0  0  0  0  0  0
   49.9750   28.7350   42.2090 N   0  0  0  0  0  0  0  0  0  0  0  0
   49.7370   29.4830   43.3210 C   0  0  0  0  0  0  0  0  0  0  0  0
   50.9610   29.8060   43.8680 C   0  0  0  0  0  3  0  0  0  0  0  0
   51.9010   29.2230   43.0380 C   0  0  0  0  0  0  0  0  0  0  0  0
   52.9510   29.3290   43.2490 H   0  0  0  0  0  0  0  0  0  0  0  0
  1  8  1  0  0  0  0
  1  6  1  0  0  0  0
  2  1  2  0  0  0  0
  3  2  1  0  0  0  0
  3  4  2  0  0  0  0
  4  5  1  0  0  0  0
  5  6  2  0  0  0  0
  5  7  1  0  0  0  0
  7  9  1  0  0  0  0
 10  7  1  0  0  0  0
 11 12  1  0  0  0  0
 11 17  1  1  0  0  0
 11  2  1  0  0  0  0
 12 18  1  0  0  0  0
 13 19  1  0  0  0  0
 13 12  2  0  0  0  0
 14 20  1  6  0  0  0
 14 13  1  0  0  0  0
 15 14  1  0  0  0  0
 15 21  1  0  0  0  0
 15 16  1  0  0  0  0
 16 11  1  0  0  0  0
 22 15  1  0  0  0  0
 23 16  1  0  0  0  0
 24 16  1  0  0  0  0
 25 26  1  0  0  0  0
 25 14  1  0  0  0  0
 27 25  1  0  0  0  0
 28 25  1  0  0  0  0
 29  3  1  0  0  0  0
 30 29  1  0  0  0  0
 31 30  2  0  0  0  0
 31 32  1  0  0  0  0
 32 33  1  0  0  0  0
 33 29  2  0  0  0  0
 34 30  1  0  0  0  0
 35 31  1  0  0  0  0
 36 37  1  0  0  0  0
 37 38  1  0  0  0  0
 37 41  1  0  0  0  0
 38 39  2  0  0  0  0
 39 32  1  0  0  0  0
 39 40  1  0  0  0  0
 41 42  1  0  0  0  0
 41 40  2  0  0  0  0
M  END
>  <minimizedAffinity>
-5.93403006

>  <minimizedRMSD>
0.172334254

$$$$
