
 OpenBabel03232521003D

 42 45  0  0  1  0  0  0  0  0999 V2000
   45.4010   32.8440   47.4950 C   0  0  0  0  0  0  0  0  0  0  0  0
   45.9430   32.6030   46.2710 C   0  0  0  0  0  0  0  0  0  0  0  0
   46.1970   31.2550   46.0040 C   0  0  0  0  0  0  0  0  0  0  0  0
   45.9320   30.2490   46.8770 N   0  0  0  0  0  0  0  0  0  0  0  0
   45.3790   30.5480   48.1140 C   0  0  0  0  0  0  0  0  0  0  0  0
   45.1310   31.8240   48.3880 N   0  0  0  0  0  0  0  0  0  0  0  0
   45.1000   29.5240   49.0490 N   0  0  0  0  0  0  0  0  0  0  0  0
   45.1690   33.8500   47.8060 H   0  0  0  0  0  0  0  0  0  0  0  0
   44.3210   29.5930   49.7220 H   0  0  0  0  0  0  0  0  0  0  0  0
   45.7280   28.6680   49.0420 H   0  0  0  0  0  0  0  0  0  0  0  0
   46.1870   33.5700   45.2560 C   0  0  2  0  0  0  0  0  0  0  0  0
   44.9700   34.6530   45.5000 C   0  0  0  0  0  0  0  0  0  0  0  0
   44.7360   35.5960   44.4420 C   0  0  0  0  0  0  0  0  0  0  0  0
   45.5390   35.5450   43.2180 C   0  0  1  0  0  0  0  0  0  0  0  0
   46.6020   34.5460   43.1560 C   0  0  0  0  0  0  0  0  0  0  0  0
   46.1550   33.3010   43.8880 C   0  0  0  0  0  0  0  0  0  0  0  0
   47.0040   34.2750   45.5930 H   0  0  0  0  0  0  0  0  0  0  0  0
   44.2930   34.7900   46.3340 H   0  0  0  0  0  0  0  0  0  0  0  0
   43.9630   36.3120   44.5620 H   0  0  0  0  0  0  0  0  0  0  0  0
   45.9650   36.5600   43.0290 H   0  0  0  0  0  0  0  0  0  0  0  0
   47.5860   34.8780   43.5600 H   0  0  0  0  0  0  0  0  0  0  0  0
   46.8200   34.3390   42.0660 H   0  0  0  0  0  0  0  0  0  0  0  0
   47.0140   32.6610   43.5510 H   0  0  0  0  0  0  0  0  0  0  0  0
   45.2050   32.9700   43.4200 H   0  0  0  0  0  0  0  0  0  0  0  0
   44.5280   35.2890   42.0600 C   0  0  0  0  0  0  0  0  0  0  0  0
   43.4600   34.4990   42.4480 F   0  0  0  0  0  0  0  0  0  0  0  0
   43.9980   36.5330   41.7260 F   0  0  0  0  0  0  0  0  0  0  0  0
   45.2030   34.8260   40.9470 F   0  0  0  0  0  0  0  0  0  0  0  0
   46.8190   30.5750   44.8830 C   0  0  0  0  0  0  0  0  0  0  0  0
   46.4610   29.9190   43.7510 C   0  0  0  0  0  0  0  0  0  0  0  0
   47.6240   29.4600   43.1200 C   0  0  0  0  0  0  0  0  0  0  0  0
   48.6290   29.8600   43.8980 N   0  0  0  0  0  0  0  0  0  0  0  0
   48.1800   30.5190   44.9420 N   0  0  0  0  0  0  0  0  0  0  0  0
   45.3990   29.8590   43.5320 H   0  0  0  0  0  0  0  0  0  0  0  0
   47.5550   28.9070   42.1950 H   0  0  0  0  0  0  0  0  0  0  0  0
   52.2910   28.9700   41.3760 H   0  0  0  0  0  0  0  0  0  0  0  0
   51.7060   29.1460   42.2290 N   0  0  0  0  0  0  0  0  0  0  0  0
   50.4010   29.4000   42.2820 N   0  0  0  0  0  0  0  0  0  0  0  0
   50.0050   29.5720   43.5730 C   0  0  0  0  0  0  0  0  0  0  0  0
   51.1220   29.4170   44.3680 C   0  0  0  0  0  3  0  0  0  0  0  0
   52.1620   29.1530   43.4950 C   0  0  0  0  0  0  0  0  0  0  0  0
   53.1560   28.9900   43.8730 H   0  0  0  0  0  0  0  0  0  0  0  0
  1  8  1  0  0  0  0
  1  6  1  0  0  0  0
  2  1  2  0  0  0  0
  3  2  1  0  0  0  0
  3  4  2  0  0  0  0
  4  5  1  0  0  0  0
  5  6  2  0  0  0  0
  5  7  1  0  0  0  0
  7  9  1  0  0  0  0
 10  7  1  0  0  0  0
 11 12  1  0  0  0  0
 11 17  1  1  0  0  0
 11  2  1  0  0  0  0
 12 18  1  0  0  0  0
 13 19  1  0  0  0  0
 13 12  2  0  0  0  0
 14 20  1  6  0  0  0
 14 13  1  0  0  0  0
 15 14  1  0  0  0  0
 15 21  1  0  0  0  0
 15 16  1  0  0  0  0
 16 11  1  0  0  0  0
 22 15  1  0  0  0  0
 23 16  1  0  0  0  0
 24 16  1  0  0  0  0
 25 26  1  0  0  0  0
 25 14  1  0  0  0  0
 27 25  1  0  0  0  0
 28 25  1  0  0  0  0
 29 33  2  0  0  0  0
 29  3  1  0  0  0  0
 30 29  1  0  0  0  0
 31 30  2  0  0  0  0
 31 32  1  0  0  0  0
 32 33  1  0  0  0  0
 34 30  1  0  0  0  0
 35 31  1  0  0  0  0
 36 37  1  0  0  0  0
 37 38  1  0  0  0  0
 37 41  1  0  0  0  0
 38 39  2  0  0  0  0
 39 32  1  0  0  0  0
 39 40  1  0  0  0  0
 41 42  1  0  0  0  0
 41 40  2  0  0  0  0
M  END
>  <minimizedAffinity>
-5.95870209

>  <minimizedRMSD>
0.0880703107

$$$$
