
 OpenBabel03232521003D

 42 45  0  0  1  0  0  0  0  0999 V2000
   45.5190   32.9190   47.4460 C   0  0  0  0  0  0  0  0  0  0  0  0
   45.9630   32.6540   46.1880 C   0  0  0  0  0  0  0  0  0  0  0  0
   46.1330   31.2950   45.9070 C   0  0  0  0  0  0  0  0  0  0  0  0
   45.8810   30.3030   46.7980 N   0  0  0  0  0  0  0  0  0  0  0  0
   45.4300   30.6250   48.0690 C   0  0  0  0  0  0  0  0  0  0  0  0
   45.2620   31.9110   48.3580 N   0  0  0  0  0  0  0  0  0  0  0  0
   45.1670   29.6150   49.0240 N   0  0  0  0  0  0  0  0  0  0  0  0
   45.3570   33.9350   47.7710 H   0  0  0  0  0  0  0  0  0  0  0  0
   44.4400   29.7200   49.7480 H   0  0  0  0  0  0  0  0  0  0  0  0
   45.7510   28.7290   48.9750 H   0  0  0  0  0  0  0  0  0  0  0  0
   46.1820   33.6090   45.1570 C   0  0  2  0  0  0  0  0  0  0  0  0
   44.9700   34.6940   45.4160 C   0  0  0  0  0  0  0  0  0  0  0  0
   44.7110   35.6250   44.3530 C   0  0  0  0  0  0  0  0  0  0  0  0
   45.4850   35.5600   43.1120 C   0  0  1  0  0  0  0  0  0  0  0  0
   46.5480   34.5620   43.0370 C   0  0  0  0  0  0  0  0  0  0  0  0
   46.1200   33.3250   43.7930 C   0  0  0  0  0  0  0  0  0  0  0  0
   47.0060   34.3190   45.4670 H   0  0  0  0  0  0  0  0  0  0  0  0
   44.3120   34.8390   46.2640 H   0  0  0  0  0  0  0  0  0  0  0  0
   43.9400   36.3410   44.4830 H   0  0  0  0  0  0  0  0  0  0  0  0
   45.9060   36.5740   42.9010 H   0  0  0  0  0  0  0  0  0  0  0  0
   47.5410   34.8990   43.4150 H   0  0  0  0  0  0  0  0  0  0  0  0
   46.7410   34.3430   41.9450 H   0  0  0  0  0  0  0  0  0  0  0  0
   46.9710   32.6820   43.4440 H   0  0  0  0  0  0  0  0  0  0  0  0
   45.1590   32.9870   43.3510 H   0  0  0  0  0  0  0  0  0  0  0  0
   44.4490   35.2910   41.9810 C   0  0  0  0  0  0  0  0  0  0  0  0
   43.4000   34.4890   42.3970 F   0  0  0  0  0  0  0  0  0  0  0  0
   43.8960   36.5270   41.6580 F   0  0  0  0  0  0  0  0  0  0  0  0
   45.1010   34.8330   40.8520 F   0  0  0  0  0  0  0  0  0  0  0  0
   46.6440   30.5880   44.7480 C   0  0  0  0  0  0  0  0  0  0  0  0
   46.1800   29.8580   43.7010 C   0  0  0  0  0  0  0  0  0  0  0  0
   47.2770   29.4220   42.9470 C   0  0  0  0  0  0  0  0  0  0  0  0
   48.3490   29.9080   43.5710 N   0  0  0  0  0  0  0  0  0  0  0  0
   48.0030   30.5980   44.6330 N   0  0  0  0  0  0  0  0  0  0  0  0
   45.1040   29.7390   43.6240 H   0  0  0  0  0  0  0  0  0  0  0  0
   47.1210   28.8190   42.0650 H   0  0  0  0  0  0  0  0  0  0  0  0
   52.7400   30.6460   42.6990 H   0  0  0  0  0  0  0  0  0  0  0  0
   51.8130   30.1550   42.7250 N   0  0  0  0  0  0  0  0  0  0  0  0
   50.6720   30.5940   43.2500 N   0  0  0  0  0  0  0  0  0  0  0  0
   49.6870   29.6680   43.0850 C   0  0  0  0  0  0  0  0  0  0  0  0
   50.2430   28.5930   42.4230 C   0  0  0  0  0  3  0  0  0  0  0  0
   51.5680   28.9320   42.2150 C   0  0  0  0  0  0  0  0  0  0  0  0
   52.2270   28.2500   41.7090 H   0  0  0  0  0  0  0  0  0  0  0  0
  1  8  1  0  0  0  0
  1  6  1  0  0  0  0
  2  1  2  0  0  0  0
  3  2  1  0  0  0  0
  3  4  2  0  0  0  0
  4  5  1  0  0  0  0
  5  6  2  0  0  0  0
  5  7  1  0  0  0  0
  7  9  1  0  0  0  0
 10  7  1  0  0  0  0
 11 12  1  0  0  0  0
 11 17  1  1  0  0  0
 11  2  1  0  0  0  0
 12 18  1  0  0  0  0
 13 19  1  0  0  0  0
 13 12  2  0  0  0  0
 14 20  1  6  0  0  0
 14 13  1  0  0  0  0
 15 14  1  0  0  0  0
 15 21  1  0  0  0  0
 15 16  1  0  0  0  0
 16 11  1  0  0  0  0
 22 15  1  0  0  0  0
 23 16  1  0  0  0  0
 24 16  1  0  0  0  0
 25 26  1  0  0  0  0
 25 14  1  0  0  0  0
 27 25  1  0  0  0  0
 28 25  1  0  0  0  0
 29  3  1  0  0  0  0
 30 29  1  0  0  0  0
 31 32  1  0  0  0  0
 31 30  2  0  0  0  0
 32 33  1  0  0  0  0
 33 29  2  0  0  0  0
 34 30  1  0  0  0  0
 35 31  1  0  0  0  0
 36 37  1  0  0  0  0
 37 38  1  0  0  0  0
 39 38  2  0  0  0  0
 39 32  1  0  0  0  0
 40 39  1  0  0  0  0
 41 40  2  0  0  0  0
 41 37  1  0  0  0  0
 42 41  1  0  0  0  0
M  END
>  <minimizedAffinity>
-5.92495918

>  <minimizedRMSD>
0.297627449

$$$$
