
 OpenBabel03232516263D

 38 41  0  0  0  0  0  0  0  0999 V2000
   47.0080   34.5890   41.3120 C   0  0  0  0  0  0  0  0  0  0  0  0
   46.8670   34.8580   40.2610 H   0  0  0  0  0  0  0  0  0  0  0  0
   47.1310   35.5600   41.8700 H   0  0  0  0  0  0  0  0  0  0  0  0
   48.2050   33.8020   41.6000 C   0  0  0  0  0  0  0  0  0  0  0  0
   48.8540   33.4750   42.7240 N   0  0  0  0  0  0  0  0  0  0  0  0
   49.9060   32.7330   42.4660 O   0  0  0  0  0  0  0  0  0  0  0  0
   49.9790   32.5520   41.1650 C   0  0  0  0  0  0  0  0  0  0  0  0
   48.9410   33.2040   40.6290 N   0  0  0  0  0  0  0  0  0  0  0  0
   50.9450   31.8180   40.4040 N   0  0  0  0  0  0  0  0  0  0  0  0
   52.0810   31.2590   40.9040 C   0  0  0  0  0  0  0  0  0  0  0  0
   52.7390   30.6490   39.8860 N   0  0  0  0  0  0  0  0  0  0  0  0
   52.0220   30.8260   38.7610 C   0  0  0  0  0  0  0  0  0  0  0  0
   52.1560   30.4580   37.4400 C   0  0  0  0  0  0  0  0  0  0  0  0
   51.2370   30.7980   36.5220 N   0  0  0  0  0  0  0  0  0  0  0  0
   50.1400   31.5110   36.8320 C   0  0  0  0  0  0  0  0  0  0  0  0
   50.0090   31.8700   38.1180 N   0  0  0  0  0  0  0  0  0  0  0  0
   50.8940   31.5570   39.0710 C   0  0  0  0  0  0  0  0  0  0  0  0
   53.2890   29.7030   37.0330 N   0  0  0  0  0  0  0  0  0  0  0  0
   54.0450   29.4390   37.7010 H   0  0  0  0  0  0  0  0  0  0  0  0
   53.4040   29.3860   36.0480 H   0  0  0  0  0  0  0  0  0  0  0  0
   45.7180   33.9800   41.7860 C   0  0  0  0  0  0  0  0  0  0  0  0
   45.3940   33.8550   45.4440 C   0  0  0  0  0  0  0  0  0  0  0  0
   44.7670   35.0750   45.7540 C   0  0  0  0  0  0  0  0  0  0  0  0
   44.4500   35.9530   44.7070 C   0  0  0  0  0  0  0  0  0  0  0  0
   44.7780   35.5540   43.4280 N   0  0  0  0  0  0  0  0  0  0  0  0
   45.3810   34.3670   43.1860 C   0  0  0  0  0  0  0  0  0  0  0  0
   45.6850   33.5330   44.1760 N   0  0  0  0  0  0  0  0  0  0  0  0
   45.6150   33.2170   46.2960 H   0  0  0  0  0  0  0  0  0  0  0  0
   44.5080   35.3930   46.7520 H   0  0  0  0  0  0  0  0  0  0  0  0
   43.9680   36.9140   44.8370 H   0  0  0  0  0  0  0  0  0  0  0  0
   44.6170   34.4580   40.8730 C   0  0  0  0  0  0  0  0  0  0  0  0
   44.8360   34.1750   39.8340 H   0  0  0  0  0  0  0  0  0  0  0  0
   43.6570   33.9810   41.2170 H   0  0  0  0  0  0  0  0  0  0  0  0
   44.4810   35.5360   41.0290 H   0  0  0  0  0  0  0  0  0  0  0  0
   45.7390   32.4690   41.6740 C   0  0  0  0  0  0  0  0  0  0  0  0
   45.9570   32.0060   42.6620 H   0  0  0  0  0  0  0  0  0  0  0  0
   44.7480   32.0820   41.3410 H   0  0  0  0  0  0  0  0  0  0  0  0
   46.4860   32.1330   40.9230 H   0  0  0  0  0  0  0  0  0  0  0  0
  1  4  1  0  0  0  0
  1 21  1  0  0  0  0
  1  3  1  0  0  0  0
  2  1  1  0  0  0  0
  4  5  2  0  0  0  0
  6  5  1  0  0  0  0
  7  6  1  0  0  0  0
  8  7  2  0  0  0  0
  8  4  1  0  0  0  0
  9 10  1  0  0  0  0
  9  7  1  0  0  0  0
 11 10  2  0  0  0  0
 12 17  1  0  0  0  0
 12 11  1  0  0  0  0
 13 12  2  0  0  0  0
 14 15  2  0  0  0  0
 14 13  1  0  0  0  0
 15 16  1  0  0  0  0
 16 17  2  0  0  0  0
 17  9  1  0  0  0  0
 18 13  1  0  0  0  0
 18 19  1  0  0  0  0
 20 18  1  0  0  0  0
 21 26  1  0  0  0  0
 22 23  1  0  0  0  0
 22 28  1  0  0  0  0
 23 29  1  0  0  0  0
 24 30  1  0  0  0  0
 24 23  2  0  0  0  0
 25 24  1  0  0  0  0
 26 25  2  0  0  0  0
 26 27  1  0  0  0  0
 27 22  2  0  0  0  0
 31 34  1  0  0  0  0
 31 33  1  0  0  0  0
 31 21  1  0  0  0  0
 32 31  1  0  0  0  0
 35 21  1  0  0  0  0
 35 36  1  0  0  0  0
 37 35  1  0  0  0  0
 38 35  1  0  0  0  0
M  END
>  <minimizedAffinity>
-5.14661026

>  <minimizedRMSD>
3.47989392

$$$$
