
 OpenBabel03232518123D

 41 45  0  0  0  0  0  0  0  0999 V2000
   45.5890   33.3370   45.6870 C   0  0  0  0  0  0  0  0  0  0  0  0
   45.7570   33.0720   47.0550 C   0  0  0  0  0  0  0  0  0  0  0  0
   45.9870   31.7160   47.1310 C   0  0  0  0  0  0  0  0  0  0  0  0
   45.9610   31.1880   45.8810 N   0  0  0  0  0  0  0  0  0  0  0  0
   45.7250   32.1540   45.0270 N   0  0  0  0  0  0  0  0  0  0  0  0
   45.6780   33.9070   47.7030 H   0  0  0  0  0  0  0  0  0  0  0  0
   46.1460   31.2960   48.1190 H   0  0  0  0  0  0  0  0  0  0  0  0
   46.1700   29.7980   45.6540 C   0  0  0  0  0  0  0  0  0  0  0  0
   46.2660   29.2070   44.3020 C   0  0  0  0  0  0  0  0  0  0  0  0
   46.5320   27.4070   44.7630 S   0  0  0  0  0  0  0  0  0  0  0  0
   46.4590   27.8160   46.6100 C   0  0  0  0  0  0  0  0  0  0  0  0
   46.2940   28.9290   46.6480 N   0  0  0  0  0  0  0  0  0  0  0  0
   46.1840   29.7990   43.4560 H   0  0  0  0  0  0  0  0  0  0  0  0
   46.6190   26.7060   47.4920 N   0  0  0  0  0  0  0  0  0  0  0  0
   47.7040   25.9200   47.3760 C   0  0  0  0  0  0  0  0  0  0  0  0
   47.5980   24.9530   48.3330 N   0  0  0  0  0  0  0  0  0  0  0  0
   46.4680   25.1480   49.0190 C   0  0  0  0  0  0  0  0  0  0  0  0
   45.7880   24.5510   50.0790 C   0  0  0  0  0  0  0  0  0  0  0  0
   44.6200   25.0610   50.5100 N   0  0  0  0  0  0  0  0  0  0  0  0
   44.0420   26.1480   49.9670 C   0  0  0  0  0  0  0  0  0  0  0  0
   44.6790   26.7440   48.9400 N   0  0  0  0  0  0  0  0  0  0  0  0
   45.8310   26.2690   48.4910 C   0  0  0  0  0  0  0  0  0  0  0  0
   46.4160   23.4030   50.6380 N   0  0  0  0  0  0  0  0  0  0  0  0
   47.2000   23.7900   51.2440 H   0  0  0  0  0  0  0  0  0  0  0  0
   45.8100   22.6820   50.1920 H   0  0  0  0  0  0  0  0  0  0  0  0
   45.2640   34.7620   44.6750 S   0  0  0  0  0  0  0  0  0  0  0  0
   47.0770   34.5800   41.0820 C   0  0  0  0  0  0  0  0  0  0  0  0
   46.8790   34.8070   42.4580 C   0  0  0  0  0  0  0  0  0  0  0  0
   45.6320   34.5210   42.9810 C   0  0  0  0  0  0  0  0  0  0  0  0
   44.6670   34.0400   42.1490 N   0  0  0  0  0  0  0  0  0  0  0  0
   44.9080   33.8400   40.8340 C   0  0  0  0  0  0  0  0  0  0  0  0
   46.0950   34.1090   40.3210 N   0  0  0  0  0  0  0  0  0  0  0  0
   47.6020   35.1830   43.1580 H   0  0  0  0  0  0  0  0  0  0  0  0
   44.0730   33.4560   40.2680 H   0  0  0  0  0  0  0  0  0  0  0  0
   48.4540   34.9230   40.6400 C   0  0  0  0  0  0  0  0  0  0  0  0
   49.0880   34.0260   40.5020 H   0  0  0  0  0  0  0  0  0  0  0  0
   48.3460   35.4160   39.6440 H   0  0  0  0  0  0  0  0  0  0  0  0
   49.0890   35.9160   41.5810 C   0  0  0  0  0  0  0  0  0  0  0  0
   49.7490   36.6330   41.0560 H   0  0  0  0  0  0  0  0  0  0  0  0
   48.2760   36.5070   42.0590 H   0  0  0  0  0  0  0  0  0  0  0  0
   49.6440   35.3570   42.3480 H   0  0  0  0  0  0  0  0  0  0  0  0
  1  2  1  0  0  0  0
  2  3  2  0  0  0  0
  2  6  1  0  0  0  0
  3  7  1  0  0  0  0
  4  3  1  0  0  0  0
  5  1  2  0  0  0  0
  5  4  1  0  0  0  0
  8  4  1  0  0  0  0
  8 12  1  0  0  0  0
  9 10  1  0  0  0  0
  9  8  2  0  0  0  0
 10 11  1  0  0  0  0
 11 12  2  0  0  0  0
 11 14  1  0  0  0  0
 13  9  1  0  0  0  0
 14 22  1  0  0  0  0
 15 14  1  0  0  0  0
 15 16  2  0  0  0  0
 16 17  1  0  0  0  0
 17 18  1  0  0  0  0
 18 19  2  0  0  0  0
 18 23  1  0  0  0  0
 20 19  1  0  0  0  0
 21 20  2  0  0  0  0
 22 21  1  0  0  0  0
 22 17  2  0  0  0  0
 23 24  1  0  0  0  0
 25 23  1  0  0  0  0
 26  1  1  0  0  0  0
 27 28  1  0  0  0  0
 28 29  2  0  0  0  0
 28 33  1  0  0  0  0
 29 26  1  0  0  0  0
 30 29  1  0  0  0  0
 31 30  2  0  0  0  0
 32 31  1  0  0  0  0
 32 27  2  0  0  0  0
 34 31  1  0  0  0  0
 35 27  1  0  0  0  0
 35 38  1  0  0  0  0
 36 35  1  0  0  0  0
 37 35  1  0  0  0  0
 38 40  1  0  0  0  0
 38 41  1  0  0  0  0
 39 38  1  0  0  0  0
M  END
>  <minimizedAffinity>
-5.76537132

>  <minimizedRMSD>
3.21011209

$$$$
