
 OpenBabel03232521003D

 42 45  0  0  1  0  0  0  0  0999 V2000
   45.3590   32.9040   47.4270 C   0  0  0  0  0  0  0  0  0  0  0  0
   45.9290   32.6610   46.2160 C   0  0  0  0  0  0  0  0  0  0  0  0
   46.2350   31.3190   45.9770 C   0  0  0  0  0  0  0  0  0  0  0  0
   45.9910   30.3190   46.8630 N   0  0  0  0  0  0  0  0  0  0  0  0
   45.4070   30.6180   48.0850 C   0  0  0  0  0  0  0  0  0  0  0  0
   45.1090   31.8890   48.3330 N   0  0  0  0  0  0  0  0  0  0  0  0
   45.1480   29.6010   49.0330 N   0  0  0  0  0  0  0  0  0  0  0  0
   45.0860   33.9060   47.7170 H   0  0  0  0  0  0  0  0  0  0  0  0
   44.3550   29.6530   49.6910 H   0  0  0  0  0  0  0  0  0  0  0  0
   45.8050   28.7670   49.0500 H   0  0  0  0  0  0  0  0  0  0  0  0
   46.1570   33.6200   45.1890 C   0  0  2  0  0  0  0  0  0  0  0  0
   44.9510   34.7110   45.4500 C   0  0  0  0  0  0  0  0  0  0  0  0
   44.6990   35.6470   44.3900 C   0  0  0  0  0  0  0  0  0  0  0  0
   45.4760   35.5820   43.1500 C   0  0  1  0  0  0  0  0  0  0  0  0
   46.5330   34.5770   43.0740 C   0  0  0  0  0  0  0  0  0  0  0  0
   46.0950   33.3410   43.8240 C   0  0  0  0  0  0  0  0  0  0  0  0
   46.9840   34.3230   45.5040 H   0  0  0  0  0  0  0  0  0  0  0  0
   44.2910   34.8570   46.2970 H   0  0  0  0  0  0  0  0  0  0  0  0
   43.9320   36.3670   44.5210 H   0  0  0  0  0  0  0  0  0  0  0  0
   45.9020   36.5940   42.9440 H   0  0  0  0  0  0  0  0  0  0  0  0
   47.5260   34.9080   43.4550 H   0  0  0  0  0  0  0  0  0  0  0  0
   46.7270   34.3620   41.9820 H   0  0  0  0  0  0  0  0  0  0  0  0
   46.9430   32.6940   43.4740 H   0  0  0  0  0  0  0  0  0  0  0  0
   45.1340   33.0110   43.3790 H   0  0  0  0  0  0  0  0  0  0  0  0
   44.4400   35.3230   42.0160 C   0  0  0  0  0  0  0  0  0  0  0  0
   43.3750   34.5440   42.4330 F   0  0  0  0  0  0  0  0  0  0  0  0
   43.9110   36.5670   41.6810 F   0  0  0  0  0  0  0  0  0  0  0  0
   45.0890   34.8450   40.8930 F   0  0  0  0  0  0  0  0  0  0  0  0
   46.9000   30.6430   44.8790 C   0  0  0  0  0  0  0  0  0  0  0  0
   46.5980   29.8170   43.8450 C   0  0  0  0  0  0  0  0  0  0  0  0
   47.7840   29.5050   43.1680 C   0  0  0  0  0  0  0  0  0  0  0  0
   48.7450   30.1560   43.8230 N   0  0  0  0  0  0  0  0  0  0  0  0
   48.2500   30.8330   44.8330 N   0  0  0  0  0  0  0  0  0  0  0  0
   45.5530   29.5500   43.7190 H   0  0  0  0  0  0  0  0  0  0  0  0
   47.7600   28.8530   42.3080 H   0  0  0  0  0  0  0  0  0  0  0  0
   52.6900   31.3970   41.9580 H   0  0  0  0  0  0  0  0  0  0  0  0
   51.9880   30.8070   42.4700 N   0  0  0  0  0  0  0  0  0  0  0  0
   50.7170   31.1000   42.7330 N   0  0  0  0  0  0  0  0  0  0  0  0
   50.1280   30.0800   43.4170 C   0  0  0  0  0  0  0  0  0  0  0  0
   51.0820   29.1000   43.5890 C   0  0  0  0  0  3  0  0  0  0  0  0
   52.2270   29.5870   42.9860 C   0  0  0  0  0  0  0  0  0  0  0  0
   53.1280   29.0000   42.9820 H   0  0  0  0  0  0  0  0  0  0  0  0
  1  8  1  0  0  0  0
  1  6  1  0  0  0  0
  2  1  2  0  0  0  0
  3  2  1  0  0  0  0
  3  4  2  0  0  0  0
  4  5  1  0  0  0  0
  5  6  2  0  0  0  0
  5  7  1  0  0  0  0
  7 10  1  0  0  0  0
  7  9  1  0  0  0  0
 11 12  1  0  0  0  0
 11 17  1  1  0  0  0
 11  2  1  0  0  0  0
 12 18  1  0  0  0  0
 13 19  1  0  0  0  0
 13 12  2  0  0  0  0
 14 20  1  6  0  0  0
 14 13  1  0  0  0  0
 15 14  1  0  0  0  0
 15 21  1  0  0  0  0
 15 16  1  0  0  0  0
 16 11  1  0  0  0  0
 22 15  1  0  0  0  0
 23 16  1  0  0  0  0
 24 16  1  0  0  0  0
 25 26  1  0  0  0  0
 25 14  1  0  0  0  0
 27 25  1  0  0  0  0
 28 25  1  0  0  0  0
 29  3  1  0  0  0  0
 30 29  1  0  0  0  0
 31 32  1  0  0  0  0
 31 30  2  0  0  0  0
 32 33  1  0  0  0  0
 33 29  2  0  0  0  0
 34 30  1  0  0  0  0
 35 31  1  0  0  0  0
 36 37  1  0  0  0  0
 37 38  1  0  0  0  0
 37 41  1  0  0  0  0
 38 39  2  0  0  0  0
 39 40  1  0  0  0  0
 39 32  1  0  0  0  0
 41 40  2  0  0  0  0
 42 41  1  0  0  0  0
M  END
>  <minimizedAffinity>
-6.17142344

>  <minimizedRMSD>
0.330989778

$$$$
