
 OpenBabel03232520323D

 49 54  0  0  1  0  0  0  0  0999 V2000
   49.2570   35.2790   42.0530 C   0  0  0  0  0  0  0  0  0  0  0  0
   48.6740   35.7020   42.9020 H   0  0  0  0  0  0  0  0  0  0  0  0
   49.7460   36.1460   41.5570 H   0  0  0  0  0  0  0  0  0  0  0  0
   46.9630   34.4210   41.3890 C   0  0  0  0  0  0  0  0  0  0  0  0
   48.2800   34.7130   41.0750 C   0  0  0  0  0  0  0  0  0  0  0  0
   48.5360   34.4220   39.8080 N   0  0  0  0  0  0  0  0  0  0  0  0
   47.3950   33.9400   39.2860 C   0  0  0  0  0  0  0  0  0  0  0  0
   47.1140   33.4870   37.9950 C   0  0  0  0  0  0  0  0  0  0  0  0
   45.8470   33.0380   37.7180 C   0  0  0  0  0  0  0  0  0  0  0  0
   44.8190   33.0010   38.6260 C   0  0  0  0  0  0  0  0  0  0  0  0
   45.1490   33.4590   39.8800 C   0  0  0  0  0  0  0  0  0  0  0  0
   46.3870   33.9220   40.2410 C   0  0  0  0  0  0  0  0  0  0  0  0
   49.4300   34.5200   39.2440 H   0  0  0  0  0  0  0  0  0  0  0  0
   47.8730   33.4880   37.2370 H   0  0  0  0  0  0  0  0  0  0  0  0
   45.6710   32.6940   36.7000 H   0  0  0  0  0  0  0  0  0  0  0  0
   43.8170   32.6440   38.3970 H   0  0  0  0  0  0  0  0  0  0  0  0
   44.4210   33.4780   40.6840 H   0  0  0  0  0  0  0  0  0  0  0  0
   44.8230   35.8700   44.0740 C   0  0  0  0  0  0  0  0  0  0  0  0
   45.4700   35.7140   42.8310 C   0  0  0  0  0  0  0  0  0  0  0  0
   46.2840   34.5940   42.6770 C   0  0  0  0  0  0  0  0  0  0  0  0
   46.4320   33.6970   43.7070 N   0  0  0  0  0  0  0  0  0  0  0  0
   45.7800   33.9100   44.8740 C   0  0  0  0  0  0  0  0  0  0  0  0
   44.9800   34.9790   45.0720 N   0  0  0  0  0  0  0  0  0  0  0  0
   44.1870   36.7220   44.2280 H   0  0  0  0  0  0  0  0  0  0  0  0
   45.2980   36.4590   42.0870 H   0  0  0  0  0  0  0  0  0  0  0  0
   45.9940   33.1160   45.5930 H   0  0  0  0  0  0  0  0  0  0  0  0
   50.2060   34.2520   42.5430 C   0  0  0  0  0  0  0  0  0  0  0  0
   51.2460   34.6410   42.3550 H   0  0  0  0  0  0  0  0  0  0  0  0
   50.1740   34.1400   43.6580 H   0  0  0  0  0  0  0  0  0  0  0  0
   50.1160   32.9250   41.8500 C   0  0  1  0  0  0  0  0  0  0  0  0
   51.2690   32.1920   41.3140 C   0  0  0  0  0  0  0  0  0  0  0  0
   50.7340   31.7600   42.6370 C   0  0  2  0  0  0  0  0  0  0  0  0
   49.1320   32.6570   41.4200 H   0  0  0  0  0  0  0  0  0  0  0  0
   51.1230   31.5290   40.4460 H   0  0  0  0  0  0  0  0  0  0  0  0
   52.2450   32.7170   41.2750 H   0  0  0  0  0  0  0  0  0  0  0  0
   51.3960   31.9960   43.5000 H   0  0  0  0  0  0  0  0  0  0  0  0
   50.0990   30.5470   42.6750 O   0  0  0  0  0  0  0  0  0  0  0  0
   50.1140   29.8380   43.8840 C   0  0  0  0  0  0  0  0  0  0  0  0
   51.2170   29.1970   44.2880 N   0  0  0  0  0  0  0  0  0  0  0  0
   51.2930   28.4890   45.4530 C   0  0  0  0  0  0  0  0  0  0  0  0
   50.2010   28.4360   46.2380 N   0  0  0  0  0  0  0  0  0  0  0  0
   49.0710   29.0640   45.8720 C   0  0  0  0  0  0  0  0  0  0  0  0
   47.9630   28.9810   46.7160 C   0  0  0  0  0  0  0  0  0  0  0  0
   46.7790   29.6090   46.3840 C   0  0  0  0  0  0  0  0  0  0  0  0
   45.9150   29.5570   47.0220 H   0  0  0  0  0  0  0  0  0  0  0  0
   46.7740   30.2980   45.2060 C   0  0  0  0  0  0  0  0  0  0  0  0
   45.8480   30.7970   44.9340 H   0  0  0  0  0  0  0  0  0  0  0  0
   47.8270   30.4300   44.3130 C   0  0  0  0  0  0  0  0  0  0  0  0
   48.9880   29.7820   44.6930 C   0  0  0  0  0  0  0  0  0  0  0  0
  1 27  1  0  0  0  0
  1  2  1  0  0  0  0
  3  1  1  0  0  0  0
  4 20  1  0  0  0  0
  5  4  2  0  0  0  0
  5  1  1  0  0  0  0
  6  5  1  0  0  0  0
  7  6  1  0  0  0  0
  7 12  1  0  0  0  0
  8  7  2  0  0  0  0
  9  8  1  0  0  0  0
  9 10  2  0  0  0  0
 10 11  1  0  0  0  0
 11 12  2  0  0  0  0
 11 17  1  0  0  0  0
 12  4  1  0  0  0  0
 13  6  1  0  0  0  0
 14  8  1  0  0  0  0
 15  9  1  0  0  0  0
 16 10  1  0  0  0  0
 18 24  1  0  0  0  0
 18 23  1  0  0  0  0
 19 18  2  0  0  0  0
 20 19  1  0  0  0  0
 20 21  2  0  0  0  0
 21 22  1  0  0  0  0
 22 23  2  0  0  0  0
 22 26  1  0  0  0  0
 25 19  1  0  0  0  0
 27 29  1  0  0  0  0
 28 27  1  0  0  0  0
 30 33  1  6  0  0  0
 30 27  1  0  0  0  0
 30 32  1  0  0  0  0
 31 30  1  0  0  0  0
 31 32  1  0  0  0  0
 32 37  1  0  0  0  0
 32 36  1  1  0  0  0
 34 31  1  0  0  0  0
 35 31  1  0  0  0  0
 37 38  1  0  0  0  0
 38 39  2  0  0  0  0
 38 49  1  0  0  0  0
 39 40  1  0  0  0  0
 40 41  2  0  0  0  0
 42 41  1  0  0  0  0
 42 43  1  0  0  0  0
 44 43  2  0  0  0  0
 44 45  1  0  0  0  0
 46 44  1  0  0  0  0
 47 46  1  0  0  0  0
 48 49  1  0  0  0  0
 48 46  2  0  0  0  0
 49 42  2  0  0  0  0
M  END
>  <minimizedAffinity>
-6.08721018

>  <minimizedRMSD>
2.90470505

$$$$
