
 OpenBabel03232521003D

 42 45  0  0  1  0  0  0  0  0999 V2000
   45.3860   32.8420   47.4820 C   0  0  0  0  0  0  0  0  0  0  0  0
   45.9370   32.6040   46.2610 C   0  0  0  0  0  0  0  0  0  0  0  0
   46.2030   31.2580   45.9980 C   0  0  0  0  0  0  0  0  0  0  0  0
   45.9410   30.2520   46.8700 N   0  0  0  0  0  0  0  0  0  0  0  0
   45.3800   30.5470   48.1030 C   0  0  0  0  0  0  0  0  0  0  0  0
   45.1190   31.8210   48.3750 N   0  0  0  0  0  0  0  0  0  0  0  0
   45.1040   29.5220   49.0380 N   0  0  0  0  0  0  0  0  0  0  0  0
   45.1440   33.8470   47.7910 H   0  0  0  0  0  0  0  0  0  0  0  0
   44.3200   29.5850   49.7060 H   0  0  0  0  0  0  0  0  0  0  0  0
   45.7380   28.6700   49.0350 H   0  0  0  0  0  0  0  0  0  0  0  0
   46.1780   33.5720   45.2470 C   0  0  2  0  0  0  0  0  0  0  0  0
   44.9660   34.6590   45.4990 C   0  0  0  0  0  0  0  0  0  0  0  0
   44.7290   35.6040   44.4430 C   0  0  0  0  0  0  0  0  0  0  0  0
   45.5260   35.5520   43.2150 C   0  0  1  0  0  0  0  0  0  0  0  0
   46.5860   34.5500   43.1470 C   0  0  0  0  0  0  0  0  0  0  0  0
   46.1390   33.3060   43.8790 C   0  0  0  0  0  0  0  0  0  0  0  0
   46.9990   34.2740   45.5810 H   0  0  0  0  0  0  0  0  0  0  0  0
   44.2930   34.7960   46.3360 H   0  0  0  0  0  0  0  0  0  0  0  0
   43.9590   36.3220   44.5680 H   0  0  0  0  0  0  0  0  0  0  0  0
   45.9540   36.5670   43.0260 H   0  0  0  0  0  0  0  0  0  0  0  0
   47.5730   34.8790   43.5470 H   0  0  0  0  0  0  0  0  0  0  0  0
   46.7980   34.3450   42.0560 H   0  0  0  0  0  0  0  0  0  0  0  0
   46.9940   32.6640   43.5360 H   0  0  0  0  0  0  0  0  0  0  0  0
   45.1860   32.9780   43.4150 H   0  0  0  0  0  0  0  0  0  0  0  0
   44.5090   35.3020   42.0620 C   0  0  0  0  0  0  0  0  0  0  0  0
   43.4390   34.5160   42.4550 F   0  0  0  0  0  0  0  0  0  0  0  0
   43.9830   36.5480   41.7300 F   0  0  0  0  0  0  0  0  0  0  0  0
   45.1770   34.8350   40.9460 F   0  0  0  0  0  0  0  0  0  0  0  0
   46.8380   30.5830   44.8810 C   0  0  0  0  0  0  0  0  0  0  0  0
   46.4950   29.8250   43.8080 C   0  0  0  0  0  0  0  0  0  0  0  0
   47.6680   29.4560   43.1370 C   0  0  0  0  0  0  0  0  0  0  0  0
   48.6610   30.0060   43.8330 N   0  0  0  0  0  0  0  0  0  0  0  0
   48.1980   30.6750   44.8640 N   0  0  0  0  0  0  0  0  0  0  0  0
   45.4360   29.6410   43.6550 H   0  0  0  0  0  0  0  0  0  0  0  0
   47.6120   28.8440   42.2480 H   0  0  0  0  0  0  0  0  0  0  0  0
   53.1240   29.2970   44.2390 H   0  0  0  0  0  0  0  0  0  0  0  0
   52.1970   29.4880   43.7840 N   0  0  0  0  0  0  0  0  0  0  0  0
   51.0080   29.5960   44.3720 N   0  0  0  0  0  0  0  0  0  0  0  0
   50.0420   29.8470   43.4450 C   0  0  0  0  0  0  0  0  0  0  0  0
   50.6610   29.9000   42.2150 C   0  0  0  0  0  3  0  0  0  0  0  0
   52.0020   29.6720   42.4640 C   0  0  0  0  0  0  0  0  0  0  0  0
   52.7090   29.6610   41.6550 H   0  0  0  0  0  0  0  0  0  0  0  0
  1  8  1  0  0  0  0
  1  6  1  0  0  0  0
  2  1  2  0  0  0  0
  3  2  1  0  0  0  0
  3  4  2  0  0  0  0
  4  5  1  0  0  0  0
  5  6  2  0  0  0  0
  5  7  1  0  0  0  0
  7  9  1  0  0  0  0
 10  7  1  0  0  0  0
 11 12  1  0  0  0  0
 11 17  1  1  0  0  0
 11  2  1  0  0  0  0
 12 18  1  0  0  0  0
 13 19  1  0  0  0  0
 13 12  2  0  0  0  0
 14 20  1  6  0  0  0
 14 13  1  0  0  0  0
 15 14  1  0  0  0  0
 15 21  1  0  0  0  0
 15 16  1  0  0  0  0
 16 11  1  0  0  0  0
 22 15  1  0  0  0  0
 23 16  1  0  0  0  0
 24 16  1  0  0  0  0
 25 26  1  0  0  0  0
 25 14  1  0  0  0  0
 27 25  1  0  0  0  0
 28 25  1  0  0  0  0
 29  3  1  0  0  0  0
 30 29  1  0  0  0  0
 31 30  2  0  0  0  0
 31 32  1  0  0  0  0
 32 33  1  0  0  0  0
 33 29  2  0  0  0  0
 34 30  1  0  0  0  0
 35 31  1  0  0  0  0
 37 36  1  0  0  0  0
 37 38  1  0  0  0  0
 39 32  1  0  0  0  0
 39 38  2  0  0  0  0
 40 41  2  0  0  0  0
 40 39  1  0  0  0  0
 41 37  1  0  0  0  0
 42 41  1  0  0  0  0
M  END
>  <minimizedAffinity>
-5.97701645

>  <minimizedRMSD>
0.181242138

$$$$
