
 OpenBabel03232521003D

 42 45  0  0  1  0  0  0  0  0999 V2000
   45.4910   32.9110   47.4280 C   0  0  0  0  0  0  0  0  0  0  0  0
   45.9560   32.6430   46.1790 C   0  0  0  0  0  0  0  0  0  0  0  0
   46.1460   31.2850   45.9090 C   0  0  0  0  0  0  0  0  0  0  0  0
   45.8920   30.2950   46.8030 N   0  0  0  0  0  0  0  0  0  0  0  0
   45.4190   30.6200   48.0660 C   0  0  0  0  0  0  0  0  0  0  0  0
   45.2330   31.9060   48.3430 N   0  0  0  0  0  0  0  0  0  0  0  0
   45.1550   29.6130   49.0230 N   0  0  0  0  0  0  0  0  0  0  0  0
   45.3130   33.9270   47.7440 H   0  0  0  0  0  0  0  0  0  0  0  0
   44.4160   29.7140   49.7360 H   0  0  0  0  0  0  0  0  0  0  0  0
   45.7490   28.7340   48.9880 H   0  0  0  0  0  0  0  0  0  0  0  0
   46.1790   33.5940   45.1440 C   0  0  2  0  0  0  0  0  0  0  0  0
   44.9820   34.6940   45.4120 C   0  0  0  0  0  0  0  0  0  0  0  0
   44.7260   35.6260   44.3490 C   0  0  0  0  0  0  0  0  0  0  0  0
   45.4910   35.5500   43.1020 C   0  0  1  0  0  0  0  0  0  0  0  0
   46.5410   34.5390   43.0210 C   0  0  0  0  0  0  0  0  0  0  0  0
   46.1030   33.3090   43.7820 C   0  0  0  0  0  0  0  0  0  0  0  0
   47.0140   34.2940   45.4480 H   0  0  0  0  0  0  0  0  0  0  0  0
   44.3320   34.8480   46.2640 H   0  0  0  0  0  0  0  0  0  0  0  0
   43.9650   36.3520   44.4830 H   0  0  0  0  0  0  0  0  0  0  0  0
   45.9210   36.5590   42.8870 H   0  0  0  0  0  0  0  0  0  0  0  0
   47.5400   34.8650   43.3910 H   0  0  0  0  0  0  0  0  0  0  0  0
   46.7230   34.3170   41.9280 H   0  0  0  0  0  0  0  0  0  0  0  0
   46.9440   32.6550   43.4270 H   0  0  0  0  0  0  0  0  0  0  0  0
   45.1350   32.9820   43.3470 H   0  0  0  0  0  0  0  0  0  0  0  0
   44.4430   35.2920   41.9790 C   0  0  0  0  0  0  0  0  0  0  0  0
   43.3880   34.5030   42.4040 F   0  0  0  0  0  0  0  0  0  0  0  0
   43.9010   36.5340   41.6590 F   0  0  0  0  0  0  0  0  0  0  0  0
   45.0810   34.8250   40.8450 F   0  0  0  0  0  0  0  0  0  0  0  0
   46.6810   30.5760   44.7620 C   0  0  0  0  0  0  0  0  0  0  0  0
   46.2400   29.8480   43.7050 C   0  0  0  0  0  0  0  0  0  0  0  0
   47.3530   29.4080   42.9770 C   0  0  0  0  0  0  0  0  0  0  0  0
   48.4110   29.8910   43.6250 N   0  0  0  0  0  0  0  0  0  0  0  0
   48.0420   30.5820   44.6790 N   0  0  0  0  0  0  0  0  0  0  0  0
   45.1650   29.7310   43.6030 H   0  0  0  0  0  0  0  0  0  0  0  0
   47.2150   28.8060   42.0910 H   0  0  0  0  0  0  0  0  0  0  0  0
   51.9170   27.7300   41.7240 H   0  0  0  0  0  0  0  0  0  0  0  0
   51.3790   28.4850   42.2160 N   0  0  0  0  0  0  0  0  0  0  0  0
   50.0890   28.4850   42.5410 N   0  0  0  0  0  0  0  0  0  0  0  0
   49.7590   29.6460   43.1700 C   0  0  0  0  0  0  0  0  0  0  0  0
   50.9040   30.4120   43.2420 C   0  0  0  0  0  3  0  0  0  0  0  0
   51.8920   29.6560   42.6380 C   0  0  0  0  0  0  0  0  0  0  0  0
   52.8950   30.0360   42.5640 H   0  0  0  0  0  0  0  0  0  0  0  0
  1  8  1  0  0  0  0
  1  6  1  0  0  0  0
  2  1  2  0  0  0  0
  3  2  1  0  0  0  0
  3  4  2  0  0  0  0
  4  5  1  0  0  0  0
  5  6  2  0  0  0  0
  5  7  1  0  0  0  0
  7  9  1  0  0  0  0
 10  7  1  0  0  0  0
 11 12  1  0  0  0  0
 11 17  1  1  0  0  0
 11  2  1  0  0  0  0
 12 18  1  0  0  0  0
 13 19  1  0  0  0  0
 13 12  2  0  0  0  0
 14 20  1  6  0  0  0
 14 13  1  0  0  0  0
 15 14  1  0  0  0  0
 15 21  1  0  0  0  0
 15 16  1  0  0  0  0
 16 11  1  0  0  0  0
 22 15  1  0  0  0  0
 23 16  1  0  0  0  0
 24 16  1  0  0  0  0
 25 26  1  0  0  0  0
 25 14  1  0  0  0  0
 27 25  1  0  0  0  0
 28 25  1  0  0  0  0
 29  3  1  0  0  0  0
 30 29  1  0  0  0  0
 31 32  1  0  0  0  0
 31 30  2  0  0  0  0
 32 33  1  0  0  0  0
 33 29  2  0  0  0  0
 34 30  1  0  0  0  0
 35 31  1  0  0  0  0
 36 37  1  0  0  0  0
 37 38  1  0  0  0  0
 37 41  1  0  0  0  0
 38 39  2  0  0  0  0
 39 40  1  0  0  0  0
 39 32  1  0  0  0  0
 41 40  2  0  0  0  0
 42 41  1  0  0  0  0
M  END
>  <minimizedAffinity>
-5.93006563

>  <minimizedRMSD>
0.234547049

$$$$
