
 OpenBabel03232519523D

 41 44  0  0  1  0  0  0  0  0999 V2000
   45.7400   33.6950   42.1250 N   0  0  0  0  0  0  0  0  0  0  0  0
   46.9290   33.9050   41.3120 C   0  0  0  0  0  0  0  0  0  0  0  0
   46.3220   33.8360   39.9320 C   0  0  0  0  0  0  0  0  0  0  0  0
   45.5160   32.5790   40.0460 C   0  0  0  0  0  0  0  0  0  0  0  0
   44.9590   32.6580   41.4310 C   0  0  2  0  0  0  0  0  0  0  0  0
   47.6760   33.1070   41.4580 H   0  0  0  0  0  0  0  0  0  0  0  0
   47.2760   34.9210   41.5030 H   0  0  0  0  0  0  0  0  0  0  0  0
   47.1470   33.6600   39.1810 H   0  0  0  0  0  0  0  0  0  0  0  0
   45.7280   34.7230   39.7290 H   0  0  0  0  0  0  0  0  0  0  0  0
   46.1620   31.6880   39.8570 H   0  0  0  0  0  0  0  0  0  0  0  0
   44.6640   32.5680   39.3050 H   0  0  0  0  0  0  0  0  0  0  0  0
   45.2860   31.7180   41.9340 H   0  0  0  0  0  0  0  0  0  0  0  0
   44.5000   36.1420   44.6190 C   0  0  0  0  0  0  0  0  0  0  0  0
   44.8530   35.6010   43.3880 C   0  0  0  0  0  0  0  0  0  0  0  0
   45.3580   34.3130   43.3250 C   0  0  0  0  0  0  0  0  0  0  0  0
   45.4790   33.6420   44.5070 N   0  0  0  0  0  0  0  0  0  0  0  0
   45.1310   34.1800   45.6960 C   0  0  0  0  0  0  0  0  0  0  0  0
   44.6440   35.4280   45.7390 N   0  0  0  0  0  0  0  0  0  0  0  0
   45.3270   33.3300   46.8190 N   0  0  0  0  0  0  0  0  0  0  0  0
   44.1060   37.1460   44.6740 H   0  0  0  0  0  0  0  0  0  0  0  0
   44.7540   36.1390   42.4630 H   0  0  0  0  0  0  0  0  0  0  0  0
   44.4060   32.8990   47.1090 H   0  0  0  0  0  0  0  0  0  0  0  0
   46.2900   33.2270   47.2130 H   0  0  0  0  0  0  0  0  0  0  0  0
   43.5620   32.8250   41.5310 N   0  0  0  0  0  0  0  0  0  0  0  0
   42.8350   33.8810   41.1810 C   0  0  0  0  0  0  0  0  0  0  0  0
   41.4540   33.9550   41.3190 C   0  0  0  0  0  0  0  0  0  0  0  0
   40.7750   32.8740   41.8500 C   0  0  0  0  0  0  0  0  0  0  0  0
   39.5190   32.8740   42.0030 O   0  0  0  0  0  0  0  0  0  0  0  0
   41.4960   31.8050   42.2060 N   0  0  0  0  0  0  0  0  0  0  0  0
   42.8220   31.7980   42.0470 C   0  0  0  0  0  0  0  0  0  0  0  0
   43.4300   30.7380   42.4140 O   0  0  0  0  0  0  0  0  0  0  0  0
   43.3850   34.7330   40.7610 H   0  0  0  0  0  0  0  0  0  0  0  0
   41.0050   30.9740   42.6100 H   0  0  0  0  0  0  0  0  0  0  0  0
   40.6980   35.1540   40.9100 C   0  0  0  0  0  0  0  0  0  0  0  0
   39.7090   35.1980   41.4500 H   0  0  0  0  0  0  0  0  0  0  0  0
   41.3080   36.0520   41.1260 H   0  0  0  0  0  0  0  0  0  0  0  0
   40.3860   35.0480   39.5030 N   0  0  0  0  0  0  0  0  0  0  0  0
   40.9800   35.4330   38.3770 C   0  0  0  0  0  0  0  0  0  0  0  0
   40.2380   35.0750   37.3160 N   0  0  0  0  0  0  0  0  0  0  0  0
   39.1290   34.4350   37.7950 C   0  0  0  0  0  0  0  0  0  0  0  0
   39.2770   34.4520   39.1120 N   0  0  0  0  0  0  0  0  0  0  0  0
  1 15  1  0  0  0  0
  2  6  1  0  0  0  0
  2  7  1  0  0  0  0
  2  1  1  0  0  0  0
  3  4  1  0  0  0  0
  3  2  1  0  0  0  0
  4  5  1  0  0  0  0
  5 24  1  0  0  0  0
  5 12  1  1  0  0  0
  5  1  1  0  0  0  0
  8  3  1  0  0  0  0
  9  3  1  0  0  0  0
 10  4  1  0  0  0  0
 11  4  1  0  0  0  0
 13 20  1  0  0  0  0
 13 18  1  0  0  0  0
 14 13  2  0  0  0  0
 15 14  1  0  0  0  0
 15 16  2  0  0  0  0
 16 17  1  0  0  0  0
 17 18  2  0  0  0  0
 17 19  1  0  0  0  0
 19 22  1  0  0  0  0
 19 23  1  0  0  0  0
 21 14  1  0  0  0  0
 24 30  1  0  0  0  0
 25 26  2  0  0  0  0
 25 24  1  0  0  0  0
 26 27  1  0  0  0  0
 27 28  2  0  0  0  0
 27 29  1  0  0  0  0
 29 33  1  0  0  0  0
 30 29  1  0  0  0  0
 30 31  2  0  0  0  0
 32 25  1  0  0  0  0
 34 36  1  0  0  0  0
 34 26  1  0  0  0  0
 34 35  1  0  0  0  0
 37 34  1  0  0  0  0
 38 37  1  0  0  0  0
 39 40  1  0  0  0  0
 39 38  2  0  0  0  0
 40 41  2  0  0  0  0
 41 37  1  0  0  0  0
M  END
>  <minimizedAffinity>
-6.31434393

>  <minimizedRMSD>
1.14870119

$$$$
