
 OpenBabel03232521003D

 42 45  0  0  1  0  0  0  0  0999 V2000
   45.3470   32.9120   47.4860 C   0  0  0  0  0  0  0  0  0  0  0  0
   45.9080   32.6570   46.2730 C   0  0  0  0  0  0  0  0  0  0  0  0
   46.1890   31.3110   46.0350 C   0  0  0  0  0  0  0  0  0  0  0  0
   45.9320   30.3180   46.9240 N   0  0  0  0  0  0  0  0  0  0  0  0
   45.3590   30.6270   48.1490 C   0  0  0  0  0  0  0  0  0  0  0  0
   45.0840   31.9040   48.3970 N   0  0  0  0  0  0  0  0  0  0  0  0
   45.0860   29.6160   49.0980 N   0  0  0  0  0  0  0  0  0  0  0  0
   45.0940   33.9200   47.7770 H   0  0  0  0  0  0  0  0  0  0  0  0
   44.5040   28.7950   48.8240 H   0  0  0  0  0  0  0  0  0  0  0  0
   45.4550   29.6710   50.0700 H   0  0  0  0  0  0  0  0  0  0  0  0
   46.1480   33.6100   45.2450 C   0  0  2  0  0  0  0  0  0  0  0  0
   44.9440   34.7060   45.4880 C   0  0  0  0  0  0  0  0  0  0  0  0
   44.7020   35.6370   44.4220 C   0  0  0  0  0  0  0  0  0  0  0  0
   45.4920   35.5640   43.1890 C   0  0  1  0  0  0  0  0  0  0  0  0
   46.5490   34.5600   43.1300 C   0  0  0  0  0  0  0  0  0  0  0  0
   46.1020   33.3260   43.8810 C   0  0  0  0  0  0  0  0  0  0  0  0
   46.9880   34.3000   45.5640 H   0  0  0  0  0  0  0  0  0  0  0  0
   44.2760   34.8610   46.3270 H   0  0  0  0  0  0  0  0  0  0  0  0
   43.9380   36.3590   44.5410 H   0  0  0  0  0  0  0  0  0  0  0  0
   45.9170   36.5710   42.9840 H   0  0  0  0  0  0  0  0  0  0  0  0
   47.5330   34.9200   43.5340 H   0  0  0  0  0  0  0  0  0  0  0  0
   46.7790   34.3480   42.0490 H   0  0  0  0  0  0  0  0  0  0  0  0
   45.1450   32.9850   43.4300 H   0  0  0  0  0  0  0  0  0  0  0  0
   46.9510   32.6750   43.5410 H   0  0  0  0  0  0  0  0  0  0  0  0
   44.4670   35.3020   42.0450 C   0  0  0  0  0  0  0  0  0  0  0  0
   43.4060   34.5110   42.4520 F   0  0  0  0  0  0  0  0  0  0  0  0
   43.9270   36.5420   41.7130 F   0  0  0  0  0  0  0  0  0  0  0  0
   45.1290   34.8340   40.9270 F   0  0  0  0  0  0  0  0  0  0  0  0
   46.8370   30.6210   44.9350 C   0  0  0  0  0  0  0  0  0  0  0  0
   46.5150   29.8160   43.8900 C   0  0  0  0  0  0  0  0  0  0  0  0
   47.6940   29.4720   43.2180 C   0  0  0  0  0  0  0  0  0  0  0  0
   48.6720   30.0840   43.8860 N   0  0  0  0  0  0  0  0  0  0  0  0
   48.1920   30.7650   44.9000 N   0  0  0  0  0  0  0  0  0  0  0  0
   45.4710   29.5840   43.7520 H   0  0  0  0  0  0  0  0  0  0  0  0
   47.6590   28.8300   42.3490 H   0  0  0  0  0  0  0  0  0  0  0  0
   50.0550   29.9680   43.4930 C   0  0  0  0  0  0  0  0  0  0  0  0
   50.5270   30.4700   42.3110 C   0  0  0  0  0  3  0  0  0  0  0  0
   51.8920   30.2660   42.0970 C   0  0  0  0  0  0  0  0  0  0  0  0
   52.3380   30.6370   41.1810 H   0  0  0  0  0  0  0  0  0  0  0  0
   52.7160   29.6360   42.9470 N   0  0  0  0  0  0  0  0  0  0  0  0
   52.2160   29.1660   44.0830 C   0  0  0  0  0  3  0  0  0  0  0  0
   50.9020   29.3370   44.3380 N   0  0  0  0  0  0  0  0  0  0  0  0
  1  8  1  0  0  0  0
  1  6  1  0  0  0  0
  2  1  2  0  0  0  0
  3  2  1  0  0  0  0
  3  4  2  0  0  0  0
  4  5  1  0  0  0  0
  5  6  2  0  0  0  0
  5  7  1  0  0  0  0
  7 10  1  0  0  0  0
  9  7  1  0  0  0  0
 11 12  1  0  0  0  0
 11 17  1  1  0  0  0
 11  2  1  0  0  0  0
 12 18  1  0  0  0  0
 13 19  1  0  0  0  0
 13 12  2  0  0  0  0
 14 20  1  6  0  0  0
 14 13  1  0  0  0  0
 15 14  1  0  0  0  0
 15 21  1  0  0  0  0
 15 16  1  0  0  0  0
 16 11  1  0  0  0  0
 22 15  1  0  0  0  0
 23 16  1  0  0  0  0
 24 16  1  0  0  0  0
 25 26  1  0  0  0  0
 25 14  1  0  0  0  0
 27 25  1  0  0  0  0
 28 25  1  0  0  0  0
 29  3  1  0  0  0  0
 30 29  1  0  0  0  0
 31 32  1  0  0  0  0
 31 30  2  0  0  0  0
 32 33  1  0  0  0  0
 33 29  2  0  0  0  0
 34 30  1  0  0  0  0
 35 31  1  0  0  0  0
 36 32  1  0  0  0  0
 36 42  1  0  0  0  0
 37 36  2  0  0  0  0
 38 37  1  0  0  0  0
 38 40  2  0  0  0  0
 39 38  1  0  0  0  0
 40 41  1  0  0  0  0
 41 42  2  0  0  0  0
M  END
>  <minimizedAffinity>
-5.82501888

>  <minimizedRMSD>
0.492898881

$$$$
