
 OpenBabel03232520203D

 41 44  0  0  0  0  0  0  0  0999 V2000
   47.6430   34.2540   42.1240 C   0  0  0  0  0  0  0  0  0  0  0  0
   48.5850   35.3770   41.7980 C   0  0  0  0  0  0  0  0  0  0  0  0
   49.8870   35.3360   42.4890 C   0  0  0  0  0  0  0  0  0  0  0  0
   50.5320   33.9890   42.5610 C   0  0  0  0  0  0  0  0  0  0  0  0
   49.6500   32.8820   42.0870 C   0  0  0  0  0  0  0  0  0  0  0  0
   48.3010   33.0640   42.7600 C   0  0  0  0  0  0  0  0  0  0  0  0
   48.7950   35.4350   40.6910 H   0  0  0  0  0  0  0  0  0  0  0  0
   48.1180   36.3720   42.0290 H   0  0  0  0  0  0  0  0  0  0  0  0
   50.5670   36.0540   41.9540 H   0  0  0  0  0  0  0  0  0  0  0  0
   49.7570   35.7800   43.5140 H   0  0  0  0  0  0  0  0  0  0  0  0
   51.5230   34.0070   42.0570 H   0  0  0  0  0  0  0  0  0  0  0  0
   50.7780   33.7730   43.6410 H   0  0  0  0  0  0  0  0  0  0  0  0
   49.4370   32.9740   40.9970 H   0  0  0  0  0  0  0  0  0  0  0  0
   50.1140   31.9110   42.3360 H   0  0  0  0  0  0  0  0  0  0  0  0
   48.4890   33.1990   43.8490 H   0  0  0  0  0  0  0  0  0  0  0  0
   47.7250   32.1550   42.5700 H   0  0  0  0  0  0  0  0  0  0  0  0
   45.2280   34.4480   44.9280 C   0  0  0  0  0  0  0  0  0  0  0  0
   44.5400   35.6260   44.6700 C   0  0  0  0  0  0  0  0  0  0  0  0
   44.9090   36.3500   43.5360 C   0  0  0  0  0  0  0  0  0  0  0  0
   45.9080   35.8750   42.7550 N   0  0  0  0  0  0  0  0  0  0  0  0
   46.5580   34.7170   43.0400 C   0  0  0  0  0  0  0  0  0  0  0  0
   46.2040   34.0070   44.1420 N   0  0  0  0  0  0  0  0  0  0  0  0
   44.8810   33.9490   45.8230 H   0  0  0  0  0  0  0  0  0  0  0  0
   43.7490   36.0730   45.2230 H   0  0  0  0  0  0  0  0  0  0  0  0
   44.5000   37.2800   43.1670 H   0  0  0  0  0  0  0  0  0  0  0  0
   47.0220   33.7650   40.8320 C   0  0  0  0  0  0  0  0  0  0  0  0
   45.7630   33.4250   40.3760 C   0  0  0  0  0  0  0  0  0  0  0  0
   45.6860   33.0220   39.0850 C   0  0  0  0  0  0  0  0  0  0  0  0
   46.7500   32.9500   38.2790 C   0  0  0  0  0  0  0  0  0  0  0  0
   48.1330   33.5110   39.4060 S   0  0  0  0  0  0  0  0  0  0  0  0
   44.9960   33.5230   41.1010 H   0  0  0  0  0  0  0  0  0  0  0  0
   44.7280   32.7390   38.6600 H   0  0  0  0  0  0  0  0  0  0  0  0
   46.9330   32.5760   36.9380 N   0  0  0  0  0  0  0  0  0  0  0  0
   46.2200   31.5590   36.4170 C   0  0  0  0  0  0  0  0  0  0  0  0
   46.4300   31.2170   35.0800 C   0  0  0  0  0  0  0  0  0  0  0  0
   47.3710   31.9510   34.3630 C   0  0  0  0  0  0  0  0  0  0  0  0
   47.5850   31.6700   33.1580 O   0  0  0  0  0  0  0  0  0  0  0  0
   48.0490   32.9580   34.9510 N   0  0  0  0  0  0  0  0  0  0  0  0
   47.8470   33.2960   36.2570 C   0  0  0  0  0  0  0  0  0  0  0  0
   48.4880   34.2310   36.7740 O   0  0  0  0  0  0  0  0  0  0  0  0
   48.7470   33.4970   34.4060 H   0  0  0  0  0  0  0  0  0  0  0  0
  1  6  1  0  0  0  0
  1 21  1  0  0  0  0
  2  8  1  0  0  0  0
  2  1  1  0  0  0  0
  2  3  1  0  0  0  0
  3  4  1  0  0  0  0
  3 10  1  0  0  0  0
  4 12  1  0  0  0  0
  5 14  1  0  0  0  0
  5  4  1  0  0  0  0
  5  6  1  0  0  0  0
  6 15  1  0  0  0  0
  7  2  1  0  0  0  0
  9  3  1  0  0  0  0
 11  4  1  0  0  0  0
 13  5  1  0  0  0  0
 16  6  1  0  0  0  0
 17 23  1  0  0  0  0
 18 17  1  0  0  0  0
 18 24  1  0  0  0  0
 19 18  2  0  0  0  0
 20 21  2  0  0  0  0
 20 19  1  0  0  0  0
 21 22  1  0  0  0  0
 22 17  2  0  0  0  0
 25 19  1  0  0  0  0
 26  1  1  0  0  0  0
 27 26  2  0  0  0  0
 27 31  1  0  0  0  0
 28 27  1  0  0  0  0
 29 28  2  0  0  0  0
 29 30  1  0  0  0  0
 30 26  1  0  0  0  0
 32 28  1  0  0  0  0
 33 29  1  0  0  0  0
 34 33  1  0  0  0  0
 35 34  2  0  0  0  0
 36 38  1  0  0  0  0
 36 35  1  0  0  0  0
 37 36  2  0  0  0  0
 38 39  1  0  0  0  0
 39 40  2  0  0  0  0
 39 33  1  0  0  0  0
 41 38  1  0  0  0  0
M  END
>  <minimizedAffinity>
-6.66542482

>  <minimizedRMSD>
0.633006036

$$$$
