
 OpenBabel03232519553D

 25 27  0  0  0  0  0  0  0  0999 V2000
   45.0950   33.9000   41.5550 N   0  0  0  0  0  0  0  0  0  0  0  0
   46.1250   33.4840   40.8500 C   0  0  0  0  0  0  0  0  0  0  0  0
   45.7060   33.2500   39.5320 C   0  0  0  0  0  0  0  0  0  0  0  0
   44.4040   33.5390   39.4750 N   0  0  0  0  0  0  0  0  0  0  0  0
   44.0180   33.9400   40.7160 C   0  0  0  0  0  0  0  0  0  0  0  0
   46.2910   32.9030   38.6900 H   0  0  0  0  0  0  0  0  0  0  0  0
   42.9950   34.2270   40.9100 H   0  0  0  0  0  0  0  0  0  0  0  0
   44.5630   35.5810   43.1740 C   0  0  0  0  0  0  0  0  0  0  0  0
   45.0330   34.2530   42.9020 C   0  0  0  0  0  0  0  0  0  0  0  0
   45.3760   33.4470   43.9920 C   0  0  0  0  0  0  0  0  0  0  0  0
   45.2500   33.9610   45.2510 N   0  0  0  0  0  0  0  0  0  0  0  0
   44.8050   35.2190   45.4670 C   0  0  0  0  0  0  0  0  0  0  0  0
   44.4630   36.0250   44.4340 N   0  0  0  0  0  0  0  0  0  0  0  0
   44.2790   36.2600   42.3860 H   0  0  0  0  0  0  0  0  0  0  0  0
   45.7250   32.4520   43.7770 H   0  0  0  0  0  0  0  0  0  0  0  0
   44.7470   35.5180   46.5070 H   0  0  0  0  0  0  0  0  0  0  0  0
   47.4650   33.2660   41.2110 N   0  0  0  0  0  0  0  0  0  0  0  0
   47.8840   32.0340   41.6310 C   0  0  0  0  0  0  0  0  0  0  0  0
   49.1520   31.6530   42.0140 C   0  0  0  0  0  0  0  0  0  0  0  0
   50.1040   32.6520   41.9630 C   0  0  0  0  0  0  0  0  0  0  0  0
   51.2800   32.3650   42.3030 O   0  0  0  0  0  0  0  0  0  0  0  0
   49.7280   33.8750   41.5560 N   0  0  0  0  0  0  0  0  0  0  0  0
   48.4720   34.1950   41.1900 C   0  0  0  0  0  0  0  0  0  0  0  0
   48.1400   35.3510   40.8110 O   0  0  0  0  0  0  0  0  0  0  0  0
   50.4690   34.6260   41.5230 H   0  0  0  0  0  0  0  0  0  0  0  0
  1  9  1  0  0  0  0
  2 17  1  0  0  0  0
  2  1  1  0  0  0  0
  3  2  2  0  0  0  0
  4  3  1  0  0  0  0
  4  5  2  0  0  0  0
  5  7  1  0  0  0  0
  5  1  1  0  0  0  0
  6  3  1  0  0  0  0
  8 13  1  0  0  0  0
  9  8  2  0  0  0  0
  9 10  1  0  0  0  0
 10 11  2  0  0  0  0
 11 12  1  0  0  0  0
 12 16  1  0  0  0  0
 13 12  2  0  0  0  0
 14  8  1  0  0  0  0
 15 10  1  0  0  0  0
 17 18  1  0  0  0  0
 18 19  2  0  0  0  0
 20 19  1  0  0  0  0
 20 21  2  0  0  0  0
 22 20  1  0  0  0  0
 23 17  1  0  0  0  0
 23 22  1  0  0  0  0
 24 23  2  0  0  0  0
 25 22  1  0  0  0  0
M  END
>  <minimizedAffinity>
-4.62702703

>  <minimizedRMSD>
2.78014374

$$$$
