
 OpenBabel03232521003D

 42 45  0  0  1  0  0  0  0  0999 V2000
   45.3630   32.9060   47.5040 C   0  0  0  0  0  0  0  0  0  0  0  0
   45.9140   32.6490   46.2870 C   0  0  0  0  0  0  0  0  0  0  0  0
   46.1810   31.3000   46.0440 C   0  0  0  0  0  0  0  0  0  0  0  0
   45.9190   30.3080   46.9320 N   0  0  0  0  0  0  0  0  0  0  0  0
   45.3560   30.6200   48.1610 C   0  0  0  0  0  0  0  0  0  0  0  0
   45.0950   31.8990   48.4130 N   0  0  0  0  0  0  0  0  0  0  0  0
   45.0790   29.6090   49.1090 N   0  0  0  0  0  0  0  0  0  0  0  0
   45.1210   33.9160   47.7980 H   0  0  0  0  0  0  0  0  0  0  0  0
   44.4870   28.7940   48.8360 H   0  0  0  0  0  0  0  0  0  0  0  0
   45.4540   29.6580   50.0790 H   0  0  0  0  0  0  0  0  0  0  0  0
   46.1580   33.6030   45.2600 C   0  0  2  0  0  0  0  0  0  0  0  0
   44.9500   34.6960   45.4960 C   0  0  0  0  0  0  0  0  0  0  0  0
   44.7120   35.6250   44.4280 C   0  0  0  0  0  0  0  0  0  0  0  0
   45.5090   35.5540   43.1990 C   0  0  1  0  0  0  0  0  0  0  0  0
   46.5690   34.5520   43.1470 C   0  0  0  0  0  0  0  0  0  0  0  0
   46.1210   33.3180   43.8960 C   0  0  0  0  0  0  0  0  0  0  0  0
   46.9940   34.2940   45.5830 H   0  0  0  0  0  0  0  0  0  0  0  0
   44.2770   34.8490   46.3300 H   0  0  0  0  0  0  0  0  0  0  0  0
   43.9450   36.3460   44.5420 H   0  0  0  0  0  0  0  0  0  0  0  0
   45.9330   36.5620   42.9960 H   0  0  0  0  0  0  0  0  0  0  0  0
   47.5490   34.9150   43.5570 H   0  0  0  0  0  0  0  0  0  0  0  0
   46.8060   34.3410   42.0670 H   0  0  0  0  0  0  0  0  0  0  0  0
   45.1680   32.9740   43.4390 H   0  0  0  0  0  0  0  0  0  0  0  0
   46.9740   32.6690   43.5610 H   0  0  0  0  0  0  0  0  0  0  0  0
   44.4920   35.2890   42.0490 C   0  0  0  0  0  0  0  0  0  0  0  0
   43.4310   34.4940   42.4500 F   0  0  0  0  0  0  0  0  0  0  0  0
   43.9490   36.5270   41.7140 F   0  0  0  0  0  0  0  0  0  0  0  0
   45.1620   34.8230   40.9350 F   0  0  0  0  0  0  0  0  0  0  0  0
   46.8160   30.6080   44.9390 C   0  0  0  0  0  0  0  0  0  0  0  0
   46.4790   29.8210   43.8850 C   0  0  0  0  0  0  0  0  0  0  0  0
   47.6510   29.4560   43.2130 C   0  0  0  0  0  0  0  0  0  0  0  0
   48.6420   30.0390   43.8890 N   0  0  0  0  0  0  0  0  0  0  0  0
   48.1740   30.7210   44.9090 N   0  0  0  0  0  0  0  0  0  0  0  0
   45.4300   29.6150   43.7410 H   0  0  0  0  0  0  0  0  0  0  0  0
   47.6040   28.8250   42.3360 H   0  0  0  0  0  0  0  0  0  0  0  0
   50.0220   29.8950   43.4990 C   0  0  0  0  0  0  0  0  0  0  0  0
   50.9090   29.1260   44.2020 C   0  0  0  0  0  3  0  0  0  0  0  0
   52.2030   29.1050   43.6780 C   0  0  0  0  0  0  0  0  0  0  0  0
   52.9620   28.5160   44.1830 H   0  0  0  0  0  0  0  0  0  0  0  0
   52.5960   29.7650   42.5780 N   0  0  0  0  0  0  0  0  0  0  0  0
   51.7030   30.4980   41.9260 C   0  0  0  0  0  3  0  0  0  0  0  0
   50.4370   30.5530   42.3930 N   0  0  0  0  0  0  0  0  0  0  0  0
  1  8  1  0  0  0  0
  1  6  1  0  0  0  0
  2  1  2  0  0  0  0
  3  2  1  0  0  0  0
  3  4  2  0  0  0  0
  4  5  1  0  0  0  0
  5  6  2  0  0  0  0
  5  7  1  0  0  0  0
  7 10  1  0  0  0  0
  9  7  1  0  0  0  0
 11 12  1  0  0  0  0
 11 17  1  1  0  0  0
 11  2  1  0  0  0  0
 12 18  1  0  0  0  0
 13 19  1  0  0  0  0
 13 12  2  0  0  0  0
 14 20  1  6  0  0  0
 14 13  1  0  0  0  0
 15 14  1  0  0  0  0
 15 21  1  0  0  0  0
 15 16  1  0  0  0  0
 16 11  1  0  0  0  0
 22 15  1  0  0  0  0
 23 16  1  0  0  0  0
 24 16  1  0  0  0  0
 25 26  1  0  0  0  0
 25 14  1  0  0  0  0
 27 25  1  0  0  0  0
 28 25  1  0  0  0  0
 29  3  1  0  0  0  0
 30 29  1  0  0  0  0
 31 30  2  0  0  0  0
 31 32  1  0  0  0  0
 32 33  1  0  0  0  0
 33 29  2  0  0  0  0
 34 30  1  0  0  0  0
 35 31  1  0  0  0  0
 36 32  1  0  0  0  0
 36 37  1  0  0  0  0
 38 39  1  0  0  0  0
 38 37  2  0  0  0  0
 40 38  1  0  0  0  0
 41 42  1  0  0  0  0
 41 40  2  0  0  0  0
 42 36  2  0  0  0  0
M  END
>  <minimizedAffinity>
-5.83997822

>  <minimizedRMSD>
0.507638097

$$$$
