
 OpenBabel03232520153D

 34 36  0  0  0  0  0  0  0  0999 V2000
   47.4770   34.0790   42.2370 C   0  0  0  0  0  0  0  0  0  0  0  0
   48.4150   35.2120   41.8520 C   0  0  0  0  0  0  0  0  0  0  0  0
   49.7640   35.1950   42.4620 C   0  0  0  0  0  0  0  0  0  0  0  0
   50.4000   33.8430   42.4440 C   0  0  0  0  0  0  0  0  0  0  0  0
   49.4590   32.7120   42.0610 C   0  0  0  0  0  0  0  0  0  0  0  0
   48.1960   32.9460   42.8590 C   0  0  0  0  0  0  0  0  0  0  0  0
   48.5680   35.2080   40.7520 H   0  0  0  0  0  0  0  0  0  0  0  0
   47.9120   36.1710   42.1400 H   0  0  0  0  0  0  0  0  0  0  0  0
   49.6960   35.5270   43.5310 H   0  0  0  0  0  0  0  0  0  0  0  0
   50.3900   35.9090   41.9050 H   0  0  0  0  0  0  0  0  0  0  0  0
   51.2020   33.8190   41.6720 H   0  0  0  0  0  0  0  0  0  0  0  0
   50.8610   33.5510   43.3980 H   0  0  0  0  0  0  0  0  0  0  0  0
   49.2330   32.7610   40.9950 H   0  0  0  0  0  0  0  0  0  0  0  0
   49.9510   31.7690   42.3190 H   0  0  0  0  0  0  0  0  0  0  0  0
   48.5690   33.3350   43.8620 H   0  0  0  0  0  0  0  0  0  0  0  0
   47.6880   32.0020   42.9660 H   0  0  0  0  0  0  0  0  0  0  0  0
   45.3120   34.3480   45.2400 C   0  0  0  0  0  0  0  0  0  0  0  0
   44.5760   35.5310   44.9900 C   0  0  0  0  0  0  0  0  0  0  0  0
   44.8300   36.2300   43.7960 C   0  0  0  0  0  0  0  0  0  0  0  0
   45.7700   35.7160   42.9620 N   0  0  0  0  0  0  0  0  0  0  0  0
   46.4560   34.5960   43.2150 C   0  0  0  0  0  0  0  0  0  0  0  0
   46.2250   33.9180   44.3490 N   0  0  0  0  0  0  0  0  0  0  0  0
   45.1020   33.8250   46.1640 H   0  0  0  0  0  0  0  0  0  0  0  0
   43.8350   35.9180   45.6690 H   0  0  0  0  0  0  0  0  0  0  0  0
   44.3150   37.1430   43.5230 H   0  0  0  0  0  0  0  0  0  0  0  0
   46.7230   33.7450   41.0580 N   0  0  0  0  0  0  0  0  0  0  0  0
   45.5470   33.1150   41.3670 C   0  0  0  0  0  0  0  0  0  0  0  0
   44.6230   32.6770   40.4420 C   0  0  0  0  0  0  0  0  0  0  0  0
   44.8750   32.8730   39.1010 C   0  0  0  0  0  0  0  0  0  0  0  0
   44.0830   32.5010   38.2140 O   0  0  0  0  0  0  0  0  0  0  0  0
   46.0290   33.4900   38.7940 N   0  0  0  0  0  0  0  0  0  0  0  0
   46.8860   33.8940   39.7400 C   0  0  0  0  0  0  0  0  0  0  0  0
   47.9490   34.4670   39.4090 O   0  0  0  0  0  0  0  0  0  0  0  0
   46.2930   33.6760   37.8160 H   0  0  0  0  0  0  0  0  0  0  0  0
  1  6  1  0  0  0  0
  1 21  1  0  0  0  0
  2  8  1  0  0  0  0
  2  1  1  0  0  0  0
  2  3  1  0  0  0  0
  3  9  1  0  0  0  0
  4  3  1  0  0  0  0
  4 12  1  0  0  0  0
  5 14  1  0  0  0  0
  5  4  1  0  0  0  0
  5  6  1  0  0  0  0
  6 16  1  0  0  0  0
  6 15  1  0  0  0  0
  7  2  1  0  0  0  0
 10  3  1  0  0  0  0
 11  4  1  0  0  0  0
 13  5  1  0  0  0  0
 17 23  1  0  0  0  0
 18 17  1  0  0  0  0
 18 24  1  0  0  0  0
 19 18  2  0  0  0  0
 20 21  2  0  0  0  0
 20 19  1  0  0  0  0
 21 22  1  0  0  0  0
 22 17  2  0  0  0  0
 25 19  1  0  0  0  0
 26 27  1  0  0  0  0
 26  1  1  0  0  0  0
 28 27  2  0  0  0  0
 29 28  1  0  0  0  0
 30 29  2  0  0  0  0
 31 29  1  0  0  0  0
 31 32  1  0  0  0  0
 32 26  1  0  0  0  0
 33 32  2  0  0  0  0
 34 31  1  0  0  0  0
M  END
>  <minimizedAffinity>
-5.93883467

>  <minimizedRMSD>
0.533244848

$$$$
