
 OpenBabel03232520493D

 32 34  0  0  1  0  0  0  0  0999 V2000
   46.2230   32.9730   45.1360 C   0  0  2  0  0  0  0  0  0  0  0  0
   45.9790   31.5130   44.8250 C   0  0  0  0  0  0  0  0  0  0  0  0
   46.3100   30.5570   45.8580 C   0  0  0  0  0  0  0  0  0  0  0  0
   46.8570   31.0030   47.1410 C   0  0  2  0  0  0  0  0  0  0  0  0
   47.1220   32.4500   47.2880 C   0  0  0  0  0  0  0  0  0  0  0  0
   46.0240   33.2280   46.5980 C   0  0  0  0  0  0  0  0  0  0  0  0
   47.2940   33.1710   44.8690 H   0  0  0  0  0  0  0  0  0  0  0  0
   45.5910   31.0330   43.9480 H   0  0  0  0  0  0  0  0  0  0  0  0
   46.1550   29.5320   45.6810 H   0  0  0  0  0  0  0  0  0  0  0  0
   46.1450   30.6920   47.9550 H   0  0  0  0  0  0  0  0  0  0  0  0
   47.1610   32.7000   48.3770 H   0  0  0  0  0  0  0  0  0  0  0  0
   48.0860   32.7440   46.8430 H   0  0  0  0  0  0  0  0  0  0  0  0
   46.1790   34.2650   46.8730 H   0  0  0  0  0  0  0  0  0  0  0  0
   45.0460   32.8120   46.9250 H   0  0  0  0  0  0  0  0  0  0  0  0
   45.0020   33.2970   43.0000 C   0  0  0  0  0  0  0  0  0  0  0  0
   45.3910   33.8000   44.2420 C   0  0  0  0  0  0  0  0  0  0  0  0
   44.9710   35.1110   44.5900 C   0  0  0  0  0  0  0  0  0  0  0  0
   44.2150   35.8030   43.6980 N   0  0  0  0  0  0  0  0  0  0  0  0
   43.8580   35.2760   42.5000 C   0  0  0  0  0  0  0  0  0  0  0  0
   44.2560   34.0270   42.1660 N   0  0  0  0  0  0  0  0  0  0  0  0
   45.2720   32.3250   42.6600 H   0  0  0  0  0  0  0  0  0  0  0  0
   45.2550   35.5110   45.5250 H   0  0  0  0  0  0  0  0  0  0  0  0
   43.2560   35.9270   41.8810 H   0  0  0  0  0  0  0  0  0  0  0  0
   48.0910   30.2830   47.3930 N   0  0  0  0  0  0  0  0  0  0  0  0
   48.6200   29.7100   46.2860 C   0  0  0  0  0  0  0  0  0  0  0  0
   49.8000   29.0000   46.4270 C   0  0  0  0  0  0  0  0  0  0  0  0
   50.4060   28.8870   47.6690 C   0  0  0  0  0  0  0  0  0  0  0  0
   51.4930   28.2410   47.8400 O   0  0  0  0  0  0  0  0  0  0  0  0
   49.8070   29.4920   48.7190 N   0  0  0  0  0  0  0  0  0  0  0  0
   48.6600   30.1900   48.6140 C   0  0  0  0  0  0  0  0  0  0  0  0
   48.1010   30.7510   49.5850 O   0  0  0  0  0  0  0  0  0  0  0  0
   50.2580   29.4120   49.6560 H   0  0  0  0  0  0  0  0  0  0  0  0
  1  7  1  6  0  0  0
  1  6  1  0  0  0  0
  2  1  1  0  0  0  0
  2  3  2  0  0  0  0
  3  4  1  0  0  0  0
  4  5  1  0  0  0  0
  4 24  1  0  0  0  0
  4 10  1  1  0  0  0
  5 11  1  0  0  0  0
  6 13  1  0  0  0  0
  6 14  1  0  0  0  0
  6  5  1  0  0  0  0
  8  2  1  0  0  0  0
  9  3  1  0  0  0  0
 12  5  1  0  0  0  0
 15 16  1  0  0  0  0
 16 17  2  0  0  0  0
 16  1  1  0  0  0  0
 17 22  1  0  0  0  0
 18 17  1  0  0  0  0
 19 18  2  0  0  0  0
 20 19  1  0  0  0  0
 20 15  2  0  0  0  0
 21 15  1  0  0  0  0
 23 19  1  0  0  0  0
 24 30  1  0  0  0  0
 25 26  2  0  0  0  0
 25 24  1  0  0  0  0
 26 27  1  0  0  0  0
 27 28  2  0  0  0  0
 27 29  1  0  0  0  0
 29 32  1  0  0  0  0
 30 29  1  0  0  0  0
 30 31  2  0  0  0  0
M  END
>  <minimizedAffinity>
-4.62352467

>  <minimizedRMSD>
7.94523811

$$$$
