
 OpenBabel03232517433D

 37 40  0  0  0  0  0  0  0  0999 V2000
   44.3940   35.4450   42.1430 C   0  0  0  0  0  0  0  0  0  0  0  0
   44.5060   34.1140   41.7520 C   0  0  0  0  0  0  0  0  0  0  0  0
   44.8570   33.1900   42.7200 C   0  0  0  0  0  0  0  0  0  0  0  0
   45.0750   33.6220   44.0040 N   0  0  0  0  0  0  0  0  0  0  0  0
   44.9540   34.9070   44.3300 C   0  0  0  0  0  0  0  0  0  0  0  0
   44.6170   35.8130   43.4120 N   0  0  0  0  0  0  0  0  0  0  0  0
   44.1190   36.2110   41.4190 H   0  0  0  0  0  0  0  0  0  0  0  0
   45.1330   35.2340   45.3600 H   0  0  0  0  0  0  0  0  0  0  0  0
   44.9750   31.8250   42.3290 N   0  0  0  0  0  0  0  0  0  0  0  0
   46.1940   31.3590   41.9530 C   0  0  0  0  0  0  0  0  0  0  0  0
   46.2770   30.0500   41.5840 C   0  0  0  0  0  0  0  0  0  0  0  0
   45.1900   29.1950   41.5770 C   0  0  0  0  0  0  0  0  0  0  0  0
   45.3660   28.0100   41.2220 O   0  0  0  0  0  0  0  0  0  0  0  0
   43.9900   29.6970   41.9580 N   0  0  0  0  0  0  0  0  0  0  0  0
   43.9030   30.9820   42.3220 C   0  0  0  0  0  0  0  0  0  0  0  0
   42.7890   31.4010   42.6630 O   0  0  0  0  0  0  0  0  0  0  0  0
   47.0460   32.0170   41.9550 H   0  0  0  0  0  0  0  0  0  0  0  0
   43.1680   29.0510   41.9530 H   0  0  0  0  0  0  0  0  0  0  0  0
   47.6350   29.5460   41.1690 C   0  0  0  0  0  0  0  0  0  0  0  0
   47.9840   30.2680   40.4000 H   0  0  0  0  0  0  0  0  0  0  0  0
   47.5570   28.5250   40.7150 H   0  0  0  0  0  0  0  0  0  0  0  0
   48.3410   29.5570   41.9960 H   0  0  0  0  0  0  0  0  0  0  0  0
   44.2550   33.8110   40.4090 N   0  0  0  0  0  0  0  0  0  0  0  0
   45.2130   33.4350   39.6190 N   0  0  0  0  0  0  0  0  0  0  0  0
   44.7290   33.2010   38.3760 C   0  0  0  0  0  0  0  0  0  0  0  0
   43.3640   33.4740   38.4830 C   0  0  0  0  0  0  0  0  0  0  0  0
   43.0660   33.8670   39.7950 C   0  0  0  0  0  0  0  0  0  0  0  0
   45.2050   32.8830   37.4730 H   0  0  0  0  0  0  0  0  0  0  0  0
   42.5990   33.4130   37.7130 H   0  0  0  0  0  0  0  0  0  0  0  0
   41.7580   34.2350   40.3030 C   0  0  0  0  0  0  0  0  0  0  0  0
   41.3960   35.4400   40.4800 O   0  0  0  0  0  0  0  0  0  0  0  0
   40.8370   33.1240   40.6160 C   0  0  0  0  0  0  0  0  0  0  0  0
   41.1340   31.8970   39.7820 C   0  0  0  0  0  0  0  0  0  0  0  0
   40.0540   30.8770   39.8600 C   0  0  0  0  0  0  0  0  0  0  0  0
   39.2100   31.0940   41.0990 C   0  0  0  0  0  0  0  0  0  0  0  0
   38.4680   32.4230   40.9840 C   0  0  0  0  0  0  0  0  0  0  0  0
   39.3850   33.4850   40.3840 C   0  0  0  0  0  0  0  0  0  0  0  0
  1  6  1  0  0  0  0
  2  1  2  0  0  0  0
  2  3  1  0  0  0  0
  3  4  2  0  0  0  0
  4  5  1  0  0  0  0
  5  8  1  0  0  0  0
  6  5  2  0  0  0  0
  7  1  1  0  0  0  0
  9  3  1  0  0  0  0
 10 17  1  0  0  0  0
 10  9  1  0  0  0  0
 11 10  2  0  0  0  0
 12 11  1  0  0  0  0
 12 14  1  0  0  0  0
 13 12  2  0  0  0  0
 14 15  1  0  0  0  0
 15  9  1  0  0  0  0
 15 16  2  0  0  0  0
 18 14  1  0  0  0  0
 19 11  1  0  0  0  0
 19 22  1  0  0  0  0
 20 19  1  0  0  0  0
 21 19  1  0  0  0  0
 23  2  1  0  0  0  0
 24 23  1  0  0  0  0
 25 26  1  0  0  0  0
 25 24  2  0  0  0  0
 26 27  2  0  0  0  0
 27 30  1  0  0  0  0
 27 23  1  0  0  0  0
 28 25  1  0  0  0  0
 29 26  1  0  0  0  0
 30 31  2  0  0  0  0
 30 32  1  0  0  0  0
 33 34  1  0  0  0  0
 33 32  1  0  0  0  0
 34 35  1  0  0  0  0
 36 35  1  0  0  0  0
 37 32  1  0  0  0  0
 37 36  1  0  0  0  0
M  END
>  <minimizedAffinity>
-4.49988794

>  <minimizedRMSD>
4.52709436

$$$$
