
 OpenBabel03232521003D

 42 45  0  0  1  0  0  0  0  0999 V2000
   45.3620   32.9080   47.5040 C   0  0  0  0  0  0  0  0  0  0  0  0
   45.9140   32.6500   46.2870 C   0  0  0  0  0  0  0  0  0  0  0  0
   46.1810   31.3010   46.0450 C   0  0  0  0  0  0  0  0  0  0  0  0
   45.9190   30.3090   46.9340 N   0  0  0  0  0  0  0  0  0  0  0  0
   45.3550   30.6220   48.1620 C   0  0  0  0  0  0  0  0  0  0  0  0
   45.0940   31.9010   48.4140 N   0  0  0  0  0  0  0  0  0  0  0  0
   45.0790   29.6110   49.1120 N   0  0  0  0  0  0  0  0  0  0  0  0
   45.1200   33.9180   47.7970 H   0  0  0  0  0  0  0  0  0  0  0  0
   44.4870   28.7970   48.8390 H   0  0  0  0  0  0  0  0  0  0  0  0
   45.4540   29.6620   50.0810 H   0  0  0  0  0  0  0  0  0  0  0  0
   46.1570   33.6020   45.2590 C   0  0  2  0  0  0  0  0  0  0  0  0
   44.9500   34.6960   45.4950 C   0  0  0  0  0  0  0  0  0  0  0  0
   44.7120   35.6250   44.4270 C   0  0  0  0  0  0  0  0  0  0  0  0
   45.5080   35.5530   43.1980 C   0  0  1  0  0  0  0  0  0  0  0  0
   46.5670   34.5500   43.1460 C   0  0  0  0  0  0  0  0  0  0  0  0
   46.1190   33.3170   43.8950 C   0  0  0  0  0  0  0  0  0  0  0  0
   46.9940   34.2940   45.5820 H   0  0  0  0  0  0  0  0  0  0  0  0
   44.2770   34.8510   46.3300 H   0  0  0  0  0  0  0  0  0  0  0  0
   43.9450   36.3470   44.5410 H   0  0  0  0  0  0  0  0  0  0  0  0
   45.9330   36.5600   42.9940 H   0  0  0  0  0  0  0  0  0  0  0  0
   47.5480   34.9130   43.5550 H   0  0  0  0  0  0  0  0  0  0  0  0
   46.8040   34.3380   42.0650 H   0  0  0  0  0  0  0  0  0  0  0  0
   45.1650   32.9730   43.4400 H   0  0  0  0  0  0  0  0  0  0  0  0
   46.9710   32.6670   43.5600 H   0  0  0  0  0  0  0  0  0  0  0  0
   44.4900   35.2880   42.0490 C   0  0  0  0  0  0  0  0  0  0  0  0
   43.4300   34.4930   42.4500 F   0  0  0  0  0  0  0  0  0  0  0  0
   43.9470   36.5250   41.7140 F   0  0  0  0  0  0  0  0  0  0  0  0
   45.1590   34.8230   40.9340 F   0  0  0  0  0  0  0  0  0  0  0  0
   46.8160   30.6080   44.9400 C   0  0  0  0  0  0  0  0  0  0  0  0
   46.4790   29.8200   43.8870 C   0  0  0  0  0  0  0  0  0  0  0  0
   47.6520   29.4550   43.2160 C   0  0  0  0  0  0  0  0  0  0  0  0
   48.6420   30.0380   43.8910 N   0  0  0  0  0  0  0  0  0  0  0  0
   48.1740   30.7210   44.9100 N   0  0  0  0  0  0  0  0  0  0  0  0
   45.4300   29.6130   43.7440 H   0  0  0  0  0  0  0  0  0  0  0  0
   47.6050   28.8220   42.3400 H   0  0  0  0  0  0  0  0  0  0  0  0
   50.0220   29.8950   43.5010 C   0  0  0  0  0  0  0  0  0  0  0  0
   50.9090   29.1270   44.2040 C   0  0  0  0  0  3  0  0  0  0  0  0
   52.2040   29.1060   43.6780 C   0  0  0  0  0  0  0  0  0  0  0  0
   52.9620   28.5170   44.1830 H   0  0  0  0  0  0  0  0  0  0  0  0
   52.5960   29.7650   42.5790 N   0  0  0  0  0  0  0  0  0  0  0  0
   51.7020   30.4990   41.9270 C   0  0  0  0  0  3  0  0  0  0  0  0
   50.4360   30.5530   42.3940 N   0  0  0  0  0  0  0  0  0  0  0  0
  1  8  1  0  0  0  0
  1  6  1  0  0  0  0
  2  1  2  0  0  0  0
  3  2  1  0  0  0  0
  3  4  2  0  0  0  0
  4  5  1  0  0  0  0
  5  6  2  0  0  0  0
  5  7  1  0  0  0  0
  7 10  1  0  0  0  0
  9  7  1  0  0  0  0
 11 12  1  0  0  0  0
 11 17  1  1  0  0  0
 11  2  1  0  0  0  0
 12 18  1  0  0  0  0
 13 19  1  0  0  0  0
 13 12  2  0  0  0  0
 14 20  1  6  0  0  0
 14 13  1  0  0  0  0
 15 14  1  0  0  0  0
 15 21  1  0  0  0  0
 15 16  1  0  0  0  0
 16 11  1  0  0  0  0
 22 15  1  0  0  0  0
 23 16  1  0  0  0  0
 24 16  1  0  0  0  0
 25 26  1  0  0  0  0
 25 14  1  0  0  0  0
 27 25  1  0  0  0  0
 28 25  1  0  0  0  0
 29  3  1  0  0  0  0
 30 29  1  0  0  0  0
 31 30  2  0  0  0  0
 31 32  1  0  0  0  0
 32 33  1  0  0  0  0
 33 29  2  0  0  0  0
 34 30  1  0  0  0  0
 35 31  1  0  0  0  0
 36 32  1  0  0  0  0
 36 37  1  0  0  0  0
 38 39  1  0  0  0  0
 38 37  2  0  0  0  0
 40 38  1  0  0  0  0
 41 42  1  0  0  0  0
 41 40  2  0  0  0  0
 42 36  2  0  0  0  0
M  END
>  <minimizedAffinity>
-5.83925581

>  <minimizedRMSD>
0.393624663

$$$$
