
 OpenBabel03232521013D

 42 45  0  0  1  0  0  0  0  0999 V2000
   45.3490   32.8960   47.5100 C   0  0  0  0  0  0  0  0  0  0  0  0
   45.9160   32.6410   46.3000 C   0  0  0  0  0  0  0  0  0  0  0  0
   46.1970   31.2940   46.0630 C   0  0  0  0  0  0  0  0  0  0  0  0
   45.9330   30.3010   46.9510 N   0  0  0  0  0  0  0  0  0  0  0  0
   45.3530   30.6110   48.1720 C   0  0  0  0  0  0  0  0  0  0  0  0
   45.0790   31.8880   48.4190 N   0  0  0  0  0  0  0  0  0  0  0  0
   45.0740   29.6000   49.1200 N   0  0  0  0  0  0  0  0  0  0  0  0
   45.0950   33.9050   47.7990 H   0  0  0  0  0  0  0  0  0  0  0  0
   44.4920   28.7800   48.8420 H   0  0  0  0  0  0  0  0  0  0  0  0
   45.4380   29.6550   50.0940 H   0  0  0  0  0  0  0  0  0  0  0  0
   46.1630   33.5940   45.2730 C   0  0  2  0  0  0  0  0  0  0  0  0
   44.9530   34.6860   45.5030 C   0  0  0  0  0  0  0  0  0  0  0  0
   44.7190   35.6140   44.4340 C   0  0  0  0  0  0  0  0  0  0  0  0
   45.5220   35.5430   43.2090 C   0  0  1  0  0  0  0  0  0  0  0  0
   46.5830   34.5420   43.1620 C   0  0  0  0  0  0  0  0  0  0  0  0
   46.1320   33.3080   43.9090 C   0  0  0  0  0  0  0  0  0  0  0  0
   46.9970   34.2860   45.6000 H   0  0  0  0  0  0  0  0  0  0  0  0
   44.2760   34.8390   46.3350 H   0  0  0  0  0  0  0  0  0  0  0  0
   43.9510   36.3340   44.5440 H   0  0  0  0  0  0  0  0  0  0  0  0
   45.9460   36.5510   43.0070 H   0  0  0  0  0  0  0  0  0  0  0  0
   47.5610   34.9060   43.5760 H   0  0  0  0  0  0  0  0  0  0  0  0
   46.8250   34.3310   42.0830 H   0  0  0  0  0  0  0  0  0  0  0  0
   45.1820   32.9630   43.4490 H   0  0  0  0  0  0  0  0  0  0  0  0
   46.9870   32.6600   43.5790 H   0  0  0  0  0  0  0  0  0  0  0  0
   44.5100   35.2760   42.0540 C   0  0  0  0  0  0  0  0  0  0  0  0
   43.4530   34.4730   42.4480 F   0  0  0  0  0  0  0  0  0  0  0  0
   43.9600   36.5120   41.7230 F   0  0  0  0  0  0  0  0  0  0  0  0
   45.1860   34.8210   40.9400 F   0  0  0  0  0  0  0  0  0  0  0  0
   46.8490   30.6040   44.9670 C   0  0  0  0  0  0  0  0  0  0  0  0
   46.5280   29.8350   43.8950 C   0  0  0  0  0  0  0  0  0  0  0  0
   47.7120   29.4590   43.2500 C   0  0  0  0  0  0  0  0  0  0  0  0
   48.6930   30.0170   43.9590 N   0  0  0  0  0  0  0  0  0  0  0  0
   48.2100   30.6940   44.9740 N   0  0  0  0  0  0  0  0  0  0  0  0
   45.4800   29.6480   43.7210 H   0  0  0  0  0  0  0  0  0  0  0  0
   47.6780   28.8390   42.3640 H   0  0  0  0  0  0  0  0  0  0  0  0
   50.0810   29.8550   43.6040 C   0  0  0  0  0  0  0  0  0  0  0  0
   50.9710   29.1890   44.4010 C   0  0  0  0  0  3  0  0  0  0  0  0
   52.2730   29.1300   43.8970 C   0  0  0  0  0  0  0  0  0  0  0  0
   53.0340   28.6190   44.4730 H   0  0  0  0  0  0  0  0  0  0  0  0
   52.6680   29.6670   42.7320 N   0  0  0  0  0  0  0  0  0  0  0  0
   51.7700   30.3040   41.9900 C   0  0  0  0  0  3  0  0  0  0  0  0
   50.4990   30.3880   42.4330 N   0  0  0  0  0  0  0  0  0  0  0  0
  1  8  1  0  0  0  0
  1  6  1  0  0  0  0
  2  1  2  0  0  0  0
  3  2  1  0  0  0  0
  3  4  2  0  0  0  0
  4  5  1  0  0  0  0
  5  6  2  0  0  0  0
  5  7  1  0  0  0  0
  7 10  1  0  0  0  0
  9  7  1  0  0  0  0
 11 12  1  0  0  0  0
 11 17  1  1  0  0  0
 11  2  1  0  0  0  0
 12 18  1  0  0  0  0
 13 19  1  0  0  0  0
 13 12  2  0  0  0  0
 14 20  1  6  0  0  0
 14 13  1  0  0  0  0
 15 14  1  0  0  0  0
 15 21  1  0  0  0  0
 15 16  1  0  0  0  0
 16 11  1  0  0  0  0
 22 15  1  0  0  0  0
 23 16  1  0  0  0  0
 24 16  1  0  0  0  0
 25 26  1  0  0  0  0
 25 14  1  0  0  0  0
 27 25  1  0  0  0  0
 28 25  1  0  0  0  0
 29 33  2  0  0  0  0
 29  3  1  0  0  0  0
 30 29  1  0  0  0  0
 31 30  2  0  0  0  0
 31 32  1  0  0  0  0
 32 33  1  0  0  0  0
 34 30  1  0  0  0  0
 35 31  1  0  0  0  0
 36 32  1  0  0  0  0
 36 37  1  0  0  0  0
 38 37  2  0  0  0  0
 38 39  1  0  0  0  0
 40 38  1  0  0  0  0
 41 42  1  0  0  0  0
 41 40  2  0  0  0  0
 42 36  2  0  0  0  0
M  END
>  <minimizedAffinity>
-5.82175112

>  <minimizedRMSD>
0.604241371

$$$$
