
 OpenBabel03232520113D

 40 43  0  0  1  0  0  0  0  0999 V2000
   45.2770   29.7820   46.1010 N   0  0  0  0  0  0  0  0  0  0  0  0
   44.6060   28.7130   45.4290 C   0  0  0  0  0  0  0  0  0  0  0  0
   45.1940   27.3600   45.7770 C   0  0  0  0  0  0  0  0  0  0  0  0
   45.5690   27.2810   47.2240 C   0  0  0  0  0  0  0  0  0  0  0  0
   44.9680   28.3860   48.0550 C   0  0  0  0  0  0  0  0  0  0  0  0
   45.4600   29.6920   47.5420 C   0  0  1  0  0  0  0  0  0  0  0  0
   44.5830   28.8010   44.3430 H   0  0  0  0  0  0  0  0  0  0  0  0
   43.5570   28.6960   45.8400 H   0  0  0  0  0  0  0  0  0  0  0  0
   46.1240   27.2790   45.1440 H   0  0  0  0  0  0  0  0  0  0  0  0
   44.4910   26.5730   45.4520 H   0  0  0  0  0  0  0  0  0  0  0  0
   45.1200   26.3320   47.6260 H   0  0  0  0  0  0  0  0  0  0  0  0
   46.6500   27.1780   47.4100 H   0  0  0  0  0  0  0  0  0  0  0  0
   43.8660   28.3200   48.0330 H   0  0  0  0  0  0  0  0  0  0  0  0
   45.3140   28.2210   49.0980 H   0  0  0  0  0  0  0  0  0  0  0  0
   44.7610   30.4720   47.9490 H   0  0  0  0  0  0  0  0  0  0  0  0
   46.7780   30.0380   47.9850 N   0  0  0  0  0  0  0  0  0  0  0  0
   47.9280   29.5430   47.4820 C   0  0  0  0  0  0  0  0  0  0  0  0
   49.1560   29.9350   47.9720 C   0  0  0  0  0  0  0  0  0  0  0  0
   49.2640   30.8610   49.0110 C   0  0  0  0  0  0  0  0  0  0  0  0
   50.3490   31.2610   49.5030 O   0  0  0  0  0  0  0  0  0  0  0  0
   48.1130   31.3550   49.5130 N   0  0  0  0  0  0  0  0  0  0  0  0
   46.9450   30.9350   48.9940 C   0  0  0  0  0  0  0  0  0  0  0  0
   45.8820   31.4300   49.5010 O   0  0  0  0  0  0  0  0  0  0  0  0
   48.1110   32.0490   50.2870 H   0  0  0  0  0  0  0  0  0  0  0  0
   47.0280   32.9310   44.2330 C   0  0  0  0  0  0  0  0  0  0  0  0
   46.3550   33.2500   45.3830 C   0  0  0  0  0  0  0  0  0  0  0  0
   45.7360   32.2770   46.0820 C   0  0  0  0  0  0  0  0  0  0  0  0
   45.8310   30.9970   45.5680 C   0  0  0  0  0  0  0  0  0  0  0  0
   46.8010   31.1790   44.0920 S   0  0  0  0  0  0  0  0  0  0  0  0
   46.3500   34.3080   45.6950 H   0  0  0  0  0  0  0  0  0  0  0  0
   45.1850   32.4230   46.9930 H   0  0  0  0  0  0  0  0  0  0  0  0
   47.8640   35.5360   41.7990 C   0  0  0  0  0  0  0  0  0  0  0  0
   49.2460   35.3020   41.5970 C   0  0  0  0  0  0  0  0  0  0  0  0
   49.8510   34.2550   42.3050 C   0  0  0  0  0  0  0  0  0  0  0  0
   49.0780   33.5080   43.1590 N   0  0  0  0  0  0  0  0  0  0  0  0
   47.7550   33.7730   43.3170 C   0  0  0  0  0  0  0  0  0  0  0  0
   47.1550   34.7700   42.6500 N   0  0  0  0  0  0  0  0  0  0  0  0
   47.4340   36.3520   41.2350 H   0  0  0  0  0  0  0  0  0  0  0  0
   49.8730   35.8720   40.9360 H   0  0  0  0  0  0  0  0  0  0  0  0
   50.9030   34.0020   42.2150 H   0  0  0  0  0  0  0  0  0  0  0  0
  1  6  1  0  0  0  0
  2  3  1  0  0  0  0
  2  8  1  0  0  0  0
  2  1  1  0  0  0  0
  3  4  1  0  0  0  0
  4 12  1  0  0  0  0
  4 11  1  0  0  0  0
  4  5  1  0  0  0  0
  5 14  1  0  0  0  0
  6 15  1  1  0  0  0
  6 16  1  0  0  0  0
  6  5  1  0  0  0  0
  7  2  1  0  0  0  0
  9  3  1  0  0  0  0
 10  3  1  0  0  0  0
 13  5  1  0  0  0  0
 16 22  1  0  0  0  0
 17 18  2  0  0  0  0
 17 16  1  0  0  0  0
 18 19  1  0  0  0  0
 19 20  2  0  0  0  0
 19 21  1  0  0  0  0
 21 24  1  0  0  0  0
 22 23  2  0  0  0  0
 22 21  1  0  0  0  0
 25 26  2  0  0  0  0
 26 30  1  0  0  0  0
 26 27  1  0  0  0  0
 27 31  1  0  0  0  0
 28 27  2  0  0  0  0
 28  1  1  0  0  0  0
 29 25  1  0  0  0  0
 29 28  1  0  0  0  0
 32 37  1  0  0  0  0
 33 32  2  0  0  0  0
 33 34  1  0  0  0  0
 34 35  2  0  0  0  0
 35 36  1  0  0  0  0
 36 25  1  0  0  0  0
 37 36  2  0  0  0  0
 38 32  1  0  0  0  0
 39 33  1  0  0  0  0
 40 34  1  0  0  0  0
M  END
>  <minimizedAffinity>
-5.70314026

>  <minimizedRMSD>
3.91921401

$$$$
