
 OpenBabel03232515213D

 47 51  0  0  0  0  0  0  0  0999 V2000
   48.1140   30.8440   48.4350 C   0  0  0  0  0  0  0  0  0  0  0  0
   49.0370   31.3920   49.2940 C   0  0  0  0  0  0  0  0  0  0  0  0
   50.0500   30.6330   49.8160 C   0  0  0  0  0  0  0  0  0  0  0  0
   50.1250   29.2870   49.4550 C   0  0  0  0  0  0  0  0  0  0  0  0
   49.2090   28.7570   48.6070 C   0  0  0  0  0  0  0  0  0  0  0  0
   48.1940   29.5210   48.0840 C   0  0  0  0  0  0  0  0  0  0  0  0
   48.9580   32.4480   49.5630 H   0  0  0  0  0  0  0  0  0  0  0  0
   50.7900   31.0520   50.4990 H   0  0  0  0  0  0  0  0  0  0  0  0
   50.9060   28.6550   49.8430 H   0  0  0  0  0  0  0  0  0  0  0  0
   44.5330   35.7330   44.6290 C   0  0  0  0  0  0  0  0  0  0  0  0
   45.2700   35.6150   43.4410 C   0  0  0  0  0  0  0  0  0  0  0  0
   46.2470   34.6350   43.3490 C   0  0  0  0  0  0  0  0  0  0  0  0
   46.4570   33.8210   44.4090 N   0  0  0  0  0  0  0  0  0  0  0  0
   45.7240   33.9570   45.5530 C   0  0  0  0  0  0  0  0  0  0  0  0
   44.7580   34.9070   45.6810 N   0  0  0  0  0  0  0  0  0  0  0  0
   45.9360   33.1060   46.6770 N   0  0  0  0  0  0  0  0  0  0  0  0
   47.1120   32.4600   46.7580 C   0  0  0  0  0  0  0  0  0  0  0  0
   47.0680   31.7110   47.9220 C   0  0  0  0  0  0  0  0  0  0  0  0
   45.8830   31.9230   48.5040 N   0  0  0  0  0  0  0  0  0  0  0  0
   45.1790   32.7640   47.7690 C   0  0  0  0  0  0  0  0  0  0  0  0
   43.7680   36.5080   44.6890 H   0  0  0  0  0  0  0  0  0  0  0  0
   45.1170   36.2520   42.5900 H   0  0  0  0  0  0  0  0  0  0  0  0
   46.8730   34.4570   42.4810 H   0  0  0  0  0  0  0  0  0  0  0  0
   47.9890   32.4550   46.1010 H   0  0  0  0  0  0  0  0  0  0  0  0
   44.1910   33.1910   47.8740 H   0  0  0  0  0  0  0  0  0  0  0  0
   47.2390   28.9580   47.1960 N   0  0  0  0  0  0  0  0  0  0  0  0
   46.3650   28.4340   47.3470 H   0  0  0  0  0  0  0  0  0  0  0  0
   47.2540   28.9760   46.1540 H   0  0  0  0  0  0  0  0  0  0  0  0
   49.2900   27.3460   48.2290 C   0  0  0  0  0  0  0  0  0  0  0  0
   48.2880   26.5790   48.2780 O   0  0  0  0  0  0  0  0  0  0  0  0
   50.5850   26.7820   47.7730 C   0  0  0  0  0  0  0  0  0  0  0  0
   51.1010   25.6010   48.4050 C   0  0  0  0  0  0  0  0  0  0  0  0
   52.6630   25.3220   47.5150 S   0  0  0  0  0  0  0  0  0  0  0  0
   52.3850   26.8500   46.4180 C   0  0  0  0  0  0  0  0  0  0  0  0
   51.3470   27.2390   46.8360 N   0  0  0  0  0  0  0  0  0  0  0  0
   53.2860   27.2740   45.4080 N   0  0  0  0  0  0  0  0  0  0  0  0
   54.1810   27.6180   45.8040 H   0  0  0  0  0  0  0  0  0  0  0  0
   52.8260   27.1370   44.4620 H   0  0  0  0  0  0  0  0  0  0  0  0
   50.5730   24.8210   49.4470 N   0  0  0  0  0  0  0  0  0  0  0  0
   49.7480   23.7540   49.3120 C   0  0  0  0  0  0  0  0  0  0  0  0
   49.2920   23.0620   50.4150 C   0  0  0  0  0  0  0  0  0  0  0  0
   49.6590   23.4290   51.7000 C   0  0  0  0  0  0  0  0  0  0  0  0
   49.2730   22.8360   52.7410 O   0  0  0  0  0  0  0  0  0  0  0  0
   50.4870   24.5050   51.7800 N   0  0  0  0  0  0  0  0  0  0  0  0
   50.9410   25.1920   50.7000 C   0  0  0  0  0  0  0  0  0  0  0  0
   51.7130   26.1790   50.9540 O   0  0  0  0  0  0  0  0  0  0  0  0
   50.7750   24.7970   52.7570 H   0  0  0  0  0  0  0  0  0  0  0  0
  1  2  1  0  0  0  0
  2  7  1  0  0  0  0
  2  3  2  0  0  0  0
  3  8  1  0  0  0  0
  4  3  1  0  0  0  0
  4  9  1  0  0  0  0
  5  4  2  0  0  0  0
  6  1  2  0  0  0  0
  6  5  1  0  0  0  0
 10 21  1  0  0  0  0
 10 15  1  0  0  0  0
 11 10  2  0  0  0  0
 12 11  1  0  0  0  0
 12 13  2  0  0  0  0
 13 14  1  0  0  0  0
 14 15  2  0  0  0  0
 14 16  1  0  0  0  0
 16 17  1  0  0  0  0
 16 20  1  0  0  0  0
 17 18  2  0  0  0  0
 18  1  1  0  0  0  0
 18 19  1  0  0  0  0
 20 25  1  0  0  0  0
 20 19  2  0  0  0  0
 22 11  1  0  0  0  0
 23 12  1  0  0  0  0
 24 17  1  0  0  0  0
 26 27  1  0  0  0  0
 26  6  1  0  0  0  0
 28 26  1  0  0  0  0
 29 30  2  0  0  0  0
 29  5  1  0  0  0  0
 31 29  1  0  0  0  0
 31 32  2  0  0  0  0
 32 39  1  0  0  0  0
 33 32  1  0  0  0  0
 34 35  2  0  0  0  0
 34 33  1  0  0  0  0
 35 31  1  0  0  0  0
 36 37  1  0  0  0  0
 36 34  1  0  0  0  0
 38 36  1  0  0  0  0
 39 45  1  0  0  0  0
 40 39  1  0  0  0  0
 40 41  2  0  0  0  0
 41 42  1  0  0  0  0
 42 44  1  0  0  0  0
 42 43  2  0  0  0  0
 44 47  1  0  0  0  0
 45 46  2  0  0  0  0
 45 44  1  0  0  0  0
M  END
>  <minimizedAffinity>
-6.8203249

>  <minimizedRMSD>
1.78383875

$$$$
