
 OpenBabel03232520453D

 41 44  0  0  0  0  0  0  0  0999 V2000
   46.4230   34.6710   42.0440 C   0  0  0  0  0  0  0  0  0  0  0  0
   47.7240   35.0320   41.8870 C   0  0  0  0  0  0  0  0  0  0  0  0
   48.4130   34.8380   40.6850 C   0  0  0  0  0  0  0  0  0  0  0  0
   47.7480   34.2510   39.5970 C   0  0  0  0  0  0  0  0  0  0  0  0
   46.4410   33.8920   39.7650 C   0  0  0  0  0  0  0  0  0  0  0  0
   45.7900   34.1010   40.9760 C   0  0  0  0  0  0  0  0  0  0  0  0
   48.2640   35.4910   42.7200 H   0  0  0  0  0  0  0  0  0  0  0  0
   49.4420   35.1560   40.6550 H   0  0  0  0  0  0  0  0  0  0  0  0
   48.2890   34.1080   38.6790 H   0  0  0  0  0  0  0  0  0  0  0  0
   45.9280   33.4410   38.9300 H   0  0  0  0  0  0  0  0  0  0  0  0
   44.4090   36.1080   44.8800 C   0  0  0  0  0  0  0  0  0  0  0  0
   44.9550   35.9820   43.6100 C   0  0  0  0  0  0  0  0  0  0  0  0
   45.7920   34.9120   43.3310 C   0  0  0  0  0  0  0  0  0  0  0  0
   46.0370   34.0370   44.3160 N   0  0  0  0  0  0  0  0  0  0  0  0
   45.4910   34.1770   45.5620 C   0  0  0  0  0  0  0  0  0  0  0  0
   44.6820   35.2160   45.8250 N   0  0  0  0  0  0  0  0  0  0  0  0
   43.7620   36.9280   45.1100 H   0  0  0  0  0  0  0  0  0  0  0  0
   44.7590   36.6850   42.8130 H   0  0  0  0  0  0  0  0  0  0  0  0
   45.8560   33.1520   46.5020 N   0  0  0  0  0  0  0  0  0  0  0  0
   45.2010   33.2080   47.6980 C   0  0  0  0  0  0  0  0  0  0  0  0
   45.4820   32.2600   48.6780 C   0  0  0  0  0  0  0  0  0  0  0  0
   46.4360   31.2810   48.3880 C   0  0  0  0  0  0  0  0  0  0  0  0
   46.6960   30.4250   49.2600 O   0  0  0  0  0  0  0  0  0  0  0  0
   47.0560   31.2740   47.1790 N   0  0  0  0  0  0  0  0  0  0  0  0
   46.7690   32.1990   46.2490 C   0  0  0  0  0  0  0  0  0  0  0  0
   47.2740   32.2870   45.1150 O   0  0  0  0  0  0  0  0  0  0  0  0
   47.7670   30.5600   46.9380 H   0  0  0  0  0  0  0  0  0  0  0  0
   44.4290   33.7100   41.0960 N   0  0  0  0  0  0  0  0  0  0  0  0
   43.6040   34.6540   40.5440 C   0  0  0  0  0  0  0  0  0  0  0  0
   42.2180   34.4720   40.5520 C   0  0  0  0  0  0  0  0  0  0  0  0
   41.7250   33.3120   41.1340 C   0  0  0  0  0  0  0  0  0  0  0  0
   40.4870   33.0930   41.1710 O   0  0  0  0  0  0  0  0  0  0  0  0
   42.5710   32.4220   41.6580 N   0  0  0  0  0  0  0  0  0  0  0  0
   43.9030   32.6060   41.6450 C   0  0  0  0  0  0  0  0  0  0  0  0
   44.7690   31.8320   42.1090 O   0  0  0  0  0  0  0  0  0  0  0  0
   43.9050   35.5640   40.0820 H   0  0  0  0  0  0  0  0  0  0  0  0
   42.2270   31.5380   42.1030 H   0  0  0  0  0  0  0  0  0  0  0  0
   41.2840   35.4710   39.9650 C   0  0  0  0  0  0  0  0  0  0  0  0
   40.5770   35.8530   40.7390 H   0  0  0  0  0  0  0  0  0  0  0  0
   40.7450   34.9250   39.1380 H   0  0  0  0  0  0  0  0  0  0  0  0
   41.8790   36.2940   39.5240 H   0  0  0  0  0  0  0  0  0  0  0  0
  1 13  1  0  0  0  0
  2  1  1  0  0  0  0
  2  7  1  0  0  0  0
  3  2  2  0  0  0  0
  4  5  2  0  0  0  0
  4  3  1  0  0  0  0
  5  6  1  0  0  0  0
  6 28  1  0  0  0  0
  6  1  2  0  0  0  0
  8  3  1  0  0  0  0
  9  4  1  0  0  0  0
 10  5  1  0  0  0  0
 11 17  1  0  0  0  0
 11 16  1  0  0  0  0
 12 11  2  0  0  0  0
 13 12  1  0  0  0  0
 13 14  2  0  0  0  0
 14 15  1  0  0  0  0
 15 16  2  0  0  0  0
 15 19  1  0  0  0  0
 18 12  1  0  0  0  0
 19 20  1  0  0  0  0
 20 21  2  0  0  0  0
 22 21  1  0  0  0  0
 22 23  2  0  0  0  0
 24 22  1  0  0  0  0
 25 19  1  0  0  0  0
 25 24  1  0  0  0  0
 26 25  2  0  0  0  0
 27 24  1  0  0  0  0
 28 34  1  0  0  0  0
 29 30  2  0  0  0  0
 29 28  1  0  0  0  0
 30 31  1  0  0  0  0
 31 32  2  0  0  0  0
 31 33  1  0  0  0  0
 33 37  1  0  0  0  0
 34 33  1  0  0  0  0
 34 35  2  0  0  0  0
 36 29  1  0  0  0  0
 38 30  1  0  0  0  0
 38 39  1  0  0  0  0
 40 38  1  0  0  0  0
 41 38  1  0  0  0  0
M  END
>  <minimizedAffinity>
-8.22237206

>  <minimizedRMSD>
0.212035701

$$$$
