
 OpenBabel03232517253D

 27 29  0  0  0  0  0  0  0  0999 V2000
   46.2650   34.1860   43.5430 C   0  0  0  0  0  0  0  0  0  0  0  0
   45.9400   35.3700   42.9170 C   0  0  0  0  0  0  0  0  0  0  0  0
   45.0790   36.2730   43.5070 C   0  0  0  0  0  0  0  0  0  0  0  0
   44.5480   35.9670   44.7410 C   0  0  0  0  0  0  0  0  0  0  0  0
   44.8460   34.7960   45.4020 C   0  0  0  0  0  0  0  0  0  0  0  0
   45.7090   33.9260   44.7770 C   0  0  0  0  0  0  0  0  0  0  0  0
   46.3900   35.5550   41.9440 H   0  0  0  0  0  0  0  0  0  0  0  0
   44.8990   37.1640   42.9210 H   0  0  0  0  0  0  0  0  0  0  0  0
   43.8820   36.7300   45.1320 H   0  0  0  0  0  0  0  0  0  0  0  0
   44.3810   34.6440   46.3670 H   0  0  0  0  0  0  0  0  0  0  0  0
   47.5100   31.4730   41.4400 C   0  0  0  0  0  0  0  0  0  0  0  0
   48.8860   31.4780   41.6660 C   0  0  0  0  0  0  0  0  0  0  0  0
   49.3820   32.4370   42.5610 C   0  0  0  0  0  0  0  0  0  0  0  0
   48.4990   33.2980   43.1500 N   0  0  0  0  0  0  0  0  0  0  0  0
   47.1700   33.2560   42.9000 C   0  0  0  0  0  0  0  0  0  0  0  0
   46.7100   32.3440   42.0510 N   0  0  0  0  0  0  0  0  0  0  0  0
   47.0810   30.7380   40.7470 H   0  0  0  0  0  0  0  0  0  0  0  0
   49.4790   30.7510   41.1450 H   0  0  0  0  0  0  0  0  0  0  0  0
   50.4320   32.4480   42.7390 H   0  0  0  0  0  0  0  0  0  0  0  0
   45.9910   32.7240   45.5310 C   0  0  0  0  0  0  0  0  0  0  0  0
   45.8190   31.5250   45.1430 O   0  0  0  0  0  0  0  0  0  0  0  0
   46.5470   32.8490   46.9280 C   0  0  0  0  0  0  0  0  0  0  0  0
   45.3660   32.9300   47.8780 C   0  0  0  0  0  0  0  0  0  0  0  0
   44.9160   31.5400   48.1970 C   0  0  0  0  0  0  0  0  0  0  0  0
   45.9590   30.9250   49.1070 C   0  0  0  0  0  0  0  0  0  0  0  0
   47.3120   31.4680   48.7620 C   0  0  0  0  0  0  0  0  0  0  0  0
   47.4730   31.7240   47.2800 C   0  0  0  0  0  0  0  0  0  0  0  0
  1  6  1  0  0  0  0
  2  3  1  0  0  0  0
  2  1  2  0  0  0  0
  3  4  2  0  0  0  0
  4  9  1  0  0  0  0
  4  5  1  0  0  0  0
  5 10  1  0  0  0  0
  6  5  2  0  0  0  0
  6 20  1  0  0  0  0
  7  2  1  0  0  0  0
  8  3  1  0  0  0  0
 11 12  2  0  0  0  0
 11 16  1  0  0  0  0
 12 13  1  0  0  0  0
 13 19  1  0  0  0  0
 13 14  2  0  0  0  0
 15 14  1  0  0  0  0
 15  1  1  0  0  0  0
 16 15  2  0  0  0  0
 17 11  1  0  0  0  0
 18 12  1  0  0  0  0
 20 22  1  0  0  0  0
 21 20  2  0  0  0  0
 22 27  1  0  0  0  0
 22 23  1  0  0  0  0
 23 24  1  0  0  0  0
 24 25  1  0  0  0  0
 26 25  1  0  0  0  0
 27 26  1  0  0  0  0
M  END
>  <minimizedAffinity>
-5.69635248

>  <minimizedRMSD>
5.69652319

$$$$
