
 OpenBabel03232521013D

 45 49  0  0  1  0  0  0  0  0999 V2000
   45.4000   32.9320   47.5240 C   0  0  0  0  0  0  0  0  0  0  0  0
   45.9110   32.6500   46.2980 C   0  0  0  0  0  0  0  0  0  0  0  0
   46.1300   31.2900   46.0590 C   0  0  0  0  0  0  0  0  0  0  0  0
   45.8610   30.3100   46.9590 N   0  0  0  0  0  0  0  0  0  0  0  0
   45.3400   30.6500   48.1980 C   0  0  0  0  0  0  0  0  0  0  0  0
   45.1250   31.9380   48.4470 N   0  0  0  0  0  0  0  0  0  0  0  0
   45.0570   29.6560   49.1660 N   0  0  0  0  0  0  0  0  0  0  0  0
   45.1980   33.9500   47.8160 H   0  0  0  0  0  0  0  0  0  0  0  0
   45.1530   29.8640   50.1860 H   0  0  0  0  0  0  0  0  0  0  0  0
   44.7480   28.7070   48.8040 H   0  0  0  0  0  0  0  0  0  0  0  0
   46.1550   33.5860   45.2540 C   0  0  2  0  0  0  0  0  0  0  0  0
   44.9630   34.6980   45.4900 C   0  0  0  0  0  0  0  0  0  0  0  0
   44.7290   35.6190   44.4140 C   0  0  0  0  0  0  0  0  0  0  0  0
   45.5140   35.5220   43.1780 C   0  0  1  0  0  0  0  0  0  0  0  0
   46.5550   34.5020   43.1250 C   0  0  0  0  0  0  0  0  0  0  0  0
   46.0980   33.2850   43.8940 C   0  0  0  0  0  0  0  0  0  0  0  0
   46.9810   34.2930   45.5580 H   0  0  0  0  0  0  0  0  0  0  0  0
   44.3030   34.8620   46.3320 H   0  0  0  0  0  0  0  0  0  0  0  0
   43.9720   36.3510   44.5270 H   0  0  0  0  0  0  0  0  0  0  0  0
   45.9580   36.5180   42.9440 H   0  0  0  0  0  0  0  0  0  0  0  0
   47.5080   34.8910   43.5500 H   0  0  0  0  0  0  0  0  0  0  0  0
   46.7830   34.2800   42.0490 H   0  0  0  0  0  0  0  0  0  0  0  0
   46.9370   32.6200   43.5590 H   0  0  0  0  0  0  0  0  0  0  0  0
   45.1450   32.9300   43.4500 H   0  0  0  0  0  0  0  0  0  0  0  0
   44.4780   35.2580   42.0430 C   0  0  0  0  0  0  0  0  0  0  0  0
   43.4280   34.4580   42.4540 F   0  0  0  0  0  0  0  0  0  0  0  0
   43.9270   36.4970   41.7220 F   0  0  0  0  0  0  0  0  0  0  0  0
   45.1340   34.8010   40.9160 F   0  0  0  0  0  0  0  0  0  0  0  0
   46.7160   30.5700   44.9410 C   0  0  0  0  0  0  0  0  0  0  0  0
   46.3240   29.7740   43.9150 C   0  0  0  0  0  0  0  0  0  0  0  0
   47.4660   29.3740   43.2110 C   0  0  0  0  0  0  0  0  0  0  0  0
   48.4950   29.9450   43.8400 N   0  0  0  0  0  0  0  0  0  0  0  0
   48.0750   30.6540   44.8640 N   0  0  0  0  0  0  0  0  0  0  0  0
   45.2700   29.5860   43.8090 H   0  0  0  0  0  0  0  0  0  0  0  0
   47.3900   28.7340   42.3530 H   0  0  0  0  0  0  0  0  0  0  0  0
   53.1810   31.4840   41.0210 H   0  0  0  0  0  0  0  0  0  0  0  0
   52.2370   31.3660   41.4650 N   0  0  0  0  0  0  0  0  0  0  0  0
   51.2050   32.2160   41.3110 C   0  0  0  0  0  3  0  0  0  0  0  0
   50.1340   31.7640   42.0210 N   0  0  0  0  0  0  0  0  0  0  0  0
   50.5470   30.6430   42.5910 C   0  0  0  0  0  0  0  0  0  0  0  0
   49.8650   29.7760   43.4190 C   0  0  0  0  0  0  0  0  0  0  0  0
   50.5250   28.6810   43.8760 N   0  0  0  0  0  0  0  0  0  0  0  0
   51.8050   28.4360   43.5380 C   0  0  0  0  0  3  0  0  0  0  0  0
   52.5210   29.2620   42.7230 N   0  0  0  0  0  0  0  0  0  0  0  0
   51.8470   30.3600   42.2710 C   0  0  0  0  0  0  0  0  0  0  0  0
  1  8  1  0  0  0  0
  1  6  1  0  0  0  0
  2  1  2  0  0  0  0
  3  2  1  0  0  0  0
  3  4  2  0  0  0  0
  4  5  1  0  0  0  0
  5  6  2  0  0  0  0
  5  7  1  0  0  0  0
  7  9  1  0  0  0  0
 10  7  1  0  0  0  0
 11 12  1  0  0  0  0
 11 17  1  1  0  0  0
 11  2  1  0  0  0  0
 12 18  1  0  0  0  0
 13 19  1  0  0  0  0
 13 12  2  0  0  0  0
 14 20  1  6  0  0  0
 14 13  1  0  0  0  0
 15 14  1  0  0  0  0
 15 21  1  0  0  0  0
 15 16  1  0  0  0  0
 16 11  1  0  0  0  0
 22 15  1  0  0  0  0
 23 16  1  0  0  0  0
 24 16  1  0  0  0  0
 25 26  1  0  0  0  0
 25 14  1  0  0  0  0
 27 25  1  0  0  0  0
 28 25  1  0  0  0  0
 29  3  1  0  0  0  0
 30 29  1  0  0  0  0
 31 32  1  0  0  0  0
 31 30  2  0  0  0  0
 32 33  1  0  0  0  0
 33 29  2  0  0  0  0
 34 30  1  0  0  0  0
 35 31  1  0  0  0  0
 36 37  1  0  0  0  0
 37 45  1  0  0  0  0
 38 37  1  0  0  0  0
 38 39  2  0  0  0  0
 39 40  1  0  0  0  0
 40 41  1  0  0  0  0
 41 32  1  0  0  0  0
 41 42  2  0  0  0  0
 43 42  1  0  0  0  0
 44 43  2  0  0  0  0
 45 40  2  0  0  0  0
 45 44  1  0  0  0  0
M  END
>  <minimizedAffinity>
-6.41053677

>  <minimizedRMSD>
0.262127012

$$$$
