
 OpenBabel03232517103D

 33 36  0  0  0  0  0  0  0  0999 V2000
   46.2850   32.7260   46.8770 C   0  0  0  0  0  0  0  0  0  0  0  0
   45.4260   32.5740   47.9560 C   0  0  0  0  0  0  0  0  0  0  0  0
   46.1460   31.7780   48.8380 C   0  0  0  0  0  0  0  0  0  0  0  0
   47.3710   31.4890   48.2750 C   0  0  0  0  0  0  0  0  0  0  0  0
   47.3940   32.0800   47.1120 O   0  0  0  0  0  0  0  0  0  0  0  0
   44.4710   33.0330   47.9410 H   0  0  0  0  0  0  0  0  0  0  0  0
   45.7120   31.4900   49.7910 H   0  0  0  0  0  0  0  0  0  0  0  0
   48.3780   30.6940   48.8920 N   0  0  0  0  0  0  0  0  0  0  0  0
   49.1590   31.0440   49.9310 C   0  0  0  0  0  0  0  0  0  0  0  0
   50.0900   30.1600   50.4150 C   0  0  0  0  0  0  0  0  0  0  0  0
   50.2440   28.9050   49.8490 C   0  0  0  0  0  0  0  0  0  0  0  0
   51.2010   27.9390   50.3110 N   0  0  0  0  0  0  0  0  0  0  0  0
   49.4490   28.5820   48.8080 N   0  0  0  0  0  0  0  0  0  0  0  0
   48.5300   29.4590   48.3340 C   0  0  0  0  0  0  0  0  0  0  0  0
   47.8290   29.0640   47.3530 O   0  0  0  0  0  0  0  0  0  0  0  0
   52.2330   27.9930   50.5240 H   0  0  0  0  0  0  0  0  0  0  0  0
   50.8090   26.9840   50.4730 H   0  0  0  0  0  0  0  0  0  0  0  0
   46.6640   34.0690   43.5950 C   0  0  0  0  0  0  0  0  0  0  0  0
   45.5300   34.7390   44.0460 C   0  0  0  0  0  0  0  0  0  0  0  0
   45.2560   34.3080   45.3410 C   0  0  0  0  0  0  0  0  0  0  0  0
   46.2210   33.4020   45.6270 N   0  0  0  0  0  0  0  0  0  0  0  0
   47.0450   33.2590   44.6090 N   0  0  0  0  0  0  0  0  0  0  0  0
   44.9460   35.4670   43.5180 H   0  0  0  0  0  0  0  0  0  0  0  0
   44.4220   34.6730   45.9290 H   0  0  0  0  0  0  0  0  0  0  0  0
   48.7010   35.4020   40.8350 C   0  0  0  0  0  0  0  0  0  0  0  0
   48.1490   34.7220   39.7210 C   0  0  0  0  0  0  0  0  0  0  0  0
   47.1050   33.8360   39.9500 C   0  0  0  0  0  0  0  0  0  0  0  0
   46.6520   33.6520   41.2200 N   0  0  0  0  0  0  0  0  0  0  0  0
   47.2000   34.3150   42.2550 C   0  0  0  0  0  0  0  0  0  0  0  0
   48.2210   35.1930   42.0970 N   0  0  0  0  0  0  0  0  0  0  0  0
   49.5210   36.1110   40.7410 H   0  0  0  0  0  0  0  0  0  0  0  0
   48.5620   34.9220   38.7490 H   0  0  0  0  0  0  0  0  0  0  0  0
   46.6700   33.3080   39.1130 H   0  0  0  0  0  0  0  0  0  0  0  0
  1  5  1  0  0  0  0
  1  2  2  0  0  0  0
  2  3  1  0  0  0  0
  3  7  1  0  0  0  0
  4  3  2  0  0  0  0
  4  8  1  0  0  0  0
  5  4  1  0  0  0  0
  6  2  1  0  0  0  0
  8  9  1  0  0  0  0
  9 10  2  0  0  0  0
 11 12  1  0  0  0  0
 11 10  1  0  0  0  0
 12 17  1  0  0  0  0
 12 16  1  0  0  0  0
 13 11  2  0  0  0  0
 14 13  1  0  0  0  0
 14  8  1  0  0  0  0
 15 14  2  0  0  0  0
 18 19  1  0  0  0  0
 18 22  2  0  0  0  0
 19 20  2  0  0  0  0
 20 21  1  0  0  0  0
 20 24  1  0  0  0  0
 21  1  1  0  0  0  0
 22 21  1  0  0  0  0
 23 19  1  0  0  0  0
 25 30  1  0  0  0  0
 26 27  1  0  0  0  0
 26 25  2  0  0  0  0
 27 28  2  0  0  0  0
 28 29  1  0  0  0  0
 29 18  1  0  0  0  0
 30 29  2  0  0  0  0
 31 25  1  0  0  0  0
 32 26  1  0  0  0  0
 33 27  1  0  0  0  0
M  END
>  <minimizedAffinity>
-6.13572645

>  <minimizedRMSD>
1.07975304

$$$$
