
 OpenBabel03232519093D

 46 49  0  0  1  0  0  0  0  0999 V2000
   46.0330   31.9390   42.2660 C   0  0  0  0  0  0  0  0  0  0  0  0
   46.7430   32.1880   45.8600 C   0  0  0  0  0  0  0  0  0  0  0  0
   46.0350   33.3010   46.1580 C   0  0  0  0  0  0  0  0  0  0  0  0
   45.3240   33.7610   44.5760 S   0  0  0  0  0  0  0  0  0  0  0  0
   46.1590   32.2720   43.7190 C   0  0  0  0  0  0  0  0  0  0  0  0
   46.6830   31.8460   44.6340 N   0  0  0  0  0  0  0  0  0  0  0  0
   45.9360   33.8110   47.2140 H   0  0  0  0  0  0  0  0  0  0  0  0
   48.4640   31.3010   49.1310 C   0  0  0  0  0  0  0  0  0  0  0  0
   47.7470   32.0160   48.1750 C   0  0  0  0  0  0  0  0  0  0  0  0
   47.4970   31.4790   46.9090 C   0  0  0  0  0  0  0  0  0  0  0  0
   48.0080   30.2490   46.7340 N   0  0  0  0  0  0  0  0  0  0  0  0
   48.6970   29.5320   47.6200 C   0  0  0  0  0  0  0  0  0  0  0  0
   48.9090   30.0870   48.8100 N   0  0  0  0  0  0  0  0  0  0  0  0
   48.6460   31.7270   50.0960 H   0  0  0  0  0  0  0  0  0  0  0  0
   47.3630   33.0060   48.3850 H   0  0  0  0  0  0  0  0  0  0  0  0
   49.0520   28.5480   47.3470 H   0  0  0  0  0  0  0  0  0  0  0  0
   44.6630   31.3410   42.0600 C   0  0  0  0  0  0  0  0  0  0  0  0
   44.4500   31.2490   40.9980 H   0  0  0  0  0  0  0  0  0  0  0  0
   43.9250   31.9700   42.5880 H   0  0  0  0  0  0  0  0  0  0  0  0
   44.6690   30.3120   42.4930 H   0  0  0  0  0  0  0  0  0  0  0  0
   47.1010   30.9480   41.9550 C   0  0  0  0  0  0  0  0  0  0  0  0
   48.0650   31.2770   42.3800 H   0  0  0  0  0  0  0  0  0  0  0  0
   46.8390   29.9430   42.3560 H   0  0  0  0  0  0  0  0  0  0  0  0
   47.2130   30.9140   40.8510 H   0  0  0  0  0  0  0  0  0  0  0  0
   46.2120   33.1550   41.4470 C   0  0  1  0  0  0  0  0  0  0  0  0
   45.9860   32.7850   40.4050 H   0  0  0  0  0  0  0  0  0  0  0  0
   45.1720   34.1890   41.6020 N   0  0  0  0  0  0  0  0  0  0  0  0
   45.2840   35.3400   42.3280 C   0  0  0  0  0  0  0  0  0  0  0  0
   44.1590   36.0740   42.2490 N   0  0  0  0  0  0  0  0  0  0  0  0
   43.2860   35.4200   41.4710 C   0  0  0  0  0  0  0  0  0  0  0  0
   42.0010   35.6790   41.0360 C   0  0  0  0  0  0  0  0  0  0  0  0
   41.5100   36.5980   41.3520 H   0  0  0  0  0  0  0  0  0  0  0  0
   41.3820   34.7990   40.2330 N   0  0  0  0  0  0  0  0  0  0  0  0
   41.9980   33.6730   39.8510 C   0  0  0  0  0  0  0  0  0  0  0  0
   43.2440   33.4440   40.2870 N   0  0  0  0  0  0  0  0  0  0  0  0
   43.9300   34.2740   41.0900 C   0  0  0  0  0  0  0  0  0  0  0  0
   47.5120   33.7050   41.5010 N   0  0  0  0  0  0  0  0  0  0  0  0
   48.6610   34.2460   42.0940 C   0  0  0  0  0  0  0  0  0  0  0  0
   49.7940   34.7820   42.1190 O   0  0  0  0  0  0  0  0  0  0  0  0
   48.5820   34.2030   43.5290 N   0  0  0  0  0  0  0  0  0  0  0  0
   48.1850   34.9270   44.1380 H   0  0  0  0  0  0  0  0  0  0  0  0
   48.9280   33.4150   44.1190 H   0  0  0  0  0  0  0  0  0  0  0  0
   48.1890   33.9840   40.2090 C   0  0  0  0  0  0  0  0  0  0  0  0
   47.1640   33.7920   39.2560 F   0  0  0  0  0  0  0  0  0  0  0  0
   49.2010   33.2180   39.9690 F   0  0  0  0  0  0  0  0  0  0  0  0
   48.4490   35.3690   40.1640 F   0  0  0  0  0  0  0  0  0  0  0  0
  1  5  1  0  0  0  0
  2  3  2  0  0  0  0
  2 10  1  0  0  0  0
  3  7  1  0  0  0  0
  4  3  1  0  0  0  0
  5  4  1  0  0  0  0
  5  6  2  0  0  0  0
  6  2  1  0  0  0  0
  8 14  1  0  0  0  0
  9 15  1  0  0  0  0
  9  8  2  0  0  0  0
 10  9  1  0  0  0  0
 11 10  2  0  0  0  0
 11 12  1  0  0  0  0
 12 13  2  0  0  0  0
 13  8  1  0  0  0  0
 16 12  1  0  0  0  0
 17  1  1  0  0  0  0
 17 20  1  0  0  0  0
 17 19  1  0  0  0  0
 18 17  1  0  0  0  0
 21  1  1  0  0  0  0
 21 23  1  0  0  0  0
 21 22  1  0  0  0  0
 24 21  1  0  0  0  0
 25 26  1  6  0  0  0
 25 37  1  0  0  0  0
 25 27  1  0  0  0  0
 25  1  1  0  0  0  0
 27 28  1  0  0  0  0
 29 28  2  0  0  0  0
 30 29  1  0  0  0  0
 31 32  1  0  0  0  0
 31 30  2  0  0  0  0
 33 31  1  0  0  0  0
 34 33  2  0  0  0  0
 34 35  1  0  0  0  0
 35 36  2  0  0  0  0
 36 30  1  0  0  0  0
 36 27  1  0  0  0  0
 37 38  1  0  0  0  0
 38 39  2  0  0  0  0
 38 40  1  0  0  0  0
 40 42  1  0  0  0  0
 40 41  1  0  0  0  0
 43 37  1  0  0  0  0
 44 43  1  0  0  0  0
 45 43  1  0  0  0  0
 46 43  1  0  0  0  0
M  END
>  <minimizedAffinity>
-6.05459642

>  <minimizedRMSD>
1.86382413

$$$$
