
 OpenBabel03232520143D

 35 37  0  0  0  0  0  0  0  0999 V2000
   47.5390   34.0530   42.2060 C   0  0  0  0  0  0  0  0  0  0  0  0
   48.4530   35.1870   41.7700 C   0  0  0  0  0  0  0  0  0  0  0  0
   49.7900   35.2460   42.4040 C   0  0  0  0  0  0  0  0  0  0  0  0
   50.4620   33.9080   42.4740 C   0  0  0  0  0  0  0  0  0  0  0  0
   49.5590   32.7340   42.1530 C   0  0  0  0  0  0  0  0  0  0  0  0
   48.2710   32.9730   42.9050 C   0  0  0  0  0  0  0  0  0  0  0  0
   48.6360   35.1010   40.6790 H   0  0  0  0  0  0  0  0  0  0  0  0
   47.9360   36.1660   41.9840 H   0  0  0  0  0  0  0  0  0  0  0  0
   50.4030   35.9530   41.8370 H   0  0  0  0  0  0  0  0  0  0  0  0
   49.7160   35.6520   43.4500 H   0  0  0  0  0  0  0  0  0  0  0  0
   51.2840   33.8650   41.7240 H   0  0  0  0  0  0  0  0  0  0  0  0
   50.9460   33.7280   43.4620 H   0  0  0  0  0  0  0  0  0  0  0  0
   49.3840   32.6250   41.0730 H   0  0  0  0  0  0  0  0  0  0  0  0
   50.0280   31.8230   42.5790 H   0  0  0  0  0  0  0  0  0  0  0  0
   47.7850   32.0210   43.0450 H   0  0  0  0  0  0  0  0  0  0  0  0
   48.6130   33.3830   43.9140 H   0  0  0  0  0  0  0  0  0  0  0  0
   46.8120   33.6290   41.0400 N   0  0  0  0  0  0  0  0  0  0  0  0
   45.6890   32.9170   41.3680 C   0  0  0  0  0  0  0  0  0  0  0  0
   44.8050   32.3850   40.4630 C   0  0  0  0  0  0  0  0  0  0  0  0
   45.0370   32.5650   39.1100 C   0  0  0  0  0  0  0  0  0  0  0  0
   44.1670   32.0430   38.1250 N   0  0  0  0  0  0  0  0  0  0  0  0
   46.1480   33.2700   38.7780 N   0  0  0  0  0  0  0  0  0  0  0  0
   46.9540   33.7520   39.7170 C   0  0  0  0  0  0  0  0  0  0  0  0
   47.9640   34.3950   39.3500 O   0  0  0  0  0  0  0  0  0  0  0  0
   43.9400   31.0190   38.1100 H   0  0  0  0  0  0  0  0  0  0  0  0
   43.8460   32.8150   37.4990 H   0  0  0  0  0  0  0  0  0  0  0  0
   45.2880   34.4250   45.1370 C   0  0  0  0  0  0  0  0  0  0  0  0
   44.5650   35.6010   44.8310 C   0  0  0  0  0  0  0  0  0  0  0  0
   44.8590   36.2590   43.6250 C   0  0  0  0  0  0  0  0  0  0  0  0
   45.8190   35.7140   42.8370 N   0  0  0  0  0  0  0  0  0  0  0  0
   46.4940   34.6010   43.1380 C   0  0  0  0  0  0  0  0  0  0  0  0
   46.2120   33.9710   44.2960 N   0  0  0  0  0  0  0  0  0  0  0  0
   45.0490   33.9400   46.0570 H   0  0  0  0  0  0  0  0  0  0  0  0
   43.8040   36.0190   45.4700 H   0  0  0  0  0  0  0  0  0  0  0  0
   44.3500   37.1680   43.3120 H   0  0  0  0  0  0  0  0  0  0  0  0
  1  6  1  0  0  0  0
  1 31  1  0  0  0  0
  2  8  1  0  0  0  0
  2  1  1  0  0  0  0
  2  3  1  0  0  0  0
  3  4  1  0  0  0  0
  3 10  1  0  0  0  0
  4 12  1  0  0  0  0
  5  4  1  0  0  0  0
  5 14  1  0  0  0  0
  5  6  1  0  0  0  0
  6 15  1  0  0  0  0
  6 16  1  0  0  0  0
  7  2  1  0  0  0  0
  9  3  1  0  0  0  0
 11  4  1  0  0  0  0
 13  5  1  0  0  0  0
 17 18  1  0  0  0  0
 17  1  1  0  0  0  0
 19 18  2  0  0  0  0
 20 19  1  0  0  0  0
 21 20  1  0  0  0  0
 22 20  2  0  0  0  0
 22 23  1  0  0  0  0
 23 17  1  0  0  0  0
 24 23  2  0  0  0  0
 25 21  1  0  0  0  0
 26 21  1  0  0  0  0
 27 33  1  0  0  0  0
 28 27  1  0  0  0  0
 28 34  1  0  0  0  0
 29 28  2  0  0  0  0
 30 31  2  0  0  0  0
 30 29  1  0  0  0  0
 31 32  1  0  0  0  0
 32 27  2  0  0  0  0
 35 29  1  0  0  0  0
M  END
>  <minimizedAffinity>
-5.70072699

>  <minimizedRMSD>
0.624259531

$$$$
