
 OpenBabel03232519233D

 38 41  0  0  1  0  0  0  0  0999 V2000
   47.0300   30.7780   47.5720 N   0  0  0  0  0  0  0  0  0  0  0  0
   47.0340   31.1150   49.0020 C   0  0  0  0  0  0  0  0  0  0  0  0
   45.8940   32.0720   49.0850 C   0  0  0  0  0  0  0  0  0  0  0  0
   44.8380   31.4360   48.2370 C   0  0  0  0  0  0  0  0  0  0  0  0
   45.7070   30.7220   47.1800 C   0  0  2  0  0  0  0  0  0  0  0  0
   47.6800   31.4530   47.1640 H   0  0  0  0  0  0  0  0  0  0  0  0
   47.9550   31.6430   49.3090 H   0  0  0  0  0  0  0  0  0  0  0  0
   46.9120   30.2210   49.6250 H   0  0  0  0  0  0  0  0  0  0  0  0
   46.1830   33.0370   48.6310 H   0  0  0  0  0  0  0  0  0  0  0  0
   45.4910   32.1970   50.1110 H   0  0  0  0  0  0  0  0  0  0  0  0
   44.2730   30.7560   48.8650 H   0  0  0  0  0  0  0  0  0  0  0  0
   44.2030   32.1650   47.6960 H   0  0  0  0  0  0  0  0  0  0  0  0
   45.1310   29.3410   47.1200 C   0  0  0  0  0  0  0  0  0  0  0  0
   45.1600   28.1670   47.8600 C   0  0  0  0  0  0  0  0  0  0  0  0
   44.3840   27.2470   47.2250 C   0  0  0  0  0  0  0  0  0  0  0  0
   43.8800   27.8330   46.1110 N   0  0  0  0  0  0  0  0  0  0  0  0
   44.3310   29.0900   46.0520 N   0  0  0  0  0  0  0  0  0  0  0  0
   45.7690   28.2130   48.7590 H   0  0  0  0  0  0  0  0  0  0  0  0
   44.2690   26.2610   47.6340 H   0  0  0  0  0  0  0  0  0  0  0  0
   43.2450   27.3310   45.4430 H   0  0  0  0  0  0  0  0  0  0  0  0
   45.5340   31.1950   45.9020 O   0  0  0  0  0  0  0  0  0  0  0  0
   46.3760   32.1540   45.2410 C   0  0  0  0  0  0  0  0  0  0  0  0
   47.5260   31.8510   44.9660 O   0  0  0  0  0  0  0  0  0  0  0  0
   44.6170   35.3340   45.6380 C   0  0  0  0  0  0  0  0  0  0  0  0
   44.5280   35.8200   44.3300 C   0  0  0  0  0  0  0  0  0  0  0  0
   45.0720   35.0550   43.3160 C   0  0  0  0  0  0  0  0  0  0  0  0
   45.6640   33.8660   43.6560 N   0  0  0  0  0  0  0  0  0  0  0  0
   45.7140   33.4540   44.9640 C   0  0  0  0  0  0  0  0  0  0  0  0
   45.2020   34.1750   45.9270 N   0  0  0  0  0  0  0  0  0  0  0  0
   44.1710   35.9850   46.3830 H   0  0  0  0  0  0  0  0  0  0  0  0
   44.0520   36.7630   44.1060 H   0  0  0  0  0  0  0  0  0  0  0  0
   45.0390   35.4360   41.9960 O   0  0  0  0  0  0  0  0  0  0  0  0
   43.9480   35.0670   41.2240 C   0  0  0  0  0  0  0  0  0  0  0  0
   43.9470   34.1050   40.2860 N   0  0  0  0  0  0  0  0  0  0  0  0
   42.7640   34.0340   39.7720 O   0  0  0  0  0  0  0  0  0  0  0  0
   41.9600   34.9160   40.3310 C   0  0  0  0  0  0  0  0  0  0  0  0
   40.9300   35.0050   40.0290 H   0  0  0  0  0  0  0  0  0  0  0  0
   42.7120   35.5640   41.2460 N   0  0  0  0  0  0  0  0  0  0  0  0
  1  2  1  0  0  0  0
  2  3  1  0  0  0  0
  2  7  1  0  0  0  0
  2  8  1  0  0  0  0
  3 10  1  0  0  0  0
  4 11  1  0  0  0  0
  4  3  1  0  0  0  0
  5 21  1  6  0  0  0
  5  1  1  0  0  0  0
  5  4  1  0  0  0  0
  6  1  1  0  0  0  0
  9  3  1  0  0  0  0
 12  4  1  0  0  0  0
 13  5  1  0  0  0  0
 13 14  1  0  0  0  0
 14 18  1  0  0  0  0
 15 19  1  0  0  0  0
 15 14  2  0  0  0  0
 16 15  1  0  0  0  0
 17 16  1  0  0  0  0
 17 13  2  0  0  0  0
 20 16  1  0  0  0  0
 22 21  1  0  0  0  0
 23 22  2  0  0  0  0
 24 29  1  0  0  0  0
 24 30  1  0  0  0  0
 25 24  2  0  0  0  0
 26 27  2  0  0  0  0
 26 25  1  0  0  0  0
 27 28  1  0  0  0  0
 28 22  1  0  0  0  0
 28 29  2  0  0  0  0
 31 25  1  0  0  0  0
 32 26  1  0  0  0  0
 33 38  1  0  0  0  0
 33 32  1  0  0  0  0
 34 33  2  0  0  0  0
 35 34  1  0  0  0  0
 35 36  1  0  0  0  0
 36 38  2  0  0  0  0
 37 36  1  0  0  0  0
M  END
>  <minimizedAffinity>
-5.53826857

>  <minimizedRMSD>
1.51048124

$$$$
