
 OpenBabel03232521003D

 45 49  0  0  1  0  0  0  0  0999 V2000
   45.3990   32.9320   47.5200 C   0  0  0  0  0  0  0  0  0  0  0  0
   45.9100   32.6490   46.2950 C   0  0  0  0  0  0  0  0  0  0  0  0
   46.1290   31.2890   46.0570 C   0  0  0  0  0  0  0  0  0  0  0  0
   45.8610   30.3100   46.9580 N   0  0  0  0  0  0  0  0  0  0  0  0
   45.3390   30.6510   48.1970 C   0  0  0  0  0  0  0  0  0  0  0  0
   45.1230   31.9390   48.4450 N   0  0  0  0  0  0  0  0  0  0  0  0
   45.0560   29.6580   49.1660 N   0  0  0  0  0  0  0  0  0  0  0  0
   45.1960   33.9500   47.8120 H   0  0  0  0  0  0  0  0  0  0  0  0
   45.1520   29.8660   50.1860 H   0  0  0  0  0  0  0  0  0  0  0  0
   44.7470   28.7080   48.8050 H   0  0  0  0  0  0  0  0  0  0  0  0
   46.1540   33.5850   45.2500 C   0  0  2  0  0  0  0  0  0  0  0  0
   44.9640   34.6980   45.4870 C   0  0  0  0  0  0  0  0  0  0  0  0
   44.7300   35.6190   44.4110 C   0  0  0  0  0  0  0  0  0  0  0  0
   45.5130   35.5200   43.1740 C   0  0  1  0  0  0  0  0  0  0  0  0
   46.5520   34.4990   43.1210 C   0  0  0  0  0  0  0  0  0  0  0  0
   46.0940   33.2820   43.8910 C   0  0  0  0  0  0  0  0  0  0  0  0
   46.9810   34.2900   45.5530 H   0  0  0  0  0  0  0  0  0  0  0  0
   44.3050   34.8640   46.3310 H   0  0  0  0  0  0  0  0  0  0  0  0
   43.9740   36.3530   44.5260 H   0  0  0  0  0  0  0  0  0  0  0  0
   45.9590   36.5150   42.9390 H   0  0  0  0  0  0  0  0  0  0  0  0
   47.5060   34.8870   43.5440 H   0  0  0  0  0  0  0  0  0  0  0  0
   46.7780   34.2760   42.0440 H   0  0  0  0  0  0  0  0  0  0  0  0
   46.9320   32.6160   43.5540 H   0  0  0  0  0  0  0  0  0  0  0  0
   45.1400   32.9300   43.4480 H   0  0  0  0  0  0  0  0  0  0  0  0
   44.4760   35.2580   42.0410 C   0  0  0  0  0  0  0  0  0  0  0  0
   43.4250   34.4580   42.4530 F   0  0  0  0  0  0  0  0  0  0  0  0
   43.9230   36.4970   41.7220 F   0  0  0  0  0  0  0  0  0  0  0  0
   45.1290   34.8020   40.9130 F   0  0  0  0  0  0  0  0  0  0  0  0
   46.7160   30.5680   44.9400 C   0  0  0  0  0  0  0  0  0  0  0  0
   46.3250   29.7700   43.9150 C   0  0  0  0  0  0  0  0  0  0  0  0
   47.4670   29.3700   43.2120 C   0  0  0  0  0  0  0  0  0  0  0  0
   48.4960   29.9440   43.8400 N   0  0  0  0  0  0  0  0  0  0  0  0
   48.0750   30.6540   44.8620 N   0  0  0  0  0  0  0  0  0  0  0  0
   45.2710   29.5810   43.8100 H   0  0  0  0  0  0  0  0  0  0  0  0
   47.3910   28.7290   42.3550 H   0  0  0  0  0  0  0  0  0  0  0  0
   53.1820   31.4860   41.0220 H   0  0  0  0  0  0  0  0  0  0  0  0
   52.2360   31.3660   41.4650 N   0  0  0  0  0  0  0  0  0  0  0  0
   51.2050   32.2160   41.3110 C   0  0  0  0  0  3  0  0  0  0  0  0
   50.1350   31.7640   42.0200 N   0  0  0  0  0  0  0  0  0  0  0  0
   50.5470   30.6420   42.5900 C   0  0  0  0  0  0  0  0  0  0  0  0
   49.8660   29.7750   43.4180 C   0  0  0  0  0  0  0  0  0  0  0  0
   50.5250   28.6810   43.8770 N   0  0  0  0  0  0  0  0  0  0  0  0
   51.8060   28.4360   43.5400 C   0  0  0  0  0  3  0  0  0  0  0  0
   52.5230   29.2630   42.7250 N   0  0  0  0  0  0  0  0  0  0  0  0
   51.8480   30.3600   42.2710 C   0  0  0  0  0  0  0  0  0  0  0  0
  1  8  1  0  0  0  0
  1  6  1  0  0  0  0
  2  1  2  0  0  0  0
  3  2  1  0  0  0  0
  3  4  2  0  0  0  0
  4  5  1  0  0  0  0
  5  6  2  0  0  0  0
  5  7  1  0  0  0  0
  7  9  1  0  0  0  0
 10  7  1  0  0  0  0
 11 12  1  0  0  0  0
 11 17  1  1  0  0  0
 11  2  1  0  0  0  0
 12 18  1  0  0  0  0
 13 19  1  0  0  0  0
 13 12  2  0  0  0  0
 14 20  1  6  0  0  0
 14 13  1  0  0  0  0
 15 14  1  0  0  0  0
 15 21  1  0  0  0  0
 15 16  1  0  0  0  0
 16 11  1  0  0  0  0
 22 15  1  0  0  0  0
 23 16  1  0  0  0  0
 24 16  1  0  0  0  0
 25 26  1  0  0  0  0
 25 14  1  0  0  0  0
 27 25  1  0  0  0  0
 28 25  1  0  0  0  0
 29  3  1  0  0  0  0
 30 29  1  0  0  0  0
 31 32  1  0  0  0  0
 31 30  2  0  0  0  0
 32 33  1  0  0  0  0
 33 29  2  0  0  0  0
 34 30  1  0  0  0  0
 35 31  1  0  0  0  0
 36 37  1  0  0  0  0
 37 45  1  0  0  0  0
 38 37  1  0  0  0  0
 38 39  2  0  0  0  0
 39 40  1  0  0  0  0
 40 41  1  0  0  0  0
 41 32  1  0  0  0  0
 41 42  2  0  0  0  0
 43 42  1  0  0  0  0
 44 43  2  0  0  0  0
 45 40  2  0  0  0  0
 45 44  1  0  0  0  0
M  END
>  <minimizedAffinity>
-6.40931368

>  <minimizedRMSD>
0.833677828

$$$$
