
 OpenBabel03232520053D

 34 37  0  0  0  0  0  0  0  0999 V2000
   46.1830   30.3760   49.1340 N   0  0  0  0  0  0  0  0  0  0  0  0
   45.3000   31.3880   49.4330 C   0  0  0  0  0  0  0  0  0  0  0  0
   45.2320   32.2190   48.3580 N   0  0  0  0  0  0  0  0  0  0  0  0
   46.0720   31.6960   47.4320 C   0  0  0  0  0  0  0  0  0  0  0  0
   46.3220   32.2090   46.1800 C   0  0  0  0  0  0  0  0  0  0  0  0
   47.2050   31.5300   45.3940 N   0  0  0  0  0  0  0  0  0  0  0  0
   47.8030   30.4050   45.8320 C   0  0  0  0  0  0  0  0  0  0  0  0
   47.5300   29.9460   47.0520 N   0  0  0  0  0  0  0  0  0  0  0  0
   46.6830   30.5470   47.8800 C   0  0  0  0  0  0  0  0  0  0  0  0
   46.4590   29.5760   49.7440 H   0  0  0  0  0  0  0  0  0  0  0  0
   44.7620   31.4890   50.3680 H   0  0  0  0  0  0  0  0  0  0  0  0
   48.7340   29.6420   45.0740 N   0  0  0  0  0  0  0  0  0  0  0  0
   49.1990   28.5340   45.6940 C   0  0  0  0  0  0  0  0  0  0  0  0
   50.1140   27.6540   45.1260 C   0  0  0  0  0  0  0  0  0  0  0  0
   50.5410   27.9760   43.8550 C   0  0  0  0  0  0  0  0  0  0  0  0
   51.4740   27.1520   43.1750 N   0  0  0  0  0  0  0  0  0  0  0  0
   50.0790   29.0650   43.2530 N   0  0  0  0  0  0  0  0  0  0  0  0
   49.1840   29.8990   43.8450 C   0  0  0  0  0  0  0  0  0  0  0  0
   48.7120   30.9470   43.3190 O   0  0  0  0  0  0  0  0  0  0  0  0
   51.5530   27.1400   42.1320 H   0  0  0  0  0  0  0  0  0  0  0  0
   52.1260   26.5150   43.7150 H   0  0  0  0  0  0  0  0  0  0  0  0
   45.6370   33.6600   45.4420 S   0  0  0  0  0  0  0  0  0  0  0  0
   47.7790   34.7130   42.3410 C   0  0  0  0  0  0  0  0  0  0  0  0
   47.0590   34.3450   41.2150 C   0  0  0  0  0  0  0  0  0  0  0  0
   45.8290   33.7300   41.4270 C   0  0  0  0  0  0  0  0  0  0  0  0
   45.3970   33.5220   42.7080 N   0  0  0  0  0  0  0  0  0  0  0  0
   46.1530   33.9070   43.7650 C   0  0  0  0  0  0  0  0  0  0  0  0
   47.3260   34.4940   43.5800 N   0  0  0  0  0  0  0  0  0  0  0  0
   47.3840   34.5020   40.1960 H   0  0  0  0  0  0  0  0  0  0  0  0
   45.2010   33.4100   40.6050 H   0  0  0  0  0  0  0  0  0  0  0  0
   49.0870   35.3680   42.1440 C   0  0  0  0  0  0  0  0  0  0  0  0
   49.2380   36.1340   41.1630 O   0  0  0  0  0  0  0  0  0  0  0  0
   50.1070   35.1290   43.0320 O   0  0  0  0  0  0  0  0  0  0  0  0
   51.0400   35.4630   42.7930 H   0  0  0  0  0  0  0  0  0  0  0  0
  1  2  1  0  0  0  0
  1 10  1  0  0  0  0
  2 11  1  0  0  0  0
  3  2  2  0  0  0  0
  4  9  1  0  0  0  0
  4  3  1  0  0  0  0
  5  4  2  0  0  0  0
  6  7  2  0  0  0  0
  6  5  1  0  0  0  0
  7  8  1  0  0  0  0
  8  9  2  0  0  0  0
  9  1  1  0  0  0  0
 12 13  1  0  0  0  0
 12  7  1  0  0  0  0
 14 13  2  0  0  0  0
 15 14  1  0  0  0  0
 16 21  1  0  0  0  0
 16 15  1  0  0  0  0
 17 18  1  0  0  0  0
 17 15  2  0  0  0  0
 18 12  1  0  0  0  0
 19 18  2  0  0  0  0
 20 16  1  0  0  0  0
 22  5  1  0  0  0  0
 23 28  1  0  0  0  0
 24 25  1  0  0  0  0
 24 23  2  0  0  0  0
 25 26  2  0  0  0  0
 26 27  1  0  0  0  0
 27 22  1  0  0  0  0
 28 27  2  0  0  0  0
 29 24  1  0  0  0  0
 30 25  1  0  0  0  0
 31 23  1  0  0  0  0
 31 33  1  0  0  0  0
 32 31  2  0  0  0  0
 34 33  1  0  0  0  0
M  END
>  <minimizedAffinity>
-6.17218399

>  <minimizedRMSD>
0.189305589

$$$$
