
 OpenBabel03232520453D

 42 45  0  0  0  0  0  0  0  0999 V2000
   46.3330   34.6220   41.9370 C   0  0  0  0  0  0  0  0  0  0  0  0
   47.6420   34.9490   41.7440 C   0  0  0  0  0  0  0  0  0  0  0  0
   48.3000   34.7020   40.5360 C   0  0  0  0  0  0  0  0  0  0  0  0
   47.5990   34.0940   39.4740 C   0  0  0  0  0  0  0  0  0  0  0  0
   46.2880   33.7710   39.6820 C   0  0  0  0  0  0  0  0  0  0  0  0
   45.6660   34.0320   40.8960 C   0  0  0  0  0  0  0  0  0  0  0  0
   48.2090   35.4180   42.5440 H   0  0  0  0  0  0  0  0  0  0  0  0
   49.3390   34.9910   40.4640 H   0  0  0  0  0  0  0  0  0  0  0  0
   48.1360   33.9170   38.5540 H   0  0  0  0  0  0  0  0  0  0  0  0
   45.7740   33.3060   38.8490 H   0  0  0  0  0  0  0  0  0  0  0  0
   44.4200   36.2000   44.7630 C   0  0  0  0  0  0  0  0  0  0  0  0
   44.9400   36.0280   43.4800 C   0  0  0  0  0  0  0  0  0  0  0  0
   45.7360   34.9160   43.2190 C   0  0  0  0  0  0  0  0  0  0  0  0
   45.9560   34.0700   44.2330 N   0  0  0  0  0  0  0  0  0  0  0  0
   45.4460   34.2500   45.4760 C   0  0  0  0  0  0  0  0  0  0  0  0
   44.6800   35.3150   45.7330 N   0  0  0  0  0  0  0  0  0  0  0  0
   43.8000   37.0700   44.9560 H   0  0  0  0  0  0  0  0  0  0  0  0
   44.7530   36.7190   42.6720 H   0  0  0  0  0  0  0  0  0  0  0  0
   45.7580   33.2730   46.4620 N   0  0  0  0  0  0  0  0  0  0  0  0
   45.1500   33.1940   47.6580 C   0  0  0  0  0  0  0  0  0  0  0  0
   45.4870   32.2300   48.5830 C   0  0  0  0  0  0  0  0  0  0  0  0
   46.4700   31.3020   48.3110 C   0  0  0  0  0  0  0  0  0  0  0  0
   46.9260   30.2530   49.1590 N   0  0  0  0  0  0  0  0  0  0  0  0
   47.0880   31.3800   47.0980 N   0  0  0  0  0  0  0  0  0  0  0  0
   46.7070   32.3500   46.2440 C   0  0  0  0  0  0  0  0  0  0  0  0
   47.2960   32.4090   45.1130 O   0  0  0  0  0  0  0  0  0  0  0  0
   47.8040   30.1360   49.7250 H   0  0  0  0  0  0  0  0  0  0  0  0
   46.0890   29.6090   49.0430 H   0  0  0  0  0  0  0  0  0  0  0  0
   44.3000   33.6770   41.0570 N   0  0  0  0  0  0  0  0  0  0  0  0
   43.4870   34.6390   40.5130 C   0  0  0  0  0  0  0  0  0  0  0  0
   42.0990   34.4970   40.5570 C   0  0  0  0  0  0  0  0  0  0  0  0
   41.5870   33.3570   41.1650 C   0  0  0  0  0  0  0  0  0  0  0  0
   40.3480   33.1690   41.2370 O   0  0  0  0  0  0  0  0  0  0  0  0
   42.4310   32.4440   41.6820 N   0  0  0  0  0  0  0  0  0  0  0  0
   43.7590   32.5960   41.6320 C   0  0  0  0  0  0  0  0  0  0  0  0
   44.6120   31.8030   42.0840 O   0  0  0  0  0  0  0  0  0  0  0  0
   43.8010   35.5370   40.0320 H   0  0  0  0  0  0  0  0  0  0  0  0
   42.1030   31.5630   42.1540 H   0  0  0  0  0  0  0  0  0  0  0  0
   41.1770   35.5130   39.9820 C   0  0  0  0  0  0  0  0  0  0  0  0
   40.2790   34.9730   39.5670 H   0  0  0  0  0  0  0  0  0  0  0  0
   41.6470   36.1360   39.2220 H   0  0  0  0  0  0  0  0  0  0  0  0
   40.7740   36.0730   40.8530 H   0  0  0  0  0  0  0  0  0  0  0  0
  1 13  1  0  0  0  0
  2  1  1  0  0  0  0
  2  7  1  0  0  0  0
  3  2  2  0  0  0  0
  4  5  2  0  0  0  0
  4  3  1  0  0  0  0
  5  6  1  0  0  0  0
  6 29  1  0  0  0  0
  6  1  2  0  0  0  0
  8  3  1  0  0  0  0
  9  4  1  0  0  0  0
 10  5  1  0  0  0  0
 11 17  1  0  0  0  0
 11 16  1  0  0  0  0
 12 11  2  0  0  0  0
 13 12  1  0  0  0  0
 13 14  2  0  0  0  0
 14 15  1  0  0  0  0
 15 16  2  0  0  0  0
 15 19  1  0  0  0  0
 18 12  1  0  0  0  0
 19 20  1  0  0  0  0
 20 21  2  0  0  0  0
 22 21  1  0  0  0  0
 22 23  1  0  0  0  0
 23 27  1  0  0  0  0
 24 22  2  0  0  0  0
 25 19  1  0  0  0  0
 25 24  1  0  0  0  0
 26 25  2  0  0  0  0
 28 23  1  0  0  0  0
 29 35  1  0  0  0  0
 30 31  2  0  0  0  0
 30 29  1  0  0  0  0
 31 32  1  0  0  0  0
 32 33  2  0  0  0  0
 32 34  1  0  0  0  0
 34 38  1  0  0  0  0
 35 34  1  0  0  0  0
 35 36  2  0  0  0  0
 37 30  1  0  0  0  0
 39 31  1  0  0  0  0
 39 42  1  0  0  0  0
 40 39  1  0  0  0  0
 41 39  1  0  0  0  0
M  END
>  <minimizedAffinity>
-8.56802559

>  <minimizedRMSD>
0.274276614

$$$$
