
 OpenBabel03232520273D

 46 50  0  0  1  0  0  0  0  0999 V2000
   46.9860   34.5270   41.3210 C   0  0  0  0  0  0  0  0  0  0  0  0
   48.2660   34.9790   41.0030 C   0  0  0  0  0  0  0  0  0  0  0  0
   48.5430   34.6960   39.7460 N   0  0  0  0  0  0  0  0  0  0  0  0
   47.4670   34.0650   39.2240 C   0  0  0  0  0  0  0  0  0  0  0  0
   47.2290   33.5530   37.9490 C   0  0  0  0  0  0  0  0  0  0  0  0
   46.0370   32.9540   37.6870 C   0  0  0  0  0  0  0  0  0  0  0  0
   45.0110   32.8040   38.6070 C   0  0  0  0  0  0  0  0  0  0  0  0
   45.2840   33.3220   39.8560 C   0  0  0  0  0  0  0  0  0  0  0  0
   46.4640   33.9400   40.1890 C   0  0  0  0  0  0  0  0  0  0  0  0
   49.4100   34.8840   39.1590 H   0  0  0  0  0  0  0  0  0  0  0  0
   47.9910   33.6350   37.1760 H   0  0  0  0  0  0  0  0  0  0  0  0
   45.8990   32.5690   36.6740 H   0  0  0  0  0  0  0  0  0  0  0  0
   44.1040   32.3200   38.3230 H   0  0  0  0  0  0  0  0  0  0  0  0
   44.5350   33.2430   40.6220 H   0  0  0  0  0  0  0  0  0  0  0  0
   44.7970   35.8490   44.0450 C   0  0  0  0  0  0  0  0  0  0  0  0
   45.4500   35.7380   42.8100 C   0  0  0  0  0  0  0  0  0  0  0  0
   46.3000   34.6450   42.6170 C   0  0  0  0  0  0  0  0  0  0  0  0
   46.4680   33.7320   43.6180 N   0  0  0  0  0  0  0  0  0  0  0  0
   45.8050   33.8970   44.7920 C   0  0  0  0  0  0  0  0  0  0  0  0
   44.9820   34.9340   45.0130 N   0  0  0  0  0  0  0  0  0  0  0  0
   44.1530   36.6910   44.1730 H   0  0  0  0  0  0  0  0  0  0  0  0
   45.3000   36.4740   42.0370 H   0  0  0  0  0  0  0  0  0  0  0  0
   45.9580   33.1590   45.5630 H   0  0  0  0  0  0  0  0  0  0  0  0
   49.1570   35.6680   41.9500 C   0  0  0  0  0  0  0  0  0  0  0  0
   49.7700   36.4470   41.4490 H   0  0  0  0  0  0  0  0  0  0  0  0
   48.5210   36.1580   42.7330 H   0  0  0  0  0  0  0  0  0  0  0  0
   50.0730   34.7080   42.6630 C   0  0  0  0  0  0  0  0  0  0  0  0
   49.6910   34.5100   43.6930 H   0  0  0  0  0  0  0  0  0  0  0  0
   51.0450   35.2260   42.8170 H   0  0  0  0  0  0  0  0  0  0  0  0
   50.3140   33.4160   41.9170 C   0  0  1  0  0  0  0  0  0  0  0  0
   50.9400   32.2660   42.5500 C   0  0  0  0  0  0  0  0  0  0  0  0
   49.4650   32.2390   42.4130 C   0  0  2  0  0  0  0  0  0  0  0  0
   50.4200   33.5830   40.8400 H   0  0  0  0  0  0  0  0  0  0  0  0
   51.6100   31.5790   41.9870 H   0  0  0  0  0  0  0  0  0  0  0  0
   51.3810   32.4330   43.5780 H   0  0  0  0  0  0  0  0  0  0  0  0
   48.9040   32.3980   43.3820 H   0  0  0  0  0  0  0  0  0  0  0  0
   48.7820   31.3930   41.4730 N   0  0  0  0  0  0  0  0  0  0  0  0
   47.6650   30.7090   41.8070 C   0  0  0  0  0  0  0  0  0  0  0  0
   46.9920   29.8920   40.9230 C   0  0  0  0  0  0  0  0  0  0  0  0
   47.4770   29.7600   39.6270 C   0  0  0  0  0  0  0  0  0  0  0  0
   46.7800   28.9200   38.7280 N   0  0  0  0  0  0  0  0  0  0  0  0
   48.5910   30.4530   39.3250 N   0  0  0  0  0  0  0  0  0  0  0  0
   49.2130   31.2340   40.2110 C   0  0  0  0  0  0  0  0  0  0  0  0
   50.2200   31.8050   39.7870 O   0  0  0  0  0  0  0  0  0  0  0  0
   47.2070   28.5050   37.8750 H   0  0  0  0  0  0  0  0  0  0  0  0
   45.7970   28.6830   38.8900 H   0  0  0  0  0  0  0  0  0  0  0  0
  1 17  1  0  0  0  0
  2  1  2  0  0  0  0
  2 24  1  0  0  0  0
  3  2  1  0  0  0  0
  4  3  1  0  0  0  0
  4  9  1  0  0  0  0
  5  4  2  0  0  0  0
  6  5  1  0  0  0  0
  6  7  2  0  0  0  0
  7  8  1  0  0  0  0
  8  9  2  0  0  0  0
  8 14  1  0  0  0  0
  9  1  1  0  0  0  0
 10  3  1  0  0  0  0
 11  5  1  0  0  0  0
 12  6  1  0  0  0  0
 13  7  1  0  0  0  0
 15 21  1  0  0  0  0
 15 20  1  0  0  0  0
 16 15  2  0  0  0  0
 17 16  1  0  0  0  0
 17 18  2  0  0  0  0
 18 19  1  0  0  0  0
 19 20  2  0  0  0  0
 19 23  1  0  0  0  0
 22 16  1  0  0  0  0
 24 27  1  0  0  0  0
 24 26  1  0  0  0  0
 25 24  1  0  0  0  0
 27 29  1  0  0  0  0
 27 28  1  0  0  0  0
 30 33  1  6  0  0  0
 30 32  1  0  0  0  0
 30 31  1  0  0  0  0
 30 27  1  0  0  0  0
 31 35  1  0  0  0  0
 32 31  1  0  0  0  0
 32 36  1  1  0  0  0
 34 31  1  0  0  0  0
 37 38  1  0  0  0  0
 37 32  1  0  0  0  0
 39 38  2  0  0  0  0
 40 39  1  0  0  0  0
 41 46  1  0  0  0  0
 41 40  1  0  0  0  0
 42 40  2  0  0  0  0
 42 43  1  0  0  0  0
 43 37  1  0  0  0  0
 44 43  2  0  0  0  0
 45 41  1  0  0  0  0
M  END
>  <minimizedAffinity>
-5.97041035

>  <minimizedRMSD>
0.402648687

$$$$
