
 OpenBabel03232521003D

 45 49  0  0  1  0  0  0  0  0999 V2000
   45.4150   32.9380   47.5620 C   0  0  0  0  0  0  0  0  0  0  0  0
   45.9020   32.6440   46.3290 C   0  0  0  0  0  0  0  0  0  0  0  0
   46.0880   31.2800   46.0870 C   0  0  0  0  0  0  0  0  0  0  0  0
   45.8130   30.3060   46.9920 N   0  0  0  0  0  0  0  0  0  0  0  0
   45.3170   30.6580   48.2390 C   0  0  0  0  0  0  0  0  0  0  0  0
   45.1330   31.9500   48.4900 N   0  0  0  0  0  0  0  0  0  0  0  0
   45.0280   29.6700   49.2120 N   0  0  0  0  0  0  0  0  0  0  0  0
   45.2380   33.9590   47.8570 H   0  0  0  0  0  0  0  0  0  0  0  0
   45.1430   29.8760   50.2300 H   0  0  0  0  0  0  0  0  0  0  0  0
   44.6930   28.7280   48.8550 H   0  0  0  0  0  0  0  0  0  0  0  0
   46.1490   33.5750   45.2810 C   0  0  2  0  0  0  0  0  0  0  0  0
   44.9610   34.6910   45.5100 C   0  0  0  0  0  0  0  0  0  0  0  0
   44.7310   35.6090   44.4300 C   0  0  0  0  0  0  0  0  0  0  0  0
   45.5160   35.5030   43.1950 C   0  0  1  0  0  0  0  0  0  0  0  0
   46.5540   34.4800   43.1480 C   0  0  0  0  0  0  0  0  0  0  0  0
   46.0920   33.2670   43.9220 C   0  0  0  0  0  0  0  0  0  0  0  0
   46.9780   34.2800   45.5820 H   0  0  0  0  0  0  0  0  0  0  0  0
   44.3010   34.8620   46.3520 H   0  0  0  0  0  0  0  0  0  0  0  0
   43.9760   36.3440   44.5400 H   0  0  0  0  0  0  0  0  0  0  0  0
   45.9650   36.4960   42.9570 H   0  0  0  0  0  0  0  0  0  0  0  0
   47.5080   34.8670   43.5710 H   0  0  0  0  0  0  0  0  0  0  0  0
   46.7820   34.2520   42.0730 H   0  0  0  0  0  0  0  0  0  0  0  0
   46.9290   32.5980   43.5900 H   0  0  0  0  0  0  0  0  0  0  0  0
   45.1380   32.9140   43.4790 H   0  0  0  0  0  0  0  0  0  0  0  0
   44.4810   35.2380   42.0610 C   0  0  0  0  0  0  0  0  0  0  0  0
   43.4350   34.4310   42.4700 F   0  0  0  0  0  0  0  0  0  0  0  0
   43.9220   36.4740   41.7450 F   0  0  0  0  0  0  0  0  0  0  0  0
   45.1370   34.7880   40.9320 F   0  0  0  0  0  0  0  0  0  0  0  0
   46.6430   30.5470   44.9620 C   0  0  0  0  0  0  0  0  0  0  0  0
   46.2320   29.6930   43.9920 C   0  0  0  0  0  0  0  0  0  0  0  0
   47.3490   29.3240   43.2320 C   0  0  0  0  0  0  0  0  0  0  0  0
   48.3820   29.9700   43.7750 N   0  0  0  0  0  0  0  0  0  0  0  0
   47.9880   30.6970   44.7960 N   0  0  0  0  0  0  0  0  0  0  0  0
   45.1840   29.4480   43.9590 H   0  0  0  0  0  0  0  0  0  0  0  0
   47.2540   28.6480   42.4040 H   0  0  0  0  0  0  0  0  0  0  0  0
   53.0100   31.9150   41.1140 H   0  0  0  0  0  0  0  0  0  0  0  0
   52.0790   31.7350   41.5650 N   0  0  0  0  0  0  0  0  0  0  0  0
   51.0690   32.6220   41.6180 C   0  0  0  0  0  3  0  0  0  0  0  0
   50.0100   32.0670   42.2700 N   0  0  0  0  0  0  0  0  0  0  0  0
   50.4090   30.8480   42.6000 C   0  0  0  0  0  0  0  0  0  0  0  0
   49.7310   29.8540   43.2740 C   0  0  0  0  0  0  0  0  0  0  0  0
   50.3730   28.6780   43.4880 N   0  0  0  0  0  0  0  0  0  0  0  0
   51.6330   28.4730   43.0590 C   0  0  0  0  0  3  0  0  0  0  0  0
   52.3450   29.4240   42.3870 N   0  0  0  0  0  0  0  0  0  0  0  0
   51.6880   30.6020   42.1800 C   0  0  0  0  0  0  0  0  0  0  0  0
  1  8  1  0  0  0  0
  1  6  1  0  0  0  0
  2  1  2  0  0  0  0
  3  2  1  0  0  0  0
  3  4  2  0  0  0  0
  4  5  1  0  0  0  0
  5  6  2  0  0  0  0
  5  7  1  0  0  0  0
  7  9  1  0  0  0  0
 10  7  1  0  0  0  0
 11 12  1  0  0  0  0
 11 17  1  1  0  0  0
 11  2  1  0  0  0  0
 12 18  1  0  0  0  0
 13 19  1  0  0  0  0
 13 12  2  0  0  0  0
 14 20  1  6  0  0  0
 14 13  1  0  0  0  0
 15 14  1  0  0  0  0
 15 21  1  0  0  0  0
 15 16  1  0  0  0  0
 16 11  1  0  0  0  0
 22 15  1  0  0  0  0
 23 16  1  0  0  0  0
 24 16  1  0  0  0  0
 25 26  1  0  0  0  0
 25 14  1  0  0  0  0
 27 25  1  0  0  0  0
 28 25  1  0  0  0  0
 29  3  1  0  0  0  0
 30 29  1  0  0  0  0
 31 32  1  0  0  0  0
 31 30  2  0  0  0  0
 32 33  1  0  0  0  0
 33 29  2  0  0  0  0
 34 30  1  0  0  0  0
 35 31  1  0  0  0  0
 36 37  1  0  0  0  0
 37 38  1  0  0  0  0
 37 45  1  0  0  0  0
 38 39  2  0  0  0  0
 39 40  1  0  0  0  0
 40 41  1  0  0  0  0
 41 42  2  0  0  0  0
 41 32  1  0  0  0  0
 43 42  1  0  0  0  0
 44 43  2  0  0  0  0
 45 44  1  0  0  0  0
 45 40  2  0  0  0  0
M  END
>  <minimizedAffinity>
-6.44083881

>  <minimizedRMSD>
0.661128998

$$$$
