
 OpenBabel03232519013D

 32 34  0  0  1  0  0  0  0  0999 V2000
   44.5010   35.7650   44.8660 C   0  0  0  0  0  0  0  0  0  0  0  0
   44.9580   35.6220   43.5300 C   0  0  0  0  0  0  0  0  0  0  0  0
   45.7610   34.5260   43.2430 C   0  0  0  0  0  0  0  0  0  0  0  0
   46.0820   33.6370   44.2280 N   0  0  0  0  0  0  0  0  0  0  0  0
   45.6270   33.8080   45.4910 C   0  0  0  0  0  0  0  0  0  0  0  0
   44.8480   34.8600   45.7970 N   0  0  0  0  0  0  0  0  0  0  0  0
   45.9960   32.8500   46.4690 N   0  0  0  0  0  0  0  0  0  0  0  0
   45.1980   32.8650   47.6910 C   0  0  0  0  0  0  0  0  0  0  0  0
   45.7540   32.0130   48.7850 C   0  0  0  0  0  0  0  0  0  0  0  0
   47.0380   31.5500   48.5310 O   0  0  0  0  0  0  0  0  0  0  0  0
   47.0100   30.8720   47.3300 C   0  0  0  0  0  0  0  0  0  0  0  0
   47.0930   31.9300   46.2480 C   0  0  1  0  0  0  0  0  0  0  0  0
   43.8810   36.5560   45.2240 H   0  0  0  0  0  0  0  0  0  0  0  0
   44.6480   36.3770   42.8300 H   0  0  0  0  0  0  0  0  0  0  0  0
   46.1080   34.4190   42.2230 H   0  0  0  0  0  0  0  0  0  0  0  0
   44.1950   32.4710   47.4180 H   0  0  0  0  0  0  0  0  0  0  0  0
   45.0240   33.9080   48.0180 H   0  0  0  0  0  0  0  0  0  0  0  0
   45.0770   31.1600   49.0620 H   0  0  0  0  0  0  0  0  0  0  0  0
   45.8120   32.6320   49.7080 H   0  0  0  0  0  0  0  0  0  0  0  0
   47.8330   30.1320   47.2390 H   0  0  0  0  0  0  0  0  0  0  0  0
   46.0150   30.3760   47.2690 H   0  0  0  0  0  0  0  0  0  0  0  0
   48.0350   32.4770   46.4130 H   0  0  0  0  0  0  0  0  0  0  0  0
   47.1240   31.3580   44.9270 N   0  0  0  0  0  0  0  0  0  0  0  0
   48.1010   31.6460   44.0480 C   0  0  0  0  0  0  0  0  0  0  0  0
   48.1740   31.1230   42.7700 C   0  0  0  0  0  0  0  0  0  0  0  0
   47.1620   30.2440   42.3980 C   0  0  0  0  0  0  0  0  0  0  0  0
   47.2130   29.6890   41.0840 N   0  0  0  0  0  0  0  0  0  0  0  0
   46.1780   29.9520   43.2790 N   0  0  0  0  0  0  0  0  0  0  0  0
   46.1670   30.5050   44.5230 C   0  0  0  0  0  0  0  0  0  0  0  0
   45.2060   30.1650   45.2660 O   0  0  0  0  0  0  0  0  0  0  0  0
   48.1410   29.5780   40.6110 H   0  0  0  0  0  0  0  0  0  0  0  0
   46.3790   29.3700   40.5300 H   0  0  0  0  0  0  0  0  0  0  0  0
  1 13  1  0  0  0  0
  1  6  1  0  0  0  0
  2  1  2  0  0  0  0
  3  2  1  0  0  0  0
  3  4  2  0  0  0  0
  4  5  1  0  0  0  0
  5  6  2  0  0  0  0
  5  7  1  0  0  0  0
  7  8  1  0  0  0  0
  8 17  1  0  0  0  0
  8  9  1  0  0  0  0
  9 18  1  0  0  0  0
  9 19  1  0  0  0  0
 10  9  1  0  0  0  0
 11 10  1  0  0  0  0
 12 22  1  1  0  0  0
 12  7  1  0  0  0  0
 12 11  1  0  0  0  0
 14  2  1  0  0  0  0
 15  3  1  0  0  0  0
 16  8  1  0  0  0  0
 20 11  1  0  0  0  0
 21 11  1  0  0  0  0
 23 12  1  0  0  0  0
 24 23  1  0  0  0  0
 25 24  2  0  0  0  0
 26 25  1  0  0  0  0
 26 28  2  0  0  0  0
 27 26  1  0  0  0  0
 28 29  1  0  0  0  0
 29 23  1  0  0  0  0
 29 30  2  0  0  0  0
 31 27  1  0  0  0  0
 32 27  1  0  0  0  0
M  END
>  <minimizedAffinity>
-4.74101114

>  <minimizedRMSD>
0.806953073

$$$$
