
 OpenBabel03232518103D

 33 36  0  0  0  0  0  0  0  0999 V2000
   46.1790   30.4540   45.8000 C   0  0  0  0  0  0  0  0  0  0  0  0
   45.7120   30.8050   47.0580 C   0  0  0  0  0  0  0  0  0  0  0  0
   44.8150   29.8170   47.4160 C   0  0  0  0  0  0  0  0  0  0  0  0
   44.7410   28.9090   46.4240 N   0  0  0  0  0  0  0  0  0  0  0  0
   45.5560   29.2910   45.4610 N   0  0  0  0  0  0  0  0  0  0  0  0
   46.1420   31.7240   47.4350 H   0  0  0  0  0  0  0  0  0  0  0  0
   44.3430   29.9310   48.3860 H   0  0  0  0  0  0  0  0  0  0  0  0
   39.9340   26.5320   44.8060 H   0  0  0  0  0  0  0  0  0  0  0  0
   40.7760   27.1210   44.9980 N   0  0  0  0  0  0  0  0  0  0  0  0
   40.9980   28.3470   44.4790 C   0  0  0  0  0  0  0  0  0  0  0  0
   42.1800   28.7650   44.9650 N   0  0  0  0  0  0  0  0  0  0  0  0
   42.7160   27.8310   45.7840 C   0  0  0  0  0  0  0  0  0  0  0  0
   43.8900   27.7730   46.5180 C   0  0  0  0  0  0  0  0  0  0  0  0
   44.1310   26.6560   47.2580 N   0  0  0  0  0  0  0  0  0  0  0  0
   43.2570   25.6410   47.2740 C   0  0  0  0  0  0  0  0  0  0  0  0
   42.1160   25.6940   46.5610 N   0  0  0  0  0  0  0  0  0  0  0  0
   41.8140   26.7860   45.7990 C   0  0  0  0  0  0  0  0  0  0  0  0
   47.3130   31.0520   44.5570 S   0  0  0  0  0  0  0  0  0  0  0  0
   47.2500   34.6430   42.6730 C   0  0  0  0  0  0  0  0  0  0  0  0
   47.6850   33.3840   43.1150 C   0  0  0  0  0  0  0  0  0  0  0  0
   46.8750   32.6320   43.9450 C   0  0  0  0  0  0  0  0  0  0  0  0
   45.6700   33.1680   44.2960 N   0  0  0  0  0  0  0  0  0  0  0  0
   45.2730   34.3820   43.8590 C   0  0  0  0  0  0  0  0  0  0  0  0
   46.0620   35.1080   43.0540 N   0  0  0  0  0  0  0  0  0  0  0  0
   48.6230   32.9190   42.8670 H   0  0  0  0  0  0  0  0  0  0  0  0
   44.3050   34.7920   44.1520 H   0  0  0  0  0  0  0  0  0  0  0  0
   48.2350   35.3140   41.7950 C   0  0  0  0  0  0  0  0  0  0  0  0
   48.1590   35.0600   40.7350 H   0  0  0  0  0  0  0  0  0  0  0  0
   47.9840   36.4080   41.8660 H   0  0  0  0  0  0  0  0  0  0  0  0
   49.6330   35.1600   42.3400 C   0  0  0  0  0  0  0  0  0  0  0  0
   50.1990   36.0980   42.1630 H   0  0  0  0  0  0  0  0  0  0  0  0
   50.1970   34.3660   41.8150 H   0  0  0  0  0  0  0  0  0  0  0  0
   49.6040   34.9940   43.4220 H   0  0  0  0  0  0  0  0  0  0  0  0
  1  2  1  0  0  0  0
  2  3  2  0  0  0  0
  2  6  1  0  0  0  0
  3  7  1  0  0  0  0
  4 13  1  0  0  0  0
  4  3  1  0  0  0  0
  5  1  2  0  0  0  0
  5  4  1  0  0  0  0
  8  9  1  0  0  0  0
  9 17  1  0  0  0  0
 10 11  2  0  0  0  0
 10  9  1  0  0  0  0
 11 12  1  0  0  0  0
 12 17  2  0  0  0  0
 12 13  1  0  0  0  0
 13 14  2  0  0  0  0
 14 15  1  0  0  0  0
 16 15  2  0  0  0  0
 17 16  1  0  0  0  0
 18  1  1  0  0  0  0
 19 24  2  0  0  0  0
 19 20  1  0  0  0  0
 20 21  2  0  0  0  0
 21 22  1  0  0  0  0
 21 18  1  0  0  0  0
 23 26  1  0  0  0  0
 23 22  2  0  0  0  0
 24 23  1  0  0  0  0
 25 20  1  0  0  0  0
 27 29  1  0  0  0  0
 27 30  1  0  0  0  0
 27 19  1  0  0  0  0
 28 27  1  0  0  0  0
 30 33  1  0  0  0  0
 31 30  1  0  0  0  0
 32 30  1  0  0  0  0
M  END
>  <minimizedAffinity>
-4.9824295

>  <minimizedRMSD>
1.84758747

$$$$
