
 OpenBabel03232521013D

 42 45  0  0  1  0  0  0  0  0999 V2000
   45.4840   32.9340   47.4430 C   0  0  0  0  0  0  0  0  0  0  0  0
   45.9450   32.6540   46.1940 C   0  0  0  0  0  0  0  0  0  0  0  0
   46.1320   31.2940   45.9340 C   0  0  0  0  0  0  0  0  0  0  0  0
   45.8780   30.3110   46.8340 N   0  0  0  0  0  0  0  0  0  0  0  0
   45.4080   30.6500   48.0930 C   0  0  0  0  0  0  0  0  0  0  0  0
   45.2250   31.9370   48.3650 N   0  0  0  0  0  0  0  0  0  0  0  0
   45.1530   29.6460   49.0630 N   0  0  0  0  0  0  0  0  0  0  0  0
   45.3100   33.9520   47.7510 H   0  0  0  0  0  0  0  0  0  0  0  0
   45.8550   28.9070   49.3560 H   0  0  0  0  0  0  0  0  0  0  0  0
   44.2180   29.6200   49.5260 H   0  0  0  0  0  0  0  0  0  0  0  0
   46.1690   33.5990   45.1550 C   0  0  2  0  0  0  0  0  0  0  0  0
   44.9750   34.7040   45.4130 C   0  0  0  0  0  0  0  0  0  0  0  0
   44.7220   35.6290   44.3430 C   0  0  0  0  0  0  0  0  0  0  0  0
   45.4900   35.5440   43.0980 C   0  0  1  0  0  0  0  0  0  0  0  0
   46.5390   34.5330   43.0280 C   0  0  0  0  0  0  0  0  0  0  0  0
   46.0990   33.3070   43.7930 C   0  0  0  0  0  0  0  0  0  0  0  0
   46.9970   34.3090   45.4590 H   0  0  0  0  0  0  0  0  0  0  0  0
   44.3250   34.8620   46.2640 H   0  0  0  0  0  0  0  0  0  0  0  0
   43.9630   36.3560   44.4740 H   0  0  0  0  0  0  0  0  0  0  0  0
   45.9300   36.5410   42.8730 H   0  0  0  0  0  0  0  0  0  0  0  0
   46.8070   34.3350   41.9710 H   0  0  0  0  0  0  0  0  0  0  0  0
   47.4730   34.9160   43.5210 H   0  0  0  0  0  0  0  0  0  0  0  0
   46.9340   32.6450   43.4430 H   0  0  0  0  0  0  0  0  0  0  0  0
   45.1290   32.9970   43.3480 H   0  0  0  0  0  0  0  0  0  0  0  0
   44.4420   35.2800   41.9750 C   0  0  0  0  0  0  0  0  0  0  0  0
   43.3960   34.4800   42.4000 F   0  0  0  0  0  0  0  0  0  0  0  0
   43.8880   36.5180   41.6610 F   0  0  0  0  0  0  0  0  0  0  0  0
   45.0840   34.8260   40.8410 F   0  0  0  0  0  0  0  0  0  0  0  0
   46.6680   30.5780   44.7910 C   0  0  0  0  0  0  0  0  0  0  0  0
   46.2270   29.7950   43.7730 C   0  0  0  0  0  0  0  0  0  0  0  0
   47.3400   29.3910   43.0190 C   0  0  0  0  0  0  0  0  0  0  0  0
   48.3940   29.9460   43.6180 N   0  0  0  0  0  0  0  0  0  0  0  0
   48.0250   30.6500   44.6620 N   0  0  0  0  0  0  0  0  0  0  0  0
   45.1630   29.6210   43.7070 H   0  0  0  0  0  0  0  0  0  0  0  0
   47.2100   28.7560   42.1550 H   0  0  0  0  0  0  0  0  0  0  0  0
   49.7380   29.7600   43.1310 C   0  0  0  0  0  0  0  0  0  0  0  0
   50.6130   30.8320   42.9430 C   0  0  0  0  0  3  0  0  0  0  0  0
   51.7690   30.2510   42.4790 C   0  0  0  0  0  0  0  0  0  0  0  0
   52.6270   30.8650   42.2470 H   0  0  0  0  0  0  0  0  0  0  0  0
   51.5900   28.9000   42.3960 N   0  0  0  0  0  0  0  0  0  0  0  0
   50.3430   28.6070   42.7970 N   0  0  0  0  0  0  0  0  0  0  0  0
   52.3640   28.2840   42.0610 H   0  0  0  0  0  0  0  0  0  0  0  0
  1  8  1  0  0  0  0
  1  6  1  0  0  0  0
  2  1  2  0  0  0  0
  3  2  1  0  0  0  0
  3  4  2  0  0  0  0
  4  5  1  0  0  0  0
  5  6  2  0  0  0  0
  5  7  1  0  0  0  0
  7  9  1  0  0  0  0
  7 10  1  0  0  0  0
 11 12  1  0  0  0  0
 11 17  1  1  0  0  0
 11  2  1  0  0  0  0
 12 18  1  0  0  0  0
 13 19  1  0  0  0  0
 13 12  2  0  0  0  0
 14 20  1  6  0  0  0
 14 13  1  0  0  0  0
 15 14  1  0  0  0  0
 15 22  1  0  0  0  0
 15 16  1  0  0  0  0
 16 11  1  0  0  0  0
 21 15  1  0  0  0  0
 23 16  1  0  0  0  0
 24 16  1  0  0  0  0
 25 26  1  0  0  0  0
 25 14  1  0  0  0  0
 27 25  1  0  0  0  0
 28 25  1  0  0  0  0
 29  3  1  0  0  0  0
 30 29  1  0  0  0  0
 31 32  1  0  0  0  0
 31 30  2  0  0  0  0
 32 33  1  0  0  0  0
 33 29  2  0  0  0  0
 34 30  1  0  0  0  0
 35 31  1  0  0  0  0
 36 32  1  0  0  0  0
 37 36  1  0  0  0  0
 38 37  2  0  0  0  0
 39 38  1  0  0  0  0
 40 38  1  0  0  0  0
 40 41  1  0  0  0  0
 41 36  2  0  0  0  0
 42 40  1  0  0  0  0
M  END
>  <minimizedAffinity>
-5.97838783

>  <minimizedRMSD>
0.281986922

$$$$
