
 OpenBabel03232521013D

 42 45  0  0  1  0  0  0  0  0999 V2000
   45.4380   32.9240   47.4560 C   0  0  0  0  0  0  0  0  0  0  0  0
   45.9290   32.6460   46.2180 C   0  0  0  0  0  0  0  0  0  0  0  0
   46.1400   31.2880   45.9670 C   0  0  0  0  0  0  0  0  0  0  0  0
   45.8830   30.3050   46.8660 N   0  0  0  0  0  0  0  0  0  0  0  0
   45.3820   30.6410   48.1140 C   0  0  0  0  0  0  0  0  0  0  0  0
   45.1750   31.9260   48.3760 N   0  0  0  0  0  0  0  0  0  0  0  0
   45.1220   29.6380   49.0820 N   0  0  0  0  0  0  0  0  0  0  0  0
   45.2430   33.9400   47.7560 H   0  0  0  0  0  0  0  0  0  0  0  0
   45.8290   28.9110   49.3920 H   0  0  0  0  0  0  0  0  0  0  0  0
   44.1780   29.6000   49.5260 H   0  0  0  0  0  0  0  0  0  0  0  0
   46.1600   33.5900   45.1790 C   0  0  2  0  0  0  0  0  0  0  0  0
   44.9720   34.7020   45.4360 C   0  0  0  0  0  0  0  0  0  0  0  0
   44.7270   35.6300   44.3660 C   0  0  0  0  0  0  0  0  0  0  0  0
   45.4950   35.5410   43.1230 C   0  0  1  0  0  0  0  0  0  0  0  0
   46.5390   34.5240   43.0530 C   0  0  0  0  0  0  0  0  0  0  0  0
   46.0900   33.3000   43.8170 C   0  0  0  0  0  0  0  0  0  0  0  0
   46.9920   34.2950   45.4850 H   0  0  0  0  0  0  0  0  0  0  0  0
   44.3220   34.8640   46.2870 H   0  0  0  0  0  0  0  0  0  0  0  0
   43.9720   36.3610   44.4970 H   0  0  0  0  0  0  0  0  0  0  0  0
   45.9420   36.5350   42.8990 H   0  0  0  0  0  0  0  0  0  0  0  0
   46.8070   34.3250   41.9970 H   0  0  0  0  0  0  0  0  0  0  0  0
   47.4740   34.9000   43.5480 H   0  0  0  0  0  0  0  0  0  0  0  0
   46.9220   32.6330   43.4680 H   0  0  0  0  0  0  0  0  0  0  0  0
   45.1190   32.9960   43.3710 H   0  0  0  0  0  0  0  0  0  0  0  0
   44.4480   35.2830   41.9980 C   0  0  0  0  0  0  0  0  0  0  0  0
   43.3940   34.4940   42.4220 F   0  0  0  0  0  0  0  0  0  0  0  0
   43.9060   36.5260   41.6800 F   0  0  0  0  0  0  0  0  0  0  0  0
   45.0890   34.8220   40.8660 F   0  0  0  0  0  0  0  0  0  0  0  0
   46.7100   30.5760   44.8380 C   0  0  0  0  0  0  0  0  0  0  0  0
   46.3000   29.8000   43.8020 C   0  0  0  0  0  0  0  0  0  0  0  0
   47.4350   29.3940   43.0830 C   0  0  0  0  0  0  0  0  0  0  0  0
   48.4710   29.9420   43.7190 N   0  0  0  0  0  0  0  0  0  0  0  0
   48.0710   30.6420   44.7540 N   0  0  0  0  0  0  0  0  0  0  0  0
   45.2370   29.6310   43.7010 H   0  0  0  0  0  0  0  0  0  0  0  0
   47.3300   28.7650   42.2120 H   0  0  0  0  0  0  0  0  0  0  0  0
   49.8290   29.7520   43.2750 C   0  0  0  0  0  0  0  0  0  0  0  0
   50.3400   28.4880   42.9730 C   0  0  0  0  0  3  0  0  0  0  0  0
   51.6400   28.7270   42.5960 C   0  0  0  0  0  0  0  0  0  0  0  0
   52.2770   27.9050   42.3050 H   0  0  0  0  0  0  0  0  0  0  0  0
   51.8890   30.0670   42.6710 N   0  0  0  0  0  0  0  0  0  0  0  0
   50.7760   30.6890   43.0860 N   0  0  0  0  0  0  0  0  0  0  0  0
   52.8300   30.4420   42.4200 H   0  0  0  0  0  0  0  0  0  0  0  0
  1  8  1  0  0  0  0
  1  6  1  0  0  0  0
  2  1  2  0  0  0  0
  3  2  1  0  0  0  0
  3  4  2  0  0  0  0
  4  5  1  0  0  0  0
  5  6  2  0  0  0  0
  5  7  1  0  0  0  0
  7  9  1  0  0  0  0
  7 10  1  0  0  0  0
 11 12  1  0  0  0  0
 11 17  1  1  0  0  0
 11  2  1  0  0  0  0
 12 18  1  0  0  0  0
 13 19  1  0  0  0  0
 13 12  2  0  0  0  0
 14 20  1  6  0  0  0
 14 13  1  0  0  0  0
 15 14  1  0  0  0  0
 15 22  1  0  0  0  0
 15 16  1  0  0  0  0
 16 11  1  0  0  0  0
 21 15  1  0  0  0  0
 23 16  1  0  0  0  0
 24 16  1  0  0  0  0
 25 26  1  0  0  0  0
 25 14  1  0  0  0  0
 27 25  1  0  0  0  0
 28 25  1  0  0  0  0
 29  3  1  0  0  0  0
 30 29  1  0  0  0  0
 31 32  1  0  0  0  0
 31 30  2  0  0  0  0
 32 33  1  0  0  0  0
 33 29  2  0  0  0  0
 34 30  1  0  0  0  0
 35 31  1  0  0  0  0
 36 32  1  0  0  0  0
 37 36  1  0  0  0  0
 38 40  1  0  0  0  0
 38 37  2  0  0  0  0
 39 38  1  0  0  0  0
 40 41  1  0  0  0  0
 41 36  2  0  0  0  0
 42 40  1  0  0  0  0
M  END
>  <minimizedAffinity>
-5.96953917

>  <minimizedRMSD>
0.189027876

$$$$
