
 OpenBabel03232516363D

 37 39  0  0  1  0  0  0  0  0999 V2000
   44.9300   33.8230   42.4280 C   0  0  2  0  0  0  0  0  0  0  0  0
   44.7130   35.2860   42.5580 C   0  0  0  0  0  0  0  0  0  0  0  0
   43.9460   35.9160   41.5120 C   0  0  0  0  0  0  0  0  0  0  0  0
   43.4150   35.1710   40.3950 C   0  0  0  0  0  0  0  0  0  0  0  0
   43.6240   33.7270   40.3910 C   0  0  0  0  0  0  0  0  0  0  0  0
   43.7190   33.1920   41.7920 C   0  0  0  0  0  0  0  0  0  0  0  0
   44.9740   36.0890   43.2390 H   0  0  0  0  0  0  0  0  0  0  0  0
   43.7390   36.9550   41.5180 H   0  0  0  0  0  0  0  0  0  0  0  0
   43.8130   35.6160   39.4590 H   0  0  0  0  0  0  0  0  0  0  0  0
   42.3090   35.3960   40.3450 H   0  0  0  0  0  0  0  0  0  0  0  0
   44.4650   33.4390   39.7340 H   0  0  0  0  0  0  0  0  0  0  0  0
   42.7300   33.2220   39.9220 H   0  0  0  0  0  0  0  0  0  0  0  0
   42.8560   33.6180   42.3420 H   0  0  0  0  0  0  0  0  0  0  0  0
   43.7130   32.0960   41.8730 H   0  0  0  0  0  0  0  0  0  0  0  0
   45.3800   34.1520   44.7980 C   0  0  0  0  0  0  0  0  0  0  0  0
   45.2930   33.2680   43.7420 C   0  0  0  0  0  0  0  0  0  0  0  0
   45.6040   31.8730   43.9620 C   0  0  0  0  0  0  0  0  0  0  0  0
   45.9720   31.4910   45.1940 N   0  0  0  0  0  0  0  0  0  0  0  0
   46.0480   32.3840   46.2000 C   0  0  0  0  0  0  0  0  0  0  0  0
   45.7590   33.6760   46.0050 N   0  0  0  0  0  0  0  0  0  0  0  0
   45.1910   35.2050   44.8600 H   0  0  0  0  0  0  0  0  0  0  0  0
   45.4990   31.2740   43.0660 H   0  0  0  0  0  0  0  0  0  0  0  0
   46.4520   31.8600   47.4620 N   0  0  0  0  0  0  0  0  0  0  0  0
   47.6700   31.6430   47.9910 C   0  0  0  0  0  0  0  0  0  0  0  0
   47.4360   31.1200   49.2470 C   0  0  0  0  0  0  0  0  0  0  0  0
   46.1180   31.0130   49.4950 N   0  0  0  0  0  0  0  0  0  0  0  0
   45.5230   31.4840   48.3600 C   0  0  0  0  0  0  0  0  0  0  0  0
   46.1840   33.6910   41.5620 C   0  0  0  0  0  0  0  0  0  0  0  0
   46.4480   33.6180   40.3200 O   0  0  0  0  0  0  0  0  0  0  0  0
   47.4210   33.6370   42.3370 N   0  0  0  0  0  0  0  0  0  0  0  0
   48.3550   34.6630   42.3570 C   0  0  0  0  0  0  0  0  0  0  0  0
   48.3400   35.7910   41.8780 N   0  0  0  0  0  0  0  0  0  0  0  0
   49.6360   34.6090   43.0280 N   0  0  0  0  0  0  0  0  0  0  0  0
   47.6990   36.3480   41.3710 H   0  0  0  0  0  0  0  0  0  0  0  0
   47.6140   32.8170   42.9350 H   0  0  0  0  0  0  0  0  0  0  0  0
   50.3950   34.0830   42.5000 H   0  0  0  0  0  0  0  0  0  0  0  0
   49.7850   35.0590   43.9590 H   0  0  0  0  0  0  0  0  0  0  0  0
  1 28  1  6  0  0  0
  1  2  1  0  0  0  0
  1 16  1  0  0  0  0
  2  7  1  0  0  0  0
  3  8  1  0  0  0  0
  3  2  2  0  0  0  0
  4  3  1  0  0  0  0
  5  4  1  0  0  0  0
  5  6  1  0  0  0  0
  6 14  1  0  0  0  0
  6 13  1  0  0  0  0
  6  1  1  0  0  0  0
  9  4  1  0  0  0  0
 10  4  1  0  0  0  0
 11  5  1  0  0  0  0
 12  5  1  0  0  0  0
 15 21  1  0  0  0  0
 15 20  1  0  0  0  0
 16 17  1  0  0  0  0
 16 15  2  0  0  0  0
 17 18  2  0  0  0  0
 18 19  1  0  0  0  0
 19 23  1  0  0  0  0
 20 19  2  0  0  0  0
 22 17  1  0  0  0  0
 23 24  1  0  0  0  0
 23 27  1  0  0  0  0
 24 25  2  0  0  0  0
 25 26  1  0  0  0  0
 27 26  2  0  0  0  0
 28 30  1  0  0  0  0
 29 28  2  0  0  0  0
 30 31  1  0  0  0  0
 30 35  1  0  0  0  0
 31 33  1  0  0  0  0
 32 31  2  0  0  0  0
 33 37  1  0  0  0  0
 34 32  1  0  0  0  0
 36 33  1  0  0  0  0
M  END
>  <minimizedAffinity>
-6.08601284

>  <minimizedRMSD>
1.60801029

$$$$
