
 OpenBabel03232521003D

 42 45  0  0  1  0  0  0  0  0999 V2000
   45.3340   32.8050   47.4460 C   0  0  0  0  0  0  0  0  0  0  0  0
   45.9390   32.5850   46.2480 C   0  0  0  0  0  0  0  0  0  0  0  0
   46.2710   31.2500   46.0010 C   0  0  0  0  0  0  0  0  0  0  0  0
   46.0190   30.2360   46.8670 N   0  0  0  0  0  0  0  0  0  0  0  0
   45.3990   30.5150   48.0750 C   0  0  0  0  0  0  0  0  0  0  0  0
   45.0750   31.7770   48.3330 N   0  0  0  0  0  0  0  0  0  0  0  0
   45.1400   29.4790   49.0090 N   0  0  0  0  0  0  0  0  0  0  0  0
   45.0400   33.8000   47.7410 H   0  0  0  0  0  0  0  0  0  0  0  0
   45.8730   28.8020   49.3670 H   0  0  0  0  0  0  0  0  0  0  0  0
   44.1700   29.3640   49.3760 H   0  0  0  0  0  0  0  0  0  0  0  0
   46.1790   33.5600   45.2410 C   0  0  2  0  0  0  0  0  0  0  0  0
   44.9670   34.6450   45.4980 C   0  0  0  0  0  0  0  0  0  0  0  0
   44.7320   35.5980   44.4480 C   0  0  0  0  0  0  0  0  0  0  0  0
   45.5310   35.5550   43.2210 C   0  0  1  0  0  0  0  0  0  0  0  0
   46.5920   34.5560   43.1500 C   0  0  0  0  0  0  0  0  0  0  0  0
   46.1460   33.3050   43.8700 C   0  0  0  0  0  0  0  0  0  0  0  0
   46.9920   34.2700   45.5850 H   0  0  0  0  0  0  0  0  0  0  0  0
   44.2940   34.7740   46.3370 H   0  0  0  0  0  0  0  0  0  0  0  0
   43.9620   36.3130   44.5800 H   0  0  0  0  0  0  0  0  0  0  0  0
   45.9660   36.5620   43.0350 H   0  0  0  0  0  0  0  0  0  0  0  0
   46.8890   34.3900   42.0960 H   0  0  0  0  0  0  0  0  0  0  0  0
   47.5100   34.9340   43.6770 H   0  0  0  0  0  0  0  0  0  0  0  0
   46.9970   32.6610   43.5240 H   0  0  0  0  0  0  0  0  0  0  0  0
   45.1910   32.9980   43.3930 H   0  0  0  0  0  0  0  0  0  0  0  0
   44.5150   35.3100   42.0650 C   0  0  0  0  0  0  0  0  0  0  0  0
   43.4380   34.5340   42.4570 F   0  0  0  0  0  0  0  0  0  0  0  0
   43.9990   36.5600   41.7310 F   0  0  0  0  0  0  0  0  0  0  0  0
   45.1830   34.8400   40.9540 F   0  0  0  0  0  0  0  0  0  0  0  0
   46.9790   30.6010   44.9140 C   0  0  0  0  0  0  0  0  0  0  0  0
   46.7130   29.7970   43.8520 C   0  0  0  0  0  0  0  0  0  0  0  0
   47.9270   29.5020   43.2120 C   0  0  0  0  0  0  0  0  0  0  0  0
   48.8630   30.1390   43.9160 N   0  0  0  0  0  0  0  0  0  0  0  0
   48.3310   30.7930   44.9220 N   0  0  0  0  0  0  0  0  0  0  0  0
   45.6810   29.5310   43.6800 H   0  0  0  0  0  0  0  0  0  0  0  0
   47.9400   28.8710   42.3360 H   0  0  0  0  0  0  0  0  0  0  0  0
   50.2600   30.0780   43.5660 C   0  0  0  0  0  0  0  0  0  0  0  0
   51.1860   29.3700   44.3350 C   0  0  0  0  0  3  0  0  0  0  0  0
   52.3820   29.5530   43.6810 C   0  0  0  0  0  0  0  0  0  0  0  0
   53.2840   29.1030   44.0700 H   0  0  0  0  0  0  0  0  0  0  0  0
   52.1750   30.3310   42.5800 N   0  0  0  0  0  0  0  0  0  0  0  0
   50.8740   30.6500   42.5150 N   0  0  0  0  0  0  0  0  0  0  0  0
   52.9730   30.5810   41.9530 H   0  0  0  0  0  0  0  0  0  0  0  0
  1  8  1  0  0  0  0
  1  6  1  0  0  0  0
  2  1  2  0  0  0  0
  3  2  1  0  0  0  0
  3  4  2  0  0  0  0
  4  5  1  0  0  0  0
  5  6  2  0  0  0  0
  5  7  1  0  0  0  0
  7  9  1  0  0  0  0
  7 10  1  0  0  0  0
 11 12  1  0  0  0  0
 11 17  1  1  0  0  0
 11  2  1  0  0  0  0
 12 18  1  0  0  0  0
 13 19  1  0  0  0  0
 13 12  2  0  0  0  0
 14 20  1  6  0  0  0
 14 13  1  0  0  0  0
 15 14  1  0  0  0  0
 15 22  1  0  0  0  0
 15 16  1  0  0  0  0
 16 11  1  0  0  0  0
 21 15  1  0  0  0  0
 23 16  1  0  0  0  0
 24 16  1  0  0  0  0
 25 26  1  0  0  0  0
 25 14  1  0  0  0  0
 27 25  1  0  0  0  0
 28 25  1  0  0  0  0
 29 33  2  0  0  0  0
 29  3  1  0  0  0  0
 30 29  1  0  0  0  0
 31 30  2  0  0  0  0
 31 32  1  0  0  0  0
 32 33  1  0  0  0  0
 34 30  1  0  0  0  0
 35 31  1  0  0  0  0
 36 32  1  0  0  0  0
 36 37  1  0  0  0  0
 38 39  1  0  0  0  0
 38 37  2  0  0  0  0
 40 38  1  0  0  0  0
 41 40  1  0  0  0  0
 41 36  2  0  0  0  0
 42 40  1  0  0  0  0
M  END
>  <minimizedAffinity>
-6.0350318

>  <minimizedRMSD>
0.364233583

$$$$
