
 OpenBabel03232521013D

 42 45  0  0  1  0  0  0  0  0999 V2000
   45.3550   32.8920   47.5150 C   0  0  0  0  0  0  0  0  0  0  0  0
   45.9150   32.6360   46.3010 C   0  0  0  0  0  0  0  0  0  0  0  0
   46.1870   31.2870   46.0590 C   0  0  0  0  0  0  0  0  0  0  0  0
   45.9220   30.2930   46.9440 N   0  0  0  0  0  0  0  0  0  0  0  0
   45.3500   30.6070   48.1660 C   0  0  0  0  0  0  0  0  0  0  0  0
   45.0840   31.8840   48.4200 N   0  0  0  0  0  0  0  0  0  0  0  0
   45.0790   29.5920   49.1200 N   0  0  0  0  0  0  0  0  0  0  0  0
   45.1090   33.9010   47.8060 H   0  0  0  0  0  0  0  0  0  0  0  0
   45.7960   28.8900   49.4630 H   0  0  0  0  0  0  0  0  0  0  0  0
   44.1170   29.5190   49.5170 H   0  0  0  0  0  0  0  0  0  0  0  0
   46.1620   33.5910   45.2760 C   0  0  2  0  0  0  0  0  0  0  0  0
   44.9510   34.6840   45.5060 C   0  0  0  0  0  0  0  0  0  0  0  0
   44.7230   35.6160   44.4370 C   0  0  0  0  0  0  0  0  0  0  0  0
   45.5280   35.5470   43.2150 C   0  0  1  0  0  0  0  0  0  0  0  0
   46.5880   34.5450   43.1690 C   0  0  0  0  0  0  0  0  0  0  0  0
   46.1350   33.3090   43.9110 C   0  0  0  0  0  0  0  0  0  0  0  0
   46.9740   34.3060   45.6110 H   0  0  0  0  0  0  0  0  0  0  0  0
   44.2740   34.8300   46.3390 H   0  0  0  0  0  0  0  0  0  0  0  0
   43.9530   36.3350   44.5500 H   0  0  0  0  0  0  0  0  0  0  0  0
   45.9660   36.5490   43.0110 H   0  0  0  0  0  0  0  0  0  0  0  0
   46.8890   34.3580   42.1190 H   0  0  0  0  0  0  0  0  0  0  0  0
   47.5030   34.9320   43.6930 H   0  0  0  0  0  0  0  0  0  0  0  0
   46.9860   32.6570   43.5820 H   0  0  0  0  0  0  0  0  0  0  0  0
   45.1820   32.9950   43.4350 H   0  0  0  0  0  0  0  0  0  0  0  0
   44.5170   35.2820   42.0590 C   0  0  0  0  0  0  0  0  0  0  0  0
   43.4550   34.4860   42.4510 F   0  0  0  0  0  0  0  0  0  0  0  0
   43.9780   36.5220   41.7230 F   0  0  0  0  0  0  0  0  0  0  0  0
   45.1950   34.8240   40.9480 F   0  0  0  0  0  0  0  0  0  0  0  0
   46.8360   30.5990   44.9590 C   0  0  0  0  0  0  0  0  0  0  0  0
   46.5010   29.8380   43.8860 C   0  0  0  0  0  0  0  0  0  0  0  0
   47.6840   29.4540   43.2350 C   0  0  0  0  0  0  0  0  0  0  0  0
   48.6720   30.0000   43.9460 N   0  0  0  0  0  0  0  0  0  0  0  0
   48.1990   30.6790   44.9640 N   0  0  0  0  0  0  0  0  0  0  0  0
   45.4490   29.6620   43.7130 H   0  0  0  0  0  0  0  0  0  0  0  0
   47.6420   28.8390   42.3490 H   0  0  0  0  0  0  0  0  0  0  0  0
   50.0580   29.8290   43.5890 C   0  0  0  0  0  0  0  0  0  0  0  0
   50.9940   29.3020   44.4820 C   0  0  0  0  0  3  0  0  0  0  0  0
   52.1740   29.3020   43.7770 C   0  0  0  0  0  0  0  0  0  0  0  0
   53.0780   28.9370   44.2410 H   0  0  0  0  0  0  0  0  0  0  0  0
   51.9500   29.8050   42.5290 N   0  0  0  0  0  0  0  0  0  0  0  0
   50.6520   30.1260   42.4200 N   0  0  0  0  0  0  0  0  0  0  0  0
   52.7350   29.8840   41.8440 H   0  0  0  0  0  0  0  0  0  0  0  0
  1  8  1  0  0  0  0
  1  6  1  0  0  0  0
  2  1  2  0  0  0  0
  3  2  1  0  0  0  0
  3  4  2  0  0  0  0
  4  5  1  0  0  0  0
  5  6  2  0  0  0  0
  5  7  1  0  0  0  0
  7  9  1  0  0  0  0
  7 10  1  0  0  0  0
 11 12  1  0  0  0  0
 11 17  1  1  0  0  0
 11  2  1  0  0  0  0
 12 18  1  0  0  0  0
 13 19  1  0  0  0  0
 13 12  2  0  0  0  0
 14 20  1  6  0  0  0
 14 13  1  0  0  0  0
 15 14  1  0  0  0  0
 15 22  1  0  0  0  0
 15 16  1  0  0  0  0
 16 11  1  0  0  0  0
 21 15  1  0  0  0  0
 23 16  1  0  0  0  0
 24 16  1  0  0  0  0
 25 26  1  0  0  0  0
 25 14  1  0  0  0  0
 27 25  1  0  0  0  0
 28 25  1  0  0  0  0
 29 33  2  0  0  0  0
 29  3  1  0  0  0  0
 30 29  1  0  0  0  0
 31 30  2  0  0  0  0
 31 32  1  0  0  0  0
 32 33  1  0  0  0  0
 34 30  1  0  0  0  0
 35 31  1  0  0  0  0
 36 32  1  0  0  0  0
 36 37  1  0  0  0  0
 38 39  1  0  0  0  0
 38 37  2  0  0  0  0
 40 38  1  0  0  0  0
 41 40  1  0  0  0  0
 41 36  2  0  0  0  0
 42 40  1  0  0  0  0
M  END
>  <minimizedAffinity>
-6.00513649

>  <minimizedRMSD>
0.169511139

$$$$
