
 OpenBabel03232521013D

 42 45  0  0  1  0  0  0  0  0999 V2000
   45.4830   32.9150   47.4370 C   0  0  0  0  0  0  0  0  0  0  0  0
   45.9480   32.6420   46.1880 C   0  0  0  0  0  0  0  0  0  0  0  0
   46.1370   31.2830   45.9230 C   0  0  0  0  0  0  0  0  0  0  0  0
   45.8830   30.2960   46.8180 N   0  0  0  0  0  0  0  0  0  0  0  0
   45.4090   30.6280   48.0780 C   0  0  0  0  0  0  0  0  0  0  0  0
   45.2230   31.9140   48.3540 N   0  0  0  0  0  0  0  0  0  0  0  0
   45.1530   29.6200   49.0430 N   0  0  0  0  0  0  0  0  0  0  0  0
   45.3060   33.9320   47.7490 H   0  0  0  0  0  0  0  0  0  0  0  0
   45.8560   28.8820   49.3340 H   0  0  0  0  0  0  0  0  0  0  0  0
   44.2180   29.5910   49.5030 H   0  0  0  0  0  0  0  0  0  0  0  0
   46.1720   33.5910   45.1530 C   0  0  2  0  0  0  0  0  0  0  0  0
   44.9790   34.6960   45.4160 C   0  0  0  0  0  0  0  0  0  0  0  0
   44.7270   35.6260   44.3510 C   0  0  0  0  0  0  0  0  0  0  0  0
   45.4940   35.5470   43.1060 C   0  0  1  0  0  0  0  0  0  0  0  0
   46.5430   34.5350   43.0300 C   0  0  0  0  0  0  0  0  0  0  0  0
   46.1020   33.3060   43.7900 C   0  0  0  0  0  0  0  0  0  0  0  0
   47.0010   34.2990   45.4600 H   0  0  0  0  0  0  0  0  0  0  0  0
   44.3290   34.8500   46.2690 H   0  0  0  0  0  0  0  0  0  0  0  0
   43.9680   36.3530   44.4860 H   0  0  0  0  0  0  0  0  0  0  0  0
   45.9350   36.5440   42.8850 H   0  0  0  0  0  0  0  0  0  0  0  0
   46.8110   34.3420   41.9730 H   0  0  0  0  0  0  0  0  0  0  0  0
   47.4770   34.9150   43.5250 H   0  0  0  0  0  0  0  0  0  0  0  0
   46.9360   32.6450   43.4370 H   0  0  0  0  0  0  0  0  0  0  0  0
   45.1320   32.9990   43.3440 H   0  0  0  0  0  0  0  0  0  0  0  0
   44.4460   35.2880   41.9810 C   0  0  0  0  0  0  0  0  0  0  0  0
   43.3910   34.5010   42.4080 F   0  0  0  0  0  0  0  0  0  0  0  0
   43.9060   36.5310   41.6610 F   0  0  0  0  0  0  0  0  0  0  0  0
   45.0860   34.8230   40.8510 F   0  0  0  0  0  0  0  0  0  0  0  0
   46.6770   30.5730   44.7780 C   0  0  0  0  0  0  0  0  0  0  0  0
   46.2350   29.8460   43.7210 C   0  0  0  0  0  0  0  0  0  0  0  0
   47.3520   29.4030   42.9960 C   0  0  0  0  0  0  0  0  0  0  0  0
   48.4110   29.8810   43.6500 N   0  0  0  0  0  0  0  0  0  0  0  0
   48.0400   30.5740   44.7020 N   0  0  0  0  0  0  0  0  0  0  0  0
   45.1660   29.7320   43.6110 H   0  0  0  0  0  0  0  0  0  0  0  0
   47.2210   28.8020   42.1080 H   0  0  0  0  0  0  0  0  0  0  0  0
   49.7600   29.6360   43.2070 C   0  0  0  0  0  0  0  0  0  0  0  0
   50.1310   28.4400   42.5880 C   0  0  0  0  0  3  0  0  0  0  0  0
   51.4710   28.5950   42.3240 C   0  0  0  0  0  0  0  0  0  0  0  0
   52.0200   27.8020   41.8380 H   0  0  0  0  0  0  0  0  0  0  0  0
   51.8760   29.8210   42.7640 N   0  0  0  0  0  0  0  0  0  0  0  0
   50.8230   30.4540   43.3050 N   0  0  0  0  0  0  0  0  0  0  0  0
   52.8700   30.1220   42.6500 H   0  0  0  0  0  0  0  0  0  0  0  0
  1  8  1  0  0  0  0
  1  6  1  0  0  0  0
  2  1  2  0  0  0  0
  3  2  1  0  0  0  0
  3  4  2  0  0  0  0
  4  5  1  0  0  0  0
  5  6  2  0  0  0  0
  5  7  1  0  0  0  0
  7  9  1  0  0  0  0
  7 10  1  0  0  0  0
 11 12  1  0  0  0  0
 11 17  1  1  0  0  0
 11  2  1  0  0  0  0
 12 18  1  0  0  0  0
 13 19  1  0  0  0  0
 13 12  2  0  0  0  0
 14 20  1  6  0  0  0
 14 13  1  0  0  0  0
 15 14  1  0  0  0  0
 15 22  1  0  0  0  0
 15 16  1  0  0  0  0
 16 11  1  0  0  0  0
 21 15  1  0  0  0  0
 23 16  1  0  0  0  0
 24 16  1  0  0  0  0
 25 26  1  0  0  0  0
 25 14  1  0  0  0  0
 27 25  1  0  0  0  0
 28 25  1  0  0  0  0
 29  3  1  0  0  0  0
 30 29  1  0  0  0  0
 31 32  1  0  0  0  0
 31 30  2  0  0  0  0
 32 33  1  0  0  0  0
 33 29  2  0  0  0  0
 34 30  1  0  0  0  0
 35 31  1  0  0  0  0
 36 41  2  0  0  0  0
 36 32  1  0  0  0  0
 37 36  1  0  0  0  0
 38 37  2  0  0  0  0
 38 40  1  0  0  0  0
 39 38  1  0  0  0  0
 40 41  1  0  0  0  0
 42 40  1  0  0  0  0
M  END
>  <minimizedAffinity>
-5.92417765

>  <minimizedRMSD>
0.216587275

$$$$
