
 OpenBabel03232521013D

 42 45  0  0  1  0  0  0  0  0999 V2000
   45.3400   32.8770   47.4960 C   0  0  0  0  0  0  0  0  0  0  0  0
   45.9120   32.6290   46.2870 C   0  0  0  0  0  0  0  0  0  0  0  0
   46.1990   31.2840   46.0440 C   0  0  0  0  0  0  0  0  0  0  0  0
   45.9370   30.2840   46.9230 N   0  0  0  0  0  0  0  0  0  0  0  0
   45.3520   30.5900   48.1420 C   0  0  0  0  0  0  0  0  0  0  0  0
   45.0710   31.8630   48.3970 N   0  0  0  0  0  0  0  0  0  0  0  0
   45.0830   29.5700   49.0910 N   0  0  0  0  0  0  0  0  0  0  0  0
   45.0820   33.8820   47.7890 H   0  0  0  0  0  0  0  0  0  0  0  0
   45.8040   28.8740   49.4380 H   0  0  0  0  0  0  0  0  0  0  0  0
   44.1190   29.4860   49.4800 H   0  0  0  0  0  0  0  0  0  0  0  0
   46.1580   33.5890   45.2660 C   0  0  2  0  0  0  0  0  0  0  0  0
   44.9480   34.6820   45.5050 C   0  0  0  0  0  0  0  0  0  0  0  0
   44.7190   35.6200   44.4410 C   0  0  0  0  0  0  0  0  0  0  0  0
   45.5210   35.5570   43.2170 C   0  0  1  0  0  0  0  0  0  0  0  0
   46.5800   34.5540   43.1630 C   0  0  0  0  0  0  0  0  0  0  0  0
   46.1280   33.3150   43.8990 C   0  0  0  0  0  0  0  0  0  0  0  0
   46.9710   34.3010   45.6030 H   0  0  0  0  0  0  0  0  0  0  0  0
   44.2740   34.8240   46.3400 H   0  0  0  0  0  0  0  0  0  0  0  0
   43.9510   36.3390   44.5600 H   0  0  0  0  0  0  0  0  0  0  0  0
   45.9600   36.5600   43.0170 H   0  0  0  0  0  0  0  0  0  0  0  0
   46.8790   34.3720   42.1120 H   0  0  0  0  0  0  0  0  0  0  0  0
   47.4970   34.9370   43.6870 H   0  0  0  0  0  0  0  0  0  0  0  0
   46.9770   32.6630   43.5650 H   0  0  0  0  0  0  0  0  0  0  0  0
   45.1730   33.0040   43.4240 H   0  0  0  0  0  0  0  0  0  0  0  0
   44.5070   35.2990   42.0610 C   0  0  0  0  0  0  0  0  0  0  0  0
   43.4390   34.5140   42.4560 F   0  0  0  0  0  0  0  0  0  0  0  0
   43.9790   36.5430   41.7240 F   0  0  0  0  0  0  0  0  0  0  0  0
   45.1810   34.8330   40.9510 F   0  0  0  0  0  0  0  0  0  0  0  0
   46.8630   30.6050   44.9460 C   0  0  0  0  0  0  0  0  0  0  0  0
   46.5470   29.8210   43.8840 C   0  0  0  0  0  0  0  0  0  0  0  0
   47.7380   29.4690   43.2300 C   0  0  0  0  0  0  0  0  0  0  0  0
   48.7110   30.0540   43.9280 N   0  0  0  0  0  0  0  0  0  0  0  0
   48.2230   30.7290   44.9420 N   0  0  0  0  0  0  0  0  0  0  0  0
   45.5000   29.6090   43.7200 H   0  0  0  0  0  0  0  0  0  0  0  0
   47.7100   28.8430   42.3510 H   0  0  0  0  0  0  0  0  0  0  0  0
   50.1000   29.9250   43.5640 C   0  0  0  0  0  0  0  0  0  0  0  0
   50.5690   30.2800   42.2970 C   0  0  0  0  0  3  0  0  0  0  0  0
   51.9170   30.0130   42.3470 C   0  0  0  0  0  0  0  0  0  0  0  0
   52.5360   30.2000   41.4810 H   0  0  0  0  0  0  0  0  0  0  0  0
   52.2320   29.5260   43.5820 N   0  0  0  0  0  0  0  0  0  0  0  0
   51.1150   29.4740   44.3220 N   0  0  0  0  0  0  0  0  0  0  0  0
   53.2170   29.2640   43.8090 H   0  0  0  0  0  0  0  0  0  0  0  0
  1  8  1  0  0  0  0
  1  6  1  0  0  0  0
  2  1  2  0  0  0  0
  3  2  1  0  0  0  0
  3  4  2  0  0  0  0
  4  5  1  0  0  0  0
  5  6  2  0  0  0  0
  5  7  1  0  0  0  0
  7  9  1  0  0  0  0
  7 10  1  0  0  0  0
 11 12  1  0  0  0  0
 11 17  1  1  0  0  0
 11  2  1  0  0  0  0
 12 18  1  0  0  0  0
 13 19  1  0  0  0  0
 13 12  2  0  0  0  0
 14 20  1  6  0  0  0
 14 13  1  0  0  0  0
 15 14  1  0  0  0  0
 15 22  1  0  0  0  0
 15 16  1  0  0  0  0
 16 11  1  0  0  0  0
 21 15  1  0  0  0  0
 23 16  1  0  0  0  0
 24 16  1  0  0  0  0
 25 26  1  0  0  0  0
 25 14  1  0  0  0  0
 27 25  1  0  0  0  0
 28 25  1  0  0  0  0
 29  3  1  0  0  0  0
 30 29  1  0  0  0  0
 31 30  2  0  0  0  0
 31 32  1  0  0  0  0
 32 33  1  0  0  0  0
 33 29  2  0  0  0  0
 34 30  1  0  0  0  0
 35 31  1  0  0  0  0
 36 32  1  0  0  0  0
 36 41  2  0  0  0  0
 37 38  2  0  0  0  0
 37 36  1  0  0  0  0
 38 40  1  0  0  0  0
 39 38  1  0  0  0  0
 40 42  1  0  0  0  0
 40 41  1  0  0  0  0
M  END
>  <minimizedAffinity>
-5.99801731

>  <minimizedRMSD>
0.224702761

$$$$
