
 OpenBabel03232521003D

 42 45  0  0  1  0  0  0  0  0999 V2000
   45.4820   32.8490   47.5000 C   0  0  0  0  0  0  0  0  0  0  0  0
   45.9490   32.6010   46.2460 C   0  0  0  0  0  0  0  0  0  0  0  0
   46.1280   31.2470   45.9500 C   0  0  0  0  0  0  0  0  0  0  0  0
   45.8640   30.2410   46.8230 N   0  0  0  0  0  0  0  0  0  0  0  0
   45.3890   30.5490   48.0880 C   0  0  0  0  0  0  0  0  0  0  0  0
   45.2120   31.8300   48.3930 N   0  0  0  0  0  0  0  0  0  0  0  0
   45.1220   29.5220   49.0290 N   0  0  0  0  0  0  0  0  0  0  0  0
   45.3130   33.8600   47.8340 H   0  0  0  0  0  0  0  0  0  0  0  0
   45.8190   28.7710   49.3060 H   0  0  0  0  0  0  0  0  0  0  0  0
   44.1850   29.4890   49.4860 H   0  0  0  0  0  0  0  0  0  0  0  0
   46.1840   33.5710   45.2340 C   0  0  2  0  0  0  0  0  0  0  0  0
   44.9680   34.6540   45.4870 C   0  0  0  0  0  0  0  0  0  0  0  0
   44.7280   35.6000   44.4330 C   0  0  0  0  0  0  0  0  0  0  0  0
   45.5260   35.5530   43.2050 C   0  0  1  0  0  0  0  0  0  0  0  0
   46.5910   34.5590   43.1370 C   0  0  0  0  0  0  0  0  0  0  0  0
   46.1500   33.3100   43.8640 C   0  0  0  0  0  0  0  0  0  0  0  0
   46.9940   34.2860   45.5730 H   0  0  0  0  0  0  0  0  0  0  0  0
   44.2960   34.7840   46.3260 H   0  0  0  0  0  0  0  0  0  0  0  0
   43.9550   36.3130   44.5610 H   0  0  0  0  0  0  0  0  0  0  0  0
   45.9570   36.5610   43.0130 H   0  0  0  0  0  0  0  0  0  0  0  0
   46.8870   34.3880   42.0830 H   0  0  0  0  0  0  0  0  0  0  0  0
   47.5070   34.9430   43.6610 H   0  0  0  0  0  0  0  0  0  0  0  0
   47.0020   32.6670   43.5200 H   0  0  0  0  0  0  0  0  0  0  0  0
   45.1960   32.9970   43.3900 H   0  0  0  0  0  0  0  0  0  0  0  0
   44.5090   35.3000   42.0510 C   0  0  0  0  0  0  0  0  0  0  0  0
   43.4400   34.5150   42.4470 F   0  0  0  0  0  0  0  0  0  0  0  0
   43.9820   36.5450   41.7170 F   0  0  0  0  0  0  0  0  0  0  0  0
   45.1790   34.8340   40.9380 F   0  0  0  0  0  0  0  0  0  0  0  0
   46.6650   30.5590   44.7910 C   0  0  0  0  0  0  0  0  0  0  0  0
   46.2190   29.8860   43.7000 C   0  0  0  0  0  0  0  0  0  0  0  0
   47.3350   29.4290   42.9810 C   0  0  0  0  0  0  0  0  0  0  0  0
   48.3960   29.8460   43.6720 N   0  0  0  0  0  0  0  0  0  0  0  0
   48.0290   30.5130   44.7410 N   0  0  0  0  0  0  0  0  0  0  0  0
   45.1490   29.8150   43.5660 H   0  0  0  0  0  0  0  0  0  0  0  0
   47.2000   28.8650   42.0700 H   0  0  0  0  0  0  0  0  0  0  0  0
   49.7450   29.5680   43.2460 C   0  0  0  0  0  0  0  0  0  0  0  0
   50.0390   28.5510   42.3360 C   0  0  0  0  0  3  0  0  0  0  0  0
   51.4060   28.6060   42.1930 C   0  0  0  0  0  0  0  0  0  0  0  0
   51.9080   27.9140   41.5320 H   0  0  0  0  0  0  0  0  0  0  0  0
   51.8970   29.6080   42.9790 N   0  0  0  0  0  0  0  0  0  0  0  0
   50.8750   30.1920   43.6210 N   0  0  0  0  0  0  0  0  0  0  0  0
   52.9230   29.8030   43.0030 H   0  0  0  0  0  0  0  0  0  0  0  0
  1  8  1  0  0  0  0
  1  6  1  0  0  0  0
  2  1  2  0  0  0  0
  3  2  1  0  0  0  0
  3  4  2  0  0  0  0
  4  5  1  0  0  0  0
  5  6  2  0  0  0  0
  5  7  1  0  0  0  0
  7  9  1  0  0  0  0
  7 10  1  0  0  0  0
 11 12  1  0  0  0  0
 11 17  1  1  0  0  0
 11  2  1  0  0  0  0
 12 18  1  0  0  0  0
 13 19  1  0  0  0  0
 13 12  2  0  0  0  0
 14 20  1  6  0  0  0
 14 13  1  0  0  0  0
 15 14  1  0  0  0  0
 15 22  1  0  0  0  0
 15 16  1  0  0  0  0
 16 11  1  0  0  0  0
 21 15  1  0  0  0  0
 23 16  1  0  0  0  0
 24 16  1  0  0  0  0
 25 26  1  0  0  0  0
 25 14  1  0  0  0  0
 27 25  1  0  0  0  0
 28 25  1  0  0  0  0
 29  3  1  0  0  0  0
 30 29  1  0  0  0  0
 31 32  1  0  0  0  0
 31 30  2  0  0  0  0
 32 33  1  0  0  0  0
 33 29  2  0  0  0  0
 34 30  1  0  0  0  0
 35 31  1  0  0  0  0
 36 41  2  0  0  0  0
 36 32  1  0  0  0  0
 37 36  1  0  0  0  0
 38 37  2  0  0  0  0
 38 40  1  0  0  0  0
 39 38  1  0  0  0  0
 40 42  1  0  0  0  0
 40 41  1  0  0  0  0
M  END
>  <minimizedAffinity>
-5.901052

>  <minimizedRMSD>
0.190659896

$$$$
