
 OpenBabel03232520113D

 36 39  0  0  1  0  0  0  0  0999 V2000
   49.1550   29.0880   48.8330 N   0  0  0  0  0  0  0  0  0  0  0  0
   49.2870   27.7680   48.3000 C   0  0  0  0  0  0  0  0  0  0  0  0
   50.7270   27.3330   48.1930 C   0  0  0  0  0  0  0  0  0  0  0  0
   51.5550   27.8340   49.3370 C   0  0  0  0  0  0  0  0  0  0  0  0
   50.6820   28.2620   50.5070 C   0  0  0  0  0  0  0  0  0  0  0  0
   49.8770   29.4340   50.0500 C   0  0  1  0  0  0  0  0  0  0  0  0
   48.7610   27.0530   48.9900 H   0  0  0  0  0  0  0  0  0  0  0  0
   48.7960   27.6610   47.3150 H   0  0  0  0  0  0  0  0  0  0  0  0
   50.7600   26.2430   48.0350 H   0  0  0  0  0  0  0  0  0  0  0  0
   51.1640   27.7680   47.2480 H   0  0  0  0  0  0  0  0  0  0  0  0
   52.1860   26.9950   49.7100 H   0  0  0  0  0  0  0  0  0  0  0  0
   52.2290   28.6740   49.0770 H   0  0  0  0  0  0  0  0  0  0  0  0
   51.3580   28.5920   51.3160 H   0  0  0  0  0  0  0  0  0  0  0  0
   50.0600   27.4310   50.8560 H   0  0  0  0  0  0  0  0  0  0  0  0
   49.0760   29.5850   50.8140 H   0  0  0  0  0  0  0  0  0  0  0  0
   47.1500   32.0640   46.9510 C   0  0  0  0  0  0  0  0  0  0  0  0
   46.9990   32.0710   48.3120 C   0  0  0  0  0  0  0  0  0  0  0  0
   47.6260   31.1190   49.0500 C   0  0  0  0  0  0  0  0  0  0  0  0
   48.3830   30.2010   48.3410 C   0  0  0  0  0  0  0  0  0  0  0  0
   48.2090   30.6840   46.6240 S   0  0  0  0  0  0  0  0  0  0  0  0
   46.3760   32.8460   48.7530 H   0  0  0  0  0  0  0  0  0  0  0  0
   47.5860   31.0200   50.1060 H   0  0  0  0  0  0  0  0  0  0  0  0
   45.0280   34.5790   45.3130 C   0  0  0  0  0  0  0  0  0  0  0  0
   45.5820   34.6120   44.0170 C   0  0  0  0  0  0  0  0  0  0  0  0
   46.6850   33.7610   43.7300 C   0  0  0  0  0  0  0  0  0  0  0  0
   47.1590   32.9470   44.7280 N   0  0  0  0  0  0  0  0  0  0  0  0
   46.5990   32.9520   45.9450 C   0  0  0  0  0  0  0  0  0  0  0  0
   45.5440   33.7590   46.2350 N   0  0  0  0  0  0  0  0  0  0  0  0
   44.1900   35.2340   45.5100 H   0  0  0  0  0  0  0  0  0  0  0  0
   45.2180   35.2420   43.2350 H   0  0  0  0  0  0  0  0  0  0  0  0
   47.1470   33.7480   42.7520 H   0  0  0  0  0  0  0  0  0  0  0  0
   50.6400   30.6350   49.9530 N   0  0  0  0  0  0  0  0  0  0  0  0
   50.5980   31.7350   50.7510 C   0  0  0  0  0  0  0  0  0  0  0  0
   51.5380   32.6260   50.2350 C   0  0  0  0  0  0  0  0  0  0  0  0
   52.1270   32.0890   49.1660 N   0  0  0  0  0  0  0  0  0  0  0  0
   51.5810   30.8900   49.0020 C   0  0  0  0  0  0  0  0  0  0  0  0
  1  6  1  0  0  0  0
  2  1  1  0  0  0  0
  2  7  1  0  0  0  0
  3  2  1  0  0  0  0
  3  4  1  0  0  0  0
  4 11  1  0  0  0  0
  4  5  1  0  0  0  0
  5 14  1  0  0  0  0
  5 13  1  0  0  0  0
  6  5  1  0  0  0  0
  6 15  1  1  0  0  0
  8  2  1  0  0  0  0
  9  3  1  0  0  0  0
 10  3  1  0  0  0  0
 12  4  1  0  0  0  0
 16 17  2  0  0  0  0
 17 21  1  0  0  0  0
 17 18  1  0  0  0  0
 18 22  1  0  0  0  0
 19  1  1  0  0  0  0
 19 18  2  0  0  0  0
 20 16  1  0  0  0  0
 20 19  1  0  0  0  0
 23 29  1  0  0  0  0
 23 28  1  0  0  0  0
 24 23  2  0  0  0  0
 25 24  1  0  0  0  0
 25 26  2  0  0  0  0
 26 27  1  0  0  0  0
 27 28  2  0  0  0  0
 27 16  1  0  0  0  0
 30 24  1  0  0  0  0
 31 25  1  0  0  0  0
 32  6  1  0  0  0  0
 32 33  1  0  0  0  0
 34 33  2  0  0  0  0
 35 34  1  0  0  0  0
 36 35  2  0  0  0  0
 36 32  1  0  0  0  0
M  END
>  <minimizedAffinity>
-4.61901808

>  <minimizedRMSD>
2.28207922

$$$$
