
 OpenBabel03232514313D

 36 39  0  0  0  0  0  0  0  0999 V2000
   44.4250   35.3900   44.6690 C   0  0  0  0  0  0  0  0  0  0  0  0
   45.0830   35.3580   43.4380 C   0  0  0  0  0  0  0  0  0  0  0  0
   46.2270   34.5690   43.3270 C   0  0  0  0  0  0  0  0  0  0  0  0
   46.6260   33.8800   44.4250 N   0  0  0  0  0  0  0  0  0  0  0  0
   45.9880   33.9170   45.6020 C   0  0  0  0  0  0  0  0  0  0  0  0
   44.8840   34.6720   45.7300 N   0  0  0  0  0  0  0  0  0  0  0  0
   43.5440   36.0150   44.7060 H   0  0  0  0  0  0  0  0  0  0  0  0
   46.3170   33.3630   46.4690 H   0  0  0  0  0  0  0  0  0  0  0  0
   44.5930   36.1380   42.2690 C   0  0  0  0  0  0  0  0  0  0  0  0
   45.4160   36.3810   41.5910 H   0  0  0  0  0  0  0  0  0  0  0  0
   44.2600   37.1250   42.6900 H   0  0  0  0  0  0  0  0  0  0  0  0
   43.4640   35.4220   41.5810 C   0  0  0  0  0  0  0  0  0  0  0  0
   43.7150   34.5920   40.5160 C   0  0  0  0  0  0  0  0  0  0  0  0
   42.0580   33.9830   40.0490 S   0  0  0  0  0  0  0  0  0  0  0  0
   41.2820   35.0310   41.4720 C   0  0  0  0  0  0  0  0  0  0  0  0
   42.2110   35.5110   41.9060 N   0  0  0  0  0  0  0  0  0  0  0  0
   44.6710   34.3440   40.0460 H   0  0  0  0  0  0  0  0  0  0  0  0
   40.2050   35.0710   41.7060 H   0  0  0  0  0  0  0  0  0  0  0  0
   47.1370   34.4510   41.8290 S   0  0  0  0  0  0  0  0  0  0  0  0
   48.6650   33.8070   41.8680 C   0  0  0  0  0  0  0  0  0  0  0  0
   49.9120   33.8470   42.4620 C   0  0  0  0  0  0  0  0  0  0  0  0
   50.9430   33.0610   42.1390 C   0  0  0  0  0  0  0  0  0  0  0  0
   50.7430   32.1230   41.1160 C   0  0  0  0  0  0  0  0  0  0  0  0
   48.9630   32.4350   40.6350 S   0  0  0  0  0  0  0  0  0  0  0  0
   49.8460   34.6280   43.2090 H   0  0  0  0  0  0  0  0  0  0  0  0
   51.8790   33.1670   42.6610 H   0  0  0  0  0  0  0  0  0  0  0  0
   51.5680   31.1540   40.5150 C   0  0  0  0  0  0  0  0  0  0  0  0
   51.0920   30.0650   40.1230 O   0  0  0  0  0  0  0  0  0  0  0  0
   52.8860   31.5000   40.4040 O   0  0  0  0  0  0  0  0  0  0  0  0
   55.7010   28.9580   38.0500 H   0  0  0  0  0  0  0  0  0  0  0  0
   55.0380   29.7430   38.2310 N   0  0  0  0  0  0  0  0  0  0  0  0
   54.4450   29.9560   39.3770 N   0  0  0  0  0  0  0  0  0  0  0  0
   53.6420   31.0530   39.2980 C   0  0  0  0  0  0  0  0  0  0  0  0
   53.7300   31.5720   38.0220 C   0  0  0  0  0  0  0  0  0  0  0  0
   54.6230   30.7150   37.3730 C   0  0  0  0  0  0  0  0  0  0  0  0
   54.9270   30.8280   36.3410 H   0  0  0  0  0  0  0  0  0  0  0  0
  1  7  1  0  0  0  0
  1  6  1  0  0  0  0
  2  1  2  0  0  0  0
  3  2  1  0  0  0  0
  3  4  2  0  0  0  0
  4  5  1  0  0  0  0
  5  6  2  0  0  0  0
  5  8  1  0  0  0  0
  9 11  1  0  0  0  0
  9  2  1  0  0  0  0
 10  9  1  0  0  0  0
 12 16  1  0  0  0  0
 12  9  1  0  0  0  0
 13 12  2  0  0  0  0
 14 13  1  0  0  0  0
 14 15  1  0  0  0  0
 15 18  1  0  0  0  0
 15 16  2  0  0  0  0
 17 13  1  0  0  0  0
 19 20  1  0  0  0  0
 19  3  1  0  0  0  0
 20 21  2  0  0  0  0
 21 25  1  0  0  0  0
 22 21  1  0  0  0  0
 22 26  1  0  0  0  0
 23 22  2  0  0  0  0
 24 23  1  0  0  0  0
 24 20  1  0  0  0  0
 27 23  1  0  0  0  0
 28 27  2  0  0  0  0
 29 27  1  0  0  0  0
 30 31  1  0  0  0  0
 31 32  1  0  0  0  0
 33 32  2  0  0  0  0
 33 29  1  0  0  0  0
 34 33  1  0  0  0  0
 35 34  2  0  0  0  0
 35 31  1  0  0  0  0
 36 35  1  0  0  0  0
M  END
>  <minimizedAffinity>
-5.32947636

>  <minimizedRMSD>
0.841347218

$$$$
