
 OpenBabel03232520273D

 41 45  0  0  1  0  0  0  0  0999 V2000
   46.9290   34.5220   41.3120 C   0  0  0  0  0  0  0  0  0  0  0  0
   48.1870   34.9580   40.9590 C   0  0  0  0  0  0  0  0  0  0  0  0
   48.4570   34.6580   39.6930 N   0  0  0  0  0  0  0  0  0  0  0  0
   47.3740   34.0190   39.2050 C   0  0  0  0  0  0  0  0  0  0  0  0
   47.1210   33.4910   37.9450 C   0  0  0  0  0  0  0  0  0  0  0  0
   45.9150   32.8830   37.7110 C   0  0  0  0  0  0  0  0  0  0  0  0
   44.9110   32.7520   38.6480 C   0  0  0  0  0  0  0  0  0  0  0  0
   45.2040   33.2910   39.8880 C   0  0  0  0  0  0  0  0  0  0  0  0
   46.3880   33.9120   40.1900 C   0  0  0  0  0  0  0  0  0  0  0  0
   49.3230   34.8450   39.1060 H   0  0  0  0  0  0  0  0  0  0  0  0
   47.8700   33.5630   37.1670 H   0  0  0  0  0  0  0  0  0  0  0  0
   45.7620   32.4860   36.7160 H   0  0  0  0  0  0  0  0  0  0  0  0
   43.9810   32.2660   38.4200 H   0  0  0  0  0  0  0  0  0  0  0  0
   44.4750   33.2330   40.6850 H   0  0  0  0  0  0  0  0  0  0  0  0
   44.7770   35.8630   44.0510 C   0  0  0  0  0  0  0  0  0  0  0  0
   45.4140   35.7440   42.8030 C   0  0  0  0  0  0  0  0  0  0  0  0
   46.2600   34.6570   42.6100 C   0  0  0  0  0  0  0  0  0  0  0  0
   46.4450   33.7470   43.6230 N   0  0  0  0  0  0  0  0  0  0  0  0
   45.7990   33.9260   44.7970 C   0  0  0  0  0  0  0  0  0  0  0  0
   44.9720   34.9620   45.0300 N   0  0  0  0  0  0  0  0  0  0  0  0
   44.1150   36.7120   44.2030 H   0  0  0  0  0  0  0  0  0  0  0  0
   45.2300   36.4900   42.0410 H   0  0  0  0  0  0  0  0  0  0  0  0
   45.9400   33.2240   45.5860 H   0  0  0  0  0  0  0  0  0  0  0  0
   49.1040   35.6700   41.8900 C   0  0  0  0  0  0  0  0  0  0  0  0
   49.7590   36.3790   41.3500 H   0  0  0  0  0  0  0  0  0  0  0  0
   48.5410   36.3050   42.6330 H   0  0  0  0  0  0  0  0  0  0  0  0
   49.9530   34.7130   42.6620 C   0  0  0  0  0  0  0  0  0  0  0  0
   49.4290   34.4860   43.6370 H   0  0  0  0  0  0  0  0  0  0  0  0
   50.9280   35.1630   42.9800 H   0  0  0  0  0  0  0  0  0  0  0  0
   50.3150   33.4460   41.9240 C   0  0  1  0  0  0  0  0  0  0  0  0
   51.0720   32.3710   42.5310 C   0  0  0  0  0  0  0  0  0  0  0  0
   49.5910   32.1960   42.4600 C   0  0  2  0  0  0  0  0  0  0  0  0
   50.3110   33.5290   40.8160 H   0  0  0  0  0  0  0  0  0  0  0  0
   51.7330   31.7760   41.8660 H   0  0  0  0  0  0  0  0  0  0  0  0
   51.5600   32.5640   43.5260 H   0  0  0  0  0  0  0  0  0  0  0  0
   49.0830   32.2870   43.4320 H   0  0  0  0  0  0  0  0  0  0  0  0
   49.1310   31.2150   41.5100 N   0  0  0  0  0  0  0  0  0  0  0  0
   47.8550   30.8940   41.2250 C   0  0  0  0  0  0  0  0  0  0  0  0
   47.8310   29.9120   40.2610 C   0  0  0  0  0  0  0  0  0  0  0  0
   49.1220   29.6460   39.9730 N   0  0  0  0  0  0  0  0  0  0  0  0
   49.9010   30.4450   40.7380 C   0  0  0  0  0  0  0  0  0  0  0  0
  1 17  1  0  0  0  0
  2  1  2  0  0  0  0
  2 24  1  0  0  0  0
  3  2  1  0  0  0  0
  4  3  1  0  0  0  0
  4  9  1  0  0  0  0
  5  4  2  0  0  0  0
  6  5  1  0  0  0  0
  6  7  2  0  0  0  0
  7  8  1  0  0  0  0
  8  9  2  0  0  0  0
  8 14  1  0  0  0  0
  9  1  1  0  0  0  0
 10  3  1  0  0  0  0
 11  5  1  0  0  0  0
 12  6  1  0  0  0  0
 13  7  1  0  0  0  0
 15 21  1  0  0  0  0
 15 20  1  0  0  0  0
 16 15  2  0  0  0  0
 17 16  1  0  0  0  0
 17 18  2  0  0  0  0
 18 19  1  0  0  0  0
 19 20  2  0  0  0  0
 19 23  1  0  0  0  0
 22 16  1  0  0  0  0
 24 26  1  0  0  0  0
 24 27  1  0  0  0  0
 25 24  1  0  0  0  0
 27 29  1  0  0  0  0
 27 28  1  0  0  0  0
 30 33  1  6  0  0  0
 30 32  1  0  0  0  0
 30 31  1  0  0  0  0
 30 27  1  0  0  0  0
 31 35  1  0  0  0  0
 32 31  1  0  0  0  0
 32 36  1  1  0  0  0
 34 31  1  0  0  0  0
 37 32  1  0  0  0  0
 38 37  1  0  0  0  0
 39 38  2  0  0  0  0
 40 39  1  0  0  0  0
 40 41  2  0  0  0  0
 41 37  1  0  0  0  0
M  END
>  <minimizedAffinity>
-5.68686867

>  <minimizedRMSD>
0.420313925

$$$$
