
 OpenBabel03232518073D

 20 21  0  0  0  0  0  0  0  0999 V2000
   47.1330   34.5910   41.9890 C   0  0  0  0  0  0  0  0  0  0  0  0
   45.8530   34.6080   41.4160 C   0  0  0  0  0  0  0  0  0  0  0  0
   44.7330   34.3050   42.2210 C   0  0  0  0  0  0  0  0  0  0  0  0
   44.9660   34.0120   43.5190 N   0  0  0  0  0  0  0  0  0  0  0  0
   46.2270   34.0040   44.0490 C   0  0  0  0  0  0  0  0  0  0  0  0
   47.2870   34.2950   43.2710 N   0  0  0  0  0  0  0  0  0  0  0  0
   45.6280   34.8360   40.3910 H   0  0  0  0  0  0  0  0  0  0  0  0
   46.3930   33.7700   45.0770 H   0  0  0  0  0  0  0  0  0  0  0  0
   43.4170   34.3120   41.6730 N   0  0  0  0  0  0  0  0  0  0  0  0
   42.6080   33.2760   41.3740 C   0  0  0  0  0  0  0  0  0  0  0  0
   41.4420   33.7990   40.8700 C   0  0  0  0  0  0  0  0  0  0  0  0
   41.5250   35.1600   40.8550 N   0  0  0  0  0  0  0  0  0  0  0  0
   42.7500   35.4370   41.3550 C   0  0  0  0  0  0  0  0  0  0  0  0
   48.1850   34.9270   41.0210 C   0  0  0  0  0  0  0  0  0  0  0  0
   48.8330   34.0040   40.9220 H   0  0  0  0  0  0  0  0  0  0  0  0
   47.8310   35.1250   40.0140 H   0  0  0  0  0  0  0  0  0  0  0  0
   49.1270   35.9840   41.5560 C   0  0  0  0  0  0  0  0  0  0  0  0
   50.0730   35.5750   41.9580 H   0  0  0  0  0  0  0  0  0  0  0  0
   48.6410   36.5910   42.3570 H   0  0  0  0  0  0  0  0  0  0  0  0
   49.3510   36.6680   40.7190 H   0  0  0  0  0  0  0  0  0  0  0  0
  1  6  1  0  0  0  0
  2  1  2  0  0  0  0
  2  3  1  0  0  0  0
  3  4  2  0  0  0  0
  4  5  1  0  0  0  0
  5  8  1  0  0  0  0
  6  5  2  0  0  0  0
  7  2  1  0  0  0  0
  9  3  1  0  0  0  0
 10  9  1  0  0  0  0
 11 10  2  0  0  0  0
 12 11  1  0  0  0  0
 12 13  2  0  0  0  0
 13  9  1  0  0  0  0
 14 17  1  0  0  0  0
 14  1  1  0  0  0  0
 15 14  1  0  0  0  0
 16 14  1  0  0  0  0
 17 18  1  0  0  0  0
 17 19  1  0  0  0  0
 20 17  1  0  0  0  0
M  END
>  <minimizedAffinity>
-4.32422638

>  <minimizedRMSD>
2.69303894

$$$$
