
 OpenBabel03232521013D

 42 45  0  0  1  0  0  0  0  0999 V2000
   45.4500   32.8700   47.5330 C   0  0  0  0  0  0  0  0  0  0  0  0
   45.9350   32.6110   46.2890 C   0  0  0  0  0  0  0  0  0  0  0  0
   46.1240   31.2550   46.0090 C   0  0  0  0  0  0  0  0  0  0  0  0
   45.8510   30.2570   46.8870 N   0  0  0  0  0  0  0  0  0  0  0  0
   45.3570   30.5750   48.1430 C   0  0  0  0  0  0  0  0  0  0  0  0
   45.1710   31.8580   48.4320 N   0  0  0  0  0  0  0  0  0  0  0  0
   45.0810   29.5560   49.0900 N   0  0  0  0  0  0  0  0  0  0  0  0
   45.2720   33.8830   47.8550 H   0  0  0  0  0  0  0  0  0  0  0  0
   45.7770   28.8110   49.3840 H   0  0  0  0  0  0  0  0  0  0  0  0
   44.1380   29.5240   49.5340 H   0  0  0  0  0  0  0  0  0  0  0  0
   46.1810   33.5720   45.2700 C   0  0  2  0  0  0  0  0  0  0  0  0
   44.9630   34.6580   45.5030 C   0  0  0  0  0  0  0  0  0  0  0  0
   44.7340   35.5950   44.4370 C   0  0  0  0  0  0  0  0  0  0  0  0
   45.5440   35.5370   43.2180 C   0  0  1  0  0  0  0  0  0  0  0  0
   46.6090   34.5410   43.1700 C   0  0  0  0  0  0  0  0  0  0  0  0
   46.1600   33.2990   43.9030 C   0  0  0  0  0  0  0  0  0  0  0  0
   46.9880   34.2890   45.6120 H   0  0  0  0  0  0  0  0  0  0  0  0
   44.2830   34.7960   46.3340 H   0  0  0  0  0  0  0  0  0  0  0  0
   43.9610   36.3090   44.5530 H   0  0  0  0  0  0  0  0  0  0  0  0
   45.9780   36.5430   43.0220 H   0  0  0  0  0  0  0  0  0  0  0  0
   46.9150   34.3610   42.1200 H   0  0  0  0  0  0  0  0  0  0  0  0
   47.5200   34.9290   43.6990 H   0  0  0  0  0  0  0  0  0  0  0  0
   47.0160   32.6530   43.5730 H   0  0  0  0  0  0  0  0  0  0  0  0
   45.2100   32.9820   43.4220 H   0  0  0  0  0  0  0  0  0  0  0  0
   44.5380   35.2740   42.0570 C   0  0  0  0  0  0  0  0  0  0  0  0
   43.4750   34.4770   42.4430 F   0  0  0  0  0  0  0  0  0  0  0  0
   44.0000   36.5140   41.7210 F   0  0  0  0  0  0  0  0  0  0  0  0
   45.2210   34.8180   40.9480 F   0  0  0  0  0  0  0  0  0  0  0  0
   46.6810   30.5570   44.8650 C   0  0  0  0  0  0  0  0  0  0  0  0
   46.2560   29.9540   43.7260 C   0  0  0  0  0  0  0  0  0  0  0  0
   47.3770   29.4280   43.0650 C   0  0  0  0  0  0  0  0  0  0  0  0
   48.4200   29.7380   43.8350 N   0  0  0  0  0  0  0  0  0  0  0  0
   48.0370   30.4030   44.8990 N   0  0  0  0  0  0  0  0  0  0  0  0
   45.1950   29.9730   43.5220 H   0  0  0  0  0  0  0  0  0  0  0  0
   47.2590   28.9020   42.1290 H   0  0  0  0  0  0  0  0  0  0  0  0
   49.7670   29.3630   43.4870 C   0  0  0  0  0  0  0  0  0  0  0  0
   50.8260   29.4830   44.3910 C   0  0  0  0  0  3  0  0  0  0  0  0
   51.9210   29.0330   43.6930 C   0  0  0  0  0  0  0  0  0  0  0  0
   52.8930   29.0170   44.1650 H   0  0  0  0  0  0  0  0  0  0  0  0
   51.5320   28.6640   42.4370 N   0  0  0  0  0  0  0  0  0  0  0  0
   50.2120   28.8690   42.3190 N   0  0  0  0  0  0  0  0  0  0  0  0
   52.2320   28.2930   41.7560 H   0  0  0  0  0  0  0  0  0  0  0  0
  1  8  1  0  0  0  0
  1  6  1  0  0  0  0
  2  1  2  0  0  0  0
  3  2  1  0  0  0  0
  3  4  2  0  0  0  0
  4  5  1  0  0  0  0
  5  6  2  0  0  0  0
  5  7  1  0  0  0  0
  7  9  1  0  0  0  0
  7 10  1  0  0  0  0
 11 12  1  0  0  0  0
 11 17  1  1  0  0  0
 11  2  1  0  0  0  0
 12 18  1  0  0  0  0
 13 19  1  0  0  0  0
 13 12  2  0  0  0  0
 14 20  1  6  0  0  0
 14 13  1  0  0  0  0
 15 14  1  0  0  0  0
 15 22  1  0  0  0  0
 15 16  1  0  0  0  0
 16 11  1  0  0  0  0
 21 15  1  0  0  0  0
 23 16  1  0  0  0  0
 24 16  1  0  0  0  0
 25 26  1  0  0  0  0
 25 14  1  0  0  0  0
 27 25  1  0  0  0  0
 28 25  1  0  0  0  0
 29 33  2  0  0  0  0
 29  3  1  0  0  0  0
 30 29  1  0  0  0  0
 31 30  2  0  0  0  0
 31 32  1  0  0  0  0
 32 33  1  0  0  0  0
 34 30  1  0  0  0  0
 35 31  1  0  0  0  0
 36 32  1  0  0  0  0
 36 37  1  0  0  0  0
 38 39  1  0  0  0  0
 38 37  2  0  0  0  0
 40 38  1  0  0  0  0
 41 40  1  0  0  0  0
 41 36  2  0  0  0  0
 42 40  1  0  0  0  0
M  END
>  <minimizedAffinity>
-5.93121147

>  <minimizedRMSD>
0.183550522

$$$$
