
 OpenBabel03232521013D

 42 45  0  0  1  0  0  0  0  0999 V2000
   45.4300   32.8490   47.5090 C   0  0  0  0  0  0  0  0  0  0  0  0
   45.9400   32.5980   46.2730 C   0  0  0  0  0  0  0  0  0  0  0  0
   46.1580   31.2460   45.9980 C   0  0  0  0  0  0  0  0  0  0  0  0
   45.8900   30.2440   46.8720 N   0  0  0  0  0  0  0  0  0  0  0  0
   45.3700   30.5540   48.1200 C   0  0  0  0  0  0  0  0  0  0  0  0
   45.1560   31.8330   48.4050 N   0  0  0  0  0  0  0  0  0  0  0  0
   45.0980   29.5300   49.0630 N   0  0  0  0  0  0  0  0  0  0  0  0
   45.2290   33.8590   47.8270 H   0  0  0  0  0  0  0  0  0  0  0  0
   45.8020   28.7980   49.3690 H   0  0  0  0  0  0  0  0  0  0  0  0
   44.1480   29.4810   49.4920 H   0  0  0  0  0  0  0  0  0  0  0  0
   46.1840   33.5630   45.2570 C   0  0  2  0  0  0  0  0  0  0  0  0
   44.9700   34.6510   45.4990 C   0  0  0  0  0  0  0  0  0  0  0  0
   44.7390   35.5930   44.4390 C   0  0  0  0  0  0  0  0  0  0  0  0
   45.5440   35.5380   43.2160 C   0  0  1  0  0  0  0  0  0  0  0  0
   46.6060   34.5400   43.1590 C   0  0  0  0  0  0  0  0  0  0  0  0
   46.1570   33.2950   43.8890 C   0  0  0  0  0  0  0  0  0  0  0  0
   46.9950   34.2770   45.5980 H   0  0  0  0  0  0  0  0  0  0  0  0
   44.2940   34.7870   46.3340 H   0  0  0  0  0  0  0  0  0  0  0  0
   43.9690   36.3100   44.5600 H   0  0  0  0  0  0  0  0  0  0  0  0
   45.9800   36.5440   43.0220 H   0  0  0  0  0  0  0  0  0  0  0  0
   46.9070   34.3630   42.1070 H   0  0  0  0  0  0  0  0  0  0  0  0
   47.5210   34.9230   43.6860 H   0  0  0  0  0  0  0  0  0  0  0  0
   47.0090   32.6490   43.5530 H   0  0  0  0  0  0  0  0  0  0  0  0
   45.2040   32.9840   43.4110 H   0  0  0  0  0  0  0  0  0  0  0  0
   44.5320   35.2830   42.0580 C   0  0  0  0  0  0  0  0  0  0  0  0
   43.4660   34.4910   42.4470 F   0  0  0  0  0  0  0  0  0  0  0  0
   44.0000   36.5260   41.7260 F   0  0  0  0  0  0  0  0  0  0  0  0
   45.2090   34.8250   40.9460 F   0  0  0  0  0  0  0  0  0  0  0  0
   46.7450   30.5580   44.8630 C   0  0  0  0  0  0  0  0  0  0  0  0
   46.3480   29.9140   43.7360 C   0  0  0  0  0  0  0  0  0  0  0  0
   47.4910   29.4340   43.0790 C   0  0  0  0  0  0  0  0  0  0  0  0
   48.5200   29.8080   43.8410 N   0  0  0  0  0  0  0  0  0  0  0  0
   48.1080   30.4710   44.8950 N   0  0  0  0  0  0  0  0  0  0  0  0
   45.2870   29.8780   43.5350 H   0  0  0  0  0  0  0  0  0  0  0  0
   47.3970   28.8870   42.1530 H   0  0  0  0  0  0  0  0  0  0  0  0
   49.8840   29.4950   43.4940 C   0  0  0  0  0  0  0  0  0  0  0  0
   50.8870   29.3860   44.4590 C   0  0  0  0  0  3  0  0  0  0  0  0
   52.0190   29.0830   43.7410 C   0  0  0  0  0  0  0  0  0  0  0  0
   52.9610   28.9410   44.2520 H   0  0  0  0  0  0  0  0  0  0  0  0
   51.7040   29.0180   42.4150 N   0  0  0  0  0  0  0  0  0  0  0  0
   50.3940   29.2710   42.2700 N   0  0  0  0  0  0  0  0  0  0  0  0
   52.4410   28.7970   41.7080 H   0  0  0  0  0  0  0  0  0  0  0  0
  1  8  1  0  0  0  0
  1  6  1  0  0  0  0
  2  1  2  0  0  0  0
  3  2  1  0  0  0  0
  3  4  2  0  0  0  0
  4  5  1  0  0  0  0
  5  6  2  0  0  0  0
  5  7  1  0  0  0  0
  7  9  1  0  0  0  0
  7 10  1  0  0  0  0
 11 12  1  0  0  0  0
 11 17  1  1  0  0  0
 11  2  1  0  0  0  0
 12 18  1  0  0  0  0
 13 19  1  0  0  0  0
 13 12  2  0  0  0  0
 14 20  1  6  0  0  0
 14 13  1  0  0  0  0
 15 14  1  0  0  0  0
 15 22  1  0  0  0  0
 15 16  1  0  0  0  0
 16 11  1  0  0  0  0
 21 15  1  0  0  0  0
 23 16  1  0  0  0  0
 24 16  1  0  0  0  0
 25 26  1  0  0  0  0
 25 14  1  0  0  0  0
 27 25  1  0  0  0  0
 28 25  1  0  0  0  0
 29 33  2  0  0  0  0
 29  3  1  0  0  0  0
 30 29  1  0  0  0  0
 31 30  2  0  0  0  0
 31 32  1  0  0  0  0
 32 33  1  0  0  0  0
 34 30  1  0  0  0  0
 35 31  1  0  0  0  0
 36 32  1  0  0  0  0
 36 37  1  0  0  0  0
 38 39  1  0  0  0  0
 38 37  2  0  0  0  0
 40 38  1  0  0  0  0
 41 40  1  0  0  0  0
 41 36  2  0  0  0  0
 42 40  1  0  0  0  0
M  END
>  <minimizedAffinity>
-5.95546103

>  <minimizedRMSD>
0.0888514444

$$$$
