
 OpenBabel03232521013D

 42 45  0  0  1  0  0  0  0  0999 V2000
   45.3720   32.8770   47.5020 C   0  0  0  0  0  0  0  0  0  0  0  0
   45.9280   32.6290   46.2870 C   0  0  0  0  0  0  0  0  0  0  0  0
   46.1970   31.2780   46.0370 C   0  0  0  0  0  0  0  0  0  0  0  0
   45.9310   30.2800   46.9170 N   0  0  0  0  0  0  0  0  0  0  0  0
   45.3610   30.5860   48.1450 C   0  0  0  0  0  0  0  0  0  0  0  0
   45.0990   31.8620   48.4050 N   0  0  0  0  0  0  0  0  0  0  0  0
   45.0810   29.5670   49.0840 N   0  0  0  0  0  0  0  0  0  0  0  0
   45.1280   33.8850   47.8010 H   0  0  0  0  0  0  0  0  0  0  0  0
   44.9270   28.5570   48.8190 H   0  0  0  0  0  0  0  0  0  0  0  0
   45.0190   29.8060   50.0890 H   0  0  0  0  0  0  0  0  0  0  0  0
   46.1740   33.5870   45.2650 C   0  0  2  0  0  0  0  0  0  0  0  0
   44.9600   34.6760   45.5020 C   0  0  0  0  0  0  0  0  0  0  0  0
   44.7260   35.6100   44.4380 C   0  0  0  0  0  0  0  0  0  0  0  0
   45.5280   35.5480   43.2120 C   0  0  1  0  0  0  0  0  0  0  0  0
   46.5890   34.5460   43.1570 C   0  0  0  0  0  0  0  0  0  0  0  0
   46.1420   33.3090   43.9000 C   0  0  0  0  0  0  0  0  0  0  0  0
   46.9830   34.3050   45.5990 H   0  0  0  0  0  0  0  0  0  0  0  0
   44.2830   34.8190   46.3350 H   0  0  0  0  0  0  0  0  0  0  0  0
   43.9570   36.3280   44.5500 H   0  0  0  0  0  0  0  0  0  0  0  0
   45.9560   36.5570   43.0190 H   0  0  0  0  0  0  0  0  0  0  0  0
   47.5950   34.8670   43.5300 H   0  0  0  0  0  0  0  0  0  0  0  0
   46.7760   34.3150   42.0660 H   0  0  0  0  0  0  0  0  0  0  0  0
   45.1910   32.9520   43.4510 H   0  0  0  0  0  0  0  0  0  0  0  0
   47.0000   32.6640   43.5700 H   0  0  0  0  0  0  0  0  0  0  0  0
   44.5170   35.2850   42.0570 C   0  0  0  0  0  0  0  0  0  0  0  0
   43.4550   34.4890   42.4500 F   0  0  0  0  0  0  0  0  0  0  0  0
   43.9760   36.5230   41.7220 F   0  0  0  0  0  0  0  0  0  0  0  0
   45.1910   34.8220   40.9420 F   0  0  0  0  0  0  0  0  0  0  0  0
   46.8390   30.5950   44.9300 C   0  0  0  0  0  0  0  0  0  0  0  0
   46.4970   29.8880   43.8240 C   0  0  0  0  0  0  0  0  0  0  0  0
   47.6740   29.4620   43.1930 C   0  0  0  0  0  0  0  0  0  0  0  0
   48.6680   29.9330   43.9450 N   0  0  0  0  0  0  0  0  0  0  0  0
   48.2030   30.6030   44.9730 N   0  0  0  0  0  0  0  0  0  0  0  0
   45.4470   29.7700   43.6160 H   0  0  0  0  0  0  0  0  0  0  0  0
   47.6290   28.8810   42.2920 H   0  0  0  0  0  0  0  0  0  0  0  0
   50.8240   26.0940   43.5320 H   0  0  0  0  0  0  0  0  0  0  0  0
   51.3020   26.9660   43.8440 N   0  0  0  0  0  0  0  0  0  0  0  0
   51.4210   27.8360   42.6740 C   0  0  0  0  0  2  0  0  0  0  0  0
   50.1470   28.6220   42.5360 C   0  0  0  0  0  2  0  0  0  0  0  0
   50.0820   29.6970   43.6130 C   0  0  0  0  0  3  0  0  0  0  0  0
   50.7490   29.1050   44.8320 C   0  0  0  0  0  2  0  0  0  0  0  0
   50.5330   27.5980   44.8830 C   0  0  0  0  0  2  0  0  0  0  0  0
  1  8  1  0  0  0  0
  1  6  1  0  0  0  0
  2  1  2  0  0  0  0
  3  2  1  0  0  0  0
  3  4  2  0  0  0  0
  4  5  1  0  0  0  0
  5  6  2  0  0  0  0
  5  7  1  0  0  0  0
  7 10  1  0  0  0  0
  9  7  1  0  0  0  0
 11 12  1  0  0  0  0
 11 17  1  1  0  0  0
 11  2  1  0  0  0  0
 12 18  1  0  0  0  0
 13 19  1  0  0  0  0
 13 12  2  0  0  0  0
 14 20  1  6  0  0  0
 14 13  1  0  0  0  0
 15 14  1  0  0  0  0
 15 21  1  0  0  0  0
 15 16  1  0  0  0  0
 16 11  1  0  0  0  0
 22 15  1  0  0  0  0
 23 16  1  0  0  0  0
 24 16  1  0  0  0  0
 25 26  1  0  0  0  0
 25 14  1  0  0  0  0
 27 25  1  0  0  0  0
 28 25  1  0  0  0  0
 29 33  2  0  0  0  0
 29  3  1  0  0  0  0
 30 29  1  0  0  0  0
 31 30  2  0  0  0  0
 31 32  1  0  0  0  0
 32 33  1  0  0  0  0
 34 30  1  0  0  0  0
 35 31  1  0  0  0  0
 36 37  1  0  0  0  0
 37 42  1  0  0  0  0
 38 37  1  0  0  0  0
 39 38  1  0  0  0  0
 39 40  1  0  0  0  0
 40 32  1  0  0  0  0
 40 41  1  0  0  0  0
 41 42  1  0  0  0  0
M  END
>  <minimizedAffinity>
-5.61673117

>  <minimizedRMSD>
0.224202245

$$$$
