
 OpenBabel03232520333D

 44 48  0  0  1  0  0  0  0  0999 V2000
   46.8710   34.5580   41.3500 C   0  0  0  0  0  0  0  0  0  0  0  0
   48.1460   34.9460   40.9860 C   0  0  0  0  0  0  0  0  0  0  0  0
   48.4010   34.6060   39.7350 N   0  0  0  0  0  0  0  0  0  0  0  0
   47.2990   33.9910   39.2600 C   0  0  0  0  0  0  0  0  0  0  0  0
   47.0400   33.4450   38.0120 C   0  0  0  0  0  0  0  0  0  0  0  0
   45.8220   32.8730   37.7930 C   0  0  0  0  0  0  0  0  0  0  0  0
   44.8140   32.7890   38.7120 C   0  0  0  0  0  0  0  0  0  0  0  0
   45.1120   33.3480   39.9480 C   0  0  0  0  0  0  0  0  0  0  0  0
   46.3150   33.9420   40.2470 C   0  0  0  0  0  0  0  0  0  0  0  0
   49.2680   34.7550   39.1610 H   0  0  0  0  0  0  0  0  0  0  0  0
   47.7620   33.4520   37.2050 H   0  0  0  0  0  0  0  0  0  0  0  0
   45.6200   32.4420   36.8060 H   0  0  0  0  0  0  0  0  0  0  0  0
   43.8400   32.3430   38.5660 H   0  0  0  0  0  0  0  0  0  0  0  0
   44.4170   33.3630   40.7880 H   0  0  0  0  0  0  0  0  0  0  0  0
   44.7390   36.0150   44.0470 C   0  0  0  0  0  0  0  0  0  0  0  0
   45.3770   35.8570   42.7960 C   0  0  0  0  0  0  0  0  0  0  0  0
   46.1990   34.7410   42.6380 C   0  0  0  0  0  0  0  0  0  0  0  0
   46.3570   33.8610   43.6650 N   0  0  0  0  0  0  0  0  0  0  0  0
   45.7120   34.0710   44.8470 C   0  0  0  0  0  0  0  0  0  0  0  0
   44.9080   35.1400   45.0390 N   0  0  0  0  0  0  0  0  0  0  0  0
   44.1270   36.9200   44.0430 H   0  0  0  0  0  0  0  0  0  0  0  0
   45.2740   36.5350   41.9630 H   0  0  0  0  0  0  0  0  0  0  0  0
   45.8100   33.3960   45.6870 H   0  0  0  0  0  0  0  0  0  0  0  0
   49.0820   35.6510   41.9060 C   0  0  0  0  0  0  0  0  0  0  0  0
   49.6090   36.4810   41.3850 H   0  0  0  0  0  0  0  0  0  0  0  0
   48.4790   36.1520   42.7140 H   0  0  0  0  0  0  0  0  0  0  0  0
   50.0210   34.7100   42.5850 C   0  0  0  0  0  0  0  0  0  0  0  0
   49.8120   34.5910   43.6790 H   0  0  0  0  0  0  0  0  0  0  0  0
   51.0430   35.1610   42.5370 H   0  0  0  0  0  0  0  0  0  0  0  0
   50.1210   33.3550   41.9230 C   0  0  1  0  0  0  0  0  0  0  0  0
   51.0470   32.3110   42.3620 C   0  0  0  0  0  0  0  0  0  0  0  0
   49.6490   32.1960   42.8190 C   0  0  2  0  0  0  0  0  0  0  0  0
   49.8190   33.3080   40.8530 H   0  0  0  0  0  0  0  0  0  0  0  0
   51.7820   32.6080   43.1610 H   0  0  0  0  0  0  0  0  0  0  0  0
   51.4650   31.6050   41.6240 H   0  0  0  0  0  0  0  0  0  0  0  0
   49.3710   32.4400   43.8760 H   0  0  0  0  0  0  0  0  0  0  0  0
   48.8770   31.1990   42.2590 O   0  0  0  0  0  0  0  0  0  0  0  0
   47.6240   30.8350   42.6910 C   0  0  0  0  0  0  0  0  0  0  0  0
   47.4390   30.5240   44.0210 C   0  0  0  0  0  0  0  0  0  0  0  0
   46.2590   30.1420   44.6200 C   0  0  0  0  0  0  0  0  0  0  0  0
   46.2170   29.9160   45.6800 H   0  0  0  0  0  0  0  0  0  0  0  0
   45.1800   30.0710   43.8020 N   0  0  0  0  0  0  0  0  0  0  0  0
   45.3190   30.3710   42.4770 C   0  0  0  0  0  0  0  0  0  0  0  0
   46.4900   30.7370   41.9480 N   0  0  0  0  0  0  0  0  0  0  0  0
  1 17  1  0  0  0  0
  2  1  2  0  0  0  0
  2 24  1  0  0  0  0
  3  2  1  0  0  0  0
  4  3  1  0  0  0  0
  4  9  1  0  0  0  0
  5  4  2  0  0  0  0
  6  5  1  0  0  0  0
  6  7  2  0  0  0  0
  7  8  1  0  0  0  0
  8  9  2  0  0  0  0
  8 14  1  0  0  0  0
  9  1  1  0  0  0  0
 10  3  1  0  0  0  0
 11  5  1  0  0  0  0
 12  6  1  0  0  0  0
 13  7  1  0  0  0  0
 15 20  1  0  0  0  0
 16 15  2  0  0  0  0
 17 16  1  0  0  0  0
 17 18  2  0  0  0  0
 18 19  1  0  0  0  0
 19 20  2  0  0  0  0
 19 23  1  0  0  0  0
 21 15  1  0  0  0  0
 22 16  1  0  0  0  0
 24 27  1  0  0  0  0
 24 26  1  0  0  0  0
 25 24  1  0  0  0  0
 27 28  1  0  0  0  0
 29 27  1  0  0  0  0
 30 33  1  6  0  0  0
 30 31  1  0  0  0  0
 30 27  1  0  0  0  0
 30 32  1  0  0  0  0
 31 32  1  0  0  0  0
 31 34  1  0  0  0  0
 32 36  1  1  0  0  0
 35 31  1  0  0  0  0
 37 38  1  0  0  0  0
 37 32  1  0  0  0  0
 38 39  1  0  0  0  0
 39 40  2  0  0  0  0
 40 41  1  0  0  0  0
 42 40  1  0  0  0  0
 43 42  2  0  0  0  0
 44 43  1  0  0  0  0
 44 38  2  0  0  0  0
M  END
>  <minimizedAffinity>
-5.60454893

>  <minimizedRMSD>
0.620629549

$$$$
