
 OpenBabel03232517433D

 41 44  0  0  0  0  0  0  0  0999 V2000
   43.9570   35.3670   42.1890 C   0  0  0  0  0  0  0  0  0  0  0  0
   44.0640   34.0710   41.6880 C   0  0  0  0  0  0  0  0  0  0  0  0
   44.6570   33.1090   42.4870 C   0  0  0  0  0  0  0  0  0  0  0  0
   45.1130   33.4800   43.7380 N   0  0  0  0  0  0  0  0  0  0  0  0
   44.9910   34.7230   44.1730 C   0  0  0  0  0  0  0  0  0  0  0  0
   44.4210   35.6620   43.4160 N   0  0  0  0  0  0  0  0  0  0  0  0
   43.5080   36.1620   41.6110 H   0  0  0  0  0  0  0  0  0  0  0  0
   45.3540   34.9830   45.1560 H   0  0  0  0  0  0  0  0  0  0  0  0
   44.7680   31.8030   41.9760 N   0  0  0  0  0  0  0  0  0  0  0  0
   45.8870   31.4660   41.2780 C   0  0  0  0  0  0  0  0  0  0  0  0
   45.9640   30.1830   40.7960 C   0  0  0  0  0  0  0  0  0  0  0  0
   44.9740   29.2350   40.9860 C   0  0  0  0  0  0  0  0  0  0  0  0
   45.1320   28.0880   40.5070 O   0  0  0  0  0  0  0  0  0  0  0  0
   43.8820   29.6100   41.6830 N   0  0  0  0  0  0  0  0  0  0  0  0
   43.7920   30.8600   42.1600 C   0  0  0  0  0  0  0  0  0  0  0  0
   42.7560   31.1510   42.8000 O   0  0  0  0  0  0  0  0  0  0  0  0
   46.6570   32.1910   41.1260 H   0  0  0  0  0  0  0  0  0  0  0  0
   43.1300   28.8890   41.8280 H   0  0  0  0  0  0  0  0  0  0  0  0
   47.2090   29.8420   40.0150 C   0  0  0  0  0  0  0  0  0  0  0  0
   48.0050   29.5190   40.7110 H   0  0  0  0  0  0  0  0  0  0  0  0
   46.9410   28.9670   39.3840 H   0  0  0  0  0  0  0  0  0  0  0  0
   47.4930   30.6810   39.3560 H   0  0  0  0  0  0  0  0  0  0  0  0
   43.5550   33.8430   40.3880 N   0  0  0  0  0  0  0  0  0  0  0  0
   44.3320   33.7240   39.3740 N   0  0  0  0  0  0  0  0  0  0  0  0
   43.6010   33.5190   38.2530 C   0  0  0  0  0  0  0  0  0  0  0  0
   42.2810   33.5210   38.6900 C   0  0  0  0  0  0  0  0  0  0  0  0
   42.2600   33.7320   40.0760 C   0  0  0  0  0  0  0  0  0  0  0  0
   43.8220   33.3760   37.2280 H   0  0  0  0  0  0  0  0  0  0  0  0
   41.3790   33.3970   38.1140 H   0  0  0  0  0  0  0  0  0  0  0  0
   41.0620   33.8100   40.9060 C   0  0  0  0  0  0  0  0  0  0  0  0
   40.8140   34.7710   41.6830 O   0  0  0  0  0  0  0  0  0  0  0  0
   38.6540   30.2870   40.5150 C   0  0  0  0  0  0  0  0  0  0  0  0
   38.0520   31.4870   40.9050 C   0  0  0  0  0  0  0  0  0  0  0  0
   38.7820   32.6670   41.0360 C   0  0  0  0  0  0  0  0  0  0  0  0
   40.1210   32.6670   40.7790 C   0  0  0  0  0  0  0  0  0  0  0  0
   40.7750   31.4920   40.3850 C   0  0  0  0  0  0  0  0  0  0  0  0
   40.0050   30.3240   40.2640 C   0  0  0  0  0  0  0  0  0  0  0  0
   38.4940   27.9100   39.6440 H   0  0  0  0  0  0  0  0  0  0  0  0
   37.7330   28.8070   40.3620 S   0  0  0  0  0  0  0  0  0  0  0  0
   36.4140   29.0870   39.7230 O   0  0  0  0  0  0  0  0  0  0  0  0
   37.5440   28.1760   41.7380 O   0  0  0  0  0  0  0  0  0  0  0  0
  1  6  1  0  0  0  0
  2  1  2  0  0  0  0
  2  3  1  0  0  0  0
  3  4  2  0  0  0  0
  4  5  1  0  0  0  0
  5  8  1  0  0  0  0
  6  5  2  0  0  0  0
  7  1  1  0  0  0  0
  9 15  1  0  0  0  0
  9  3  1  0  0  0  0
 10  9  1  0  0  0  0
 11 12  1  0  0  0  0
 11 10  2  0  0  0  0
 12 14  1  0  0  0  0
 13 12  2  0  0  0  0
 14 18  1  0  0  0  0
 14 15  1  0  0  0  0
 15 16  2  0  0  0  0
 17 10  1  0  0  0  0
 19 20  1  0  0  0  0
 19 11  1  0  0  0  0
 21 19  1  0  0  0  0
 22 19  1  0  0  0  0
 23  2  1  0  0  0  0
 24 23  1  0  0  0  0
 25 26  1  0  0  0  0
 25 24  2  0  0  0  0
 26 27  2  0  0  0  0
 27 23  1  0  0  0  0
 27 30  1  0  0  0  0
 28 25  1  0  0  0  0
 29 26  1  0  0  0  0
 30 31  2  0  0  0  0
 32 33  1  0  0  0  0
 33 34  2  0  0  0  0
 35 30  1  0  0  0  0
 35 34  1  0  0  0  0
 36 35  2  0  0  0  0
 37 36  1  0  0  0  0
 37 32  2  0  0  0  0
 38 39  1  0  0  0  0
 39 32  1  0  0  0  0
 39 41  2  0  0  0  0
 40 39  2  0  0  0  0
M  END
>  <minimizedAffinity>
-4.78750134

>  <minimizedRMSD>
4.86892319

$$$$
