
 OpenBabel03232519183D

 47 50  0  0  1  0  0  0  0  0999 V2000
   43.8390   35.3380   41.5700 C   0  0  0  0  0  0  0  0  0  0  0  0
   44.0080   36.1080   40.8180 H   0  0  0  0  0  0  0  0  0  0  0  0
   42.9670   35.7440   42.1730 H   0  0  0  0  0  0  0  0  0  0  0  0
   43.3620   34.0390   41.0440 C   0  0  1  0  0  0  0  0  0  0  0  0
   43.6790   33.2200   41.7310 H   0  0  0  0  0  0  0  0  0  0  0  0
   41.9000   33.9860   40.9100 C   0  0  0  0  0  0  0  0  0  0  0  0
   41.2110   35.1630   40.4710 C   0  0  0  0  0  0  0  0  0  0  0  0
   39.8160   35.1540   40.3260 C   0  0  0  0  0  0  0  0  0  0  0  0
   39.1850   33.9950   40.6190 N   0  0  0  0  0  0  0  0  0  0  0  0
   39.8390   32.9150   41.0240 C   0  0  0  0  0  0  0  0  0  0  0  0
   41.1900   32.8900   41.1750 N   0  0  0  0  0  0  0  0  0  0  0  0
   41.8180   36.0410   40.2620 H   0  0  0  0  0  0  0  0  0  0  0  0
   39.3170   36.0350   39.9990 H   0  0  0  0  0  0  0  0  0  0  0  0
   39.1340   31.6500   41.3350 C   0  0  0  0  0  0  0  0  0  0  0  0
   39.8540   30.6160   41.9260 C   0  0  0  0  0  0  0  0  0  0  0  0
   38.5150   29.3140   42.0840 S   0  0  0  0  0  0  0  0  0  0  0  0
   37.2400   30.4580   41.3050 C   0  0  0  0  0  0  0  0  0  0  0  0
   37.8730   31.3570   41.1190 N   0  0  0  0  0  0  0  0  0  0  0  0
   40.8180   30.4420   42.2460 H   0  0  0  0  0  0  0  0  0  0  0  0
   36.0580   30.4960   40.9810 H   0  0  0  0  0  0  0  0  0  0  0  0
   44.0120   33.7480   39.7110 C   0  0  0  0  0  0  0  0  0  0  0  0
   44.9870   33.2370   39.7910 H   0  0  0  0  0  0  0  0  0  0  0  0
   44.1350   34.7030   39.1290 H   0  0  0  0  0  0  0  0  0  0  0  0
   43.3000   33.1060   39.1530 H   0  0  0  0  0  0  0  0  0  0  0  0
   44.9210   35.2890   42.4750 N   0  0  0  0  0  0  0  0  0  0  0  0
   46.2010   34.6620   42.4870 C   0  0  0  0  0  0  0  0  0  0  0  0
   47.2870   35.3540   41.9940 C   0  0  0  0  0  0  0  0  0  0  0  0
   48.5560   34.8000   41.9750 C   0  0  0  0  0  0  0  0  0  0  0  0
   48.6690   33.5610   42.4590 N   0  0  0  0  0  0  0  0  0  0  0  0
   47.5980   32.8860   42.9410 C   0  0  0  0  0  0  0  0  0  0  0  0
   46.3520   33.4070   42.9700 N   0  0  0  0  0  0  0  0  0  0  0  0
   47.2170   36.3680   41.5930 H   0  0  0  0  0  0  0  0  0  0  0  0
   49.4010   35.3540   41.5850 H   0  0  0  0  0  0  0  0  0  0  0  0
   47.7030   31.5620   43.4630 N   0  0  0  0  0  0  0  0  0  0  0  0
   48.8680   30.8880   43.4910 C   0  0  0  0  0  0  0  0  0  0  0  0
   48.8440   29.6070   44.0220 C   0  0  0  0  0  0  0  0  0  0  0  0
   50.0820   28.7950   44.0910 C   0  0  0  0  0  0  0  0  0  0  0  0
   47.6690   29.0290   44.5090 C   0  0  0  0  0  0  0  0  0  0  0  0
   47.6650   27.8730   44.9830 O   0  0  0  0  0  0  0  0  0  0  0  0
   46.5390   29.7720   44.4440 N   0  0  0  0  0  0  0  0  0  0  0  0
   46.5610   31.0210   43.9270 C   0  0  0  0  0  0  0  0  0  0  0  0
   45.4290   31.5740   43.9420 O   0  0  0  0  0  0  0  0  0  0  0  0
   45.6850   29.2950   44.8210 H   0  0  0  0  0  0  0  0  0  0  0  0
   44.8350   35.9790   43.6990 C   0  0  0  0  0  0  0  0  0  0  0  0
   45.5070   35.3260   44.6900 F   0  0  0  0  0  0  0  0  0  0  0  0
   43.4510   35.8900   44.0430 F   0  0  0  0  0  0  0  0  0  0  0  0
   45.1870   37.3000   43.6480 F   0  0  0  0  0  0  0  0  0  0  0  0
  1  3  1  0  0  0  0
  1 25  1  0  0  0  0
  2  1  1  0  0  0  0
  4  1  1  0  0  0  0
  4  5  1  1  0  0  0
  6  4  1  0  0  0  0
  6 11  1  0  0  0  0
  7  6  2  0  0  0  0
  8  7  1  0  0  0  0
  8  9  2  0  0  0  0
  9 10  1  0  0  0  0
 10 11  2  0  0  0  0
 10 14  1  0  0  0  0
 12  7  1  0  0  0  0
 13  8  1  0  0  0  0
 14 15  2  0  0  0  0
 15 16  1  0  0  0  0
 15 19  1  0  0  0  0
 17 16  1  0  0  0  0
 18 17  2  0  0  0  0
 18 14  1  0  0  0  0
 20 17  1  0  0  0  0
 21 22  1  0  0  0  0
 21  4  1  0  0  0  0
 23 21  1  0  0  0  0
 24 21  1  0  0  0  0
 25 26  1  0  0  0  0
 25 44  1  0  0  0  0
 26 31  1  0  0  0  0
 27 26  2  0  0  0  0
 28 27  1  0  0  0  0
 28 29  2  0  0  0  0
 29 30  1  0  0  0  0
 30 31  2  0  0  0  0
 30 34  1  0  0  0  0
 32 27  1  0  0  0  0
 33 28  1  0  0  0  0
 34 35  1  0  0  0  0
 34 41  1  0  0  0  0
 35 36  2  0  0  0  0
 36 37  1  0  0  0  0
 36 38  1  0  0  0  0
 38 39  2  0  0  0  0
 40 38  1  0  0  0  0
 40 43  1  0  0  0  0
 41 42  2  0  0  0  0
 41 40  1  0  0  0  0
 44 46  1  0  0  0  0
 44 45  1  0  0  0  0
 47 44  1  0  0  0  0
M  END
>  <minimizedAffinity>
-6.38232899

>  <minimizedRMSD>
4.37379932

$$$$
