
 OpenBabel03232520193D

 42 45  0  0  0  0  0  0  0  0999 V2000
   47.6540   34.2520   42.0820 C   0  0  0  0  0  0  0  0  0  0  0  0
   48.6040   35.3760   41.7630 C   0  0  0  0  0  0  0  0  0  0  0  0
   49.8970   35.3250   42.4660 C   0  0  0  0  0  0  0  0  0  0  0  0
   50.5340   33.9770   42.5140 C   0  0  0  0  0  0  0  0  0  0  0  0
   49.6450   32.8650   42.0390 C   0  0  0  0  0  0  0  0  0  0  0  0
   48.2830   33.0490   42.7030 C   0  0  0  0  0  0  0  0  0  0  0  0
   48.1100   36.3530   41.9790 H   0  0  0  0  0  0  0  0  0  0  0  0
   48.8220   35.3950   40.6610 H   0  0  0  0  0  0  0  0  0  0  0  0
   50.5760   36.0500   41.9810 H   0  0  0  0  0  0  0  0  0  0  0  0
   49.7770   35.6850   43.5180 H   0  0  0  0  0  0  0  0  0  0  0  0
   51.4400   33.9670   41.8690 H   0  0  0  0  0  0  0  0  0  0  0  0
   50.8830   33.7180   43.5360 H   0  0  0  0  0  0  0  0  0  0  0  0
   49.5380   32.7840   40.9540 H   0  0  0  0  0  0  0  0  0  0  0  0
   50.0470   31.9090   42.4630 H   0  0  0  0  0  0  0  0  0  0  0  0
   47.6300   32.1810   42.4830 H   0  0  0  0  0  0  0  0  0  0  0  0
   48.4180   33.1530   43.7890 H   0  0  0  0  0  0  0  0  0  0  0  0
   45.2170   34.4490   44.8760 C   0  0  0  0  0  0  0  0  0  0  0  0
   44.5380   35.6430   44.6060 C   0  0  0  0  0  0  0  0  0  0  0  0
   44.9130   36.3650   43.4910 C   0  0  0  0  0  0  0  0  0  0  0  0
   45.9180   35.8900   42.7070 N   0  0  0  0  0  0  0  0  0  0  0  0
   46.5630   34.7270   42.9880 C   0  0  0  0  0  0  0  0  0  0  0  0
   46.1970   34.0090   44.0890 N   0  0  0  0  0  0  0  0  0  0  0  0
   44.8890   33.9180   45.7590 H   0  0  0  0  0  0  0  0  0  0  0  0
   43.7330   36.0720   45.1910 H   0  0  0  0  0  0  0  0  0  0  0  0
   44.5040   37.2890   43.1410 H   0  0  0  0  0  0  0  0  0  0  0  0
   47.0320   33.7830   40.7840 C   0  0  0  0  0  0  0  0  0  0  0  0
   45.7960   33.4110   40.3100 C   0  0  0  0  0  0  0  0  0  0  0  0
   45.6880   33.0510   39.0300 C   0  0  0  0  0  0  0  0  0  0  0  0
   46.7480   33.0420   38.1960 C   0  0  0  0  0  0  0  0  0  0  0  0
   48.1190   33.6150   39.3230 S   0  0  0  0  0  0  0  0  0  0  0  0
   45.0360   33.4610   41.0770 H   0  0  0  0  0  0  0  0  0  0  0  0
   44.7300   32.7510   38.6180 H   0  0  0  0  0  0  0  0  0  0  0  0
   46.9200   32.7260   36.8700 N   0  0  0  0  0  0  0  0  0  0  0  0
   46.0860   31.9530   36.1530 C   0  0  0  0  0  0  0  0  0  0  0  0
   46.3440   31.6920   34.8230 C   0  0  0  0  0  0  0  0  0  0  0  0
   45.4710   30.8480   33.9640 C   0  0  0  0  0  0  0  0  0  0  0  0
   47.4870   32.2580   34.2790 C   0  0  0  0  0  0  0  0  0  0  0  0
   47.8110   32.0740   33.0590 O   0  0  0  0  0  0  0  0  0  0  0  0
   48.3400   33.0390   34.9850 N   0  0  0  0  0  0  0  0  0  0  0  0
   48.0280   33.2570   36.2860 C   0  0  0  0  0  0  0  0  0  0  0  0
   48.8570   33.9970   36.9120 O   0  0  0  0  0  0  0  0  0  0  0  0
   49.1940   33.4540   34.5530 H   0  0  0  0  0  0  0  0  0  0  0  0
  1  6  1  0  0  0  0
  1 21  1  0  0  0  0
  2  7  1  0  0  0  0
  2  1  1  0  0  0  0
  2  3  1  0  0  0  0
  3  4  1  0  0  0  0
  3 10  1  0  0  0  0
  4 12  1  0  0  0  0
  5 14  1  0  0  0  0
  5  4  1  0  0  0  0
  5  6  1  0  0  0  0
  6 16  1  0  0  0  0
  8  2  1  0  0  0  0
  9  3  1  0  0  0  0
 11  4  1  0  0  0  0
 13  5  1  0  0  0  0
 15  6  1  0  0  0  0
 17 23  1  0  0  0  0
 18 17  1  0  0  0  0
 18 24  1  0  0  0  0
 19 18  2  0  0  0  0
 20 21  2  0  0  0  0
 20 19  1  0  0  0  0
 21 22  1  0  0  0  0
 22 17  2  0  0  0  0
 25 19  1  0  0  0  0
 26  1  1  0  0  0  0
 27 26  2  0  0  0  0
 27 31  1  0  0  0  0
 28 27  1  0  0  0  0
 29 28  2  0  0  0  0
 29 30  1  0  0  0  0
 30 26  1  0  0  0  0
 32 28  1  0  0  0  0
 33 29  1  0  0  0  0
 34 33  1  0  0  0  0
 35 34  2  0  0  0  0
 36 35  1  0  0  0  0
 37 35  1  0  0  0  0
 37 39  1  0  0  0  0
 38 37  2  0  0  0  0
 39 40  1  0  0  0  0
 40 33  1  0  0  0  0
 40 41  2  0  0  0  0
 42 39  1  0  0  0  0
M  END
>  <minimizedAffinity>
-7.00891256

>  <minimizedRMSD>
0.644379199

$$$$
