
 OpenBabel03232521013D

 42 45  0  0  1  0  0  0  0  0999 V2000
   45.5030   33.0180   47.2590 C   0  0  0  0  0  0  0  0  0  0  0  0
   45.9500   32.7610   46.0010 C   0  0  0  0  0  0  0  0  0  0  0  0
   46.1810   31.4060   45.7330 C   0  0  0  0  0  0  0  0  0  0  0  0
   45.9790   30.4130   46.6360 N   0  0  0  0  0  0  0  0  0  0  0  0
   45.5200   30.7280   47.9070 C   0  0  0  0  0  0  0  0  0  0  0  0
   45.2960   32.0090   48.1840 N   0  0  0  0  0  0  0  0  0  0  0  0
   45.3090   29.7150   48.8700 N   0  0  0  0  0  0  0  0  0  0  0  0
   45.2980   34.0300   47.5740 H   0  0  0  0  0  0  0  0  0  0  0  0
   45.1200   28.7060   48.6220 H   0  0  0  0  0  0  0  0  0  0  0  0
   45.3360   29.9570   49.8760 H   0  0  0  0  0  0  0  0  0  0  0  0
   46.1190   33.7130   44.9580 C   0  0  2  0  0  0  0  0  0  0  0  0
   44.9260   34.8040   45.2800 C   0  0  0  0  0  0  0  0  0  0  0  0
   44.6140   35.7330   44.2320 C   0  0  0  0  0  0  0  0  0  0  0  0
   45.3230   35.6640   42.9500 C   0  0  1  0  0  0  0  0  0  0  0  0
   46.3770   34.6610   42.8210 C   0  0  0  0  0  0  0  0  0  0  0  0
   45.9860   33.4280   43.6010 C   0  0  0  0  0  0  0  0  0  0  0  0
   46.9510   34.4330   45.2270 H   0  0  0  0  0  0  0  0  0  0  0  0
   44.3130   34.9520   46.1610 H   0  0  0  0  0  0  0  0  0  0  0  0
   43.8560   36.4510   44.3970 H   0  0  0  0  0  0  0  0  0  0  0  0
   45.7360   36.6720   42.7210 H   0  0  0  0  0  0  0  0  0  0  0  0
   47.4080   34.9840   43.1160 H   0  0  0  0  0  0  0  0  0  0  0  0
   46.4820   34.4250   41.7200 H   0  0  0  0  0  0  0  0  0  0  0  0
   45.0040   33.0690   43.2260 H   0  0  0  0  0  0  0  0  0  0  0  0
   46.8170   32.7810   43.2120 H   0  0  0  0  0  0  0  0  0  0  0  0
   44.2280   35.3960   41.8740 C   0  0  0  0  0  0  0  0  0  0  0  0
   43.1530   34.6830   42.3760 F   0  0  0  0  0  0  0  0  0  0  0  0
   43.7330   36.6420   41.5020 F   0  0  0  0  0  0  0  0  0  0  0  0
   44.8060   34.8360   40.7490 F   0  0  0  0  0  0  0  0  0  0  0  0
   46.7170   30.7130   44.5780 C   0  0  0  0  0  0  0  0  0  0  0  0
   46.3500   29.7450   43.7000 C   0  0  0  0  0  0  0  0  0  0  0  0
   47.4180   29.5230   42.8190 C   0  0  0  0  0  0  0  0  0  0  0  0
   48.3750   30.3650   43.2060 N   0  0  0  0  0  0  0  0  0  0  0  0
   47.9880   31.0760   44.2380 N   0  0  0  0  0  0  0  0  0  0  0  0
   45.3640   29.3270   43.8080 H   0  0  0  0  0  0  0  0  0  0  0  0
   47.3360   28.7900   42.0400 H   0  0  0  0  0  0  0  0  0  0  0  0
   49.8250   33.3700   40.3040 H   0  0  0  0  0  0  0  0  0  0  0  0
   50.1530   32.3810   40.2870 N   0  0  0  0  0  0  0  0  0  0  0  0
   51.0400   32.2010   41.4380 C   0  0  0  0  0  2  0  0  0  0  0  0
   50.1950   31.8660   42.6360 C   0  0  0  0  0  2  0  0  0  0  0  0
   49.6760   30.4390   42.5220 C   0  0  0  0  0  3  0  0  0  0  0  0
   49.4380   30.1990   41.0500 C   0  0  0  0  0  2  0  0  0  0  0  0
   49.0250   31.4910   40.3560 C   0  0  0  0  0  2  0  0  0  0  0  0
  1  8  1  0  0  0  0
  1  6  1  0  0  0  0
  2  1  2  0  0  0  0
  3  2  1  0  0  0  0
  3  4  2  0  0  0  0
  4  5  1  0  0  0  0
  5  6  2  0  0  0  0
  5  7  1  0  0  0  0
  7 10  1  0  0  0  0
  9  7  1  0  0  0  0
 11 17  1  1  0  0  0
 11 12  1  0  0  0  0
 11  2  1  0  0  0  0
 12 18  1  0  0  0  0
 13 19  1  0  0  0  0
 13 12  2  0  0  0  0
 14 20  1  6  0  0  0
 14 13  1  0  0  0  0
 15 14  1  0  0  0  0
 15 21  1  0  0  0  0
 15 16  1  0  0  0  0
 16 11  1  0  0  0  0
 22 15  1  0  0  0  0
 23 16  1  0  0  0  0
 24 16  1  0  0  0  0
 25 26  1  0  0  0  0
 25 14  1  0  0  0  0
 27 25  1  0  0  0  0
 28 25  1  0  0  0  0
 29  3  1  0  0  0  0
 30 34  1  0  0  0  0
 30 29  1  0  0  0  0
 31 32  1  0  0  0  0
 31 30  2  0  0  0  0
 32 33  1  0  0  0  0
 33 29  2  0  0  0  0
 35 31  1  0  0  0  0
 37 36  1  0  0  0  0
 37 42  1  0  0  0  0
 37 38  1  0  0  0  0
 38 39  1  0  0  0  0
 40 39  1  0  0  0  0
 40 32  1  0  0  0  0
 41 40  1  0  0  0  0
 42 41  1  0  0  0  0
M  END
>  <minimizedAffinity>
-6.12346411

>  <minimizedRMSD>
0.978191257

$$$$
