
 OpenBabel03232520023D

 20 21  0  0  0  0  0  0  0  0999 V2000
   48.5080   34.7290   41.2430 C   0  0  0  0  0  0  0  0  0  0  0  0
   48.5490   34.8120   39.8620 C   0  0  0  0  0  0  0  0  0  0  0  0
   47.7120   33.9660   39.1330 C   0  0  0  0  0  0  0  0  0  0  0  0
   46.8970   33.1040   39.8260 N   0  0  0  0  0  0  0  0  0  0  0  0
   46.9000   33.0700   41.1710 C   0  0  0  0  0  0  0  0  0  0  0  0
   47.7010   33.8770   41.8530 N   0  0  0  0  0  0  0  0  0  0  0  0
   49.1640   35.4600   39.2890 H   0  0  0  0  0  0  0  0  0  0  0  0
   47.6840   33.9690   38.0360 H   0  0  0  0  0  0  0  0  0  0  0  0
   49.3880   35.6160   42.0110 C   0  0  0  0  0  0  0  0  0  0  0  0
   49.4720   36.8440   41.6770 O   0  0  0  0  0  0  0  0  0  0  0  0
   50.1100   35.1080   43.0820 O   0  0  0  0  0  0  0  0  0  0  0  0
   51.0270   35.5370   43.2710 H   0  0  0  0  0  0  0  0  0  0  0  0
   45.8590   31.9740   42.1310 S   0  0  0  0  0  0  0  0  0  0  0  0
   46.0890   36.0650   42.7210 H   0  0  0  0  0  0  0  0  0  0  0  0
   45.0960   35.8160   42.8310 N   0  0  0  0  0  0  0  0  0  0  0  0
   44.9230   35.2150   44.1360 C   0  0  0  0  0  0  0  0  0  0  0  0
   45.2770   33.7480   44.1590 C   0  0  0  0  0  0  0  0  0  0  0  0
   44.6320   32.9450   43.0610 C   0  0  0  0  0  0  0  0  0  0  0  0
   43.8260   33.8120   42.1410 C   0  0  0  0  0  0  0  0  0  0  0  0
   44.5920   35.0410   41.7450 C   0  0  0  0  0  0  0  0  0  0  0  0
  1  6  1  0  0  0  0
  1  9  1  0  0  0  0
  2  1  2  0  0  0  0
  3  4  2  0  0  0  0
  3  2  1  0  0  0  0
  4  5  1  0  0  0  0
  5  6  2  0  0  0  0
  5 13  1  0  0  0  0
  7  2  1  0  0  0  0
  8  3  1  0  0  0  0
  9 11  1  0  0  0  0
 10  9  2  0  0  0  0
 11 12  1  0  0  0  0
 13 18  1  0  0  0  0
 14 15  1  0  0  0  0
 15 16  1  0  0  0  0
 16 17  1  0  0  0  0
 18 17  1  0  0  0  0
 19 18  1  0  0  0  0
 20 19  1  0  0  0  0
 20 15  1  0  0  0  0
M  END
>  <minimizedAffinity>
-4.44114494

>  <minimizedRMSD>
2.19734812

$$$$
