
 OpenBabel03232520113D

 41 44  0  0  1  0  0  0  0  0999 V2000
   48.8900   28.8410   48.4060 N   0  0  0  0  0  0  0  0  0  0  0  0
   48.6990   27.5160   47.8910 C   0  0  0  0  0  0  0  0  0  0  0  0
   50.0020   26.8070   47.6120 C   0  0  0  0  0  0  0  0  0  0  0  0
   51.0330   27.1330   48.6620 C   0  0  0  0  0  0  0  0  0  0  0  0
   50.3710   27.7130   49.9170 C   0  0  0  0  0  0  0  0  0  0  0  0
   49.8000   29.0330   49.4970 C   0  0  1  0  0  0  0  0  0  0  0  0
   48.1680   26.9410   48.6810 H   0  0  0  0  0  0  0  0  0  0  0  0
   48.0750   27.4740   46.9750 H   0  0  0  0  0  0  0  0  0  0  0  0
   49.8160   25.7180   47.5110 H   0  0  0  0  0  0  0  0  0  0  0  0
   50.4060   27.2010   46.6360 H   0  0  0  0  0  0  0  0  0  0  0  0
   51.8850   27.7210   48.3120 H   0  0  0  0  0  0  0  0  0  0  0  0
   51.4500   26.1620   49.0010 H   0  0  0  0  0  0  0  0  0  0  0  0
   51.1310   27.7800   50.6940 H   0  0  0  0  0  0  0  0  0  0  0  0
   49.5820   26.9870   50.1970 H   0  0  0  0  0  0  0  0  0  0  0  0
   49.2620   29.4680   50.3730 H   0  0  0  0  0  0  0  0  0  0  0  0
   50.9410   29.8810   49.1720 N   0  0  0  0  0  0  0  0  0  0  0  0
   51.7160   29.8380   48.0960 C   0  0  0  0  0  0  0  0  0  0  0  0
   52.7650   30.7210   47.9390 C   0  0  0  0  0  0  0  0  0  0  0  0
   53.6100   30.6370   46.7170 C   0  0  0  0  0  0  0  0  0  0  0  0
   53.0570   31.6880   48.8940 C   0  0  0  0  0  0  0  0  0  0  0  0
   54.0200   32.5010   48.7520 O   0  0  0  0  0  0  0  0  0  0  0  0
   52.2540   31.7050   49.9700 N   0  0  0  0  0  0  0  0  0  0  0  0
   51.2380   30.8350   50.1000 C   0  0  0  0  0  0  0  0  0  0  0  0
   50.5460   30.9510   51.1650 O   0  0  0  0  0  0  0  0  0  0  0  0
   52.4570   32.4280   50.6990 H   0  0  0  0  0  0  0  0  0  0  0  0
   47.1650   32.0940   46.7160 C   0  0  0  0  0  0  0  0  0  0  0  0
   47.3700   32.2040   48.0660 C   0  0  0  0  0  0  0  0  0  0  0  0
   47.9430   31.1730   48.7370 C   0  0  0  0  0  0  0  0  0  0  0  0
   48.2780   30.0690   47.9710 C   0  0  0  0  0  0  0  0  0  0  0  0
   47.7850   30.4830   46.2990 S   0  0  0  0  0  0  0  0  0  0  0  0
   47.0610   33.1310   48.5600 H   0  0  0  0  0  0  0  0  0  0  0  0
   48.1500   31.1540   49.7970 H   0  0  0  0  0  0  0  0  0  0  0  0
   44.9890   34.6610   45.2590 C   0  0  0  0  0  0  0  0  0  0  0  0
   45.5550   34.7970   43.9550 C   0  0  0  0  0  0  0  0  0  0  0  0
   46.6780   33.9930   43.6140 C   0  0  0  0  0  0  0  0  0  0  0  0
   47.1400   33.1380   44.5710 N   0  0  0  0  0  0  0  0  0  0  0  0
   46.5860   33.0360   45.7830 C   0  0  0  0  0  0  0  0  0  0  0  0
   45.5280   33.7860   46.1180 N   0  0  0  0  0  0  0  0  0  0  0  0
   44.1330   35.2880   45.4870 H   0  0  0  0  0  0  0  0  0  0  0  0
   45.1740   35.4850   43.2030 H   0  0  0  0  0  0  0  0  0  0  0  0
   47.1280   34.0710   42.6430 H   0  0  0  0  0  0  0  0  0  0  0  0
  1  6  1  0  0  0  0
  2  1  1  0  0  0  0
  2  7  1  0  0  0  0
  3  2  1  0  0  0  0
  3  4  1  0  0  0  0
  4 12  1  0  0  0  0
  4  5  1  0  0  0  0
  5 14  1  0  0  0  0
  5 13  1  0  0  0  0
  6  5  1  0  0  0  0
  6 15  1  1  0  0  0
  8  2  1  0  0  0  0
  9  3  1  0  0  0  0
 10  3  1  0  0  0  0
 11  4  1  0  0  0  0
 16  6  1  0  0  0  0
 16 23  1  0  0  0  0
 17 16  1  0  0  0  0
 18 17  2  0  0  0  0
 18 20  1  0  0  0  0
 19 18  1  0  0  0  0
 20 22  1  0  0  0  0
 21 20  2  0  0  0  0
 22 23  1  0  0  0  0
 22 25  1  0  0  0  0
 23 24  2  0  0  0  0
 26 27  2  0  0  0  0
 27 31  1  0  0  0  0
 27 28  1  0  0  0  0
 28 32  1  0  0  0  0
 29  1  1  0  0  0  0
 29 28  2  0  0  0  0
 30 26  1  0  0  0  0
 30 29  1  0  0  0  0
 33 39  1  0  0  0  0
 33 38  1  0  0  0  0
 34 33  2  0  0  0  0
 35 34  1  0  0  0  0
 35 36  2  0  0  0  0
 36 37  1  0  0  0  0
 37 38  2  0  0  0  0
 37 26  1  0  0  0  0
 40 34  1  0  0  0  0
 41 35  1  0  0  0  0
M  END
>  <minimizedAffinity>
-5.09765577

>  <minimizedRMSD>
2.67442179

$$$$
