
 OpenBabel03232520403D

 26 28  0  0  0  0  0  0  0  0999 V2000
   44.0130   35.4930   42.6320 C   0  0  0  0  0  0  0  0  0  0  0  0
   43.3270   35.0100   41.5060 C   0  0  0  0  0  0  0  0  0  0  0  0
   44.0340   34.3240   40.5460 C   0  0  0  0  0  0  0  0  0  0  0  0
   45.3720   34.1390   40.7190 N   0  0  0  0  0  0  0  0  0  0  0  0
   46.0080   34.6150   41.8120 C   0  0  0  0  0  0  0  0  0  0  0  0
   45.3380   35.2930   42.7750 N   0  0  0  0  0  0  0  0  0  0  0  0
   43.5150   36.0360   43.4170 H   0  0  0  0  0  0  0  0  0  0  0  0
   43.5220   33.9440   39.6720 H   0  0  0  0  0  0  0  0  0  0  0  0
   47.4420   34.4320   42.0330 C   0  0  0  0  0  0  0  0  0  0  0  0
   48.2980   35.4920   41.9430 C   0  0  0  0  0  0  0  0  0  0  0  0
   49.6630   35.3530   42.1480 C   0  0  0  0  0  0  0  0  0  0  0  0
   50.1910   34.1150   42.4540 C   0  0  0  0  0  0  0  0  0  0  0  0
   49.3000   33.0580   42.5390 C   0  0  0  0  0  0  0  0  0  0  0  0
   47.9830   33.2340   42.3330 N   0  0  0  0  0  0  0  0  0  0  0  0
   47.9560   36.4760   41.7120 H   0  0  0  0  0  0  0  0  0  0  0  0
   50.3570   36.1760   42.0830 H   0  0  0  0  0  0  0  0  0  0  0  0
   51.2160   33.8880   42.6300 H   0  0  0  0  0  0  0  0  0  0  0  0
   49.6570   32.0630   42.7740 H   0  0  0  0  0  0  0  0  0  0  0  0
   41.5450   35.3050   41.3750 S   0  0  0  0  0  0  0  0  0  0  0  0
   38.5870   32.7740   38.1640 H   0  0  0  0  0  0  0  0  0  0  0  0
   38.5620   33.7780   38.4040 N   0  0  0  0  0  0  0  0  0  0  0  0
   38.4600   33.9540   39.8220 C   0  0  0  0  0  0  0  0  0  0  0  0
   39.7240   33.5160   40.5340 C   0  0  0  0  0  0  0  0  0  0  0  0
   40.8670   34.3440   40.0130 C   0  0  0  0  0  0  0  0  0  0  0  0
   40.5010   35.2110   38.8500 C   0  0  0  0  0  0  0  0  0  0  0  0
   39.7070   34.4440   37.8120 C   0  0  0  0  0  0  0  0  0  0  0  0
  1  6  1  0  0  0  0
  1  7  1  0  0  0  0
  2  1  2  0  0  0  0
  3  4  2  0  0  0  0
  3  2  1  0  0  0  0
  4  5  1  0  0  0  0
  5  9  1  0  0  0  0
  5  6  2  0  0  0  0
  8  3  1  0  0  0  0
  9 14  1  0  0  0  0
 10  9  2  0  0  0  0
 10 11  1  0  0  0  0
 11 12  2  0  0  0  0
 12 13  1  0  0  0  0
 12 17  1  0  0  0  0
 13 18  1  0  0  0  0
 14 13  2  0  0  0  0
 15 10  1  0  0  0  0
 16 11  1  0  0  0  0
 19  2  1  0  0  0  0
 20 21  1  0  0  0  0
 21 22  1  0  0  0  0
 22 23  1  0  0  0  0
 24 23  1  0  0  0  0
 24 19  1  0  0  0  0
 25 24  1  0  0  0  0
 26 21  1  0  0  0  0
 26 25  1  0  0  0  0
M  END
>  <minimizedAffinity>
-5.65857935

>  <minimizedRMSD>
2.18230844

$$$$
