
 OpenBabel03232521013D

 42 45  0  0  1  0  0  0  0  0999 V2000
   45.5270   32.8540   47.5490 C   0  0  0  0  0  0  0  0  0  0  0  0
   45.9670   32.5950   46.2890 C   0  0  0  0  0  0  0  0  0  0  0  0
   46.1070   31.2340   45.9920 C   0  0  0  0  0  0  0  0  0  0  0  0
   45.8290   30.2380   46.8700 N   0  0  0  0  0  0  0  0  0  0  0  0
   45.3810   30.5540   48.1440 C   0  0  0  0  0  0  0  0  0  0  0  0
   45.2420   31.8400   48.4490 N   0  0  0  0  0  0  0  0  0  0  0  0
   45.0920   29.5360   49.0810 N   0  0  0  0  0  0  0  0  0  0  0  0
   45.3880   33.8700   47.8870 H   0  0  0  0  0  0  0  0  0  0  0  0
   44.8370   28.5490   48.8080 H   0  0  0  0  0  0  0  0  0  0  0  0
   45.1260   29.7530   50.0930 H   0  0  0  0  0  0  0  0  0  0  0  0
   46.2100   33.5580   45.2710 C   0  0  2  0  0  0  0  0  0  0  0  0
   44.9790   34.6300   45.4960 C   0  0  0  0  0  0  0  0  0  0  0  0
   44.7440   35.5620   44.4310 C   0  0  0  0  0  0  0  0  0  0  0  0
   45.5600   35.5120   43.2140 C   0  0  1  0  0  0  0  0  0  0  0  0
   46.6360   34.5240   43.1680 C   0  0  0  0  0  0  0  0  0  0  0  0
   46.1970   33.2800   43.9050 C   0  0  0  0  0  0  0  0  0  0  0  0
   47.0060   34.2860   45.6140 H   0  0  0  0  0  0  0  0  0  0  0  0
   44.2920   34.7630   46.3230 H   0  0  0  0  0  0  0  0  0  0  0  0
   43.9640   36.2690   44.5350 H   0  0  0  0  0  0  0  0  0  0  0  0
   45.9770   36.5270   43.0260 H   0  0  0  0  0  0  0  0  0  0  0  0
   47.6330   34.8590   43.5530 H   0  0  0  0  0  0  0  0  0  0  0  0
   46.8370   34.2980   42.0790 H   0  0  0  0  0  0  0  0  0  0  0  0
   45.2560   32.9110   43.4460 H   0  0  0  0  0  0  0  0  0  0  0  0
   47.0670   32.6480   43.5840 H   0  0  0  0  0  0  0  0  0  0  0  0
   44.5650   35.2370   42.0470 C   0  0  0  0  0  0  0  0  0  0  0  0
   43.5270   34.4010   42.4200 F   0  0  0  0  0  0  0  0  0  0  0  0
   43.9870   36.4620   41.7300 F   0  0  0  0  0  0  0  0  0  0  0  0
   45.2600   34.8150   40.9290 F   0  0  0  0  0  0  0  0  0  0  0  0
   46.6060   30.5330   44.8240 C   0  0  0  0  0  0  0  0  0  0  0  0
   46.1410   30.0300   43.6530 C   0  0  0  0  0  0  0  0  0  0  0  0
   47.2060   29.4110   42.9860 C   0  0  0  0  0  0  0  0  0  0  0  0
   48.2620   29.5700   43.7840 N   0  0  0  0  0  0  0  0  0  0  0  0
   47.9350   30.2270   44.8710 N   0  0  0  0  0  0  0  0  0  0  0  0
   45.0970   30.1740   43.4320 H   0  0  0  0  0  0  0  0  0  0  0  0
   47.0540   28.9440   42.0320 H   0  0  0  0  0  0  0  0  0  0  0  0
   52.1640   31.6490   43.8730 H   0  0  0  0  0  0  0  0  0  0  0  0
   51.9630   30.8790   43.2010 N   0  0  0  0  0  0  0  0  0  0  0  0
   51.9440   29.6310   43.9660 C   0  0  0  0  0  2  0  0  0  0  0  0
   50.5660   29.4470   44.5380 C   0  0  0  0  0  2  0  0  0  0  0  0
   49.5940   29.0530   43.4340 C   0  0  0  0  0  3  0  0  0  0  0  0
   50.0590   29.7770   42.1920 C   0  0  0  0  0  2  0  0  0  0  0  0
   50.6960   31.1110   42.5580 C   0  0  0  0  0  2  0  0  0  0  0  0
  1  8  1  0  0  0  0
  1  6  1  0  0  0  0
  2  1  2  0  0  0  0
  3  2  1  0  0  0  0
  3  4  2  0  0  0  0
  4  5  1  0  0  0  0
  5  6  2  0  0  0  0
  5  7  1  0  0  0  0
  7 10  1  0  0  0  0
  9  7  1  0  0  0  0
 11 12  1  0  0  0  0
 11 17  1  1  0  0  0
 11  2  1  0  0  0  0
 12 18  1  0  0  0  0
 13 19  1  0  0  0  0
 13 12  2  0  0  0  0
 14 20  1  6  0  0  0
 14 13  1  0  0  0  0
 15 14  1  0  0  0  0
 15 21  1  0  0  0  0
 15 16  1  0  0  0  0
 16 11  1  0  0  0  0
 22 15  1  0  0  0  0
 23 16  1  0  0  0  0
 24 16  1  0  0  0  0
 25 26  1  0  0  0  0
 25 14  1  0  0  0  0
 27 25  1  0  0  0  0
 28 25  1  0  0  0  0
 29 33  2  0  0  0  0
 29  3  1  0  0  0  0
 30 29  1  0  0  0  0
 31 30  2  0  0  0  0
 31 32  1  0  0  0  0
 32 33  1  0  0  0  0
 34 30  1  0  0  0  0
 35 31  1  0  0  0  0
 37 36  1  0  0  0  0
 37 38  1  0  0  0  0
 38 39  1  0  0  0  0
 40 32  1  0  0  0  0
 40 39  1  0  0  0  0
 41 42  1  0  0  0  0
 41 40  1  0  0  0  0
 42 37  1  0  0  0  0
M  END
>  <minimizedAffinity>
-6.06730843

>  <minimizedRMSD>
0.479963779

$$$$
