
 OpenBabel03232521003D

 42 45  0  0  1  0  0  0  0  0999 V2000
   45.5900   32.8560   47.4170 C   0  0  0  0  0  0  0  0  0  0  0  0
   45.9870   32.5980   46.1420 C   0  0  0  0  0  0  0  0  0  0  0  0
   46.1040   31.2360   45.8370 C   0  0  0  0  0  0  0  0  0  0  0  0
   45.8450   30.2390   46.7200 N   0  0  0  0  0  0  0  0  0  0  0  0
   45.4410   30.5560   48.0090 C   0  0  0  0  0  0  0  0  0  0  0  0
   45.3250   31.8420   48.3220 N   0  0  0  0  0  0  0  0  0  0  0  0
   45.1730   29.5380   48.9520 N   0  0  0  0  0  0  0  0  0  0  0  0
   45.4720   33.8720   47.7610 H   0  0  0  0  0  0  0  0  0  0  0  0
   44.9000   28.5540   48.6850 H   0  0  0  0  0  0  0  0  0  0  0  0
   45.2410   29.7510   49.9630 H   0  0  0  0  0  0  0  0  0  0  0  0
   46.2070   33.5610   45.1190 C   0  0  2  0  0  0  0  0  0  0  0  0
   44.9990   34.6490   45.3930 C   0  0  0  0  0  0  0  0  0  0  0  0
   44.7390   35.5880   44.3400 C   0  0  0  0  0  0  0  0  0  0  0  0
   45.5100   35.5330   43.0940 C   0  0  1  0  0  0  0  0  0  0  0  0
   46.5690   34.5300   43.0060 C   0  0  0  0  0  0  0  0  0  0  0  0
   46.1410   33.2890   43.7540 C   0  0  0  0  0  0  0  0  0  0  0  0
   47.0240   34.2770   45.4360 H   0  0  0  0  0  0  0  0  0  0  0  0
   44.3440   34.7870   46.2440 H   0  0  0  0  0  0  0  0  0  0  0  0
   43.9730   36.3050   44.4750 H   0  0  0  0  0  0  0  0  0  0  0  0
   45.9330   36.5420   42.8960 H   0  0  0  0  0  0  0  0  0  0  0  0
   47.5840   34.8500   43.3560 H   0  0  0  0  0  0  0  0  0  0  0  0
   46.7280   34.3060   41.9100 H   0  0  0  0  0  0  0  0  0  0  0  0
   45.1780   32.9350   43.3280 H   0  0  0  0  0  0  0  0  0  0  0  0
   46.9900   32.6470   43.3990 H   0  0  0  0  0  0  0  0  0  0  0  0
   44.4690   35.2760   41.9630 C   0  0  0  0  0  0  0  0  0  0  0  0
   43.4190   34.4760   42.3790 F   0  0  0  0  0  0  0  0  0  0  0  0
   43.9180   36.5150   41.6510 F   0  0  0  0  0  0  0  0  0  0  0  0
   45.1150   34.8210   40.8280 F   0  0  0  0  0  0  0  0  0  0  0  0
   46.5580   30.5340   44.6520 C   0  0  0  0  0  0  0  0  0  0  0  0
   46.0360   29.9070   43.5670 C   0  0  0  0  0  0  0  0  0  0  0  0
   47.0930   29.3870   42.8080 C   0  0  0  0  0  0  0  0  0  0  0  0
   48.2010   29.7250   43.4680 N   0  0  0  0  0  0  0  0  0  0  0  0
   47.9130   30.4000   44.5560 N   0  0  0  0  0  0  0  0  0  0  0  0
   44.9640   29.9060   43.4640 H   0  0  0  0  0  0  0  0  0  0  0  0
   46.8990   28.8480   41.9010 H   0  0  0  0  0  0  0  0  0  0  0  0
   51.9400   32.0820   43.5930 H   0  0  0  0  0  0  0  0  0  0  0  0
   51.7530   31.3810   42.8460 N   0  0  0  0  0  0  0  0  0  0  0  0
   51.8730   30.0560   43.4570 C   0  0  0  0  0  2  0  0  0  0  0  0
   50.5510   29.7000   44.0770 C   0  0  0  0  0  2  0  0  0  0  0  0
   49.5420   29.3580   42.9880 C   0  0  0  0  0  3  0  0  0  0  0  0
   49.8740   30.2550   41.8180 C   0  0  0  0  0  2  0  0  0  0  0  0
   50.4350   31.5840   42.3050 C   0  0  0  0  0  2  0  0  0  0  0  0
  1  8  1  0  0  0  0
  1  6  1  0  0  0  0
  2  1  2  0  0  0  0
  3  2  1  0  0  0  0
  3  4  2  0  0  0  0
  4  5  1  0  0  0  0
  5  6  2  0  0  0  0
  5  7  1  0  0  0  0
  7 10  1  0  0  0  0
  9  7  1  0  0  0  0
 11 12  1  0  0  0  0
 11 17  1  1  0  0  0
 11  2  1  0  0  0  0
 12 18  1  0  0  0  0
 13 19  1  0  0  0  0
 13 12  2  0  0  0  0
 14 20  1  6  0  0  0
 14 13  1  0  0  0  0
 15 14  1  0  0  0  0
 15 21  1  0  0  0  0
 15 16  1  0  0  0  0
 16 11  1  0  0  0  0
 22 15  1  0  0  0  0
 23 16  1  0  0  0  0
 24 16  1  0  0  0  0
 25 26  1  0  0  0  0
 25 14  1  0  0  0  0
 27 25  1  0  0  0  0
 28 25  1  0  0  0  0
 29  3  1  0  0  0  0
 30 29  1  0  0  0  0
 31 32  1  0  0  0  0
 31 30  2  0  0  0  0
 32 33  1  0  0  0  0
 33 29  2  0  0  0  0
 34 30  1  0  0  0  0
 35 31  1  0  0  0  0
 37 38  1  0  0  0  0
 37 36  1  0  0  0  0
 38 39  1  0  0  0  0
 40 32  1  0  0  0  0
 40 39  1  0  0  0  0
 41 42  1  0  0  0  0
 41 40  1  0  0  0  0
 42 37  1  0  0  0  0
M  END
>  <minimizedAffinity>
-5.99949598

>  <minimizedRMSD>
0.737145841

$$$$
