
 OpenBabel03232521013D

 42 45  0  0  1  0  0  0  0  0999 V2000
   45.3860   32.8560   47.4940 C   0  0  0  0  0  0  0  0  0  0  0  0
   45.9340   32.6180   46.2740 C   0  0  0  0  0  0  0  0  0  0  0  0
   46.1970   31.2680   46.0100 C   0  0  0  0  0  0  0  0  0  0  0  0
   45.9330   30.2630   46.8830 N   0  0  0  0  0  0  0  0  0  0  0  0
   45.3710   30.5600   48.1170 C   0  0  0  0  0  0  0  0  0  0  0  0
   45.1140   31.8340   48.3890 N   0  0  0  0  0  0  0  0  0  0  0  0
   45.0930   29.5340   49.0480 N   0  0  0  0  0  0  0  0  0  0  0  0
   45.1470   33.8630   47.8040 H   0  0  0  0  0  0  0  0  0  0  0  0
   44.9330   28.5260   48.7750 H   0  0  0  0  0  0  0  0  0  0  0  0
   45.0370   29.7640   50.0560 H   0  0  0  0  0  0  0  0  0  0  0  0
   46.1780   33.5840   45.2580 C   0  0  2  0  0  0  0  0  0  0  0  0
   44.9580   34.6650   45.5010 C   0  0  0  0  0  0  0  0  0  0  0  0
   44.7220   35.6050   44.4430 C   0  0  0  0  0  0  0  0  0  0  0  0
   45.5270   35.5560   43.2180 C   0  0  1  0  0  0  0  0  0  0  0  0
   46.5930   34.5590   43.1580 C   0  0  0  0  0  0  0  0  0  0  0  0
   46.1510   33.3140   43.8920 C   0  0  0  0  0  0  0  0  0  0  0  0
   46.9830   34.3030   45.5990 H   0  0  0  0  0  0  0  0  0  0  0  0
   44.2790   34.7990   46.3340 H   0  0  0  0  0  0  0  0  0  0  0  0
   43.9490   36.3190   44.5580 H   0  0  0  0  0  0  0  0  0  0  0  0
   45.9510   36.5680   43.0340 H   0  0  0  0  0  0  0  0  0  0  0  0
   47.5970   34.8830   43.5360 H   0  0  0  0  0  0  0  0  0  0  0  0
   46.7830   34.3370   42.0660 H   0  0  0  0  0  0  0  0  0  0  0  0
   45.2020   32.9560   43.4380 H   0  0  0  0  0  0  0  0  0  0  0  0
   47.0120   32.6760   43.5590 H   0  0  0  0  0  0  0  0  0  0  0  0
   44.5200   35.2970   42.0590 C   0  0  0  0  0  0  0  0  0  0  0  0
   43.4500   34.5090   42.4500 F   0  0  0  0  0  0  0  0  0  0  0  0
   43.9890   36.5360   41.7180 F   0  0  0  0  0  0  0  0  0  0  0  0
   45.1960   34.8250   40.9490 F   0  0  0  0  0  0  0  0  0  0  0  0
   46.8310   30.5930   44.8940 C   0  0  0  0  0  0  0  0  0  0  0  0
   46.4830   29.8520   43.8110 C   0  0  0  0  0  0  0  0  0  0  0  0
   47.6550   29.4640   43.1480 C   0  0  0  0  0  0  0  0  0  0  0  0
   48.6520   29.9890   43.8590 N   0  0  0  0  0  0  0  0  0  0  0  0
   48.1940   30.6580   44.8910 N   0  0  0  0  0  0  0  0  0  0  0  0
   45.4320   29.6880   43.6410 H   0  0  0  0  0  0  0  0  0  0  0  0
   47.6050   28.8660   42.2590 H   0  0  0  0  0  0  0  0  0  0  0  0
   50.8860   26.2310   43.1880 H   0  0  0  0  0  0  0  0  0  0  0  0
   51.3490   27.0970   43.5370 N   0  0  0  0  0  0  0  0  0  0  0  0
   51.4230   28.0320   42.4140 C   0  0  0  0  0  2  0  0  0  0  0  0
   50.1280   28.7930   42.3470 C   0  0  0  0  0  2  0  0  0  0  0  0
   50.0630   29.8060   43.4840 C   0  0  0  0  0  3  0  0  0  0  0  0
   50.7720   29.1650   44.6540 C   0  0  0  0  0  2  0  0  0  0  0  0
   50.5910   27.6530   44.6260 C   0  0  0  0  0  2  0  0  0  0  0  0
  1  8  1  0  0  0  0
  1  6  1  0  0  0  0
  2  1  2  0  0  0  0
  3  2  1  0  0  0  0
  3  4  2  0  0  0  0
  4  5  1  0  0  0  0
  5  6  2  0  0  0  0
  5  7  1  0  0  0  0
  7 10  1  0  0  0  0
  9  7  1  0  0  0  0
 11 12  1  0  0  0  0
 11 17  1  1  0  0  0
 11  2  1  0  0  0  0
 12 18  1  0  0  0  0
 13 19  1  0  0  0  0
 13 12  2  0  0  0  0
 14 20  1  6  0  0  0
 14 13  1  0  0  0  0
 15 14  1  0  0  0  0
 15 21  1  0  0  0  0
 15 16  1  0  0  0  0
 16 11  1  0  0  0  0
 22 15  1  0  0  0  0
 23 16  1  0  0  0  0
 24 16  1  0  0  0  0
 25 26  1  0  0  0  0
 25 14  1  0  0  0  0
 27 25  1  0  0  0  0
 28 25  1  0  0  0  0
 29  3  1  0  0  0  0
 30 29  1  0  0  0  0
 31 30  2  0  0  0  0
 31 32  1  0  0  0  0
 32 33  1  0  0  0  0
 33 29  2  0  0  0  0
 34 30  1  0  0  0  0
 35 31  1  0  0  0  0
 36 37  1  0  0  0  0
 37 42  1  0  0  0  0
 38 37  1  0  0  0  0
 39 38  1  0  0  0  0
 39 40  1  0  0  0  0
 40 32  1  0  0  0  0
 40 41  1  0  0  0  0
 42 41  1  0  0  0  0
M  END
>  <minimizedAffinity>
-5.6178174

>  <minimizedRMSD>
1.17020726

$$$$
