
 OpenBabel03232515213D

 48 52  0  0  0  0  0  0  0  0999 V2000
   48.1360   30.8470   48.4290 C   0  0  0  0  0  0  0  0  0  0  0  0
   49.0590   31.3880   49.2780 C   0  0  0  0  0  0  0  0  0  0  0  0
   50.0740   30.6280   49.7950 C   0  0  0  0  0  0  0  0  0  0  0  0
   50.1440   29.2860   49.4350 C   0  0  0  0  0  0  0  0  0  0  0  0
   49.2160   28.7450   48.5810 C   0  0  0  0  0  0  0  0  0  0  0  0
   48.2090   29.5080   48.0700 C   0  0  0  0  0  0  0  0  0  0  0  0
   49.0010   32.4320   49.5560 H   0  0  0  0  0  0  0  0  0  0  0  0
   50.8030   31.0740   50.4720 H   0  0  0  0  0  0  0  0  0  0  0  0
   50.9650   28.7070   49.8640 H   0  0  0  0  0  0  0  0  0  0  0  0
   44.5270   35.7280   44.6510 C   0  0  0  0  0  0  0  0  0  0  0  0
   45.2530   35.6130   43.4630 C   0  0  0  0  0  0  0  0  0  0  0  0
   46.2340   34.6290   43.3580 C   0  0  0  0  0  0  0  0  0  0  0  0
   46.4440   33.8170   44.4240 N   0  0  0  0  0  0  0  0  0  0  0  0
   45.7160   33.9560   45.5730 C   0  0  0  0  0  0  0  0  0  0  0  0
   44.7640   34.9000   45.6960 N   0  0  0  0  0  0  0  0  0  0  0  0
   45.9440   33.0980   46.6850 N   0  0  0  0  0  0  0  0  0  0  0  0
   47.1250   32.4640   46.7600 C   0  0  0  0  0  0  0  0  0  0  0  0
   47.0870   31.7090   47.9170 C   0  0  0  0  0  0  0  0  0  0  0  0
   45.8860   31.9060   48.5120 N   0  0  0  0  0  0  0  0  0  0  0  0
   45.1850   32.7470   47.7740 C   0  0  0  0  0  0  0  0  0  0  0  0
   43.7530   36.4730   44.7930 H   0  0  0  0  0  0  0  0  0  0  0  0
   45.0090   36.3100   42.6730 H   0  0  0  0  0  0  0  0  0  0  0  0
   46.7710   34.5680   42.4340 H   0  0  0  0  0  0  0  0  0  0  0  0
   47.9880   32.4670   46.1160 H   0  0  0  0  0  0  0  0  0  0  0  0
   44.1980   33.1730   47.8670 H   0  0  0  0  0  0  0  0  0  0  0  0
   47.2520   28.9560   47.1930 N   0  0  0  0  0  0  0  0  0  0  0  0
   46.6170   28.2190   47.6080 H   0  0  0  0  0  0  0  0  0  0  0  0
   47.3450   29.3930   46.2450 H   0  0  0  0  0  0  0  0  0  0  0  0
   49.3010   27.3350   48.2110 C   0  0  0  0  0  0  0  0  0  0  0  0
   48.3380   26.5450   48.3300 O   0  0  0  0  0  0  0  0  0  0  0  0
   50.5880   26.8060   47.6640 C   0  0  0  0  0  0  0  0  0  0  0  0
   51.2210   25.6770   48.3100 C   0  0  0  0  0  0  0  0  0  0  0  0
   52.7050   25.4310   47.2950 S   0  0  0  0  0  0  0  0  0  0  0  0
   52.2570   26.8770   46.1560 C   0  0  0  0  0  0  0  0  0  0  0  0
   51.2400   27.2470   46.6380 N   0  0  0  0  0  0  0  0  0  0  0  0
   53.0450   27.2850   45.0490 N   0  0  0  0  0  0  0  0  0  0  0  0
   53.3690   26.4980   44.4430 H   0  0  0  0  0  0  0  0  0  0  0  0
   53.1920   28.3140   44.9920 H   0  0  0  0  0  0  0  0  0  0  0  0
   50.7320   24.9930   49.4510 N   0  0  0  0  0  0  0  0  0  0  0  0
   49.9420   23.9080   49.2720 C   0  0  0  0  0  0  0  0  0  0  0  0
   49.4260   23.1860   50.3210 C   0  0  0  0  0  0  0  0  0  0  0  0
   48.5600   21.9950   50.0700 C   0  0  0  0  0  0  0  0  0  0  0  0
   49.6950   23.5430   51.6310 C   0  0  0  0  0  0  0  0  0  0  0  0
   49.2640   22.9380   52.6300 O   0  0  0  0  0  0  0  0  0  0  0  0
   50.4850   24.6280   51.7550 N   0  0  0  0  0  0  0  0  0  0  0  0
   50.9870   25.3310   50.7210 C   0  0  0  0  0  0  0  0  0  0  0  0
   51.7160   26.3330   50.9080 O   0  0  0  0  0  0  0  0  0  0  0  0
   50.7230   24.9460   52.7330 H   0  0  0  0  0  0  0  0  0  0  0  0
  1  2  1  0  0  0  0
  2  7  1  0  0  0  0
  2  3  2  0  0  0  0
  3  8  1  0  0  0  0
  4  3  1  0  0  0  0
  4  9  1  0  0  0  0
  5  4  2  0  0  0  0
  6  1  2  0  0  0  0
  6  5  1  0  0  0  0
 10 21  1  0  0  0  0
 10 15  1  0  0  0  0
 11 10  2  0  0  0  0
 12 11  1  0  0  0  0
 12 13  2  0  0  0  0
 13 14  1  0  0  0  0
 14 15  2  0  0  0  0
 14 16  1  0  0  0  0
 16 17  1  0  0  0  0
 16 20  1  0  0  0  0
 17 18  2  0  0  0  0
 18  1  1  0  0  0  0
 18 19  1  0  0  0  0
 20 25  1  0  0  0  0
 20 19  2  0  0  0  0
 22 11  1  0  0  0  0
 23 12  1  0  0  0  0
 24 17  1  0  0  0  0
 26 27  1  0  0  0  0
 26  6  1  0  0  0  0
 28 26  1  0  0  0  0
 29 30  2  0  0  0  0
 29  5  1  0  0  0  0
 31 29  1  0  0  0  0
 31 32  2  0  0  0  0
 32 39  1  0  0  0  0
 33 32  1  0  0  0  0
 34 35  2  0  0  0  0
 34 33  1  0  0  0  0
 35 31  1  0  0  0  0
 36 34  1  0  0  0  0
 37 36  1  0  0  0  0
 38 36  1  0  0  0  0
 39 46  1  0  0  0  0
 40 39  1  0  0  0  0
 40 41  2  0  0  0  0
 41 43  1  0  0  0  0
 42 41  1  0  0  0  0
 43 45  1  0  0  0  0
 43 44  2  0  0  0  0
 45 48  1  0  0  0  0
 46 47  2  0  0  0  0
 46 45  1  0  0  0  0
M  END
>  <minimizedAffinity>
-6.95732117

>  <minimizedRMSD>
1.86958146

$$$$
