
 OpenBabel03232513153D

 39 42  0  0  1  0  0  0  0  0999 V2000
   43.7400   35.2070   42.2060 C   0  0  2  0  0  0  0  0  0  0  0  0
   43.8340   34.5050   40.8340 C   0  0  0  0  0  0  0  0  0  0  0  0
   43.0340   35.7110   41.0260 C   0  0  1  0  0  0  0  0  0  0  0  0
   43.1100   34.7700   42.9910 H   0  0  0  0  0  0  0  0  0  0  0  0
   44.8290   34.5990   40.3020 H   0  0  0  0  0  0  0  0  0  0  0  0
   43.5460   33.4660   40.9350 H   0  0  0  0  0  0  0  0  0  0  0  0
   43.4600   36.6420   40.5470 H   0  0  0  0  0  0  0  0  0  0  0  0
   41.5390   35.6500   40.9340 C   0  0  2  0  0  0  0  0  0  0  0  0
   40.7410   35.0180   42.0200 C   0  0  0  0  0  0  0  0  0  0  0  0
   41.0040   34.2720   40.7410 C   0  0  1  0  0  0  0  0  0  0  0  0
   41.0210   36.4870   40.4330 H   0  0  0  0  0  0  0  0  0  0  0  0
   41.2190   34.6770   42.9540 H   0  0  0  0  0  0  0  0  0  0  0  0
   39.6980   35.3830   42.2220 H   0  0  0  0  0  0  0  0  0  0  0  0
   41.6970   33.3940   40.8980 H   0  0  0  0  0  0  0  0  0  0  0  0
   40.0290   33.9660   39.7760 N   0  0  0  0  0  0  0  0  0  0  0  0
   40.0700   34.6280   38.5380 C   0  0  0  0  0  0  0  0  0  0  0  0
   38.9150   34.2020   37.6730 C   0  0  0  0  0  0  0  0  0  0  0  0
   38.9170   32.8080   37.5820 O   0  0  0  0  0  0  0  0  0  0  0  0
   38.5560   32.3220   38.8320 C   0  0  0  0  0  0  0  0  0  0  0  0
   39.1330   32.9330   40.0160 C   0  0  0  0  0  0  0  0  0  0  0  0
   39.9010   35.7300   38.7300 H   0  0  0  0  0  0  0  0  0  0  0  0
   41.0430   34.5650   38.0030 H   0  0  0  0  0  0  0  0  0  0  0  0
   38.0060   34.6630   38.0690 H   0  0  0  0  0  0  0  0  0  0  0  0
   39.0190   34.6550   36.6320 H   0  0  0  0  0  0  0  0  0  0  0  0
   37.8690   31.5110   39.1860 H   0  0  0  0  0  0  0  0  0  0  0  0
   38.8760   32.6000   40.9870 H   0  0  0  0  0  0  0  0  0  0  0  0
   45.0310   35.7750   42.7000 C   0  0  0  0  0  0  0  0  0  0  0  0
   44.8240   36.2590   43.6870 H   0  0  0  0  0  0  0  0  0  0  0  0
   45.2810   36.6210   42.0180 H   0  0  0  0  0  0  0  0  0  0  0  0
   46.1810   33.8170   43.6940 C   0  0  0  0  0  0  0  0  0  0  0  0
   46.1470   34.8550   42.7590 C   0  0  0  0  0  0  0  0  0  0  0  0
   47.2260   34.9740   41.8850 C   0  0  0  0  0  0  0  0  0  0  0  0
   48.2720   34.0930   41.9560 N   0  0  0  0  0  0  0  0  0  0  0  0
   48.2400   33.0980   42.8980 C   0  0  0  0  0  0  0  0  0  0  0  0
   47.2060   32.9530   43.7640 N   0  0  0  0  0  0  0  0  0  0  0  0
   45.3650   33.6710   44.4070 H   0  0  0  0  0  0  0  0  0  0  0  0
   47.2760   35.7520   41.1290 H   0  0  0  0  0  0  0  0  0  0  0  0
   49.3060   32.2210   42.9520 O   0  0  0  0  0  0  0  0  0  0  0  0
   49.1910   31.3930   43.5180 H   0  0  0  0  0  0  0  0  0  0  0  0
  1 27  1  0  0  0  0
  1  4  1  1  0  0  0
  2  6  1  0  0  0  0
  2  3  1  0  0  0  0
  2  1  1  0  0  0  0
  3  7  1  6  0  0  0
  3  1  1  0  0  0  0
  5  2  1  0  0  0  0
  8 11  1  6  0  0  0
  8  3  1  0  0  0  0
  8  9  1  0  0  0  0
  9 13  1  0  0  0  0
  9 12  1  0  0  0  0
 10 14  1  1  0  0  0
 10  8  1  0  0  0  0
 10  9  1  0  0  0  0
 15 20  1  0  0  0  0
 15 10  1  0  0  0  0
 16 21  1  0  0  0  0
 16 15  1  0  0  0  0
 17 23  1  0  0  0  0
 17 16  1  0  0  0  0
 18 17  1  0  0  0  0
 18 19  1  0  0  0  0
 19 25  1  0  0  0  0
 19 20  2  0  0  0  0
 20 26  1  0  0  0  0
 22 16  1  0  0  0  0
 24 17  1  0  0  0  0
 27 31  1  0  0  0  0
 27 28  1  0  0  0  0
 29 27  1  0  0  0  0
 30 35  1  0  0  0  0
 30 36  1  0  0  0  0
 31 30  2  0  0  0  0
 32 33  2  0  0  0  0
 32 31  1  0  0  0  0
 33 34  1  0  0  0  0
 34 38  1  0  0  0  0
 34 35  2  0  0  0  0
 37 32  1  0  0  0  0
 38 39  1  0  0  0  0
M  END
>  <minimizedAffinity>
-4.74818802

>  <minimizedRMSD>
0.47934106

$$$$
