
 OpenBabel03232518093D

 25 26  0  0  0  0  0  0  0  0999 V2000
   47.2990   34.9780   42.4860 C   0  0  0  0  0  0  0  0  0  0  0  0
   47.6580   33.8080   43.1780 C   0  0  0  0  0  0  0  0  0  0  0  0
   46.7190   33.1970   43.9870 C   0  0  0  0  0  0  0  0  0  0  0  0
   45.4820   33.7670   44.0740 N   0  0  0  0  0  0  0  0  0  0  0  0
   45.1690   34.8930   43.3960 C   0  0  0  0  0  0  0  0  0  0  0  0
   46.0740   35.4910   42.6090 N   0  0  0  0  0  0  0  0  0  0  0  0
   48.6340   33.3210   43.1360 H   0  0  0  0  0  0  0  0  0  0  0  0
   44.1780   35.3210   43.4860 H   0  0  0  0  0  0  0  0  0  0  0  0
   48.4170   35.5080   41.6620 C   0  0  0  0  0  0  0  0  0  0  0  0
   48.3800   35.1780   40.6100 H   0  0  0  0  0  0  0  0  0  0  0  0
   48.3150   36.6090   41.6420 H   0  0  0  0  0  0  0  0  0  0  0  0
   49.7450   35.1930   42.3050 C   0  0  0  0  0  0  0  0  0  0  0  0
   49.5660   34.9580   43.3790 H   0  0  0  0  0  0  0  0  0  0  0  0
   50.1820   34.2680   41.8600 H   0  0  0  0  0  0  0  0  0  0  0  0
   50.4550   36.0290   42.2650 H   0  0  0  0  0  0  0  0  0  0  0  0
   47.0530   31.7360   44.8960 S   0  0  0  0  0  0  0  0  0  0  0  0
   46.1900   31.6770   46.4590 C   0  0  0  0  0  0  0  0  0  0  0  0
   45.6340   32.5450   47.3880 C   0  0  0  0  0  0  0  0  0  0  0  0
   45.1210   31.7410   48.3880 C   0  0  0  0  0  0  0  0  0  0  0  0
   45.3530   30.4490   48.0840 N   0  0  0  0  0  0  0  0  0  0  0  0
   45.9930   30.4150   46.9290 N   0  0  0  0  0  0  0  0  0  0  0  0
   45.7310   33.5860   47.1160 H   0  0  0  0  0  0  0  0  0  0  0  0
   44.6380   32.2620   49.2140 H   0  0  0  0  0  0  0  0  0  0  0  0
   44.9210   29.3770   48.9640 C   0  0  0  0  0  0  0  0  0  0  0  0
   44.6090   29.7530   49.9370 H   0  0  0  0  0  0  0  0  0  0  0  0
  1  6  2  0  0  0  0
  1  2  1  0  0  0  0
  2  3  2  0  0  0  0
  3  4  1  0  0  0  0
  3 16  1  0  0  0  0
  5  8  1  0  0  0  0
  5  4  2  0  0  0  0
  6  5  1  0  0  0  0
  7  2  1  0  0  0  0
  9 12  1  0  0  0  0
  9  1  1  0  0  0  0
 10  9  1  0  0  0  0
 11  9  1  0  0  0  0
 12 13  1  0  0  0  0
 14 12  1  0  0  0  0
 15 12  1  0  0  0  0
 16 17  1  0  0  0  0
 17 21  2  0  0  0  0
 17 18  1  0  0  0  0
 18 19  2  0  0  0  0
 19 23  1  0  0  0  0
 20 19  1  0  0  0  0
 20 24  1  0  0  0  0
 21 20  1  0  0  0  0
 22 18  1  0  0  0  0
 24 25  1  0  0  0  0
M  END
>  <minimizedAffinity>
-4.08387804

>  <minimizedRMSD>
0.428530008

$$$$
