
 OpenBabel03232520413D

 36 38  0  0  1  0  0  0  0  0999 V2000
   44.0330   35.4790   42.5860 C   0  0  0  0  0  0  0  0  0  0  0  0
   43.3630   34.9840   41.4690 C   0  0  0  0  0  0  0  0  0  0  0  0
   44.0800   34.2950   40.5350 C   0  0  0  0  0  0  0  0  0  0  0  0
   45.4270   34.1010   40.7020 N   0  0  0  0  0  0  0  0  0  0  0  0
   46.0400   34.6020   41.8070 C   0  0  0  0  0  0  0  0  0  0  0  0
   45.3590   35.2850   42.7450 N   0  0  0  0  0  0  0  0  0  0  0  0
   43.4810   36.0280   43.3360 H   0  0  0  0  0  0  0  0  0  0  0  0
   43.6530   33.8850   39.6570 H   0  0  0  0  0  0  0  0  0  0  0  0
   47.4750   34.4260   42.0400 C   0  0  0  0  0  0  0  0  0  0  0  0
   48.3180   35.5070   41.9380 C   0  0  0  0  0  0  0  0  0  0  0  0
   49.6860   35.4100   42.1440 C   0  0  0  0  0  0  0  0  0  0  0  0
   50.2330   34.1750   42.4690 C   0  0  0  0  0  0  0  0  0  0  0  0
   49.3490   33.1010   42.5640 C   0  0  0  0  0  0  0  0  0  0  0  0
   48.0320   33.2510   42.3530 N   0  0  0  0  0  0  0  0  0  0  0  0
   47.9100   36.4750   41.6870 H   0  0  0  0  0  0  0  0  0  0  0  0
   50.2960   36.2840   42.0520 H   0  0  0  0  0  0  0  0  0  0  0  0
   51.2890   34.0460   42.6390 H   0  0  0  0  0  0  0  0  0  0  0  0
   49.7570   32.1460   42.8120 H   0  0  0  0  0  0  0  0  0  0  0  0
   41.5970   35.2490   41.2680 S   0  0  0  0  0  0  0  0  0  0  0  0
   38.4290   32.8780   39.2020 N   0  0  0  0  0  0  0  0  0  0  0  0
   38.5500   33.2720   40.5700 C   0  0  0  0  0  0  0  0  0  0  0  0
   39.9690   33.1330   41.0920 C   0  0  0  0  0  0  0  0  0  0  0  0
   40.8580   33.9940   40.2320 C   0  0  1  0  0  0  0  0  0  0  0  0
   40.1580   34.6030   39.0500 C   0  0  0  0  0  0  0  0  0  0  0  0
   39.3380   33.5580   38.3110 C   0  0  2  0  0  0  0  0  0  0  0  0
   38.3530   31.8570   39.0290 H   0  0  0  0  0  0  0  0  0  0  0  0
   37.8380   32.6740   41.1490 H   0  0  0  0  0  0  0  0  0  0  0  0
   38.3180   34.3560   40.6310 H   0  0  0  0  0  0  0  0  0  0  0  0
   40.2040   32.0370   41.0140 H   0  0  0  0  0  0  0  0  0  0  0  0
   39.9720   33.4000   42.1590 H   0  0  0  0  0  0  0  0  0  0  0  0
   41.6270   33.3120   39.8160 H   0  0  0  0  0  0  0  0  0  0  0  0
   39.5600   35.4980   39.3110 H   0  0  0  0  0  0  0  0  0  0  0  0
   40.9430   34.9640   38.3530 H   0  0  0  0  0  0  0  0  0  0  0  0
   40.0400   32.8570   37.8160 H   0  0  0  0  0  0  0  0  0  0  0  0
   38.5930   34.2830   37.3520 O   0  0  0  0  0  0  0  0  0  0  0  0
   38.5970   33.7060   36.5420 H   0  0  0  0  0  0  0  0  0  0  0  0
  1  6  1  0  0  0  0
  1  7  1  0  0  0  0
  2  1  2  0  0  0  0
  3  4  2  0  0  0  0
  3  2  1  0  0  0  0
  4  5  1  0  0  0  0
  5  9  1  0  0  0  0
  5  6  2  0  0  0  0
  8  3  1  0  0  0  0
  9 14  1  0  0  0  0
 10  9  2  0  0  0  0
 10 11  1  0  0  0  0
 11 12  2  0  0  0  0
 12 13  1  0  0  0  0
 12 17  1  0  0  0  0
 13 18  1  0  0  0  0
 14 13  2  0  0  0  0
 15 10  1  0  0  0  0
 16 11  1  0  0  0  0
 19  2  1  0  0  0  0
 20 21  1  0  0  0  0
 21 28  1  0  0  0  0
 21 22  1  0  0  0  0
 21 27  1  0  0  0  0
 22 30  1  0  0  0  0
 23 31  1  6  0  0  0
 23 22  1  0  0  0  0
 23 19  1  0  0  0  0
 24 32  1  0  0  0  0
 24 23  1  0  0  0  0
 25 34  1  6  0  0  0
 25 24  1  0  0  0  0
 25 20  1  0  0  0  0
 26 20  1  0  0  0  0
 29 22  1  0  0  0  0
 33 24  1  0  0  0  0
 35 25  1  0  0  0  0
 36 35  1  0  0  0  0
M  END
>  <minimizedAffinity>
-5.62121248

>  <minimizedRMSD>
0.582466781

$$$$
