
 OpenBabel03232514253D

 28 30  0  0  0  0  0  0  0  0999 V2000
   44.5070   35.7400   44.6470 C   0  0  0  0  0  0  0  0  0  0  0  0
   45.1670   35.0580   43.6200 C   0  0  0  0  0  0  0  0  0  0  0  0
   45.8370   33.8760   43.9610 C   0  0  0  0  0  0  0  0  0  0  0  0
   45.8000   33.4730   45.2660 N   0  0  0  0  0  0  0  0  0  0  0  0
   45.1590   34.1500   46.2220 C   0  0  0  0  0  0  0  0  0  0  0  0
   44.5160   35.2750   45.9220 N   0  0  0  0  0  0  0  0  0  0  0  0
   43.9910   36.6560   44.3630 H   0  0  0  0  0  0  0  0  0  0  0  0
   45.1360   33.8220   47.2520 H   0  0  0  0  0  0  0  0  0  0  0  0
   45.1720   35.5430   42.2260 C   0  0  0  0  0  0  0  0  0  0  0  0
   46.0720   35.2510   41.6850 H   0  0  0  0  0  0  0  0  0  0  0  0
   45.2100   36.6620   42.2840 H   0  0  0  0  0  0  0  0  0  0  0  0
   43.9170   35.0880   41.5020 C   0  0  0  0  0  0  0  0  0  0  0  0
   43.9890   34.2410   40.4260 C   0  0  0  0  0  0  0  0  0  0  0  0
   42.2490   34.0160   39.9430 S   0  0  0  0  0  0  0  0  0  0  0  0
   41.6980   35.1770   41.3700 C   0  0  0  0  0  0  0  0  0  0  0  0
   42.7050   35.4480   41.8280 N   0  0  0  0  0  0  0  0  0  0  0  0
   44.8890   33.8140   39.9800 H   0  0  0  0  0  0  0  0  0  0  0  0
   40.6660   35.5050   41.6740 H   0  0  0  0  0  0  0  0  0  0  0  0
   46.7040   32.9320   42.7590 S   0  0  0  0  0  0  0  0  0  0  0  0
   48.3270   33.1930   42.5570 C   0  0  0  0  0  0  0  0  0  0  0  0
   49.3800   34.0820   42.7370 C   0  0  0  0  0  0  0  0  0  0  0  0
   50.6590   33.8560   42.3870 C   0  0  0  0  0  0  0  0  0  0  0  0
   50.9480   32.6030   41.7860 C   0  0  0  0  0  0  0  0  0  0  0  0
   49.2550   31.7850   41.7630 S   0  0  0  0  0  0  0  0  0  0  0  0
   48.9420   34.9530   43.2020 H   0  0  0  0  0  0  0  0  0  0  0  0
   51.4010   34.6100   42.5700 H   0  0  0  0  0  0  0  0  0  0  0  0
   52.0780   32.0660   41.3300 O   0  0  0  0  0  0  0  0  0  0  0  0
   52.1780   31.0580   41.2150 H   0  0  0  0  0  0  0  0  0  0  0  0
  1  6  1  0  0  0  0
  2  3  1  0  0  0  0
  2  1  2  0  0  0  0
  3  4  2  0  0  0  0
  4  5  1  0  0  0  0
  5  8  1  0  0  0  0
  6  5  2  0  0  0  0
  7  1  1  0  0  0  0
  9 11  1  0  0  0  0
  9  2  1  0  0  0  0
 10  9  1  0  0  0  0
 12 16  1  0  0  0  0
 12  9  1  0  0  0  0
 13 12  2  0  0  0  0
 14 13  1  0  0  0  0
 14 15  1  0  0  0  0
 15 18  1  0  0  0  0
 15 16  2  0  0  0  0
 17 13  1  0  0  0  0
 19  3  1  0  0  0  0
 20 21  2  0  0  0  0
 20 19  1  0  0  0  0
 21 25  1  0  0  0  0
 22 26  1  0  0  0  0
 22 21  1  0  0  0  0
 23 22  2  0  0  0  0
 24 23  1  0  0  0  0
 24 20  1  0  0  0  0
 27 23  1  0  0  0  0
 28 27  1  0  0  0  0
M  END
>  <minimizedAffinity>
-5.14294195

>  <minimizedRMSD>
0.691401005

$$$$
