
 OpenBabel03232519143D

 31 32  0  0  1  0  0  0  0  0999 V2000
   44.4930   35.7110   43.5050 C   0  0  1  0  0  0  0  0  0  0  0  0
   43.6520   35.6490   44.2560 H   0  0  0  0  0  0  0  0  0  0  0  0
   45.5130   34.7360   43.9040 C   0  0  0  0  0  0  0  0  0  0  0  0
   46.5860   34.5010   42.9940 C   0  0  0  0  0  0  0  0  0  0  0  0
   47.5780   33.5670   43.3380 C   0  0  0  0  0  0  0  0  0  0  0  0
   47.4450   32.9410   44.5340 N   0  0  0  0  0  0  0  0  0  0  0  0
   46.4480   33.1740   45.3580 C   0  0  0  0  0  0  0  0  0  0  0  0
   45.4610   34.0730   45.0660 N   0  0  0  0  0  0  0  0  0  0  0  0
   46.7110   34.9890   42.0380 H   0  0  0  0  0  0  0  0  0  0  0  0
   48.3940   33.3670   42.6780 H   0  0  0  0  0  0  0  0  0  0  0  0
   46.3160   32.5010   46.6570 C   0  0  0  0  0  0  0  0  0  0  0  0
   47.3090   31.5820   47.0220 C   0  0  0  0  0  0  0  0  0  0  0  0
   46.7010   31.0400   48.7000 S   0  0  0  0  0  0  0  0  0  0  0  0
   45.2020   32.1800   48.5730 C   0  0  0  0  0  0  0  0  0  0  0  0
   45.3870   32.6330   47.5670 N   0  0  0  0  0  0  0  0  0  0  0  0
   48.2340   31.1740   46.5920 H   0  0  0  0  0  0  0  0  0  0  0  0
   44.2700   32.4550   49.2390 H   0  0  0  0  0  0  0  0  0  0  0  0
   45.0760   37.1200   43.5220 C   0  0  0  0  0  0  0  0  0  0  0  0
   44.6480   37.7070   42.6830 H   0  0  0  0  0  0  0  0  0  0  0  0
   46.1940   37.0800   43.4770 H   0  0  0  0  0  0  0  0  0  0  0  0
   44.7830   37.5870   44.4860 H   0  0  0  0  0  0  0  0  0  0  0  0
   43.9090   35.4260   42.1620 C   0  0  0  0  0  0  0  0  0  0  0  0
   43.3960   36.3090   41.7590 H   0  0  0  0  0  0  0  0  0  0  0  0
   44.7970   35.2580   41.4740 H   0  0  0  0  0  0  0  0  0  0  0  0
   43.1410   34.2370   42.1200 N   0  0  0  0  0  0  0  0  0  0  0  0
   42.1260   34.4100   42.4160 H   0  0  0  0  0  0  0  0  0  0  0  0
   43.2650   32.8760   41.8180 C   0  0  0  0  0  0  0  0  0  0  0  0
   43.3280   31.7950   42.7160 N   0  0  0  0  0  0  0  0  0  0  0  0
   43.3270   32.5780   40.6210 O   0  0  0  0  0  0  0  0  0  0  0  0
   42.7140   31.6230   43.5670 H   0  0  0  0  0  0  0  0  0  0  0  0
   44.0390   31.0410   42.5850 H   0  0  0  0  0  0  0  0  0  0  0  0
  1 18  1  0  0  0  0
  1  3  1  0  0  0  0
  1  2  1  1  0  0  0
  3  8  1  0  0  0  0
  4  5  1  0  0  0  0
  4  3  2  0  0  0  0
  5  6  2  0  0  0  0
  6  7  1  0  0  0  0
  7 11  1  0  0  0  0
  8  7  2  0  0  0  0
  9  4  1  0  0  0  0
 10  5  1  0  0  0  0
 11 12  2  0  0  0  0
 11 15  1  0  0  0  0
 12 13  1  0  0  0  0
 14 13  1  0  0  0  0
 14 17  1  0  0  0  0
 15 14  2  0  0  0  0
 16 12  1  0  0  0  0
 18 21  1  0  0  0  0
 19 18  1  0  0  0  0
 20 18  1  0  0  0  0
 22  1  1  0  0  0  0
 23 22  1  0  0  0  0
 24 22  1  0  0  0  0
 25 22  1  0  0  0  0
 25 26  1  0  0  0  0
 27 25  1  0  0  0  0
 27 28  1  0  0  0  0
 28 30  1  0  0  0  0
 29 27  2  0  0  0  0
 31 28  1  0  0  0  0
M  END
>  <minimizedAffinity>
-4.81546831

>  <minimizedRMSD>
0.462428153

$$$$
