
 OpenBabel03232509093D

 44 46  0  0  1  0  0  0  0  0999 V2000
   43.6910   34.2100   41.1360 C   0  0  1  0  0  0  0  0  0  0  0  0
   42.4880   34.8790   40.6110 C   0  0  0  0  0  0  0  0  0  0  0  0
   42.4030   34.9220   39.2270 C   0  0  0  0  0  0  0  0  0  0  0  0
   41.2920   35.5410   38.6300 C   0  0  0  0  0  0  0  0  0  0  0  0
   40.3520   36.0690   39.4360 N   0  0  0  0  0  0  0  0  0  0  0  0
   40.4490   36.0200   40.7680 C   0  0  0  0  0  0  0  0  0  0  0  0
   41.4970   35.4350   41.3060 N   0  0  0  0  0  0  0  0  0  0  0  0
   43.1530   34.5000   38.5740 H   0  0  0  0  0  0  0  0  0  0  0  0
   41.2040   35.5860   37.5650 H   0  0  0  0  0  0  0  0  0  0  0  0
   39.6470   36.4690   41.3530 H   0  0  0  0  0  0  0  0  0  0  0  0
   44.5630   33.7930   39.9540 C   0  0  0  0  0  0  0  0  0  0  0  0
   45.5850   33.6790   40.3570 H   0  0  0  0  0  0  0  0  0  0  0  0
   44.5210   34.5390   39.1350 H   0  0  0  0  0  0  0  0  0  0  0  0
   44.1710   32.8060   39.6320 H   0  0  0  0  0  0  0  0  0  0  0  0
   44.4710   35.2380   41.9000 C   0  0  0  0  0  0  0  0  0  0  0  0
   45.5560   35.1390   41.6200 H   0  0  0  0  0  0  0  0  0  0  0  0
   44.1300   36.2600   41.5990 H   0  0  0  0  0  0  0  0  0  0  0  0
   44.2840   35.0880   43.3810 C   0  0  2  0  0  0  0  0  0  0  0  0
   44.6930   36.1420   44.3060 C   0  0  0  0  0  0  0  0  0  0  0  0
   45.5200   34.8890   44.1750 C   0  0  1  0  0  0  0  0  0  0  0  0
   43.3930   34.5340   43.7370 H   0  0  0  0  0  0  0  0  0  0  0  0
   45.1010   37.0660   43.8340 H   0  0  0  0  0  0  0  0  0  0  0  0
   44.1460   36.3700   45.2390 H   0  0  0  0  0  0  0  0  0  0  0  0
   46.5120   35.0240   43.6850 H   0  0  0  0  0  0  0  0  0  0  0  0
   45.5790   34.1260   45.3870 N   0  0  0  0  0  0  0  0  0  0  0  0
   44.8200   34.2480   46.4790 N   0  0  0  0  0  0  0  0  0  0  0  0
   45.1890   33.3460   47.4010 C   0  0  0  0  0  0  0  0  0  0  0  0
   46.2090   32.6590   46.8380 C   0  0  0  0  0  0  0  0  0  0  0  0
   46.4590   33.1550   45.5510 C   0  0  0  0  0  0  0  0  0  0  0  0
   44.7420   33.2190   48.3870 H   0  0  0  0  0  0  0  0  0  0  0  0
   46.7140   31.8470   47.3700 H   0  0  0  0  0  0  0  0  0  0  0  0
   47.4840   32.6020   44.7830 N   0  0  0  0  0  0  0  0  0  0  0  0
   47.8890   33.3720   44.2160 H   0  0  0  0  0  0  0  0  0  0  0  0
   47.7020   31.5700   44.8920 H   0  0  0  0  0  0  0  0  0  0  0  0
   43.4270   33.0100   41.9290 C   0  0  0  0  0  0  0  0  0  0  0  0
   43.9950   33.1460   42.8590 H   0  0  0  0  0  0  0  0  0  0  0  0
   44.0590   32.1900   41.4290 H   0  0  0  0  0  0  0  0  0  0  0  0
   42.1880   32.4160   42.0510 N   0  0  0  0  0  0  0  0  0  0  0  0
   41.1380   32.6100   42.0200 H   0  0  0  0  0  0  0  0  0  0  0  0
   42.1820   31.0170   42.3030 C   0  0  0  0  0  0  0  0  0  0  0  0
   41.6670   30.2450   43.3720 N   0  0  0  0  0  0  0  0  0  0  0  0
   42.6670   30.0790   41.5790 O   0  0  0  0  0  0  0  0  0  0  0  0
   40.8790   29.5570   43.3640 H   0  0  0  0  0  0  0  0  0  0  0  0
   42.1760   30.4140   44.2900 H   0  0  0  0  0  0  0  0  0  0  0  0
  1 11  1  6  0  0  0
  1 15  1  0  0  0  0
  1 35  1  0  0  0  0
  2  1  1  0  0  0  0
  2  7  1  0  0  0  0
  3  2  2  0  0  0  0
  4  3  1  0  0  0  0
  4  5  2  0  0  0  0
  5  6  1  0  0  0  0
  6  7  2  0  0  0  0
  6 10  1  0  0  0  0
  8  3  1  0  0  0  0
  9  4  1  0  0  0  0
 11 12  1  0  0  0  0
 13 11  1  0  0  0  0
 14 11  1  0  0  0  0
 15 18  1  0  0  0  0
 16 15  1  0  0  0  0
 17 15  1  0  0  0  0
 18 21  1  1  0  0  0
 18 20  1  0  0  0  0
 18 19  1  0  0  0  0
 19 23  1  0  0  0  0
 20 24  1  6  0  0  0
 20 19  1  0  0  0  0
 20 25  1  0  0  0  0
 22 19  1  0  0  0  0
 25 29  1  0  0  0  0
 25 26  1  0  0  0  0
 26 27  2  0  0  0  0
 27 30  1  0  0  0  0
 28 31  1  0  0  0  0
 28 27  1  0  0  0  0
 29 28  2  0  0  0  0
 32 34  1  0  0  0  0
 32 29  1  0  0  0  0
 33 32  1  0  0  0  0
 35 38  1  0  0  0  0
 35 36  1  0  0  0  0
 37 35  1  0  0  0  0
 38 40  1  0  0  0  0
 39 38  1  0  0  0  0
 40 41  1  0  0  0  0
 41 44  1  0  0  0  0
 42 40  2  0  0  0  0
 43 41  1  0  0  0  0
M  END
>  <minimizedAffinity>
-5.21824217

>  <minimizedRMSD>
2.2790575

$$$$
