
 OpenBabel03232515583D

 33 34  0  0  0  0  0  0  0  0999 V2000
   47.1450   34.4570   42.0450 C   0  0  0  0  0  0  0  0  0  0  0  0
   44.6040   35.9990   44.4000 C   0  0  0  0  0  0  0  0  0  0  0  0
   45.3930   35.8250   43.2450 C   0  0  0  0  0  0  0  0  0  0  0  0
   46.2770   34.7390   43.1930 C   0  0  0  0  0  0  0  0  0  0  0  0
   46.3290   33.9010   44.2730 N   0  0  0  0  0  0  0  0  0  0  0  0
   45.5450   34.1210   45.3560 C   0  0  0  0  0  0  0  0  0  0  0  0
   44.7010   35.1450   45.4230 N   0  0  0  0  0  0  0  0  0  0  0  0
   43.9340   36.8520   44.3980 H   0  0  0  0  0  0  0  0  0  0  0  0
   45.3440   36.4920   42.3960 H   0  0  0  0  0  0  0  0  0  0  0  0
   45.6090   33.4500   46.1800 H   0  0  0  0  0  0  0  0  0  0  0  0
   46.2280   34.2320   40.8340 C   0  0  0  0  0  0  0  0  0  0  0  0
   45.7890   35.1550   40.4590 H   0  0  0  0  0  0  0  0  0  0  0  0
   45.5000   33.4280   41.0800 H   0  0  0  0  0  0  0  0  0  0  0  0
   46.8920   33.8310   40.0350 H   0  0  0  0  0  0  0  0  0  0  0  0
   48.1770   35.4530   41.7460 C   0  0  0  0  0  0  0  0  0  0  0  0
   49.0780   35.2420   42.3620 H   0  0  0  0  0  0  0  0  0  0  0  0
   47.8280   36.4930   41.9830 H   0  0  0  0  0  0  0  0  0  0  0  0
   48.3920   35.4550   40.6510 H   0  0  0  0  0  0  0  0  0  0  0  0
   47.8360   33.1240   42.2840 C   0  0  0  0  0  0  0  0  0  0  0  0
   47.1390   32.4360   42.8070 H   0  0  0  0  0  0  0  0  0  0  0  0
   48.6910   33.2810   42.9600 H   0  0  0  0  0  0  0  0  0  0  0  0
   48.2080   32.5030   41.0870 O   0  0  0  0  0  0  0  0  0  0  0  0
   49.5450   32.1970   40.8820 C   0  0  0  0  0  0  0  0  0  0  0  0
   50.5250   32.6670   41.7090 N   0  0  0  0  0  0  0  0  0  0  0  0
   51.6740   32.2390   41.3000 O   0  0  0  0  0  0  0  0  0  0  0  0
   51.5290   31.4960   40.2310 C   0  0  0  0  0  0  0  0  0  0  0  0
   50.2160   31.4660   39.9660 N   0  0  0  0  0  0  0  0  0  0  0  0
   52.5460   30.8630   39.5120 O   0  0  0  0  0  0  0  0  0  0  0  0
   53.1510   31.4660   38.4240 C   0  0  0  0  0  0  0  0  0  0  0  0
   52.2300   32.3400   37.7560 N   0  0  0  0  0  0  0  0  0  0  0  0
   54.2940   31.4440   37.8770 O   0  0  0  0  0  0  0  0  0  0  0  0
   51.2110   32.2270   37.5460 H   0  0  0  0  0  0  0  0  0  0  0  0
   51.5640   32.9730   37.2720 H   0  0  0  0  0  0  0  0  0  0  0  0
  1 19  1  0  0  0  0
  1  4  1  0  0  0  0
  2  7  1  0  0  0  0
  3  2  2  0  0  0  0
  4  3  1  0  0  0  0
  4  5  2  0  0  0  0
  5  6  1  0  0  0  0
  6  7  2  0  0  0  0
  6 10  1  0  0  0  0
  8  2  1  0  0  0  0
  9  3  1  0  0  0  0
 11 13  1  0  0  0  0
 11  1  1  0  0  0  0
 12 11  1  0  0  0  0
 14 11  1  0  0  0  0
 15 17  1  0  0  0  0
 15  1  1  0  0  0  0
 15 16  1  0  0  0  0
 18 15  1  0  0  0  0
 19 20  1  0  0  0  0
 19 21  1  0  0  0  0
 22 19  1  0  0  0  0
 23 22  1  0  0  0  0
 23 24  2  0  0  0  0
 25 24  1  0  0  0  0
 26 25  1  0  0  0  0
 27 26  2  0  0  0  0
 27 23  1  0  0  0  0
 28 26  1  0  0  0  0
 29 28  1  0  0  0  0
 30 29  1  0  0  0  0
 31 29  2  0  0  0  0
 32 30  1  0  0  0  0
 33 30  1  0  0  0  0
M  END
>  <minimizedAffinity>
-5.11456347

>  <minimizedRMSD>
0.405569047

$$$$
