
 OpenBabel03232521013D

 38 41  0  0  1  0  0  0  0  0999 V2000
   45.5720   32.8890   47.4250 C   0  0  0  0  0  0  0  0  0  0  0  0
   45.9750   32.6120   46.1610 C   0  0  0  0  0  0  0  0  0  0  0  0
   46.0960   31.2500   45.8700 C   0  0  0  0  0  0  0  0  0  0  0  0
   45.8350   30.2630   46.7630 N   0  0  0  0  0  0  0  0  0  0  0  0
   45.4260   30.6040   48.0430 C   0  0  0  0  0  0  0  0  0  0  0  0
   45.3060   31.8840   48.3390 N   0  0  0  0  0  0  0  0  0  0  0  0
   45.1780   29.5880   49.0080 N   0  0  0  0  0  0  0  0  0  0  0  0
   45.4510   33.9080   47.7550 H   0  0  0  0  0  0  0  0  0  0  0  0
   46.0480   29.6410   49.5850 H   0  0  0  0  0  0  0  0  0  0  0  0
   44.3080   28.9820   49.0550 H   0  0  0  0  0  0  0  0  0  0  0  0
   46.2020   33.5610   45.1230 C   0  0  2  0  0  0  0  0  0  0  0  0
   44.9970   34.6530   45.3740 C   0  0  0  0  0  0  0  0  0  0  0  0
   44.7510   35.5810   44.3050 C   0  0  0  0  0  0  0  0  0  0  0  0
   45.5280   35.5070   43.0670 C   0  0  1  0  0  0  0  0  0  0  0  0
   46.5840   34.5060   43.0030 C   0  0  0  0  0  0  0  0  0  0  0  0
   46.1500   33.2730   43.7610 C   0  0  0  0  0  0  0  0  0  0  0  0
   46.9890   34.3040   45.4370 H   0  0  0  0  0  0  0  0  0  0  0  0
   44.3340   34.8040   46.2160 H   0  0  0  0  0  0  0  0  0  0  0  0
   43.9890   36.3010   44.4220 H   0  0  0  0  0  0  0  0  0  0  0  0
   45.9480   36.5160   42.8550 H   0  0  0  0  0  0  0  0  0  0  0  0
   46.8160   34.2950   41.9240 H   0  0  0  0  0  0  0  0  0  0  0  0
   47.5230   34.8690   43.4710 H   0  0  0  0  0  0  0  0  0  0  0  0
   45.2080   32.9040   43.3050 H   0  0  0  0  0  0  0  0  0  0  0  0
   47.0000   32.6260   43.4190 H   0  0  0  0  0  0  0  0  0  0  0  0
   44.4910   35.2370   41.9350 C   0  0  0  0  0  0  0  0  0  0  0  0
   43.4580   34.4110   42.3420 F   0  0  0  0  0  0  0  0  0  0  0  0
   43.9140   36.4690   41.6340 F   0  0  0  0  0  0  0  0  0  0  0  0
   45.1460   34.8090   40.7970 F   0  0  0  0  0  0  0  0  0  0  0  0
   46.5560   30.5280   44.6930 C   0  0  0  0  0  0  0  0  0  0  0  0
   46.0310   29.8700   43.6290 C   0  0  0  0  0  0  0  0  0  0  0  0
   47.0950   29.3550   42.8740 C   0  0  0  0  0  0  0  0  0  0  0  0
   48.2040   29.7250   43.5160 N   0  0  0  0  0  0  0  0  0  0  0  0
   47.9120   30.4170   44.5900 N   0  0  0  0  0  0  0  0  0  0  0  0
   44.9600   29.8470   43.5360 H   0  0  0  0  0  0  0  0  0  0  0  0
   46.9150   28.7920   41.9790 H   0  0  0  0  0  0  0  0  0  0  0  0
   49.5580   29.3820   43.0480 C   0  0  0  0  0  3  0  0  0  0  0  0
   50.5080   30.5730   43.0480 C   0  0  0  0  0  2  0  0  0  0  0  0
   50.6760   29.5320   44.0990 C   0  0  0  0  0  2  0  0  0  0  0  0
  1  8  1  0  0  0  0
  1  6  1  0  0  0  0
  2  1  2  0  0  0  0
  3  2  1  0  0  0  0
  3  4  2  0  0  0  0
  4  5  1  0  0  0  0
  5  6  2  0  0  0  0
  5  7  1  0  0  0  0
  7 10  1  0  0  0  0
  7  9  1  0  0  0  0
 11 12  1  0  0  0  0
 11 17  1  1  0  0  0
 11  2  1  0  0  0  0
 12 18  1  0  0  0  0
 13 19  1  0  0  0  0
 13 12  2  0  0  0  0
 14 20  1  6  0  0  0
 14 13  1  0  0  0  0
 15 14  1  0  0  0  0
 15 22  1  0  0  0  0
 15 16  1  0  0  0  0
 16 11  1  0  0  0  0
 21 15  1  0  0  0  0
 23 16  1  0  0  0  0
 24 16  1  0  0  0  0
 25 26  1  0  0  0  0
 25 14  1  0  0  0  0
 27 25  1  0  0  0  0
 28 25  1  0  0  0  0
 29  3  1  0  0  0  0
 30 29  1  0  0  0  0
 31 32  1  0  0  0  0
 31 30  2  0  0  0  0
 32 33  1  0  0  0  0
 33 29  2  0  0  0  0
 34 30  1  0  0  0  0
 35 31  1  0  0  0  0
 36 37  1  0  0  0  0
 36 32  1  0  0  0  0
 36 38  1  0  0  0  0
 37 38  1  0  0  0  0
M  END
>  <minimizedAffinity>
-5.52339935

>  <minimizedRMSD>
0.372153968

$$$$
