
 OpenBabel03232521013D

 38 41  0  0  1  0  0  0  0  0999 V2000
   45.3760   32.8800   47.5560 C   0  0  0  0  0  0  0  0  0  0  0  0
   45.9290   32.6120   46.3490 C   0  0  0  0  0  0  0  0  0  0  0  0
   46.1910   31.2590   46.1120 C   0  0  0  0  0  0  0  0  0  0  0  0
   45.9200   30.2720   47.0020 N   0  0  0  0  0  0  0  0  0  0  0  0
   45.3540   30.6050   48.2240 C   0  0  0  0  0  0  0  0  0  0  0  0
   45.0990   31.8760   48.4680 N   0  0  0  0  0  0  0  0  0  0  0  0
   45.0910   29.5920   49.1880 N   0  0  0  0  0  0  0  0  0  0  0  0
   45.1390   33.8920   47.8420 H   0  0  0  0  0  0  0  0  0  0  0  0
   45.8890   29.7300   49.8480 H   0  0  0  0  0  0  0  0  0  0  0  0
   44.2730   28.9150   49.1630 H   0  0  0  0  0  0  0  0  0  0  0  0
   46.1850   33.5540   45.3110 C   0  0  2  0  0  0  0  0  0  0  0  0
   44.9720   34.6470   45.5220 C   0  0  0  0  0  0  0  0  0  0  0  0
   44.7560   35.5680   44.4410 C   0  0  0  0  0  0  0  0  0  0  0  0
   45.5670   35.4880   43.2250 C   0  0  1  0  0  0  0  0  0  0  0  0
   46.6260   34.4870   43.1970 C   0  0  0  0  0  0  0  0  0  0  0  0
   46.1720   33.2580   43.9500 C   0  0  0  0  0  0  0  0  0  0  0  0
   46.9620   34.3000   45.6430 H   0  0  0  0  0  0  0  0  0  0  0  0
   44.2860   34.8030   46.3430 H   0  0  0  0  0  0  0  0  0  0  0  0
   43.9900   36.2880   44.5320 H   0  0  0  0  0  0  0  0  0  0  0  0
   45.9930   36.4950   43.0200 H   0  0  0  0  0  0  0  0  0  0  0  0
   46.8890   34.2700   42.1270 H   0  0  0  0  0  0  0  0  0  0  0  0
   47.5510   34.8540   43.6890 H   0  0  0  0  0  0  0  0  0  0  0  0
   45.2430   32.8860   43.4710 H   0  0  0  0  0  0  0  0  0  0  0  0
   47.0310   32.6100   43.6360 H   0  0  0  0  0  0  0  0  0  0  0  0
   44.5630   35.2090   42.0670 C   0  0  0  0  0  0  0  0  0  0  0  0
   43.5320   34.3670   42.4430 F   0  0  0  0  0  0  0  0  0  0  0  0
   43.9770   36.4350   41.7580 F   0  0  0  0  0  0  0  0  0  0  0  0
   45.2520   34.7970   40.9430 F   0  0  0  0  0  0  0  0  0  0  0  0
   46.8270   30.5540   45.0090 C   0  0  0  0  0  0  0  0  0  0  0  0
   46.4770   29.9420   43.8500 C   0  0  0  0  0  0  0  0  0  0  0  0
   47.6420   29.4120   43.2740 C   0  0  0  0  0  0  0  0  0  0  0  0
   48.6320   29.7270   44.1100 N   0  0  0  0  0  0  0  0  0  0  0  0
   48.1770   30.4000   45.1380 N   0  0  0  0  0  0  0  0  0  0  0  0
   45.4390   29.9580   43.5720 H   0  0  0  0  0  0  0  0  0  0  0  0
   47.6040   28.8800   42.3440 H   0  0  0  0  0  0  0  0  0  0  0  0
   50.0360   29.3520   43.8720 C   0  0  0  0  0  3  0  0  0  0  0  0
   50.8080   29.0900   45.1580 C   0  0  0  0  0  2  0  0  0  0  0  0
   50.4200   27.9250   44.3150 C   0  0  0  0  0  2  0  0  0  0  0  0
  1  8  1  0  0  0  0
  1  6  1  0  0  0  0
  2  1  2  0  0  0  0
  3  2  1  0  0  0  0
  3  4  2  0  0  0  0
  4  5  1  0  0  0  0
  5  6  2  0  0  0  0
  5  7  1  0  0  0  0
  7  9  1  0  0  0  0
 10  7  1  0  0  0  0
 11 12  1  0  0  0  0
 11 17  1  1  0  0  0
 11  2  1  0  0  0  0
 12 18  1  0  0  0  0
 13 19  1  0  0  0  0
 13 12  2  0  0  0  0
 14 20  1  6  0  0  0
 14 13  1  0  0  0  0
 15 14  1  0  0  0  0
 15 22  1  0  0  0  0
 15 16  1  0  0  0  0
 16 11  1  0  0  0  0
 21 15  1  0  0  0  0
 23 16  1  0  0  0  0
 24 16  1  0  0  0  0
 25 26  1  0  0  0  0
 25 14  1  0  0  0  0
 27 25  1  0  0  0  0
 28 25  1  0  0  0  0
 29 33  2  0  0  0  0
 29  3  1  0  0  0  0
 30 29  1  0  0  0  0
 31 30  2  0  0  0  0
 31 32  1  0  0  0  0
 32 33  1  0  0  0  0
 34 30  1  0  0  0  0
 35 31  1  0  0  0  0
 36 32  1  0  0  0  0
 36 38  1  0  0  0  0
 36 37  1  0  0  0  0
 38 37  1  0  0  0  0
M  END
>  <minimizedAffinity>
-5.56027651

>  <minimizedRMSD>
0.415735275

$$$$
