
 OpenBabel03232518123D

 43 47  0  0  0  0  0  0  0  0999 V2000
   45.9770   32.2440   46.6130 C   0  0  0  0  0  0  0  0  0  0  0  0
   45.3750   32.3090   47.8750 C   0  0  0  0  0  0  0  0  0  0  0  0
   44.8910   31.0420   48.1200 C   0  0  0  0  0  0  0  0  0  0  0  0
   45.1810   30.2620   47.0740 N   0  0  0  0  0  0  0  0  0  0  0  0
   45.8350   30.9690   46.1560 N   0  0  0  0  0  0  0  0  0  0  0  0
   45.4040   33.2640   48.3720 H   0  0  0  0  0  0  0  0  0  0  0  0
   44.3730   30.8650   49.0700 H   0  0  0  0  0  0  0  0  0  0  0  0
   44.8140   28.8790   47.0180 C   0  0  0  0  0  0  0  0  0  0  0  0
   43.9600   28.2940   45.9600 C   0  0  0  0  0  0  0  0  0  0  0  0
   43.9130   26.5160   46.5130 S   0  0  0  0  0  0  0  0  0  0  0  0
   45.0230   26.9060   48.0210 C   0  0  0  0  0  0  0  0  0  0  0  0
   45.2270   28.0110   47.9340 N   0  0  0  0  0  0  0  0  0  0  0  0
   43.5920   28.9050   45.2000 H   0  0  0  0  0  0  0  0  0  0  0  0
   45.3500   25.8220   48.8860 N   0  0  0  0  0  0  0  0  0  0  0  0
   46.3610   24.9320   48.8410 C   0  0  0  0  0  0  0  0  0  0  0  0
   46.2360   24.0850   49.9030 N   0  0  0  0  0  0  0  0  0  0  0  0
   45.1350   24.4520   50.6160 C   0  0  0  0  0  0  0  0  0  0  0  0
   44.5820   23.9170   51.7660 C   0  0  0  0  0  0  0  0  0  0  0  0
   45.0840   22.9200   52.3550 O   0  0  0  0  0  0  0  0  0  0  0  0
   43.4730   24.5310   52.2140 N   0  0  0  0  0  0  0  0  0  0  0  0
   42.8990   25.5970   51.6200 C   0  0  0  0  0  0  0  0  0  0  0  0
   41.7240   26.2220   52.1210 N   0  0  0  0  0  0  0  0  0  0  0  0
   43.4750   26.0790   50.5030 N   0  0  0  0  0  0  0  0  0  0  0  0
   44.5860   25.5370   49.9750 C   0  0  0  0  0  0  0  0  0  0  0  0
   42.9860   24.1980   53.0740 H   0  0  0  0  0  0  0  0  0  0  0  0
   40.9230   26.2360   51.4270 H   0  0  0  0  0  0  0  0  0  0  0  0
   41.8070   26.5820   53.0990 H   0  0  0  0  0  0  0  0  0  0  0  0
   46.8380   33.3580   45.5310 S   0  0  0  0  0  0  0  0  0  0  0  0
   44.9210   34.5940   42.2130 C   0  0  0  0  0  0  0  0  0  0  0  0
   45.7940   33.8750   43.0440 C   0  0  0  0  0  0  0  0  0  0  0  0
   45.7930   34.1830   44.3940 C   0  0  0  0  0  0  0  0  0  0  0  0
   44.9590   35.1530   44.8390 N   0  0  0  0  0  0  0  0  0  0  0  0
   44.1350   35.8200   43.9990 C   0  0  0  0  0  0  0  0  0  0  0  0
   44.1260   35.5370   42.7100 N   0  0  0  0  0  0  0  0  0  0  0  0
   46.4590   33.1060   42.7080 H   0  0  0  0  0  0  0  0  0  0  0  0
   43.4550   36.6000   44.3090 H   0  0  0  0  0  0  0  0  0  0  0  0
   45.0100   34.1770   40.7840 C   0  0  0  0  0  0  0  0  0  0  0  0
   44.6250   35.0340   40.1950 H   0  0  0  0  0  0  0  0  0  0  0  0
   44.4150   33.2560   40.6270 H   0  0  0  0  0  0  0  0  0  0  0  0
   46.4580   33.9720   40.3890 C   0  0  0  0  0  0  0  0  0  0  0  0
   47.1760   34.4940   41.0420 H   0  0  0  0  0  0  0  0  0  0  0  0
   46.6680   32.8720   40.3930 H   0  0  0  0  0  0  0  0  0  0  0  0
   46.6430   34.2840   39.3360 H   0  0  0  0  0  0  0  0  0  0  0  0
  1  2  1  0  0  0  0
  2  3  2  0  0  0  0
  2  6  1  0  0  0  0
  3  7  1  0  0  0  0
  4  3  1  0  0  0  0
  5  1  2  0  0  0  0
  5  4  1  0  0  0  0
  8  4  1  0  0  0  0
  8 12  1  0  0  0  0
  9 10  1  0  0  0  0
  9  8  2  0  0  0  0
 10 11  1  0  0  0  0
 11 14  1  0  0  0  0
 12 11  2  0  0  0  0
 13  9  1  0  0  0  0
 14 24  1  0  0  0  0
 15 14  1  0  0  0  0
 15 16  2  0  0  0  0
 16 17  1  0  0  0  0
 17 18  1  0  0  0  0
 18 20  1  0  0  0  0
 18 19  2  0  0  0  0
 20 25  1  0  0  0  0
 21 22  1  0  0  0  0
 21 20  1  0  0  0  0
 22 27  1  0  0  0  0
 23 21  2  0  0  0  0
 24 23  1  0  0  0  0
 24 17  2  0  0  0  0
 26 22  1  0  0  0  0
 28  1  1  0  0  0  0
 29 34  2  0  0  0  0
 29 30  1  0  0  0  0
 30 31  2  0  0  0  0
 31 32  1  0  0  0  0
 31 28  1  0  0  0  0
 33 36  1  0  0  0  0
 33 32  2  0  0  0  0
 34 33  1  0  0  0  0
 35 30  1  0  0  0  0
 37 29  1  0  0  0  0
 38 37  1  0  0  0  0
 39 37  1  0  0  0  0
 40 42  1  0  0  0  0
 40 37  1  0  0  0  0
 40 41  1  0  0  0  0
 43 40  1  0  0  0  0
M  END
>  <minimizedAffinity>
-6.0718112

>  <minimizedRMSD>
1.94869745

$$$$
