
 OpenBabel03232518323D

 42 47  0  0  1  0  0  0  0  0999 V2000
   44.9110   35.3820   44.4280 C   0  0  0  0  0  0  0  0  0  0  0  0
   45.8520   34.9850   43.4870 C   0  0  0  0  0  0  0  0  0  0  0  0
   46.7150   33.8890   43.8030 C   0  0  0  0  0  0  0  0  0  0  0  0
   46.5530   33.2980   45.0220 N   0  0  0  0  0  0  0  0  0  0  0  0
   45.6130   33.7380   45.8900 C   0  0  0  0  0  0  0  0  0  0  0  0
   44.7910   34.7760   45.5990 N   0  0  0  0  0  0  0  0  0  0  0  0
   44.2660   36.2060   44.1840 H   0  0  0  0  0  0  0  0  0  0  0  0
   45.9520   35.4770   42.5300 H   0  0  0  0  0  0  0  0  0  0  0  0
   47.7620   33.4160   42.8470 C   0  0  2  0  0  0  0  0  0  0  0  0
   48.8130   34.5240   42.4820 C   0  0  0  0  0  0  0  0  0  0  0  0
   47.8360   33.9530   41.4890 C   0  0  1  0  0  0  0  0  0  0  0  0
   48.3060   32.5010   43.2100 H   0  0  0  0  0  0  0  0  0  0  0  0
   48.6150   35.5250   42.8630 H   0  0  0  0  0  0  0  0  0  0  0  0
   49.8570   34.2240   42.3980 H   0  0  0  0  0  0  0  0  0  0  0  0
   47.0100   34.6200   41.1710 H   0  0  0  0  0  0  0  0  0  0  0  0
   48.3640   33.1850   40.3820 N   0  0  0  0  0  0  0  0  0  0  0  0
   49.5020   32.4680   40.4220 C   0  0  0  0  0  0  0  0  0  0  0  0
   49.6630   31.9050   39.2280 N   0  0  0  0  0  0  0  0  0  0  0  0
   48.6500   32.2570   38.4460 C   0  0  0  0  0  0  0  0  0  0  0  0
   48.3200   31.9600   37.1260 C   0  0  0  0  0  0  0  0  0  0  0  0
   49.0680   31.2150   36.4410 O   0  0  0  0  0  0  0  0  0  0  0  0
   47.1940   32.4870   36.6050 N   0  0  0  0  0  0  0  0  0  0  0  0
   46.3970   33.2850   37.3420 C   0  0  0  0  0  0  0  0  0  0  0  0
   45.2310   33.7680   36.6440 N   0  0  0  0  0  0  0  0  0  0  0  0
   46.6790   33.5950   38.6220 N   0  0  0  0  0  0  0  0  0  0  0  0
   47.8010   33.0800   39.1620 C   0  0  0  0  0  0  0  0  0  0  0  0
   46.9960   32.2330   35.6130 H   0  0  0  0  0  0  0  0  0  0  0  0
   44.6480   33.0130   36.1750 H   0  0  0  0  0  0  0  0  0  0  0  0
   45.0300   34.7920   36.6370 H   0  0  0  0  0  0  0  0  0  0  0  0
   45.4490   32.9340   47.4850 S   0  0  0  0  0  0  0  0  0  0  0  0
   48.6870   29.5110   48.7860 N   0  0  0  0  0  0  0  0  0  0  0  0
   48.8340   30.7170   49.4020 C   0  0  0  0  0  0  0  0  0  0  0  0
   47.8960   31.5520   48.9600 N   0  0  0  0  0  0  0  0  0  0  0  0
   47.1140   30.9210   48.0480 C   0  0  0  0  0  0  0  0  0  0  0  0
   46.0100   31.2470   47.2620 C   0  0  0  0  0  0  0  0  0  0  0  0
   45.4630   30.3510   46.4410 N   0  0  0  0  0  0  0  0  0  0  0  0
   46.0410   29.1030   46.4120 C   0  0  0  0  0  0  0  0  0  0  0  0
   47.1210   28.7230   47.1570 N   0  0  0  0  0  0  0  0  0  0  0  0
   47.6340   29.6540   47.9650 C   0  0  0  0  0  0  0  0  0  0  0  0
   49.3040   28.6750   48.9590 H   0  0  0  0  0  0  0  0  0  0  0  0
   49.6070   30.9160   50.1280 H   0  0  0  0  0  0  0  0  0  0  0  0
   45.5320   28.4280   45.7140 H   0  0  0  0  0  0  0  0  0  0  0  0
  1  6  1  0  0  0  0
  2  3  1  0  0  0  0
  2  1  2  0  0  0  0
  3  4  2  0  0  0  0
  4  5  1  0  0  0  0
  5 30  1  0  0  0  0
  6  5  2  0  0  0  0
  7  1  1  0  0  0  0
  8  2  1  0  0  0  0
  9 12  1  1  0  0  0
  9  3  1  0  0  0  0
 10  9  1  0  0  0  0
 10 13  1  0  0  0  0
 11 15  1  6  0  0  0
 11 10  1  0  0  0  0
 11  9  1  0  0  0  0
 14 10  1  0  0  0  0
 16 17  1  0  0  0  0
 16 11  1  0  0  0  0
 18 17  2  0  0  0  0
 19 26  2  0  0  0  0
 19 18  1  0  0  0  0
 20 19  1  0  0  0  0
 21 20  2  0  0  0  0
 22 20  1  0  0  0  0
 22 23  1  0  0  0  0
 23 25  2  0  0  0  0
 24 23  1  0  0  0  0
 25 26  1  0  0  0  0
 26 16  1  0  0  0  0
 27 22  1  0  0  0  0
 28 24  1  0  0  0  0
 29 24  1  0  0  0  0
 31 40  1  0  0  0  0
 31 32  1  0  0  0  0
 32 41  1  0  0  0  0
 33 32  2  0  0  0  0
 34 33  1  0  0  0  0
 35 30  1  0  0  0  0
 35 34  2  0  0  0  0
 36 35  1  0  0  0  0
 37 36  2  0  0  0  0
 37 38  1  0  0  0  0
 38 39  2  0  0  0  0
 39 34  1  0  0  0  0
 39 31  1  0  0  0  0
 42 37  1  0  0  0  0
M  END
>  <minimizedAffinity>
-6.80312109

>  <minimizedRMSD>
1.51130915

$$$$
