
 OpenBabel03232521013D

 38 41  0  0  1  0  0  0  0  0999 V2000
   45.3670   32.8860   47.5050 C   0  0  0  0  0  0  0  0  0  0  0  0
   45.9180   32.6350   46.2930 C   0  0  0  0  0  0  0  0  0  0  0  0
   46.1860   31.2870   46.0380 C   0  0  0  0  0  0  0  0  0  0  0  0
   45.9230   30.2880   46.9170 N   0  0  0  0  0  0  0  0  0  0  0  0
   45.3580   30.6020   48.1440 C   0  0  0  0  0  0  0  0  0  0  0  0
   45.0980   31.8690   48.4050 N   0  0  0  0  0  0  0  0  0  0  0  0
   45.1030   29.5760   49.0970 N   0  0  0  0  0  0  0  0  0  0  0  0
   45.1250   33.8930   47.8040 H   0  0  0  0  0  0  0  0  0  0  0  0
   45.9020   29.7110   49.7560 H   0  0  0  0  0  0  0  0  0  0  0  0
   44.2880   28.8960   49.0670 H   0  0  0  0  0  0  0  0  0  0  0  0
   46.1660   33.5910   45.2660 C   0  0  2  0  0  0  0  0  0  0  0  0
   44.9530   34.6800   45.4980 C   0  0  0  0  0  0  0  0  0  0  0  0
   44.7290   35.6150   44.4310 C   0  0  0  0  0  0  0  0  0  0  0  0
   45.5320   35.5510   43.2090 C   0  0  1  0  0  0  0  0  0  0  0  0
   46.5920   34.5530   43.1610 C   0  0  0  0  0  0  0  0  0  0  0  0
   46.1440   33.3130   43.9010 C   0  0  0  0  0  0  0  0  0  0  0  0
   46.9440   34.3340   45.6020 H   0  0  0  0  0  0  0  0  0  0  0  0
   44.2710   34.8240   46.3260 H   0  0  0  0  0  0  0  0  0  0  0  0
   43.9620   36.3330   44.5360 H   0  0  0  0  0  0  0  0  0  0  0  0
   45.9550   36.5620   43.0140 H   0  0  0  0  0  0  0  0  0  0  0  0
   46.8480   34.3490   42.0860 H   0  0  0  0  0  0  0  0  0  0  0  0
   47.5200   34.9140   43.6520 H   0  0  0  0  0  0  0  0  0  0  0  0
   45.2130   32.9460   43.4230 H   0  0  0  0  0  0  0  0  0  0  0  0
   47.0020   32.6700   43.5730 H   0  0  0  0  0  0  0  0  0  0  0  0
   44.5210   35.2870   42.0530 C   0  0  0  0  0  0  0  0  0  0  0  0
   43.4580   34.4910   42.4440 F   0  0  0  0  0  0  0  0  0  0  0  0
   43.9820   36.5270   41.7170 F   0  0  0  0  0  0  0  0  0  0  0  0
   45.1960   34.8250   40.9410 F   0  0  0  0  0  0  0  0  0  0  0  0
   46.8230   30.5980   44.9260 C   0  0  0  0  0  0  0  0  0  0  0  0
   46.4690   29.8580   43.8450 C   0  0  0  0  0  0  0  0  0  0  0  0
   47.6450   29.4570   43.1940 C   0  0  0  0  0  0  0  0  0  0  0  0
   48.6460   29.9710   43.9100 N   0  0  0  0  0  0  0  0  0  0  0  0
   48.1870   30.6480   44.9340 N   0  0  0  0  0  0  0  0  0  0  0  0
   45.4200   29.7050   43.6670 H   0  0  0  0  0  0  0  0  0  0  0  0
   47.6070   28.8570   42.3060 H   0  0  0  0  0  0  0  0  0  0  0  0
   50.0650   29.7820   43.5620 C   0  0  0  0  0  3  0  0  0  0  0  0
   50.2960   29.6260   42.0660 C   0  0  0  0  0  2  0  0  0  0  0  0
   50.6920   30.9070   42.7140 C   0  0  0  0  0  2  0  0  0  0  0  0
  1  8  1  0  0  0  0
  1  6  1  0  0  0  0
  2  1  2  0  0  0  0
  3  2  1  0  0  0  0
  3  4  2  0  0  0  0
  4  5  1  0  0  0  0
  5  6  2  0  0  0  0
  5  7  1  0  0  0  0
  7  9  1  0  0  0  0
 10  7  1  0  0  0  0
 11 12  1  0  0  0  0
 11 17  1  1  0  0  0
 11  2  1  0  0  0  0
 12 18  1  0  0  0  0
 13 19  1  0  0  0  0
 13 12  2  0  0  0  0
 14 20  1  6  0  0  0
 14 13  1  0  0  0  0
 15 14  1  0  0  0  0
 15 22  1  0  0  0  0
 15 16  1  0  0  0  0
 16 11  1  0  0  0  0
 21 15  1  0  0  0  0
 23 16  1  0  0  0  0
 24 16  1  0  0  0  0
 25 26  1  0  0  0  0
 25 14  1  0  0  0  0
 27 25  1  0  0  0  0
 28 25  1  0  0  0  0
 29 33  2  0  0  0  0
 29  3  1  0  0  0  0
 30 29  1  0  0  0  0
 31 30  2  0  0  0  0
 31 32  1  0  0  0  0
 32 33  1  0  0  0  0
 34 30  1  0  0  0  0
 35 31  1  0  0  0  0
 36 32  1  0  0  0  0
 37 38  1  0  0  0  0
 37 36  1  0  0  0  0
 38 36  1  0  0  0  0
M  END
>  <minimizedAffinity>
-5.5959096

>  <minimizedRMSD>
0.411258876

$$$$
