
 OpenBabel03232518563D

 28 30  0  0  1  0  0  0  0  0999 V2000
   47.0650   32.6860   44.7220 C   0  0  2  0  0  0  0  0  0  0  0  0
   47.9930   33.0180   45.2650 H   0  0  0  0  0  0  0  0  0  0  0  0
   44.6080   35.3990   45.1480 C   0  0  0  0  0  0  0  0  0  0  0  0
   44.7470   36.1010   43.8970 C   0  0  0  0  0  0  0  0  0  0  0  0
   45.6880   35.6040   42.9430 C   0  0  0  0  0  0  0  0  0  0  0  0
   46.4010   34.4880   43.2760 N   0  0  0  0  0  0  0  0  0  0  0  0
   46.2370   33.8690   44.4510 C   0  0  0  0  0  0  0  0  0  0  0  0
   45.3470   34.3270   45.3700 N   0  0  0  0  0  0  0  0  0  0  0  0
   43.8750   35.8470   45.8050 H   0  0  0  0  0  0  0  0  0  0  0  0
   44.1670   36.9690   43.6840 H   0  0  0  0  0  0  0  0  0  0  0  0
   45.8070   36.1160   42.0010 H   0  0  0  0  0  0  0  0  0  0  0  0
   47.6350   32.1360   43.4070 C   0  0  0  0  0  0  0  0  0  0  0  0
   46.8150   31.8570   42.7110 H   0  0  0  0  0  0  0  0  0  0  0  0
   48.1580   33.0010   42.9210 H   0  0  0  0  0  0  0  0  0  0  0  0
   48.3230   31.3050   43.6400 H   0  0  0  0  0  0  0  0  0  0  0  0
   46.3980   31.6210   45.5060 C   0  0  0  0  0  0  0  0  0  0  0  0
   46.4820   30.6560   44.9260 H   0  0  0  0  0  0  0  0  0  0  0  0
   45.3580   31.8470   45.7520 H   0  0  0  0  0  0  0  0  0  0  0  0
   47.2110   31.3740   46.7370 C   0  0  0  0  0  0  0  0  0  0  0  0
   47.2410   32.3290   47.7180 C   0  0  0  0  0  0  0  0  0  0  0  0
   48.0420   31.8760   48.7280 C   0  0  0  0  0  0  0  0  0  0  0  0
   48.4690   30.6460   48.3070 N   0  0  0  0  0  0  0  0  0  0  0  0
   47.9730   30.3470   47.1190 N   0  0  0  0  0  0  0  0  0  0  0  0
   46.8070   33.3270   47.9020 H   0  0  0  0  0  0  0  0  0  0  0  0
   48.3600   32.2740   49.6890 H   0  0  0  0  0  0  0  0  0  0  0  0
   49.3590   29.7490   49.0440 C   0  0  0  0  0  0  0  0  0  0  0  0
   49.7930   30.1070   50.4180 C   0  0  0  0  0  0  0  0  0  0  0  0
   50.7480   30.2790   49.2520 C   0  0  0  0  0  0  0  0  0  0  0  0
  1  2  1  1  0  0  0
  1 16  1  0  0  0  0
  3  8  1  0  0  0  0
  3  9  1  0  0  0  0
  4  3  2  0  0  0  0
  5  6  2  0  0  0  0
  5  4  1  0  0  0  0
  6  7  1  0  0  0  0
  7  1  1  0  0  0  0
  7  8  2  0  0  0  0
 10  4  1  0  0  0  0
 11  5  1  0  0  0  0
 12 15  1  0  0  0  0
 12  1  1  0  0  0  0
 13 12  1  0  0  0  0
 14 12  1  0  0  0  0
 16 18  1  0  0  0  0
 16 19  1  0  0  0  0
 17 16  1  0  0  0  0
 19 23  2  0  0  0  0
 19 20  1  0  0  0  0
 20 24  1  0  0  0  0
 20 21  2  0  0  0  0
 21 25  1  0  0  0  0
 22 21  1  0  0  0  0
 22 26  1  0  0  0  0
 23 22  1  0  0  0  0
 26 28  1  0  0  0  0
 26 27  1  0  0  0  0
 28 27  1  0  0  0  0
M  END
>  <minimizedAffinity>
-4.52486229

>  <minimizedRMSD>
1.71323299

$$$$
