
 OpenBabel03232521003D

 38 41  0  0  1  0  0  0  0  0999 V2000
   45.3670   32.8820   47.5030 C   0  0  0  0  0  0  0  0  0  0  0  0
   45.9180   32.6320   46.2910 C   0  0  0  0  0  0  0  0  0  0  0  0
   46.1870   31.2840   46.0360 C   0  0  0  0  0  0  0  0  0  0  0  0
   45.9250   30.2840   46.9140 N   0  0  0  0  0  0  0  0  0  0  0  0
   45.3590   30.5980   48.1410 C   0  0  0  0  0  0  0  0  0  0  0  0
   45.0980   31.8640   48.4020 N   0  0  0  0  0  0  0  0  0  0  0  0
   45.1040   29.5710   49.0930 N   0  0  0  0  0  0  0  0  0  0  0  0
   45.1240   33.8880   47.8020 H   0  0  0  0  0  0  0  0  0  0  0  0
   45.9020   29.7050   49.7530 H   0  0  0  0  0  0  0  0  0  0  0  0
   44.2900   28.8900   49.0620 H   0  0  0  0  0  0  0  0  0  0  0  0
   46.1660   33.5890   45.2650 C   0  0  2  0  0  0  0  0  0  0  0  0
   44.9540   34.6780   45.4980 C   0  0  0  0  0  0  0  0  0  0  0  0
   44.7300   35.6140   44.4320 C   0  0  0  0  0  0  0  0  0  0  0  0
   45.5330   35.5510   43.2100 C   0  0  1  0  0  0  0  0  0  0  0  0
   46.5920   34.5520   43.1610 C   0  0  0  0  0  0  0  0  0  0  0  0
   46.1440   33.3120   43.9000 C   0  0  0  0  0  0  0  0  0  0  0  0
   46.9450   34.3310   45.6020 H   0  0  0  0  0  0  0  0  0  0  0  0
   44.2730   34.8210   46.3270 H   0  0  0  0  0  0  0  0  0  0  0  0
   43.9640   36.3310   44.5380 H   0  0  0  0  0  0  0  0  0  0  0  0
   45.9560   36.5620   43.0160 H   0  0  0  0  0  0  0  0  0  0  0  0
   46.8480   34.3500   42.0860 H   0  0  0  0  0  0  0  0  0  0  0  0
   47.5200   34.9120   43.6520 H   0  0  0  0  0  0  0  0  0  0  0  0
   45.2130   32.9450   43.4210 H   0  0  0  0  0  0  0  0  0  0  0  0
   47.0020   32.6690   43.5720 H   0  0  0  0  0  0  0  0  0  0  0  0
   44.5210   35.2880   42.0540 C   0  0  0  0  0  0  0  0  0  0  0  0
   43.4570   34.4940   42.4450 F   0  0  0  0  0  0  0  0  0  0  0  0
   43.9850   36.5290   41.7180 F   0  0  0  0  0  0  0  0  0  0  0  0
   45.1960   34.8250   40.9420 F   0  0  0  0  0  0  0  0  0  0  0  0
   46.8260   30.5970   44.9230 C   0  0  0  0  0  0  0  0  0  0  0  0
   46.4730   29.8570   43.8420 C   0  0  0  0  0  0  0  0  0  0  0  0
   47.6500   29.4570   43.1920 C   0  0  0  0  0  0  0  0  0  0  0  0
   48.6510   29.9710   43.9090 N   0  0  0  0  0  0  0  0  0  0  0  0
   48.1900   30.6460   44.9340 N   0  0  0  0  0  0  0  0  0  0  0  0
   45.4240   29.7050   43.6630 H   0  0  0  0  0  0  0  0  0  0  0  0
   47.6130   28.8580   42.3030 H   0  0  0  0  0  0  0  0  0  0  0  0
   50.0690   29.7810   43.5630 C   0  0  0  0  0  3  0  0  0  0  0  0
   50.3020   29.6250   42.0680 C   0  0  0  0  0  2  0  0  0  0  0  0
   50.6970   30.9070   42.7150 C   0  0  0  0  0  2  0  0  0  0  0  0
  1  8  1  0  0  0  0
  1  6  1  0  0  0  0
  2  1  2  0  0  0  0
  3  2  1  0  0  0  0
  3  4  2  0  0  0  0
  4  5  1  0  0  0  0
  5  6  2  0  0  0  0
  5  7  1  0  0  0  0
  7  9  1  0  0  0  0
 10  7  1  0  0  0  0
 11 12  1  0  0  0  0
 11 17  1  1  0  0  0
 11  2  1  0  0  0  0
 12 18  1  0  0  0  0
 13 19  1  0  0  0  0
 13 12  2  0  0  0  0
 14 20  1  6  0  0  0
 14 13  1  0  0  0  0
 15 14  1  0  0  0  0
 15 22  1  0  0  0  0
 15 16  1  0  0  0  0
 16 11  1  0  0  0  0
 21 15  1  0  0  0  0
 23 16  1  0  0  0  0
 24 16  1  0  0  0  0
 25 26  1  0  0  0  0
 25 14  1  0  0  0  0
 27 25  1  0  0  0  0
 28 25  1  0  0  0  0
 29 33  2  0  0  0  0
 29  3  1  0  0  0  0
 30 29  1  0  0  0  0
 31 30  2  0  0  0  0
 31 32  1  0  0  0  0
 32 33  1  0  0  0  0
 34 30  1  0  0  0  0
 35 31  1  0  0  0  0
 36 32  1  0  0  0  0
 37 38  1  0  0  0  0
 37 36  1  0  0  0  0
 38 36  1  0  0  0  0
M  END
>  <minimizedAffinity>
-5.59555244

>  <minimizedRMSD>
0.225876004

$$$$
