
 OpenBabel03232520383D

 24 26  0  0  0  0  0  0  0  0999 V2000
   44.5430   35.4910   44.1130 C   0  0  0  0  0  0  0  0  0  0  0  0
   44.4760   34.7640   42.9030 C   0  0  0  0  0  0  0  0  0  0  0  0
   44.8360   33.4230   42.9090 C   0  0  0  0  0  0  0  0  0  0  0  0
   45.2460   32.8480   44.0940 N   0  0  0  0  0  0  0  0  0  0  0  0
   45.2920   33.5870   45.2220 C   0  0  0  0  0  0  0  0  0  0  0  0
   44.9530   34.8760   45.2510 N   0  0  0  0  0  0  0  0  0  0  0  0
   44.2460   36.5280   44.0240 H   0  0  0  0  0  0  0  0  0  0  0  0
   44.8000   32.8290   42.0060 H   0  0  0  0  0  0  0  0  0  0  0  0
   45.7070   33.0440   46.4710 N   0  0  0  0  0  0  0  0  0  0  0  0
   45.3600   33.3500   47.7400 C   0  0  0  0  0  0  0  0  0  0  0  0
   46.0430   32.5330   48.5930 N   0  0  0  0  0  0  0  0  0  0  0  0
   46.8290   31.7050   47.8470 C   0  0  0  0  0  0  0  0  0  0  0  0
   47.7140   30.6910   48.2330 C   0  0  0  0  0  0  0  0  0  0  0  0
   47.9140   30.3920   49.4200 O   0  0  0  0  0  0  0  0  0  0  0  0
   48.3400   30.0570   47.2250 N   0  0  0  0  0  0  0  0  0  0  0  0
   48.1380   30.3640   45.9300 C   0  0  0  0  0  0  0  0  0  0  0  0
   48.7790   29.7190   44.8350 N   0  0  0  0  0  0  0  0  0  0  0  0
   47.2860   31.3380   45.5590 N   0  0  0  0  0  0  0  0  0  0  0  0
   46.6050   32.0400   46.5060 C   0  0  0  0  0  0  0  0  0  0  0  0
   49.0180   29.2860   47.4250 H   0  0  0  0  0  0  0  0  0  0  0  0
   49.4740   30.0950   44.1540 H   0  0  0  0  0  0  0  0  0  0  0  0
   48.4200   28.7410   44.8200 H   0  0  0  0  0  0  0  0  0  0  0  0
   43.9340   35.5540   41.3750 S   0  0  0  0  0  0  0  0  0  0  0  0
   44.0470   36.9490   41.5540 H   0  0  0  0  0  0  0  0  0  0  0  0
  1  6  1  0  0  0  0
  2  3  1  0  0  0  0
  2  1  2  0  0  0  0
  3  4  2  0  0  0  0
  4  5  1  0  0  0  0
  5  6  2  0  0  0  0
  5  9  1  0  0  0  0
  7  1  1  0  0  0  0
  8  3  1  0  0  0  0
  9 19  1  0  0  0  0
  9 10  1  0  0  0  0
 10 11  2  0  0  0  0
 12 13  1  0  0  0  0
 12 11  1  0  0  0  0
 13 14  2  0  0  0  0
 15 20  1  0  0  0  0
 15 13  1  0  0  0  0
 16 15  1  0  0  0  0
 17 16  1  0  0  0  0
 18 16  2  0  0  0  0
 18 19  1  0  0  0  0
 19 12  2  0  0  0  0
 21 17  1  0  0  0  0
 22 17  1  0  0  0  0
 23 24  1  0  0  0  0
 23  2  1  0  0  0  0
M  END
>  <minimizedAffinity>
-4.32503986

>  <minimizedRMSD>
1.29162717

$$$$
