
 OpenBabel03232521013D

 38 41  0  0  1  0  0  0  0  0999 V2000
   45.3640   32.8670   47.4900 C   0  0  0  0  0  0  0  0  0  0  0  0
   45.9210   32.6230   46.2790 C   0  0  0  0  0  0  0  0  0  0  0  0
   46.1970   31.2770   46.0220 C   0  0  0  0  0  0  0  0  0  0  0  0
   45.9360   30.2740   46.8970 N   0  0  0  0  0  0  0  0  0  0  0  0
   45.3660   30.5820   48.1230 C   0  0  0  0  0  0  0  0  0  0  0  0
   45.0970   31.8460   48.3860 N   0  0  0  0  0  0  0  0  0  0  0  0
   45.1120   29.5520   49.0710 N   0  0  0  0  0  0  0  0  0  0  0  0
   45.1150   33.8720   47.7910 H   0  0  0  0  0  0  0  0  0  0  0  0
   45.9080   29.6880   49.7340 H   0  0  0  0  0  0  0  0  0  0  0  0
   44.3010   28.8670   49.0350 H   0  0  0  0  0  0  0  0  0  0  0  0
   46.1680   33.5840   45.2560 C   0  0  2  0  0  0  0  0  0  0  0  0
   44.9570   34.6730   45.4970 C   0  0  0  0  0  0  0  0  0  0  0  0
   44.7310   35.6140   44.4350 C   0  0  0  0  0  0  0  0  0  0  0  0
   45.5310   35.5550   43.2110 C   0  0  1  0  0  0  0  0  0  0  0  0
   46.5890   34.5550   43.1560 C   0  0  0  0  0  0  0  0  0  0  0  0
   46.1420   33.3120   43.8910 C   0  0  0  0  0  0  0  0  0  0  0  0
   46.9480   34.3240   45.5950 H   0  0  0  0  0  0  0  0  0  0  0  0
   44.2780   34.8140   46.3280 H   0  0  0  0  0  0  0  0  0  0  0  0
   43.9670   36.3320   44.5460 H   0  0  0  0  0  0  0  0  0  0  0  0
   45.9550   36.5660   43.0200 H   0  0  0  0  0  0  0  0  0  0  0  0
   46.8430   34.3560   42.0790 H   0  0  0  0  0  0  0  0  0  0  0  0
   47.5190   34.9120   43.6450 H   0  0  0  0  0  0  0  0  0  0  0  0
   45.2090   32.9490   43.4130 H   0  0  0  0  0  0  0  0  0  0  0  0
   46.9980   32.6700   43.5570 H   0  0  0  0  0  0  0  0  0  0  0  0
   44.5170   35.2970   42.0570 C   0  0  0  0  0  0  0  0  0  0  0  0
   43.4480   34.5110   42.4490 F   0  0  0  0  0  0  0  0  0  0  0  0
   43.9880   36.5420   41.7200 F   0  0  0  0  0  0  0  0  0  0  0  0
   45.1870   34.8300   40.9440 F   0  0  0  0  0  0  0  0  0  0  0  0
   46.8430   30.5960   44.9100 C   0  0  0  0  0  0  0  0  0  0  0  0
   46.4960   29.8720   43.8160 C   0  0  0  0  0  0  0  0  0  0  0  0
   47.6780   29.4670   43.1760 C   0  0  0  0  0  0  0  0  0  0  0  0
   48.6740   29.9630   43.9110 N   0  0  0  0  0  0  0  0  0  0  0  0
   48.2070   30.6320   44.9370 N   0  0  0  0  0  0  0  0  0  0  0  0
   45.4480   29.7310   43.6220 H   0  0  0  0  0  0  0  0  0  0  0  0
   47.6460   28.8780   42.2810 H   0  0  0  0  0  0  0  0  0  0  0  0
   50.0950   29.7640   43.5800 C   0  0  0  0  0  3  0  0  0  0  0  0
   50.3420   29.6010   42.0870 C   0  0  0  0  0  2  0  0  0  0  0  0
   50.7380   30.8830   42.7350 C   0  0  0  0  0  2  0  0  0  0  0  0
  1  8  1  0  0  0  0
  1  6  1  0  0  0  0
  2  1  2  0  0  0  0
  3  2  1  0  0  0  0
  3  4  2  0  0  0  0
  4  5  1  0  0  0  0
  5  6  2  0  0  0  0
  5  7  1  0  0  0  0
  7  9  1  0  0  0  0
 10  7  1  0  0  0  0
 11 12  1  0  0  0  0
 11 17  1  1  0  0  0
 11  2  1  0  0  0  0
 12 18  1  0  0  0  0
 13 19  1  0  0  0  0
 13 12  2  0  0  0  0
 14 20  1  6  0  0  0
 14 13  1  0  0  0  0
 15 14  1  0  0  0  0
 15 22  1  0  0  0  0
 15 16  1  0  0  0  0
 16 11  1  0  0  0  0
 21 15  1  0  0  0  0
 23 16  1  0  0  0  0
 24 16  1  0  0  0  0
 25 26  1  0  0  0  0
 25 14  1  0  0  0  0
 27 25  1  0  0  0  0
 28 25  1  0  0  0  0
 29 33  2  0  0  0  0
 29  3  1  0  0  0  0
 30 29  1  0  0  0  0
 31 30  2  0  0  0  0
 31 32  1  0  0  0  0
 32 33  1  0  0  0  0
 34 30  1  0  0  0  0
 35 31  1  0  0  0  0
 36 32  1  0  0  0  0
 37 38  1  0  0  0  0
 37 36  1  0  0  0  0
 38 36  1  0  0  0  0
M  END
>  <minimizedAffinity>
-5.58402967

>  <minimizedRMSD>
0.13741833

$$$$
