
 OpenBabel03232520403D

 22 24  0  0  0  0  0  0  0  0999 V2000
   45.2080   34.6160   41.2870 C   0  0  0  0  0  0  0  0  0  0  0  0
   46.0520   33.8280   40.4720 C   0  0  0  0  0  0  0  0  0  0  0  0
   45.5090   33.1930   39.3800 C   0  0  0  0  0  0  0  0  0  0  0  0
   44.1730   33.3180   39.0800 N   0  0  0  0  0  0  0  0  0  0  0  0
   43.4090   34.1000   39.9130 C   0  0  0  0  0  0  0  0  0  0  0  0
   43.9190   34.7220   40.9770 N   0  0  0  0  0  0  0  0  0  0  0  0
   45.7170   35.0750   42.1220 H   0  0  0  0  0  0  0  0  0  0  0  0
   46.0810   32.5600   38.6920 H   0  0  0  0  0  0  0  0  0  0  0  0
   41.9650   34.2960   39.6720 C   0  0  0  0  0  0  0  0  0  0  0  0
   41.4220   33.9450   38.4580 C   0  0  0  0  0  0  0  0  0  0  0  0
   40.0770   34.1050   38.1750 C   0  0  0  0  0  0  0  0  0  0  0  0
   39.2310   34.6390   39.1430 C   0  0  0  0  0  0  0  0  0  0  0  0
   39.8230   34.9790   40.3540 C   0  0  0  0  0  0  0  0  0  0  0  0
   41.1370   34.8150   40.6100 N   0  0  0  0  0  0  0  0  0  0  0  0
   42.0650   33.5200   37.6720 H   0  0  0  0  0  0  0  0  0  0  0  0
   39.7300   33.8060   37.2000 H   0  0  0  0  0  0  0  0  0  0  0  0
   38.2180   34.7310   38.8540 H   0  0  0  0  0  0  0  0  0  0  0  0
   39.1290   35.3910   41.0750 H   0  0  0  0  0  0  0  0  0  0  0  0
   47.8200   33.6240   40.8080 S   0  0  0  0  0  0  0  0  0  0  0  0
   48.3030   34.8800   42.0350 C   0  0  0  0  0  0  0  0  0  0  0  0
   49.0930   36.0000   41.4610 C   0  0  0  0  0  0  0  0  0  0  0  0
   49.6870   35.0580   42.4640 C   0  0  0  0  0  0  0  0  0  0  0  0
  1  7  1  0  0  0  0
  2 19  1  0  0  0  0
  2  1  2  0  0  0  0
  3  2  1  0  0  0  0
  4  3  2  0  0  0  0
  4  5  1  0  0  0  0
  5  6  2  0  0  0  0
  6  1  1  0  0  0  0
  8  3  1  0  0  0  0
  9  5  1  0  0  0  0
  9 14  1  0  0  0  0
 10  9  2  0  0  0  0
 11 10  1  0  0  0  0
 11 12  2  0  0  0  0
 12 13  1  0  0  0  0
 13 14  2  0  0  0  0
 13 18  1  0  0  0  0
 15 10  1  0  0  0  0
 16 11  1  0  0  0  0
 17 12  1  0  0  0  0
 19 20  1  0  0  0  0
 20 22  1  0  0  0  0
 21 20  1  0  0  0  0
 21 22  1  0  0  0  0
M  END
>  <minimizedAffinity>
-4.80100107

>  <minimizedRMSD>
7.15929508

$$$$
