
 OpenBabel03232518573D

 44 47  0  0  1  0  0  0  0  0999 V2000
   46.7610   33.3300   45.0980 C   0  0  0  0  0  0  0  0  0  0  0  0
   47.6430   33.2430   44.4010 H   0  0  0  0  0  0  0  0  0  0  0  0
   47.1510   33.8040   45.9940 H   0  0  0  0  0  0  0  0  0  0  0  0
   45.7730   34.1580   44.3640 C   0  0  0  0  0  0  0  0  0  0  0  0
   44.9930   35.0230   45.0650 C   0  0  0  0  0  0  0  0  0  0  0  0
   44.1610   35.6710   44.1820 C   0  0  0  0  0  0  0  0  0  0  0  0
   44.5080   35.1330   42.9650 N   0  0  0  0  0  0  0  0  0  0  0  0
   45.4590   34.2390   43.0640 N   0  0  0  0  0  0  0  0  0  0  0  0
   44.9060   35.2860   46.1300 H   0  0  0  0  0  0  0  0  0  0  0  0
   43.3770   36.4380   44.2760 H   0  0  0  0  0  0  0  0  0  0  0  0
   44.4250   34.7020   40.6030 N   0  0  0  0  0  0  0  0  0  0  0  0
   43.2940   34.2350   39.8260 C   0  0  0  0  0  0  0  0  0  0  0  0
   42.2530   33.9940   40.9090 C   0  0  0  0  0  0  0  0  0  0  0  0
   42.4000   35.2750   41.7290 C   0  0  0  0  0  0  0  0  0  0  0  0
   43.9000   35.4960   41.6820 C   0  0  1  0  0  0  0  0  0  0  0  0
   45.0220   35.3020   39.9940 H   0  0  0  0  0  0  0  0  0  0  0  0
   43.5770   33.2240   39.4390 H   0  0  0  0  0  0  0  0  0  0  0  0
   42.9720   34.9400   39.0620 H   0  0  0  0  0  0  0  0  0  0  0  0
   41.2320   33.9250   40.4940 H   0  0  0  0  0  0  0  0  0  0  0  0
   42.5050   33.1030   41.4830 H   0  0  0  0  0  0  0  0  0  0  0  0
   41.8930   36.0790   41.1560 H   0  0  0  0  0  0  0  0  0  0  0  0
   42.0130   35.1830   42.7480 H   0  0  0  0  0  0  0  0  0  0  0  0
   44.0760   36.5870   41.4960 H   0  0  0  0  0  0  0  0  0  0  0  0
   46.1990   31.9550   45.2830 C   0  0  2  0  0  0  0  0  0  0  0  0
   45.2400   31.8160   44.7190 H   0  0  0  0  0  0  0  0  0  0  0  0
   45.8280   32.2460   48.9490 C   0  0  0  0  0  0  0  0  0  0  0  0
   45.3230   30.9280   49.2680 C   0  0  0  0  0  0  0  0  0  0  0  0
   45.1390   29.9860   48.2010 C   0  0  0  0  0  0  0  0  0  0  0  0
   45.4590   30.4200   46.9550 N   0  0  0  0  0  0  0  0  0  0  0  0
   45.9210   31.6330   46.6830 C   0  0  0  0  0  0  0  0  0  0  0  0
   46.1030   32.5440   47.6860 N   0  0  0  0  0  0  0  0  0  0  0  0
   45.9570   32.9280   49.7510 H   0  0  0  0  0  0  0  0  0  0  0  0
   45.0870   30.6400   50.2690 H   0  0  0  0  0  0  0  0  0  0  0  0
   44.7650   29.0210   48.4550 H   0  0  0  0  0  0  0  0  0  0  0  0
   47.1190   30.9080   44.6690 C   0  0  0  0  0  0  0  0  0  0  0  0
   48.0700   30.9660   45.2710 H   0  0  0  0  0  0  0  0  0  0  0  0
   46.6750   29.8780   44.8130 H   0  0  0  0  0  0  0  0  0  0  0  0
   47.4350   31.0950   43.2440 C   0  0  0  0  0  0  0  0  0  0  0  0
   48.7960   31.2940   42.9710 C   0  0  0  0  0  0  0  0  0  0  0  0
   49.3510   31.4950   41.7260 C   0  0  0  0  0  0  0  0  0  0  0  0
   48.5150   31.5060   40.6300 C   0  0  0  0  0  0  0  0  0  0  0  0
   48.8240   31.6520   39.6160 H   0  0  0  0  0  0  0  0  0  0  0  0
   47.1860   31.3080   40.9300 C   0  0  0  0  0  0  0  0  0  0  0  0
   46.6600   31.1140   42.1470 N   0  0  0  0  0  0  0  0  0  0  0  0
  1 24  1  0  0  0  0
  1  3  1  0  0  0  0
  2  1  1  0  0  0  0
  4  5  1  0  0  0  0
  4  1  1  0  0  0  0
  5  9  1  0  0  0  0
  6 10  1  0  0  0  0
  6  5  2  0  0  0  0
  7  8  1  0  0  0  0
  7  6  1  0  0  0  0
  8  4  2  0  0  0  0
 11 15  1  0  0  0  0
 12 11  1  0  0  0  0
 12 13  1  0  0  0  0
 13 20  1  0  0  0  0
 13 14  1  0  0  0  0
 14 22  1  0  0  0  0
 15 23  1  6  0  0  0
 15 14  1  0  0  0  0
 15  7  1  0  0  0  0
 16 11  1  0  0  0  0
 17 12  1  0  0  0  0
 18 12  1  0  0  0  0
 19 13  1  0  0  0  0
 21 14  1  0  0  0  0
 24 25  1  6  0  0  0
 24 30  1  0  0  0  0
 26 27  1  0  0  0  0
 26 32  1  0  0  0  0
 27 33  1  0  0  0  0
 28 34  1  0  0  0  0
 28 27  2  0  0  0  0
 29 28  1  0  0  0  0
 30 29  2  0  0  0  0
 30 31  1  0  0  0  0
 31 26  2  0  0  0  0
 35 37  1  0  0  0  0
 35 36  1  0  0  0  0
 35 24  1  0  0  0  0
 38 35  1  0  0  0  0
 39 38  1  0  0  0  0
 40 39  2  0  0  0  0
 41 43  2  0  0  0  0
 41 40  1  0  0  0  0
 42 41  1  0  0  0  0
 43 44  1  0  0  0  0
 44 38  2  0  0  0  0
M  END
>  <minimizedAffinity>
-5.29165745

>  <minimizedRMSD>
2.5469203

$$$$
