
 OpenBabel03232521013D

 38 41  0  0  1  0  0  0  0  0999 V2000
   45.3770   32.8780   47.5580 C   0  0  0  0  0  0  0  0  0  0  0  0
   45.9300   32.6100   46.3510 C   0  0  0  0  0  0  0  0  0  0  0  0
   46.1910   31.2580   46.1130 C   0  0  0  0  0  0  0  0  0  0  0  0
   45.9200   30.2710   47.0030 N   0  0  0  0  0  0  0  0  0  0  0  0
   45.3550   30.6030   48.2250 C   0  0  0  0  0  0  0  0  0  0  0  0
   45.1000   31.8740   48.4690 N   0  0  0  0  0  0  0  0  0  0  0  0
   45.0910   29.5900   49.1890 N   0  0  0  0  0  0  0  0  0  0  0  0
   45.1400   33.8900   47.8440 H   0  0  0  0  0  0  0  0  0  0  0  0
   45.8890   29.7280   49.8490 H   0  0  0  0  0  0  0  0  0  0  0  0
   44.2730   28.9140   49.1640 H   0  0  0  0  0  0  0  0  0  0  0  0
   46.1860   33.5530   45.3130 C   0  0  2  0  0  0  0  0  0  0  0  0
   44.9720   34.6460   45.5230 C   0  0  0  0  0  0  0  0  0  0  0  0
   44.7560   35.5670   44.4420 C   0  0  0  0  0  0  0  0  0  0  0  0
   45.5680   35.4870   43.2270 C   0  0  1  0  0  0  0  0  0  0  0  0
   46.6270   34.4870   43.1990 C   0  0  0  0  0  0  0  0  0  0  0  0
   46.1730   33.2570   43.9520 C   0  0  0  0  0  0  0  0  0  0  0  0
   46.9620   34.2990   45.6450 H   0  0  0  0  0  0  0  0  0  0  0  0
   44.2860   34.8010   46.3450 H   0  0  0  0  0  0  0  0  0  0  0  0
   43.9900   36.2870   44.5330 H   0  0  0  0  0  0  0  0  0  0  0  0
   45.9930   36.4940   43.0220 H   0  0  0  0  0  0  0  0  0  0  0  0
   46.8900   34.2690   42.1290 H   0  0  0  0  0  0  0  0  0  0  0  0
   47.5520   34.8530   43.6910 H   0  0  0  0  0  0  0  0  0  0  0  0
   45.2440   32.8850   43.4720 H   0  0  0  0  0  0  0  0  0  0  0  0
   47.0320   32.6090   43.6380 H   0  0  0  0  0  0  0  0  0  0  0  0
   44.5640   35.2080   42.0680 C   0  0  0  0  0  0  0  0  0  0  0  0
   43.5330   34.3650   42.4440 F   0  0  0  0  0  0  0  0  0  0  0  0
   43.9780   36.4340   41.7590 F   0  0  0  0  0  0  0  0  0  0  0  0
   45.2530   34.7970   40.9450 F   0  0  0  0  0  0  0  0  0  0  0  0
   46.8280   30.5530   45.0100 C   0  0  0  0  0  0  0  0  0  0  0  0
   46.4770   29.9410   43.8510 C   0  0  0  0  0  0  0  0  0  0  0  0
   47.6410   29.4110   43.2750 C   0  0  0  0  0  0  0  0  0  0  0  0
   48.6320   29.7270   44.1100 N   0  0  0  0  0  0  0  0  0  0  0  0
   48.1770   30.4000   45.1390 N   0  0  0  0  0  0  0  0  0  0  0  0
   45.4380   29.9560   43.5740 H   0  0  0  0  0  0  0  0  0  0  0  0
   47.6040   28.8790   42.3450 H   0  0  0  0  0  0  0  0  0  0  0  0
   50.0360   29.3520   43.8710 C   0  0  0  0  0  3  0  0  0  0  0  0
   50.8090   29.0910   45.1570 C   0  0  0  0  0  2  0  0  0  0  0  0
   50.4230   27.9250   44.3140 C   0  0  0  0  0  2  0  0  0  0  0  0
  1  8  1  0  0  0  0
  1  6  1  0  0  0  0
  2  1  2  0  0  0  0
  3  2  1  0  0  0  0
  3  4  2  0  0  0  0
  4  5  1  0  0  0  0
  5  6  2  0  0  0  0
  5  7  1  0  0  0  0
  7  9  1  0  0  0  0
 10  7  1  0  0  0  0
 11 12  1  0  0  0  0
 11 17  1  1  0  0  0
 11  2  1  0  0  0  0
 12 18  1  0  0  0  0
 13 19  1  0  0  0  0
 13 12  2  0  0  0  0
 14 20  1  6  0  0  0
 14 13  1  0  0  0  0
 15 14  1  0  0  0  0
 15 22  1  0  0  0  0
 15 16  1  0  0  0  0
 16 11  1  0  0  0  0
 21 15  1  0  0  0  0
 23 16  1  0  0  0  0
 24 16  1  0  0  0  0
 25 26  1  0  0  0  0
 25 14  1  0  0  0  0
 27 25  1  0  0  0  0
 28 25  1  0  0  0  0
 29 33  2  0  0  0  0
 29  3  1  0  0  0  0
 30 29  1  0  0  0  0
 31 30  2  0  0  0  0
 31 32  1  0  0  0  0
 32 33  1  0  0  0  0
 34 30  1  0  0  0  0
 35 31  1  0  0  0  0
 36 32  1  0  0  0  0
 36 38  1  0  0  0  0
 36 37  1  0  0  0  0
 38 37  1  0  0  0  0
M  END
>  <minimizedAffinity>
-5.56024408

>  <minimizedRMSD>
0.302821398

$$$$
