
 OpenBabel03232521013D

 41 44  0  0  1  0  0  0  0  0999 V2000
   45.6280   32.8770   47.4470 C   0  0  0  0  0  0  0  0  0  0  0  0
   45.9780   32.5920   46.1680 C   0  0  0  0  0  0  0  0  0  0  0  0
   46.0300   31.2270   45.8680 C   0  0  0  0  0  0  0  0  0  0  0  0
   45.7580   30.2460   46.7650 N   0  0  0  0  0  0  0  0  0  0  0  0
   45.4050   30.5890   48.0630 C   0  0  0  0  0  0  0  0  0  0  0  0
   45.3500   31.8810   48.3680 N   0  0  0  0  0  0  0  0  0  0  0  0
   45.1260   29.5910   49.0260 N   0  0  0  0  0  0  0  0  0  0  0  0
   45.5620   33.9000   47.7830 H   0  0  0  0  0  0  0  0  0  0  0  0
   44.2320   29.0330   48.9580 H   0  0  0  0  0  0  0  0  0  0  0  0
   45.8780   29.5000   49.7530 H   0  0  0  0  0  0  0  0  0  0  0  0
   46.2080   33.5370   45.1270 C   0  0  2  0  0  0  0  0  0  0  0  0
   45.0070   34.6410   45.3880 C   0  0  0  0  0  0  0  0  0  0  0  0
   44.7580   35.5760   44.3250 C   0  0  0  0  0  0  0  0  0  0  0  0
   45.5280   35.4920   43.0790 C   0  0  1  0  0  0  0  0  0  0  0  0
   46.5730   34.4770   43.0040 C   0  0  0  0  0  0  0  0  0  0  0  0
   46.1320   33.2510   43.7680 C   0  0  0  0  0  0  0  0  0  0  0  0
   46.9930   34.2860   45.4490 H   0  0  0  0  0  0  0  0  0  0  0  0
   44.3520   34.7910   46.2370 H   0  0  0  0  0  0  0  0  0  0  0  0
   43.9960   36.3030   44.4560 H   0  0  0  0  0  0  0  0  0  0  0  0
   45.9620   36.4920   42.8700 H   0  0  0  0  0  0  0  0  0  0  0  0
   47.5280   34.8220   43.4630 H   0  0  0  0  0  0  0  0  0  0  0  0
   46.7720   34.2590   41.9140 H   0  0  0  0  0  0  0  0  0  0  0  0
   46.9590   32.5860   43.4050 H   0  0  0  0  0  0  0  0  0  0  0  0
   45.1440   32.8970   43.4060 H   0  0  0  0  0  0  0  0  0  0  0  0
   44.4800   35.2340   41.9550 C   0  0  0  0  0  0  0  0  0  0  0  0
   43.4390   34.4220   42.3700 F   0  0  0  0  0  0  0  0  0  0  0  0
   43.9170   36.4710   41.6560 F   0  0  0  0  0  0  0  0  0  0  0  0
   45.1210   34.7920   40.8130 F   0  0  0  0  0  0  0  0  0  0  0  0
   46.4250   30.4960   44.6770 C   0  0  0  0  0  0  0  0  0  0  0  0
   45.8510   29.8440   43.6330 C   0  0  0  0  0  0  0  0  0  0  0  0
   46.8660   29.3120   42.8340 C   0  0  0  0  0  0  0  0  0  0  0  0
   48.0080   29.6640   43.4260 N   0  0  0  0  0  0  0  0  0  0  0  0
   47.7720   30.3620   44.5120 N   0  0  0  0  0  0  0  0  0  0  0  0
   44.7740   29.8390   43.5870 H   0  0  0  0  0  0  0  0  0  0  0  0
   46.6320   28.7480   41.9420 H   0  0  0  0  0  0  0  0  0  0  0  0
   49.3270   29.2930   42.8910 C   0  0  0  0  0  3  0  0  0  0  0  0
   49.3830   29.7690   41.4920 C   0  0  0  0  0  2  0  0  0  0  0  0
   50.6390   30.4210   41.0360 C   0  0  0  0  0  2  0  0  0  0  0  0
   51.1930   31.3490   42.1230 C   0  0  0  0  0  2  0  0  0  0  0  0
   51.5980   30.3800   43.2240 C   0  0  0  0  0  2  0  0  0  0  0  0
   50.3780   29.7710   43.8100 C   0  0  0  0  0  2  0  0  0  0  0  0
  1  8  1  0  0  0  0
  1  6  1  0  0  0  0
  2  1  2  0  0  0  0
  3  2  1  0  0  0  0
  3  4  2  0  0  0  0
  4  5  1  0  0  0  0
  5  6  2  0  0  0  0
  5  7  1  0  0  0  0
  7 10  1  0  0  0  0
  9  7  1  0  0  0  0
 11 12  1  0  0  0  0
 11 17  1  1  0  0  0
 11  2  1  0  0  0  0
 12 18  1  0  0  0  0
 13 19  1  0  0  0  0
 13 12  2  0  0  0  0
 14 20  1  6  0  0  0
 14 13  1  0  0  0  0
 15 14  1  0  0  0  0
 15 21  1  0  0  0  0
 15 16  1  0  0  0  0
 16 11  1  0  0  0  0
 22 15  1  0  0  0  0
 23 16  1  0  0  0  0
 24 16  1  0  0  0  0
 25 26  1  0  0  0  0
 25 14  1  0  0  0  0
 27 25  1  0  0  0  0
 28 25  1  0  0  0  0
 29  3  1  0  0  0  0
 30 29  1  0  0  0  0
 31 32  1  0  0  0  0
 31 30  2  0  0  0  0
 32 33  1  0  0  0  0
 33 29  2  0  0  0  0
 34 30  1  0  0  0  0
 35 31  1  0  0  0  0
 36 32  1  0  0  0  0
 36 41  1  0  0  0  0
 37 36  1  0  0  0  0
 38 37  1  0  0  0  0
 38 39  1  0  0  0  0
 39 40  1  0  0  0  0
 40 41  1  0  0  0  0
M  END
>  <minimizedAffinity>
-5.82229424

>  <minimizedRMSD>
0.532713175

$$$$
