
 OpenBabel03232517503D

 18 19  0  0  0  0  0  0  0  0999 V2000
   44.9120   35.0280   44.4880 C   0  0  0  0  0  0  0  0  0  0  0  0
   45.9140   34.7700   43.5470 C   0  0  0  0  0  0  0  0  0  0  0  0
   46.9270   33.8600   43.8870 C   0  0  0  0  0  0  0  0  0  0  0  0
   46.8790   33.2730   45.1280 N   0  0  0  0  0  0  0  0  0  0  0  0
   45.8970   33.5540   45.9950 C   0  0  0  0  0  0  0  0  0  0  0  0
   44.9340   34.4190   45.6690 N   0  0  0  0  0  0  0  0  0  0  0  0
   43.8300   35.9190   44.2830 N   0  0  0  0  0  0  0  0  0  0  0  0
   45.8480   35.2920   42.6000 H   0  0  0  0  0  0  0  0  0  0  0  0
   45.9210   33.0520   46.9590 H   0  0  0  0  0  0  0  0  0  0  0  0
   43.4210   35.8270   43.3140 H   0  0  0  0  0  0  0  0  0  0  0  0
   43.5340   36.5640   45.0580 H   0  0  0  0  0  0  0  0  0  0  0  0
   47.9270   33.6090   42.9310 N   0  0  0  0  0  0  0  0  0  0  0  0
   49.0560   34.3230   42.9950 N   0  0  0  0  0  0  0  0  0  0  0  0
   49.8910   33.9570   42.0190 C   0  0  0  0  0  0  0  0  0  0  0  0
   50.8930   34.3430   41.7930 H   0  0  0  0  0  0  0  0  0  0  0  0
   49.2900   32.9490   41.2640 C   0  0  0  0  0  0  0  0  0  0  0  0
   48.0740   32.7800   41.8830 C   0  0  0  0  0  0  0  0  0  0  0  0
   47.2580   32.0880   41.6340 H   0  0  0  0  0  0  0  0  0  0  0  0
  1  6  1  0  0  0  0
  2  3  1  0  0  0  0
  2  1  2  0  0  0  0
  3  4  2  0  0  0  0
  4  5  1  0  0  0  0
  5  9  1  0  0  0  0
  6  5  2  0  0  0  0
  7  1  1  0  0  0  0
  7 11  1  0  0  0  0
  8  2  1  0  0  0  0
 10  7  1  0  0  0  0
 12 13  1  0  0  0  0
 12  3  1  0  0  0  0
 14 13  2  0  0  0  0
 15 14  1  0  0  0  0
 16 17  2  0  0  0  0
 16 14  1  0  0  0  0
 17 12  1  0  0  0  0
 18 17  1  0  0  0  0
M  END
>  <minimizedAffinity>
-4.06785965

>  <minimizedRMSD>
0.586224794

$$$$
