
 OpenBabel03232521013D

 41 44  0  0  1  0  0  0  0  0999 V2000
   45.3570   32.9050   47.5040 C   0  0  0  0  0  0  0  0  0  0  0  0
   45.9160   32.6470   46.2950 C   0  0  0  0  0  0  0  0  0  0  0  0
   46.1880   31.2960   46.0550 C   0  0  0  0  0  0  0  0  0  0  0  0
   45.9240   30.3030   46.9420 N   0  0  0  0  0  0  0  0  0  0  0  0
   45.3520   30.6190   48.1660 C   0  0  0  0  0  0  0  0  0  0  0  0
   45.0860   31.8970   48.4140 N   0  0  0  0  0  0  0  0  0  0  0  0
   45.0750   29.6100   49.1190 N   0  0  0  0  0  0  0  0  0  0  0  0
   45.1110   33.9160   47.7910 H   0  0  0  0  0  0  0  0  0  0  0  0
   44.2790   28.9350   48.9500 H   0  0  0  0  0  0  0  0  0  0  0  0
   45.7230   29.6340   49.9440 H   0  0  0  0  0  0  0  0  0  0  0  0
   46.1640   33.5960   45.2620 C   0  0  2  0  0  0  0  0  0  0  0  0
   44.9480   34.6890   45.4960 C   0  0  0  0  0  0  0  0  0  0  0  0
   44.7170   35.6240   44.4290 C   0  0  0  0  0  0  0  0  0  0  0  0
   45.5170   35.5490   43.2020 C   0  0  1  0  0  0  0  0  0  0  0  0
   46.5720   34.5430   43.1500 C   0  0  0  0  0  0  0  0  0  0  0  0
   46.1220   33.3110   43.9010 C   0  0  0  0  0  0  0  0  0  0  0  0
   46.9350   34.3500   45.6040 H   0  0  0  0  0  0  0  0  0  0  0  0
   44.2720   34.8330   46.3300 H   0  0  0  0  0  0  0  0  0  0  0  0
   43.9460   36.3450   44.5430 H   0  0  0  0  0  0  0  0  0  0  0  0
   45.9480   36.5530   43.0040 H   0  0  0  0  0  0  0  0  0  0  0  0
   47.5120   34.8940   43.6320 H   0  0  0  0  0  0  0  0  0  0  0  0
   46.7990   34.3280   42.0650 H   0  0  0  0  0  0  0  0  0  0  0  0
   46.9630   32.6540   43.5570 H   0  0  0  0  0  0  0  0  0  0  0  0
   45.1460   32.9500   43.5150 H   0  0  0  0  0  0  0  0  0  0  0  0
   44.4980   35.2850   42.0530 C   0  0  0  0  0  0  0  0  0  0  0  0
   43.4400   34.4870   42.4490 F   0  0  0  0  0  0  0  0  0  0  0  0
   43.9540   36.5220   41.7220 F   0  0  0  0  0  0  0  0  0  0  0  0
   45.1670   34.8230   40.9350 F   0  0  0  0  0  0  0  0  0  0  0  0
   46.8380   30.6040   44.9560 C   0  0  0  0  0  0  0  0  0  0  0  0
   46.5100   29.8140   43.9020 C   0  0  0  0  0  0  0  0  0  0  0  0
   47.6870   29.4490   43.2420 C   0  0  0  0  0  0  0  0  0  0  0  0
   48.6740   30.0330   43.9230 N   0  0  0  0  0  0  0  0  0  0  0  0
   48.1970   30.7180   44.9360 N   0  0  0  0  0  0  0  0  0  0  0  0
   45.4640   29.6060   43.7480 H   0  0  0  0  0  0  0  0  0  0  0  0
   47.6590   28.8150   42.3670 H   0  0  0  0  0  0  0  0  0  0  0  0
   50.0890   29.8940   43.5470 C   0  0  0  0  0  3  0  0  0  0  0  0
   50.7660   29.1640   44.6410 C   0  0  0  0  0  2  0  0  0  0  0  0
   51.7330   28.1010   44.2640 C   0  0  0  0  0  2  0  0  0  0  0  0
   51.2010   27.2770   43.0860 C   0  0  0  0  0  2  0  0  0  0  0  0
   51.2080   28.2780   41.9400 C   0  0  0  0  0  2  0  0  0  0  0  0
   50.1790   29.3160   42.1920 C   0  0  0  0  0  2  0  0  0  0  0  0
  1  8  1  0  0  0  0
  1  6  1  0  0  0  0
  2  1  2  0  0  0  0
  3  2  1  0  0  0  0
  3  4  2  0  0  0  0
  4  5  1  0  0  0  0
  5  6  2  0  0  0  0
  5  7  1  0  0  0  0
  7 10  1  0  0  0  0
  9  7  1  0  0  0  0
 11 12  1  0  0  0  0
 11 17  1  1  0  0  0
 11  2  1  0  0  0  0
 12 18  1  0  0  0  0
 13 19  1  0  0  0  0
 13 12  2  0  0  0  0
 14 20  1  6  0  0  0
 14 13  1  0  0  0  0
 15 14  1  0  0  0  0
 15 21  1  0  0  0  0
 15 16  1  0  0  0  0
 16 11  1  0  0  0  0
 22 15  1  0  0  0  0
 23 16  1  0  0  0  0
 24 16  1  0  0  0  0
 25 26  1  0  0  0  0
 25 14  1  0  0  0  0
 27 25  1  0  0  0  0
 28 25  1  0  0  0  0
 29  3  1  0  0  0  0
 30 29  1  0  0  0  0
 31 30  2  0  0  0  0
 31 32  1  0  0  0  0
 32 33  1  0  0  0  0
 33 29  2  0  0  0  0
 34 30  1  0  0  0  0
 35 31  1  0  0  0  0
 36 32  1  0  0  0  0
 36 37  1  0  0  0  0
 38 37  1  0  0  0  0
 39 38  1  0  0  0  0
 40 41  1  0  0  0  0
 40 39  1  0  0  0  0
 41 36  1  0  0  0  0
M  END
>  <minimizedAffinity>
-5.64655161

>  <minimizedRMSD>
0.252896696

$$$$
