
 OpenBabel03232521013D

 41 44  0  0  1  0  0  0  0  0999 V2000
   45.6330   32.8650   47.4480 C   0  0  0  0  0  0  0  0  0  0  0  0
   45.9780   32.5900   46.1650 C   0  0  0  0  0  0  0  0  0  0  0  0
   46.0300   31.2280   45.8540 C   0  0  0  0  0  0  0  0  0  0  0  0
   45.7610   30.2390   46.7450 N   0  0  0  0  0  0  0  0  0  0  0  0
   45.4140   30.5720   48.0460 C   0  0  0  0  0  0  0  0  0  0  0  0
   45.3590   31.8620   48.3620 N   0  0  0  0  0  0  0  0  0  0  0  0
   45.1390   29.5670   49.0030 N   0  0  0  0  0  0  0  0  0  0  0  0
   45.5680   33.8850   47.7930 H   0  0  0  0  0  0  0  0  0  0  0  0
   44.2450   29.0080   48.9340 H   0  0  0  0  0  0  0  0  0  0  0  0
   45.8930   29.4690   49.7260 H   0  0  0  0  0  0  0  0  0  0  0  0
   46.2040   33.5440   45.1310 C   0  0  2  0  0  0  0  0  0  0  0  0
   45.0030   34.6450   45.4050 C   0  0  0  0  0  0  0  0  0  0  0  0
   44.7500   35.5890   44.3510 C   0  0  0  0  0  0  0  0  0  0  0  0
   45.5150   35.5150   43.1020 C   0  0  1  0  0  0  0  0  0  0  0  0
   46.5600   34.5010   43.0140 C   0  0  0  0  0  0  0  0  0  0  0  0
   46.1220   33.2680   43.7700 C   0  0  0  0  0  0  0  0  0  0  0  0
   46.9900   34.2900   45.4560 H   0  0  0  0  0  0  0  0  0  0  0  0
   44.3520   34.7880   46.2590 H   0  0  0  0  0  0  0  0  0  0  0  0
   43.9880   36.3150   44.4910 H   0  0  0  0  0  0  0  0  0  0  0  0
   45.9480   36.5170   42.8980 H   0  0  0  0  0  0  0  0  0  0  0  0
   47.5160   34.8420   43.4720 H   0  0  0  0  0  0  0  0  0  0  0  0
   46.7550   34.2920   41.9220 H   0  0  0  0  0  0  0  0  0  0  0  0
   46.9480   32.6070   43.3980 H   0  0  0  0  0  0  0  0  0  0  0  0
   45.1330   32.9170   43.4090 H   0  0  0  0  0  0  0  0  0  0  0  0
   44.4620   35.2660   41.9800 C   0  0  0  0  0  0  0  0  0  0  0  0
   43.4100   34.4720   42.4000 F   0  0  0  0  0  0  0  0  0  0  0  0
   43.9170   36.5090   41.6740 F   0  0  0  0  0  0  0  0  0  0  0  0
   45.0960   34.8080   40.8400 F   0  0  0  0  0  0  0  0  0  0  0  0
   46.4200   30.5070   44.6560 C   0  0  0  0  0  0  0  0  0  0  0  0
   45.8430   29.8400   43.6230 C   0  0  0  0  0  0  0  0  0  0  0  0
   46.8560   29.3330   42.8040 C   0  0  0  0  0  0  0  0  0  0  0  0
   48.0000   29.7150   43.3740 N   0  0  0  0  0  0  0  0  0  0  0  0
   47.7670   30.4070   44.4650 N   0  0  0  0  0  0  0  0  0  0  0  0
   44.7660   29.8070   43.5980 H   0  0  0  0  0  0  0  0  0  0  0  0
   46.6190   28.7630   41.9170 H   0  0  0  0  0  0  0  0  0  0  0  0
   49.3170   29.3770   42.8140 C   0  0  0  0  0  3  0  0  0  0  0  0
   49.3640   29.9270   41.4420 C   0  0  0  0  0  2  0  0  0  0  0  0
   50.6150   30.6060   41.0150 C   0  0  0  0  0  2  0  0  0  0  0  0
   51.1730   31.4770   42.1470 C   0  0  0  0  0  2  0  0  0  0  0  0
   51.5860   30.4510   43.1930 C   0  0  0  0  0  2  0  0  0  0  0  0
   50.3710   29.8080   43.7520 C   0  0  0  0  0  2  0  0  0  0  0  0
  1  8  1  0  0  0  0
  1  6  1  0  0  0  0
  2  1  2  0  0  0  0
  3  2  1  0  0  0  0
  3  4  2  0  0  0  0
  4  5  1  0  0  0  0
  5  6  2  0  0  0  0
  5  7  1  0  0  0  0
  7 10  1  0  0  0  0
  9  7  1  0  0  0  0
 11 12  1  0  0  0  0
 11 17  1  1  0  0  0
 11  2  1  0  0  0  0
 12 18  1  0  0  0  0
 13 19  1  0  0  0  0
 13 12  2  0  0  0  0
 14 20  1  6  0  0  0
 14 13  1  0  0  0  0
 15 14  1  0  0  0  0
 15 21  1  0  0  0  0
 15 16  1  0  0  0  0
 16 11  1  0  0  0  0
 22 15  1  0  0  0  0
 23 16  1  0  0  0  0
 24 16  1  0  0  0  0
 25 26  1  0  0  0  0
 25 14  1  0  0  0  0
 27 25  1  0  0  0  0
 28 25  1  0  0  0  0
 29  3  1  0  0  0  0
 30 29  1  0  0  0  0
 31 32  1  0  0  0  0
 31 30  2  0  0  0  0
 32 33  1  0  0  0  0
 33 29  2  0  0  0  0
 34 30  1  0  0  0  0
 35 31  1  0  0  0  0
 36 32  1  0  0  0  0
 36 41  1  0  0  0  0
 37 36  1  0  0  0  0
 38 37  1  0  0  0  0
 38 39  1  0  0  0  0
 39 40  1  0  0  0  0
 40 41  1  0  0  0  0
M  END
>  <minimizedAffinity>
-5.83611155

>  <minimizedRMSD>
0.646083891

$$$$
