
 OpenBabel03232517093D

 30 33  0  0  0  0  0  0  0  0999 V2000
   46.6700   34.0180   43.6170 C   0  0  0  0  0  0  0  0  0  0  0  0
   45.5130   34.6220   44.0690 C   0  0  0  0  0  0  0  0  0  0  0  0
   45.2810   34.2140   45.3800 C   0  0  0  0  0  0  0  0  0  0  0  0
   46.3020   33.3780   45.6800 N   0  0  0  0  0  0  0  0  0  0  0  0
   47.1120   33.2630   44.6530 N   0  0  0  0  0  0  0  0  0  0  0  0
   44.8620   35.3030   43.5400 H   0  0  0  0  0  0  0  0  0  0  0  0
   44.4390   34.5360   45.9800 H   0  0  0  0  0  0  0  0  0  0  0  0
   48.6490   35.3430   40.8130 C   0  0  0  0  0  0  0  0  0  0  0  0
   48.0820   34.6500   39.7190 C   0  0  0  0  0  0  0  0  0  0  0  0
   47.0410   33.7520   39.9710 C   0  0  0  0  0  0  0  0  0  0  0  0
   46.6080   33.5720   41.2500 N   0  0  0  0  0  0  0  0  0  0  0  0
   47.1760   34.2530   42.2700 C   0  0  0  0  0  0  0  0  0  0  0  0
   48.1800   35.1280   42.0760 N   0  0  0  0  0  0  0  0  0  0  0  0
   49.4560   36.0550   40.7160 H   0  0  0  0  0  0  0  0  0  0  0  0
   48.4680   34.8410   38.7480 H   0  0  0  0  0  0  0  0  0  0  0  0
   46.5900   33.2100   39.1510 H   0  0  0  0  0  0  0  0  0  0  0  0
   46.4160   32.7520   46.9420 C   0  0  0  0  0  0  0  0  0  0  0  0
   45.5170   32.3020   47.9020 C   0  0  0  0  0  0  0  0  0  0  0  0
   46.3180   31.7830   48.9080 C   0  0  0  0  0  0  0  0  0  0  0  0
   47.6350   31.9370   48.5250 C   0  0  0  0  0  0  0  0  0  0  0  0
   47.6240   32.5150   47.3550 O   0  0  0  0  0  0  0  0  0  0  0  0
   44.4740   32.4080   47.7470 H   0  0  0  0  0  0  0  0  0  0  0  0
   45.9020   31.3560   49.7950 H   0  0  0  0  0  0  0  0  0  0  0  0
   48.7760   31.5290   49.2850 N   0  0  0  0  0  0  0  0  0  0  0  0
   48.6910   30.2980   49.7650 N   0  0  0  0  0  0  0  0  0  0  0  0
   49.8130   29.9970   50.4700 C   0  0  0  0  0  0  0  0  0  0  0  0
   50.1360   29.1170   51.0100 H   0  0  0  0  0  0  0  0  0  0  0  0
   50.6050   31.1380   50.3940 C   0  0  0  0  0  0  0  0  0  0  0  0
   49.9300   32.0640   49.6530 C   0  0  0  0  0  0  0  0  0  0  0  0
   50.1090   33.0830   49.3130 H   0  0  0  0  0  0  0  0  0  0  0  0
  1  2  1  0  0  0  0
  1  5  2  0  0  0  0
  2  3  2  0  0  0  0
  3  4  1  0  0  0  0
  3  7  1  0  0  0  0
  4 17  1  0  0  0  0
  5  4  1  0  0  0  0
  6  2  1  0  0  0  0
  8 13  1  0  0  0  0
  9 10  1  0  0  0  0
  9  8  2  0  0  0  0
 10 11  2  0  0  0  0
 11 12  1  0  0  0  0
 12  1  1  0  0  0  0
 13 12  2  0  0  0  0
 14  8  1  0  0  0  0
 15  9  1  0  0  0  0
 16 10  1  0  0  0  0
 17 21  1  0  0  0  0
 17 18  2  0  0  0  0
 18 19  1  0  0  0  0
 19 23  1  0  0  0  0
 20 19  2  0  0  0  0
 20 24  1  0  0  0  0
 21 20  1  0  0  0  0
 22 18  1  0  0  0  0
 24 29  1  0  0  0  0
 24 25  1  0  0  0  0
 25 26  2  0  0  0  0
 26 27  1  0  0  0  0
 28 26  1  0  0  0  0
 29 28  2  0  0  0  0
 30 29  1  0  0  0  0
M  END
>  <minimizedAffinity>
-5.93839979

>  <minimizedRMSD>
0.398279607

$$$$
