
 OpenBabel03232519483D

 41 44  0  0  1  0  0  0  0  0999 V2000
   46.4570   33.8330   42.3170 N   0  0  0  0  0  0  0  0  0  0  0  0
   47.7670   34.1640   41.7630 C   0  0  0  0  0  0  0  0  0  0  0  0
   47.3930   34.4280   40.3290 C   0  0  0  0  0  0  0  0  0  0  0  0
   46.5550   33.2050   40.0280 C   0  0  0  0  0  0  0  0  0  0  0  0
   45.7790   33.0260   41.2930 C   0  0  2  0  0  0  0  0  0  0  0  0
   48.4710   33.3130   41.7970 H   0  0  0  0  0  0  0  0  0  0  0  0
   48.1580   35.0870   42.2210 H   0  0  0  0  0  0  0  0  0  0  0  0
   46.8110   35.3570   40.2100 H   0  0  0  0  0  0  0  0  0  0  0  0
   48.3000   34.4190   39.7180 H   0  0  0  0  0  0  0  0  0  0  0  0
   45.8510   33.4450   39.2150 H   0  0  0  0  0  0  0  0  0  0  0  0
   47.1670   32.3590   39.7140 H   0  0  0  0  0  0  0  0  0  0  0  0
   46.0040   31.9750   41.6090 H   0  0  0  0  0  0  0  0  0  0  0  0
   44.5620   35.5790   44.9850 C   0  0  0  0  0  0  0  0  0  0  0  0
   45.0750   35.2940   43.7150 C   0  0  0  0  0  0  0  0  0  0  0  0
   45.9070   34.1800   43.5510 C   0  0  0  0  0  0  0  0  0  0  0  0
   46.1660   33.4360   44.6590 N   0  0  0  0  0  0  0  0  0  0  0  0
   45.6620   33.7230   45.8830 C   0  0  0  0  0  0  0  0  0  0  0  0
   44.8660   34.7920   46.0270 N   0  0  0  0  0  0  0  0  0  0  0  0
   43.9400   36.4570   44.9770 H   0  0  0  0  0  0  0  0  0  0  0  0
   44.8910   35.8630   42.8160 H   0  0  0  0  0  0  0  0  0  0  0  0
   45.9320   32.9470   47.0310 N   0  0  0  0  0  0  0  0  0  0  0  0
   44.9740   32.6330   47.8840 N   0  0  0  0  0  0  0  0  0  0  0  0
   45.4830   31.8950   48.8840 C   0  0  0  0  0  0  0  0  0  0  0  0
   44.9200   31.5020   49.7200 H   0  0  0  0  0  0  0  0  0  0  0  0
   46.8350   31.7730   48.5870 C   0  0  0  0  0  0  0  0  0  0  0  0
   47.1290   32.4400   47.4070 C   0  0  0  0  0  0  0  0  0  0  0  0
   48.0710   32.5410   46.9020 H   0  0  0  0  0  0  0  0  0  0  0  0
   44.3800   33.2310   41.2180 N   0  0  0  0  0  0  0  0  0  0  0  0
   43.7400   34.1860   40.5310 C   0  0  0  0  0  0  0  0  0  0  0  0
   42.3590   34.3000   40.5240 C   0  0  0  0  0  0  0  0  0  0  0  0
   41.5900   33.4090   41.2460 C   0  0  0  0  0  0  0  0  0  0  0  0
   40.3120   33.4630   41.2800 O   0  0  0  0  0  0  0  0  0  0  0  0
   42.2440   32.4580   41.9320 N   0  0  0  0  0  0  0  0  0  0  0  0
   43.5680   32.3880   41.9070 C   0  0  0  0  0  0  0  0  0  0  0  0
   44.0850   31.4490   42.5920 O   0  0  0  0  0  0  0  0  0  0  0  0
   44.3540   34.8770   39.9680 H   0  0  0  0  0  0  0  0  0  0  0  0
   41.6660   31.7750   42.4850 H   0  0  0  0  0  0  0  0  0  0  0  0
   41.6730   35.3610   39.7560 C   0  0  0  0  0  0  0  0  0  0  0  0
   42.1920   36.3450   39.9330 H   0  0  0  0  0  0  0  0  0  0  0  0
   40.6420   35.4900   40.1090 H   0  0  0  0  0  0  0  0  0  0  0  0
   41.6780   35.1210   38.6820 H   0  0  0  0  0  0  0  0  0  0  0  0
  1 15  1  0  0  0  0
  2  6  1  0  0  0  0
  2  7  1  0  0  0  0
  2  1  1  0  0  0  0
  3  2  1  0  0  0  0
  4  3  1  0  0  0  0
  4  5  1  0  0  0  0
  5 12  1  1  0  0  0
  5  1  1  0  0  0  0
  8  3  1  0  0  0  0
  9  3  1  0  0  0  0
 10  4  1  0  0  0  0
 11  4  1  0  0  0  0
 13 18  1  0  0  0  0
 14 13  2  0  0  0  0
 15 14  1  0  0  0  0
 15 16  2  0  0  0  0
 16 17  1  0  0  0  0
 17 18  2  0  0  0  0
 17 21  1  0  0  0  0
 19 13  1  0  0  0  0
 20 14  1  0  0  0  0
 21 26  1  0  0  0  0
 21 22  1  0  0  0  0
 22 23  2  0  0  0  0
 23 24  1  0  0  0  0
 25 23  1  0  0  0  0
 26 25  2  0  0  0  0
 27 26  1  0  0  0  0
 28  5  1  0  0  0  0
 28 34  1  0  0  0  0
 29 28  1  0  0  0  0
 30 29  2  0  0  0  0
 30 31  1  0  0  0  0
 31 32  2  0  0  0  0
 31 33  1  0  0  0  0
 33 37  1  0  0  0  0
 34 33  1  0  0  0  0
 34 35  2  0  0  0  0
 36 29  1  0  0  0  0
 38 39  1  0  0  0  0
 38 40  1  0  0  0  0
 38 30  1  0  0  0  0
 41 38  1  0  0  0  0
M  END
>  <minimizedAffinity>
-6.87644672

>  <minimizedRMSD>
0.549869537

$$$$
