
 OpenBabel03232517133D

 37 41  0  0  0  0  0  0  0  0999 V2000
   46.3160   32.7810   46.8950 C   0  0  0  0  0  0  0  0  0  0  0  0
   45.4750   32.6110   47.9750 C   0  0  0  0  0  0  0  0  0  0  0  0
   46.2040   31.8730   48.8850 C   0  0  0  0  0  0  0  0  0  0  0  0
   47.4480   31.6190   48.3440 C   0  0  0  0  0  0  0  0  0  0  0  0
   47.4440   32.1880   47.1640 O   0  0  0  0  0  0  0  0  0  0  0  0
   44.5000   33.0260   47.9450 H   0  0  0  0  0  0  0  0  0  0  0  0
   45.7740   31.5920   49.8400 H   0  0  0  0  0  0  0  0  0  0  0  0
   48.4810   30.8850   48.9880 N   0  0  0  0  0  0  0  0  0  0  0  0
   49.3820   31.1700   49.9600 C   0  0  0  0  0  0  0  0  0  0  0  0
   50.1510   30.0630   50.1910 C   0  0  0  0  0  0  0  0  0  0  0  0
   49.7060   29.1110   49.3520 N   0  0  0  0  0  0  0  0  0  0  0  0
   48.6830   29.5990   48.6070 C   0  0  0  0  0  0  0  0  0  0  0  0
   49.3730   32.1620   50.3920 H   0  0  0  0  0  0  0  0  0  0  0  0
   50.9430   30.0410   50.9250 H   0  0  0  0  0  0  0  0  0  0  0  0
   48.0950   28.7000   47.6560 N   0  0  0  0  0  0  0  0  0  0  0  0
   48.6450   27.7430   46.9280 N   0  0  0  0  0  0  0  0  0  0  0  0
   47.6460   27.2080   46.2060 C   0  0  0  0  0  0  0  0  0  0  0  0
   47.7310   26.3830   45.4840 H   0  0  0  0  0  0  0  0  0  0  0  0
   46.4260   27.8350   46.4790 C   0  0  0  0  0  0  0  0  0  0  0  0
   46.7640   28.7890   47.4180 C   0  0  0  0  0  0  0  0  0  0  0  0
   46.0230   29.4550   47.8400 H   0  0  0  0  0  0  0  0  0  0  0  0
   46.6700   34.0550   43.5810 C   0  0  0  0  0  0  0  0  0  0  0  0
   45.5160   34.7060   44.0290 C   0  0  0  0  0  0  0  0  0  0  0  0
   45.2590   34.2910   45.3370 C   0  0  0  0  0  0  0  0  0  0  0  0
   46.2530   33.4120   45.6370 N   0  0  0  0  0  0  0  0  0  0  0  0
   47.0830   33.2660   44.6200 N   0  0  0  0  0  0  0  0  0  0  0  0
   44.8750   35.4180   43.5240 H   0  0  0  0  0  0  0  0  0  0  0  0
   44.4380   34.6040   45.9820 H   0  0  0  0  0  0  0  0  0  0  0  0
   48.6830   35.3870   40.8230 C   0  0  0  0  0  0  0  0  0  0  0  0
   48.1240   34.7080   39.7190 C   0  0  0  0  0  0  0  0  0  0  0  0
   47.0740   33.8110   39.9430 C   0  0  0  0  0  0  0  0  0  0  0  0
   46.6260   33.6260   41.2240 N   0  0  0  0  0  0  0  0  0  0  0  0
   47.1850   34.2920   42.2440 C   0  0  0  0  0  0  0  0  0  0  0  0
   48.2050   35.1700   42.0780 N   0  0  0  0  0  0  0  0  0  0  0  0
   49.4840   36.0620   40.5910 H   0  0  0  0  0  0  0  0  0  0  0  0
   48.4410   34.8220   38.7100 H   0  0  0  0  0  0  0  0  0  0  0  0
   46.5760   33.2400   39.1770 H   0  0  0  0  0  0  0  0  0  0  0  0
  1  5  1  0  0  0  0
  1  2  2  0  0  0  0
  2  3  1  0  0  0  0
  3  7  1  0  0  0  0
  4  3  2  0  0  0  0
  4  8  1  0  0  0  0
  5  4  1  0  0  0  0
  6  2  1  0  0  0  0
  8  9  1  0  0  0  0
  9 10  2  0  0  0  0
  9 13  1  0  0  0  0
 10 14  1  0  0  0  0
 11 10  1  0  0  0  0
 12  8  1  0  0  0  0
 12 11  2  0  0  0  0
 15 12  1  0  0  0  0
 16 15  1  0  0  0  0
 17 19  1  0  0  0  0
 17 16  2  0  0  0  0
 18 17  1  0  0  0  0
 19 20  2  0  0  0  0
 20 15  1  0  0  0  0
 20 21  1  0  0  0  0
 22 23  1  0  0  0  0
 22 26  2  0  0  0  0
 23 24  2  0  0  0  0
 24 25  1  0  0  0  0
 24 28  1  0  0  0  0
 25  1  1  0  0  0  0
 26 25  1  0  0  0  0
 27 23  1  0  0  0  0
 29 34  1  0  0  0  0
 30 31  1  0  0  0  0
 30 29  2  0  0  0  0
 31 32  2  0  0  0  0
 32 33  1  0  0  0  0
 33 22  1  0  0  0  0
 34 33  2  0  0  0  0
 35 29  1  0  0  0  0
 36 30  1  0  0  0  0
 37 31  1  0  0  0  0
M  END
>  <minimizedAffinity>
-6.179914

>  <minimizedRMSD>
1.35001969

$$$$
