
 OpenBabel03232520113D

 38 41  0  0  1  0  0  0  0  0999 V2000
   49.0810   29.3110   48.7190 N   0  0  0  0  0  0  0  0  0  0  0  0
   49.3050   28.0410   48.0960 C   0  0  0  0  0  0  0  0  0  0  0  0
   50.7630   27.6620   48.0750 C   0  0  0  0  0  0  0  0  0  0  0  0
   51.4800   28.1080   49.3170 C   0  0  0  0  0  0  0  0  0  0  0  0
   50.4790   28.3860   50.4460 C   0  0  0  0  0  0  0  0  0  0  0  0
   49.6880   29.5840   50.0080 C   0  0  1  0  0  0  0  0  0  0  0  0
   48.9170   28.0610   47.0520 H   0  0  0  0  0  0  0  0  0  0  0  0
   48.7400   27.2300   48.6070 H   0  0  0  0  0  0  0  0  0  0  0  0
   50.8010   26.5630   47.9220 H   0  0  0  0  0  0  0  0  0  0  0  0
   51.1950   28.1430   47.1600 H   0  0  0  0  0  0  0  0  0  0  0  0
   52.0970   27.2480   49.6470 H   0  0  0  0  0  0  0  0  0  0  0  0
   52.1090   28.9920   49.1210 H   0  0  0  0  0  0  0  0  0  0  0  0
   49.8780   27.4830   50.5780 H   0  0  0  0  0  0  0  0  0  0  0  0
   51.0780   28.5840   51.3480 H   0  0  0  0  0  0  0  0  0  0  0  0
   48.8530   29.7300   50.7240 H   0  0  0  0  0  0  0  0  0  0  0  0
   47.0280   32.3030   46.9100 C   0  0  0  0  0  0  0  0  0  0  0  0
   46.9460   32.3210   48.2760 C   0  0  0  0  0  0  0  0  0  0  0  0
   47.5960   31.3650   48.9770 C   0  0  0  0  0  0  0  0  0  0  0  0
   48.3050   30.4280   48.2450 C   0  0  0  0  0  0  0  0  0  0  0  0
   48.0480   30.9050   46.5500 S   0  0  0  0  0  0  0  0  0  0  0  0
   46.3590   33.1070   48.7340 H   0  0  0  0  0  0  0  0  0  0  0  0
   47.6040   31.2770   50.0540 H   0  0  0  0  0  0  0  0  0  0  0  0
   44.8450   34.8060   45.3320 C   0  0  0  0  0  0  0  0  0  0  0  0
   45.3680   34.8410   44.0140 C   0  0  0  0  0  0  0  0  0  0  0  0
   46.4620   34.0000   43.7000 C   0  0  0  0  0  0  0  0  0  0  0  0
   46.9690   33.1870   44.6850 N   0  0  0  0  0  0  0  0  0  0  0  0
   46.4450   33.1860   45.9170 C   0  0  0  0  0  0  0  0  0  0  0  0
   45.3940   33.9850   46.2440 N   0  0  0  0  0  0  0  0  0  0  0  0
   44.0150   35.4560   45.5380 H   0  0  0  0  0  0  0  0  0  0  0  0
   44.9860   35.4690   43.2300 H   0  0  0  0  0  0  0  0  0  0  0  0
   46.8930   33.9910   42.7150 H   0  0  0  0  0  0  0  0  0  0  0  0
   50.5360   30.7370   50.0260 N   0  0  0  0  0  0  0  0  0  0  0  0
   50.5450   31.5830   51.0680 N   0  0  0  0  0  0  0  0  0  0  0  0
   51.4130   32.5540   50.8250 C   0  0  0  0  0  0  0  0  0  0  0  0
   51.5670   33.3530   51.5670 H   0  0  0  0  0  0  0  0  0  0  0  0
   51.9970   32.3630   49.6080 C   0  0  0  0  0  0  0  0  0  0  0  0
   51.4160   31.2020   49.1320 C   0  0  0  0  0  0  0  0  0  0  0  0
   51.6360   30.7360   48.1800 H   0  0  0  0  0  0  0  0  0  0  0  0
  1  6  1  0  0  0  0
  2  8  1  0  0  0  0
  2  1  1  0  0  0  0
  3  2  1  0  0  0  0
  3  4  1  0  0  0  0
  4 11  1  0  0  0  0
  4  5  1  0  0  0  0
  5 13  1  0  0  0  0
  5 14  1  0  0  0  0
  6 32  1  0  0  0  0
  6  5  1  0  0  0  0
  6 15  1  1  0  0  0
  7  2  1  0  0  0  0
  9  3  1  0  0  0  0
 10  3  1  0  0  0  0
 12  4  1  0  0  0  0
 16 17  2  0  0  0  0
 17 21  1  0  0  0  0
 17 18  1  0  0  0  0
 18 22  1  0  0  0  0
 19  1  1  0  0  0  0
 19 18  2  0  0  0  0
 20 16  1  0  0  0  0
 20 19  1  0  0  0  0
 23 29  1  0  0  0  0
 23 28  1  0  0  0  0
 24 23  2  0  0  0  0
 25 24  1  0  0  0  0
 25 26  2  0  0  0  0
 26 27  1  0  0  0  0
 27 28  2  0  0  0  0
 27 16  1  0  0  0  0
 30 24  1  0  0  0  0
 31 25  1  0  0  0  0
 32 33  1  0  0  0  0
 34 33  2  0  0  0  0
 34 35  1  0  0  0  0
 36 34  1  0  0  0  0
 37 36  2  0  0  0  0
 37 32  1  0  0  0  0
 38 37  1  0  0  0  0
M  END
>  <minimizedAffinity>
-4.75976896

>  <minimizedRMSD>
1.99387765

$$$$
