
 OpenBabel03232521003D

 41 44  0  0  1  0  0  0  0  0999 V2000
   45.6430   32.8440   47.4200 C   0  0  0  0  0  0  0  0  0  0  0  0
   45.9870   32.5820   46.1340 C   0  0  0  0  0  0  0  0  0  0  0  0
   46.0440   31.2230   45.8100 C   0  0  0  0  0  0  0  0  0  0  0  0
   45.7820   30.2250   46.6920 N   0  0  0  0  0  0  0  0  0  0  0  0
   45.4350   30.5450   47.9970 C   0  0  0  0  0  0  0  0  0  0  0  0
   45.3750   31.8310   48.3250 N   0  0  0  0  0  0  0  0  0  0  0  0
   45.1670   29.5290   48.9450 N   0  0  0  0  0  0  0  0  0  0  0  0
   45.5740   33.8610   47.7740 H   0  0  0  0  0  0  0  0  0  0  0  0
   44.2750   28.9670   48.8720 H   0  0  0  0  0  0  0  0  0  0  0  0
   45.9230   29.4280   49.6660 H   0  0  0  0  0  0  0  0  0  0  0  0
   46.2060   33.5460   45.1090 C   0  0  2  0  0  0  0  0  0  0  0  0
   45.0030   34.6400   45.3960 C   0  0  0  0  0  0  0  0  0  0  0  0
   44.7430   35.5930   44.3520 C   0  0  0  0  0  0  0  0  0  0  0  0
   45.5050   35.5340   43.1000 C   0  0  1  0  0  0  0  0  0  0  0  0
   46.5530   34.5250   43.0000 C   0  0  0  0  0  0  0  0  0  0  0  0
   46.1220   33.2830   43.7450 C   0  0  0  0  0  0  0  0  0  0  0  0
   46.9910   34.2930   45.4380 H   0  0  0  0  0  0  0  0  0  0  0  0
   44.3530   34.7730   46.2530 H   0  0  0  0  0  0  0  0  0  0  0  0
   43.9780   36.3150   44.5000 H   0  0  0  0  0  0  0  0  0  0  0  0
   45.9330   36.5390   42.9040 H   0  0  0  0  0  0  0  0  0  0  0  0
   47.5100   34.8650   43.4580 H   0  0  0  0  0  0  0  0  0  0  0  0
   46.7460   34.3270   41.9050 H   0  0  0  0  0  0  0  0  0  0  0  0
   46.9490   32.6280   43.3650 H   0  0  0  0  0  0  0  0  0  0  0  0
   45.1330   32.9320   43.3830 H   0  0  0  0  0  0  0  0  0  0  0  0
   44.4500   35.2910   41.9780 C   0  0  0  0  0  0  0  0  0  0  0  0
   43.3900   34.5090   42.4010 F   0  0  0  0  0  0  0  0  0  0  0  0
   43.9170   36.5390   41.6680 F   0  0  0  0  0  0  0  0  0  0  0  0
   45.0800   34.8240   40.8400 F   0  0  0  0  0  0  0  0  0  0  0  0
   46.4350   30.5150   44.6050 C   0  0  0  0  0  0  0  0  0  0  0  0
   45.8600   29.8460   43.5720 C   0  0  0  0  0  0  0  0  0  0  0  0
   46.8740   29.3590   42.7430 C   0  0  0  0  0  0  0  0  0  0  0  0
   48.0160   29.7540   43.3060 N   0  0  0  0  0  0  0  0  0  0  0  0
   47.7820   30.4350   44.4020 N   0  0  0  0  0  0  0  0  0  0  0  0
   44.7840   29.7980   43.5550 H   0  0  0  0  0  0  0  0  0  0  0  0
   46.6380   28.7900   41.8540 H   0  0  0  0  0  0  0  0  0  0  0  0
   49.3340   29.4380   42.7340 C   0  0  0  0  0  3  0  0  0  0  0  0
   49.3510   29.9680   41.3530 C   0  0  0  0  0  2  0  0  0  0  0  0
   50.5800   30.6700   40.8990 C   0  0  0  0  0  2  0  0  0  0  0  0
   51.1310   31.5700   42.0110 C   0  0  0  0  0  2  0  0  0  0  0  0
   51.5820   30.5710   43.0660 C   0  0  0  0  0  2  0  0  0  0  0  0
   50.3890   29.9080   43.6510 C   0  0  0  0  0  2  0  0  0  0  0  0
  1  8  1  0  0  0  0
  1  6  1  0  0  0  0
  2  1  2  0  0  0  0
  3  2  1  0  0  0  0
  3  4  2  0  0  0  0
  4  5  1  0  0  0  0
  5  6  2  0  0  0  0
  5  7  1  0  0  0  0
  7 10  1  0  0  0  0
  9  7  1  0  0  0  0
 11 12  1  0  0  0  0
 11 17  1  1  0  0  0
 11  2  1  0  0  0  0
 12 18  1  0  0  0  0
 13 19  1  0  0  0  0
 13 12  2  0  0  0  0
 14 20  1  6  0  0  0
 14 13  1  0  0  0  0
 15 14  1  0  0  0  0
 15 21  1  0  0  0  0
 15 16  1  0  0  0  0
 16 11  1  0  0  0  0
 22 15  1  0  0  0  0
 23 16  1  0  0  0  0
 24 16  1  0  0  0  0
 25 26  1  0  0  0  0
 25 14  1  0  0  0  0
 27 25  1  0  0  0  0
 28 25  1  0  0  0  0
 29  3  1  0  0  0  0
 30 29  1  0  0  0  0
 31 32  1  0  0  0  0
 31 30  2  0  0  0  0
 32 33  1  0  0  0  0
 33 29  2  0  0  0  0
 34 30  1  0  0  0  0
 35 31  1  0  0  0  0
 36 32  1  0  0  0  0
 36 41  1  0  0  0  0
 37 36  1  0  0  0  0
 38 37  1  0  0  0  0
 38 39  1  0  0  0  0
 39 40  1  0  0  0  0
 40 41  1  0  0  0  0
M  END
>  <minimizedAffinity>
-5.82624578

>  <minimizedRMSD>
0.832135379

$$$$
