
 OpenBabel03232520563D

 35 37  0  0  1  0  0  0  0  0999 V2000
   46.1240   33.7560   45.2450 C   0  0  2  0  0  0  0  0  0  0  0  0
   45.0000   34.8350   45.4390 C   0  0  0  0  0  0  0  0  0  0  0  0
   44.7270   35.7090   44.3290 C   0  0  0  0  0  0  0  0  0  0  0  0
   45.4580   35.5790   43.0810 C   0  0  1  0  0  0  0  0  0  0  0  0
   46.5470   34.5990   43.0580 C   0  0  0  0  0  0  0  0  0  0  0  0
   46.1580   33.3780   43.8610 C   0  0  0  0  0  0  0  0  0  0  0  0
   46.9850   34.4460   45.5330 H   0  0  0  0  0  0  0  0  0  0  0  0
   44.3350   35.1100   46.2350 H   0  0  0  0  0  0  0  0  0  0  0  0
   43.9900   36.4660   44.3670 H   0  0  0  0  0  0  0  0  0  0  0  0
   45.8690   36.5730   42.7790 H   0  0  0  0  0  0  0  0  0  0  0  0
   46.6760   34.2550   41.9890 H   0  0  0  0  0  0  0  0  0  0  0  0
   47.5210   34.9420   43.4050 H   0  0  0  0  0  0  0  0  0  0  0  0
   46.8110   32.6070   43.5030 H   0  0  0  0  0  0  0  0  0  0  0  0
   45.1250   33.1120   43.4800 H   0  0  0  0  0  0  0  0  0  0  0  0
   45.1210   32.9880   47.3460 C   0  0  0  0  0  0  0  0  0  0  0  0
   45.9500   32.7880   46.2860 C   0  0  0  0  0  0  0  0  0  0  0  0
   46.6210   31.5570   46.2310 C   0  0  0  0  0  0  0  0  0  0  0  0
   46.4500   30.6310   47.1790 N   0  0  0  0  0  0  0  0  0  0  0  0
   45.6060   30.8590   48.2430 C   0  0  0  0  0  0  0  0  0  0  0  0
   44.9580   32.0200   48.3140 N   0  0  0  0  0  0  0  0  0  0  0  0
   45.4490   29.8740   49.2680 N   0  0  0  0  0  0  0  0  0  0  0  0
   44.5780   33.9090   47.4500 H   0  0  0  0  0  0  0  0  0  0  0  0
   44.8150   29.0260   49.1890 H   0  0  0  0  0  0  0  0  0  0  0  0
   45.9710   29.9290   50.1920 H   0  0  0  0  0  0  0  0  0  0  0  0
   47.5390   30.9790   45.3140 N   0  0  0  0  0  0  0  0  0  0  0  0
   47.8280   31.3120   44.0380 N   0  0  0  0  0  0  0  0  0  0  0  0
   48.7520   30.3990   43.6150 C   0  0  0  0  0  0  0  0  0  0  0  0
   49.1610   30.4330   42.6160 H   0  0  0  0  0  0  0  0  0  0  0  0
   49.0700   29.4720   44.6000 C   0  0  0  0  0  0  0  0  0  0  0  0
   48.2780   29.8750   45.6640 C   0  0  0  0  0  0  0  0  0  0  0  0
   48.2700   29.3670   46.6220 H   0  0  0  0  0  0  0  0  0  0  0  0
   44.4260   35.2440   41.9760 C   0  0  0  0  0  0  0  0  0  0  0  0
   43.4240   34.4110   42.4120 F   0  0  0  0  0  0  0  0  0  0  0  0
   43.8170   36.4520   41.6300 F   0  0  0  0  0  0  0  0  0  0  0  0
   45.0840   34.7780   40.8450 F   0  0  0  0  0  0  0  0  0  0  0  0
  1  2  1  0  0  0  0
  1  7  1  1  0  0  0
  1 16  1  0  0  0  0
  2  8  1  0  0  0  0
  3  9  1  0  0  0  0
  3  2  2  0  0  0  0
  4 10  1  6  0  0  0
  4  3  1  0  0  0  0
  5  4  1  0  0  0  0
  5 12  1  0  0  0  0
  5  6  1  0  0  0  0
  6  1  1  0  0  0  0
 11  5  1  0  0  0  0
 13  6  1  0  0  0  0
 14  6  1  0  0  0  0
 15 22  1  0  0  0  0
 15 20  1  0  0  0  0
 16 15  2  0  0  0  0
 17 16  1  0  0  0  0
 17 18  2  0  0  0  0
 18 19  1  0  0  0  0
 19 20  2  0  0  0  0
 19 21  1  0  0  0  0
 21 24  1  0  0  0  0
 23 21  1  0  0  0  0
 25 30  1  0  0  0  0
 25 17  1  0  0  0  0
 26 25  1  0  0  0  0
 27 26  2  0  0  0  0
 27 29  1  0  0  0  0
 28 27  1  0  0  0  0
 29 30  2  0  0  0  0
 30 31  1  0  0  0  0
 32 33  1  0  0  0  0
 32  4  1  0  0  0  0
 34 32  1  0  0  0  0
 35 32  1  0  0  0  0
M  END
>  <minimizedAffinity>
-5.7706666

>  <minimizedRMSD>
0.605446398

$$$$
