
 OpenBabel03232521013D

 41 44  0  0  1  0  0  0  0  0999 V2000
   45.6170   32.8580   47.4090 C   0  0  0  0  0  0  0  0  0  0  0  0
   46.0050   32.5930   46.1370 C   0  0  0  0  0  0  0  0  0  0  0  0
   46.1110   31.2320   45.8310 C   0  0  0  0  0  0  0  0  0  0  0  0
   45.8520   30.2370   46.7160 N   0  0  0  0  0  0  0  0  0  0  0  0
   45.4590   30.5600   48.0070 C   0  0  0  0  0  0  0  0  0  0  0  0
   45.3520   31.8470   48.3180 N   0  0  0  0  0  0  0  0  0  0  0  0
   45.1920   29.5470   48.9580 N   0  0  0  0  0  0  0  0  0  0  0  0
   45.5090   33.8760   47.7500 H   0  0  0  0  0  0  0  0  0  0  0  0
   44.3190   28.9590   48.8670 H   0  0  0  0  0  0  0  0  0  0  0  0
   45.9290   29.4760   49.7020 H   0  0  0  0  0  0  0  0  0  0  0  0
   46.2270   33.5520   45.1070 C   0  0  2  0  0  0  0  0  0  0  0  0
   45.0060   34.6330   45.3700 C   0  0  0  0  0  0  0  0  0  0  0  0
   44.7490   35.5740   44.3140 C   0  0  0  0  0  0  0  0  0  0  0  0
   45.5290   35.5150   43.0730 C   0  0  1  0  0  0  0  0  0  0  0  0
   46.5910   34.5190   42.9960 C   0  0  0  0  0  0  0  0  0  0  0  0
   46.1650   33.2770   43.7440 C   0  0  0  0  0  0  0  0  0  0  0  0
   46.9970   34.3110   45.4420 H   0  0  0  0  0  0  0  0  0  0  0  0
   44.3430   34.7630   46.2160 H   0  0  0  0  0  0  0  0  0  0  0  0
   43.9730   36.2870   44.4470 H   0  0  0  0  0  0  0  0  0  0  0  0
   45.9470   36.5240   42.8760 H   0  0  0  0  0  0  0  0  0  0  0  0
   47.5370   34.8750   43.4650 H   0  0  0  0  0  0  0  0  0  0  0  0
   46.8020   34.3150   41.9060 H   0  0  0  0  0  0  0  0  0  0  0  0
   47.0060   32.6300   43.3810 H   0  0  0  0  0  0  0  0  0  0  0  0
   45.1860   32.9100   43.3720 H   0  0  0  0  0  0  0  0  0  0  0  0
   44.4930   35.2500   41.9390 C   0  0  0  0  0  0  0  0  0  0  0  0
   43.4530   34.4320   42.3440 F   0  0  0  0  0  0  0  0  0  0  0  0
   43.9250   36.4840   41.6340 F   0  0  0  0  0  0  0  0  0  0  0  0
   45.1480   34.8120   40.8040 F   0  0  0  0  0  0  0  0  0  0  0  0
   46.5570   30.5230   44.6450 C   0  0  0  0  0  0  0  0  0  0  0  0
   46.0330   29.9500   43.5310 C   0  0  0  0  0  0  0  0  0  0  0  0
   47.0770   29.3830   42.7940 C   0  0  0  0  0  0  0  0  0  0  0  0
   48.1850   29.6370   43.4920 N   0  0  0  0  0  0  0  0  0  0  0  0
   47.9030   30.3070   44.5840 N   0  0  0  0  0  0  0  0  0  0  0  0
   44.9660   30.0170   43.3980 H   0  0  0  0  0  0  0  0  0  0  0  0
   46.8830   28.8700   41.8630 H   0  0  0  0  0  0  0  0  0  0  0  0
   49.5180   29.2000   43.0490 C   0  0  0  0  0  3  0  0  0  0  0  0
   50.3840   30.3990   43.0150 C   0  0  0  0  0  2  0  0  0  0  0  0
   51.7630   30.2680   43.5520 C   0  0  0  0  0  2  0  0  0  0  0  0
   51.7680   29.4270   44.8330 C   0  0  0  0  0  2  0  0  0  0  0  0
   51.3770   28.0430   44.3340 C   0  0  0  0  0  2  0  0  0  0  0  0
   49.9630   28.0690   43.8850 C   0  0  0  0  0  2  0  0  0  0  0  0
  1  8  1  0  0  0  0
  1  6  1  0  0  0  0
  2  1  2  0  0  0  0
  3  2  1  0  0  0  0
  3  4  2  0  0  0  0
  4  5  1  0  0  0  0
  5  6  2  0  0  0  0
  5  7  1  0  0  0  0
  7 10  1  0  0  0  0
  9  7  1  0  0  0  0
 11 12  1  0  0  0  0
 11 17  1  1  0  0  0
 11  2  1  0  0  0  0
 12 18  1  0  0  0  0
 13 19  1  0  0  0  0
 13 12  2  0  0  0  0
 14 20  1  6  0  0  0
 14 13  1  0  0  0  0
 15 14  1  0  0  0  0
 15 21  1  0  0  0  0
 15 16  1  0  0  0  0
 16 11  1  0  0  0  0
 22 15  1  0  0  0  0
 23 16  1  0  0  0  0
 24 16  1  0  0  0  0
 25 26  1  0  0  0  0
 25 14  1  0  0  0  0
 27 25  1  0  0  0  0
 28 25  1  0  0  0  0
 29  3  1  0  0  0  0
 30 29  1  0  0  0  0
 31 32  1  0  0  0  0
 31 30  2  0  0  0  0
 32 33  1  0  0  0  0
 33 29  2  0  0  0  0
 34 30  1  0  0  0  0
 35 31  1  0  0  0  0
 36 32  1  0  0  0  0
 36 41  1  0  0  0  0
 37 36  1  0  0  0  0
 37 38  1  0  0  0  0
 38 39  1  0  0  0  0
 40 39  1  0  0  0  0
 41 40  1  0  0  0  0
M  END
>  <minimizedAffinity>
-5.729074

>  <minimizedRMSD>
0.446937859

$$$$
