
 OpenBabel03232518123D

 34 37  0  0  0  0  0  0  0  0999 V2000
   46.3770   30.6860   46.1160 C   0  0  0  0  0  0  0  0  0  0  0  0
   45.6320   31.1310   47.2270 C   0  0  0  0  0  0  0  0  0  0  0  0
   44.9310   30.0260   47.6580 C   0  0  0  0  0  0  0  0  0  0  0  0
   45.2290   28.9910   46.8660 N   0  0  0  0  0  0  0  0  0  0  0  0
   46.0980   29.3630   45.9290 N   0  0  0  0  0  0  0  0  0  0  0  0
   45.7510   32.1520   47.4910 H   0  0  0  0  0  0  0  0  0  0  0  0
   44.2830   30.1540   48.5210 H   0  0  0  0  0  0  0  0  0  0  0  0
   44.6490   27.6990   47.0730 C   0  0  0  0  0  0  0  0  0  0  0  0
   43.4180   27.2350   46.3540 C   0  0  0  0  0  0  0  0  0  0  0  0
   43.2390   25.5280   47.0800 S   0  0  0  0  0  0  0  0  0  0  0  0
   44.7970   25.7740   48.1630 C   0  0  0  0  0  0  0  0  0  0  0  0
   45.1610   26.8120   47.9200 N   0  0  0  0  0  0  0  0  0  0  0  0
   42.9570   27.8620   45.6790 H   0  0  0  0  0  0  0  0  0  0  0  0
   45.3650   24.7680   49.1140 N   0  0  0  0  0  0  0  0  0  0  0  0
   46.0150   23.6140   48.8140 C   0  0  0  0  0  0  0  0  0  0  0  0
   46.3240   23.0670   50.0000 N   0  0  0  0  0  0  0  0  0  0  0  0
   45.8740   23.8660   50.9880 C   0  0  0  0  0  0  0  0  0  0  0  0
   45.2810   24.9190   50.4390 N   0  0  0  0  0  0  0  0  0  0  0  0
   47.5270   31.3960   44.9710 S   0  0  0  0  0  0  0  0  0  0  0  0
   47.1660   34.7190   42.7240 C   0  0  0  0  0  0  0  0  0  0  0  0
   47.7280   33.5470   43.2820 C   0  0  0  0  0  0  0  0  0  0  0  0
   46.9540   32.8600   44.2040 C   0  0  0  0  0  0  0  0  0  0  0  0
   45.7250   33.3380   44.5180 N   0  0  0  0  0  0  0  0  0  0  0  0
   45.2350   34.4650   43.9560 C   0  0  0  0  0  0  0  0  0  0  0  0
   45.9540   35.1360   43.0740 N   0  0  0  0  0  0  0  0  0  0  0  0
   48.7060   33.1460   43.0460 H   0  0  0  0  0  0  0  0  0  0  0  0
   44.2490   34.8510   44.2070 H   0  0  0  0  0  0  0  0  0  0  0  0
   48.0850   35.3710   41.7480 C   0  0  0  0  0  0  0  0  0  0  0  0
   47.9430   34.9400   40.7270 H   0  0  0  0  0  0  0  0  0  0  0  0
   47.7930   36.4450   41.7160 H   0  0  0  0  0  0  0  0  0  0  0  0
   49.5110   35.2870   42.2210 C   0  0  0  0  0  0  0  0  0  0  0  0
   49.5370   35.0840   43.3100 H   0  0  0  0  0  0  0  0  0  0  0  0
   50.0780   36.2070   41.9700 H   0  0  0  0  0  0  0  0  0  0  0  0
   50.0010   34.4540   41.6910 H   0  0  0  0  0  0  0  0  0  0  0  0
  1  2  1  0  0  0  0
  2  6  1  0  0  0  0
  2  3  2  0  0  0  0
  3  7  1  0  0  0  0
  4  8  1  0  0  0  0
  4  3  1  0  0  0  0
  5  1  2  0  0  0  0
  5  4  1  0  0  0  0
  8 12  1  0  0  0  0
  9  8  2  0  0  0  0
  9 10  1  0  0  0  0
 10 11  1  0  0  0  0
 11 14  1  0  0  0  0
 12 11  2  0  0  0  0
 13  9  1  0  0  0  0
 14 18  1  0  0  0  0
 15 14  1  0  0  0  0
 15 16  2  0  0  0  0
 16 17  1  0  0  0  0
 18 17  2  0  0  0  0
 19  1  1  0  0  0  0
 20 25  2  0  0  0  0
 20 21  1  0  0  0  0
 21 22  2  0  0  0  0
 22 23  1  0  0  0  0
 22 19  1  0  0  0  0
 24 27  1  0  0  0  0
 24 23  2  0  0  0  0
 25 24  1  0  0  0  0
 26 21  1  0  0  0  0
 28 31  1  0  0  0  0
 28 20  1  0  0  0  0
 29 28  1  0  0  0  0
 30 28  1  0  0  0  0
 31 32  1  0  0  0  0
 33 31  1  0  0  0  0
 34 31  1  0  0  0  0
M  END
>  <minimizedAffinity>
-5.43394852

>  <minimizedRMSD>
0.979683638

$$$$
