
 OpenBabel03232520533D

 31 33  0  0  1  0  0  0  0  0999 V2000
   45.1940   34.0190   42.3330 C   0  0  2  0  0  0  0  0  0  0  0  0
   44.6100   35.3530   42.7290 C   0  0  0  0  0  0  0  0  0  0  0  0
   43.6410   35.9340   41.8320 C   0  0  0  0  0  0  0  0  0  0  0  0
   43.2490   35.2640   40.6070 C   0  0  1  0  0  0  0  0  0  0  0  0
   43.9480   34.0020   40.2780 C   0  0  0  0  0  0  0  0  0  0  0  0
   44.2280   33.2220   41.5280 C   0  0  0  0  0  0  0  0  0  0  0  0
   46.0690   34.2660   41.6600 H   0  0  0  0  0  0  0  0  0  0  0  0
   44.7250   36.0360   43.5590 H   0  0  0  0  0  0  0  0  0  0  0  0
   43.1750   36.8660   42.0220 H   0  0  0  0  0  0  0  0  0  0  0  0
   43.3850   35.9640   39.7510 H   0  0  0  0  0  0  0  0  0  0  0  0
   43.3290   33.4140   39.5740 H   0  0  0  0  0  0  0  0  0  0  0  0
   44.9070   34.1870   39.7530 H   0  0  0  0  0  0  0  0  0  0  0  0
   44.7460   32.2930   41.2110 H   0  0  0  0  0  0  0  0  0  0  0  0
   43.3190   32.9410   42.0670 H   0  0  0  0  0  0  0  0  0  0  0  0
   45.6530   33.9730   44.7340 C   0  0  0  0  0  0  0  0  0  0  0  0
   45.7500   33.3560   43.5020 C   0  0  0  0  0  0  0  0  0  0  0  0
   46.3970   32.1220   43.4550 C   0  0  0  0  0  0  0  0  0  0  0  0
   46.9010   31.5740   44.5950 N   0  0  0  0  0  0  0  0  0  0  0  0
   46.7910   32.2030   45.7930 C   0  0  0  0  0  0  0  0  0  0  0  0
   46.1640   33.4070   45.8630 N   0  0  0  0  0  0  0  0  0  0  0  0
   45.1890   34.9250   44.9460 H   0  0  0  0  0  0  0  0  0  0  0  0
   46.4970   31.6030   42.5160 H   0  0  0  0  0  0  0  0  0  0  0  0
   47.3280   31.6050   46.9680 N   0  0  0  0  0  0  0  0  0  0  0  0
   47.2100   32.1830   48.1900 C   0  0  0  0  0  0  0  0  0  0  0  0
   47.7910   31.4420   49.1450 N   0  0  0  0  0  0  0  0  0  0  0  0
   48.2920   30.3570   48.4880 C   0  0  0  0  0  0  0  0  0  0  0  0
   48.0070   30.4640   47.1670 N   0  0  0  0  0  0  0  0  0  0  0  0
   41.7400   35.0080   40.6630 C   0  0  0  0  0  0  0  0  0  0  0  0
   41.2450   35.0100   41.9520 F   0  0  0  0  0  0  0  0  0  0  0  0
   41.1110   36.0610   40.0080 F   0  0  0  0  0  0  0  0  0  0  0  0
   41.4240   33.8530   39.9720 F   0  0  0  0  0  0  0  0  0  0  0  0
  1  7  1  6  0  0  0
  1  2  1  0  0  0  0
  1 16  1  0  0  0  0
  2  8  1  0  0  0  0
  3  9  1  0  0  0  0
  3  2  2  0  0  0  0
  4 10  1  6  0  0  0
  4 28  1  0  0  0  0
  4  3  1  0  0  0  0
  5  4  1  0  0  0  0
  5  6  1  0  0  0  0
  6 14  1  0  0  0  0
  6  1  1  0  0  0  0
 11  5  1  0  0  0  0
 12  5  1  0  0  0  0
 13  6  1  0  0  0  0
 15 21  1  0  0  0  0
 15 20  1  0  0  0  0
 16 15  2  0  0  0  0
 17 16  1  0  0  0  0
 17 18  2  0  0  0  0
 18 19  1  0  0  0  0
 19 20  2  0  0  0  0
 19 23  1  0  0  0  0
 22 17  1  0  0  0  0
 23 27  1  0  0  0  0
 23 24  1  0  0  0  0
 24 25  2  0  0  0  0
 26 25  1  0  0  0  0
 27 26  2  0  0  0  0
 28 29  1  0  0  0  0
 30 28  1  0  0  0  0
 31 28  1  0  0  0  0
M  END
>  <minimizedAffinity>
-5.30350733

>  <minimizedRMSD>
3.43688035

$$$$
