
 OpenBabel03232519093D

 42 44  0  0  1  0  0  0  0  0999 V2000
   45.9220   32.0160   42.2180 C   0  0  0  0  0  0  0  0  0  0  0  0
   46.6680   32.2390   45.8120 C   0  0  0  0  0  0  0  0  0  0  0  0
   45.9760   33.3700   46.1190 C   0  0  0  0  0  0  0  0  0  0  0  0
   45.2650   33.8400   44.5420 S   0  0  0  0  0  0  0  0  0  0  0  0
   46.0670   32.3400   43.6750 C   0  0  0  0  0  0  0  0  0  0  0  0
   46.5940   31.8960   44.5810 N   0  0  0  0  0  0  0  0  0  0  0  0
   45.7990   33.9660   47.0370 H   0  0  0  0  0  0  0  0  0  0  0  0
   48.3640   31.3120   49.0800 C   0  0  0  0  0  0  0  0  0  0  0  0
   47.6490   32.0410   48.1310 C   0  0  0  0  0  0  0  0  0  0  0  0
   47.4150   31.5160   46.8530 C   0  0  0  0  0  0  0  0  0  0  0  0
   47.9360   30.2930   46.6670 N   0  0  0  0  0  0  0  0  0  0  0  0
   48.6220   29.5670   47.5420 C   0  0  0  0  0  0  0  0  0  0  0  0
   48.8220   30.0980   48.7400 N   0  0  0  0  0  0  0  0  0  0  0  0
   48.5090   31.7760   50.0500 H   0  0  0  0  0  0  0  0  0  0  0  0
   47.2610   33.0200   48.3560 H   0  0  0  0  0  0  0  0  0  0  0  0
   48.9790   28.5990   47.2500 H   0  0  0  0  0  0  0  0  0  0  0  0
   44.5120   31.5440   42.0040 C   0  0  0  0  0  0  0  0  0  0  0  0
   44.3060   30.6330   42.6130 H   0  0  0  0  0  0  0  0  0  0  0  0
   43.8110   32.3300   42.3930 H   0  0  0  0  0  0  0  0  0  0  0  0
   44.3170   31.3320   40.9340 H   0  0  0  0  0  0  0  0  0  0  0  0
   46.9120   30.9460   41.9150 C   0  0  0  0  0  0  0  0  0  0  0  0
   47.7610   30.9530   42.6310 H   0  0  0  0  0  0  0  0  0  0  0  0
   47.3640   31.1490   40.9240 H   0  0  0  0  0  0  0  0  0  0  0  0
   46.4520   29.9370   41.8720 H   0  0  0  0  0  0  0  0  0  0  0  0
   46.2020   33.2190   41.4040 C   0  0  2  0  0  0  0  0  0  0  0  0
   45.9840   32.8910   40.3550 H   0  0  0  0  0  0  0  0  0  0  0  0
   47.5280   33.6850   41.4870 N   0  0  0  0  0  0  0  0  0  0  0  0
   48.6990   34.1790   42.0960 C   0  0  0  0  0  0  0  0  0  0  0  0
   49.8550   34.6340   42.1430 O   0  0  0  0  0  0  0  0  0  0  0  0
   48.5400   34.2070   43.5370 N   0  0  0  0  0  0  0  0  0  0  0  0
   48.1310   34.9870   44.0530 H   0  0  0  0  0  0  0  0  0  0  0  0
   48.8470   33.4030   44.1620 H   0  0  0  0  0  0  0  0  0  0  0  0
   48.2800   33.8410   40.2100 C   0  0  0  0  0  0  0  0  0  0  0  0
   47.3290   33.4960   39.2270 F   0  0  0  0  0  0  0  0  0  0  0  0
   49.3350   33.1010   40.1230 F   0  0  0  0  0  0  0  0  0  0  0  0
   48.4810   35.2250   40.0230 F   0  0  0  0  0  0  0  0  0  0  0  0
   45.1940   34.3360   41.5520 C   0  0  0  0  0  0  0  0  0  0  0  0
   43.8910   34.4110   41.0640 C   0  0  0  0  0  0  0  0  0  0  0  0
   43.3100   35.6070   41.4230 C   0  0  0  0  0  0  0  0  0  0  0  0
   44.3000   36.2400   42.1340 C   0  0  0  0  0  0  0  0  0  0  0  0
   44.2060   37.2310   42.5860 H   0  0  0  0  0  0  0  0  0  0  0  0
   45.3400   35.4850   42.1790 O   0  0  0  0  0  0  0  0  0  0  0  0
  1  5  1  0  0  0  0
  2  3  2  0  0  0  0
  2 10  1  0  0  0  0
  3  7  1  0  0  0  0
  4  3  1  0  0  0  0
  5  4  1  0  0  0  0
  5  6  2  0  0  0  0
  6  2  1  0  0  0  0
  8 14  1  0  0  0  0
  9 15  1  0  0  0  0
  9  8  2  0  0  0  0
 10  9  1  0  0  0  0
 11 10  2  0  0  0  0
 11 12  1  0  0  0  0
 12 13  2  0  0  0  0
 13  8  1  0  0  0  0
 16 12  1  0  0  0  0
 17  1  1  0  0  0  0
 17 19  1  0  0  0  0
 17 18  1  0  0  0  0
 20 17  1  0  0  0  0
 21  1  1  0  0  0  0
 21 22  1  0  0  0  0
 23 21  1  0  0  0  0
 24 21  1  0  0  0  0
 25 26  1  6  0  0  0
 25 27  1  0  0  0  0
 25 37  1  0  0  0  0
 25  1  1  0  0  0  0
 27 28  1  0  0  0  0
 28 29  2  0  0  0  0
 28 30  1  0  0  0  0
 30 31  1  0  0  0  0
 30 32  1  0  0  0  0
 33 27  1  0  0  0  0
 34 33  1  0  0  0  0
 35 33  1  0  0  0  0
 36 33  1  0  0  0  0
 37 42  1  0  0  0  0
 38 39  1  0  0  0  0
 38 37  2  0  0  0  0
 39 40  2  0  0  0  0
 40 42  1  0  0  0  0
 40 41  1  0  0  0  0
M  END
>  <minimizedAffinity>
-5.30531645

>  <minimizedRMSD>
1.50146544

$$$$
