
 OpenBabel03232520143D

 30 32  0  0  0  0  0  0  0  0999 V2000
   47.4630   34.0360   42.3870 C   0  0  0  0  0  0  0  0  0  0  0  0
   48.2350   35.2160   41.8330 C   0  0  0  0  0  0  0  0  0  0  0  0
   49.6180   35.3630   42.3390 C   0  0  0  0  0  0  0  0  0  0  0  0
   50.3860   34.0830   42.4240 C   0  0  0  0  0  0  0  0  0  0  0  0
   49.5630   32.8530   42.1660 C   0  0  0  0  0  0  0  0  0  0  0  0
   48.2910   32.9640   42.9860 C   0  0  0  0  0  0  0  0  0  0  0  0
   47.6550   36.1340   42.0500 H   0  0  0  0  0  0  0  0  0  0  0  0
   48.2280   35.1250   40.7080 H   0  0  0  0  0  0  0  0  0  0  0  0
   50.1620   36.0150   41.6000 H   0  0  0  0  0  0  0  0  0  0  0  0
   49.6400   35.9530   43.2950 H   0  0  0  0  0  0  0  0  0  0  0  0
   50.7390   33.9930   43.4910 H   0  0  0  0  0  0  0  0  0  0  0  0
   51.3270   34.1000   41.8360 H   0  0  0  0  0  0  0  0  0  0  0  0
   50.1540   31.9980   42.5900 H   0  0  0  0  0  0  0  0  0  0  0  0
   49.3990   32.7370   41.0960 H   0  0  0  0  0  0  0  0  0  0  0  0
   48.5810   33.2790   44.0090 H   0  0  0  0  0  0  0  0  0  0  0  0
   47.7240   32.0220   42.9680 H   0  0  0  0  0  0  0  0  0  0  0  0
   45.3860   34.2420   45.4530 C   0  0  0  0  0  0  0  0  0  0  0  0
   44.5880   35.3880   45.2030 C   0  0  0  0  0  0  0  0  0  0  0  0
   44.7800   36.0690   43.9880 C   0  0  0  0  0  0  0  0  0  0  0  0
   45.7180   35.5870   43.1290 N   0  0  0  0  0  0  0  0  0  0  0  0
   46.4640   34.4960   43.3900 C   0  0  0  0  0  0  0  0  0  0  0  0
   46.2890   33.8290   44.5610 N   0  0  0  0  0  0  0  0  0  0  0  0
   45.2480   33.7140   46.3770 H   0  0  0  0  0  0  0  0  0  0  0  0
   43.8570   35.7560   45.8810 H   0  0  0  0  0  0  0  0  0  0  0  0
   44.2120   36.9500   43.7230 H   0  0  0  0  0  0  0  0  0  0  0  0
   46.6590   33.4250   41.3130 N   0  0  0  0  0  0  0  0  0  0  0  0
   46.7540   33.8720   40.0610 C   0  0  0  0  0  0  0  0  0  0  0  0
   45.9230   33.1590   39.2550 N   0  0  0  0  0  0  0  0  0  0  0  0
   45.3240   32.2740   40.0440 C   0  0  0  0  0  0  0  0  0  0  0  0
   45.7820   32.4470   41.2960 N   0  0  0  0  0  0  0  0  0  0  0  0
  1  6  1  0  0  0  0
  1 21  1  0  0  0  0
  2  7  1  0  0  0  0
  2  3  1  0  0  0  0
  2  1  1  0  0  0  0
  3  4  1  0  0  0  0
  3 10  1  0  0  0  0
  4 11  1  0  0  0  0
  5  4  1  0  0  0  0
  5 13  1  0  0  0  0
  5  6  1  0  0  0  0
  6 15  1  0  0  0  0
  8  2  1  0  0  0  0
  9  3  1  0  0  0  0
 12  4  1  0  0  0  0
 14  5  1  0  0  0  0
 16  6  1  0  0  0  0
 17 23  1  0  0  0  0
 18 17  1  0  0  0  0
 18 24  1  0  0  0  0
 19 18  2  0  0  0  0
 20 21  2  0  0  0  0
 20 19  1  0  0  0  0
 21 22  1  0  0  0  0
 22 17  2  0  0  0  0
 25 19  1  0  0  0  0
 26  1  1  0  0  0  0
 27 26  1  0  0  0  0
 28 29  1  0  0  0  0
 28 27  2  0  0  0  0
 29 30  2  0  0  0  0
 30 26  1  0  0  0  0
M  END
>  <minimizedAffinity>
-5.18407488

>  <minimizedRMSD>
0.138590068

$$$$
