
 OpenBabel03232521003D

 40 43  0  0  1  0  0  0  0  0999 V2000
   45.4390   32.9280   47.5740 C   0  0  0  0  0  0  0  0  0  0  0  0
   45.9340   32.6490   46.3420 C   0  0  0  0  0  0  0  0  0  0  0  0
   46.1260   31.2840   46.0880 C   0  0  0  0  0  0  0  0  0  0  0  0
   45.8460   30.3020   46.9820 N   0  0  0  0  0  0  0  0  0  0  0  0
   45.3400   30.6400   48.2290 C   0  0  0  0  0  0  0  0  0  0  0  0
   45.1520   31.9290   48.4920 N   0  0  0  0  0  0  0  0  0  0  0  0
   45.0450   29.6420   49.1840 N   0  0  0  0  0  0  0  0  0  0  0  0
   45.2580   33.9460   47.8790 H   0  0  0  0  0  0  0  0  0  0  0  0
   44.5520   28.7820   48.8210 H   0  0  0  0  0  0  0  0  0  0  0  0
   45.2580   29.6620   50.1910 H   0  0  0  0  0  0  0  0  0  0  0  0
   46.1850   33.5870   45.3020 C   0  0  2  0  0  0  0  0  0  0  0  0
   44.9600   34.6710   45.5050 C   0  0  0  0  0  0  0  0  0  0  0  0
   44.7370   35.5840   44.4200 C   0  0  0  0  0  0  0  0  0  0  0  0
   45.5460   35.5060   43.2060 C   0  0  1  0  0  0  0  0  0  0  0  0
   46.6140   34.5080   43.1770 C   0  0  0  0  0  0  0  0  0  0  0  0
   46.1710   33.2830   43.9420 C   0  0  0  0  0  0  0  0  0  0  0  0
   46.9520   34.3470   45.6370 H   0  0  0  0  0  0  0  0  0  0  0  0
   44.2750   34.8150   46.3310 H   0  0  0  0  0  0  0  0  0  0  0  0
   43.9650   36.3000   44.5030 H   0  0  0  0  0  0  0  0  0  0  0  0
   45.9590   36.5180   42.9920 H   0  0  0  0  0  0  0  0  0  0  0  0
   46.7800   34.2430   42.0910 H   0  0  0  0  0  0  0  0  0  0  0  0
   47.6190   34.8580   43.5170 H   0  0  0  0  0  0  0  0  0  0  0  0
   47.0340   32.6370   43.6340 H   0  0  0  0  0  0  0  0  0  0  0  0
   45.2290   32.9250   43.4770 H   0  0  0  0  0  0  0  0  0  0  0  0
   44.5460   35.2110   42.0480 C   0  0  0  0  0  0  0  0  0  0  0  0
   43.5200   34.3690   42.4280 F   0  0  0  0  0  0  0  0  0  0  0  0
   43.9500   36.4270   41.7270 F   0  0  0  0  0  0  0  0  0  0  0  0
   45.2390   34.7920   40.9280 F   0  0  0  0  0  0  0  0  0  0  0  0
   46.6920   30.5650   44.9600 C   0  0  0  0  0  0  0  0  0  0  0  0
   46.2780   29.9640   43.8140 C   0  0  0  0  0  0  0  0  0  0  0  0
   47.4000   29.4030   43.1860 C   0  0  0  0  0  0  0  0  0  0  0  0
   48.4330   29.6900   43.9790 N   0  0  0  0  0  0  0  0  0  0  0  0
   48.0400   30.3740   45.0270 N   0  0  0  0  0  0  0  0  0  0  0  0
   45.2230   30.0120   43.5860 H   0  0  0  0  0  0  0  0  0  0  0  0
   47.1910   28.8930   42.2580 H   0  0  0  0  0  0  0  0  0  0  0  0
   49.7560   29.2360   43.5900 C   0  0  0  0  0  3  0  0  0  0  0  0
   50.4320   30.1560   42.6340 C   0  0  0  0  0  2  0  0  0  0  0  0
   51.8190   30.4320   43.2250 C   0  0  0  0  0  2  0  0  0  0  0  0
   52.0380   29.2390   44.1360 C   0  0  0  0  0  2  0  0  0  0  0  0
   50.6780   29.1330   44.7900 C   0  0  0  0  0  2  0  0  0  0  0  0
  1  8  1  0  0  0  0
  1  6  1  0  0  0  0
  2  1  2  0  0  0  0
  3  2  1  0  0  0  0
  3  4  2  0  0  0  0
  4  5  1  0  0  0  0
  5  6  2  0  0  0  0
  5  7  1  0  0  0  0
  7 10  1  0  0  0  0
  9  7  1  0  0  0  0
 11 12  1  0  0  0  0
 11 17  1  1  0  0  0
 11  2  1  0  0  0  0
 12 18  1  0  0  0  0
 13 19  1  0  0  0  0
 13 12  2  0  0  0  0
 14 20  1  6  0  0  0
 14 13  1  0  0  0  0
 15 14  1  0  0  0  0
 15 22  1  0  0  0  0
 15 16  1  0  0  0  0
 16 11  1  0  0  0  0
 21 15  1  0  0  0  0
 23 16  1  0  0  0  0
 24 16  1  0  0  0  0
 25 26  1  0  0  0  0
 25 14  1  0  0  0  0
 27 25  1  0  0  0  0
 28 25  1  0  0  0  0
 29 33  2  0  0  0  0
 29  3  1  0  0  0  0
 30 29  1  0  0  0  0
 31 30  2  0  0  0  0
 31 32  1  0  0  0  0
 32 33  1  0  0  0  0
 34 30  1  0  0  0  0
 35 31  1  0  0  0  0
 36 32  1  0  0  0  0
 36 40  1  0  0  0  0
 37 38  1  0  0  0  0
 37 36  1  0  0  0  0
 38 39  1  0  0  0  0
 39 40  1  0  0  0  0
M  END
>  <minimizedAffinity>
-5.86550379

>  <minimizedRMSD>
0.20890148

$$$$
