
 OpenBabel03232519443D

 43 46  0  0  0  0  0  0  0  0999 V2000
   46.5170   34.4510   41.9870 N   0  0  0  0  0  0  0  0  0  0  0  0
   47.6680   35.2080   41.8760 C   0  0  0  0  0  0  0  0  0  0  0  0
   48.4180   35.2080   40.7290 C   0  0  0  0  0  0  0  0  0  0  0  0
   47.9780   34.4110   39.6680 C   0  0  0  0  0  0  0  0  0  0  0  0
   48.6400   34.4000   38.6190 O   0  0  0  0  0  0  0  0  0  0  0  0
   46.8510   33.6950   39.8380 N   0  0  0  0  0  0  0  0  0  0  0  0
   46.1380   33.7170   40.9720 C   0  0  0  0  0  0  0  0  0  0  0  0
   45.1140   33.1010   41.1820 O   0  0  0  0  0  0  0  0  0  0  0  0
   48.0620   35.8440   42.6590 H   0  0  0  0  0  0  0  0  0  0  0  0
   49.3190   35.7880   40.6090 H   0  0  0  0  0  0  0  0  0  0  0  0
   44.4900   35.8980   44.7200 C   0  0  0  0  0  0  0  0  0  0  0  0
   45.0800   35.7230   43.4400 C   0  0  0  0  0  0  0  0  0  0  0  0
   45.9200   34.6250   43.2850 C   0  0  0  0  0  0  0  0  0  0  0  0
   46.1520   33.7750   44.3190 N   0  0  0  0  0  0  0  0  0  0  0  0
   45.5630   33.9890   45.5200 C   0  0  0  0  0  0  0  0  0  0  0  0
   44.7440   35.0320   45.7230 N   0  0  0  0  0  0  0  0  0  0  0  0
   43.8420   36.7380   44.8530 H   0  0  0  0  0  0  0  0  0  0  0  0
   44.8630   36.4320   42.6430 H   0  0  0  0  0  0  0  0  0  0  0  0
   45.8410   33.0650   46.5700 N   0  0  0  0  0  0  0  0  0  0  0  0
   46.8070   32.1290   46.6200 C   0  0  0  0  0  0  0  0  0  0  0  0
   46.7440   31.4500   47.7880 N   0  0  0  0  0  0  0  0  0  0  0  0
   45.7150   31.9730   48.4860 C   0  0  0  0  0  0  0  0  0  0  0  0
   45.1930   32.9460   47.7180 N   0  0  0  0  0  0  0  0  0  0  0  0
   46.3700   32.8670   38.8020 C   0  0  0  0  0  0  0  0  0  0  0  0
   45.4590   33.2660   37.8520 C   0  0  0  0  0  0  0  0  0  0  0  0
   45.0310   32.4080   36.8720 C   0  0  0  0  0  0  0  0  0  0  0  0
   45.5070   31.1160   36.8180 C   0  0  0  0  0  0  0  0  0  0  0  0
   46.4050   30.7390   37.7640 C   0  0  0  0  0  0  0  0  0  0  0  0
   46.8810   31.5730   38.7910 C   0  0  0  0  0  0  0  0  0  0  0  0
   45.0800   34.2670   37.8800 H   0  0  0  0  0  0  0  0  0  0  0  0
   44.3100   32.7050   36.1110 H   0  0  0  0  0  0  0  0  0  0  0  0
   45.1680   30.4390   36.0450 H   0  0  0  0  0  0  0  0  0  0  0  0
   46.7590   29.7000   37.6840 H   0  0  0  0  0  0  0  0  0  0  0  0
   47.8700   31.0580   39.7760 C   0  0  0  0  0  0  0  0  0  0  0  0
   48.0210   29.9740   39.4640 H   0  0  0  0  0  0  0  0  0  0  0  0
   49.1940   31.7350   39.7620 C   0  0  0  0  0  0  0  0  0  0  0  0
   49.4880   32.3090   40.6560 H   0  0  0  0  0  0  0  0  0  0  0  0
   49.6540   31.9430   38.8070 H   0  0  0  0  0  0  0  0  0  0  0  0
   49.9030   30.8510   40.0380 H   0  0  0  0  0  0  0  0  0  0  0  0
   47.3800   31.0820   41.1890 C   0  0  0  0  0  0  0  0  0  0  0  0
   47.8980   31.7790   41.8730 H   0  0  0  0  0  0  0  0  0  0  0  0
   47.8940   30.1390   41.6370 H   0  0  0  0  0  0  0  0  0  0  0  0
   46.3690   30.7850   41.3810 H   0  0  0  0  0  0  0  0  0  0  0  0
  1 13  1  0  0  0  0
  2  1  1  0  0  0  0
  2  9  1  0  0  0  0
  3  2  2  0  0  0  0
  4  6  1  0  0  0  0
  4  3  1  0  0  0  0
  5  4  2  0  0  0  0
  6  7  1  0  0  0  0
  7  8  2  0  0  0  0
  7  1  1  0  0  0  0
 10  3  1  0  0  0  0
 11 17  1  0  0  0  0
 11 16  1  0  0  0  0
 12 11  2  0  0  0  0
 13 12  1  0  0  0  0
 13 14  2  0  0  0  0
 14 15  1  0  0  0  0
 15 16  2  0  0  0  0
 15 19  1  0  0  0  0
 18 12  1  0  0  0  0
 19 20  1  0  0  0  0
 19 23  1  0  0  0  0
 20 21  2  0  0  0  0
 21 22  1  0  0  0  0
 23 22  2  0  0  0  0
 24  6  1  0  0  0  0
 25 30  1  0  0  0  0
 25 24  2  0  0  0  0
 26 25  1  0  0  0  0
 27 26  2  0  0  0  0
 27 28  1  0  0  0  0
 28 29  2  0  0  0  0
 29 24  1  0  0  0  0
 29 34  1  0  0  0  0
 31 26  1  0  0  0  0
 32 27  1  0  0  0  0
 33 28  1  0  0  0  0
 34 40  1  0  0  0  0
 35 34  1  0  0  0  0
 36 34  1  0  0  0  0
 36 39  1  0  0  0  0
 36 37  1  0  0  0  0
 38 36  1  0  0  0  0
 40 43  1  0  0  0  0
 40 42  1  0  0  0  0
 40 41  1  0  0  0  0
M  END
>  <minimizedAffinity>
-6.54761028

>  <minimizedRMSD>
0.101935096

$$$$
