
 OpenBabel03232520383D

 15 16  0  0  0  0  0  0  0  0999 V2000
   44.5320   35.4770   44.6350 C   0  0  0  0  0  0  0  0  0  0  0  0
   44.7030   34.8260   43.3970 C   0  0  0  0  0  0  0  0  0  0  0  0
   45.2730   33.5430   43.3720 C   0  0  0  0  0  0  0  0  0  0  0  0
   45.6370   32.9830   44.5780 N   0  0  0  0  0  0  0  0  0  0  0  0
   45.4500   33.6530   45.7270 C   0  0  0  0  0  0  0  0  0  0  0  0
   44.9120   34.8730   45.7870 N   0  0  0  0  0  0  0  0  0  0  0  0
   44.0830   36.4740   44.5940 H   0  0  0  0  0  0  0  0  0  0  0  0
   45.3900   33.0730   42.4170 H   0  0  0  0  0  0  0  0  0  0  0  0
   45.8550   33.0020   46.9270 N   0  0  0  0  0  0  0  0  0  0  0  0
   47.0940   32.5010   47.2100 C   0  0  0  0  0  0  0  0  0  0  0  0
   47.1170   31.9570   48.4350 N   0  0  0  0  0  0  0  0  0  0  0  0
   45.8890   32.1060   48.9460 C   0  0  0  0  0  0  0  0  0  0  0  0
   45.1570   32.7410   48.0100 N   0  0  0  0  0  0  0  0  0  0  0  0
   44.2010   35.6190   41.8570 S   0  0  0  0  0  0  0  0  0  0  0  0
   42.8300   35.2670   41.6990 H   0  0  0  0  0  0  0  0  0  0  0  0
  1  6  1  0  0  0  0
  2  1  2  0  0  0  0
  3  2  1  0  0  0  0
  3  4  2  0  0  0  0
  4  5  1  0  0  0  0
  5  6  2  0  0  0  0
  5  9  1  0  0  0  0
  7  1  1  0  0  0  0
  8  3  1  0  0  0  0
  9 10  1  0  0  0  0
  9 13  1  0  0  0  0
 10 11  2  0  0  0  0
 11 12  1  0  0  0  0
 13 12  2  0  0  0  0
 14  2  1  0  0  0  0
 15 14  1  0  0  0  0
M  END
>  <minimizedAffinity>
-4.15303516

>  <minimizedRMSD>
0.722568989

$$$$
