
 OpenBabel03232521013D

 40 43  0  0  1  0  0  0  0  0999 V2000
   45.3770   32.8610   47.4880 C   0  0  0  0  0  0  0  0  0  0  0  0
   45.9330   32.6220   46.2730 C   0  0  0  0  0  0  0  0  0  0  0  0
   46.2040   31.2720   46.0140 C   0  0  0  0  0  0  0  0  0  0  0  0
   45.9400   30.2660   46.8860 N   0  0  0  0  0  0  0  0  0  0  0  0
   45.3690   30.5630   48.1160 C   0  0  0  0  0  0  0  0  0  0  0  0
   45.1050   31.8380   48.3830 N   0  0  0  0  0  0  0  0  0  0  0  0
   45.0880   29.5400   49.0480 N   0  0  0  0  0  0  0  0  0  0  0  0
   45.1320   33.8650   47.7950 H   0  0  0  0  0  0  0  0  0  0  0  0
   44.6550   28.6600   48.6580 H   0  0  0  0  0  0  0  0  0  0  0  0
   45.2600   29.5590   50.0630 H   0  0  0  0  0  0  0  0  0  0  0  0
   46.1760   33.5840   45.2530 C   0  0  2  0  0  0  0  0  0  0  0  0
   44.9590   34.6680   45.4960 C   0  0  0  0  0  0  0  0  0  0  0  0
   44.7270   35.6070   44.4370 C   0  0  0  0  0  0  0  0  0  0  0  0
   45.5220   35.5550   43.2120 C   0  0  1  0  0  0  0  0  0  0  0  0
   46.5850   34.5540   43.1460 C   0  0  0  0  0  0  0  0  0  0  0  0
   46.1450   33.3120   43.8870 C   0  0  0  0  0  0  0  0  0  0  0  0
   46.9500   34.3320   45.5970 H   0  0  0  0  0  0  0  0  0  0  0  0
   44.2840   34.7950   46.3340 H   0  0  0  0  0  0  0  0  0  0  0  0
   43.9590   36.3240   44.5460 H   0  0  0  0  0  0  0  0  0  0  0  0
   45.9360   36.5700   43.0180 H   0  0  0  0  0  0  0  0  0  0  0  0
   46.7370   34.3140   42.0530 H   0  0  0  0  0  0  0  0  0  0  0  0
   47.5950   34.8910   43.4830 H   0  0  0  0  0  0  0  0  0  0  0  0
   47.0010   32.6700   43.5530 H   0  0  0  0  0  0  0  0  0  0  0  0
   45.1960   32.9700   43.4240 H   0  0  0  0  0  0  0  0  0  0  0  0
   44.5060   35.2920   42.0590 C   0  0  0  0  0  0  0  0  0  0  0  0
   43.4450   34.5020   42.4500 F   0  0  0  0  0  0  0  0  0  0  0  0
   43.9660   36.5300   41.7250 F   0  0  0  0  0  0  0  0  0  0  0  0
   45.1780   34.8300   40.9420 F   0  0  0  0  0  0  0  0  0  0  0  0
   46.8490   30.5960   44.9020 C   0  0  0  0  0  0  0  0  0  0  0  0
   46.5140   29.8300   43.8320 C   0  0  0  0  0  0  0  0  0  0  0  0
   47.6950   29.4640   43.1690 C   0  0  0  0  0  0  0  0  0  0  0  0
   48.6830   30.0240   43.8670 N   0  0  0  0  0  0  0  0  0  0  0  0
   48.2090   30.6950   44.8890 N   0  0  0  0  0  0  0  0  0  0  0  0
   45.4620   29.6390   43.6740 H   0  0  0  0  0  0  0  0  0  0  0  0
   47.5510   28.8480   42.2950 H   0  0  0  0  0  0  0  0  0  0  0  0
   50.0500   29.8240   43.4200 C   0  0  0  0  0  3  0  0  0  0  0  0
   50.9300   29.2530   44.4760 C   0  0  0  0  0  2  0  0  0  0  0  0
   51.6270   28.0480   43.8350 C   0  0  0  0  0  2  0  0  0  0  0  0
   51.5400   28.3600   42.3530 C   0  0  0  0  0  2  0  0  0  0  0  0
   50.1130   28.8540   42.2560 C   0  0  0  0  0  2  0  0  0  0  0  0
  1  8  1  0  0  0  0
  1  6  1  0  0  0  0
  2  1  2  0  0  0  0
  3  2  1  0  0  0  0
  3  4  2  0  0  0  0
  4  5  1  0  0  0  0
  5  6  2  0  0  0  0
  5  7  1  0  0  0  0
  7 10  1  0  0  0  0
  9  7  1  0  0  0  0
 11 12  1  0  0  0  0
 11 17  1  1  0  0  0
 11  2  1  0  0  0  0
 12 18  1  0  0  0  0
 13 19  1  0  0  0  0
 13 12  2  0  0  0  0
 14 20  1  6  0  0  0
 14 13  1  0  0  0  0
 15 14  1  0  0  0  0
 15 22  1  0  0  0  0
 15 16  1  0  0  0  0
 16 11  1  0  0  0  0
 21 15  1  0  0  0  0
 23 16  1  0  0  0  0
 24 16  1  0  0  0  0
 25 26  1  0  0  0  0
 25 14  1  0  0  0  0
 27 25  1  0  0  0  0
 28 25  1  0  0  0  0
 29  3  1  0  0  0  0
 30 29  1  0  0  0  0
 31 30  2  0  0  0  0
 31 32  1  0  0  0  0
 32 33  1  0  0  0  0
 33 29  2  0  0  0  0
 34 30  1  0  0  0  0
 35 31  1  0  0  0  0
 36 32  1  0  0  0  0
 36 37  1  0  0  0  0
 38 37  1  0  0  0  0
 39 38  1  0  0  0  0
 40 39  1  0  0  0  0
 40 36  1  0  0  0  0
M  END
>  <minimizedAffinity>
-5.61551142

>  <minimizedRMSD>
0.258437812

$$$$
