
 OpenBabel03232521013D

 40 43  0  0  1  0  0  0  0  0999 V2000
   45.3430   32.9030   47.5110 C   0  0  0  0  0  0  0  0  0  0  0  0
   45.9160   32.6490   46.3080 C   0  0  0  0  0  0  0  0  0  0  0  0
   46.1990   31.2970   46.0720 C   0  0  0  0  0  0  0  0  0  0  0  0
   45.9310   30.3030   46.9560 N   0  0  0  0  0  0  0  0  0  0  0  0
   45.3440   30.6150   48.1740 C   0  0  0  0  0  0  0  0  0  0  0  0
   45.0680   31.8920   48.4190 N   0  0  0  0  0  0  0  0  0  0  0  0
   45.0580   29.6040   49.1180 N   0  0  0  0  0  0  0  0  0  0  0  0
   45.0870   33.9090   47.8000 H   0  0  0  0  0  0  0  0  0  0  0  0
   44.6360   28.7150   48.7360 H   0  0  0  0  0  0  0  0  0  0  0  0
   45.2170   29.6390   50.1340 H   0  0  0  0  0  0  0  0  0  0  0  0
   46.1640   33.5980   45.2760 C   0  0  2  0  0  0  0  0  0  0  0  0
   44.9500   34.6880   45.5020 C   0  0  0  0  0  0  0  0  0  0  0  0
   44.7240   35.6150   44.4300 C   0  0  0  0  0  0  0  0  0  0  0  0
   45.5220   35.5450   43.2080 C   0  0  1  0  0  0  0  0  0  0  0  0
   46.5820   34.5400   43.1580 C   0  0  0  0  0  0  0  0  0  0  0  0
   46.1360   33.3090   43.9130 C   0  0  0  0  0  0  0  0  0  0  0  0
   46.9400   34.3470   45.6120 H   0  0  0  0  0  0  0  0  0  0  0  0
   44.2730   34.8280   46.3360 H   0  0  0  0  0  0  0  0  0  0  0  0
   43.9590   36.3360   44.5290 H   0  0  0  0  0  0  0  0  0  0  0  0
   45.9400   36.5560   43.0020 H   0  0  0  0  0  0  0  0  0  0  0  0
   46.7360   34.2850   42.0680 H   0  0  0  0  0  0  0  0  0  0  0  0
   47.5920   34.8770   43.4930 H   0  0  0  0  0  0  0  0  0  0  0  0
   46.9910   32.6600   43.5900 H   0  0  0  0  0  0  0  0  0  0  0  0
   45.1870   32.9640   43.4520 H   0  0  0  0  0  0  0  0  0  0  0  0
   44.5080   35.2710   42.0560 C   0  0  0  0  0  0  0  0  0  0  0  0
   43.4570   34.4670   42.4470 F   0  0  0  0  0  0  0  0  0  0  0  0
   43.9520   36.5030   41.7240 F   0  0  0  0  0  0  0  0  0  0  0  0
   45.1850   34.8180   40.9380 F   0  0  0  0  0  0  0  0  0  0  0  0
   46.8620   30.6100   44.9780 C   0  0  0  0  0  0  0  0  0  0  0  0
   46.5430   29.8450   43.9020 C   0  0  0  0  0  0  0  0  0  0  0  0
   47.7350   29.4610   43.2700 C   0  0  0  0  0  0  0  0  0  0  0  0
   48.7130   30.0100   43.9900 N   0  0  0  0  0  0  0  0  0  0  0  0
   48.2240   30.6910   44.9990 N   0  0  0  0  0  0  0  0  0  0  0  0
   45.4930   29.6670   43.7190 H   0  0  0  0  0  0  0  0  0  0  0  0
   47.6040   28.8440   42.3940 H   0  0  0  0  0  0  0  0  0  0  0  0
   50.0880   29.7910   43.5780 C   0  0  0  0  0  3  0  0  0  0  0  0
   50.7850   28.7610   44.3980 C   0  0  0  0  0  2  0  0  0  0  0  0
   51.4050   27.7780   43.3990 C   0  0  0  0  0  2  0  0  0  0  0  0
   51.5070   28.6070   42.1330 C   0  0  0  0  0  2  0  0  0  0  0  0
   50.1620   29.3000   42.1440 C   0  0  0  0  0  2  0  0  0  0  0  0
  1  8  1  0  0  0  0
  1  6  1  0  0  0  0
  2  1  2  0  0  0  0
  3  2  1  0  0  0  0
  3  4  2  0  0  0  0
  4  5  1  0  0  0  0
  5  6  2  0  0  0  0
  5  7  1  0  0  0  0
  7 10  1  0  0  0  0
  9  7  1  0  0  0  0
 11 12  1  0  0  0  0
 11 17  1  1  0  0  0
 11  2  1  0  0  0  0
 12 18  1  0  0  0  0
 13 19  1  0  0  0  0
 13 12  2  0  0  0  0
 14 20  1  6  0  0  0
 14 13  1  0  0  0  0
 15 14  1  0  0  0  0
 15 22  1  0  0  0  0
 15 16  1  0  0  0  0
 16 11  1  0  0  0  0
 21 15  1  0  0  0  0
 23 16  1  0  0  0  0
 24 16  1  0  0  0  0
 25 26  1  0  0  0  0
 25 14  1  0  0  0  0
 27 25  1  0  0  0  0
 28 25  1  0  0  0  0
 29 33  2  0  0  0  0
 29  3  1  0  0  0  0
 30 29  1  0  0  0  0
 31 30  2  0  0  0  0
 31 32  1  0  0  0  0
 32 33  1  0  0  0  0
 34 30  1  0  0  0  0
 35 31  1  0  0  0  0
 36 32  1  0  0  0  0
 36 37  1  0  0  0  0
 38 37  1  0  0  0  0
 39 40  1  0  0  0  0
 39 38  1  0  0  0  0
 40 36  1  0  0  0  0
M  END
>  <minimizedAffinity>
-5.59475851

>  <minimizedRMSD>
0.200282633

$$$$
