
 OpenBabel03232521003D

 40 43  0  0  1  0  0  0  0  0999 V2000
   45.3350   32.9060   47.5100 C   0  0  0  0  0  0  0  0  0  0  0  0
   45.9150   32.6520   46.3100 C   0  0  0  0  0  0  0  0  0  0  0  0
   46.2070   31.3010   46.0790 C   0  0  0  0  0  0  0  0  0  0  0  0
   45.9400   30.3080   46.9650 N   0  0  0  0  0  0  0  0  0  0  0  0
   45.3450   30.6190   48.1790 C   0  0  0  0  0  0  0  0  0  0  0  0
   45.0600   31.8960   48.4190 N   0  0  0  0  0  0  0  0  0  0  0  0
   45.0600   29.6100   49.1240 N   0  0  0  0  0  0  0  0  0  0  0  0
   45.0710   33.9110   47.7950 H   0  0  0  0  0  0  0  0  0  0  0  0
   44.6450   28.7180   48.7420 H   0  0  0  0  0  0  0  0  0  0  0  0
   45.2140   29.6490   50.1410 H   0  0  0  0  0  0  0  0  0  0  0  0
   46.1640   33.5990   45.2770 C   0  0  2  0  0  0  0  0  0  0  0  0
   44.9510   34.6910   45.5030 C   0  0  0  0  0  0  0  0  0  0  0  0
   44.7240   35.6170   44.4300 C   0  0  0  0  0  0  0  0  0  0  0  0
   45.5210   35.5450   43.2070 C   0  0  1  0  0  0  0  0  0  0  0  0
   46.5800   34.5380   43.1570 C   0  0  0  0  0  0  0  0  0  0  0  0
   46.1340   33.3090   43.9140 C   0  0  0  0  0  0  0  0  0  0  0  0
   46.9400   34.3490   45.6120 H   0  0  0  0  0  0  0  0  0  0  0  0
   44.2750   34.8330   46.3370 H   0  0  0  0  0  0  0  0  0  0  0  0
   43.9600   36.3390   44.5280 H   0  0  0  0  0  0  0  0  0  0  0  0
   45.9400   36.5550   43.0000 H   0  0  0  0  0  0  0  0  0  0  0  0
   46.7330   34.2830   42.0670 H   0  0  0  0  0  0  0  0  0  0  0  0
   47.5910   34.8760   43.4910 H   0  0  0  0  0  0  0  0  0  0  0  0
   46.9880   32.6590   43.5910 H   0  0  0  0  0  0  0  0  0  0  0  0
   45.1840   32.9640   43.4550 H   0  0  0  0  0  0  0  0  0  0  0  0
   44.5070   35.2700   42.0560 C   0  0  0  0  0  0  0  0  0  0  0  0
   43.4550   34.4670   42.4490 F   0  0  0  0  0  0  0  0  0  0  0  0
   43.9500   36.5020   41.7240 F   0  0  0  0  0  0  0  0  0  0  0  0
   45.1810   34.8170   40.9380 F   0  0  0  0  0  0  0  0  0  0  0  0
   46.8810   30.6140   44.9910 C   0  0  0  0  0  0  0  0  0  0  0  0
   46.5700   29.8580   43.9060 C   0  0  0  0  0  0  0  0  0  0  0  0
   47.7680   29.4690   43.2880 C   0  0  0  0  0  0  0  0  0  0  0  0
   48.7400   30.0060   44.0250 N   0  0  0  0  0  0  0  0  0  0  0  0
   48.2420   30.6840   45.0310 N   0  0  0  0  0  0  0  0  0  0  0  0
   45.5210   29.6900   43.7080 H   0  0  0  0  0  0  0  0  0  0  0  0
   47.6440   28.8570   42.4080 H   0  0  0  0  0  0  0  0  0  0  0  0
   50.1190   29.7770   43.6320 C   0  0  0  0  0  3  0  0  0  0  0  0
   50.5880   28.3950   43.9240 C   0  0  0  0  0  2  0  0  0  0  0  0
   51.2030   27.8760   42.6190 C   0  0  0  0  0  2  0  0  0  0  0  0
   51.5510   29.1540   41.8800 C   0  0  0  0  0  2  0  0  0  0  0  0
   50.3050   29.9740   42.1390 C   0  0  0  0  0  2  0  0  0  0  0  0
  1  8  1  0  0  0  0
  1  6  1  0  0  0  0
  2  1  2  0  0  0  0
  3  2  1  0  0  0  0
  3  4  2  0  0  0  0
  4  5  1  0  0  0  0
  5  6  2  0  0  0  0
  5  7  1  0  0  0  0
  7 10  1  0  0  0  0
  9  7  1  0  0  0  0
 11 12  1  0  0  0  0
 11 17  1  1  0  0  0
 11  2  1  0  0  0  0
 12 18  1  0  0  0  0
 13 19  1  0  0  0  0
 13 12  2  0  0  0  0
 14 20  1  6  0  0  0
 14 13  1  0  0  0  0
 15 14  1  0  0  0  0
 15 22  1  0  0  0  0
 15 16  1  0  0  0  0
 16 11  1  0  0  0  0
 21 15  1  0  0  0  0
 23 16  1  0  0  0  0
 24 16  1  0  0  0  0
 25 26  1  0  0  0  0
 25 14  1  0  0  0  0
 27 25  1  0  0  0  0
 28 25  1  0  0  0  0
 29 33  2  0  0  0  0
 29  3  1  0  0  0  0
 30 29  1  0  0  0  0
 31 30  2  0  0  0  0
 31 32  1  0  0  0  0
 32 33  1  0  0  0  0
 34 30  1  0  0  0  0
 35 31  1  0  0  0  0
 36 37  1  0  0  0  0
 36 32  1  0  0  0  0
 38 37  1  0  0  0  0
 39 40  1  0  0  0  0
 39 38  1  0  0  0  0
 40 36  1  0  0  0  0
M  END
>  <minimizedAffinity>
-5.58241367

>  <minimizedRMSD>
0.252860248

$$$$
