
 OpenBabel03232520203D

 37 40  0  0  0  0  0  0  0  0999 V2000
   47.5440   34.1530   42.1950 C   0  0  0  0  0  0  0  0  0  0  0  0
   48.4150   35.2740   41.7060 C   0  0  0  0  0  0  0  0  0  0  0  0
   49.7530   35.3560   42.3290 C   0  0  0  0  0  0  0  0  0  0  0  0
   50.4680   34.0530   42.4670 C   0  0  0  0  0  0  0  0  0  0  0  0
   49.6110   32.8550   42.1610 C   0  0  0  0  0  0  0  0  0  0  0  0
   48.2930   33.0530   42.8940 C   0  0  0  0  0  0  0  0  0  0  0  0
   48.5680   35.2020   40.6040 H   0  0  0  0  0  0  0  0  0  0  0  0
   47.8670   36.2190   41.8640 H   0  0  0  0  0  0  0  0  0  0  0  0
   50.3210   36.1340   41.7850 H   0  0  0  0  0  0  0  0  0  0  0  0
   49.6170   35.7740   43.3640 H   0  0  0  0  0  0  0  0  0  0  0  0
   51.3750   34.0470   41.8260 H   0  0  0  0  0  0  0  0  0  0  0  0
   50.8450   33.8900   43.5120 H   0  0  0  0  0  0  0  0  0  0  0  0
   50.1510   31.9500   42.4860 H   0  0  0  0  0  0  0  0  0  0  0  0
   49.4490   32.8140   41.0720 H   0  0  0  0  0  0  0  0  0  0  0  0
   48.5130   33.3360   43.9330 H   0  0  0  0  0  0  0  0  0  0  0  0
   47.6670   32.1260   42.8460 H   0  0  0  0  0  0  0  0  0  0  0  0
   45.2450   34.4630   45.0840 C   0  0  0  0  0  0  0  0  0  0  0  0
   44.5390   35.6260   44.7970 C   0  0  0  0  0  0  0  0  0  0  0  0
   44.8560   36.3030   43.6120 C   0  0  0  0  0  0  0  0  0  0  0  0
   45.8270   35.7890   42.8160 N   0  0  0  0  0  0  0  0  0  0  0  0
   46.4960   34.6500   43.1290 C   0  0  0  0  0  0  0  0  0  0  0  0
   46.1850   33.9970   44.2770 N   0  0  0  0  0  0  0  0  0  0  0  0
   44.9430   33.9980   46.0160 H   0  0  0  0  0  0  0  0  0  0  0  0
   43.7730   36.0420   45.4130 H   0  0  0  0  0  0  0  0  0  0  0  0
   44.3660   37.2080   43.3080 H   0  0  0  0  0  0  0  0  0  0  0  0
   46.8830   33.5240   40.9960 C   0  0  0  0  0  0  0  0  0  0  0  0
   45.7700   32.7340   40.7410 C   0  0  0  0  0  0  0  0  0  0  0  0
   45.5500   32.3850   39.4550 C   0  0  0  0  0  0  0  0  0  0  0  0
   46.3530   32.7720   38.4520 C   0  0  0  0  0  0  0  0  0  0  0  0
   47.6420   33.7840   39.3600 S   0  0  0  0  0  0  0  0  0  0  0  0
   45.2000   32.4860   41.6240 H   0  0  0  0  0  0  0  0  0  0  0  0
   44.6930   31.7660   39.2050 H   0  0  0  0  0  0  0  0  0  0  0  0
   46.3510   32.5610   37.0980 N   0  0  0  0  0  0  0  0  0  0  0  0
   47.3970   32.3640   36.2730 C   0  0  0  0  0  0  0  0  0  0  0  0
   46.9520   32.1970   35.0160 N   0  0  0  0  0  0  0  0  0  0  0  0
   45.6100   32.2960   35.0850 C   0  0  0  0  0  0  0  0  0  0  0  0
   45.2320   32.5220   36.3750 N   0  0  0  0  0  0  0  0  0  0  0  0
  1  6  1  0  0  0  0
  1 21  1  0  0  0  0
  2  8  1  0  0  0  0
  2  1  1  0  0  0  0
  2  3  1  0  0  0  0
  3  4  1  0  0  0  0
  3 10  1  0  0  0  0
  4 12  1  0  0  0  0
  5  4  1  0  0  0  0
  5 13  1  0  0  0  0
  5  6  1  0  0  0  0
  6 15  1  0  0  0  0
  7  2  1  0  0  0  0
  9  3  1  0  0  0  0
 11  4  1  0  0  0  0
 14  5  1  0  0  0  0
 16  6  1  0  0  0  0
 17 23  1  0  0  0  0
 18 17  1  0  0  0  0
 18 24  1  0  0  0  0
 19 18  2  0  0  0  0
 20 21  2  0  0  0  0
 20 19  1  0  0  0  0
 21 22  1  0  0  0  0
 22 17  2  0  0  0  0
 25 19  1  0  0  0  0
 26  1  1  0  0  0  0
 27 26  2  0  0  0  0
 27 31  1  0  0  0  0
 28 27  1  0  0  0  0
 29 30  1  0  0  0  0
 29 28  2  0  0  0  0
 30 26  1  0  0  0  0
 32 28  1  0  0  0  0
 33 29  1  0  0  0  0
 34 33  1  0  0  0  0
 35 36  1  0  0  0  0
 35 34  2  0  0  0  0
 36 37  2  0  0  0  0
 37 33  1  0  0  0  0
M  END
>  <minimizedAffinity>
-5.89488745

>  <minimizedRMSD>
0.254980862

$$$$
