
 OpenBabel03232520113D

 36 39  0  0  1  0  0  0  0  0999 V2000
   48.9830   29.1170   48.6580 N   0  0  0  0  0  0  0  0  0  0  0  0
   49.0370   27.7940   48.0900 C   0  0  0  0  0  0  0  0  0  0  0  0
   50.4480   27.2940   47.9360 C   0  0  0  0  0  0  0  0  0  0  0  0
   51.3430   27.7670   49.0450 C   0  0  0  0  0  0  0  0  0  0  0  0
   50.5430   28.2020   50.2480 C   0  0  0  0  0  0  0  0  0  0  0  0
   49.7440   29.4100   49.8590 C   0  0  1  0  0  0  0  0  0  0  0  0
   48.4560   27.1000   48.7440 H   0  0  0  0  0  0  0  0  0  0  0  0
   48.5030   27.7900   47.1210 H   0  0  0  0  0  0  0  0  0  0  0  0
   50.3920   26.1720   48.0480 H   0  0  0  0  0  0  0  0  0  0  0  0
   50.8640   27.4470   46.9240 H   0  0  0  0  0  0  0  0  0  0  0  0
   52.0530   26.9670   49.3780 H   0  0  0  0  0  0  0  0  0  0  0  0
   51.9490   28.5890   48.6550 H   0  0  0  0  0  0  0  0  0  0  0  0
   49.9450   27.3960   50.6600 H   0  0  0  0  0  0  0  0  0  0  0  0
   51.3020   28.5690   50.9930 H   0  0  0  0  0  0  0  0  0  0  0  0
   48.9770   29.5330   50.6580 H   0  0  0  0  0  0  0  0  0  0  0  0
   47.0160   32.1870   46.8840 C   0  0  0  0  0  0  0  0  0  0  0  0
   46.8970   32.1440   48.2490 C   0  0  0  0  0  0  0  0  0  0  0  0
   47.5170   31.1590   48.9350 C   0  0  0  0  0  0  0  0  0  0  0  0
   48.2410   30.2470   48.1820 C   0  0  0  0  0  0  0  0  0  0  0  0
   48.0370   30.7950   46.5120 S   0  0  0  0  0  0  0  0  0  0  0  0
   46.2940   32.9260   48.7270 H   0  0  0  0  0  0  0  0  0  0  0  0
   47.4810   31.0430   50.0100 H   0  0  0  0  0  0  0  0  0  0  0  0
   44.9010   34.7730   45.3630 C   0  0  0  0  0  0  0  0  0  0  0  0
   45.4540   34.8470   44.0630 C   0  0  0  0  0  0  0  0  0  0  0  0
   46.5330   34.0120   43.7460 C   0  0  0  0  0  0  0  0  0  0  0  0
   47.0190   33.1500   44.7070 N   0  0  0  0  0  0  0  0  0  0  0  0
   46.4620   33.1150   45.9250 C   0  0  0  0  0  0  0  0  0  0  0  0
   45.4150   33.9150   46.2560 N   0  0  0  0  0  0  0  0  0  0  0  0
   44.0680   35.4300   45.5770 H   0  0  0  0  0  0  0  0  0  0  0  0
   45.0640   35.5310   43.3080 H   0  0  0  0  0  0  0  0  0  0  0  0
   47.0030   34.0090   42.7880 H   0  0  0  0  0  0  0  0  0  0  0  0
   50.4920   30.6240   49.8130 N   0  0  0  0  0  0  0  0  0  0  0  0
   51.5160   30.8680   48.9750 C   0  0  0  0  0  0  0  0  0  0  0  0
   52.0020   32.0920   49.1840 N   0  0  0  0  0  0  0  0  0  0  0  0
   51.2780   32.6350   50.1690 C   0  0  0  0  0  0  0  0  0  0  0  0
   50.3520   31.7290   50.5520 N   0  0  0  0  0  0  0  0  0  0  0  0
  1  6  1  0  0  0  0
  2  1  1  0  0  0  0
  2  7  1  0  0  0  0
  3  9  1  0  0  0  0
  3  2  1  0  0  0  0
  3  4  1  0  0  0  0
  4 11  1  0  0  0  0
  4  5  1  0  0  0  0
  5 13  1  0  0  0  0
  5 14  1  0  0  0  0
  6  5  1  0  0  0  0
  6 15  1  1  0  0  0
  8  2  1  0  0  0  0
 10  3  1  0  0  0  0
 12  4  1  0  0  0  0
 16 17  2  0  0  0  0
 17 21  1  0  0  0  0
 17 18  1  0  0  0  0
 18 22  1  0  0  0  0
 19  1  1  0  0  0  0
 19 18  2  0  0  0  0
 20 16  1  0  0  0  0
 20 19  1  0  0  0  0
 23 29  1  0  0  0  0
 23 28  1  0  0  0  0
 24 23  2  0  0  0  0
 25 24  1  0  0  0  0
 25 26  2  0  0  0  0
 26 27  1  0  0  0  0
 27 28  2  0  0  0  0
 27 16  1  0  0  0  0
 30 24  1  0  0  0  0
 31 25  1  0  0  0  0
 32  6  1  0  0  0  0
 32 36  1  0  0  0  0
 33 34  2  0  0  0  0
 33 32  1  0  0  0  0
 34 35  1  0  0  0  0
 35 36  2  0  0  0  0
M  END
>  <minimizedAffinity>
-4.69625425

>  <minimizedRMSD>
2.13973475

$$$$
