
 OpenBabel03232520053D

 29 32  0  0  0  0  0  0  0  0999 V2000
   46.1870   30.3760   49.1380 N   0  0  0  0  0  0  0  0  0  0  0  0
   45.3110   31.3910   49.4480 C   0  0  0  0  0  0  0  0  0  0  0  0
   45.2420   32.2170   48.3690 N   0  0  0  0  0  0  0  0  0  0  0  0
   46.0670   31.6930   47.4430 C   0  0  0  0  0  0  0  0  0  0  0  0
   46.3120   32.2010   46.1860 C   0  0  0  0  0  0  0  0  0  0  0  0
   47.1860   31.5110   45.3980 N   0  0  0  0  0  0  0  0  0  0  0  0
   47.7870   30.3770   45.8300 C   0  0  0  0  0  0  0  0  0  0  0  0
   47.5090   29.9300   47.0660 N   0  0  0  0  0  0  0  0  0  0  0  0
   46.6790   30.5350   47.8900 C   0  0  0  0  0  0  0  0  0  0  0  0
   46.4540   29.5810   49.7590 H   0  0  0  0  0  0  0  0  0  0  0  0
   44.7900   31.4740   50.3980 H   0  0  0  0  0  0  0  0  0  0  0  0
   48.6990   29.6830   44.9730 N   0  0  0  0  0  0  0  0  0  0  0  0
   48.9850   30.0980   43.7180 C   0  0  0  0  0  0  0  0  0  0  0  0
   49.8700   29.2600   43.1390 N   0  0  0  0  0  0  0  0  0  0  0  0
   50.1200   28.3230   44.0650 C   0  0  0  0  0  0  0  0  0  0  0  0
   49.4040   28.5850   45.1820 N   0  0  0  0  0  0  0  0  0  0  0  0
   45.6370   33.6480   45.4500 S   0  0  0  0  0  0  0  0  0  0  0  0
   47.7790   34.7040   42.3440 C   0  0  0  0  0  0  0  0  0  0  0  0
   47.0650   34.3270   41.2220 C   0  0  0  0  0  0  0  0  0  0  0  0
   45.8490   33.7080   41.4430 C   0  0  0  0  0  0  0  0  0  0  0  0
   45.4140   33.5010   42.7220 N   0  0  0  0  0  0  0  0  0  0  0  0
   46.1730   33.9020   43.7780 C   0  0  0  0  0  0  0  0  0  0  0  0
   47.3350   34.4920   43.5820 N   0  0  0  0  0  0  0  0  0  0  0  0
   47.4050   34.4880   40.2100 H   0  0  0  0  0  0  0  0  0  0  0  0
   45.2090   33.3720   40.6140 H   0  0  0  0  0  0  0  0  0  0  0  0
   49.0880   35.3700   42.1390 C   0  0  0  0  0  0  0  0  0  0  0  0
   49.2360   36.1370   41.1560 O   0  0  0  0  0  0  0  0  0  0  0  0
   50.1160   35.1390   43.0220 O   0  0  0  0  0  0  0  0  0  0  0  0
   51.0730   35.0730   42.6400 H   0  0  0  0  0  0  0  0  0  0  0  0
  1  2  1  0  0  0  0
  1 10  1  0  0  0  0
  2 11  1  0  0  0  0
  3  2  2  0  0  0  0
  4  9  1  0  0  0  0
  4  3  1  0  0  0  0
  5  4  2  0  0  0  0
  6  7  2  0  0  0  0
  6  5  1  0  0  0  0
  7  8  1  0  0  0  0
  8  9  2  0  0  0  0
  9  1  1  0  0  0  0
 12 16  1  0  0  0  0
 12  7  1  0  0  0  0
 13 12  1  0  0  0  0
 14 13  2  0  0  0  0
 14 15  1  0  0  0  0
 15 16  2  0  0  0  0
 17  5  1  0  0  0  0
 18 23  1  0  0  0  0
 19 20  1  0  0  0  0
 19 18  2  0  0  0  0
 20 21  2  0  0  0  0
 21 22  1  0  0  0  0
 22 17  1  0  0  0  0
 23 22  2  0  0  0  0
 24 19  1  0  0  0  0
 25 20  1  0  0  0  0
 26 18  1  0  0  0  0
 26 28  1  0  0  0  0
 27 26  2  0  0  0  0
 29 28  1  0  0  0  0
M  END
>  <minimizedAffinity>
-5.98041964

>  <minimizedRMSD>
0.125484437

$$$$
