
 OpenBabel03232519563D

 21 23  0  0  0  0  0  0  0  0999 V2000
   44.1020   33.8950   41.5430 N   0  0  0  0  0  0  0  0  0  0  0  0
   44.8720   33.8410   40.4570 C   0  0  0  0  0  0  0  0  0  0  0  0
   44.0320   33.5760   39.3680 C   0  0  0  0  0  0  0  0  0  0  0  0
   42.7840   33.4750   39.8080 N   0  0  0  0  0  0  0  0  0  0  0  0
   42.8110   33.6710   41.1590 C   0  0  0  0  0  0  0  0  0  0  0  0
   44.2990   33.4630   38.3330 H   0  0  0  0  0  0  0  0  0  0  0  0
   41.9220   33.6420   41.7750 H   0  0  0  0  0  0  0  0  0  0  0  0
   44.1680   35.4330   43.3770 C   0  0  0  0  0  0  0  0  0  0  0  0
   44.4740   34.1310   42.8630 C   0  0  0  0  0  0  0  0  0  0  0  0
   45.1110   33.2320   43.7300 C   0  0  0  0  0  0  0  0  0  0  0  0
   45.4010   33.6380   44.9980 N   0  0  0  0  0  0  0  0  0  0  0  0
   45.0870   34.8900   45.4340 C   0  0  0  0  0  0  0  0  0  0  0  0
   44.4680   35.7890   44.6200 N   0  0  0  0  0  0  0  0  0  0  0  0
   43.6840   36.2050   42.8120 H   0  0  0  0  0  0  0  0  0  0  0  0
   45.3320   32.2730   43.3470 H   0  0  0  0  0  0  0  0  0  0  0  0
   45.3840   35.0580   46.4660 H   0  0  0  0  0  0  0  0  0  0  0  0
   46.2780   34.0100   40.3310 N   0  0  0  0  0  0  0  0  0  0  0  0
   46.9170   33.4160   39.2790 C   0  0  0  0  0  0  0  0  0  0  0  0
   48.2570   33.6780   39.3050 N   0  0  0  0  0  0  0  0  0  0  0  0
   48.4130   34.4520   40.4070 C   0  0  0  0  0  0  0  0  0  0  0  0
   47.2430   34.6490   41.0160 N   0  0  0  0  0  0  0  0  0  0  0  0
  1  9  1  0  0  0  0
  2  1  1  0  0  0  0
  3  4  1  0  0  0  0
  3  2  2  0  0  0  0
  4  5  2  0  0  0  0
  5  1  1  0  0  0  0
  5  7  1  0  0  0  0
  6  3  1  0  0  0  0
  8 13  1  0  0  0  0
  9  8  2  0  0  0  0
  9 10  1  0  0  0  0
 10 11  2  0  0  0  0
 11 12  1  0  0  0  0
 12 16  1  0  0  0  0
 13 12  2  0  0  0  0
 14  8  1  0  0  0  0
 15 10  1  0  0  0  0
 17  2  1  0  0  0  0
 17 21  1  0  0  0  0
 18 19  2  0  0  0  0
 18 17  1  0  0  0  0
 19 20  1  0  0  0  0
 20 21  2  0  0  0  0
M  END
>  <minimizedAffinity>
-3.89790726

>  <minimizedRMSD>
1.91869187

$$$$
