
 OpenBabel03232520563D

 33 35  0  0  1  0  0  0  0  0999 V2000
   46.1290   33.7340   45.2660 C   0  0  2  0  0  0  0  0  0  0  0  0
   45.0080   34.8120   45.4590 C   0  0  0  0  0  0  0  0  0  0  0  0
   44.7360   35.6930   44.3510 C   0  0  0  0  0  0  0  0  0  0  0  0
   45.4740   35.5660   43.1040 C   0  0  1  0  0  0  0  0  0  0  0  0
   46.5620   34.5830   43.0800 C   0  0  0  0  0  0  0  0  0  0  0  0
   46.1730   33.3640   43.8790 C   0  0  0  0  0  0  0  0  0  0  0  0
   46.9910   34.4190   45.5620 H   0  0  0  0  0  0  0  0  0  0  0  0
   44.3410   35.0770   46.2730 H   0  0  0  0  0  0  0  0  0  0  0  0
   43.9930   36.4460   44.4120 H   0  0  0  0  0  0  0  0  0  0  0  0
   45.8830   36.5600   42.8210 H   0  0  0  0  0  0  0  0  0  0  0  0
   46.7140   34.2350   42.0160 H   0  0  0  0  0  0  0  0  0  0  0  0
   47.5360   34.9240   43.4410 H   0  0  0  0  0  0  0  0  0  0  0  0
   45.1390   33.0590   43.5360 H   0  0  0  0  0  0  0  0  0  0  0  0
   46.8420   32.6030   43.5270 H   0  0  0  0  0  0  0  0  0  0  0  0
   45.1090   32.9460   47.3540 C   0  0  0  0  0  0  0  0  0  0  0  0
   45.9470   32.7570   46.2970 C   0  0  0  0  0  0  0  0  0  0  0  0
   46.6110   31.5210   46.2340 C   0  0  0  0  0  0  0  0  0  0  0  0
   46.4280   30.5820   47.1680 N   0  0  0  0  0  0  0  0  0  0  0  0
   45.5750   30.8000   48.2270 C   0  0  0  0  0  0  0  0  0  0  0  0
   44.9340   31.9640   48.3050 N   0  0  0  0  0  0  0  0  0  0  0  0
   45.3990   29.7960   49.2260 N   0  0  0  0  0  0  0  0  0  0  0  0
   44.5660   33.8440   47.4850 H   0  0  0  0  0  0  0  0  0  0  0  0
   46.0220   29.7570   50.0830 H   0  0  0  0  0  0  0  0  0  0  0  0
   44.6540   29.1030   49.1040 H   0  0  0  0  0  0  0  0  0  0  0  0
   47.5380   30.9520   45.3140 N   0  0  0  0  0  0  0  0  0  0  0  0
   48.3000   29.8740   45.6960 C   0  0  0  0  0  0  0  0  0  0  0  0
   49.0730   29.4870   44.6590 N   0  0  0  0  0  0  0  0  0  0  0  0
   48.7580   30.3520   43.6500 C   0  0  0  0  0  0  0  0  0  0  0  0
   47.8190   31.2600   44.0290 N   0  0  0  0  0  0  0  0  0  0  0  0
   44.4480   35.2400   41.9910 C   0  0  0  0  0  0  0  0  0  0  0  0
   43.4390   34.4090   42.4230 F   0  0  0  0  0  0  0  0  0  0  0  0
   43.8430   36.4500   41.6500 F   0  0  0  0  0  0  0  0  0  0  0  0
   45.1110   34.7760   40.8630 F   0  0  0  0  0  0  0  0  0  0  0  0
  1  2  1  0  0  0  0
  1  7  1  1  0  0  0
  1 16  1  0  0  0  0
  2  8  1  0  0  0  0
  3  9  1  0  0  0  0
  3  2  2  0  0  0  0
  4 10  1  6  0  0  0
  4  3  1  0  0  0  0
  5  4  1  0  0  0  0
  5 12  1  0  0  0  0
  5  6  1  0  0  0  0
  6  1  1  0  0  0  0
 11  5  1  0  0  0  0
 13  6  1  0  0  0  0
 14  6  1  0  0  0  0
 15 22  1  0  0  0  0
 15 20  1  0  0  0  0
 16 15  2  0  0  0  0
 17 16  1  0  0  0  0
 17 18  2  0  0  0  0
 18 19  1  0  0  0  0
 19 20  2  0  0  0  0
 19 21  1  0  0  0  0
 21 23  1  0  0  0  0
 24 21  1  0  0  0  0
 25 26  1  0  0  0  0
 25 17  1  0  0  0  0
 27 26  2  0  0  0  0
 28 29  2  0  0  0  0
 28 27  1  0  0  0  0
 29 25  1  0  0  0  0
 30 31  1  0  0  0  0
 30  4  1  0  0  0  0
 32 30  1  0  0  0  0
 33 30  1  0  0  0  0
M  END
>  <minimizedAffinity>
-5.73680449

>  <minimizedRMSD>
0.620403409

$$$$
