
 OpenBabel03232521013D

 44 47  0  0  1  0  0  0  0  0999 V2000
   45.3510   32.9170   47.5110 C   0  0  0  0  0  0  0  0  0  0  0  0
   45.9040   32.6550   46.2980 C   0  0  0  0  0  0  0  0  0  0  0  0
   46.1700   31.3030   46.0590 C   0  0  0  0  0  0  0  0  0  0  0  0
   45.9060   30.3150   46.9510 N   0  0  0  0  0  0  0  0  0  0  0  0
   45.3410   30.6320   48.1770 C   0  0  0  0  0  0  0  0  0  0  0  0
   45.0790   31.9130   48.4230 N   0  0  0  0  0  0  0  0  0  0  0  0
   45.0640   29.6240   49.1300 N   0  0  0  0  0  0  0  0  0  0  0  0
   45.1090   33.9270   47.8010 H   0  0  0  0  0  0  0  0  0  0  0  0
   44.9770   29.9140   50.1290 H   0  0  0  0  0  0  0  0  0  0  0  0
   44.9500   28.6170   48.8390 H   0  0  0  0  0  0  0  0  0  0  0  0
   46.1500   33.6030   45.2660 C   0  0  2  0  0  0  0  0  0  0  0  0
   44.9470   34.7010   45.4970 C   0  0  0  0  0  0  0  0  0  0  0  0
   44.7150   35.6280   44.4240 C   0  0  0  0  0  0  0  0  0  0  0  0
   45.5090   35.5490   43.1960 C   0  0  1  0  0  0  0  0  0  0  0  0
   46.5650   34.5430   43.1490 C   0  0  0  0  0  0  0  0  0  0  0  0
   46.1140   33.3140   43.9030 C   0  0  0  0  0  0  0  0  0  0  0  0
   46.9690   34.3140   45.5840 H   0  0  0  0  0  0  0  0  0  0  0  0
   44.2750   34.8590   46.3320 H   0  0  0  0  0  0  0  0  0  0  0  0
   43.9510   36.3530   44.5380 H   0  0  0  0  0  0  0  0  0  0  0  0
   45.9430   36.5520   42.9840 H   0  0  0  0  0  0  0  0  0  0  0  0
   46.8040   34.3250   42.0670 H   0  0  0  0  0  0  0  0  0  0  0  0
   47.5040   34.9060   43.6330 H   0  0  0  0  0  0  0  0  0  0  0  0
   46.9690   32.6620   43.5740 H   0  0  0  0  0  0  0  0  0  0  0  0
   45.1970   32.8820   43.4550 H   0  0  0  0  0  0  0  0  0  0  0  0
   44.4890   35.2810   42.0500 C   0  0  0  0  0  0  0  0  0  0  0  0
   43.4320   34.4820   42.4520 F   0  0  0  0  0  0  0  0  0  0  0  0
   43.9420   36.5170   41.7180 F   0  0  0  0  0  0  0  0  0  0  0  0
   45.1590   34.8210   40.9320 F   0  0  0  0  0  0  0  0  0  0  0  0
   46.8110   30.6080   44.9590 C   0  0  0  0  0  0  0  0  0  0  0  0
   46.4740   29.8170   43.9080 C   0  0  0  0  0  0  0  0  0  0  0  0
   47.6520   29.4460   43.2430 C   0  0  0  0  0  0  0  0  0  0  0  0
   48.6400   30.0270   43.9220 N   0  0  0  0  0  0  0  0  0  0  0  0
   48.1710   30.7170   44.9350 N   0  0  0  0  0  0  0  0  0  0  0  0
   45.4330   29.6100   43.7530 H   0  0  0  0  0  0  0  0  0  0  0  0
   47.6290   28.8110   42.3690 H   0  0  0  0  0  0  0  0  0  0  0  0
   50.0330   29.8970   43.5640 C   0  0  0  0  0  0  0  0  0  0  0  0
   50.9100   29.2350   44.4180 C   0  0  0  0  0  0  0  0  0  0  0  0
   50.4730   28.8380   45.3460 H   0  0  0  0  0  0  0  0  0  0  0  0
   52.2620   29.0800   44.1220 C   0  0  0  0  0  3  0  0  0  0  0  0
   52.7430   29.6020   42.9430 C   0  0  0  0  0  0  0  0  0  0  0  0
   53.7820   29.4570   42.7630 H   0  0  0  0  0  0  0  0  0  0  0  0
   51.8770   30.2620   42.0890 C   0  0  0  0  0  0  0  0  0  0  0  0
   52.2580   30.6690   41.1670 H   0  0  0  0  0  0  0  0  0  0  0  0
   50.5290   30.4100   42.3950 C   0  0  0  0  0  3  0  0  0  0  0  0
  1  8  1  0  0  0  0
  1  6  1  0  0  0  0
  2  1  2  0  0  0  0
  3  2  1  0  0  0  0
  3  4  2  0  0  0  0
  4  5  1  0  0  0  0
  5  6  2  0  0  0  0
  5  7  1  0  0  0  0
  7  9  1  0  0  0  0
 10  7  1  0  0  0  0
 11 12  1  0  0  0  0
 11 17  1  1  0  0  0
 11  2  1  0  0  0  0
 12 18  1  0  0  0  0
 13 19  1  0  0  0  0
 13 12  2  0  0  0  0
 14 20  1  6  0  0  0
 14 13  1  0  0  0  0
 15 14  1  0  0  0  0
 15 22  1  0  0  0  0
 15 16  1  0  0  0  0
 16 11  1  0  0  0  0
 21 15  1  0  0  0  0
 23 16  1  0  0  0  0
 24 16  1  0  0  0  0
 25 26  1  0  0  0  0
 25 14  1  0  0  0  0
 27 25  1  0  0  0  0
 28 25  1  0  0  0  0
 29  3  1  0  0  0  0
 30 29  1  0  0  0  0
 31 30  2  0  0  0  0
 31 32  1  0  0  0  0
 32 33  1  0  0  0  0
 33 29  2  0  0  0  0
 34 30  1  0  0  0  0
 35 31  1  0  0  0  0
 36 32  1  0  0  0  0
 36 37  1  0  0  0  0
 37 38  1  0  0  0  0
 39 37  2  0  0  0  0
 40 39  1  0  0  0  0
 41 40  1  0  0  0  0
 42 44  1  0  0  0  0
 42 40  2  0  0  0  0
 43 42  1  0  0  0  0
 44 36  2  0  0  0  0
M  END
>  <minimizedAffinity>
-5.90628386

>  <minimizedRMSD>
0.379492879

$$$$
