
 OpenBabel03232518113D

 39 43  0  0  0  0  0  0  0  0999 V2000
   46.3910   30.6870   46.0640 C   0  0  0  0  0  0  0  0  0  0  0  0
   45.6230   31.1840   47.1220 C   0  0  0  0  0  0  0  0  0  0  0  0
   44.9700   30.0850   47.6500 C   0  0  0  0  0  0  0  0  0  0  0  0
   45.3240   29.0000   46.9540 N   0  0  0  0  0  0  0  0  0  0  0  0
   46.1800   29.3390   45.9930 N   0  0  0  0  0  0  0  0  0  0  0  0
   45.6780   32.2270   47.3090 H   0  0  0  0  0  0  0  0  0  0  0  0
   44.3110   30.2520   48.4940 H   0  0  0  0  0  0  0  0  0  0  0  0
   44.8180   27.6950   47.2580 C   0  0  0  0  0  0  0  0  0  0  0  0
   43.6310   27.1010   46.6050 C   0  0  0  0  0  0  0  0  0  0  0  0
   43.5720   25.4480   47.4630 S   0  0  0  0  0  0  0  0  0  0  0  0
   45.1200   25.8760   48.5050 C   0  0  0  0  0  0  0  0  0  0  0  0
   45.3990   26.9150   48.1660 N   0  0  0  0  0  0  0  0  0  0  0  0
   43.1170   27.6400   45.8850 H   0  0  0  0  0  0  0  0  0  0  0  0
   45.6160   24.9110   49.4440 N   0  0  0  0  0  0  0  0  0  0  0  0
   45.1230   24.6310   50.6700 C   0  0  0  0  0  0  0  0  0  0  0  0
   45.8990   23.6560   51.2110 N   0  0  0  0  0  0  0  0  0  0  0  0
   46.8660   23.3420   50.3120 C   0  0  0  0  0  0  0  0  0  0  0  0
   47.9080   22.4240   50.3560 C   0  0  0  0  0  0  0  0  0  0  0  0
   48.0750   21.7870   51.2160 H   0  0  0  0  0  0  0  0  0  0  0  0
   48.7190   22.3490   49.2740 N   0  0  0  0  0  0  0  0  0  0  0  0
   48.5330   23.1320   48.1890 C   0  0  0  0  0  0  0  0  0  0  0  0
   47.5240   24.0330   48.1260 N   0  0  0  0  0  0  0  0  0  0  0  0
   46.6960   24.1400   49.1780 C   0  0  0  0  0  0  0  0  0  0  0  0
   47.5150   31.3570   44.8670 S   0  0  0  0  0  0  0  0  0  0  0  0
   47.2170   34.7380   42.6970 C   0  0  0  0  0  0  0  0  0  0  0  0
   47.7410   33.5600   43.2360 C   0  0  0  0  0  0  0  0  0  0  0  0
   46.9650   32.8450   44.1270 C   0  0  0  0  0  0  0  0  0  0  0  0
   45.7330   33.3180   44.4360 N   0  0  0  0  0  0  0  0  0  0  0  0
   45.2560   34.4670   43.8930 C   0  0  0  0  0  0  0  0  0  0  0  0
   45.9880   35.1550   43.0440 N   0  0  0  0  0  0  0  0  0  0  0  0
   48.7190   33.1560   43.0110 H   0  0  0  0  0  0  0  0  0  0  0  0
   44.2590   34.8170   44.1650 H   0  0  0  0  0  0  0  0  0  0  0  0
   48.1600   35.4070   41.7530 C   0  0  0  0  0  0  0  0  0  0  0  0
   48.0090   35.1360   40.7070 H   0  0  0  0  0  0  0  0  0  0  0  0
   47.9200   36.5030   41.8480 H   0  0  0  0  0  0  0  0  0  0  0  0
   49.5850   35.2550   42.2450 C   0  0  0  0  0  0  0  0  0  0  0  0
   50.0240   34.4210   41.6450 H   0  0  0  0  0  0  0  0  0  0  0  0
   50.1790   36.1460   42.0170 H   0  0  0  0  0  0  0  0  0  0  0  0
   49.5840   34.9430   43.2980 H   0  0  0  0  0  0  0  0  0  0  0  0
  1  2  1  0  0  0  0
  2  6  1  0  0  0  0
  2  3  2  0  0  0  0
  3  7  1  0  0  0  0
  4  8  1  0  0  0  0
  4  3  1  0  0  0  0
  5  1  2  0  0  0  0
  5  4  1  0  0  0  0
  8 12  1  0  0  0  0
  9  8  2  0  0  0  0
  9 10  1  0  0  0  0
 10 11  1  0  0  0  0
 11 14  1  0  0  0  0
 12 11  2  0  0  0  0
 13  9  1  0  0  0  0
 14 15  1  0  0  0  0
 15 16  2  0  0  0  0
 17 18  1  0  0  0  0
 17 16  1  0  0  0  0
 18 19  1  0  0  0  0
 20 18  2  0  0  0  0
 21 20  1  0  0  0  0
 22 21  2  0  0  0  0
 22 23  1  0  0  0  0
 23 14  1  0  0  0  0
 23 17  2  0  0  0  0
 24  1  1  0  0  0  0
 25 30  2  0  0  0  0
 25 26  1  0  0  0  0
 26 27  2  0  0  0  0
 27 28  1  0  0  0  0
 27 24  1  0  0  0  0
 29 32  1  0  0  0  0
 29 28  2  0  0  0  0
 30 29  1  0  0  0  0
 31 26  1  0  0  0  0
 33 35  1  0  0  0  0
 33 36  1  0  0  0  0
 33 25  1  0  0  0  0
 34 33  1  0  0  0  0
 36 39  1  0  0  0  0
 37 36  1  0  0  0  0
 38 36  1  0  0  0  0
M  END
>  <minimizedAffinity>
-5.78285074

>  <minimizedRMSD>
1.25881302

$$$$
