
 OpenBabel03232520273D

 46 51  0  0  1  0  0  0  0  0999 V2000
   47.0020   34.5420   41.2360 C   0  0  0  0  0  0  0  0  0  0  0  0
   48.2660   35.0170   40.9210 C   0  0  0  0  0  0  0  0  0  0  0  0
   48.5470   34.7400   39.6560 N   0  0  0  0  0  0  0  0  0  0  0  0
   47.4870   34.0940   39.1450 C   0  0  0  0  0  0  0  0  0  0  0  0
   47.2540   33.5780   37.8630 C   0  0  0  0  0  0  0  0  0  0  0  0
   46.0750   32.9570   37.6010 C   0  0  0  0  0  0  0  0  0  0  0  0
   45.0570   32.7870   38.5190 C   0  0  0  0  0  0  0  0  0  0  0  0
   45.3230   33.3070   39.7660 C   0  0  0  0  0  0  0  0  0  0  0  0
   46.4880   33.9460   40.1030 C   0  0  0  0  0  0  0  0  0  0  0  0
   49.4080   34.9460   39.0770 H   0  0  0  0  0  0  0  0  0  0  0  0
   48.0170   33.6760   37.0850 H   0  0  0  0  0  0  0  0  0  0  0  0
   45.9340   32.5690   36.5910 H   0  0  0  0  0  0  0  0  0  0  0  0
   44.1360   32.2810   38.2500 H   0  0  0  0  0  0  0  0  0  0  0  0
   44.5620   33.2070   40.5360 H   0  0  0  0  0  0  0  0  0  0  0  0
   44.8100   35.8190   43.9880 C   0  0  0  0  0  0  0  0  0  0  0  0
   45.4660   35.7330   42.7430 C   0  0  0  0  0  0  0  0  0  0  0  0
   46.3100   34.6420   42.5330 C   0  0  0  0  0  0  0  0  0  0  0  0
   46.4790   33.7000   43.5190 N   0  0  0  0  0  0  0  0  0  0  0  0
   45.8120   33.8500   44.6960 C   0  0  0  0  0  0  0  0  0  0  0  0
   44.9950   34.8790   44.9350 N   0  0  0  0  0  0  0  0  0  0  0  0
   44.1490   36.6560   44.1760 H   0  0  0  0  0  0  0  0  0  0  0  0
   45.2910   36.5050   42.0150 H   0  0  0  0  0  0  0  0  0  0  0  0
   45.9800   33.0750   45.4450 H   0  0  0  0  0  0  0  0  0  0  0  0
   49.1450   35.7220   41.8730 C   0  0  0  0  0  0  0  0  0  0  0  0
   48.5110   36.4040   42.5070 H   0  0  0  0  0  0  0  0  0  0  0  0
   49.8470   36.4100   41.3370 H   0  0  0  0  0  0  0  0  0  0  0  0
   49.8450   34.7770   42.7880 C   0  0  0  0  0  0  0  0  0  0  0  0
   50.6100   35.3760   43.3460 H   0  0  0  0  0  0  0  0  0  0  0  0
   49.1630   34.3850   43.5760 H   0  0  0  0  0  0  0  0  0  0  0  0
   50.6000   33.6740   42.0950 C   0  0  1  0  0  0  0  0  0  0  0  0
   51.1300   32.5040   42.7900 C   0  0  0  0  0  0  0  0  0  0  0  0
   49.8470   32.3430   42.0710 C   0  0  2  0  0  0  0  0  0  0  0  0
   51.0960   33.9800   41.1590 H   0  0  0  0  0  0  0  0  0  0  0  0
   51.1700   32.5150   43.8950 H   0  0  0  0  0  0  0  0  0  0  0  0
   52.0710   32.0400   42.3720 H   0  0  0  0  0  0  0  0  0  0  0  0
   48.9710   32.2350   42.7350 H   0  0  0  0  0  0  0  0  0  0  0  0
   49.9030   31.5560   40.8540 N   0  0  0  0  0  0  0  0  0  0  0  0
   48.8440   31.0210   40.2270 C   0  0  0  0  0  0  0  0  0  0  0  0
   49.2930   30.3640   39.1370 N   0  0  0  0  0  0  0  0  0  0  0  0
   50.6320   30.5170   39.1260 C   0  0  0  0  0  0  0  0  0  0  0  0
   51.6300   30.0680   38.2570 C   0  0  0  0  0  0  0  0  0  0  0  0
   51.3990   29.4760   37.3900 H   0  0  0  0  0  0  0  0  0  0  0  0
   52.9390   30.3580   38.4620 N   0  0  0  0  0  0  0  0  0  0  0  0
   53.2980   31.0940   39.5250 C   0  0  0  0  0  0  0  0  0  0  0  0
   52.3620   31.5540   40.4020 N   0  0  0  0  0  0  0  0  0  0  0  0
   51.0570   31.2800   40.2180 C   0  0  0  0  0  0  0  0  0  0  0  0
  1 17  1  0  0  0  0
  2  1  2  0  0  0  0
  2 24  1  0  0  0  0
  3  2  1  0  0  0  0
  4  3  1  0  0  0  0
  4  9  1  0  0  0  0
  5  4  2  0  0  0  0
  6  5  1  0  0  0  0
  6  7  2  0  0  0  0
  7  8  1  0  0  0  0
  8  9  2  0  0  0  0
  8 14  1  0  0  0  0
  9  1  1  0  0  0  0
 10  3  1  0  0  0  0
 11  5  1  0  0  0  0
 12  6  1  0  0  0  0
 13  7  1  0  0  0  0
 15 21  1  0  0  0  0
 15 20  1  0  0  0  0
 16 15  2  0  0  0  0
 17 16  1  0  0  0  0
 17 18  2  0  0  0  0
 18 19  1  0  0  0  0
 19 20  2  0  0  0  0
 19 23  1  0  0  0  0
 22 16  1  0  0  0  0
 24 25  1  0  0  0  0
 24 27  1  0  0  0  0
 26 24  1  0  0  0  0
 27 28  1  0  0  0  0
 27 29  1  0  0  0  0
 30 33  1  6  0  0  0
 30 27  1  0  0  0  0
 30 31  1  0  0  0  0
 31 34  1  0  0  0  0
 32 30  1  0  0  0  0
 32 36  1  1  0  0  0
 32 31  1  0  0  0  0
 35 31  1  0  0  0  0
 37 32  1  0  0  0  0
 38 37  1  0  0  0  0
 39 38  2  0  0  0  0
 40 39  1  0  0  0  0
 40 46  1  0  0  0  0
 41 43  1  0  0  0  0
 41 40  2  0  0  0  0
 42 41  1  0  0  0  0
 43 44  2  0  0  0  0
 44 45  1  0  0  0  0
 46 45  2  0  0  0  0
 46 37  1  0  0  0  0
M  END
>  <minimizedAffinity>
-6.24341631

>  <minimizedRMSD>
1.752159

$$$$
