
 OpenBabel03232520533D

 36 39  0  0  1  0  0  0  0  0999 V2000
   46.2500   32.8170   45.2050 C   0  0  2  0  0  0  0  0  0  0  0  0
   45.2910   33.9070   45.6310 C   0  0  0  0  0  0  0  0  0  0  0  0
   45.1680   35.0560   44.7760 C   0  0  0  0  0  0  0  0  0  0  0  0
   45.9360   35.1560   43.5500 C   0  0  1  0  0  0  0  0  0  0  0  0
   46.8960   34.0740   43.2640 C   0  0  0  0  0  0  0  0  0  0  0  0
   46.3610   32.7530   43.7230 C   0  0  0  0  0  0  0  0  0  0  0  0
   47.2510   33.1420   45.6140 H   0  0  0  0  0  0  0  0  0  0  0  0
   44.6280   34.0480   46.4740 H   0  0  0  0  0  0  0  0  0  0  0  0
   44.5000   35.8710   45.0230 H   0  0  0  0  0  0  0  0  0  0  0  0
   46.4950   36.1170   43.5440 H   0  0  0  0  0  0  0  0  0  0  0  0
   47.8600   34.3140   43.7710 H   0  0  0  0  0  0  0  0  0  0  0  0
   47.0780   34.0100   42.1710 H   0  0  0  0  0  0  0  0  0  0  0  0
   45.4280   32.5320   43.2080 H   0  0  0  0  0  0  0  0  0  0  0  0
   47.1520   31.9840   43.5050 H   0  0  0  0  0  0  0  0  0  0  0  0
   45.6910   31.5690   47.2400 C   0  0  0  0  0  0  0  0  0  0  0  0
   45.9150   31.5720   45.8760 C   0  0  0  0  0  0  0  0  0  0  0  0
   45.8100   30.3440   45.2300 C   0  0  0  0  0  0  0  0  0  0  0  0
   45.5070   29.2160   45.9050 N   0  0  0  0  0  0  0  0  0  0  0  0
   45.2920   29.2470   47.2500 C   0  0  0  0  0  0  0  0  0  0  0  0
   45.3870   30.4340   47.9080 N   0  0  0  0  0  0  0  0  0  0  0  0
   45.7310   32.4240   47.8970 H   0  0  0  0  0  0  0  0  0  0  0  0
   45.9740   30.2830   44.1680 H   0  0  0  0  0  0  0  0  0  0  0  0
   44.9790   27.9990   47.8600 N   0  0  0  0  0  0  0  0  0  0  0  0
   44.6060   27.6210   49.0970 C   0  0  0  0  0  3  0  0  0  0  0  0
   44.4400   26.2680   49.0970 N   0  0  0  0  0  0  0  0  0  0  0  0
   44.7100   25.8030   47.8550 C   0  0  0  0  0  0  0  0  0  0  0  0
   44.6590   24.4900   47.4380 C   0  0  0  0  0  0  0  0  0  0  0  0
   44.3880   23.6760   48.0920 H   0  0  0  0  0  0  0  0  0  0  0  0
   44.9810   24.3070   46.1270 N   0  0  0  0  0  0  0  0  0  0  0  0
   45.3160   25.3310   45.3310 C   0  0  0  0  0  3  0  0  0  0  0  0
   45.3430   26.5860   45.8120 N   0  0  0  0  0  0  0  0  0  0  0  0
   45.0420   26.8830   47.0940 C   0  0  0  0  0  0  0  0  0  0  0  0
   44.9410   35.2770   42.3850 C   0  0  0  0  0  0  0  0  0  0  0  0
   43.7900   34.5540   42.5880 F   0  0  0  0  0  0  0  0  0  0  0  0
   44.5520   36.6180   42.3050 F   0  0  0  0  0  0  0  0  0  0  0  0
   45.5720   34.9610   41.1910 F   0  0  0  0  0  0  0  0  0  0  0  0
  1  7  1  1  0  0  0
  1  2  1  0  0  0  0
  1 16  1  0  0  0  0
  2  8  1  0  0  0  0
  3  9  1  0  0  0  0
  3  2  2  0  0  0  0
  4 10  1  1  0  0  0
  4  3  1  0  0  0  0
  5  4  1  0  0  0  0
  5  6  1  0  0  0  0
  5 11  1  0  0  0  0
  6  1  1  0  0  0  0
 12  5  1  0  0  0  0
 13  6  1  0  0  0  0
 14  6  1  0  0  0  0
 15 21  1  0  0  0  0
 15 20  1  0  0  0  0
 16 15  2  0  0  0  0
 17 16  1  0  0  0  0
 17 18  2  0  0  0  0
 18 19  1  0  0  0  0
 19 23  1  0  0  0  0
 19 20  2  0  0  0  0
 22 17  1  0  0  0  0
 23 24  1  0  0  0  0
 24 25  2  0  0  0  0
 26 25  1  0  0  0  0
 27 26  1  0  0  0  0
 27 28  1  0  0  0  0
 29 27  2  0  0  0  0
 30 31  2  0  0  0  0
 30 29  1  0  0  0  0
 31 32  1  0  0  0  0
 32 26  2  0  0  0  0
 32 23  1  0  0  0  0
 33 34  1  0  0  0  0
 33  4  1  0  0  0  0
 35 33  1  0  0  0  0
 36 33  1  0  0  0  0
M  END
>  <minimizedAffinity>
-4.95550299

>  <minimizedRMSD>
2.01152658

$$$$
