
 OpenBabel03232520203D

 42 46  0  0  0  0  0  0  0  0999 V2000
   47.5430   34.1160   42.2310 C   0  0  0  0  0  0  0  0  0  0  0  0
   48.3810   35.2350   41.6870 C   0  0  0  0  0  0  0  0  0  0  0  0
   49.7220   35.3840   42.2850 C   0  0  0  0  0  0  0  0  0  0  0  0
   50.4710   34.1120   42.4750 C   0  0  0  0  0  0  0  0  0  0  0  0
   49.6400   32.8660   42.2490 C   0  0  0  0  0  0  0  0  0  0  0  0
   48.3220   33.0710   42.9760 C   0  0  0  0  0  0  0  0  0  0  0  0
   47.8280   36.2040   41.8090 H   0  0  0  0  0  0  0  0  0  0  0  0
   48.5280   35.1150   40.5800 H   0  0  0  0  0  0  0  0  0  0  0  0
   50.3160   36.0590   41.6420 H   0  0  0  0  0  0  0  0  0  0  0  0
   49.6270   35.8930   43.2860 H   0  0  0  0  0  0  0  0  0  0  0  0
   51.3510   34.0400   41.7940 H   0  0  0  0  0  0  0  0  0  0  0  0
   50.9200   34.0320   43.4990 H   0  0  0  0  0  0  0  0  0  0  0  0
   49.4200   32.6930   41.1790 H   0  0  0  0  0  0  0  0  0  0  0  0
   50.1680   31.9990   42.6910 H   0  0  0  0  0  0  0  0  0  0  0  0
   47.7750   32.1060   42.9740 H   0  0  0  0  0  0  0  0  0  0  0  0
   48.5230   33.3620   44.0430 H   0  0  0  0  0  0  0  0  0  0  0  0
   45.2260   34.4850   45.0970 C   0  0  0  0  0  0  0  0  0  0  0  0
   44.5200   35.6480   44.7810 C   0  0  0  0  0  0  0  0  0  0  0  0
   44.8450   36.2960   43.5890 C   0  0  0  0  0  0  0  0  0  0  0  0
   45.8200   35.7660   42.8120 N   0  0  0  0  0  0  0  0  0  0  0  0
   46.4890   34.6320   43.1490 C   0  0  0  0  0  0  0  0  0  0  0  0
   46.1750   33.9980   44.3080 N   0  0  0  0  0  0  0  0  0  0  0  0
   44.9550   34.0040   46.0240 H   0  0  0  0  0  0  0  0  0  0  0  0
   43.7380   36.0980   45.3740 H   0  0  0  0  0  0  0  0  0  0  0  0
   44.3560   37.2020   43.2550 H   0  0  0  0  0  0  0  0  0  0  0  0
   46.8880   33.4170   41.0660 C   0  0  0  0  0  0  0  0  0  0  0  0
   45.8370   32.5360   40.8630 C   0  0  0  0  0  0  0  0  0  0  0  0
   45.5920   32.1500   39.5970 C   0  0  0  0  0  0  0  0  0  0  0  0
   46.3230   32.5880   38.5580 C   0  0  0  0  0  0  0  0  0  0  0  0
   47.5450   33.7040   39.4040 S   0  0  0  0  0  0  0  0  0  0  0  0
   45.3300   32.2600   41.7740 H   0  0  0  0  0  0  0  0  0  0  0  0
   44.7800   31.4600   39.3890 H   0  0  0  0  0  0  0  0  0  0  0  0
   46.2820   32.3540   37.2040 N   0  0  0  0  0  0  0  0  0  0  0  0
   47.2270   32.6150   36.2820 C   0  0  0  0  0  0  0  0  0  0  0  0
   46.7890   32.2320   35.0730 N   0  0  0  0  0  0  0  0  0  0  0  0
   45.5380   31.7180   35.2320 C   0  0  0  0  0  0  0  0  0  0  0  0
   44.6310   31.1830   34.3250 C   0  0  0  0  0  0  0  0  0  0  0  0
   44.9100   31.1370   33.2860 H   0  0  0  0  0  0  0  0  0  0  0  0
   43.4490   30.7540   34.8330 N   0  0  0  0  0  0  0  0  0  0  0  0
   43.1230   30.8190   36.1250 C   0  0  0  0  0  0  0  0  0  0  0  0
   44.0100   31.3420   37.0020 N   0  0  0  0  0  0  0  0  0  0  0  0
   45.2270   31.8020   36.5930 C   0  0  0  0  0  0  0  0  0  0  0  0
  1  6  1  0  0  0  0
  1 21  1  0  0  0  0
  2  7  1  0  0  0  0
  2  1  1  0  0  0  0
  2  3  1  0  0  0  0
  3  4  1  0  0  0  0
  3 10  1  0  0  0  0
  4 12  1  0  0  0  0
  5  4  1  0  0  0  0
  5 14  1  0  0  0  0
  5  6  1  0  0  0  0
  6 16  1  0  0  0  0
  8  2  1  0  0  0  0
  9  3  1  0  0  0  0
 11  4  1  0  0  0  0
 13  5  1  0  0  0  0
 15  6  1  0  0  0  0
 17 23  1  0  0  0  0
 18 17  1  0  0  0  0
 18 24  1  0  0  0  0
 19 18  2  0  0  0  0
 20 21  2  0  0  0  0
 20 19  1  0  0  0  0
 21 22  1  0  0  0  0
 22 17  2  0  0  0  0
 25 19  1  0  0  0  0
 26  1  1  0  0  0  0
 27 26  2  0  0  0  0
 27 31  1  0  0  0  0
 28 27  1  0  0  0  0
 29 30  1  0  0  0  0
 29 28  2  0  0  0  0
 30 26  1  0  0  0  0
 32 28  1  0  0  0  0
 33 29  1  0  0  0  0
 34 33  1  0  0  0  0
 35 36  1  0  0  0  0
 35 34  2  0  0  0  0
 36 42  1  0  0  0  0
 37 39  1  0  0  0  0
 37 36  2  0  0  0  0
 38 37  1  0  0  0  0
 39 40  2  0  0  0  0
 40 41  1  0  0  0  0
 42 41  2  0  0  0  0
 42 33  1  0  0  0  0
M  END
>  <minimizedAffinity>
-6.41336346

>  <minimizedRMSD>
0.654572725

$$$$
