
 OpenBabel03232516373D

 42 45  0  0  1  0  0  0  0  0999 V2000
   45.5500   33.1470   43.1600 C   0  0  2  0  0  0  0  0  0  0  0  0
   45.8260   34.3170   44.0230 C   0  0  0  0  0  0  0  0  0  0  0  0
   45.4360   35.6030   43.5020 C   0  0  0  0  0  0  0  0  0  0  0  0
   44.8060   35.7480   42.2100 C   0  0  0  0  0  0  0  0  0  0  0  0
   44.5150   34.5290   41.4650 C   0  0  0  0  0  0  0  0  0  0  0  0
   44.2730   33.3670   42.3880 C   0  0  0  0  0  0  0  0  0  0  0  0
   46.2670   34.5280   44.9900 H   0  0  0  0  0  0  0  0  0  0  0  0
   45.5930   36.5010   44.0470 H   0  0  0  0  0  0  0  0  0  0  0  0
   43.8630   36.3430   42.3640 H   0  0  0  0  0  0  0  0  0  0  0  0
   45.4540   36.4250   41.5840 H   0  0  0  0  0  0  0  0  0  0  0  0
   43.5630   34.6680   40.8720 H   0  0  0  0  0  0  0  0  0  0  0  0
   45.2880   34.3420   40.7030 H   0  0  0  0  0  0  0  0  0  0  0  0
   43.9590   32.4570   41.8700 H   0  0  0  0  0  0  0  0  0  0  0  0
   43.5370   33.6960   43.1440 H   0  0  0  0  0  0  0  0  0  0  0  0
   45.9360   32.0530   45.3070 C   0  0  0  0  0  0  0  0  0  0  0  0
   45.5580   31.9270   43.9840 C   0  0  0  0  0  0  0  0  0  0  0  0
   45.2460   30.6150   43.4610 C   0  0  0  0  0  0  0  0  0  0  0  0
   45.3370   29.5550   44.2770 N   0  0  0  0  0  0  0  0  0  0  0  0
   45.7180   29.7270   45.5720 C   0  0  0  0  0  0  0  0  0  0  0  0
   46.0040   30.9360   46.0660 N   0  0  0  0  0  0  0  0  0  0  0  0
   46.1940   32.9100   45.8840 H   0  0  0  0  0  0  0  0  0  0  0  0
   44.9630   30.6530   42.4210 H   0  0  0  0  0  0  0  0  0  0  0  0
   45.7900   28.5290   46.3690 N   0  0  0  0  0  0  0  0  0  0  0  0
   46.8930   28.1270   47.0610 C   0  0  0  0  0  0  0  0  0  0  0  0
   46.6700   26.9790   47.7080 N   0  0  0  0  0  0  0  0  0  0  0  0
   45.4090   26.6180   47.4420 C   0  0  0  0  0  0  0  0  0  0  0  0
   44.5890   25.5510   47.8020 C   0  0  0  0  0  0  0  0  0  0  0  0
   45.0470   24.8220   48.4500 H   0  0  0  0  0  0  0  0  0  0  0  0
   43.3230   25.4900   47.3430 N   0  0  0  0  0  0  0  0  0  0  0  0
   42.8270   26.4270   46.5470 C   0  0  0  0  0  0  0  0  0  0  0  0
   43.6100   27.4820   46.1790 N   0  0  0  0  0  0  0  0  0  0  0  0
   44.8660   27.5810   46.6120 C   0  0  0  0  0  0  0  0  0  0  0  0
   46.7700   33.0360   42.2410 C   0  0  0  0  0  0  0  0  0  0  0  0
   46.9990   32.6780   41.0420 O   0  0  0  0  0  0  0  0  0  0  0  0
   48.0180   33.4420   42.8820 N   0  0  0  0  0  0  0  0  0  0  0  0
   48.7030   34.6060   42.5550 C   0  0  0  0  0  0  0  0  0  0  0  0
   48.4250   35.5300   41.8020 N   0  0  0  0  0  0  0  0  0  0  0  0
   49.9790   35.0000   43.1090 N   0  0  0  0  0  0  0  0  0  0  0  0
   47.6580   35.7860   41.2290 H   0  0  0  0  0  0  0  0  0  0  0  0
   48.4070   32.8650   43.6460 H   0  0  0  0  0  0  0  0  0  0  0  0
   50.0100   35.6650   43.9150 H   0  0  0  0  0  0  0  0  0  0  0  0
   50.7150   34.4880   42.5350 H   0  0  0  0  0  0  0  0  0  0  0  0
  1 33  1  6  0  0  0
  1 16  1  0  0  0  0
  1  2  1  0  0  0  0
  2  7  1  0  0  0  0
  3  2  2  0  0  0  0
  3  8  1  0  0  0  0
  4  9  1  0  0  0  0
  4  3  1  0  0  0  0
  5  4  1  0  0  0  0
  5  6  1  0  0  0  0
  6 14  1  0  0  0  0
  6  1  1  0  0  0  0
 10  4  1  0  0  0  0
 11  5  1  0  0  0  0
 12  5  1  0  0  0  0
 13  6  1  0  0  0  0
 15 21  1  0  0  0  0
 15 20  1  0  0  0  0
 16 15  2  0  0  0  0
 17 16  1  0  0  0  0
 17 18  2  0  0  0  0
 18 19  1  0  0  0  0
 19 20  2  0  0  0  0
 19 23  1  0  0  0  0
 22 17  1  0  0  0  0
 23 32  1  0  0  0  0
 23 24  1  0  0  0  0
 24 25  2  0  0  0  0
 26 25  1  0  0  0  0
 26 27  1  0  0  0  0
 27 28  1  0  0  0  0
 29 27  2  0  0  0  0
 30 29  1  0  0  0  0
 31 30  2  0  0  0  0
 31 32  1  0  0  0  0
 32 26  2  0  0  0  0
 33 35  1  0  0  0  0
 34 33  2  0  0  0  0
 35 40  1  0  0  0  0
 36 35  1  0  0  0  0
 36 38  1  0  0  0  0
 37 36  2  0  0  0  0
 38 41  1  0  0  0  0
 39 37  1  0  0  0  0
 42 38  1  0  0  0  0
M  END
>  <minimizedAffinity>
-6.00476074

>  <minimizedRMSD>
2.47893429

$$$$
