
 OpenBabel03232520233D

 33 37  0  0  0  0  0  0  0  0999 V2000
   45.2570   33.9870   40.7950 C   0  0  0  0  0  0  0  0  0  0  0  0
   44.1860   33.9000   39.9090 C   0  0  0  0  0  0  0  0  0  0  0  0
   44.6450   33.5000   38.7080 N   0  0  0  0  0  0  0  0  0  0  0  0
   45.9750   33.3320   38.8130 C   0  0  0  0  0  0  0  0  0  0  0  0
   46.9040   32.9310   37.8590 C   0  0  0  0  0  0  0  0  0  0  0  0
   48.2170   32.8420   38.2400 C   0  0  0  0  0  0  0  0  0  0  0  0
   48.7010   33.1240   39.5150 C   0  0  0  0  0  0  0  0  0  0  0  0
   47.7230   33.5140   40.4040 C   0  0  0  0  0  0  0  0  0  0  0  0
   46.3880   33.6300   40.1110 C   0  0  0  0  0  0  0  0  0  0  0  0
   44.0860   33.3450   37.8490 H   0  0  0  0  0  0  0  0  0  0  0  0
   46.5840   32.7000   36.8520 H   0  0  0  0  0  0  0  0  0  0  0  0
   48.9090   32.5250   37.4670 H   0  0  0  0  0  0  0  0  0  0  0  0
   49.7490   33.0380   39.7700 H   0  0  0  0  0  0  0  0  0  0  0  0
   48.0240   33.7500   41.4170 H   0  0  0  0  0  0  0  0  0  0  0  0
   42.8180   34.1740   40.1670 N   0  0  0  0  0  0  0  0  0  0  0  0
   42.0420   35.2290   39.8890 C   0  0  0  0  0  0  0  0  0  0  0  0
   40.7840   35.0400   40.3350 N   0  0  0  0  0  0  0  0  0  0  0  0
   40.7100   33.8230   40.9320 C   0  0  0  0  0  0  0  0  0  0  0  0
   39.7160   33.0960   41.5570 C   0  0  0  0  0  0  0  0  0  0  0  0
   38.7140   33.5250   41.6390 H   0  0  0  0  0  0  0  0  0  0  0  0
   40.0230   31.8730   42.0470 N   0  0  0  0  0  0  0  0  0  0  0  0
   41.2630   31.3560   41.9400 C   0  0  0  0  0  0  0  0  0  0  0  0
   42.2370   32.0710   41.3260 N   0  0  0  0  0  0  0  0  0  0  0  0
   41.9900   33.3040   40.8130 C   0  0  0  0  0  0  0  0  0  0  0  0
   45.2220   33.7710   44.5150 C   0  0  0  0  0  0  0  0  0  0  0  0
   45.2810   33.3700   43.1680 C   0  0  0  0  0  0  0  0  0  0  0  0
   45.1980   34.3810   42.1930 C   0  0  0  0  0  0  0  0  0  0  0  0
   45.0670   35.6710   42.5960 N   0  0  0  0  0  0  0  0  0  0  0  0
   45.0140   36.0140   43.9150 C   0  0  0  0  0  0  0  0  0  0  0  0
   45.0900   35.0760   44.8720 N   0  0  0  0  0  0  0  0  0  0  0  0
   45.2790   33.0630   45.3230 H   0  0  0  0  0  0  0  0  0  0  0  0
   45.3860   32.3160   42.9500 H   0  0  0  0  0  0  0  0  0  0  0  0
   44.9080   37.0870   44.0020 H   0  0  0  0  0  0  0  0  0  0  0  0
  1 27  1  0  0  0  0
  2 15  1  0  0  0  0
  2  1  2  0  0  0  0
  3  4  1  0  0  0  0
  3  2  1  0  0  0  0
  4  9  1  0  0  0  0
  5  6  1  0  0  0  0
  5  4  2  0  0  0  0
  6  7  2  0  0  0  0
  7 13  1  0  0  0  0
  7  8  1  0  0  0  0
  8 14  1  0  0  0  0
  9  8  2  0  0  0  0
  9  1  1  0  0  0  0
 10  3  1  0  0  0  0
 11  5  1  0  0  0  0
 12  6  1  0  0  0  0
 15 24  1  0  0  0  0
 16 15  1  0  0  0  0
 16 17  2  0  0  0  0
 17 18  1  0  0  0  0
 18 19  1  0  0  0  0
 19 20  1  0  0  0  0
 19 21  2  0  0  0  0
 22 21  1  0  0  0  0
 23 22  2  0  0  0  0
 24 18  2  0  0  0  0
 24 23  1  0  0  0  0
 25 30  1  0  0  0  0
 25 31  1  0  0  0  0
 26 25  2  0  0  0  0
 27 28  2  0  0  0  0
 27 26  1  0  0  0  0
 28 29  1  0  0  0  0
 29 33  1  0  0  0  0
 29 30  2  0  0  0  0
 32 26  1  0  0  0  0
M  END
>  <minimizedAffinity>
-5.65164661

>  <minimizedRMSD>
6.40229559

$$$$
