
 OpenBabel03232521013D

 45 48  0  0  1  0  0  0  0  0999 V2000
   45.2820   32.9040   47.5050 C   0  0  0  0  0  0  0  0  0  0  0  0
   45.8840   32.6550   46.3150 C   0  0  0  0  0  0  0  0  0  0  0  0
   46.2010   31.3120   46.0960 C   0  0  0  0  0  0  0  0  0  0  0  0
   45.9370   30.3250   46.9880 N   0  0  0  0  0  0  0  0  0  0  0  0
   45.3210   30.6400   48.1870 C   0  0  0  0  0  0  0  0  0  0  0  0
   45.0100   31.9180   48.4130 N   0  0  0  0  0  0  0  0  0  0  0  0
   45.0710   29.6220   49.1470 N   0  0  0  0  0  0  0  0  0  0  0  0
   44.9970   33.9070   47.7780 H   0  0  0  0  0  0  0  0  0  0  0  0
   45.9220   29.2410   49.6170 H   0  0  0  0  0  0  0  0  0  0  0  0
   44.1260   29.2840   49.3650 H   0  0  0  0  0  0  0  0  0  0  0  0
   46.1390   33.6010   45.2830 C   0  0  2  0  0  0  0  0  0  0  0  0
   44.9370   34.7050   45.5070 C   0  0  0  0  0  0  0  0  0  0  0  0
   44.7180   35.6320   44.4340 C   0  0  0  0  0  0  0  0  0  0  0  0
   45.5230   35.5510   43.2090 C   0  0  1  0  0  0  0  0  0  0  0  0
   46.5740   34.5420   43.1690 C   0  0  0  0  0  0  0  0  0  0  0  0
   46.1120   33.3140   43.9200 C   0  0  0  0  0  0  0  0  0  0  0  0
   46.9400   34.3260   45.6150 H   0  0  0  0  0  0  0  0  0  0  0  0
   44.2620   34.8600   46.3400 H   0  0  0  0  0  0  0  0  0  0  0  0
   43.9570   36.3570   44.5380 H   0  0  0  0  0  0  0  0  0  0  0  0
   45.9570   36.5590   43.0190 H   0  0  0  0  0  0  0  0  0  0  0  0
   46.8360   34.3320   42.1010 H   0  0  0  0  0  0  0  0  0  0  0  0
   47.5180   34.9330   43.6380 H   0  0  0  0  0  0  0  0  0  0  0  0
   45.1680   32.9630   43.4520 H   0  0  0  0  0  0  0  0  0  0  0  0
   46.9580   32.6570   43.5920 H   0  0  0  0  0  0  0  0  0  0  0  0
   44.5090   35.2890   42.0560 C   0  0  0  0  0  0  0  0  0  0  0  0
   43.4440   34.4980   42.4520 F   0  0  0  0  0  0  0  0  0  0  0  0
   43.9750   36.5310   41.7180 F   0  0  0  0  0  0  0  0  0  0  0  0
   45.1810   34.8230   40.9440 F   0  0  0  0  0  0  0  0  0  0  0  0
   46.8960   30.6250   45.0200 C   0  0  0  0  0  0  0  0  0  0  0  0
   46.6040   29.8170   43.9700 C   0  0  0  0  0  0  0  0  0  0  0  0
   47.8130   29.4680   43.3440 C   0  0  0  0  0  0  0  0  0  0  0  0
   48.7660   30.0830   44.0450 N   0  0  0  0  0  0  0  0  0  0  0  0
   48.2530   30.7700   45.0370 N   0  0  0  0  0  0  0  0  0  0  0  0
   45.5700   29.5830   43.7930 H   0  0  0  0  0  0  0  0  0  0  0  0
   47.7660   28.8260   42.4850 H   0  0  0  0  0  0  0  0  0  0  0  0
   52.7470   29.4630   42.7230 C   0  0  0  0  0  0  0  0  0  0  0  0
   51.8910   30.2740   42.0060 C   0  0  0  0  0  3  0  0  0  0  0  0
   50.5970   30.4650   42.4520 C   0  0  0  0  0  3  0  0  0  0  0  0
   50.1100   29.8770   43.5930 C   0  0  0  0  0  0  0  0  0  0  0  0
   50.9530   29.0600   44.3270 C   0  0  0  0  0  3  0  0  0  0  0  0
   52.2590   28.8700   43.8720 C   0  0  0  0  0  3  0  0  0  0  0  0
   54.6020   27.8110   42.1820 H   0  0  0  0  0  0  0  0  0  0  0  0
   54.4100   29.1540   42.2440 S   0  0  0  0  0  0  0  0  0  0  0  0
   54.6990   29.8670   40.9560 O   0  0  0  0  0  0  0  0  0  0  0  0
   55.3330   29.6790   43.3310 O   0  0  0  0  0  0  0  0  0  0  0  0
  1  8  1  0  0  0  0
  1  6  1  0  0  0  0
  2  1  2  0  0  0  0
  3  2  1  0  0  0  0
  3  4  2  0  0  0  0
  4  5  1  0  0  0  0
  5  6  2  0  0  0  0
  5  7  1  0  0  0  0
  7 10  1  0  0  0  0
  7  9  1  0  0  0  0
 11 12  1  0  0  0  0
 11 17  1  1  0  0  0
 11  2  1  0  0  0  0
 12 18  1  0  0  0  0
 13 19  1  0  0  0  0
 13 12  2  0  0  0  0
 14 20  1  6  0  0  0
 14 13  1  0  0  0  0
 15 14  1  0  0  0  0
 15 22  1  0  0  0  0
 15 16  1  0  0  0  0
 16 11  1  0  0  0  0
 21 15  1  0  0  0  0
 23 16  1  0  0  0  0
 24 16  1  0  0  0  0
 25 26  1  0  0  0  0
 25 14  1  0  0  0  0
 27 25  1  0  0  0  0
 28 25  1  0  0  0  0
 29 33  2  0  0  0  0
 29  3  1  0  0  0  0
 30 29  1  0  0  0  0
 31 30  2  0  0  0  0
 31 32  1  0  0  0  0
 32 33  1  0  0  0  0
 34 30  1  0  0  0  0
 35 31  1  0  0  0  0
 36 41  1  0  0  0  0
 37 38  1  0  0  0  0
 37 36  2  0  0  0  0
 38 39  2  0  0  0  0
 39 32  1  0  0  0  0
 39 40  1  0  0  0  0
 41 40  2  0  0  0  0
 42 43  1  0  0  0  0
 43 36  1  0  0  0  0
 43 45  2  0  0  0  0
 44 43  2  0  0  0  0
M  END
>  <minimizedAffinity>
-5.84219027

>  <minimizedRMSD>
0.449183822

$$$$
