
 OpenBabel03232519253D

 21 22  0  0  0  0  0  0  0  0999 V2000
   46.7850   34.8060   41.7370 C   0  0  0  0  0  0  0  0  0  0  0  0
   46.8540   33.7420   41.4630 H   0  0  0  0  0  0  0  0  0  0  0  0
   46.2990   35.4170   40.9650 H   0  0  0  0  0  0  0  0  0  0  0  0
   45.2680   36.0220   43.2310 C   0  0  0  0  0  0  0  0  0  0  0  0
   46.0910   34.9100   43.0020 C   0  0  0  0  0  0  0  0  0  0  0  0
   46.1850   33.9690   44.0230 C   0  0  0  0  0  0  0  0  0  0  0  0
   45.4800   34.1820   45.1720 N   0  0  0  0  0  0  0  0  0  0  0  0
   44.6970   35.2740   45.3440 C   0  0  0  0  0  0  0  0  0  0  0  0
   44.5830   36.2000   44.3800 N   0  0  0  0  0  0  0  0  0  0  0  0
   45.1430   36.8030   42.4770 H   0  0  0  0  0  0  0  0  0  0  0  0
   46.8070   33.0990   43.8870 H   0  0  0  0  0  0  0  0  0  0  0  0
   44.1350   35.4520   46.2490 H   0  0  0  0  0  0  0  0  0  0  0  0
   48.1790   35.4190   41.9120 C   0  0  0  0  0  0  0  0  0  0  0  0
   48.3310   36.1970   41.1360 H   0  0  0  0  0  0  0  0  0  0  0  0
   48.2280   35.9510   42.9070 H   0  0  0  0  0  0  0  0  0  0  0  0
   49.2250   34.3940   41.9380 C   0  0  0  0  0  0  0  0  0  0  0  0
   49.1540   33.2340   41.2280 C   0  0  0  0  0  0  0  0  0  0  0  0
   50.2740   32.5260   41.4800 N   0  0  0  0  0  0  0  0  0  0  0  0
   51.0440   33.2320   42.3420 C   0  0  0  0  0  0  0  0  0  0  0  0
   50.3860   34.3830   42.6160 N   0  0  0  0  0  0  0  0  0  0  0  0
   50.6350   35.1890   43.2280 H   0  0  0  0  0  0  0  0  0  0  0  0
  1 13  1  0  0  0  0
  1  5  1  0  0  0  0
  2  1  1  0  0  0  0
  3  1  1  0  0  0  0
  4  9  1  0  0  0  0
  5  4  2  0  0  0  0
  5  6  1  0  0  0  0
  6  7  2  0  0  0  0
  7  8  1  0  0  0  0
  8 12  1  0  0  0  0
  9  8  2  0  0  0  0
 10  4  1  0  0  0  0
 11  6  1  0  0  0  0
 13 16  1  0  0  0  0
 13 15  1  0  0  0  0
 14 13  1  0  0  0  0
 16 20  1  0  0  0  0
 17 18  1  0  0  0  0
 17 16  2  0  0  0  0
 18 19  2  0  0  0  0
 19 20  1  0  0  0  0
 20 21  1  0  0  0  0
M  END
>  <minimizedAffinity>
-4.54763412

>  <minimizedRMSD>
2.54917169

$$$$
