
 OpenBabel03232519133D

 30 32  0  0  1  0  0  0  0  0999 V2000
   45.5700   34.4690   43.8750 C   0  0  0  0  0  0  0  0  0  0  0  0
   46.6100   34.1510   42.9790 C   0  0  0  0  0  0  0  0  0  0  0  0
   47.5940   33.2170   43.3700 C   0  0  0  0  0  0  0  0  0  0  0  0
   47.4630   32.6800   44.6080 N   0  0  0  0  0  0  0  0  0  0  0  0
   46.4580   33.0040   45.4410 C   0  0  0  0  0  0  0  0  0  0  0  0
   45.5080   33.8910   45.0950 N   0  0  0  0  0  0  0  0  0  0  0  0
   46.6840   34.6000   41.9960 H   0  0  0  0  0  0  0  0  0  0  0  0
   48.4010   32.9560   42.7030 H   0  0  0  0  0  0  0  0  0  0  0  0
   46.3680   32.3860   46.7700 C   0  0  0  0  0  0  0  0  0  0  0  0
   47.3970   31.5140   47.1810 C   0  0  0  0  0  0  0  0  0  0  0  0
   46.7810   31.0360   48.8900 S   0  0  0  0  0  0  0  0  0  0  0  0
   45.2430   32.1330   48.6790 C   0  0  0  0  0  0  0  0  0  0  0  0
   45.3980   32.5560   47.6600 N   0  0  0  0  0  0  0  0  0  0  0  0
   48.2690   31.1930   46.7120 H   0  0  0  0  0  0  0  0  0  0  0  0
   44.4260   32.2840   49.4120 H   0  0  0  0  0  0  0  0  0  0  0  0
   44.5380   35.4490   43.4680 C   0  0  1  0  0  0  0  0  0  0  0  0
   43.5750   35.1820   43.9020 H   0  0  0  0  0  0  0  0  0  0  0  0
   44.8910   36.8200   44.0130 C   0  0  0  0  0  0  0  0  0  0  0  0
   45.6830   37.2380   43.3400 H   0  0  0  0  0  0  0  0  0  0  0  0
   45.2610   36.7700   45.0470 H   0  0  0  0  0  0  0  0  0  0  0  0
   44.0140   37.4620   43.8890 H   0  0  0  0  0  0  0  0  0  0  0  0
   44.3950   35.5290   41.9680 C   0  0  0  0  0  0  0  0  0  0  0  0
   44.7930   36.5030   41.6190 H   0  0  0  0  0  0  0  0  0  0  0  0
   44.9620   34.6750   41.5510 H   0  0  0  0  0  0  0  0  0  0  0  0
   42.9740   35.4220   41.5370 C   0  0  0  0  0  0  0  0  0  0  0  0
   42.5890   35.1390   40.2280 C   0  0  0  0  0  0  0  0  0  0  0  0
   41.2580   35.1090   40.1560 N   0  0  0  0  0  0  0  0  0  0  0  0
   40.7640   35.3690   41.3930 C   0  0  0  0  0  0  0  0  0  0  0  0
   41.8090   35.5550   42.2130 N   0  0  0  0  0  0  0  0  0  0  0  0
   41.7800   35.7730   43.2320 H   0  0  0  0  0  0  0  0  0  0  0  0
  1  6  1  0  0  0  0
  2  3  1  0  0  0  0
  2  1  2  0  0  0  0
  3  4  2  0  0  0  0
  4  5  1  0  0  0  0
  5  9  1  0  0  0  0
  6  5  2  0  0  0  0
  7  2  1  0  0  0  0
  8  3  1  0  0  0  0
  9 10  2  0  0  0  0
  9 13  1  0  0  0  0
 10 11  1  0  0  0  0
 12 11  1  0  0  0  0
 12 15  1  0  0  0  0
 13 12  2  0  0  0  0
 14 10  1  0  0  0  0
 16  1  1  0  0  0  0
 16 17  1  1  0  0  0
 16 18  1  0  0  0  0
 18 20  1  0  0  0  0
 19 18  1  0  0  0  0
 21 18  1  0  0  0  0
 22 16  1  0  0  0  0
 23 22  1  0  0  0  0
 24 22  1  0  0  0  0
 25 22  1  0  0  0  0
 25 29  1  0  0  0  0
 26 25  2  0  0  0  0
 27 26  1  0  0  0  0
 27 28  2  0  0  0  0
 28 29  1  0  0  0  0
 29 30  1  0  0  0  0
M  END
>  <minimizedAffinity>
-5.30299425

>  <minimizedRMSD>
1.11260998

$$$$
