
 OpenBabel03232520023D

 23 24  0  0  0  0  0  0  0  0999 V2000
   48.0200   34.7950   42.2590 C   0  0  0  0  0  0  0  0  0  0  0  0
   47.3650   34.5450   41.0420 C   0  0  0  0  0  0  0  0  0  0  0  0
   46.1570   33.8540   41.0980 C   0  0  0  0  0  0  0  0  0  0  0  0
   45.6730   33.4560   42.3020 N   0  0  0  0  0  0  0  0  0  0  0  0
   46.3490   33.7240   43.4560 C   0  0  0  0  0  0  0  0  0  0  0  0
   47.4970   34.3820   43.4010 N   0  0  0  0  0  0  0  0  0  0  0  0
   47.7700   34.8710   40.0940 H   0  0  0  0  0  0  0  0  0  0  0  0
   45.6360   33.6500   40.1770 H   0  0  0  0  0  0  0  0  0  0  0  0
   49.2870   35.5200   42.2030 C   0  0  0  0  0  0  0  0  0  0  0  0
   49.4430   36.4540   41.3790 O   0  0  0  0  0  0  0  0  0  0  0  0
   50.2960   35.1440   43.0790 O   0  0  0  0  0  0  0  0  0  0  0  0
   51.2400   35.4750   42.8270 H   0  0  0  0  0  0  0  0  0  0  0  0
   45.7520   33.2230   45.0560 S   0  0  0  0  0  0  0  0  0  0  0  0
   48.4230   29.8360   46.5550 C   0  0  0  0  0  0  0  0  0  0  0  0
   47.8650   30.7110   47.4730 C   0  0  0  0  0  0  0  0  0  0  0  0
   47.0560   31.7410   47.0370 C   0  0  0  0  0  0  0  0  0  0  0  0
   46.7950   31.9050   45.6800 C   0  0  0  0  0  0  0  0  0  0  0  0
   47.3520   31.0290   44.7570 C   0  0  0  0  0  0  0  0  0  0  0  0
   48.1600   30.0030   45.1970 C   0  0  0  0  0  0  0  0  0  0  0  0
   49.6060   27.6490   45.9960 H   0  0  0  0  0  0  0  0  0  0  0  0
   49.4520   28.5190   47.0400 S   0  0  0  0  0  0  0  0  0  0  0  0
   48.7730   27.7630   48.1570 O   0  0  0  0  0  0  0  0  0  0  0  0
   50.7800   28.9720   47.5520 O   0  0  0  0  0  0  0  0  0  0  0  0
  1  6  1  0  0  0  0
  2  3  1  0  0  0  0
  2  1  2  0  0  0  0
  3  4  2  0  0  0  0
  4  5  1  0  0  0  0
  5 13  1  0  0  0  0
  6  5  2  0  0  0  0
  7  2  1  0  0  0  0
  8  3  1  0  0  0  0
  9  1  1  0  0  0  0
  9 11  1  0  0  0  0
 10  9  2  0  0  0  0
 12 11  1  0  0  0  0
 13 17  1  0  0  0  0
 14 21  1  0  0  0  0
 14 15  1  0  0  0  0
 16 15  2  0  0  0  0
 17 16  1  0  0  0  0
 18 19  1  0  0  0  0
 18 17  2  0  0  0  0
 19 14  2  0  0  0  0
 20 21  1  0  0  0  0
 21 23  2  0  0  0  0
 21 22  2  0  0  0  0
M  END
>  <minimizedAffinity>
-4.57348585

>  <minimizedRMSD>
4.91965866

$$$$
