
 OpenBabel03232518053D

 46 48  0  0  1  0  0  0  0  0999 V2000
   48.4690   33.1530   41.5970 C   0  0  0  0  0  0  0  0  0  0  0  0
   48.1210   32.6930   42.5020 H   0  0  0  0  0  0  0  0  0  0  0  0
   48.1870   32.3940   40.7550 H   0  0  0  0  0  0  0  0  0  0  0  0
   47.9350   34.4610   41.2010 C   0  0  0  0  0  0  0  0  0  0  0  0
   44.1630   34.7650   41.3840 C   0  0  0  0  0  0  0  0  0  0  0  0
   45.4120   34.3930   40.8770 C   0  0  0  0  0  0  0  0  0  0  0  0
   46.5640   34.7670   41.5790 C   0  0  0  0  0  0  0  0  0  0  0  0
   46.4070   35.4790   42.7290 N   0  0  0  0  0  0  0  0  0  0  0  0
   45.1680   35.8210   43.1910 C   0  0  0  0  0  0  0  0  0  0  0  0
   44.0670   35.4690   42.5290 N   0  0  0  0  0  0  0  0  0  0  0  0
   45.5720   33.8360   39.9770 H   0  0  0  0  0  0  0  0  0  0  0  0
   45.0480   36.3860   44.1040 H   0  0  0  0  0  0  0  0  0  0  0  0
   43.0090   34.3350   40.6040 C   0  0  0  0  0  0  0  0  0  0  0  0
   42.4230   34.9360   39.7270 O   0  0  0  0  0  0  0  0  0  0  0  0
   42.6140   33.3390   40.8360 H   0  0  0  0  0  0  0  0  0  0  0  0
   48.8260   35.6260   41.5340 C   0  0  0  0  0  0  0  0  0  0  0  0
   48.6090   36.4400   40.8110 H   0  0  0  0  0  0  0  0  0  0  0  0
   49.8980   35.3740   41.4150 H   0  0  0  0  0  0  0  0  0  0  0  0
   48.6540   36.0250   42.5530 H   0  0  0  0  0  0  0  0  0  0  0  0
   47.9940   34.4080   39.6490 C   0  0  0  0  0  0  0  0  0  0  0  0
   47.4860   33.4690   39.3440 H   0  0  0  0  0  0  0  0  0  0  0  0
   47.4840   35.3300   39.3280 H   0  0  0  0  0  0  0  0  0  0  0  0
   49.0290   34.3650   39.3150 H   0  0  0  0  0  0  0  0  0  0  0  0
   49.8800   33.2750   41.5390 O   0  0  0  0  0  0  0  0  0  0  0  0
   50.2960   31.9820   41.3750 C   0  0  1  0  0  0  0  0  0  0  0  0
   51.6420   31.6490   40.9600 C   0  0  0  0  0  0  0  0  0  0  0  0
   51.3520   31.5480   42.4140 C   0  0  2  0  0  0  0  0  0  0  0  0
   49.5160   31.1680   41.2480 H   0  0  0  0  0  0  0  0  0  0  0  0
   51.8800   30.7710   40.3310 H   0  0  0  0  0  0  0  0  0  0  0  0
   52.2950   32.5230   40.6740 H   0  0  0  0  0  0  0  0  0  0  0  0
   51.7610   32.2970   43.1050 H   0  0  0  0  0  0  0  0  0  0  0  0
   51.1290   30.1880   43.0200 C   0  0  1  0  0  0  0  0  0  0  0  0
   51.0200   30.3220   44.1100 H   0  0  0  0  0  0  0  0  0  0  0  0
   49.9040   29.4750   42.4850 C   0  0  0  0  0  0  0  0  0  0  0  0
   50.1510   28.5960   41.8890 H   0  0  0  0  0  0  0  0  0  0  0  0
   49.1940   29.2450   43.3380 H   0  0  0  0  0  0  0  0  0  0  0  0
   49.3200   30.1760   41.8560 H   0  0  0  0  0  0  0  0  0  0  0  0
   52.2990   29.3010   42.7590 C   0  0  0  0  0  0  0  0  0  0  0  0
   52.5910   29.4660   41.6840 H   0  0  0  0  0  0  0  0  0  0  0  0
   51.9790   28.2250   42.8150 H   0  0  0  0  0  0  0  0  0  0  0  0
   53.4910   29.5280   43.5620 C   0  0  0  0  0  0  0  0  0  0  0  0
   53.2710   29.6530   44.9330 C   0  0  0  0  0  0  0  0  0  0  0  0
   54.4630   29.8600   45.5220 N   0  0  0  0  0  0  0  0  0  0  0  0
   55.4380   29.8750   44.5960 C   0  0  0  0  0  0  0  0  0  0  0  0
   54.8130   29.6730   43.4370 N   0  0  0  0  0  0  0  0  0  0  0  0
   55.2170   29.6130   42.4820 H   0  0  0  0  0  0  0  0  0  0  0  0
  1  2  1  0  0  0  0
  3  1  1  0  0  0  0
  4 16  1  0  0  0  0
  4  7  1  0  0  0  0
  4  1  1  0  0  0  0
  5 10  1  0  0  0  0
  6  5  2  0  0  0  0
  6  7  1  0  0  0  0
  7  8  2  0  0  0  0
  8  9  1  0  0  0  0
  9 12  1  0  0  0  0
 10  9  2  0  0  0  0
 11  6  1  0  0  0  0
 13 15  1  0  0  0  0
 13  5  1  0  0  0  0
 14 13  2  0  0  0  0
 16 19  1  0  0  0  0
 17 16  1  0  0  0  0
 18 16  1  0  0  0  0
 20  4  1  0  0  0  0
 21 20  1  0  0  0  0
 22 20  1  0  0  0  0
 23 20  1  0  0  0  0
 24  1  1  0  0  0  0
 25 28  1  6  0  0  0
 25 24  1  0  0  0  0
 25 27  1  0  0  0  0
 26 25  1  0  0  0  0
 26 27  1  0  0  0  0
 27 32  1  0  0  0  0
 27 31  1  1  0  0  0
 29 26  1  0  0  0  0
 30 26  1  0  0  0  0
 32 33  1  1  0  0  0
 34 32  1  0  0  0  0
 34 36  1  0  0  0  0
 35 34  1  0  0  0  0
 37 34  1  0  0  0  0
 38 40  1  0  0  0  0
 38 32  1  0  0  0  0
 38 41  1  0  0  0  0
 39 38  1  0  0  0  0
 41 42  2  0  0  0  0
 42 43  1  0  0  0  0
 44 43  2  0  0  0  0
 45 41  1  0  0  0  0
 45 44  1  0  0  0  0
 46 45  1  0  0  0  0
M  END
>  <minimizedAffinity>
-4.39660025

>  <minimizedRMSD>
2.42745042

$$$$
