
 OpenBabel03232521013D

 45 48  0  0  1  0  0  0  0  0999 V2000
   45.3720   32.9240   47.4970 C   0  0  0  0  0  0  0  0  0  0  0  0
   45.8970   32.6700   46.2730 C   0  0  0  0  0  0  0  0  0  0  0  0
   46.1470   31.3190   46.0190 C   0  0  0  0  0  0  0  0  0  0  0  0
   45.8930   30.3290   46.9120 N   0  0  0  0  0  0  0  0  0  0  0  0
   45.3570   30.6510   48.1470 C   0  0  0  0  0  0  0  0  0  0  0  0
   45.1100   31.9370   48.4070 N   0  0  0  0  0  0  0  0  0  0  0  0
   45.1190   29.6290   49.1070 N   0  0  0  0  0  0  0  0  0  0  0  0
   45.1440   33.9340   47.7990 H   0  0  0  0  0  0  0  0  0  0  0  0
   45.9790   29.2080   49.5240 H   0  0  0  0  0  0  0  0  0  0  0  0
   44.1750   29.3260   49.3720 H   0  0  0  0  0  0  0  0  0  0  0  0
   46.1330   33.6210   45.2410 C   0  0  2  0  0  0  0  0  0  0  0  0
   44.9310   34.7190   45.4860 C   0  0  0  0  0  0  0  0  0  0  0  0
   44.6920   35.6490   44.4200 C   0  0  0  0  0  0  0  0  0  0  0  0
   45.4780   35.5760   43.1830 C   0  0  1  0  0  0  0  0  0  0  0  0
   46.5320   34.5710   43.1240 C   0  0  0  0  0  0  0  0  0  0  0  0
   46.0860   33.3380   43.8770 C   0  0  0  0  0  0  0  0  0  0  0  0
   46.9360   34.3480   45.5630 H   0  0  0  0  0  0  0  0  0  0  0  0
   44.2670   34.8690   46.3300 H   0  0  0  0  0  0  0  0  0  0  0  0
   43.9300   36.3710   44.5380 H   0  0  0  0  0  0  0  0  0  0  0  0
   45.9060   36.5860   42.9900 H   0  0  0  0  0  0  0  0  0  0  0  0
   46.7790   34.3660   42.0510 H   0  0  0  0  0  0  0  0  0  0  0  0
   47.4820   34.9630   43.5800 H   0  0  0  0  0  0  0  0  0  0  0  0
   45.1370   32.9850   43.4220 H   0  0  0  0  0  0  0  0  0  0  0  0
   46.9300   32.6860   43.5340 H   0  0  0  0  0  0  0  0  0  0  0  0
   44.4480   35.3130   42.0450 C   0  0  0  0  0  0  0  0  0  0  0  0
   43.3880   34.5220   42.4560 F   0  0  0  0  0  0  0  0  0  0  0  0
   43.9100   36.5550   41.7140 F   0  0  0  0  0  0  0  0  0  0  0  0
   45.1040   34.8480   40.9230 F   0  0  0  0  0  0  0  0  0  0  0  0
   46.7530   30.6210   44.8980 C   0  0  0  0  0  0  0  0  0  0  0  0
   46.3940   29.7400   43.9300 C   0  0  0  0  0  0  0  0  0  0  0  0
   47.5390   29.4380   43.1750 C   0  0  0  0  0  0  0  0  0  0  0  0
   48.5250   30.1490   43.7230 N   0  0  0  0  0  0  0  0  0  0  0  0
   48.0890   30.8550   44.7380 N   0  0  0  0  0  0  0  0  0  0  0  0
   45.3650   29.4310   43.8940 H   0  0  0  0  0  0  0  0  0  0  0  0
   47.4340   28.7480   42.3580 H   0  0  0  0  0  0  0  0  0  0  0  0
   52.3360   29.7340   41.9110 C   0  0  0  0  0  0  0  0  0  0  0  0
   52.1840   29.5490   43.2690 C   0  0  0  0  0  3  0  0  0  0  0  0
   50.9360   29.6880   43.8430 C   0  0  0  0  0  3  0  0  0  0  0  0
   49.8150   30.0070   43.1160 C   0  0  0  0  0  0  0  0  0  0  0  0
   49.9450   30.1970   41.7510 C   0  0  0  0  0  3  0  0  0  0  0  0
   51.2080   30.0560   41.1770 C   0  0  0  0  0  3  0  0  0  0  0  0
   54.0000   28.3080   40.6230 H   0  0  0  0  0  0  0  0  0  0  0  0
   53.8780   29.5800   41.0820 S   0  0  0  0  0  0  0  0  0  0  0  0
   53.9730   30.6230   40.0060 O   0  0  0  0  0  0  0  0  0  0  0  0
   54.9950   29.7900   42.0900 O   0  0  0  0  0  0  0  0  0  0  0  0
  1  8  1  0  0  0  0
  1  6  1  0  0  0  0
  2  1  2  0  0  0  0
  3  2  1  0  0  0  0
  3  4  2  0  0  0  0
  4  5  1  0  0  0  0
  5  6  2  0  0  0  0
  5  7  1  0  0  0  0
  7 10  1  0  0  0  0
  7  9  1  0  0  0  0
 11 12  1  0  0  0  0
 11 17  1  1  0  0  0
 11  2  1  0  0  0  0
 12 18  1  0  0  0  0
 13 19  1  0  0  0  0
 13 12  2  0  0  0  0
 14 20  1  6  0  0  0
 14 13  1  0  0  0  0
 15 14  1  0  0  0  0
 15 22  1  0  0  0  0
 15 16  1  0  0  0  0
 16 11  1  0  0  0  0
 21 15  1  0  0  0  0
 23 16  1  0  0  0  0
 24 16  1  0  0  0  0
 25 26  1  0  0  0  0
 25 14  1  0  0  0  0
 27 25  1  0  0  0  0
 28 25  1  0  0  0  0
 29  3  1  0  0  0  0
 30 29  1  0  0  0  0
 31 32  1  0  0  0  0
 31 30  2  0  0  0  0
 32 33  1  0  0  0  0
 33 29  2  0  0  0  0
 34 30  1  0  0  0  0
 35 31  1  0  0  0  0
 36 37  1  0  0  0  0
 37 38  2  0  0  0  0
 39 32  1  0  0  0  0
 39 38  1  0  0  0  0
 40 39  2  0  0  0  0
 41 40  1  0  0  0  0
 41 36  2  0  0  0  0
 42 43  1  0  0  0  0
 43 36  1  0  0  0  0
 43 45  2  0  0  0  0
 44 43  2  0  0  0  0
M  END
>  <minimizedAffinity>
-5.95439386

>  <minimizedRMSD>
0.993099213

$$$$
