
 OpenBabel03232515523D

 28 29  0  0  0  0  0  0  0  0999 V2000
   47.7700   34.5580   41.8530 C   0  0  0  0  0  0  0  0  0  0  0  0
   44.8350   35.7470   43.9500 C   0  0  0  0  0  0  0  0  0  0  0  0
   45.7480   35.6930   42.8750 C   0  0  0  0  0  0  0  0  0  0  0  0
   46.7570   34.7120   42.9180 C   0  0  0  0  0  0  0  0  0  0  0  0
   46.8000   33.8720   43.9850 N   0  0  0  0  0  0  0  0  0  0  0  0
   45.9030   33.9520   45.0060 C   0  0  0  0  0  0  0  0  0  0  0  0
   44.9230   34.8870   44.9870 N   0  0  0  0  0  0  0  0  0  0  0  0
   44.0500   36.4900   43.9450 H   0  0  0  0  0  0  0  0  0  0  0  0
   45.7040   36.3560   42.0480 H   0  0  0  0  0  0  0  0  0  0  0  0
   46.0750   33.2090   45.7820 H   0  0  0  0  0  0  0  0  0  0  0  0
   47.0360   34.2480   40.5660 C   0  0  0  0  0  0  0  0  0  0  0  0
   46.6690   35.2020   40.1350 H   0  0  0  0  0  0  0  0  0  0  0  0
   46.1200   33.6320   40.8020 H   0  0  0  0  0  0  0  0  0  0  0  0
   47.7110   33.7050   39.8890 H   0  0  0  0  0  0  0  0  0  0  0  0
   48.6840   35.7280   41.7030 C   0  0  0  0  0  0  0  0  0  0  0  0
   49.0700   35.7510   40.6640 H   0  0  0  0  0  0  0  0  0  0  0  0
   49.5850   35.6600   42.3670 H   0  0  0  0  0  0  0  0  0  0  0  0
   48.1470   36.6730   41.9160 H   0  0  0  0  0  0  0  0  0  0  0  0
   48.6270   33.3550   42.1870 C   0  0  0  0  0  0  0  0  0  0  0  0
   48.3340   32.5280   41.5080 H   0  0  0  0  0  0  0  0  0  0  0  0
   48.4340   33.0150   43.2360 H   0  0  0  0  0  0  0  0  0  0  0  0
   49.9960   33.6240   41.9960 O   0  0  0  0  0  0  0  0  0  0  0  0
   50.6550   32.4200   42.2540 C   0  0  0  0  0  0  0  0  0  0  0  0
   51.4340   31.9840   41.0480 C   0  0  0  0  0  0  0  0  0  0  0  0
   52.0430   30.6360   41.2590 C   0  0  0  0  0  0  0  0  0  0  0  0
   51.4570   29.8610   42.4120 C   0  0  0  0  0  0  0  0  0  0  0  0
   49.9720   30.0000   42.4510 C   0  0  0  0  0  0  0  0  0  0  0  0
   49.5870   31.4280   42.6580 C   0  0  0  0  0  0  0  0  0  0  0  0
  1 19  1  0  0  0  0
  1  4  1  0  0  0  0
  2  7  1  0  0  0  0
  3  4  1  0  0  0  0
  3  2  2  0  0  0  0
  4  5  2  0  0  0  0
  5  6  1  0  0  0  0
  6 10  1  0  0  0  0
  7  6  2  0  0  0  0
  8  2  1  0  0  0  0
  9  3  1  0  0  0  0
 11 13  1  0  0  0  0
 11  1  1  0  0  0  0
 12 11  1  0  0  0  0
 14 11  1  0  0  0  0
 15  1  1  0  0  0  0
 15 18  1  0  0  0  0
 15 17  1  0  0  0  0
 16 15  1  0  0  0  0
 19 21  1  0  0  0  0
 20 19  1  0  0  0  0
 22 19  1  0  0  0  0
 22 23  1  0  0  0  0
 23 28  1  0  0  0  0
 24 25  1  0  0  0  0
 24 23  1  0  0  0  0
 25 26  1  0  0  0  0
 26 27  1  0  0  0  0
 27 28  1  0  0  0  0
M  END
>  <minimizedAffinity>
-4.39176798

>  <minimizedRMSD>
2.30596352

$$$$
