
 OpenBabel03232521013D

 45 48  0  0  1  0  0  0  0  0999 V2000
   45.3920   32.9070   47.4490 C   0  0  0  0  0  0  0  0  0  0  0  0
   45.9310   32.6650   46.2280 C   0  0  0  0  0  0  0  0  0  0  0  0
   46.2120   31.3200   45.9740 C   0  0  0  0  0  0  0  0  0  0  0  0
   45.9720   30.3250   46.8640 N   0  0  0  0  0  0  0  0  0  0  0  0
   45.4200   30.6340   48.0960 C   0  0  0  0  0  0  0  0  0  0  0  0
   45.1450   31.9140   48.3550 N   0  0  0  0  0  0  0  0  0  0  0  0
   45.1970   29.6050   49.0520 N   0  0  0  0  0  0  0  0  0  0  0  0
   45.1410   33.9120   47.7500 H   0  0  0  0  0  0  0  0  0  0  0  0
   46.0620   29.2020   49.4750 H   0  0  0  0  0  0  0  0  0  0  0  0
   44.2570   29.2820   49.3110 H   0  0  0  0  0  0  0  0  0  0  0  0
   46.1550   33.6230   45.1980 C   0  0  2  0  0  0  0  0  0  0  0  0
   44.9460   34.7110   45.4560 C   0  0  0  0  0  0  0  0  0  0  0  0
   44.6950   35.6440   44.3940 C   0  0  0  0  0  0  0  0  0  0  0  0
   45.4750   35.5820   43.1530 C   0  0  1  0  0  0  0  0  0  0  0  0
   46.5360   34.5840   43.0840 C   0  0  0  0  0  0  0  0  0  0  0  0
   46.1020   33.3450   43.8340 C   0  0  0  0  0  0  0  0  0  0  0  0
   46.9550   34.3540   45.5200 H   0  0  0  0  0  0  0  0  0  0  0  0
   44.2870   34.8530   46.3030 H   0  0  0  0  0  0  0  0  0  0  0  0
   43.9290   36.3610   44.5200 H   0  0  0  0  0  0  0  0  0  0  0  0
   45.8950   36.5960   42.9620 H   0  0  0  0  0  0  0  0  0  0  0  0
   46.7780   34.3860   42.0090 H   0  0  0  0  0  0  0  0  0  0  0  0
   47.4850   34.9820   43.5360 H   0  0  0  0  0  0  0  0  0  0  0  0
   45.1540   32.9880   43.3830 H   0  0  0  0  0  0  0  0  0  0  0  0
   46.9490   32.7010   43.4830 H   0  0  0  0  0  0  0  0  0  0  0  0
   44.4410   35.3170   42.0190 C   0  0  0  0  0  0  0  0  0  0  0  0
   43.3830   34.5260   42.4360 F   0  0  0  0  0  0  0  0  0  0  0  0
   43.9000   36.5580   41.6890 F   0  0  0  0  0  0  0  0  0  0  0  0
   45.0920   34.8500   40.8960 F   0  0  0  0  0  0  0  0  0  0  0  0
   46.8400   30.6370   44.8570 C   0  0  0  0  0  0  0  0  0  0  0  0
   46.5100   29.7420   43.8920 C   0  0  0  0  0  0  0  0  0  0  0  0
   47.6650   29.4710   43.1400 C   0  0  0  0  0  0  0  0  0  0  0  0
   48.6280   30.2140   43.6860 N   0  0  0  0  0  0  0  0  0  0  0  0
   48.1690   30.9100   44.6990 N   0  0  0  0  0  0  0  0  0  0  0  0
   45.4900   29.4020   43.8550 H   0  0  0  0  0  0  0  0  0  0  0  0
   47.5820   28.7750   42.3250 H   0  0  0  0  0  0  0  0  0  0  0  0
   52.4530   29.9100   41.8820 C   0  0  0  0  0  0  0  0  0  0  0  0
   52.2720   29.5500   43.2010 C   0  0  0  0  0  3  0  0  0  0  0  0
   51.0190   29.6550   43.7730 C   0  0  0  0  0  3  0  0  0  0  0  0
   49.9230   30.1090   43.0830 C   0  0  0  0  0  0  0  0  0  0  0  0
   50.0820   30.4760   41.7560 C   0  0  0  0  0  3  0  0  0  0  0  0
   51.3490   30.3670   41.1840 C   0  0  0  0  0  3  0  0  0  0  0  0
   54.1180   30.8790   40.2240 H   0  0  0  0  0  0  0  0  0  0  0  0
   54.0040   29.8140   41.0590 S   0  0  0  0  0  0  0  0  0  0  0  0
   55.1020   29.7200   42.0760 O   0  0  0  0  0  0  0  0  0  0  0  0
   54.0120   28.5700   40.1850 O   0  0  0  0  0  0  0  0  0  0  0  0
  1  8  1  0  0  0  0
  1  6  1  0  0  0  0
  2  1  2  0  0  0  0
  3  2  1  0  0  0  0
  3  4  2  0  0  0  0
  4  5  1  0  0  0  0
  5  6  2  0  0  0  0
  5  7  1  0  0  0  0
  7 10  1  0  0  0  0
  7  9  1  0  0  0  0
 11 12  1  0  0  0  0
 11 17  1  1  0  0  0
 11  2  1  0  0  0  0
 12 18  1  0  0  0  0
 13 19  1  0  0  0  0
 13 12  2  0  0  0  0
 14 20  1  6  0  0  0
 14 13  1  0  0  0  0
 15 14  1  0  0  0  0
 15 22  1  0  0  0  0
 15 16  1  0  0  0  0
 16 11  1  0  0  0  0
 21 15  1  0  0  0  0
 23 16  1  0  0  0  0
 24 16  1  0  0  0  0
 25 26  1  0  0  0  0
 25 14  1  0  0  0  0
 27 25  1  0  0  0  0
 28 25  1  0  0  0  0
 29  3  1  0  0  0  0
 30 29  1  0  0  0  0
 31 32  1  0  0  0  0
 31 30  2  0  0  0  0
 32 33  1  0  0  0  0
 33 29  2  0  0  0  0
 34 30  1  0  0  0  0
 35 31  1  0  0  0  0
 36 37  1  0  0  0  0
 37 38  2  0  0  0  0
 39 32  1  0  0  0  0
 39 38  1  0  0  0  0
 40 39  2  0  0  0  0
 41 40  1  0  0  0  0
 41 36  2  0  0  0  0
 42 43  1  0  0  0  0
 43 36  1  0  0  0  0
 43 44  2  0  0  0  0
 45 43  2  0  0  0  0
M  END
>  <minimizedAffinity>
-5.8877368

>  <minimizedRMSD>
0.664636314

$$$$
