
 OpenBabel03232517463D

 18 19  0  0  0  0  0  0  0  0999 V2000
   44.2320   35.6010   43.4240 C   0  0  0  0  0  0  0  0  0  0  0  0
   44.5300   34.3270   42.8470 C   0  0  0  0  0  0  0  0  0  0  0  0
   45.1220   33.3210   43.6220 C   0  0  0  0  0  0  0  0  0  0  0  0
   45.3830   33.6350   44.9220 N   0  0  0  0  0  0  0  0  0  0  0  0
   45.0920   34.8420   45.4370 C   0  0  0  0  0  0  0  0  0  0  0  0
   44.5250   35.8110   44.7020 N   0  0  0  0  0  0  0  0  0  0  0  0
   43.7780   36.4060   42.8670 H   0  0  0  0  0  0  0  0  0  0  0  0
   45.3250   32.3860   43.1450 H   0  0  0  0  0  0  0  0  0  0  0  0
   45.3460   34.9760   46.4850 H   0  0  0  0  0  0  0  0  0  0  0  0
   44.1860   34.1900   41.4820 N   0  0  0  0  0  0  0  0  0  0  0  0
   44.6740   33.3610   40.5690 C   0  0  0  0  0  0  0  0  0  0  0  0
   44.0220   33.5990   39.3660 C   0  0  0  0  0  0  0  0  0  0  0  0
   43.1380   34.5810   39.5700 N   0  0  0  0  0  0  0  0  0  0  0  0
   43.2330   34.9510   40.8700 C   0  0  0  0  0  0  0  0  0  0  0  0
   45.4520   32.6230   40.7480 H   0  0  0  0  0  0  0  0  0  0  0  0
   42.5920   35.7420   41.2370 H   0  0  0  0  0  0  0  0  0  0  0  0
   44.3390   32.7170   37.8230 S   0  0  0  0  0  0  0  0  0  0  0  0
   44.7800   31.3870   38.0860 H   0  0  0  0  0  0  0  0  0  0  0  0
  1  6  1  0  0  0  0
  2  1  2  0  0  0  0
  2  3  1  0  0  0  0
  3  4  2  0  0  0  0
  4  5  1  0  0  0  0
  5  9  1  0  0  0  0
  6  5  2  0  0  0  0
  7  1  1  0  0  0  0
  8  3  1  0  0  0  0
 10  2  1  0  0  0  0
 11 15  1  0  0  0  0
 11 10  1  0  0  0  0
 12 13  1  0  0  0  0
 12 11  2  0  0  0  0
 13 14  2  0  0  0  0
 14 16  1  0  0  0  0
 14 10  1  0  0  0  0
 17 18  1  0  0  0  0
 17 12  1  0  0  0  0
M  END
>  <minimizedAffinity>
-3.17904687

>  <minimizedRMSD>
0.549652636

$$$$
