
 OpenBabel03232513593D

 34 37  0  0  1  0  0  0  0  0999 V2000
   45.2620   33.4730   44.7360 C   0  0  0  0  0  0  0  0  0  0  0  0
   45.6350   33.7050   43.4060 C   0  0  0  0  0  0  0  0  0  0  0  0
   46.8580   33.2590   42.9790 C   0  0  0  0  0  0  0  0  0  0  0  0
   47.6620   32.6110   43.8580 N   0  0  0  0  0  0  0  0  0  0  0  0
   47.2840   32.3980   45.1330 C   0  0  0  0  0  0  0  0  0  0  0  0
   46.0870   32.8320   45.5560 N   0  0  0  0  0  0  0  0  0  0  0  0
   44.3040   33.8120   45.0990 H   0  0  0  0  0  0  0  0  0  0  0  0
   47.9970   31.8710   45.7550 H   0  0  0  0  0  0  0  0  0  0  0  0
   47.2220   33.5030   41.6300 N   0  0  0  0  0  0  0  0  0  0  0  0
   47.9410   34.6580   41.4800 C   0  0  0  0  0  0  0  0  0  0  0  0
   48.3570   35.0110   40.2010 C   0  0  0  0  0  0  0  0  0  0  0  0
   48.0710   34.2470   39.1120 C   0  0  0  0  0  0  0  0  0  0  0  0
   48.4600   34.5840   37.9510 O   0  0  0  0  0  0  0  0  0  0  0  0
   47.3520   33.1050   39.3150 N   0  0  0  0  0  0  0  0  0  0  0  0
   46.9410   32.7500   40.5460 C   0  0  0  0  0  0  0  0  0  0  0  0
   46.2790   31.7120   40.7860 O   0  0  0  0  0  0  0  0  0  0  0  0
   48.2060   35.3090   42.2730 H   0  0  0  0  0  0  0  0  0  0  0  0
   48.9270   35.9080   40.0150 H   0  0  0  0  0  0  0  0  0  0  0  0
   47.1070   32.4840   38.5050 H   0  0  0  0  0  0  0  0  0  0  0  0
   44.6920   34.3980   42.5860 N   0  0  0  0  0  0  0  0  0  0  0  0
   44.5520   35.7430   42.3510 C   0  0  0  0  0  0  0  0  0  0  0  0
   43.5230   35.9370   41.5060 N   0  0  0  0  0  0  0  0  0  0  0  0
   43.0280   34.6980   41.2220 C   0  0  0  0  0  0  0  0  0  0  0  0
   43.7420   33.7930   41.8770 N   0  0  0  0  0  0  0  0  0  0  0  0
   45.2010   36.4920   42.8030 H   0  0  0  0  0  0  0  0  0  0  0  0
   41.8760   34.3620   40.3350 C   0  0  1  0  0  0  0  0  0  0  0  0
   40.4930   34.7140   40.8960 C   0  0  0  0  0  0  0  0  0  0  0  0
   41.0860   35.3590   39.6390 C   0  0  2  0  0  0  0  0  0  0  0  0
   41.9040   33.2830   40.0380 H   0  0  0  0  0  0  0  0  0  0  0  0
   39.6570   34.0430   40.7060 H   0  0  0  0  0  0  0  0  0  0  0  0
   40.4370   35.3810   41.7790 H   0  0  0  0  0  0  0  0  0  0  0  0
   41.3850   36.4120   39.6810 H   0  0  0  0  0  0  0  0  0  0  0  0
   40.4040   34.7800   38.0380 S   0  0  0  0  0  0  0  0  0  0  0  0
   39.0420   35.0670   37.9460 H   0  0  0  0  0  0  0  0  0  0  0  0
  1  7  1  0  0  0  0
  1  6  1  0  0  0  0
  2  1  2  0  0  0  0
  3  2  1  0  0  0  0
  3  4  2  0  0  0  0
  4  5  1  0  0  0  0
  5  6  2  0  0  0  0
  5  8  1  0  0  0  0
  9  3  1  0  0  0  0
 10  9  1  0  0  0  0
 10 17  1  0  0  0  0
 11 10  2  0  0  0  0
 12 14  1  0  0  0  0
 12 11  1  0  0  0  0
 13 12  2  0  0  0  0
 14 15  1  0  0  0  0
 15 16  2  0  0  0  0
 15  9  1  0  0  0  0
 18 11  1  0  0  0  0
 19 14  1  0  0  0  0
 20  2  1  0  0  0  0
 21 20  1  0  0  0  0
 21 25  1  0  0  0  0
 22 21  2  0  0  0  0
 23 22  1  0  0  0  0
 23 24  2  0  0  0  0
 24 20  1  0  0  0  0
 26 29  1  6  0  0  0
 26 27  1  0  0  0  0
 26 23  1  0  0  0  0
 27 31  1  0  0  0  0
 28 32  1  1  0  0  0
 28 26  1  0  0  0  0
 28 27  1  0  0  0  0
 30 27  1  0  0  0  0
 33 28  1  0  0  0  0
 34 33  1  0  0  0  0
M  END
>  <minimizedAffinity>
-5.14744139

>  <minimizedRMSD>
0.78757143

$$$$
