
 OpenBabel03232521013D

 45 48  0  0  1  0  0  0  0  0999 V2000
   45.4750   32.9090   47.4850 C   0  0  0  0  0  0  0  0  0  0  0  0
   45.9390   32.6520   46.2360 C   0  0  0  0  0  0  0  0  0  0  0  0
   46.1290   31.2970   45.9560 C   0  0  0  0  0  0  0  0  0  0  0  0
   45.8750   30.3050   46.8470 N   0  0  0  0  0  0  0  0  0  0  0  0
   45.4030   30.6300   48.1080 C   0  0  0  0  0  0  0  0  0  0  0  0
   45.2160   31.9200   48.3930 N   0  0  0  0  0  0  0  0  0  0  0  0
   45.1690   29.6040   49.0640 N   0  0  0  0  0  0  0  0  0  0  0  0
   45.2970   33.9230   47.8070 H   0  0  0  0  0  0  0  0  0  0  0  0
   46.0290   29.1460   49.4390 H   0  0  0  0  0  0  0  0  0  0  0  0
   44.2260   29.3320   49.3650 H   0  0  0  0  0  0  0  0  0  0  0  0
   46.1670   33.6080   45.2060 C   0  0  2  0  0  0  0  0  0  0  0  0
   44.9560   34.6960   45.4560 C   0  0  0  0  0  0  0  0  0  0  0  0
   44.7090   35.6260   44.3910 C   0  0  0  0  0  0  0  0  0  0  0  0
   45.4950   35.5630   43.1540 C   0  0  1  0  0  0  0  0  0  0  0  0
   46.5570   34.5660   43.0920 C   0  0  0  0  0  0  0  0  0  0  0  0
   46.1220   33.3280   43.8420 C   0  0  0  0  0  0  0  0  0  0  0  0
   46.9650   34.3410   45.5300 H   0  0  0  0  0  0  0  0  0  0  0  0
   44.2920   34.8380   46.3000 H   0  0  0  0  0  0  0  0  0  0  0  0
   43.9410   36.3420   44.5130 H   0  0  0  0  0  0  0  0  0  0  0  0
   45.9150   36.5770   42.9640 H   0  0  0  0  0  0  0  0  0  0  0  0
   46.8050   34.3660   42.0190 H   0  0  0  0  0  0  0  0  0  0  0  0
   47.5040   34.9660   43.5480 H   0  0  0  0  0  0  0  0  0  0  0  0
   45.1750   32.9690   43.3870 H   0  0  0  0  0  0  0  0  0  0  0  0
   46.9710   32.6840   43.4970 H   0  0  0  0  0  0  0  0  0  0  0  0
   44.4670   35.2950   42.0160 C   0  0  0  0  0  0  0  0  0  0  0  0
   43.4130   34.4950   42.4250 F   0  0  0  0  0  0  0  0  0  0  0  0
   43.9190   36.5340   41.6880 F   0  0  0  0  0  0  0  0  0  0  0  0
   45.1250   34.8370   40.8930 F   0  0  0  0  0  0  0  0  0  0  0  0
   46.6610   30.5920   44.8020 C   0  0  0  0  0  0  0  0  0  0  0  0
   46.2080   29.8390   43.7680 C   0  0  0  0  0  0  0  0  0  0  0  0
   47.3200   29.4220   43.0180 C   0  0  0  0  0  0  0  0  0  0  0  0
   48.3810   29.9430   43.6340 N   0  0  0  0  0  0  0  0  0  0  0  0
   48.0210   30.6370   44.6870 N   0  0  0  0  0  0  0  0  0  0  0  0
   45.1470   29.6880   43.6900 H   0  0  0  0  0  0  0  0  0  0  0  0
   47.1410   28.8100   42.1530 H   0  0  0  0  0  0  0  0  0  0  0  0
   52.1620   29.0900   41.9130 C   0  0  0  0  0  0  0  0  0  0  0  0
   51.0130   29.0050   41.1530 C   0  0  0  0  0  3  0  0  0  0  0  0
   49.7900   29.2870   41.7310 C   0  0  0  0  0  3  0  0  0  0  0  0
   49.6560   29.6530   43.0470 C   0  0  0  0  0  0  0  0  0  0  0  0
   50.7960   29.7450   43.8270 C   0  0  0  0  0  3  0  0  0  0  0  0
   52.0280   29.4600   43.2400 C   0  0  0  0  0  3  0  0  0  0  0  0
   54.4050   27.9160   42.1340 H   0  0  0  0  0  0  0  0  0  0  0  0
   53.7660   28.7530   41.2780 S   0  0  0  0  0  0  0  0  0  0  0  0
   53.6460   28.2160   39.8810 O   0  0  0  0  0  0  0  0  0  0  0  0
   54.5610   30.0490   41.2570 O   0  0  0  0  0  0  0  0  0  0  0  0
  1  8  1  0  0  0  0
  1  6  1  0  0  0  0
  2  1  2  0  0  0  0
  3  2  1  0  0  0  0
  3  4  2  0  0  0  0
  4  5  1  0  0  0  0
  5  6  2  0  0  0  0
  5  7  1  0  0  0  0
  7 10  1  0  0  0  0
  7  9  1  0  0  0  0
 11 12  1  0  0  0  0
 11 17  1  1  0  0  0
 11  2  1  0  0  0  0
 12 18  1  0  0  0  0
 13 19  1  0  0  0  0
 13 12  2  0  0  0  0
 14 20  1  6  0  0  0
 14 13  1  0  0  0  0
 15 14  1  0  0  0  0
 15 22  1  0  0  0  0
 15 16  1  0  0  0  0
 16 11  1  0  0  0  0
 21 15  1  0  0  0  0
 23 16  1  0  0  0  0
 24 16  1  0  0  0  0
 25 26  1  0  0  0  0
 25 14  1  0  0  0  0
 27 25  1  0  0  0  0
 28 25  1  0  0  0  0
 29  3  1  0  0  0  0
 30 29  1  0  0  0  0
 31 32  1  0  0  0  0
 31 30  2  0  0  0  0
 32 33  1  0  0  0  0
 33 29  2  0  0  0  0
 34 30  1  0  0  0  0
 35 31  1  0  0  0  0
 36 41  1  0  0  0  0
 37 38  1  0  0  0  0
 37 36  2  0  0  0  0
 38 39  2  0  0  0  0
 39 32  1  0  0  0  0
 39 40  1  0  0  0  0
 41 40  2  0  0  0  0
 43 36  1  0  0  0  0
 43 42  1  0  0  0  0
 44 43  2  0  0  0  0
 45 43  2  0  0  0  0
M  END
>  <minimizedAffinity>
-5.76397562

>  <minimizedRMSD>
0.415273935

$$$$
