
 OpenBabel03232518433D

 21 22  0  0  0  0  0  0  0  0999 V2000
   44.6830   35.4610   45.0610 C   0  0  0  0  0  0  0  0  0  0  0  0
   45.4980   34.9680   44.0480 C   0  0  0  0  0  0  0  0  0  0  0  0
   46.1840   33.8090   44.2820 C   0  0  0  0  0  0  0  0  0  0  0  0
   46.0200   33.2120   45.5120 N   0  0  0  0  0  0  0  0  0  0  0  0
   45.2420   33.6890   46.4700 C   0  0  0  0  0  0  0  0  0  0  0  0
   44.5820   34.8140   46.2260 N   0  0  0  0  0  0  0  0  0  0  0  0
   44.1430   36.3820   44.8600 H   0  0  0  0  0  0  0  0  0  0  0  0
   47.0130   33.0350   43.3530 C   0  0  0  0  0  0  0  0  0  0  0  0
   48.3800   32.9290   43.0670 C   0  0  0  0  0  0  0  0  0  0  0  0
   48.7500   32.1110   42.0500 C   0  0  0  0  0  0  0  0  0  0  0  0
   47.8000   31.3900   41.3010 C   0  0  0  0  0  0  0  0  0  0  0  0
   46.2940   31.9360   42.1270 S   0  0  0  0  0  0  0  0  0  0  0  0
   45.6520   35.6830   42.7640 C   0  0  0  0  0  0  0  0  0  0  0  0
   45.1010   36.9750   42.9590 F   0  0  0  0  0  0  0  0  0  0  0  0
   44.8770   35.1490   41.7860 F   0  0  0  0  0  0  0  0  0  0  0  0
   46.9510   35.8380   42.3770 F   0  0  0  0  0  0  0  0  0  0  0  0
   45.0760   33.0910   47.6980 O   0  0  0  0  0  0  0  0  0  0  0  0
   45.9890   32.2210   48.2850 C   0  0  0  0  0  0  0  0  0  0  0  0
   47.2770   32.7380   48.2520 F   0  0  0  0  0  0  0  0  0  0  0  0
   45.9120   30.9480   47.7490 F   0  0  0  0  0  0  0  0  0  0  0  0
   45.6690   32.1580   49.6540 F   0  0  0  0  0  0  0  0  0  0  0  0
  1  6  1  0  0  0  0
  2  3  1  0  0  0  0
  2  1  2  0  0  0  0
  3  4  2  0  0  0  0
  4  5  1  0  0  0  0
  5 17  1  0  0  0  0
  6  5  2  0  0  0  0
  7  1  1  0  0  0  0
  8  3  1  0  0  0  0
  9  8  2  0  0  0  0
 10  9  1  0  0  0  0
 11 10  2  0  0  0  0
 11 12  1  0  0  0  0
 12  8  1  0  0  0  0
 13 14  1  0  0  0  0
 13  2  1  0  0  0  0
 15 13  1  0  0  0  0
 16 13  1  0  0  0  0
 17 18  1  0  0  0  0
 18 21  1  0  0  0  0
 19 18  1  0  0  0  0
 20 18  1  0  0  0  0
M  END
>  <minimizedAffinity>
-5.30564642

>  <minimizedRMSD>
0.386802703

$$$$
