
 OpenBabel03232520573D

 33 35  0  0  1  0  0  0  0  0999 V2000
   46.1030   33.5180   45.2260 C   0  0  2  0  0  0  0  0  0  0  0  0
   45.0150   34.6510   45.4890 C   0  0  0  0  0  0  0  0  0  0  0  0
   44.7790   35.5860   44.4210 C   0  0  0  0  0  0  0  0  0  0  0  0
   45.5090   35.4830   43.1640 C   0  0  1  0  0  0  0  0  0  0  0  0
   46.5310   34.4030   43.0650 C   0  0  0  0  0  0  0  0  0  0  0  0
   46.0060   33.2000   43.8360 C   0  0  0  0  0  0  0  0  0  0  0  0
   46.9740   34.1620   45.5100 H   0  0  0  0  0  0  0  0  0  0  0  0
   44.3670   34.9050   46.3200 H   0  0  0  0  0  0  0  0  0  0  0  0
   44.0680   36.3660   44.5270 H   0  0  0  0  0  0  0  0  0  0  0  0
   45.9630   36.4670   42.9300 H   0  0  0  0  0  0  0  0  0  0  0  0
   46.6210   34.1240   41.9980 H   0  0  0  0  0  0  0  0  0  0  0  0
   47.5230   34.7430   43.4110 H   0  0  0  0  0  0  0  0  0  0  0  0
   46.2570   32.3450   43.2990 H   0  0  0  0  0  0  0  0  0  0  0  0
   44.8480   33.2700   43.5970 H   0  0  0  0  0  0  0  0  0  0  0  0
   45.4780   32.7910   47.5240 C   0  0  0  0  0  0  0  0  0  0  0  0
   45.8830   32.5230   46.2330 C   0  0  0  0  0  0  0  0  0  0  0  0
   45.9690   31.1870   45.9400 C   0  0  0  0  0  0  0  0  0  0  0  0
   45.6700   30.2340   46.8430 N   0  0  0  0  0  0  0  0  0  0  0  0
   45.2750   30.5320   48.1030 C   0  0  0  0  0  0  0  0  0  0  0  0
   45.1830   31.8130   48.4370 N   0  0  0  0  0  0  0  0  0  0  0  0
   45.0260   29.4840   49.0390 N   0  0  0  0  0  0  0  0  0  0  0  0
   45.3850   33.8070   47.8630 H   0  0  0  0  0  0  0  0  0  0  0  0
   44.1520   29.4020   49.5990 H   0  0  0  0  0  0  0  0  0  0  0  0
   45.7780   28.7620   49.1560 H   0  0  0  0  0  0  0  0  0  0  0  0
   46.7020   30.5770   44.7520 C   0  0  0  0  0  0  0  0  0  0  0  0
   48.1840   30.4840   44.8870 C   0  0  0  0  0  3  0  0  0  0  0  0
   48.7530   29.8830   43.8130 C   0  0  0  0  0  3  0  0  0  0  0  0
   48.0900   29.3970   42.7020 C   0  0  0  0  0  3  0  0  0  0  0  0
   46.3430   29.8610   43.2490 S   0  0  0  0  0  0  0  0  0  0  0  0
   44.4620   35.2590   42.0430 C   0  0  0  0  0  0  0  0  0  0  0  0
   43.4020   34.4790   42.4430 F   0  0  0  0  0  0  0  0  0  0  0  0
   43.9390   36.5140   41.7420 F   0  0  0  0  0  0  0  0  0  0  0  0
   45.0840   34.7890   40.8990 F   0  0  0  0  0  0  0  0  0  0  0  0
  1  2  1  0  0  0  0
  1  7  1  1  0  0  0
  1 16  1  0  0  0  0
  2  8  1  0  0  0  0
  3  9  1  0  0  0  0
  3  2  2  0  0  0  0
  4 10  1  6  0  0  0
  4  3  1  0  0  0  0
  5  4  1  0  0  0  0
  5 12  1  0  0  0  0
  5  6  1  0  0  0  0
  6  1  1  0  0  0  0
 11  5  1  0  0  0  0
 13  6  1  0  0  0  0
 14  6  1  0  0  0  0
 15 22  1  0  0  0  0
 15 20  1  0  0  0  0
 16 15  2  0  0  0  0
 17 16  1  0  0  0  0
 17 18  2  0  0  0  0
 18 19  1  0  0  0  0
 19 20  2  0  0  0  0
 19 21  1  0  0  0  0
 21 24  1  0  0  0  0
 21 23  1  0  0  0  0
 25 26  2  0  0  0  0
 25 17  1  0  0  0  0
 27 26  1  0  0  0  0
 28 29  1  0  0  0  0
 28 27  2  0  0  0  0
 29 25  1  0  0  0  0
 30 31  1  0  0  0  0
 30  4  1  0  0  0  0
 32 30  1  0  0  0  0
 33 30  1  0  0  0  0
M  END
>  <minimizedAffinity>
-5.50688696

>  <minimizedRMSD>
0.731417716

$$$$
