
 OpenBabel03232520383D

 15 16  0  0  0  0  0  0  0  0999 V2000
   44.6360   35.2910   45.1370 C   0  0  0  0  0  0  0  0  0  0  0  0
   44.9920   34.8260   43.8570 C   0  0  0  0  0  0  0  0  0  0  0  0
   45.6180   33.5970   43.7390 C   0  0  0  0  0  0  0  0  0  0  0  0
   45.8630   32.8850   44.9000 N   0  0  0  0  0  0  0  0  0  0  0  0
   45.5060   33.3710   46.0980 C   0  0  0  0  0  0  0  0  0  0  0  0
   44.8990   34.5590   46.2250 N   0  0  0  0  0  0  0  0  0  0  0  0
   44.1470   36.2540   45.2140 H   0  0  0  0  0  0  0  0  0  0  0  0
   45.8850   33.2470   42.7720 H   0  0  0  0  0  0  0  0  0  0  0  0
   45.7860   32.5870   47.2610 C   0  0  0  0  0  0  0  0  0  0  0  0
   44.9960   32.1470   48.2590 C   0  0  0  0  0  0  0  0  0  0  0  0
   45.5350   31.3960   49.2760 C   0  0  0  0  0  0  0  0  0  0  0  0
   46.8850   31.1290   49.2140 C   0  0  0  0  0  0  0  0  0  0  0  0
   47.3920   31.9690   47.6740 S   0  0  0  0  0  0  0  0  0  0  0  0
   44.6360   35.8180   42.3810 S   0  0  0  0  0  0  0  0  0  0  0  0
   43.6940   36.8010   42.7210 H   0  0  0  0  0  0  0  0  0  0  0  0
  1  7  1  0  0  0  0
  1  6  1  0  0  0  0
  2  1  2  0  0  0  0
  3  2  1  0  0  0  0
  3  4  2  0  0  0  0
  4  5  1  0  0  0  0
  5  6  2  0  0  0  0
  5  9  1  0  0  0  0
  8  3  1  0  0  0  0
  9 13  1  0  0  0  0
  9 10  2  0  0  0  0
 10 11  1  0  0  0  0
 12 11  2  0  0  0  0
 13 12  1  0  0  0  0
 14 15  1  0  0  0  0
 14  2  1  0  0  0  0
M  END
>  <minimizedAffinity>
-3.98525071

>  <minimizedRMSD>
1.26699138

$$$$
