
 OpenBabel03232521013D

 45 49  0  0  1  0  0  0  0  0999 V2000
   45.4400   32.9250   47.5130 C   0  0  0  0  0  0  0  0  0  0  0  0
   45.9310   32.6560   46.2760 C   0  0  0  0  0  0  0  0  0  0  0  0
   46.1290   31.2920   46.0190 C   0  0  0  0  0  0  0  0  0  0  0  0
   45.8590   30.3070   46.9110 N   0  0  0  0  0  0  0  0  0  0  0  0
   45.3590   30.6390   48.1590 C   0  0  0  0  0  0  0  0  0  0  0  0
   45.1630   31.9370   48.4300 N   0  0  0  0  0  0  0  0  0  0  0  0
   45.0750   29.6340   49.1120 N   0  0  0  0  0  0  0  0  0  0  0  0
   45.2540   33.9160   47.8220 H   0  0  0  0  0  0  0  0  0  0  0  0
   44.2450   29.8240   49.7490 H   0  0  0  0  0  0  0  0  0  0  0  0
   45.6390   28.7580   49.1940 H   0  0  0  0  0  0  0  0  0  0  0  0
   46.1640   33.6010   45.2370 C   0  0  2  0  0  0  0  0  0  0  0  0
   44.9550   34.6970   45.4790 C   0  0  0  0  0  0  0  0  0  0  0  0
   44.7160   35.6250   44.4090 C   0  0  0  0  0  0  0  0  0  0  0  0
   45.5050   35.5420   43.1730 C   0  0  1  0  0  0  0  0  0  0  0  0
   46.5480   34.5290   43.1110 C   0  0  0  0  0  0  0  0  0  0  0  0
   46.0980   33.3080   43.8760 C   0  0  0  0  0  0  0  0  0  0  0  0
   46.9430   34.3520   45.5600 H   0  0  0  0  0  0  0  0  0  0  0  0
   44.2950   34.8340   46.3290 H   0  0  0  0  0  0  0  0  0  0  0  0
   43.9330   36.3590   44.5360 H   0  0  0  0  0  0  0  0  0  0  0  0
   45.9370   36.5440   42.9700 H   0  0  0  0  0  0  0  0  0  0  0  0
   46.7380   34.2910   42.0220 H   0  0  0  0  0  0  0  0  0  0  0  0
   47.5380   34.8270   43.5010 H   0  0  0  0  0  0  0  0  0  0  0  0
   46.9310   32.6410   43.5290 H   0  0  0  0  0  0  0  0  0  0  0  0
   45.1170   32.9470   43.4830 H   0  0  0  0  0  0  0  0  0  0  0  0
   44.4690   35.2890   42.0380 C   0  0  0  0  0  0  0  0  0  0  0  0
   43.4130   34.4890   42.4480 F   0  0  0  0  0  0  0  0  0  0  0  0
   43.9260   36.5280   41.7120 F   0  0  0  0  0  0  0  0  0  0  0  0
   45.1210   34.8210   40.9140 F   0  0  0  0  0  0  0  0  0  0  0  0
   46.6970   30.5810   44.8880 C   0  0  0  0  0  0  0  0  0  0  0  0
   46.2820   29.8240   43.8400 C   0  0  0  0  0  0  0  0  0  0  0  0
   47.4320   29.4120   43.1320 C   0  0  0  0  0  0  0  0  0  0  0  0
   48.4650   29.9390   43.7840 N   0  0  0  0  0  0  0  0  0  0  0  0
   48.0690   30.6320   44.8230 N   0  0  0  0  0  0  0  0  0  0  0  0
   45.2300   29.6720   43.7270 H   0  0  0  0  0  0  0  0  0  0  0  0
   47.3360   28.7980   42.2600 H   0  0  0  0  0  0  0  0  0  0  0  0
   49.8360   29.7440   43.3610 C   0  0  0  0  0  0  0  0  0  0  0  0
   50.7030   28.8440   43.9960 C   0  0  0  0  0  3  0  0  0  0  0  0
   51.8970   28.8930   43.3720 N   0  0  0  0  0  0  0  0  0  0  0  0
   51.8300   29.7870   42.3650 C   0  0  0  0  0  0  0  0  0  0  0  0
   52.7810   30.1900   41.4460 C   0  0  0  0  0  3  0  0  0  0  0  0
   52.3760   31.1420   40.5330 C   0  0  0  0  0  3  0  0  0  0  0  0
   51.1050   31.6880   40.5010 C   0  0  0  0  0  3  0  0  0  0  0  0
   50.1700   31.2730   41.4260 C   0  0  0  0  0  3  0  0  0  0  0  0
   50.5430   30.3350   42.3390 C   0  0  0  0  0  0  0  0  0  0  0  0
   52.7100   28.3010   43.6760 H   0  0  0  0  0  0  0  0  0  0  0  0
  1  8  1  0  0  0  0
  1  6  1  0  0  0  0
  2  1  2  0  0  0  0
  3  2  1  0  0  0  0
  3  4  2  0  0  0  0
  4  5  1  0  0  0  0
  5  6  2  0  0  0  0
  5  7  1  0  0  0  0
  7 10  1  0  0  0  0
  7  9  1  0  0  0  0
 11 12  1  0  0  0  0
 11 17  1  1  0  0  0
 11  2  1  0  0  0  0
 12 18  1  0  0  0  0
 13 19  1  0  0  0  0
 13 12  2  0  0  0  0
 14 20  1  6  0  0  0
 14 13  1  0  0  0  0
 15 14  1  0  0  0  0
 15 22  1  0  0  0  0
 15 16  1  0  0  0  0
 16 11  1  0  0  0  0
 21 15  1  0  0  0  0
 23 16  1  0  0  0  0
 24 16  1  0  0  0  0
 25 26  1  0  0  0  0
 25 14  1  0  0  0  0
 27 25  1  0  0  0  0
 28 25  1  0  0  0  0
 29  3  1  0  0  0  0
 30 29  1  0  0  0  0
 31 32  1  0  0  0  0
 31 30  2  0  0  0  0
 32 33  1  0  0  0  0
 33 29  2  0  0  0  0
 34 30  1  0  0  0  0
 35 31  1  0  0  0  0
 36 32  1  0  0  0  0
 36 37  2  0  0  0  0
 38 45  1  0  0  0  0
 38 37  1  0  0  0  0
 39 38  1  0  0  0  0
 40 39  2  0  0  0  0
 41 40  1  0  0  0  0
 42 41  2  0  0  0  0
 42 43  1  0  0  0  0
 43 44  2  0  0  0  0
 44 39  1  0  0  0  0
 44 36  1  0  0  0  0
M  END
>  <minimizedAffinity>
-6.29143858

>  <minimizedRMSD>
0.237974539

$$$$
