
 OpenBabel03232520163D

 30 32  0  0  0  0  0  0  0  0999 V2000
   47.5460   34.1530   42.1780 C   0  0  0  0  0  0  0  0  0  0  0  0
   48.4670   35.2760   41.7610 C   0  0  0  0  0  0  0  0  0  0  0  0
   49.8030   35.2710   42.3950 C   0  0  0  0  0  0  0  0  0  0  0  0
   50.4580   33.9330   42.4650 C   0  0  0  0  0  0  0  0  0  0  0  0
   49.5580   32.7920   42.0800 C   0  0  0  0  0  0  0  0  0  0  0  0
   48.2410   32.9930   42.8050 C   0  0  0  0  0  0  0  0  0  0  0  0
   48.0060   36.2780   41.8830 H   0  0  0  0  0  0  0  0  0  0  0  0
   48.6380   35.1820   40.6510 H   0  0  0  0  0  0  0  0  0  0  0  0
   50.4060   36.0670   41.9250 H   0  0  0  0  0  0  0  0  0  0  0  0
   49.6660   35.6160   43.4620 H   0  0  0  0  0  0  0  0  0  0  0  0
   51.3240   33.9340   41.7660 H   0  0  0  0  0  0  0  0  0  0  0  0
   50.9100   33.7360   43.4770 H   0  0  0  0  0  0  0  0  0  0  0  0
   50.0780   31.8560   42.3810 H   0  0  0  0  0  0  0  0  0  0  0  0
   49.4040   32.7330   40.9980 H   0  0  0  0  0  0  0  0  0  0  0  0
   48.4760   33.2780   43.8580 H   0  0  0  0  0  0  0  0  0  0  0  0
   47.6630   32.0710   42.7500 H   0  0  0  0  0  0  0  0  0  0  0  0
   45.2710   34.4300   45.0870 C   0  0  0  0  0  0  0  0  0  0  0  0
   44.5560   35.6020   44.8200 C   0  0  0  0  0  0  0  0  0  0  0  0
   44.8640   36.2930   43.6530 C   0  0  0  0  0  0  0  0  0  0  0  0
   45.8410   35.7910   42.8410 N   0  0  0  0  0  0  0  0  0  0  0  0
   46.5150   34.6570   43.1230 C   0  0  0  0  0  0  0  0  0  0  0  0
   46.2120   33.9840   44.2650 N   0  0  0  0  0  0  0  0  0  0  0  0
   44.9810   33.9430   46.0120 H   0  0  0  0  0  0  0  0  0  0  0  0
   43.7840   36.0710   45.3840 H   0  0  0  0  0  0  0  0  0  0  0  0
   44.4450   37.2070   43.2520 H   0  0  0  0  0  0  0  0  0  0  0  0
   46.8590   33.6200   40.9280 C   0  0  0  0  0  0  0  0  0  0  0  0
   45.7090   32.9180   40.6120 C   0  0  0  0  0  0  0  0  0  0  0  0
   45.5130   32.6720   39.3000 C   0  0  0  0  0  0  0  0  0  0  0  0
   46.3600   33.0670   38.3180 C   0  0  0  0  0  0  0  0  0  0  0  0
   47.6760   33.9340   39.3240 S   0  0  0  0  0  0  0  0  0  0  0  0
  1  6  1  0  0  0  0
  1 21  1  0  0  0  0
  2  7  1  0  0  0  0
  2  1  1  0  0  0  0
  2  3  1  0  0  0  0
  3  4  1  0  0  0  0
  3 10  1  0  0  0  0
  4 12  1  0  0  0  0
  5 13  1  0  0  0  0
  5  4  1  0  0  0  0
  5  6  1  0  0  0  0
  6 15  1  0  0  0  0
  8  2  1  0  0  0  0
  9  3  1  0  0  0  0
 11  4  1  0  0  0  0
 14  5  1  0  0  0  0
 16  6  1  0  0  0  0
 17 23  1  0  0  0  0
 18 17  1  0  0  0  0
 18 24  1  0  0  0  0
 19 18  2  0  0  0  0
 20 21  2  0  0  0  0
 20 19  1  0  0  0  0
 21 22  1  0  0  0  0
 22 17  2  0  0  0  0
 25 19  1  0  0  0  0
 26  1  1  0  0  0  0
 27 26  2  0  0  0  0
 28 27  1  0  0  0  0
 29 28  2  0  0  0  0
 29 30  1  0  0  0  0
 30 26  1  0  0  0  0
M  END
>  <minimizedAffinity>
-5.33306217

>  <minimizedRMSD>
0.736734509

$$$$
