
 OpenBabel03232521013D

 45 49  0  0  1  0  0  0  0  0999 V2000
   45.4550   32.9230   47.5430 C   0  0  0  0  0  0  0  0  0  0  0  0
   45.9300   32.6510   46.3000 C   0  0  0  0  0  0  0  0  0  0  0  0
   46.1060   31.2860   46.0380 C   0  0  0  0  0  0  0  0  0  0  0  0
   45.8300   30.3010   46.9290 N   0  0  0  0  0  0  0  0  0  0  0  0
   45.3470   30.6370   48.1830 C   0  0  0  0  0  0  0  0  0  0  0  0
   45.1720   31.9370   48.4600 N   0  0  0  0  0  0  0  0  0  0  0  0
   45.0580   29.6330   49.1360 N   0  0  0  0  0  0  0  0  0  0  0  0
   45.2860   33.9160   47.8560 H   0  0  0  0  0  0  0  0  0  0  0  0
   44.2360   29.8330   49.7810 H   0  0  0  0  0  0  0  0  0  0  0  0
   45.6090   28.7490   49.2090 H   0  0  0  0  0  0  0  0  0  0  0  0
   46.1670   33.5960   45.2620 C   0  0  2  0  0  0  0  0  0  0  0  0
   44.9520   34.6880   45.4940 C   0  0  0  0  0  0  0  0  0  0  0  0
   44.7170   35.6140   44.4220 C   0  0  0  0  0  0  0  0  0  0  0  0
   45.5150   35.5320   43.1910 C   0  0  1  0  0  0  0  0  0  0  0  0
   46.5620   34.5230   43.1380 C   0  0  0  0  0  0  0  0  0  0  0  0
   46.1120   33.3010   43.9010 C   0  0  0  0  0  0  0  0  0  0  0  0
   46.9410   34.3500   45.5900 H   0  0  0  0  0  0  0  0  0  0  0  0
   44.2860   34.8230   46.3390 H   0  0  0  0  0  0  0  0  0  0  0  0
   43.9300   36.3440   44.5420 H   0  0  0  0  0  0  0  0  0  0  0  0
   45.9440   36.5360   42.9900 H   0  0  0  0  0  0  0  0  0  0  0  0
   46.7610   34.2850   42.0510 H   0  0  0  0  0  0  0  0  0  0  0  0
   47.5480   34.8250   43.5340 H   0  0  0  0  0  0  0  0  0  0  0  0
   46.9500   32.6380   43.5610 H   0  0  0  0  0  0  0  0  0  0  0  0
   45.1350   32.9360   43.5020 H   0  0  0  0  0  0  0  0  0  0  0  0
   44.4880   35.2740   42.0490 C   0  0  0  0  0  0  0  0  0  0  0  0
   43.4360   34.4650   42.4510 F   0  0  0  0  0  0  0  0  0  0  0  0
   43.9380   36.5100   41.7230 F   0  0  0  0  0  0  0  0  0  0  0  0
   45.1510   34.8140   40.9290 F   0  0  0  0  0  0  0  0  0  0  0  0
   46.6530   30.5700   44.8990 C   0  0  0  0  0  0  0  0  0  0  0  0
   46.2220   29.7830   43.8800 C   0  0  0  0  0  0  0  0  0  0  0  0
   47.3570   29.3900   43.1380 C   0  0  0  0  0  0  0  0  0  0  0  0
   48.3980   29.9560   43.7430 N   0  0  0  0  0  0  0  0  0  0  0  0
   48.0200   30.6580   44.7840 N   0  0  0  0  0  0  0  0  0  0  0  0
   45.1720   29.6000   43.8080 H   0  0  0  0  0  0  0  0  0  0  0  0
   47.2470   28.7570   42.2810 H   0  0  0  0  0  0  0  0  0  0  0  0
   49.7570   29.7920   43.2740 C   0  0  0  0  0  0  0  0  0  0  0  0
   50.6410   28.8580   43.8310 C   0  0  0  0  0  3  0  0  0  0  0  0
   51.8190   28.9480   43.1810 N   0  0  0  0  0  0  0  0  0  0  0  0
   51.7240   29.9010   42.2320 C   0  0  0  0  0  0  0  0  0  0  0  0
   52.6520   30.3610   41.3140 C   0  0  0  0  0  3  0  0  0  0  0  0
   52.2220   31.3640   40.4700 C   0  0  0  0  0  3  0  0  0  0  0  0
   50.9480   31.9060   40.5040 C   0  0  0  0  0  3  0  0  0  0  0  0
   50.0390   31.4340   41.4260 C   0  0  0  0  0  3  0  0  0  0  0  0
   50.4370   30.4450   42.2710 C   0  0  0  0  0  0  0  0  0  0  0  0
   52.6410   28.3410   43.4270 H   0  0  0  0  0  0  0  0  0  0  0  0
  1  8  1  0  0  0  0
  1  6  1  0  0  0  0
  2  1  2  0  0  0  0
  3  2  1  0  0  0  0
  3  4  2  0  0  0  0
  4  5  1  0  0  0  0
  5  6  2  0  0  0  0
  5  7  1  0  0  0  0
  7 10  1  0  0  0  0
  7  9  1  0  0  0  0
 11 12  1  0  0  0  0
 11 17  1  1  0  0  0
 11  2  1  0  0  0  0
 12 18  1  0  0  0  0
 13 19  1  0  0  0  0
 13 12  2  0  0  0  0
 14 20  1  6  0  0  0
 14 13  1  0  0  0  0
 15 14  1  0  0  0  0
 15 22  1  0  0  0  0
 15 16  1  0  0  0  0
 16 11  1  0  0  0  0
 21 15  1  0  0  0  0
 23 16  1  0  0  0  0
 24 16  1  0  0  0  0
 25 26  1  0  0  0  0
 25 14  1  0  0  0  0
 27 25  1  0  0  0  0
 28 25  1  0  0  0  0
 29  3  1  0  0  0  0
 30 29  1  0  0  0  0
 31 32  1  0  0  0  0
 31 30  2  0  0  0  0
 32 33  1  0  0  0  0
 33 29  2  0  0  0  0
 34 30  1  0  0  0  0
 35 31  1  0  0  0  0
 36 32  1  0  0  0  0
 36 37  2  0  0  0  0
 38 45  1  0  0  0  0
 38 37  1  0  0  0  0
 39 44  1  0  0  0  0
 39 38  1  0  0  0  0
 40 39  2  0  0  0  0
 41 42  2  0  0  0  0
 41 40  1  0  0  0  0
 42 43  1  0  0  0  0
 43 44  2  0  0  0  0
 44 36  1  0  0  0  0
M  END
>  <minimizedAffinity>
-6.30581903

>  <minimizedRMSD>
0.711041033

$$$$
