
 OpenBabel03232517513D

 16 17  0  0  0  0  0  0  0  0999 V2000
   44.8970   35.0240   44.4610 C   0  0  0  0  0  0  0  0  0  0  0  0
   45.5610   34.8920   43.2200 C   0  0  0  0  0  0  0  0  0  0  0  0
   46.6350   33.9900   43.1900 C   0  0  0  0  0  0  0  0  0  0  0  0
   46.9850   33.3060   44.3070 N   0  0  0  0  0  0  0  0  0  0  0  0
   46.3040   33.4810   45.4660 C   0  0  0  0  0  0  0  0  0  0  0  0
   45.2790   34.3270   45.5330 N   0  0  0  0  0  0  0  0  0  0  0  0
   43.7820   35.9060   44.6460 N   0  0  0  0  0  0  0  0  0  0  0  0
   45.2020   35.4800   42.4050 H   0  0  0  0  0  0  0  0  0  0  0  0
   46.5770   32.9380   46.3600 H   0  0  0  0  0  0  0  0  0  0  0  0
   42.9020   35.3220   44.7110 H   0  0  0  0  0  0  0  0  0  0  0  0
   43.8510   36.9480   44.7050 H   0  0  0  0  0  0  0  0  0  0  0  0
   47.3310   33.8410   41.9210 C   0  0  0  0  0  0  0  0  0  0  0  0
   47.5850   34.7590   40.9400 C   0  0  0  0  0  0  0  0  0  0  0  0
   48.2650   34.3720   39.8250 C   0  0  0  0  0  0  0  0  0  0  0  0
   48.6610   32.9720   39.8000 C   0  0  0  0  0  0  0  0  0  0  0  0
   48.0100   32.3180   41.4120 S   0  0  0  0  0  0  0  0  0  0  0  0
  1  7  1  0  0  0  0
  1  6  1  0  0  0  0
  2  1  2  0  0  0  0
  3  2  1  0  0  0  0
  3  4  2  0  0  0  0
  4  5  1  0  0  0  0
  5  6  2  0  0  0  0
  5  9  1  0  0  0  0
  7 11  1  0  0  0  0
  7 10  1  0  0  0  0
  8  2  1  0  0  0  0
 12  3  1  0  0  0  0
 13 12  2  0  0  0  0
 14 13  1  0  0  0  0
 15 14  2  0  0  0  0
 15 16  1  0  0  0  0
 16 12  1  0  0  0  0
M  END
>  <minimizedAffinity>
-4.1804595

>  <minimizedRMSD>
0.752786219

$$$$
