
 OpenBabel03232520093D

 21 23  0  0  0  0  0  0  0  0999 V2000
   46.7040   33.9560   43.4220 C   0  0  0  0  0  0  0  0  0  0  0  0
   45.6980   34.6030   44.1050 C   0  0  0  0  0  0  0  0  0  0  0  0
   45.3420   34.2060   45.3530 C   0  0  0  0  0  0  0  0  0  0  0  0
   46.0650   33.1280   45.8550 C   0  0  0  0  0  0  0  0  0  0  0  0
   47.2150   32.7110   44.5580 S   0  0  0  0  0  0  0  0  0  0  0  0
   45.2010   35.4460   43.5950 H   0  0  0  0  0  0  0  0  0  0  0  0
   44.5760   34.6610   45.9350 H   0  0  0  0  0  0  0  0  0  0  0  0
   48.6310   35.3390   40.6230 C   0  0  0  0  0  0  0  0  0  0  0  0
   48.1110   34.6080   39.5410 C   0  0  0  0  0  0  0  0  0  0  0  0
   47.1070   33.6550   39.8030 C   0  0  0  0  0  0  0  0  0  0  0  0
   46.6950   33.4940   41.0960 N   0  0  0  0  0  0  0  0  0  0  0  0
   47.2240   34.2190   42.1030 C   0  0  0  0  0  0  0  0  0  0  0  0
   48.1870   35.1390   41.8790 N   0  0  0  0  0  0  0  0  0  0  0  0
   49.4030   36.0710   40.4210 H   0  0  0  0  0  0  0  0  0  0  0  0
   48.4450   34.7480   38.5390 H   0  0  0  0  0  0  0  0  0  0  0  0
   46.6560   33.0520   39.0270 H   0  0  0  0  0  0  0  0  0  0  0  0
   45.9800   32.4270   47.1330 C   0  0  0  0  0  0  0  0  0  0  0  0
   45.0750   32.4080   48.0580 C   0  0  0  0  0  0  0  0  0  0  0  0
   45.2750   31.6380   49.1700 C   0  0  0  0  0  0  0  0  0  0  0  0
   46.4760   30.9020   49.2400 C   0  0  0  0  0  0  0  0  0  0  0  0
   47.3100   31.3770   47.6090 S   0  0  0  0  0  0  0  0  0  0  0  0
  1  2  2  0  0  0  0
  1  5  1  0  0  0  0
  2  3  1  0  0  0  0
  3  4  2  0  0  0  0
  3  7  1  0  0  0  0
  4 17  1  0  0  0  0
  5  4  1  0  0  0  0
  6  2  1  0  0  0  0
  8 13  1  0  0  0  0
  9 10  1  0  0  0  0
  9  8  2  0  0  0  0
 10 11  2  0  0  0  0
 11 12  1  0  0  0  0
 12  1  1  0  0  0  0
 13 12  2  0  0  0  0
 14  8  1  0  0  0  0
 15  9  1  0  0  0  0
 16 10  1  0  0  0  0
 17 21  1  0  0  0  0
 17 18  2  0  0  0  0
 18 19  1  0  0  0  0
 19 20  2  0  0  0  0
 21 20  1  0  0  0  0
M  END
>  <minimizedAffinity>
-4.82469606

>  <minimizedRMSD>
4.08239889

$$$$
