
 OpenBabel03232520413D

 29 32  0  0  0  0  0  0  0  0999 V2000
   44.1190   35.7890   42.6810 C   0  0  0  0  0  0  0  0  0  0  0  0
   43.3410   35.1890   41.6660 C   0  0  0  0  0  0  0  0  0  0  0  0
   43.9640   34.3220   40.7730 C   0  0  0  0  0  0  0  0  0  0  0  0
   45.3030   34.0660   40.8930 N   0  0  0  0  0  0  0  0  0  0  0  0
   46.0030   34.6700   41.8890 C   0  0  0  0  0  0  0  0  0  0  0  0
   45.4210   35.5060   42.7540 N   0  0  0  0  0  0  0  0  0  0  0  0
   43.6060   36.4580   43.3580 H   0  0  0  0  0  0  0  0  0  0  0  0
   43.4080   33.8440   39.9850 H   0  0  0  0  0  0  0  0  0  0  0  0
   47.4480   34.4370   42.0730 C   0  0  0  0  0  0  0  0  0  0  0  0
   48.3280   35.4800   41.9850 C   0  0  0  0  0  0  0  0  0  0  0  0
   49.6940   35.2900   42.1540 C   0  0  0  0  0  0  0  0  0  0  0  0
   50.1930   34.0230   42.4170 C   0  0  0  0  0  0  0  0  0  0  0  0
   49.2700   32.9970   42.4970 C   0  0  0  0  0  0  0  0  0  0  0  0
   47.9480   33.2040   42.3310 N   0  0  0  0  0  0  0  0  0  0  0  0
   48.0160   36.4880   41.7840 H   0  0  0  0  0  0  0  0  0  0  0  0
   50.3970   36.1080   42.0860 H   0  0  0  0  0  0  0  0  0  0  0  0
   51.2390   33.7830   42.5630 H   0  0  0  0  0  0  0  0  0  0  0  0
   49.4980   31.9650   42.6940 H   0  0  0  0  0  0  0  0  0  0  0  0
   41.5720   35.5350   41.5180 S   0  0  0  0  0  0  0  0  0  0  0  0
   41.0850   35.2520   39.8330 C   0  0  0  0  0  0  0  0  0  0  0  0
   41.7230   35.7250   38.6970 C   0  0  0  0  0  0  0  0  0  0  0  0
   41.0770   35.3170   37.5930 N   0  0  0  0  0  0  0  0  0  0  0  0
   40.0120   34.5750   37.9940 C   0  0  0  0  0  0  0  0  0  0  0  0
   39.0070   33.9070   37.2920 C   0  0  0  0  0  0  0  0  0  0  0  0
   38.0420   33.2230   38.0300 C   0  0  0  0  0  0  0  0  0  0  0  0
   38.0290   33.1710   39.4100 C   0  0  0  0  0  0  0  0  0  0  0  0
   39.0350   33.8390   40.1150 C   0  0  0  0  0  0  0  0  0  0  0  0
   39.9880   34.5150   39.3730 C   0  0  0  0  0  0  0  0  0  0  0  0
   41.3560   35.5390   36.6160 H   0  0  0  0  0  0  0  0  0  0  0  0
  1  6  1  0  0  0  0
  1  7  1  0  0  0  0
  2  1  2  0  0  0  0
  3  4  2  0  0  0  0
  3  2  1  0  0  0  0
  4  5  1  0  0  0  0
  5  9  1  0  0  0  0
  5  6  2  0  0  0  0
  8  3  1  0  0  0  0
  9 14  1  0  0  0  0
 10  9  2  0  0  0  0
 10 11  1  0  0  0  0
 11 12  2  0  0  0  0
 12 13  1  0  0  0  0
 12 17  1  0  0  0  0
 13 18  1  0  0  0  0
 14 13  2  0  0  0  0
 15 10  1  0  0  0  0
 16 11  1  0  0  0  0
 19  2  1  0  0  0  0
 20 19  1  0  0  0  0
 21 20  2  0  0  0  0
 22 23  1  0  0  0  0
 22 21  1  0  0  0  0
 23 28  1  0  0  0  0
 24 23  2  0  0  0  0
 24 25  1  0  0  0  0
 25 26  2  0  0  0  0
 26 27  1  0  0  0  0
 28 20  1  0  0  0  0
 28 27  2  0  0  0  0
 29 22  1  0  0  0  0
M  END
>  <minimizedAffinity>
-6.81206942

>  <minimizedRMSD>
0.836808324

$$$$
