
 OpenBabel03232518103D

 33 36  0  0  0  0  0  0  0  0999 V2000
   46.3710   30.6020   45.9150 C   0  0  0  0  0  0  0  0  0  0  0  0
   45.8000   31.0460   47.0990 C   0  0  0  0  0  0  0  0  0  0  0  0
   45.0380   29.9900   47.5670 C   0  0  0  0  0  0  0  0  0  0  0  0
   45.1420   28.9600   46.7070 N   0  0  0  0  0  0  0  0  0  0  0  0
   45.9390   29.3270   45.7220 N   0  0  0  0  0  0  0  0  0  0  0  0
   46.0770   32.0590   47.3580 H   0  0  0  0  0  0  0  0  0  0  0  0
   44.5110   30.1640   48.5000 H   0  0  0  0  0  0  0  0  0  0  0  0
   44.4510   27.7470   46.9580 C   0  0  0  0  0  0  0  0  0  0  0  0
   44.8820   26.7690   47.8240 C   0  0  0  0  0  0  0  0  0  0  0  0
   43.9780   25.7900   47.7940 N   0  0  0  0  0  0  0  0  0  0  0  0
   42.9600   26.0720   46.9440 C   0  0  0  0  0  0  0  0  0  0  0  0
   41.8060   25.4050   46.5610 C   0  0  0  0  0  0  0  0  0  0  0  0
   40.9950   26.0420   45.6410 C   0  0  0  0  0  0  0  0  0  0  0  0
   41.2710   27.2900   45.0900 C   0  0  0  0  0  0  0  0  0  0  0  0
   42.4330   27.9520   45.4810 C   0  0  0  0  0  0  0  0  0  0  0  0
   43.2500   27.3280   46.3980 C   0  0  0  0  0  0  0  0  0  0  0  0
   43.9530   24.8700   48.3200 H   0  0  0  0  0  0  0  0  0  0  0  0
   47.4630   31.1940   44.6310 S   0  0  0  0  0  0  0  0  0  0  0  0
   47.2680   34.7110   42.6510 C   0  0  0  0  0  0  0  0  0  0  0  0
   47.7640   33.4870   43.1300 C   0  0  0  0  0  0  0  0  0  0  0  0
   46.9590   32.7350   43.9680 C   0  0  0  0  0  0  0  0  0  0  0  0
   45.7240   33.2210   44.2890 N   0  0  0  0  0  0  0  0  0  0  0  0
   45.2870   34.4090   43.8020 C   0  0  0  0  0  0  0  0  0  0  0  0
   46.0440   35.1390   43.0000 N   0  0  0  0  0  0  0  0  0  0  0  0
   48.7440   33.0920   42.8810 H   0  0  0  0  0  0  0  0  0  0  0  0
   44.3060   34.7870   44.0620 H   0  0  0  0  0  0  0  0  0  0  0  0
   48.2370   35.4140   41.7610 C   0  0  0  0  0  0  0  0  0  0  0  0
   48.0050   36.4900   41.8170 H   0  0  0  0  0  0  0  0  0  0  0  0
   48.1450   35.0600   40.7080 H   0  0  0  0  0  0  0  0  0  0  0  0
   49.6440   35.2290   42.2750 C   0  0  0  0  0  0  0  0  0  0  0  0
   50.1170   34.2930   41.9150 H   0  0  0  0  0  0  0  0  0  0  0  0
   50.2250   36.1220   41.9570 H   0  0  0  0  0  0  0  0  0  0  0  0
   49.5880   35.1760   43.3880 H   0  0  0  0  0  0  0  0  0  0  0  0
  1  2  1  0  0  0  0
  2  6  1  0  0  0  0
  2  3  2  0  0  0  0
  3  7  1  0  0  0  0
  4  8  1  0  0  0  0
  4  3  1  0  0  0  0
  5  1  2  0  0  0  0
  5  4  1  0  0  0  0
  8  9  2  0  0  0  0
 10  9  1  0  0  0  0
 10 17  1  0  0  0  0
 11 10  1  0  0  0  0
 12 11  1  0  0  0  0
 13 12  2  0  0  0  0
 14 15  2  0  0  0  0
 14 13  1  0  0  0  0
 15 16  1  0  0  0  0
 16 11  2  0  0  0  0
 16  8  1  0  0  0  0
 18  1  1  0  0  0  0
 19 24  2  0  0  0  0
 19 20  1  0  0  0  0
 20 21  2  0  0  0  0
 21 22  1  0  0  0  0
 21 18  1  0  0  0  0
 23 26  1  0  0  0  0
 23 22  2  0  0  0  0
 24 23  1  0  0  0  0
 25 20  1  0  0  0  0
 27 28  1  0  0  0  0
 27 30  1  0  0  0  0
 27 19  1  0  0  0  0
 29 27  1  0  0  0  0
 30 33  1  0  0  0  0
 31 30  1  0  0  0  0
 32 30  1  0  0  0  0
M  END
>  <minimizedAffinity>
-5.27631283

>  <minimizedRMSD>
1.61802459

$$$$
