
 OpenBabel03232520563D

 33 35  0  0  1  0  0  0  0  0999 V2000
   46.1680   33.4570   45.2730 C   0  0  2  0  0  0  0  0  0  0  0  0
   45.1030   34.6150   45.5180 C   0  0  0  0  0  0  0  0  0  0  0  0
   44.8770   35.5300   44.4300 C   0  0  0  0  0  0  0  0  0  0  0  0
   45.5950   35.3850   43.1710 C   0  0  1  0  0  0  0  0  0  0  0  0
   46.5960   34.2840   43.0900 C   0  0  0  0  0  0  0  0  0  0  0  0
   46.0550   33.1090   43.8920 C   0  0  0  0  0  0  0  0  0  0  0  0
   47.0530   34.0910   45.5360 H   0  0  0  0  0  0  0  0  0  0  0  0
   44.4660   34.9000   46.3470 H   0  0  0  0  0  0  0  0  0  0  0  0
   44.1810   36.3250   44.5230 H   0  0  0  0  0  0  0  0  0  0  0  0
   46.0660   36.3540   42.9110 H   0  0  0  0  0  0  0  0  0  0  0  0
   46.6740   33.9790   42.0290 H   0  0  0  0  0  0  0  0  0  0  0  0
   47.5970   34.6130   43.4210 H   0  0  0  0  0  0  0  0  0  0  0  0
   46.2870   32.2380   43.3730 H   0  0  0  0  0  0  0  0  0  0  0  0
   44.8970   33.1950   43.6590 H   0  0  0  0  0  0  0  0  0  0  0  0
   45.2360   32.7360   47.4670 C   0  0  0  0  0  0  0  0  0  0  0  0
   45.9370   32.4890   46.3040 C   0  0  0  0  0  0  0  0  0  0  0  0
   46.3270   31.1840   46.1520 C   0  0  0  0  0  0  0  0  0  0  0  0
   46.0330   30.2370   47.0630 N   0  0  0  0  0  0  0  0  0  0  0  0
   45.3430   30.5130   48.1940 C   0  0  0  0  0  0  0  0  0  0  0  0
   44.9490   31.7640   48.3900 N   0  0  0  0  0  0  0  0  0  0  0  0
   45.1080   29.4840   49.1550 N   0  0  0  0  0  0  0  0  0  0  0  0
   44.8900   33.7270   47.6910 H   0  0  0  0  0  0  0  0  0  0  0  0
   44.1690   29.2580   49.5450 H   0  0  0  0  0  0  0  0  0  0  0  0
   45.9420   28.9340   49.4760 H   0  0  0  0  0  0  0  0  0  0  0  0
   47.3860   30.6750   45.1830 C   0  0  0  0  0  0  0  0  0  0  0  0
   48.5020   29.9000   45.7960 C   0  0  0  0  0  3  0  0  0  0  0  0
   49.3710   29.4380   44.8610 C   0  0  0  0  0  3  0  0  0  0  0  0
   49.2820   29.6330   43.4970 C   0  0  0  0  0  3  0  0  0  0  0  0
   47.6910   30.6490   43.5070 S   0  0  0  0  0  0  0  0  0  0  0  0
   44.5370   35.1550   42.0630 C   0  0  0  0  0  0  0  0  0  0  0  0
   43.5010   34.3440   42.4660 F   0  0  0  0  0  0  0  0  0  0  0  0
   43.9800   36.4020   41.7900 F   0  0  0  0  0  0  0  0  0  0  0  0
   45.1510   34.7180   40.9010 F   0  0  0  0  0  0  0  0  0  0  0  0
  1  2  1  0  0  0  0
  1  7  1  1  0  0  0
  1 16  1  0  0  0  0
  2  8  1  0  0  0  0
  3  9  1  0  0  0  0
  3  2  2  0  0  0  0
  4 10  1  6  0  0  0
  4  3  1  0  0  0  0
  5  4  1  0  0  0  0
  5 12  1  0  0  0  0
  5  6  1  0  0  0  0
  6  1  1  0  0  0  0
 11  5  1  0  0  0  0
 13  6  1  0  0  0  0
 14  6  1  0  0  0  0
 15 22  1  0  0  0  0
 15 20  1  0  0  0  0
 16 15  2  0  0  0  0
 17 16  1  0  0  0  0
 17 18  2  0  0  0  0
 18 19  1  0  0  0  0
 19 20  2  0  0  0  0
 19 21  1  0  0  0  0
 21 24  1  0  0  0  0
 21 23  1  0  0  0  0
 25 26  2  0  0  0  0
 25 17  1  0  0  0  0
 27 26  1  0  0  0  0
 28 29  1  0  0  0  0
 28 27  2  0  0  0  0
 29 25  1  0  0  0  0
 30 31  1  0  0  0  0
 30  4  1  0  0  0  0
 32 30  1  0  0  0  0
 33 30  1  0  0  0  0
M  END
>  <minimizedAffinity>
-5.60682964

>  <minimizedRMSD>
0.397775501

$$$$
