
 OpenBabel03232520203D

 37 40  0  0  0  0  0  0  0  0999 V2000
   47.5190   34.1400   42.2160 C   0  0  0  0  0  0  0  0  0  0  0  0
   48.3680   35.2690   41.6830 C   0  0  0  0  0  0  0  0  0  0  0  0
   49.7150   35.3720   42.2860 C   0  0  0  0  0  0  0  0  0  0  0  0
   50.4340   34.0770   42.4460 C   0  0  0  0  0  0  0  0  0  0  0  0
   49.5780   32.8680   42.1740 C   0  0  0  0  0  0  0  0  0  0  0  0
   48.2670   33.0640   42.9200 C   0  0  0  0  0  0  0  0  0  0  0  0
   48.5030   35.1720   40.5740 H   0  0  0  0  0  0  0  0  0  0  0  0
   47.8180   36.2220   41.8330 H   0  0  0  0  0  0  0  0  0  0  0  0
   49.6810   35.8720   43.2830 H   0  0  0  0  0  0  0  0  0  0  0  0
   50.3240   36.0290   41.6270 H   0  0  0  0  0  0  0  0  0  0  0  0
   51.3190   33.9990   41.7690 H   0  0  0  0  0  0  0  0  0  0  0  0
   50.8440   33.9480   43.4790 H   0  0  0  0  0  0  0  0  0  0  0  0
   50.1170   31.9760   42.5860 H   0  0  0  0  0  0  0  0  0  0  0  0
   49.4390   32.7390   41.0830 H   0  0  0  0  0  0  0  0  0  0  0  0
   48.5230   33.4110   43.9400 H   0  0  0  0  0  0  0  0  0  0  0  0
   47.6660   32.1500   42.9470 H   0  0  0  0  0  0  0  0  0  0  0  0
   45.2240   34.4870   45.1010 C   0  0  0  0  0  0  0  0  0  0  0  0
   44.5240   35.6560   44.8150 C   0  0  0  0  0  0  0  0  0  0  0  0
   44.8410   36.3260   43.6330 C   0  0  0  0  0  0  0  0  0  0  0  0
   45.8090   35.8120   42.8270 N   0  0  0  0  0  0  0  0  0  0  0  0
   46.4680   34.6670   43.1440 C   0  0  0  0  0  0  0  0  0  0  0  0
   46.1610   34.0110   44.2950 N   0  0  0  0  0  0  0  0  0  0  0  0
   44.9700   33.9730   46.0200 H   0  0  0  0  0  0  0  0  0  0  0  0
   43.7550   36.0450   45.4750 H   0  0  0  0  0  0  0  0  0  0  0  0
   44.3410   37.2300   43.3530 H   0  0  0  0  0  0  0  0  0  0  0  0
   46.8370   33.4940   41.0320 C   0  0  0  0  0  0  0  0  0  0  0  0
   45.7090   32.7400   40.7810 C   0  0  0  0  0  0  0  0  0  0  0  0
   45.4740   32.3630   39.5150 C   0  0  0  0  0  0  0  0  0  0  0  0
   46.2930   32.6950   38.5090 C   0  0  0  0  0  0  0  0  0  0  0  0
   47.5980   33.6720   39.3880 S   0  0  0  0  0  0  0  0  0  0  0  0
   45.1620   32.5590   41.6690 H   0  0  0  0  0  0  0  0  0  0  0  0
   44.5990   31.7680   39.2770 H   0  0  0  0  0  0  0  0  0  0  0  0
   46.3970   32.5050   37.1000 C   0  0  0  0  0  0  0  0  0  0  0  0
   45.3530   32.4280   36.2730 C   0  0  0  0  0  0  0  0  0  0  0  0
   45.5460   32.2460   34.9340 C   0  0  0  0  0  0  0  0  0  0  0  0
   46.9750   32.1500   34.5260 C   0  0  0  0  0  0  0  0  0  0  0  0
   47.8870   32.3380   36.1600 S   0  0  0  0  0  0  0  0  0  0  0  0
  1  6  1  0  0  0  0
  1 21  1  0  0  0  0
  2  8  1  0  0  0  0
  2  1  1  0  0  0  0
  2  3  1  0  0  0  0
  3  4  1  0  0  0  0
  3  9  1  0  0  0  0
  4 12  1  0  0  0  0
  5  4  1  0  0  0  0
  5 13  1  0  0  0  0
  5  6  1  0  0  0  0
  6 16  1  0  0  0  0
  6 15  1  0  0  0  0
  7  2  1  0  0  0  0
 10  3  1  0  0  0  0
 11  4  1  0  0  0  0
 14  5  1  0  0  0  0
 17 23  1  0  0  0  0
 18 17  1  0  0  0  0
 18 24  1  0  0  0  0
 19 18  2  0  0  0  0
 20 21  2  0  0  0  0
 20 19  1  0  0  0  0
 21 22  1  0  0  0  0
 22 17  2  0  0  0  0
 25 19  1  0  0  0  0
 26  1  1  0  0  0  0
 27 26  2  0  0  0  0
 27 31  1  0  0  0  0
 28 27  1  0  0  0  0
 29 30  1  0  0  0  0
 29 28  2  0  0  0  0
 30 26  1  0  0  0  0
 32 28  1  0  0  0  0
 33 29  1  0  0  0  0
 34 33  2  0  0  0  0
 35 34  1  0  0  0  0
 36 35  2  0  0  0  0
 36 37  1  0  0  0  0
 37 33  1  0  0  0  0
M  END
>  <minimizedAffinity>
-5.89436579

>  <minimizedRMSD>
0.567774057

$$$$
