
 OpenBabel03232518543D

 42 46  0  0  0  0  0  0  0  0999 V2000
   48.2620   32.3820   41.5140 C   0  0  0  0  0  0  0  0  0  0  0  0
   47.2790   31.3430   41.1510 C   0  0  0  0  0  0  0  0  0  0  0  0
   48.1060   30.4890   39.7950 S   0  0  0  0  0  0  0  0  0  0  0  0
   49.6180   31.6180   39.9010 C   0  0  0  0  0  0  0  0  0  0  0  0
   49.3380   32.3500   40.7860 N   0  0  0  0  0  0  0  0  0  0  0  0
   46.3040   30.9700   41.4350 H   0  0  0  0  0  0  0  0  0  0  0  0
   50.7690   31.3930   38.9460 C   0  0  0  0  0  0  0  0  0  0  0  0
   51.9990   30.9520   39.2470 C   0  0  0  0  0  0  0  0  0  0  0  0
   52.5730   30.9470   38.0230 N   0  0  0  0  0  0  0  0  0  0  0  0
   51.7040   31.3670   37.0840 C   0  0  0  0  0  0  0  0  0  0  0  0
   50.5250   31.6570   37.6900 N   0  0  0  0  0  0  0  0  0  0  0  0
   52.3770   30.6880   40.2050 H   0  0  0  0  0  0  0  0  0  0  0  0
   51.9700   31.4380   36.0250 H   0  0  0  0  0  0  0  0  0  0  0  0
   49.3860   32.1290   36.9780 C   0  0  0  0  0  0  0  0  0  0  0  0
   49.0870   33.4910   37.0680 C   0  0  0  0  0  0  0  0  0  0  0  0
   47.9700   33.6860   36.3110 N   0  0  0  0  0  0  0  0  0  0  0  0
   47.5870   32.5170   35.7750 C   0  0  0  0  0  0  0  0  0  0  0  0
   46.5610   32.1090   34.9490 C   0  0  0  0  0  0  0  0  0  0  0  0
   46.4050   30.7890   34.5420 C   0  0  0  0  0  0  0  0  0  0  0  0
   47.3240   29.8410   34.9880 C   0  0  0  0  0  0  0  0  0  0  0  0
   48.3840   30.1880   35.8250 C   0  0  0  0  0  0  0  0  0  0  0  0
   48.4500   31.5150   36.1700 C   0  0  0  0  0  0  0  0  0  0  0  0
   47.4720   34.6030   36.1590 H   0  0  0  0  0  0  0  0  0  0  0  0
   48.0870   33.2810   42.4910 O   0  0  0  0  0  0  0  0  0  0  0  0
   47.3960   33.1450   43.6700 C   0  0  0  0  0  0  0  0  0  0  0  0
   48.0120   32.0930   43.9480 O   0  0  0  0  0  0  0  0  0  0  0  0
   44.6850   35.3300   44.9490 C   0  0  0  0  0  0  0  0  0  0  0  0
   45.6170   34.8570   44.0350 C   0  0  0  0  0  0  0  0  0  0  0  0
   46.3940   33.7790   44.4430 C   0  0  0  0  0  0  0  0  0  0  0  0
   46.2160   33.2470   45.6800 N   0  0  0  0  0  0  0  0  0  0  0  0
   45.3250   33.7090   46.5390 C   0  0  0  0  0  0  0  0  0  0  0  0
   44.5780   34.7370   46.1620 N   0  0  0  0  0  0  0  0  0  0  0  0
   44.0510   36.1580   44.7060 H   0  0  0  0  0  0  0  0  0  0  0  0
   45.7830   35.4550   42.7060 C   0  0  0  0  0  0  0  0  0  0  0  0
   44.8340   36.4770   42.5950 F   0  0  0  0  0  0  0  0  0  0  0  0
   45.4120   34.5790   41.7150 F   0  0  0  0  0  0  0  0  0  0  0  0
   47.0300   35.9350   42.4850 F   0  0  0  0  0  0  0  0  0  0  0  0
   45.0980   33.2180   47.7990 O   0  0  0  0  0  0  0  0  0  0  0  0
   45.8440   32.1600   48.3540 C   0  0  0  0  0  0  0  0  0  0  0  0
   47.1920   32.4790   48.4560 F   0  0  0  0  0  0  0  0  0  0  0  0
   45.6220   30.9680   47.6970 F   0  0  0  0  0  0  0  0  0  0  0  0
   45.4280   32.0440   49.6930 F   0  0  0  0  0  0  0  0  0  0  0  0
  1 24  1  0  0  0  0
  2  6  1  0  0  0  0
  2  1  2  0  0  0  0
  3  4  1  0  0  0  0
  3  2  1  0  0  0  0
  4  5  2  0  0  0  0
  5  1  1  0  0  0  0
  7  8  2  0  0  0  0
  7  4  1  0  0  0  0
  8 12  1  0  0  0  0
  9  8  1  0  0  0  0
 10 11  1  0  0  0  0
 10  9  2  0  0  0  0
 11  7  1  0  0  0  0
 13 10  1  0  0  0  0
 14 15  2  0  0  0  0
 14 11  1  0  0  0  0
 16 15  1  0  0  0  0
 17 22  1  0  0  0  0
 17 16  1  0  0  0  0
 18 17  2  0  0  0  0
 19 18  1  0  0  0  0
 19 20  2  0  0  0  0
 20 21  1  0  0  0  0
 21 22  2  0  0  0  0
 22 14  1  0  0  0  0
 23 16  1  0  0  0  0
 24 25  1  0  0  0  0
 25 26  2  0  0  0  0
 25 29  1  0  0  0  0
 27 32  1  0  0  0  0
 28 29  1  0  0  0  0
 28 27  2  0  0  0  0
 29 30  2  0  0  0  0
 30 31  1  0  0  0  0
 31 38  1  0  0  0  0
 32 31  2  0  0  0  0
 33 27  1  0  0  0  0
 34 28  1  0  0  0  0
 35 34  1  0  0  0  0
 36 34  1  0  0  0  0
 37 34  1  0  0  0  0
 38 39  1  0  0  0  0
 39 40  1  0  0  0  0
 39 42  1  0  0  0  0
 41 39  1  0  0  0  0
M  END
>  <minimizedAffinity>
-6.53483868

>  <minimizedRMSD>
1.7761755

$$$$
