
 OpenBabel03232521013D

 45 49  0  0  1  0  0  0  0  0999 V2000
   45.4420   32.9260   47.5130 C   0  0  0  0  0  0  0  0  0  0  0  0
   45.9320   32.6570   46.2760 C   0  0  0  0  0  0  0  0  0  0  0  0
   46.1300   31.2930   46.0200 C   0  0  0  0  0  0  0  0  0  0  0  0
   45.8610   30.3080   46.9120 N   0  0  0  0  0  0  0  0  0  0  0  0
   45.3610   30.6410   48.1600 C   0  0  0  0  0  0  0  0  0  0  0  0
   45.1650   31.9390   48.4310 N   0  0  0  0  0  0  0  0  0  0  0  0
   45.0780   29.6350   49.1140 N   0  0  0  0  0  0  0  0  0  0  0  0
   45.2550   33.9170   47.8220 H   0  0  0  0  0  0  0  0  0  0  0  0
   44.2470   29.8260   49.7510 H   0  0  0  0  0  0  0  0  0  0  0  0
   45.6410   28.7600   49.1950 H   0  0  0  0  0  0  0  0  0  0  0  0
   46.1650   33.6020   45.2370 C   0  0  2  0  0  0  0  0  0  0  0  0
   44.9550   34.6970   45.4780 C   0  0  0  0  0  0  0  0  0  0  0  0
   44.7150   35.6250   44.4080 C   0  0  0  0  0  0  0  0  0  0  0  0
   45.5050   35.5420   43.1720 C   0  0  1  0  0  0  0  0  0  0  0  0
   46.5480   34.5280   43.1100 C   0  0  0  0  0  0  0  0  0  0  0  0
   46.0990   33.3080   43.8760 C   0  0  0  0  0  0  0  0  0  0  0  0
   46.9440   34.3530   45.5600 H   0  0  0  0  0  0  0  0  0  0  0  0
   44.2960   34.8340   46.3280 H   0  0  0  0  0  0  0  0  0  0  0  0
   43.9320   36.3580   44.5340 H   0  0  0  0  0  0  0  0  0  0  0  0
   45.9360   36.5440   42.9680 H   0  0  0  0  0  0  0  0  0  0  0  0
   46.7390   34.2910   42.0220 H   0  0  0  0  0  0  0  0  0  0  0  0
   47.5380   34.8280   43.5000 H   0  0  0  0  0  0  0  0  0  0  0  0
   46.9330   32.6420   43.5290 H   0  0  0  0  0  0  0  0  0  0  0  0
   45.1180   32.9460   43.4830 H   0  0  0  0  0  0  0  0  0  0  0  0
   44.4690   35.2870   42.0370 C   0  0  0  0  0  0  0  0  0  0  0  0
   43.4160   34.4830   42.4460 F   0  0  0  0  0  0  0  0  0  0  0  0
   43.9220   36.5260   41.7140 F   0  0  0  0  0  0  0  0  0  0  0  0
   45.1220   34.8240   40.9120 F   0  0  0  0  0  0  0  0  0  0  0  0
   46.6980   30.5820   44.8880 C   0  0  0  0  0  0  0  0  0  0  0  0
   46.2830   29.8240   43.8400 C   0  0  0  0  0  0  0  0  0  0  0  0
   47.4320   29.4120   43.1320 C   0  0  0  0  0  0  0  0  0  0  0  0
   48.4650   29.9390   43.7840 N   0  0  0  0  0  0  0  0  0  0  0  0
   48.0700   30.6320   44.8230 N   0  0  0  0  0  0  0  0  0  0  0  0
   45.2300   29.6730   43.7270 H   0  0  0  0  0  0  0  0  0  0  0  0
   47.3360   28.7980   42.2610 H   0  0  0  0  0  0  0  0  0  0  0  0
   49.8360   29.7430   43.3610 C   0  0  0  0  0  0  0  0  0  0  0  0
   50.7020   28.8420   43.9950 C   0  0  0  0  0  3  0  0  0  0  0  0
   51.8970   28.8910   43.3710 N   0  0  0  0  0  0  0  0  0  0  0  0
   51.8290   29.7860   42.3640 C   0  0  0  0  0  0  0  0  0  0  0  0
   52.7810   30.1890   41.4460 C   0  0  0  0  0  3  0  0  0  0  0  0
   52.3760   31.1410   40.5320 C   0  0  0  0  0  3  0  0  0  0  0  0
   51.1050   31.6870   40.5020 C   0  0  0  0  0  3  0  0  0  0  0  0
   50.1700   31.2720   41.4270 C   0  0  0  0  0  3  0  0  0  0  0  0
   50.5430   30.3340   42.3390 C   0  0  0  0  0  0  0  0  0  0  0  0
   52.7090   28.2980   43.6740 H   0  0  0  0  0  0  0  0  0  0  0  0
  1  8  1  0  0  0  0
  1  6  1  0  0  0  0
  2  1  2  0  0  0  0
  3  2  1  0  0  0  0
  3  4  2  0  0  0  0
  4  5  1  0  0  0  0
  5  6  2  0  0  0  0
  5  7  1  0  0  0  0
  7 10  1  0  0  0  0
  7  9  1  0  0  0  0
 11 12  1  0  0  0  0
 11 17  1  1  0  0  0
 11  2  1  0  0  0  0
 12 18  1  0  0  0  0
 13 19  1  0  0  0  0
 13 12  2  0  0  0  0
 14 20  1  6  0  0  0
 14 13  1  0  0  0  0
 15 14  1  0  0  0  0
 15 22  1  0  0  0  0
 15 16  1  0  0  0  0
 16 11  1  0  0  0  0
 21 15  1  0  0  0  0
 23 16  1  0  0  0  0
 24 16  1  0  0  0  0
 25 26  1  0  0  0  0
 25 14  1  0  0  0  0
 27 25  1  0  0  0  0
 28 25  1  0  0  0  0
 29  3  1  0  0  0  0
 30 29  1  0  0  0  0
 31 32  1  0  0  0  0
 31 30  2  0  0  0  0
 32 33  1  0  0  0  0
 33 29  2  0  0  0  0
 34 30  1  0  0  0  0
 35 31  1  0  0  0  0
 36 32  1  0  0  0  0
 36 37  2  0  0  0  0
 38 45  1  0  0  0  0
 38 37  1  0  0  0  0
 39 38  1  0  0  0  0
 40 39  2  0  0  0  0
 41 40  1  0  0  0  0
 42 41  2  0  0  0  0
 42 43  1  0  0  0  0
 43 44  2  0  0  0  0
 44 39  1  0  0  0  0
 44 36  1  0  0  0  0
M  END
>  <minimizedAffinity>
-6.29263926

>  <minimizedRMSD>
1.12050736

$$$$
