
 OpenBabel03232520573D

 33 35  0  0  1  0  0  0  0  0999 V2000
   46.1110   33.4950   45.1350 C   0  0  2  0  0  0  0  0  0  0  0  0
   45.0580   34.6570   45.4160 C   0  0  0  0  0  0  0  0  0  0  0  0
   44.8100   35.5830   44.3430 C   0  0  0  0  0  0  0  0  0  0  0  0
   45.4980   35.4470   43.0660 C   0  0  1  0  0  0  0  0  0  0  0  0
   46.4910   34.3430   42.9500 C   0  0  0  0  0  0  0  0  0  0  0  0
   45.9630   33.1620   43.7530 C   0  0  0  0  0  0  0  0  0  0  0  0
   47.0050   34.1230   45.3830 H   0  0  0  0  0  0  0  0  0  0  0  0
   44.4420   34.9360   46.2630 H   0  0  0  0  0  0  0  0  0  0  0  0
   44.1210   36.3810   44.4610 H   0  0  0  0  0  0  0  0  0  0  0  0
   45.9670   36.4170   42.8040 H   0  0  0  0  0  0  0  0  0  0  0  0
   46.5410   34.0480   41.8850 H   0  0  0  0  0  0  0  0  0  0  0  0
   47.5010   34.6640   43.2610 H   0  0  0  0  0  0  0  0  0  0  0  0
   46.1780   32.2950   43.2200 H   0  0  0  0  0  0  0  0  0  0  0  0
   44.8000   33.2560   43.5490 H   0  0  0  0  0  0  0  0  0  0  0  0
   45.4610   32.8060   47.4380 C   0  0  0  0  0  0  0  0  0  0  0  0
   45.9000   32.5190   46.1610 C   0  0  0  0  0  0  0  0  0  0  0  0
   46.0320   31.1790   45.9030 C   0  0  0  0  0  0  0  0  0  0  0  0
   45.7430   30.2400   46.8240 N   0  0  0  0  0  0  0  0  0  0  0  0
   45.3140   30.5560   48.0670 C   0  0  0  0  0  0  0  0  0  0  0  0
   45.1760   31.8410   48.3680 N   0  0  0  0  0  0  0  0  0  0  0  0
   45.0760   29.5230   49.0240 N   0  0  0  0  0  0  0  0  0  0  0  0
   45.3310   33.8260   47.7490 H   0  0  0  0  0  0  0  0  0  0  0  0
   44.1940   29.4290   49.5690 H   0  0  0  0  0  0  0  0  0  0  0  0
   45.8470   28.8280   49.1740 H   0  0  0  0  0  0  0  0  0  0  0  0
   46.8070   30.5640   44.7460 C   0  0  0  0  0  0  0  0  0  0  0  0
   46.0050   29.7420   43.7950 C   0  0  0  0  0  3  0  0  0  0  0  0
   46.7590   29.2770   42.7680 C   0  0  0  0  0  3  0  0  0  0  0  0
   48.1060   29.5050   42.5750 C   0  0  0  0  0  3  0  0  0  0  0  0
   48.3880   30.5670   44.1110 S   0  0  0  0  0  0  0  0  0  0  0  0
   44.4120   35.2330   41.9810 C   0  0  0  0  0  0  0  0  0  0  0  0
   43.3550   34.4690   42.4190 F   0  0  0  0  0  0  0  0  0  0  0  0
   43.8960   36.4940   41.6920 F   0  0  0  0  0  0  0  0  0  0  0  0
   44.9890   34.7510   40.8190 F   0  0  0  0  0  0  0  0  0  0  0  0
  1  7  1  1  0  0  0
  1  2  1  0  0  0  0
  1 16  1  0  0  0  0
  2  8  1  0  0  0  0
  3  9  1  0  0  0  0
  3  2  2  0  0  0  0
  4 10  1  6  0  0  0
  4  3  1  0  0  0  0
  5  4  1  0  0  0  0
  5 12  1  0  0  0  0
  5  6  1  0  0  0  0
  6  1  1  0  0  0  0
 11  5  1  0  0  0  0
 13  6  1  0  0  0  0
 14  6  1  0  0  0  0
 15 22  1  0  0  0  0
 15 20  1  0  0  0  0
 16 15  2  0  0  0  0
 17 16  1  0  0  0  0
 17 18  2  0  0  0  0
 18 19  1  0  0  0  0
 19 20  2  0  0  0  0
 19 21  1  0  0  0  0
 21 24  1  0  0  0  0
 21 23  1  0  0  0  0
 25 17  1  0  0  0  0
 26 25  2  0  0  0  0
 27 26  1  0  0  0  0
 28 27  2  0  0  0  0
 28 29  1  0  0  0  0
 29 25  1  0  0  0  0
 30 31  1  0  0  0  0
 30  4  1  0  0  0  0
 32 30  1  0  0  0  0
 33 30  1  0  0  0  0
M  END
>  <minimizedAffinity>
-5.35743952

>  <minimizedRMSD>
0.713471532

$$$$
