
 OpenBabel03232520333D

 46 50  0  0  1  0  0  0  0  0999 V2000
   46.8140   34.5110   41.3650 C   0  0  0  0  0  0  0  0  0  0  0  0
   48.1100   34.8660   40.9830 C   0  0  0  0  0  0  0  0  0  0  0  0
   48.3410   34.5190   39.7390 N   0  0  0  0  0  0  0  0  0  0  0  0
   47.2290   33.9360   39.2690 C   0  0  0  0  0  0  0  0  0  0  0  0
   46.9430   33.3890   38.0130 C   0  0  0  0  0  0  0  0  0  0  0  0
   45.7080   32.8490   37.8010 C   0  0  0  0  0  0  0  0  0  0  0  0
   44.6920   32.7940   38.7430 C   0  0  0  0  0  0  0  0  0  0  0  0
   45.0350   33.3490   39.9610 C   0  0  0  0  0  0  0  0  0  0  0  0
   46.2530   33.9140   40.2630 C   0  0  0  0  0  0  0  0  0  0  0  0
   49.2070   34.6420   39.1530 H   0  0  0  0  0  0  0  0  0  0  0  0
   47.6900   33.3990   37.2320 H   0  0  0  0  0  0  0  0  0  0  0  0
   45.5290   32.4380   36.8180 H   0  0  0  0  0  0  0  0  0  0  0  0
   43.7270   32.3670   38.5620 H   0  0  0  0  0  0  0  0  0  0  0  0
   44.3350   33.3730   40.7890 H   0  0  0  0  0  0  0  0  0  0  0  0
   44.7430   36.0380   44.0600 C   0  0  0  0  0  0  0  0  0  0  0  0
   45.3690   35.8550   42.8100 C   0  0  0  0  0  0  0  0  0  0  0  0
   46.1620   34.7120   42.6480 C   0  0  0  0  0  0  0  0  0  0  0  0
   46.3000   33.8320   43.6800 N   0  0  0  0  0  0  0  0  0  0  0  0
   45.6710   34.0620   44.8670 C   0  0  0  0  0  0  0  0  0  0  0  0
   44.8960   35.1570   45.0590 N   0  0  0  0  0  0  0  0  0  0  0  0
   44.1510   36.9560   44.0790 H   0  0  0  0  0  0  0  0  0  0  0  0
   45.2790   36.5270   41.9840 H   0  0  0  0  0  0  0  0  0  0  0  0
   45.7570   33.3850   45.7080 H   0  0  0  0  0  0  0  0  0  0  0  0
   49.0650   35.5490   41.9060 C   0  0  0  0  0  0  0  0  0  0  0  0
   49.6620   36.2580   41.2890 H   0  0  0  0  0  0  0  0  0  0  0  0
   48.4980   36.1600   42.6390 H   0  0  0  0  0  0  0  0  0  0  0  0
   49.9770   34.5800   42.5780 C   0  0  0  0  0  0  0  0  0  0  0  0
   51.0070   35.0350   42.5950 H   0  0  0  0  0  0  0  0  0  0  0  0
   49.6890   34.4530   43.6360 H   0  0  0  0  0  0  0  0  0  0  0  0
   50.0950   33.2530   41.8840 C   0  0  1  0  0  0  0  0  0  0  0  0
   51.0810   32.2420   42.2480 C   0  0  0  0  0  0  0  0  0  0  0  0
   49.6990   32.0400   42.7790 C   0  0  2  0  0  0  0  0  0  0  0  0
   49.7060   33.1840   40.8400 H   0  0  0  0  0  0  0  0  0  0  0  0
   51.4600   31.5440   41.4870 H   0  0  0  0  0  0  0  0  0  0  0  0
   51.8910   32.5900   42.9290 H   0  0  0  0  0  0  0  0  0  0  0  0
   49.6000   32.2460   43.8580 H   0  0  0  0  0  0  0  0  0  0  0  0
   48.9720   31.0460   42.2010 O   0  0  0  0  0  0  0  0  0  0  0  0
   47.6880   30.7480   42.5420 C   0  0  0  0  0  0  0  0  0  0  0  0
   46.5690   30.6140   41.7350 C   0  0  0  0  0  0  0  0  0  0  0  0
   46.7680   30.7720   40.6890 H   0  0  0  0  0  0  0  0  0  0  0  0
   45.3310   30.3090   42.2190 C   0  0  0  0  0  0  0  0  0  0  0  0
   45.1830   30.1250   43.5830 C   0  0  0  0  0  0  0  0  0  0  0  0
   44.2190   29.8840   43.9990 H   0  0  0  0  0  0  0  0  0  0  0  0
   46.2670   30.2480   44.4350 C   0  0  0  0  0  0  0  0  0  0  0  0
   46.1090   30.0950   45.5030 H   0  0  0  0  0  0  0  0  0  0  0  0
   47.5090   30.5590   43.9060 C   0  0  0  0  0  0  0  0  0  0  0  0
  1 17  1  0  0  0  0
  2  1  2  0  0  0  0
  2 24  1  0  0  0  0
  3  2  1  0  0  0  0
  4  3  1  0  0  0  0
  4  9  1  0  0  0  0
  5  4  2  0  0  0  0
  6  5  1  0  0  0  0
  6  7  2  0  0  0  0
  7  8  1  0  0  0  0
  8  9  2  0  0  0  0
  8 14  1  0  0  0  0
  9  1  1  0  0  0  0
 10  3  1  0  0  0  0
 11  5  1  0  0  0  0
 12  6  1  0  0  0  0
 13  7  1  0  0  0  0
 15 21  1  0  0  0  0
 15 20  1  0  0  0  0
 16 15  2  0  0  0  0
 17 16  1  0  0  0  0
 17 18  2  0  0  0  0
 18 19  1  0  0  0  0
 19 20  2  0  0  0  0
 19 23  1  0  0  0  0
 22 16  1  0  0  0  0
 24 27  1  0  0  0  0
 24 26  1  0  0  0  0
 25 24  1  0  0  0  0
 27 28  1  0  0  0  0
 27 29  1  0  0  0  0
 30 33  1  6  0  0  0
 30 31  1  0  0  0  0
 30 27  1  0  0  0  0
 30 32  1  0  0  0  0
 31 32  1  0  0  0  0
 31 35  1  0  0  0  0
 32 36  1  1  0  0  0
 34 31  1  0  0  0  0
 37 38  1  0  0  0  0
 37 32  1  0  0  0  0
 38 46  1  0  0  0  0
 39 41  1  0  0  0  0
 39 38  2  0  0  0  0
 40 39  1  0  0  0  0
 41 42  2  0  0  0  0
 42 43  1  0  0  0  0
 42 44  1  0  0  0  0
 44 45  1  0  0  0  0
 46 44  2  0  0  0  0
M  END
>  <minimizedAffinity>
-5.54557228

>  <minimizedRMSD>
0.645356536

$$$$
