
 OpenBabel03232520573D

 35 37  0  0  1  0  0  0  0  0999 V2000
   46.1160   33.6030   45.3300 C   0  0  2  0  0  0  0  0  0  0  0  0
   44.9730   34.6880   45.5280 C   0  0  0  0  0  0  0  0  0  0  0  0
   44.7430   35.5960   44.4340 C   0  0  0  0  0  0  0  0  0  0  0  0
   45.5150   35.5090   43.2130 C   0  0  1  0  0  0  0  0  0  0  0  0
   46.6120   34.5120   43.1930 C   0  0  0  0  0  0  0  0  0  0  0  0
   46.1290   33.2790   43.9410 C   0  0  0  0  0  0  0  0  0  0  0  0
   46.9500   34.2980   45.6540 H   0  0  0  0  0  0  0  0  0  0  0  0
   44.2790   34.9350   46.3230 H   0  0  0  0  0  0  0  0  0  0  0  0
   44.0040   36.3490   44.4780 H   0  0  0  0  0  0  0  0  0  0  0  0
   45.9500   36.5030   42.9800 H   0  0  0  0  0  0  0  0  0  0  0  0
   47.5460   34.8700   43.6650 H   0  0  0  0  0  0  0  0  0  0  0  0
   46.8590   34.2420   42.1470 H   0  0  0  0  0  0  0  0  0  0  0  0
   45.0220   33.2030   43.6040 H   0  0  0  0  0  0  0  0  0  0  0  0
   46.5900   32.4780   43.4430 H   0  0  0  0  0  0  0  0  0  0  0  0
   45.3310   32.8830   47.5650 C   0  0  0  0  0  0  0  0  0  0  0  0
   45.8900   32.6250   46.3450 C   0  0  0  0  0  0  0  0  0  0  0  0
   46.1920   31.2850   46.1000 C   0  0  0  0  0  0  0  0  0  0  0  0
   45.9480   30.3130   46.9990 N   0  0  0  0  0  0  0  0  0  0  0  0
   45.3860   30.6120   48.2180 C   0  0  0  0  0  0  0  0  0  0  0  0
   45.0900   31.8810   48.4780 N   0  0  0  0  0  0  0  0  0  0  0  0
   45.1540   29.5930   49.1840 N   0  0  0  0  0  0  0  0  0  0  0  0
   45.0630   33.8610   47.8620 H   0  0  0  0  0  0  0  0  0  0  0  0
   46.0670   29.1640   49.4720 H   0  0  0  0  0  0  0  0  0  0  0  0
   44.2220   29.3140   49.5490 H   0  0  0  0  0  0  0  0  0  0  0  0
   46.8340   30.6150   44.9790 C   0  0  0  0  0  0  0  0  0  0  0  0
   46.1080   29.8090   44.1140 C   0  0  0  0  0  3  0  0  0  0  0  0
   46.6060   29.0640   43.0650 C   0  0  0  0  0  3  0  0  0  0  0  0
   47.9350   29.1430   42.8820 N   0  0  0  0  0  0  0  0  0  0  0  0
   48.6830   29.9080   43.6910 C   0  0  0  0  0  0  0  0  0  0  0  0
   49.7740   30.0060   43.5820 H   0  0  0  0  0  0  0  0  0  0  0  0
   48.1570   30.6170   44.7000 N   0  0  0  0  0  0  0  0  0  0  0  0
   44.5290   35.2120   42.0560 C   0  0  0  0  0  0  0  0  0  0  0  0
   43.5070   34.3710   42.4270 F   0  0  0  0  0  0  0  0  0  0  0  0
   43.9460   36.4320   41.7250 F   0  0  0  0  0  0  0  0  0  0  0  0
   45.2340   34.7840   40.9390 F   0  0  0  0  0  0  0  0  0  0  0  0
  1  2  1  0  0  0  0
  1  7  1  1  0  0  0
  1 16  1  0  0  0  0
  2  8  1  0  0  0  0
  3  9  1  0  0  0  0
  3  2  2  0  0  0  0
  4 10  1  6  0  0  0
  4  3  1  0  0  0  0
  5  4  1  0  0  0  0
  5 11  1  0  0  0  0
  5  6  1  0  0  0  0
  6  1  1  0  0  0  0
 12  5  1  0  0  0  0
 13  6  1  0  0  0  0
 14  6  1  0  0  0  0
 15 22  1  0  0  0  0
 15 20  1  0  0  0  0
 16 15  2  0  0  0  0
 17 16  1  0  0  0  0
 17 18  2  0  0  0  0
 18 19  1  0  0  0  0
 19 20  2  0  0  0  0
 19 21  1  0  0  0  0
 21 23  1  0  0  0  0
 21 24  1  0  0  0  0
 25 17  1  0  0  0  0
 26 25  2  0  0  0  0
 27 26  1  0  0  0  0
 28 27  2  0  0  0  0
 28 29  1  0  0  0  0
 29 31  2  0  0  0  0
 30 29  1  0  0  0  0
 31 25  1  0  0  0  0
 32 33  1  0  0  0  0
 32  4  1  0  0  0  0
 34 32  1  0  0  0  0
 35 32  1  0  0  0  0
M  END
>  <minimizedAffinity>
-5.64448071

>  <minimizedRMSD>
0.155644268

$$$$
