
 OpenBabel03232520203D

 39 42  0  0  0  0  0  0  0  0999 V2000
   47.5660   34.1480   42.1760 C   0  0  0  0  0  0  0  0  0  0  0  0
   48.4250   35.2920   41.6950 C   0  0  0  0  0  0  0  0  0  0  0  0
   49.7600   35.3820   42.3030 C   0  0  0  0  0  0  0  0  0  0  0  0
   50.4750   34.0720   42.4630 C   0  0  0  0  0  0  0  0  0  0  0  0
   49.6200   32.8700   42.1590 C   0  0  0  0  0  0  0  0  0  0  0  0
   48.3000   33.0610   42.8830 C   0  0  0  0  0  0  0  0  0  0  0  0
   47.8830   36.2570   41.8980 H   0  0  0  0  0  0  0  0  0  0  0  0
   48.5330   35.2730   40.5830 H   0  0  0  0  0  0  0  0  0  0  0  0
   50.3770   36.0590   41.7070 H   0  0  0  0  0  0  0  0  0  0  0  0
   49.6880   35.8530   43.3160 H   0  0  0  0  0  0  0  0  0  0  0  0
   50.8720   33.9310   43.4910 H   0  0  0  0  0  0  0  0  0  0  0  0
   51.3540   34.0290   41.7880 H   0  0  0  0  0  0  0  0  0  0  0  0
   50.1040   31.9840   42.6050 H   0  0  0  0  0  0  0  0  0  0  0  0
   49.4850   32.7040   41.0780 H   0  0  0  0  0  0  0  0  0  0  0  0
   48.5790   33.3430   43.9310 H   0  0  0  0  0  0  0  0  0  0  0  0
   47.6970   32.1450   42.8380 H   0  0  0  0  0  0  0  0  0  0  0  0
   45.2370   34.4670   45.0490 C   0  0  0  0  0  0  0  0  0  0  0  0
   44.5270   35.6370   44.7470 C   0  0  0  0  0  0  0  0  0  0  0  0
   44.8480   36.3030   43.5810 C   0  0  0  0  0  0  0  0  0  0  0  0
   45.8270   35.7880   42.7960 N   0  0  0  0  0  0  0  0  0  0  0  0
   46.5050   34.6520   43.1050 C   0  0  0  0  0  0  0  0  0  0  0  0
   46.1880   34.0010   44.2500 N   0  0  0  0  0  0  0  0  0  0  0  0
   44.9310   34.0020   45.9780 H   0  0  0  0  0  0  0  0  0  0  0  0
   43.7560   36.0760   45.3290 H   0  0  0  0  0  0  0  0  0  0  0  0
   44.4160   37.2130   43.1790 H   0  0  0  0  0  0  0  0  0  0  0  0
   46.9030   33.5250   40.9680 C   0  0  0  0  0  0  0  0  0  0  0  0
   45.7770   32.7880   40.6850 C   0  0  0  0  0  0  0  0  0  0  0  0
   45.5580   32.4260   39.4170 C   0  0  0  0  0  0  0  0  0  0  0  0
   46.4030   32.7650   38.4320 C   0  0  0  0  0  0  0  0  0  0  0  0
   47.7010   33.7230   39.3550 S   0  0  0  0  0  0  0  0  0  0  0  0
   45.1550   32.5600   41.5380 H   0  0  0  0  0  0  0  0  0  0  0  0
   44.6970   31.8450   39.1090 H   0  0  0  0  0  0  0  0  0  0  0  0
   46.4820   32.5540   36.9750 C   0  0  0  0  0  0  0  0  0  0  0  0
   47.7550   32.4790   36.4680 C   0  0  0  0  0  0  0  0  0  0  0  0
   47.7850   32.2780   35.0830 C   0  0  0  0  0  0  0  0  0  0  0  0
   46.6890   32.1680   34.3320 N   0  0  0  0  0  0  0  0  0  0  0  0
   45.4640   32.2490   34.8820 C   0  0  0  0  0  0  0  0  0  0  0  0
   44.4760   32.1850   34.4440 H   0  0  0  0  0  0  0  0  0  0  0  0
   45.3870   32.4460   36.2350 N   0  0  0  0  0  0  0  0  0  0  0  0
  1  6  1  0  0  0  0
  1 21  1  0  0  0  0
  2  7  1  0  0  0  0
  2  1  1  0  0  0  0
  2  3  1  0  0  0  0
  3  4  1  0  0  0  0
  3 10  1  0  0  0  0
  4 11  1  0  0  0  0
  5  4  1  0  0  0  0
  5 13  1  0  0  0  0
  5  6  1  0  0  0  0
  6 15  1  0  0  0  0
  8  2  1  0  0  0  0
  9  3  1  0  0  0  0
 12  4  1  0  0  0  0
 14  5  1  0  0  0  0
 16  6  1  0  0  0  0
 17 23  1  0  0  0  0
 18 17  1  0  0  0  0
 18 24  1  0  0  0  0
 19 18  2  0  0  0  0
 20 21  2  0  0  0  0
 20 19  1  0  0  0  0
 21 22  1  0  0  0  0
 22 17  2  0  0  0  0
 25 19  1  0  0  0  0
 26  1  1  0  0  0  0
 27 26  2  0  0  0  0
 27 31  1  0  0  0  0
 28 27  1  0  0  0  0
 29 30  1  0  0  0  0
 29 28  2  0  0  0  0
 30 26  1  0  0  0  0
 32 28  1  0  0  0  0
 33 29  1  0  0  0  0
 34 33  1  0  0  0  0
 35 34  2  0  0  0  0
 36 37  2  0  0  0  0
 36 35  1  0  0  0  0
 37 39  1  0  0  0  0
 38 37  1  0  0  0  0
 39 33  2  0  0  0  0
M  END
>  <minimizedAffinity>
-6.11442566

>  <minimizedRMSD>
0.390441418

$$$$
