
 OpenBabel03232520573D

 35 37  0  0  1  0  0  0  0  0999 V2000
   46.0770   33.6150   45.2700 C   0  0  2  0  0  0  0  0  0  0  0  0
   44.9660   34.7270   45.4960 C   0  0  0  0  0  0  0  0  0  0  0  0
   44.7340   35.6440   44.4100 C   0  0  0  0  0  0  0  0  0  0  0  0
   45.4760   35.5410   43.1710 C   0  0  1  0  0  0  0  0  0  0  0  0
   46.5470   34.5170   43.1240 C   0  0  0  0  0  0  0  0  0  0  0  0
   46.0510   33.2950   43.8800 C   0  0  0  0  0  0  0  0  0  0  0  0
   46.9350   34.2880   45.5770 H   0  0  0  0  0  0  0  0  0  0  0  0
   44.2960   34.9890   46.3070 H   0  0  0  0  0  0  0  0  0  0  0  0
   44.0150   36.4150   44.4710 H   0  0  0  0  0  0  0  0  0  0  0  0
   45.9310   36.5250   42.9310 H   0  0  0  0  0  0  0  0  0  0  0  0
   47.5010   34.8510   43.5770 H   0  0  0  0  0  0  0  0  0  0  0  0
   46.7650   34.2440   42.0730 H   0  0  0  0  0  0  0  0  0  0  0  0
   44.9350   33.2470   43.5680 H   0  0  0  0  0  0  0  0  0  0  0  0
   46.4800   32.4840   43.3700 H   0  0  0  0  0  0  0  0  0  0  0  0
   45.3350   32.9100   47.5240 C   0  0  0  0  0  0  0  0  0  0  0  0
   45.8490   32.6400   46.2880 C   0  0  0  0  0  0  0  0  0  0  0  0
   46.1010   31.2920   46.0290 C   0  0  0  0  0  0  0  0  0  0  0  0
   45.8530   30.3250   46.9310 N   0  0  0  0  0  0  0  0  0  0  0  0
   45.3360   30.6360   48.1670 C   0  0  0  0  0  0  0  0  0  0  0  0
   45.0880   31.9120   48.4410 N   0  0  0  0  0  0  0  0  0  0  0  0
   45.1000   29.6200   49.1360 N   0  0  0  0  0  0  0  0  0  0  0  0
   45.1070   33.8950   47.8330 H   0  0  0  0  0  0  0  0  0  0  0  0
   46.0070   29.1600   49.3950 H   0  0  0  0  0  0  0  0  0  0  0  0
   44.1700   29.3690   49.5270 H   0  0  0  0  0  0  0  0  0  0  0  0
   46.6890   30.6070   44.8870 C   0  0  0  0  0  0  0  0  0  0  0  0
   48.0630   30.5590   44.7090 C   0  0  0  0  0  3  0  0  0  0  0  0
   48.7400   30.0100   43.6390 C   0  0  0  0  0  3  0  0  0  0  0  0
   47.9650   29.4720   42.6830 N   0  0  0  0  0  0  0  0  0  0  0  0
   46.6290   29.4920   42.8060 C   0  0  0  0  0  0  0  0  0  0  0  0
   45.9520   29.0640   42.0510 H   0  0  0  0  0  0  0  0  0  0  0  0
   46.0130   30.0370   43.8650 N   0  0  0  0  0  0  0  0  0  0  0  0
   44.4580   35.2720   42.0360 C   0  0  0  0  0  0  0  0  0  0  0  0
   43.4100   34.4770   42.4350 F   0  0  0  0  0  0  0  0  0  0  0  0
   43.9180   36.5110   41.7020 F   0  0  0  0  0  0  0  0  0  0  0  0
   45.1240   34.8050   40.9110 F   0  0  0  0  0  0  0  0  0  0  0  0
  1  2  1  0  0  0  0
  1  7  1  1  0  0  0
  1 16  1  0  0  0  0
  2  8  1  0  0  0  0
  3  9  1  0  0  0  0
  3  2  2  0  0  0  0
  4 10  1  6  0  0  0
  4  3  1  0  0  0  0
  5  4  1  0  0  0  0
  5 11  1  0  0  0  0
  5  6  1  0  0  0  0
  6  1  1  0  0  0  0
 12  5  1  0  0  0  0
 13  6  1  0  0  0  0
 14  6  1  0  0  0  0
 15 22  1  0  0  0  0
 15 20  1  0  0  0  0
 16 15  2  0  0  0  0
 17 16  1  0  0  0  0
 17 18  2  0  0  0  0
 18 19  1  0  0  0  0
 19 20  2  0  0  0  0
 19 21  1  0  0  0  0
 21 23  1  0  0  0  0
 21 24  1  0  0  0  0
 25 17  1  0  0  0  0
 26 25  1  0  0  0  0
 27 26  2  0  0  0  0
 28 29  2  0  0  0  0
 28 27  1  0  0  0  0
 29 31  1  0  0  0  0
 30 29  1  0  0  0  0
 31 25  2  0  0  0  0
 32 33  1  0  0  0  0
 32  4  1  0  0  0  0
 34 32  1  0  0  0  0
 35 32  1  0  0  0  0
M  END
>  <minimizedAffinity>
-5.63655376

>  <minimizedRMSD>
0.330289453

$$$$
