
 OpenBabel03232521013D

 45 49  0  0  1  0  0  0  0  0999 V2000
   45.3400   32.9510   47.4990 C   0  0  0  0  0  0  0  0  0  0  0  0
   45.8870   32.6650   46.2900 C   0  0  0  0  0  0  0  0  0  0  0  0
   46.1470   31.3060   46.0740 C   0  0  0  0  0  0  0  0  0  0  0  0
   45.8790   30.3340   46.9820 N   0  0  0  0  0  0  0  0  0  0  0  0
   45.3200   30.6750   48.2030 C   0  0  0  0  0  0  0  0  0  0  0  0
   45.0640   31.9670   48.4320 N   0  0  0  0  0  0  0  0  0  0  0  0
   45.0360   29.6860   49.1690 N   0  0  0  0  0  0  0  0  0  0  0  0
   45.1040   33.9690   47.7690 H   0  0  0  0  0  0  0  0  0  0  0  0
   45.5660   29.5730   50.0790 H   0  0  0  0  0  0  0  0  0  0  0  0
   44.2490   29.0380   48.9470 H   0  0  0  0  0  0  0  0  0  0  0  0
   46.1330   33.5930   45.2370 C   0  0  2  0  0  0  0  0  0  0  0  0
   44.9530   34.7170   45.4760 C   0  0  0  0  0  0  0  0  0  0  0  0
   44.7210   35.6340   44.3950 C   0  0  0  0  0  0  0  0  0  0  0  0
   45.4960   35.5210   43.1530 C   0  0  1  0  0  0  0  0  0  0  0  0
   46.5240   34.4890   43.0990 C   0  0  0  0  0  0  0  0  0  0  0  0
   46.0580   33.2830   43.8810 C   0  0  0  0  0  0  0  0  0  0  0  0
   46.9530   34.3080   45.5370 H   0  0  0  0  0  0  0  0  0  0  0  0
   44.2980   34.8960   46.3210 H   0  0  0  0  0  0  0  0  0  0  0  0
   43.9720   36.3740   44.5090 H   0  0  0  0  0  0  0  0  0  0  0  0
   45.9490   36.5100   42.9200 H   0  0  0  0  0  0  0  0  0  0  0  0
   46.7410   34.2520   42.0190 H   0  0  0  0  0  0  0  0  0  0  0  0
   47.5000   34.8210   43.5120 H   0  0  0  0  0  0  0  0  0  0  0  0
   46.8800   32.6020   43.5360 H   0  0  0  0  0  0  0  0  0  0  0  0
   45.0940   32.9440   43.4500 H   0  0  0  0  0  0  0  0  0  0  0  0
   44.4450   35.2650   42.0320 C   0  0  0  0  0  0  0  0  0  0  0  0
   43.3990   34.4620   42.4510 F   0  0  0  0  0  0  0  0  0  0  0  0
   43.8940   36.5050   41.7200 F   0  0  0  0  0  0  0  0  0  0  0  0
   45.0860   34.8090   40.8940 F   0  0  0  0  0  0  0  0  0  0  0  0
   46.7780   30.5880   44.9840 C   0  0  0  0  0  0  0  0  0  0  0  0
   46.4300   29.7530   43.9700 C   0  0  0  0  0  0  0  0  0  0  0  0
   47.6070   29.3860   43.2890 C   0  0  0  0  0  0  0  0  0  0  0  0
   48.5960   30.0150   43.9210 N   0  0  0  0  0  0  0  0  0  0  0  0
   48.1390   30.7280   44.9220 N   0  0  0  0  0  0  0  0  0  0  0  0
   45.3850   29.5210   43.8560 H   0  0  0  0  0  0  0  0  0  0  0  0
   47.5670   28.7330   42.4540 H   0  0  0  0  0  0  0  0  0  0  0  0
   49.9840   29.9000   43.5230 C   0  0  0  0  0  0  0  0  0  0  0  0
   50.2110   30.4920   42.2760 C   0  0  0  0  0  3  0  0  0  0  0  0
   51.5300   30.4250   41.8160 C   0  0  0  0  0  3  0  0  0  0  0  0
   52.5680   29.8170   42.5300 C   0  0  0  0  0  3  0  0  0  0  0  0
   52.2590   29.2600   43.7460 C   0  0  0  0  0  0  0  0  0  0  0  0
   53.2600   28.6460   44.4870 C   0  0  0  0  0  3  0  0  0  0  0  0
   52.9100   28.1010   45.6990 C   0  0  0  0  0  3  0  0  0  0  0  0
   51.6080   28.1400   46.2080 C   0  0  0  0  0  3  0  0  0  0  0  0
   50.6000   28.7580   45.4600 C   0  0  0  0  0  3  0  0  0  0  0  0
   50.9770   29.2980   44.2440 C   0  0  0  0  0  0  0  0  0  0  0  0
  1  8  1  0  0  0  0
  1  6  1  0  0  0  0
  2  1  2  0  0  0  0
  3  2  1  0  0  0  0
  3  4  2  0  0  0  0
  4  5  1  0  0  0  0
  5  6  2  0  0  0  0
  5  7  1  0  0  0  0
  7  9  1  0  0  0  0
 10  7  1  0  0  0  0
 11 12  1  0  0  0  0
 11 17  1  1  0  0  0
 11  2  1  0  0  0  0
 12 18  1  0  0  0  0
 13 19  1  0  0  0  0
 13 12  2  0  0  0  0
 14 20  1  6  0  0  0
 14 13  1  0  0  0  0
 15 14  1  0  0  0  0
 15 22  1  0  0  0  0
 15 16  1  0  0  0  0
 16 11  1  0  0  0  0
 21 15  1  0  0  0  0
 23 16  1  0  0  0  0
 24 16  1  0  0  0  0
 25 26  1  0  0  0  0
 25 14  1  0  0  0  0
 27 25  1  0  0  0  0
 28 25  1  0  0  0  0
 29  3  1  0  0  0  0
 30 29  1  0  0  0  0
 31 32  1  0  0  0  0
 31 30  2  0  0  0  0
 32 33  1  0  0  0  0
 33 29  2  0  0  0  0
 34 30  1  0  0  0  0
 35 31  1  0  0  0  0
 36 32  1  0  0  0  0
 36 45  1  0  0  0  0
 37 36  2  0  0  0  0
 38 37  1  0  0  0  0
 38 39  2  0  0  0  0
 39 40  1  0  0  0  0
 40 45  2  0  0  0  0
 40 41  1  0  0  0  0
 41 42  2  0  0  0  0
 42 43  1  0  0  0  0
 44 43  2  0  0  0  0
 45 44  1  0  0  0  0
M  END
>  <minimizedAffinity>
-6.13783789

>  <minimizedRMSD>
0.660383582

$$$$
