
 OpenBabel03232521013D

 45 49  0  0  1  0  0  0  0  0999 V2000
   45.3390   32.9480   47.4980 C   0  0  0  0  0  0  0  0  0  0  0  0
   45.8870   32.6630   46.2890 C   0  0  0  0  0  0  0  0  0  0  0  0
   46.1480   31.3040   46.0730 C   0  0  0  0  0  0  0  0  0  0  0  0
   45.8800   30.3310   46.9810 N   0  0  0  0  0  0  0  0  0  0  0  0
   45.3190   30.6720   48.2010 C   0  0  0  0  0  0  0  0  0  0  0  0
   45.0630   31.9640   48.4300 N   0  0  0  0  0  0  0  0  0  0  0  0
   45.0360   29.6830   49.1670 N   0  0  0  0  0  0  0  0  0  0  0  0
   45.1030   33.9650   47.7680 H   0  0  0  0  0  0  0  0  0  0  0  0
   45.5660   29.5700   50.0770 H   0  0  0  0  0  0  0  0  0  0  0  0
   44.2490   29.0340   48.9440 H   0  0  0  0  0  0  0  0  0  0  0  0
   46.1330   33.5900   45.2360 C   0  0  2  0  0  0  0  0  0  0  0  0
   44.9540   34.7150   45.4760 C   0  0  0  0  0  0  0  0  0  0  0  0
   44.7220   35.6320   44.3950 C   0  0  0  0  0  0  0  0  0  0  0  0
   45.4960   35.5200   43.1530 C   0  0  1  0  0  0  0  0  0  0  0  0
   46.5240   34.4880   43.0980 C   0  0  0  0  0  0  0  0  0  0  0  0
   46.0580   33.2820   43.8800 C   0  0  0  0  0  0  0  0  0  0  0  0
   46.9530   34.3050   45.5360 H   0  0  0  0  0  0  0  0  0  0  0  0
   44.2990   34.8940   46.3210 H   0  0  0  0  0  0  0  0  0  0  0  0
   43.9740   36.3730   44.5100 H   0  0  0  0  0  0  0  0  0  0  0  0
   45.9500   36.5090   42.9200 H   0  0  0  0  0  0  0  0  0  0  0  0
   46.7400   34.2500   42.0180 H   0  0  0  0  0  0  0  0  0  0  0  0
   47.5000   34.8190   43.5110 H   0  0  0  0  0  0  0  0  0  0  0  0
   46.8790   32.6000   43.5340 H   0  0  0  0  0  0  0  0  0  0  0  0
   45.0940   32.9420   43.4490 H   0  0  0  0  0  0  0  0  0  0  0  0
   44.4450   35.2640   42.0320 C   0  0  0  0  0  0  0  0  0  0  0  0
   43.4000   34.4610   42.4510 F   0  0  0  0  0  0  0  0  0  0  0  0
   43.8940   36.5050   41.7220 F   0  0  0  0  0  0  0  0  0  0  0  0
   45.0860   34.8100   40.8940 F   0  0  0  0  0  0  0  0  0  0  0  0
   46.7800   30.5860   44.9830 C   0  0  0  0  0  0  0  0  0  0  0  0
   46.4330   29.7510   43.9680 C   0  0  0  0  0  0  0  0  0  0  0  0
   47.6100   29.3850   43.2890 C   0  0  0  0  0  0  0  0  0  0  0  0
   48.5990   30.0140   43.9210 N   0  0  0  0  0  0  0  0  0  0  0  0
   48.1410   30.7270   44.9220 N   0  0  0  0  0  0  0  0  0  0  0  0
   45.3870   29.5190   43.8530 H   0  0  0  0  0  0  0  0  0  0  0  0
   47.5710   28.7320   42.4530 H   0  0  0  0  0  0  0  0  0  0  0  0
   49.9870   29.8990   43.5240 C   0  0  0  0  0  0  0  0  0  0  0  0
   50.2140   30.4910   42.2790 C   0  0  0  0  0  3  0  0  0  0  0  0
   51.5350   30.4240   41.8190 C   0  0  0  0  0  3  0  0  0  0  0  0
   52.5720   29.8150   42.5340 C   0  0  0  0  0  3  0  0  0  0  0  0
   52.2620   29.2580   43.7490 C   0  0  0  0  0  0  0  0  0  0  0  0
   53.2610   28.6440   44.4900 C   0  0  0  0  0  3  0  0  0  0  0  0
   52.9110   28.0990   45.7020 C   0  0  0  0  0  3  0  0  0  0  0  0
   51.6080   28.1370   46.2090 C   0  0  0  0  0  3  0  0  0  0  0  0
   50.6010   28.7550   45.4610 C   0  0  0  0  0  3  0  0  0  0  0  0
   50.9790   29.2970   44.2460 C   0  0  0  0  0  0  0  0  0  0  0  0
  1  8  1  0  0  0  0
  1  6  1  0  0  0  0
  2  1  2  0  0  0  0
  3  2  1  0  0  0  0
  3  4  2  0  0  0  0
  4  5  1  0  0  0  0
  5  6  2  0  0  0  0
  5  7  1  0  0  0  0
  7  9  1  0  0  0  0
 10  7  1  0  0  0  0
 11 12  1  0  0  0  0
 11 17  1  1  0  0  0
 11  2  1  0  0  0  0
 12 18  1  0  0  0  0
 13 19  1  0  0  0  0
 13 12  2  0  0  0  0
 14 20  1  6  0  0  0
 14 13  1  0  0  0  0
 15 14  1  0  0  0  0
 15 22  1  0  0  0  0
 15 16  1  0  0  0  0
 16 11  1  0  0  0  0
 21 15  1  0  0  0  0
 23 16  1  0  0  0  0
 24 16  1  0  0  0  0
 25 26  1  0  0  0  0
 25 14  1  0  0  0  0
 27 25  1  0  0  0  0
 28 25  1  0  0  0  0
 29  3  1  0  0  0  0
 30 29  1  0  0  0  0
 31 32  1  0  0  0  0
 31 30  2  0  0  0  0
 32 33  1  0  0  0  0
 33 29  2  0  0  0  0
 34 30  1  0  0  0  0
 35 31  1  0  0  0  0
 36 32  1  0  0  0  0
 36 45  1  0  0  0  0
 37 36  2  0  0  0  0
 38 37  1  0  0  0  0
 38 39  2  0  0  0  0
 39 40  1  0  0  0  0
 40 45  2  0  0  0  0
 40 41  1  0  0  0  0
 41 42  2  0  0  0  0
 42 43  1  0  0  0  0
 44 43  2  0  0  0  0
 45 44  1  0  0  0  0
M  END
>  <minimizedAffinity>
-6.13556242

>  <minimizedRMSD>
0.256186575

$$$$
