
 OpenBabel03232519133D

 31 33  0  0  1  0  0  0  0  0999 V2000
   44.4530   35.5850   43.3610 C   0  0  1  0  0  0  0  0  0  0  0  0
   43.5200   35.3800   43.9300 H   0  0  0  0  0  0  0  0  0  0  0  0
   45.4740   34.6090   43.7610 C   0  0  0  0  0  0  0  0  0  0  0  0
   46.5130   34.3000   42.8410 C   0  0  0  0  0  0  0  0  0  0  0  0
   47.5060   33.3610   43.2070 C   0  0  0  0  0  0  0  0  0  0  0  0
   47.3930   32.8070   44.4450 N   0  0  0  0  0  0  0  0  0  0  0  0
   46.4150   33.1140   45.2810 C   0  0  0  0  0  0  0  0  0  0  0  0
   45.4510   34.0110   44.9530 N   0  0  0  0  0  0  0  0  0  0  0  0
   46.5910   34.7510   41.8540 H   0  0  0  0  0  0  0  0  0  0  0  0
   48.3020   33.1160   42.5210 H   0  0  0  0  0  0  0  0  0  0  0  0
   46.3140   32.5000   46.6120 C   0  0  0  0  0  0  0  0  0  0  0  0
   47.3100   31.5990   47.0040 C   0  0  0  0  0  0  0  0  0  0  0  0
   46.7370   31.1130   48.7210 S   0  0  0  0  0  0  0  0  0  0  0  0
   45.2410   32.2460   48.5520 C   0  0  0  0  0  0  0  0  0  0  0  0
   45.3880   32.6730   47.5300 N   0  0  0  0  0  0  0  0  0  0  0  0
   48.2420   31.2310   46.4570 H   0  0  0  0  0  0  0  0  0  0  0  0
   44.2270   32.6410   49.1630 H   0  0  0  0  0  0  0  0  0  0  0  0
   44.8880   36.9810   43.7460 C   0  0  0  0  0  0  0  0  0  0  0  0
   44.0810   37.7090   43.5500 H   0  0  0  0  0  0  0  0  0  0  0  0
   45.2070   36.9660   44.8100 H   0  0  0  0  0  0  0  0  0  0  0  0
   45.8040   37.2410   43.1590 H   0  0  0  0  0  0  0  0  0  0  0  0
   44.1450   35.5440   41.8880 C   0  0  0  0  0  0  0  0  0  0  0  0
   45.0130   35.0010   41.4110 H   0  0  0  0  0  0  0  0  0  0  0  0
   44.1290   36.5680   41.4880 H   0  0  0  0  0  0  0  0  0  0  0  0
   42.8690   34.7960   41.6660 C   0  0  0  0  0  0  0  0  0  0  0  0
   41.6620   35.4650   41.6720 C   0  0  0  0  0  0  0  0  0  0  0  0
   40.5410   34.6710   41.4550 C   0  0  0  0  0  0  0  0  0  0  0  0
   39.5890   35.1980   41.4590 H   0  0  0  0  0  0  0  0  0  0  0  0
   40.6220   33.3360   41.2510 N   0  0  0  0  0  0  0  0  0  0  0  0
   41.8220   32.7320   41.2550 C   0  0  0  0  0  0  0  0  0  0  0  0
   42.9380   33.4520   41.4590 N   0  0  0  0  0  0  0  0  0  0  0  0
  1 18  1  0  0  0  0
  1  3  1  0  0  0  0
  1  2  1  1  0  0  0
  3  8  1  0  0  0  0
  4  5  1  0  0  0  0
  4  3  2  0  0  0  0
  5  6  2  0  0  0  0
  6  7  1  0  0  0  0
  7 11  1  0  0  0  0
  8  7  2  0  0  0  0
  9  4  1  0  0  0  0
 10  5  1  0  0  0  0
 11 12  2  0  0  0  0
 11 15  1  0  0  0  0
 12 13  1  0  0  0  0
 14 13  1  0  0  0  0
 14 17  1  0  0  0  0
 15 14  2  0  0  0  0
 16 12  1  0  0  0  0
 18 20  1  0  0  0  0
 19 18  1  0  0  0  0
 21 18  1  0  0  0  0
 22  1  1  0  0  0  0
 23 22  1  0  0  0  0
 24 22  1  0  0  0  0
 25 26  1  0  0  0  0
 25 22  1  0  0  0  0
 27 28  1  0  0  0  0
 27 26  2  0  0  0  0
 29 30  2  0  0  0  0
 29 27  1  0  0  0  0
 30 31  1  0  0  0  0
 31 25  2  0  0  0  0
M  END
>  <minimizedAffinity>
-5.10946512

>  <minimizedRMSD>
1.19223654

$$$$
