
 OpenBabel03232520533D

 33 35  0  0  1  0  0  0  0  0999 V2000
   43.5120   34.8540   41.1790 C   0  0  2  0  0  0  0  0  0  0  0  0
   42.1440   35.3020   41.6400 C   0  0  0  0  0  0  0  0  0  0  0  0
   41.1650   35.5610   40.6150 C   0  0  0  0  0  0  0  0  0  0  0  0
   41.4780   35.3960   39.2090 C   0  0  1  0  0  0  0  0  0  0  0  0
   42.8690   35.0410   38.8700 C   0  0  0  0  0  0  0  0  0  0  0  0
   43.4350   34.1020   39.8970 C   0  0  0  0  0  0  0  0  0  0  0  0
   44.0490   35.8270   40.9760 H   0  0  0  0  0  0  0  0  0  0  0  0
   41.6670   35.4930   42.5910 H   0  0  0  0  0  0  0  0  0  0  0  0
   40.1790   35.8780   40.8320 H   0  0  0  0  0  0  0  0  0  0  0  0
   41.2080   36.3390   38.6700 H   0  0  0  0  0  0  0  0  0  0  0  0
   43.5250   35.9540   38.9020 H   0  0  0  0  0  0  0  0  0  0  0  0
   42.9180   34.5680   37.8800 H   0  0  0  0  0  0  0  0  0  0  0  0
   42.8350   33.1710   39.9850 H   0  0  0  0  0  0  0  0  0  0  0  0
   44.4740   33.8550   39.5970 H   0  0  0  0  0  0  0  0  0  0  0  0
   44.7930   34.9610   43.2600 C   0  0  0  0  0  0  0  0  0  0  0  0
   44.2110   34.1940   42.2670 C   0  0  0  0  0  0  0  0  0  0  0  0
   44.3510   32.8160   42.3790 C   0  0  0  0  0  0  0  0  0  0  0  0
   45.0240   32.2730   43.4100 N   0  0  0  0  0  0  0  0  0  0  0  0
   45.5880   33.0410   44.3730 C   0  0  0  0  0  0  0  0  0  0  0  0
   45.4670   34.3730   44.2890 N   0  0  0  0  0  0  0  0  0  0  0  0
   44.7850   36.0380   43.3310 H   0  0  0  0  0  0  0  0  0  0  0  0
   43.9190   32.1670   41.6380 H   0  0  0  0  0  0  0  0  0  0  0  0
   46.3100   32.4150   45.4750 C   0  0  0  0  0  0  0  0  0  0  0  0
   46.8060   31.1380   45.3050 C   0  0  0  0  0  0  0  0  0  0  0  0
   47.4820   30.5850   46.3770 C   0  0  0  0  0  0  0  0  0  0  0  0
   47.6300   31.2940   47.5210 N   0  0  0  0  0  0  0  0  0  0  0  0
   47.1420   32.5380   47.6750 C   0  0  0  0  0  0  0  0  0  0  0  0
   47.2810   33.0750   48.6090 H   0  0  0  0  0  0  0  0  0  0  0  0
   46.4720   33.0960   46.6250 N   0  0  0  0  0  0  0  0  0  0  0  0
   40.5220   34.3510   38.6260 C   0  0  0  0  0  0  0  0  0  0  0  0
   39.7630   33.7250   39.5950 F   0  0  0  0  0  0  0  0  0  0  0  0
   39.6110   35.0240   37.8060 F   0  0  0  0  0  0  0  0  0  0  0  0
   41.2210   33.4610   37.8340 F   0  0  0  0  0  0  0  0  0  0  0  0
  1  7  1  6  0  0  0
  1  2  1  0  0  0  0
  1 16  1  0  0  0  0
  2  8  1  0  0  0  0
  3  9  1  0  0  0  0
  3  2  2  0  0  0  0
  4 10  1  6  0  0  0
  4  3  1  0  0  0  0
  5 11  1  0  0  0  0
  5  4  1  0  0  0  0
  5  6  1  0  0  0  0
  6 13  1  0  0  0  0
  6  1  1  0  0  0  0
 12  5  1  0  0  0  0
 14  6  1  0  0  0  0
 15 21  1  0  0  0  0
 15 20  1  0  0  0  0
 16 17  1  0  0  0  0
 16 15  2  0  0  0  0
 17 18  2  0  0  0  0
 18 19  1  0  0  0  0
 19 23  1  0  0  0  0
 20 19  2  0  0  0  0
 22 17  1  0  0  0  0
 23 29  1  0  0  0  0
 24 23  2  0  0  0  0
 24 25  1  0  0  0  0
 25 26  2  0  0  0  0
 26 27  1  0  0  0  0
 27 28  1  0  0  0  0
 29 27  2  0  0  0  0
 30  4  1  0  0  0  0
 30 31  1  0  0  0  0
 32 30  1  0  0  0  0
 33 30  1  0  0  0  0
M  END
>  <minimizedAffinity>
-5.5467968

>  <minimizedRMSD>
5.23032904

$$$$
