
 OpenBabel03232513173D

 44 48  0  0  1  0  0  0  0  0999 V2000
   42.5280   34.9820   41.2640 C   0  0  2  0  0  0  0  0  0  0  0  0
   42.2090   35.5220   39.8550 C   0  0  0  0  0  0  0  0  0  0  0  0
   41.2290   35.5700   40.9320 C   0  0  1  0  0  0  0  0  0  0  0  0
   42.5260   33.8880   41.4280 H   0  0  0  0  0  0  0  0  0  0  0  0
   42.3850   34.7510   39.1140 H   0  0  0  0  0  0  0  0  0  0  0  0
   42.7390   36.4810   39.5660 H   0  0  0  0  0  0  0  0  0  0  0  0
   41.0430   36.6000   41.3580 H   0  0  0  0  0  0  0  0  0  0  0  0
   39.9880   34.7350   40.8670 C   0  0  2  0  0  0  0  0  0  0  0  0
   39.8570   33.5110   41.7060 C   0  0  0  0  0  0  0  0  0  0  0  0
   40.1880   33.3970   40.2390 C   0  0  1  0  0  0  0  0  0  0  0  0
   39.0280   35.2540   40.6980 H   0  0  0  0  0  0  0  0  0  0  0  0
   40.6200   33.2550   42.4590 H   0  0  0  0  0  0  0  0  0  0  0  0
   38.8460   33.1520   42.0070 H   0  0  0  0  0  0  0  0  0  0  0  0
   41.2410   33.0310   40.0680 H   0  0  0  0  0  0  0  0  0  0  0  0
   39.3170   32.8810   39.2670 N   0  0  0  0  0  0  0  0  0  0  0  0
   38.9630   33.6950   38.1790 C   0  0  0  0  0  0  0  0  0  0  0  0
   37.9800   32.9860   37.2850 C   0  0  0  0  0  0  0  0  0  0  0  0
   38.5170   31.7480   36.9270 O   0  0  0  0  0  0  0  0  0  0  0  0
   38.5150   30.9610   38.0690 C   0  0  0  0  0  0  0  0  0  0  0  0
   38.9300   31.5500   39.3280 C   0  0  0  0  0  0  0  0  0  0  0  0
   38.4740   34.6230   38.5960 H   0  0  0  0  0  0  0  0  0  0  0  0
   39.8170   33.9830   37.5150 H   0  0  0  0  0  0  0  0  0  0  0  0
   37.7690   33.6110   36.3630 H   0  0  0  0  0  0  0  0  0  0  0  0
   36.9980   32.9600   37.7960 H   0  0  0  0  0  0  0  0  0  0  0  0
   38.2470   29.8930   38.2830 H   0  0  0  0  0  0  0  0  0  0  0  0
   38.9340   30.9860   40.2260 H   0  0  0  0  0  0  0  0  0  0  0  0
   43.6150   35.7140   41.9780 C   0  0  0  0  0  0  0  0  0  0  0  0
   43.6610   36.7950   41.6560 H   0  0  0  0  0  0  0  0  0  0  0  0
   43.3360   35.7830   43.0610 H   0  0  0  0  0  0  0  0  0  0  0  0
   45.2810   34.2810   40.8500 C   0  0  0  0  0  0  0  0  0  0  0  0
   44.9330   35.1310   41.9020 C   0  0  0  0  0  0  0  0  0  0  0  0
   45.8950   35.3940   42.8720 C   0  0  0  0  0  0  0  0  0  0  0  0
   47.1390   34.8300   42.7810 N   0  0  0  0  0  0  0  0  0  0  0  0
   47.4220   33.9990   41.7200 C   0  0  0  0  0  0  0  0  0  0  0  0
   46.4990   33.7290   40.7630 N   0  0  0  0  0  0  0  0  0  0  0  0
   44.5380   34.0850   40.1110 H   0  0  0  0  0  0  0  0  0  0  0  0
   45.6460   36.0390   43.6780 H   0  0  0  0  0  0  0  0  0  0  0  0
   48.7320   33.3730   41.5770 C   0  0  0  0  0  0  0  0  0  0  0  0
   49.7910   33.7180   42.3900 C   0  0  0  0  0  0  0  0  0  0  0  0
   51.0620   33.1440   42.2880 C   0  0  0  0  0  0  0  0  0  0  0  0
   51.2440   32.2120   41.3460 N   0  0  0  0  0  0  0  0  0  0  0  0
   50.2230   31.8620   40.5430 C   0  0  0  0  0  0  0  0  0  0  0  0
   50.3140   31.1050   39.7550 H   0  0  0  0  0  0  0  0  0  0  0  0
   48.9810   32.4190   40.6390 N   0  0  0  0  0  0  0  0  0  0  0  0
  1  4  1  1  0  0  0
  1 27  1  0  0  0  0
  2  3  1  0  0  0  0
  2  1  1  0  0  0  0
  3  1  1  0  0  0  0
  3  7  1  1  0  0  0
  5  2  1  0  0  0  0
  6  2  1  0  0  0  0
  8 11  1  6  0  0  0
  8  3  1  0  0  0  0
  8  9  1  0  0  0  0
  9 13  1  0  0  0  0
  9 12  1  0  0  0  0
 10 14  1  6  0  0  0
 10  8  1  0  0  0  0
 10  9  1  0  0  0  0
 15 20  1  0  0  0  0
 15 10  1  0  0  0  0
 16 21  1  0  0  0  0
 16 15  1  0  0  0  0
 17 24  1  0  0  0  0
 17 16  1  0  0  0  0
 18 17  1  0  0  0  0
 18 19  1  0  0  0  0
 19 25  1  0  0  0  0
 19 20  2  0  0  0  0
 20 26  1  0  0  0  0
 22 16  1  0  0  0  0
 23 17  1  0  0  0  0
 27 29  1  0  0  0  0
 28 27  1  0  0  0  0
 30 31  1  0  0  0  0
 31 27  1  0  0  0  0
 31 32  2  0  0  0  0
 32 37  1  0  0  0  0
 33 32  1  0  0  0  0
 34 33  2  0  0  0  0
 35 30  2  0  0  0  0
 35 34  1  0  0  0  0
 36 30  1  0  0  0  0
 38 34  1  0  0  0  0
 38 39  1  0  0  0  0
 40 39  2  0  0  0  0
 41 40  1  0  0  0  0
 42 44  1  0  0  0  0
 42 41  2  0  0  0  0
 43 42  1  0  0  0  0
 44 38  2  0  0  0  0
M  END
>  <minimizedAffinity>
-5.67174578

>  <minimizedRMSD>
2.23584533

$$$$
