
 OpenBabel03232521013D

 43 46  0  0  1  0  0  0  0  0999 V2000
   45.3110   32.9090   47.5060 C   0  0  0  0  0  0  0  0  0  0  0  0
   45.8900   32.6480   46.3070 C   0  0  0  0  0  0  0  0  0  0  0  0
   46.1900   31.3030   46.0790 C   0  0  0  0  0  0  0  0  0  0  0  0
   45.9290   30.3160   46.9740 N   0  0  0  0  0  0  0  0  0  0  0  0
   45.3370   30.6330   48.1850 C   0  0  0  0  0  0  0  0  0  0  0  0
   45.0450   31.9060   48.4200 N   0  0  0  0  0  0  0  0  0  0  0  0
   45.0780   29.6270   49.1500 N   0  0  0  0  0  0  0  0  0  0  0  0
   45.0410   33.9160   47.7890 H   0  0  0  0  0  0  0  0  0  0  0  0
   45.7480   29.7570   49.9560 H   0  0  0  0  0  0  0  0  0  0  0  0
   44.3770   28.8540   49.1580 H   0  0  0  0  0  0  0  0  0  0  0  0
   46.1480   33.5950   45.2780 C   0  0  2  0  0  0  0  0  0  0  0  0
   44.9470   34.6980   45.5030 C   0  0  0  0  0  0  0  0  0  0  0  0
   44.7220   35.6280   44.4300 C   0  0  0  0  0  0  0  0  0  0  0  0
   45.5240   35.5480   43.2090 C   0  0  1  0  0  0  0  0  0  0  0  0
   46.5770   34.5360   43.1620 C   0  0  0  0  0  0  0  0  0  0  0  0
   46.1190   33.3080   43.9140 C   0  0  0  0  0  0  0  0  0  0  0  0
   46.9890   34.2820   45.6010 H   0  0  0  0  0  0  0  0  0  0  0  0
   44.2660   34.8610   46.3290 H   0  0  0  0  0  0  0  0  0  0  0  0
   43.9460   36.3620   44.5460 H   0  0  0  0  0  0  0  0  0  0  0  0
   45.9720   36.5350   42.9680 H   0  0  0  0  0  0  0  0  0  0  0  0
   46.7660   34.2960   42.0740 H   0  0  0  0  0  0  0  0  0  0  0  0
   47.5680   34.8800   43.5420 H   0  0  0  0  0  0  0  0  0  0  0  0
   45.1700   32.9680   43.4480 H   0  0  0  0  0  0  0  0  0  0  0  0
   46.9760   32.6570   43.5940 H   0  0  0  0  0  0  0  0  0  0  0  0
   44.5090   35.2790   42.0550 C   0  0  0  0  0  0  0  0  0  0  0  0
   43.4500   34.4810   42.4480 F   0  0  0  0  0  0  0  0  0  0  0  0
   43.9630   36.5160   41.7200 F   0  0  0  0  0  0  0  0  0  0  0  0
   45.1860   34.8220   40.9400 F   0  0  0  0  0  0  0  0  0  0  0  0
   46.8510   30.6100   44.9900 C   0  0  0  0  0  0  0  0  0  0  0  0
   46.5310   29.8150   43.9370 C   0  0  0  0  0  0  0  0  0  0  0  0
   47.7220   29.4490   43.2900 C   0  0  0  0  0  0  0  0  0  0  0  0
   48.6960   30.0410   43.9810 N   0  0  0  0  0  0  0  0  0  0  0  0
   48.2100   30.7290   44.9870 N   0  0  0  0  0  0  0  0  0  0  0  0
   45.4870   29.6040   43.7740 H   0  0  0  0  0  0  0  0  0  0  0  0
   47.6910   28.8150   42.4220 H   0  0  0  0  0  0  0  0  0  0  0  0
   50.0650   29.8810   43.5940 C   0  0  0  0  0  0  0  0  0  0  0  0
   50.9570   29.1930   44.4060 C   0  0  0  0  0  3  0  0  0  0  0  0
   52.2620   29.0580   44.0060 C   0  0  0  0  0  0  0  0  0  0  0  0
   52.9320   28.5100   44.6730 H   0  0  0  0  0  0  0  0  0  0  0  0
   52.7110   29.5960   42.8020 C   0  0  0  0  0  3  0  0  0  0  0  0
   51.7850   30.2770   42.0180 C   0  0  0  0  0  0  0  0  0  0  0  0
   52.0970   30.7080   41.0780 H   0  0  0  0  0  0  0  0  0  0  0  0
   50.4730   30.4360   42.3790 C   0  0  0  0  0  3  0  0  0  0  0  0
  1  8  1  0  0  0  0
  1  6  1  0  0  0  0
  2  1  2  0  0  0  0
  3  2  1  0  0  0  0
  3  4  2  0  0  0  0
  4  5  1  0  0  0  0
  5  6  2  0  0  0  0
  5  7  1  0  0  0  0
  7 10  1  0  0  0  0
  7  9  1  0  0  0  0
 11 12  1  0  0  0  0
 11 17  1  1  0  0  0
 11  2  1  0  0  0  0
 12 18  1  0  0  0  0
 13 19  1  0  0  0  0
 13 12  2  0  0  0  0
 14 20  1  6  0  0  0
 14 13  1  0  0  0  0
 15 14  1  0  0  0  0
 15 22  1  0  0  0  0
 15 16  1  0  0  0  0
 16 11  1  0  0  0  0
 21 15  1  0  0  0  0
 23 16  1  0  0  0  0
 24 16  1  0  0  0  0
 25 26  1  0  0  0  0
 25 14  1  0  0  0  0
 27 25  1  0  0  0  0
 28 25  1  0  0  0  0
 29  3  1  0  0  0  0
 30 29  1  0  0  0  0
 31 30  2  0  0  0  0
 31 32  1  0  0  0  0
 32 33  1  0  0  0  0
 33 29  2  0  0  0  0
 34 30  1  0  0  0  0
 35 31  1  0  0  0  0
 36 32  1  0  0  0  0
 36 37  1  0  0  0  0
 38 37  2  0  0  0  0
 38 39  1  0  0  0  0
 40 38  1  0  0  0  0
 41 43  1  0  0  0  0
 41 40  2  0  0  0  0
 42 41  1  0  0  0  0
 43 36  2  0  0  0  0
M  END
>  <minimizedAffinity>
-5.8753109

>  <minimizedRMSD>
0.577963948

$$$$
