
 OpenBabel03232520033D

 21 22  0  0  0  0  0  0  0  0999 V2000
   48.2230   33.9700   42.7320 C   0  0  0  0  0  0  0  0  0  0  0  0
   48.1470   32.7760   42.0210 C   0  0  0  0  0  0  0  0  0  0  0  0
   47.2070   31.8360   42.4440 C   0  0  0  0  0  0  0  0  0  0  0  0
   46.4200   32.1420   43.5290 N   0  0  0  0  0  0  0  0  0  0  0  0
   46.5400   33.3160   44.1760 C   0  0  0  0  0  0  0  0  0  0  0  0
   47.4340   34.2200   43.7790 N   0  0  0  0  0  0  0  0  0  0  0  0
   48.8110   32.6290   41.1830 H   0  0  0  0  0  0  0  0  0  0  0  0
   47.1320   30.9110   41.9120 H   0  0  0  0  0  0  0  0  0  0  0  0
   49.2100   34.9750   42.3020 C   0  0  0  0  0  0  0  0  0  0  0  0
   49.0040   35.6140   41.2400 O   0  0  0  0  0  0  0  0  0  0  0  0
   50.3310   35.1960   43.0640 O   0  0  0  0  0  0  0  0  0  0  0  0
   50.8180   36.0860   42.9590 H   0  0  0  0  0  0  0  0  0  0  0  0
   45.5340   33.7320   45.5750 S   0  0  0  0  0  0  0  0  0  0  0  0
   45.9200   32.7160   47.0040 C   0  0  0  0  0  0  0  0  0  0  0  0
   45.0630   32.3840   48.0430 C   0  0  0  0  0  0  0  0  0  0  0  0
   45.5430   31.5940   49.0510 C   0  0  0  0  0  0  0  0  0  0  0  0
   44.8420   31.3580   49.8390 H   0  0  0  0  0  0  0  0  0  0  0  0
   46.8290   31.0960   49.1140 C   0  0  0  0  0  0  0  0  0  0  0  0
   47.6630   31.4450   48.0620 C   0  0  0  0  0  0  0  0  0  0  0  0
   48.6800   31.0430   48.1270 H   0  0  0  0  0  0  0  0  0  0  0  0
   47.2220   32.2300   47.0410 C   0  0  0  0  0  0  0  0  0  0  0  0
  1  6  1  0  0  0  0
  2  3  1  0  0  0  0
  2  1  2  0  0  0  0
  3  4  2  0  0  0  0
  4  5  1  0  0  0  0
  5 13  1  0  0  0  0
  6  5  2  0  0  0  0
  7  2  1  0  0  0  0
  8  3  1  0  0  0  0
  9  1  1  0  0  0  0
  9 11  1  0  0  0  0
 10  9  2  0  0  0  0
 12 11  1  0  0  0  0
 13 14  1  0  0  0  0
 14 21  2  0  0  0  0
 14 15  1  0  0  0  0
 15 16  2  0  0  0  0
 16 18  1  0  0  0  0
 16 17  1  0  0  0  0
 19 20  1  0  0  0  0
 19 18  2  0  0  0  0
 21 19  1  0  0  0  0
M  END
>  <minimizedAffinity>
-5.07245255

>  <minimizedRMSD>
2.46681237

$$$$
