
 OpenBabel03232521013D

 43 46  0  0  1  0  0  0  0  0999 V2000
   45.3110   32.9100   47.5030 C   0  0  0  0  0  0  0  0  0  0  0  0
   45.8890   32.6500   46.3030 C   0  0  0  0  0  0  0  0  0  0  0  0
   46.1900   31.3050   46.0740 C   0  0  0  0  0  0  0  0  0  0  0  0
   45.9300   30.3180   46.9680 N   0  0  0  0  0  0  0  0  0  0  0  0
   45.3390   30.6330   48.1810 C   0  0  0  0  0  0  0  0  0  0  0  0
   45.0460   31.9070   48.4170 N   0  0  0  0  0  0  0  0  0  0  0  0
   45.0810   29.6270   49.1450 N   0  0  0  0  0  0  0  0  0  0  0  0
   45.0420   33.9160   47.7860 H   0  0  0  0  0  0  0  0  0  0  0  0
   45.7520   29.7560   49.9510 H   0  0  0  0  0  0  0  0  0  0  0  0
   44.3800   28.8540   49.1540 H   0  0  0  0  0  0  0  0  0  0  0  0
   46.1460   33.5970   45.2740 C   0  0  2  0  0  0  0  0  0  0  0  0
   44.9450   34.7000   45.5020 C   0  0  0  0  0  0  0  0  0  0  0  0
   44.7180   35.6310   44.4300 C   0  0  0  0  0  0  0  0  0  0  0  0
   45.5190   35.5520   43.2070 C   0  0  1  0  0  0  0  0  0  0  0  0
   46.5720   34.5400   43.1580 C   0  0  0  0  0  0  0  0  0  0  0  0
   46.1150   33.3110   43.9100 C   0  0  0  0  0  0  0  0  0  0  0  0
   46.9870   34.2850   45.5970 H   0  0  0  0  0  0  0  0  0  0  0  0
   44.2660   34.8630   46.3290 H   0  0  0  0  0  0  0  0  0  0  0  0
   43.9430   36.3650   44.5470 H   0  0  0  0  0  0  0  0  0  0  0  0
   45.9670   36.5390   42.9670 H   0  0  0  0  0  0  0  0  0  0  0  0
   46.7590   34.3000   42.0700 H   0  0  0  0  0  0  0  0  0  0  0  0
   47.5640   34.8840   43.5380 H   0  0  0  0  0  0  0  0  0  0  0  0
   45.1650   32.9710   43.4450 H   0  0  0  0  0  0  0  0  0  0  0  0
   46.9720   32.6610   43.5890 H   0  0  0  0  0  0  0  0  0  0  0  0
   44.5030   35.2840   42.0550 C   0  0  0  0  0  0  0  0  0  0  0  0
   43.4430   34.4880   42.4490 F   0  0  0  0  0  0  0  0  0  0  0  0
   43.9580   36.5220   41.7190 F   0  0  0  0  0  0  0  0  0  0  0  0
   45.1770   34.8240   40.9400 F   0  0  0  0  0  0  0  0  0  0  0  0
   46.8490   30.6130   44.9840 C   0  0  0  0  0  0  0  0  0  0  0  0
   46.5300   29.8100   43.9370 C   0  0  0  0  0  0  0  0  0  0  0  0
   47.7190   29.4510   43.2830 C   0  0  0  0  0  0  0  0  0  0  0  0
   48.6920   30.0550   43.9650 N   0  0  0  0  0  0  0  0  0  0  0  0
   48.2070   30.7440   44.9710 N   0  0  0  0  0  0  0  0  0  0  0  0
   45.4870   29.5890   43.7820 H   0  0  0  0  0  0  0  0  0  0  0  0
   47.6880   28.8130   42.4180 H   0  0  0  0  0  0  0  0  0  0  0  0
   50.0610   29.9050   43.5700 C   0  0  0  0  0  0  0  0  0  0  0  0
   50.5150   30.4370   42.3710 C   0  0  0  0  0  3  0  0  0  0  0  0
   51.8300   30.2770   42.0210 C   0  0  0  0  0  0  0  0  0  0  0  0
   52.1500   30.7110   41.0700 H   0  0  0  0  0  0  0  0  0  0  0  0
   52.7230   29.5900   42.8440 C   0  0  0  0  0  3  0  0  0  0  0  0
   52.2260   29.0730   44.0360 C   0  0  0  0  0  0  0  0  0  0  0  0
   52.8870   28.5340   44.7010 H   0  0  0  0  0  0  0  0  0  0  0  0
   50.9200   29.2100   44.4240 C   0  0  0  0  0  3  0  0  0  0  0  0
  1  8  1  0  0  0  0
  1  6  1  0  0  0  0
  2  1  2  0  0  0  0
  3  2  1  0  0  0  0
  3  4  2  0  0  0  0
  4  5  1  0  0  0  0
  5  6  2  0  0  0  0
  5  7  1  0  0  0  0
  7 10  1  0  0  0  0
  7  9  1  0  0  0  0
 11 12  1  0  0  0  0
 11 17  1  1  0  0  0
 11  2  1  0  0  0  0
 12 18  1  0  0  0  0
 13 19  1  0  0  0  0
 13 12  2  0  0  0  0
 14 20  1  6  0  0  0
 14 13  1  0  0  0  0
 15 14  1  0  0  0  0
 15 22  1  0  0  0  0
 15 16  1  0  0  0  0
 16 11  1  0  0  0  0
 21 15  1  0  0  0  0
 23 16  1  0  0  0  0
 24 16  1  0  0  0  0
 25 26  1  0  0  0  0
 25 14  1  0  0  0  0
 27 25  1  0  0  0  0
 28 25  1  0  0  0  0
 29  3  1  0  0  0  0
 30 29  1  0  0  0  0
 31 30  2  0  0  0  0
 31 32  1  0  0  0  0
 32 33  1  0  0  0  0
 33 29  2  0  0  0  0
 34 30  1  0  0  0  0
 35 31  1  0  0  0  0
 36 32  1  0  0  0  0
 36 43  1  0  0  0  0
 37 36  2  0  0  0  0
 38 37  1  0  0  0  0
 38 40  2  0  0  0  0
 39 38  1  0  0  0  0
 40 41  1  0  0  0  0
 41 43  2  0  0  0  0
 41 42  1  0  0  0  0
M  END
>  <minimizedAffinity>
-5.87609482

>  <minimizedRMSD>
0.300915331

$$$$
