
 OpenBabel03232520563D

 35 37  0  0  1  0  0  0  0  0999 V2000
   46.1340   33.5910   45.3140 C   0  0  2  0  0  0  0  0  0  0  0  0
   44.9700   34.6750   45.5170 C   0  0  0  0  0  0  0  0  0  0  0  0
   44.7300   35.5930   44.4350 C   0  0  0  0  0  0  0  0  0  0  0  0
   45.5170   35.5050   43.2160 C   0  0  1  0  0  0  0  0  0  0  0  0
   46.6140   34.5140   43.1940 C   0  0  0  0  0  0  0  0  0  0  0  0
   46.1330   33.2690   43.9350 C   0  0  0  0  0  0  0  0  0  0  0  0
   46.9370   34.3220   45.6430 H   0  0  0  0  0  0  0  0  0  0  0  0
   44.2720   34.9050   46.3170 H   0  0  0  0  0  0  0  0  0  0  0  0
   43.9680   36.3430   44.5020 H   0  0  0  0  0  0  0  0  0  0  0  0
   45.9330   36.5170   42.9950 H   0  0  0  0  0  0  0  0  0  0  0  0
   47.4910   34.8880   43.7640 H   0  0  0  0  0  0  0  0  0  0  0  0
   46.8870   34.3050   42.1570 H   0  0  0  0  0  0  0  0  0  0  0  0
   46.6170   32.5000   43.4110 H   0  0  0  0  0  0  0  0  0  0  0  0
   45.0230   33.1610   43.5970 H   0  0  0  0  0  0  0  0  0  0  0  0
   45.3760   32.9160   47.5750 C   0  0  0  0  0  0  0  0  0  0  0  0
   45.9080   32.6340   46.3490 C   0  0  0  0  0  0  0  0  0  0  0  0
   46.1570   31.2730   46.1070 C   0  0  0  0  0  0  0  0  0  0  0  0
   45.8890   30.3150   47.0120 N   0  0  0  0  0  0  0  0  0  0  0  0
   45.3520   30.6460   48.2370 C   0  0  0  0  0  0  0  0  0  0  0  0
   45.1070   31.9270   48.4950 N   0  0  0  0  0  0  0  0  0  0  0  0
   45.0860   29.6450   49.2120 N   0  0  0  0  0  0  0  0  0  0  0  0
   45.1650   33.9440   47.8210 H   0  0  0  0  0  0  0  0  0  0  0  0
   44.7130   28.7090   48.9690 H   0  0  0  0  0  0  0  0  0  0  0  0
   45.2910   29.9130   50.1920 H   0  0  0  0  0  0  0  0  0  0  0  0
   46.7540   30.5400   44.9980 C   0  0  0  0  0  0  0  0  0  0  0  0
   46.0230   29.7870   44.0600 C   0  0  0  0  0  3  0  0  0  0  0  0
   46.5290   29.0730   43.0010 C   0  0  0  0  0  3  0  0  0  0  0  0
   47.9000   29.1150   42.8700 C   0  0  0  0  0  0  0  0  0  0  0  0
   48.3440   28.5620   42.0440 H   0  0  0  0  0  0  0  0  0  0  0  0
   48.6230   29.8440   43.7780 C   0  0  0  0  0  3  0  0  0  0  0  0
   48.0980   30.5240   44.7900 N   0  0  0  0  0  0  0  0  0  0  0  0
   44.5320   35.2190   42.0550 C   0  0  0  0  0  0  0  0  0  0  0  0
   43.5080   34.3740   42.4180 F   0  0  0  0  0  0  0  0  0  0  0  0
   43.9470   36.4380   41.7250 F   0  0  0  0  0  0  0  0  0  0  0  0
   45.2390   34.7930   40.9380 F   0  0  0  0  0  0  0  0  0  0  0  0
  1  2  1  0  0  0  0
  1  7  1  1  0  0  0
  1 16  1  0  0  0  0
  2  8  1  0  0  0  0
  3  9  1  0  0  0  0
  3  2  2  0  0  0  0
  4 10  1  6  0  0  0
  4  3  1  0  0  0  0
  5  4  1  0  0  0  0
  5 11  1  0  0  0  0
  5  6  1  0  0  0  0
  6  1  1  0  0  0  0
 12  5  1  0  0  0  0
 13  6  1  0  0  0  0
 14  6  1  0  0  0  0
 15 22  1  0  0  0  0
 15 20  1  0  0  0  0
 16 15  2  0  0  0  0
 17 16  1  0  0  0  0
 17 18  2  0  0  0  0
 18 19  1  0  0  0  0
 19 20  2  0  0  0  0
 19 21  1  0  0  0  0
 21 24  1  0  0  0  0
 23 21  1  0  0  0  0
 25 17  1  0  0  0  0
 26 25  2  0  0  0  0
 27 26  1  0  0  0  0
 28 27  2  0  0  0  0
 28 30  1  0  0  0  0
 29 28  1  0  0  0  0
 30 31  2  0  0  0  0
 31 25  1  0  0  0  0
 32 33  1  0  0  0  0
 32  4  1  0  0  0  0
 34 32  1  0  0  0  0
 35 32  1  0  0  0  0
M  END
>  <minimizedAffinity>
-5.65527821

>  <minimizedRMSD>
0.282523811

$$$$
