
 OpenBabel03232520213D

 39 42  0  0  0  0  0  0  0  0999 V2000
   47.5620   34.1540   42.1720 C   0  0  0  0  0  0  0  0  0  0  0  0
   48.4320   35.2840   41.6940 C   0  0  0  0  0  0  0  0  0  0  0  0
   49.7620   35.3810   42.3100 C   0  0  0  0  0  0  0  0  0  0  0  0
   50.4820   34.0720   42.4640 C   0  0  0  0  0  0  0  0  0  0  0  0
   49.6290   32.8710   42.1570 C   0  0  0  0  0  0  0  0  0  0  0  0
   48.3060   33.0580   42.8780 C   0  0  0  0  0  0  0  0  0  0  0  0
   47.8880   36.2420   41.8570 H   0  0  0  0  0  0  0  0  0  0  0  0
   48.5730   35.2310   40.5810 H   0  0  0  0  0  0  0  0  0  0  0  0
   50.3790   36.0730   41.7120 H   0  0  0  0  0  0  0  0  0  0  0  0
   49.6690   35.8540   43.3210 H   0  0  0  0  0  0  0  0  0  0  0  0
   50.9280   33.9900   43.4890 H   0  0  0  0  0  0  0  0  0  0  0  0
   51.3480   34.0360   41.7600 H   0  0  0  0  0  0  0  0  0  0  0  0
   49.4800   32.7400   41.0870 H   0  0  0  0  0  0  0  0  0  0  0  0
   50.1270   31.9750   42.6020 H   0  0  0  0  0  0  0  0  0  0  0  0
   47.6900   32.1380   42.8060 H   0  0  0  0  0  0  0  0  0  0  0  0
   48.5110   33.3630   43.9250 H   0  0  0  0  0  0  0  0  0  0  0  0
   45.2390   34.4640   45.0410 C   0  0  0  0  0  0  0  0  0  0  0  0
   44.5290   35.6280   44.7430 C   0  0  0  0  0  0  0  0  0  0  0  0
   44.8490   36.3010   43.5700 C   0  0  0  0  0  0  0  0  0  0  0  0
   45.8310   35.7930   42.7760 N   0  0  0  0  0  0  0  0  0  0  0  0
   46.5010   34.6560   43.0980 C   0  0  0  0  0  0  0  0  0  0  0  0
   46.1930   33.9910   44.2490 N   0  0  0  0  0  0  0  0  0  0  0  0
   44.9370   33.9970   45.9660 H   0  0  0  0  0  0  0  0  0  0  0  0
   43.7410   36.0640   45.3500 H   0  0  0  0  0  0  0  0  0  0  0  0
   44.3940   37.2100   43.2030 H   0  0  0  0  0  0  0  0  0  0  0  0
   46.9070   33.5300   40.9640 C   0  0  0  0  0  0  0  0  0  0  0  0
   45.7780   32.7870   40.6830 C   0  0  0  0  0  0  0  0  0  0  0  0
   45.5720   32.4260   39.4070 C   0  0  0  0  0  0  0  0  0  0  0  0
   46.4200   32.7640   38.4250 C   0  0  0  0  0  0  0  0  0  0  0  0
   47.7180   33.7280   39.3500 S   0  0  0  0  0  0  0  0  0  0  0  0
   45.1540   32.5630   41.5360 H   0  0  0  0  0  0  0  0  0  0  0  0
   44.7110   31.8410   39.1030 H   0  0  0  0  0  0  0  0  0  0  0  0
   46.4940   32.5450   36.9910 C   0  0  0  0  0  0  0  0  0  0  0  0
   47.7520   32.4810   36.4900 C   0  0  0  0  0  0  0  0  0  0  0  0
   47.8630   32.2700   35.1080 C   0  0  0  0  0  0  0  0  0  0  0  0
   46.6800   32.1430   34.3710 C   0  0  0  0  0  0  0  0  0  0  0  0
   46.8080   31.9800   33.3000 H   0  0  0  0  0  0  0  0  0  0  0  0
   45.3990   32.2150   34.9270 C   0  0  0  0  0  0  0  0  0  0  0  0
   45.3630   32.4220   36.2770 N   0  0  0  0  0  0  0  0  0  0  0  0
  1  6  1  0  0  0  0
  1 21  1  0  0  0  0
  2  7  1  0  0  0  0
  2  1  1  0  0  0  0
  2  3  1  0  0  0  0
  3  4  1  0  0  0  0
  3 10  1  0  0  0  0
  4 11  1  0  0  0  0
  5  4  1  0  0  0  0
  5 14  1  0  0  0  0
  5  6  1  0  0  0  0
  6 16  1  0  0  0  0
  8  2  1  0  0  0  0
  9  3  1  0  0  0  0
 12  4  1  0  0  0  0
 13  5  1  0  0  0  0
 15  6  1  0  0  0  0
 17 23  1  0  0  0  0
 18 17  1  0  0  0  0
 18 24  1  0  0  0  0
 19 18  2  0  0  0  0
 20 21  2  0  0  0  0
 20 19  1  0  0  0  0
 21 22  1  0  0  0  0
 22 17  2  0  0  0  0
 25 19  1  0  0  0  0
 26  1  1  0  0  0  0
 27 26  2  0  0  0  0
 27 31  1  0  0  0  0
 28 27  1  0  0  0  0
 29 30  1  0  0  0  0
 29 28  2  0  0  0  0
 30 26  1  0  0  0  0
 32 28  1  0  0  0  0
 33 29  1  0  0  0  0
 34 33  1  0  0  0  0
 35 34  2  0  0  0  0
 36 38  2  0  0  0  0
 36 35  1  0  0  0  0
 37 36  1  0  0  0  0
 38 39  1  0  0  0  0
 39 33  2  0  0  0  0
M  END
>  <minimizedAffinity>
-6.08448553

>  <minimizedRMSD>
0.686377466

$$$$
