
 OpenBabel03232519563D

 23 25  0  0  0  0  0  0  0  0999 V2000
   45.6360   34.0310   41.5210 N   0  0  0  0  0  0  0  0  0  0  0  0
   46.8250   33.7250   40.9910 C   0  0  0  0  0  0  0  0  0  0  0  0
   46.5530   33.3630   39.6420 C   0  0  0  0  0  0  0  0  0  0  0  0
   45.2470   33.4660   39.4100 N   0  0  0  0  0  0  0  0  0  0  0  0
   44.6520   33.8810   40.5630 C   0  0  0  0  0  0  0  0  0  0  0  0
   47.2190   33.0450   38.8600 H   0  0  0  0  0  0  0  0  0  0  0  0
   43.6000   34.0640   40.7170 H   0  0  0  0  0  0  0  0  0  0  0  0
   44.8970   35.7870   42.9690 C   0  0  0  0  0  0  0  0  0  0  0  0
   45.3450   34.4210   42.8310 C   0  0  0  0  0  0  0  0  0  0  0  0
   45.4480   33.6190   43.9790 C   0  0  0  0  0  0  0  0  0  0  0  0
   45.1230   34.1640   45.1860 N   0  0  0  0  0  0  0  0  0  0  0  0
   44.7020   35.4670   45.2810 C   0  0  0  0  0  0  0  0  0  0  0  0
   44.5860   36.2790   44.1830 N   0  0  0  0  0  0  0  0  0  0  0  0
   44.8090   36.4130   42.1190 H   0  0  0  0  0  0  0  0  0  0  0  0
   45.7120   32.5990   43.9870 H   0  0  0  0  0  0  0  0  0  0  0  0
   44.4560   35.8550   46.2660 H   0  0  0  0  0  0  0  0  0  0  0  0
   48.1800   33.7540   41.4790 C   0  0  0  0  0  0  0  0  0  0  0  0
   49.0040   32.6690   41.2970 C   0  0  0  0  0  0  0  0  0  0  0  0
   50.3080   32.5930   41.7210 C   0  0  0  0  0  0  0  0  0  0  0  0
   50.8680   33.6580   42.3780 C   0  0  0  0  0  0  0  0  0  0  0  0
   51.8760   33.7070   42.7520 H   0  0  0  0  0  0  0  0  0  0  0  0
   50.0570   34.7510   42.5680 C   0  0  0  0  0  0  0  0  0  0  0  0
   48.8290   34.7110   42.1200 N   0  0  0  0  0  0  0  0  0  0  0  0
  1  9  1  0  0  0  0
  2 17  1  0  0  0  0
  2  1  1  0  0  0  0
  3  2  2  0  0  0  0
  4  3  1  0  0  0  0
  4  5  2  0  0  0  0
  5  7  1  0  0  0  0
  5  1  1  0  0  0  0
  6  3  1  0  0  0  0
  8 13  1  0  0  0  0
  9  8  2  0  0  0  0
  9 10  1  0  0  0  0
 10 15  1  0  0  0  0
 10 11  2  0  0  0  0
 11 12  1  0  0  0  0
 12 16  1  0  0  0  0
 13 12  2  0  0  0  0
 14  8  1  0  0  0  0
 17 23  1  0  0  0  0
 18 17  2  0  0  0  0
 18 19  1  0  0  0  0
 19 20  2  0  0  0  0
 20 22  1  0  0  0  0
 20 21  1  0  0  0  0
 23 22  2  0  0  0  0
M  END
>  <minimizedAffinity>
-4.65428782

>  <minimizedRMSD>
3.04430604

$$$$
