
 OpenBabel03232520283D

 43 47  0  0  1  0  0  0  0  0999 V2000
   46.9540   34.5380   41.3750 C   0  0  0  0  0  0  0  0  0  0  0  0
   48.2350   34.9690   41.0480 C   0  0  0  0  0  0  0  0  0  0  0  0
   48.5190   34.6690   39.7830 N   0  0  0  0  0  0  0  0  0  0  0  0
   47.4490   34.0500   39.2750 C   0  0  0  0  0  0  0  0  0  0  0  0
   47.2010   33.5270   38.0110 C   0  0  0  0  0  0  0  0  0  0  0  0
   45.9930   32.9300   37.7430 C   0  0  0  0  0  0  0  0  0  0  0  0
   44.9810   32.8090   38.6650 C   0  0  0  0  0  0  0  0  0  0  0  0
   45.2510   33.3380   39.9200 C   0  0  0  0  0  0  0  0  0  0  0  0
   46.4390   33.9450   40.2400 C   0  0  0  0  0  0  0  0  0  0  0  0
   49.4090   34.8640   39.2370 H   0  0  0  0  0  0  0  0  0  0  0  0
   47.9550   33.5860   37.2280 H   0  0  0  0  0  0  0  0  0  0  0  0
   45.8090   32.5240   36.7530 H   0  0  0  0  0  0  0  0  0  0  0  0
   44.0190   32.3550   38.5180 H   0  0  0  0  0  0  0  0  0  0  0  0
   44.5380   33.3090   40.7380 H   0  0  0  0  0  0  0  0  0  0  0  0
   44.7690   35.8870   44.0770 C   0  0  0  0  0  0  0  0  0  0  0  0
   45.4220   35.7770   42.8310 C   0  0  0  0  0  0  0  0  0  0  0  0
   46.2680   34.6730   42.6570 C   0  0  0  0  0  0  0  0  0  0  0  0
   46.4330   33.7620   43.6690 N   0  0  0  0  0  0  0  0  0  0  0  0
   45.7670   33.9420   44.8410 C   0  0  0  0  0  0  0  0  0  0  0  0
   44.9410   34.9870   45.0570 N   0  0  0  0  0  0  0  0  0  0  0  0
   44.1240   36.7560   44.1680 H   0  0  0  0  0  0  0  0  0  0  0  0
   45.3050   36.4730   42.0350 H   0  0  0  0  0  0  0  0  0  0  0  0
   45.8580   33.2570   45.6690 H   0  0  0  0  0  0  0  0  0  0  0  0
   49.1360   35.6620   41.9960 C   0  0  0  0  0  0  0  0  0  0  0  0
   48.5070   36.1660   42.7610 H   0  0  0  0  0  0  0  0  0  0  0  0
   49.6550   36.4560   41.4390 H   0  0  0  0  0  0  0  0  0  0  0  0
   50.0590   34.7050   42.6970 C   0  0  0  0  0  0  0  0  0  0  0  0
   49.6200   34.4640   43.7050 H   0  0  0  0  0  0  0  0  0  0  0  0
   51.0160   35.2500   42.8580 H   0  0  0  0  0  0  0  0  0  0  0  0
   50.3660   33.4680   41.9230 C   0  0  1  0  0  0  0  0  0  0  0  0
   50.9350   32.2610   42.5180 C   0  0  0  0  0  0  0  0  0  0  0  0
   49.4730   32.2510   42.3080 C   0  0  2  0  0  0  0  0  0  0  0  0
   50.5170   33.6070   40.8310 H   0  0  0  0  0  0  0  0  0  0  0  0
   51.6080   31.6230   41.9230 H   0  0  0  0  0  0  0  0  0  0  0  0
   51.2510   32.3480   43.5890 H   0  0  0  0  0  0  0  0  0  0  0  0
   48.7840   32.3700   43.1490 H   0  0  0  0  0  0  0  0  0  0  0  0
   49.0300   31.3890   41.1620 C   0  0  0  0  0  0  0  0  0  0  0  0
   47.8980   30.5850   41.2350 C   0  0  0  0  0  0  0  0  0  0  0  0
   47.5550   29.8200   40.1380 C   0  0  0  0  0  0  0  0  0  0  0  0
   48.2940   29.8240   38.9730 C   0  0  0  0  0  0  0  0  0  0  0  0
   48.0800   29.2530   38.0880 H   0  0  0  0  0  0  0  0  0  0  0  0
   49.4210   30.6470   38.9520 C   0  0  0  0  0  0  0  0  0  0  0  0
   49.7540   31.3960   40.0290 N   0  0  0  0  0  0  0  0  0  0  0  0
  1 17  1  0  0  0  0
  2  1  2  0  0  0  0
  2 24  1  0  0  0  0
  3  2  1  0  0  0  0
  4  3  1  0  0  0  0
  4  9  1  0  0  0  0
  5  4  2  0  0  0  0
  6  5  1  0  0  0  0
  6  7  2  0  0  0  0
  7  8  1  0  0  0  0
  8  9  2  0  0  0  0
  8 14  1  0  0  0  0
  9  1  1  0  0  0  0
 10  3  1  0  0  0  0
 11  5  1  0  0  0  0
 12  6  1  0  0  0  0
 13  7  1  0  0  0  0
 15 21  1  0  0  0  0
 15 20  1  0  0  0  0
 16 15  2  0  0  0  0
 17 16  1  0  0  0  0
 17 18  2  0  0  0  0
 18 19  1  0  0  0  0
 19 20  2  0  0  0  0
 19 23  1  0  0  0  0
 22 16  1  0  0  0  0
 24 27  1  0  0  0  0
 24 25  1  0  0  0  0
 26 24  1  0  0  0  0
 27 29  1  0  0  0  0
 27 28  1  0  0  0  0
 30 33  1  6  0  0  0
 30 32  1  0  0  0  0
 30 31  1  0  0  0  0
 30 27  1  0  0  0  0
 31 35  1  0  0  0  0
 32 31  1  0  0  0  0
 32 36  1  1  0  0  0
 34 31  1  0  0  0  0
 37 38  1  0  0  0  0
 37 32  1  0  0  0  0
 39 38  2  0  0  0  0
 40 39  1  0  0  0  0
 41 40  1  0  0  0  0
 42 40  2  0  0  0  0
 42 43  1  0  0  0  0
 43 37  2  0  0  0  0
M  END
>  <minimizedAffinity>
-5.87650347

>  <minimizedRMSD>
0.515534639

$$$$
