
 OpenBabel03232520163D

 32 34  0  0  0  0  0  0  0  0999 V2000
   47.4820   34.0560   42.3370 C   0  0  0  0  0  0  0  0  0  0  0  0
   48.3000   35.1930   41.8490 C   0  0  0  0  0  0  0  0  0  0  0  0
   49.6820   35.2820   42.4160 C   0  0  0  0  0  0  0  0  0  0  0  0
   50.4040   33.9820   42.4380 C   0  0  0  0  0  0  0  0  0  0  0  0
   49.5480   32.7900   42.1360 C   0  0  0  0  0  0  0  0  0  0  0  0
   48.2760   32.9300   42.9520 C   0  0  0  0  0  0  0  0  0  0  0  0
   48.4290   35.3020   40.7720 H   0  0  0  0  0  0  0  0  0  0  0  0
   47.7880   36.1540   42.1590 H   0  0  0  0  0  0  0  0  0  0  0  0
   49.5540   35.6300   43.4830 H   0  0  0  0  0  0  0  0  0  0  0  0
   50.2170   36.0930   41.8850 H   0  0  0  0  0  0  0  0  0  0  0  0
   51.2020   34.0230   41.6620 H   0  0  0  0  0  0  0  0  0  0  0  0
   50.9460   33.8470   43.4210 H   0  0  0  0  0  0  0  0  0  0  0  0
   49.3320   32.7570   41.0620 H   0  0  0  0  0  0  0  0  0  0  0  0
   50.1240   31.8850   42.4790 H   0  0  0  0  0  0  0  0  0  0  0  0
   47.6870   31.9950   42.9140 H   0  0  0  0  0  0  0  0  0  0  0  0
   48.5100   33.1320   44.0060 H   0  0  0  0  0  0  0  0  0  0  0  0
   45.4240   34.2600   45.4180 C   0  0  0  0  0  0  0  0  0  0  0  0
   44.5970   35.3630   45.1880 C   0  0  0  0  0  0  0  0  0  0  0  0
   44.7760   36.0270   43.9820 C   0  0  0  0  0  0  0  0  0  0  0  0
   45.7170   35.5830   43.1100 N   0  0  0  0  0  0  0  0  0  0  0  0
   46.5030   34.5100   43.3600 C   0  0  0  0  0  0  0  0  0  0  0  0
   46.3340   33.8540   44.5410 N   0  0  0  0  0  0  0  0  0  0  0  0
   45.4140   33.6250   46.3170 H   0  0  0  0  0  0  0  0  0  0  0  0
   43.8900   35.6040   45.9690 H   0  0  0  0  0  0  0  0  0  0  0  0
   44.1440   36.8770   43.8020 H   0  0  0  0  0  0  0  0  0  0  0  0
   46.5990   33.4320   41.3130 C   0  0  0  0  0  0  0  0  0  0  0  0
   46.3060   33.7920   40.0320 C   0  0  0  0  0  0  0  0  0  0  0  0
   45.4470   33.0680   39.2580 C   0  0  0  0  0  0  0  0  0  0  0  0
   44.8230   31.9170   39.7380 C   0  0  0  0  0  0  0  0  0  0  0  0
   44.1470   31.3620   39.1030 H   0  0  0  0  0  0  0  0  0  0  0  0
   45.1490   31.5890   41.0390 C   0  0  0  0  0  0  0  0  0  0  0  0
   45.9910   32.3030   41.7950 N   0  0  0  0  0  0  0  0  0  0  0  0
  1  6  1  0  0  0  0
  1 21  1  0  0  0  0
  2  8  1  0  0  0  0
  2  1  1  0  0  0  0
  2  3  1  0  0  0  0
  3  4  1  0  0  0  0
  3  9  1  0  0  0  0
  4 12  1  0  0  0  0
  5  4  1  0  0  0  0
  5 14  1  0  0  0  0
  5  6  1  0  0  0  0
  6 16  1  0  0  0  0
  7  2  1  0  0  0  0
 10  3  1  0  0  0  0
 11  4  1  0  0  0  0
 13  5  1  0  0  0  0
 15  6  1  0  0  0  0
 17 23  1  0  0  0  0
 18 17  1  0  0  0  0
 18 24  1  0  0  0  0
 19 18  2  0  0  0  0
 20 21  2  0  0  0  0
 20 19  1  0  0  0  0
 21 22  1  0  0  0  0
 22 17  2  0  0  0  0
 25 19  1  0  0  0  0
 26 32  1  0  0  0  0
 26  1  1  0  0  0  0
 27 26  2  0  0  0  0
 28 29  2  0  0  0  0
 28 27  1  0  0  0  0
 29 31  1  0  0  0  0
 30 29  1  0  0  0  0
 31 32  2  0  0  0  0
M  END
>  <minimizedAffinity>
-5.32053757

>  <minimizedRMSD>
0.573684573

$$$$
