
 OpenBabel03232520353D

 47 50  0  0  1  0  0  0  0  0999 V2000
   49.0830   35.6120   41.8580 C   0  0  0  0  0  0  0  0  0  0  0  0
   48.5150   36.1720   42.6310 H   0  0  0  0  0  0  0  0  0  0  0  0
   49.6400   36.4130   41.2990 H   0  0  0  0  0  0  0  0  0  0  0  0
   46.8380   34.5460   41.3840 C   0  0  0  0  0  0  0  0  0  0  0  0
   48.1160   34.9030   40.9740 C   0  0  0  0  0  0  0  0  0  0  0  0
   48.3460   34.5460   39.7310 N   0  0  0  0  0  0  0  0  0  0  0  0
   47.2190   33.9420   39.2950 C   0  0  0  0  0  0  0  0  0  0  0  0
   46.9370   33.3800   38.0430 C   0  0  0  0  0  0  0  0  0  0  0  0
   45.7000   32.8290   37.8640 C   0  0  0  0  0  0  0  0  0  0  0  0
   44.6970   32.7770   38.8210 C   0  0  0  0  0  0  0  0  0  0  0  0
   45.0350   33.3420   40.0230 C   0  0  0  0  0  0  0  0  0  0  0  0
   46.2440   33.9170   40.2960 C   0  0  0  0  0  0  0  0  0  0  0  0
   49.2030   34.6670   39.1170 H   0  0  0  0  0  0  0  0  0  0  0  0
   47.6580   33.3780   37.2430 H   0  0  0  0  0  0  0  0  0  0  0  0
   45.4950   32.3960   36.8850 H   0  0  0  0  0  0  0  0  0  0  0  0
   43.7520   32.3330   38.6230 H   0  0  0  0  0  0  0  0  0  0  0  0
   44.3250   33.3550   40.8380 H   0  0  0  0  0  0  0  0  0  0  0  0
   44.7200   36.0280   44.0710 C   0  0  0  0  0  0  0  0  0  0  0  0
   45.3230   35.8410   42.8100 C   0  0  0  0  0  0  0  0  0  0  0  0
   46.2030   34.7590   42.6750 C   0  0  0  0  0  0  0  0  0  0  0  0
   46.4380   33.9400   43.7560 N   0  0  0  0  0  0  0  0  0  0  0  0
   45.8270   34.1720   44.9440 C   0  0  0  0  0  0  0  0  0  0  0  0
   44.9710   35.2090   45.1040 N   0  0  0  0  0  0  0  0  0  0  0  0
   44.0480   36.8790   44.1210 H   0  0  0  0  0  0  0  0  0  0  0  0
   45.1310   36.4920   41.9660 H   0  0  0  0  0  0  0  0  0  0  0  0
   46.0350   33.5090   45.7700 H   0  0  0  0  0  0  0  0  0  0  0  0
   50.0070   34.6600   42.5400 C   0  0  0  0  0  0  0  0  0  0  0  0
   51.0440   35.0950   42.5020 H   0  0  0  0  0  0  0  0  0  0  0  0
   49.7820   34.6030   43.6250 H   0  0  0  0  0  0  0  0  0  0  0  0
   50.0770   33.2910   41.9100 C   0  0  1  0  0  0  0  0  0  0  0  0
   50.8770   32.1840   42.4460 C   0  0  0  0  0  0  0  0  0  0  0  0
   49.4320   32.2090   42.7760 C   0  0  2  0  0  0  0  0  0  0  0  0
   49.8430   33.2740   40.8320 H   0  0  0  0  0  0  0  0  0  0  0  0
   51.6400   32.4300   43.2390 H   0  0  0  0  0  0  0  0  0  0  0  0
   51.3170   31.4800   41.7110 H   0  0  0  0  0  0  0  0  0  0  0  0
   49.2280   32.5110   43.8470 H   0  0  0  0  0  0  0  0  0  0  0  0
   48.6640   31.2280   42.1640 O   0  0  0  0  0  0  0  0  0  0  0  0
   47.4120   30.8220   42.5190 C   0  0  0  0  0  0  0  0  0  0  0  0
   46.4740   30.6500   41.6980 O   0  0  0  0  0  0  0  0  0  0  0  0
   46.8910   30.5070   43.8470 N   0  0  0  0  0  0  0  0  0  0  0  0
   45.5430   30.6770   44.2510 C   0  0  0  0  0  0  0  0  0  0  0  0
   44.6920   31.1430   43.4110 N   0  0  0  0  0  0  0  0  0  0  0  0
   45.1770   30.3230   45.5900 N   0  0  0  0  0  0  0  0  0  0  0  0
   47.5520   30.1170   44.5570 H   0  0  0  0  0  0  0  0  0  0  0  0
   43.6980   31.3070   43.5900 H   0  0  0  0  0  0  0  0  0  0  0  0
   45.7550   30.9050   46.2450 H   0  0  0  0  0  0  0  0  0  0  0  0
   44.4740   29.6240   45.9460 H   0  0  0  0  0  0  0  0  0  0  0  0
  1 27  1  0  0  0  0
  1  2  1  0  0  0  0
  3  1  1  0  0  0  0
  4 20  1  0  0  0  0
  5  4  2  0  0  0  0
  5  1  1  0  0  0  0
  6  5  1  0  0  0  0
  7  6  1  0  0  0  0
  7 12  1  0  0  0  0
  8  7  2  0  0  0  0
  9  8  1  0  0  0  0
  9 10  2  0  0  0  0
 10 11  1  0  0  0  0
 11 12  2  0  0  0  0
 11 17  1  0  0  0  0
 12  4  1  0  0  0  0
 13  6  1  0  0  0  0
 14  8  1  0  0  0  0
 15  9  1  0  0  0  0
 16 10  1  0  0  0  0
 18 24  1  0  0  0  0
 18 23  1  0  0  0  0
 19 18  2  0  0  0  0
 20 19  1  0  0  0  0
 20 21  2  0  0  0  0
 21 22  1  0  0  0  0
 22 23  2  0  0  0  0
 22 26  1  0  0  0  0
 25 19  1  0  0  0  0
 27 29  1  0  0  0  0
 28 27  1  0  0  0  0
 30 33  1  6  0  0  0
 30 31  1  0  0  0  0
 30 27  1  0  0  0  0
 30 32  1  0  0  0  0
 31 32  1  0  0  0  0
 31 34  1  0  0  0  0
 32 36  1  1  0  0  0
 35 31  1  0  0  0  0
 37 38  1  0  0  0  0
 37 32  1  0  0  0  0
 38 40  1  0  0  0  0
 39 38  2  0  0  0  0
 40 41  1  0  0  0  0
 40 44  1  0  0  0  0
 41 43  1  0  0  0  0
 42 45  1  0  0  0  0
 42 41  2  0  0  0  0
 43 47  1  0  0  0  0
 43 46  1  0  0  0  0
M  END
>  <minimizedAffinity>
-5.99580145

>  <minimizedRMSD>
1.28979957

$$$$
