
 OpenBabel03232520503D

 30 32  0  0  1  0  0  0  0  0999 V2000
   46.3870   33.2270   46.0420 C   0  0  2  0  0  0  0  0  0  0  0  0
   47.0200   32.0510   45.3350 C   0  0  0  0  0  0  0  0  0  0  0  0
   47.3040   30.8650   46.1130 C   0  0  0  0  0  0  0  0  0  0  0  0
   46.9760   30.8370   47.5370 C   0  0  2  0  0  0  0  0  0  0  0  0
   46.5300   32.0990   48.1550 C   0  0  0  0  0  0  0  0  0  0  0  0
   45.5760   32.7980   47.2200 C   0  0  0  0  0  0  0  0  0  0  0  0
   47.2660   33.8200   46.4210 H   0  0  0  0  0  0  0  0  0  0  0  0
   47.3020   31.9560   44.2970 H   0  0  0  0  0  0  0  0  0  0  0  0
   47.7490   30.0230   45.6460 H   0  0  0  0  0  0  0  0  0  0  0  0
   46.1140   30.1130   47.6380 H   0  0  0  0  0  0  0  0  0  0  0  0
   47.3600   32.7800   48.4360 H   0  0  0  0  0  0  0  0  0  0  0  0
   45.9420   31.8540   49.0850 H   0  0  0  0  0  0  0  0  0  0  0  0
   44.7830   32.0810   46.9320 H   0  0  0  0  0  0  0  0  0  0  0  0
   45.1730   33.7170   47.6940 H   0  0  0  0  0  0  0  0  0  0  0  0
   45.8160   33.7910   43.7090 C   0  0  0  0  0  0  0  0  0  0  0  0
   45.6560   34.0530   45.0690 C   0  0  0  0  0  0  0  0  0  0  0  0
   44.7980   35.1220   45.4440 C   0  0  0  0  0  0  0  0  0  0  0  0
   44.1810   35.8310   44.4620 N   0  0  0  0  0  0  0  0  0  0  0  0
   44.3610   35.5460   43.1480 C   0  0  0  0  0  0  0  0  0  0  0  0
   45.1750   34.5310   42.7760 N   0  0  0  0  0  0  0  0  0  0  0  0
   46.4390   33.0090   43.2970 H   0  0  0  0  0  0  0  0  0  0  0  0
   44.6500   35.3520   46.4870 H   0  0  0  0  0  0  0  0  0  0  0  0
   43.8000   36.2020   42.4940 H   0  0  0  0  0  0  0  0  0  0  0  0
   48.0980   30.2530   48.3440 C   0  0  0  0  0  0  0  0  0  0  0  0
   48.5970   30.8990   49.4510 C   0  0  0  0  0  0  0  0  0  0  0  0
   49.6270   30.3990   50.2230 C   0  0  0  0  0  0  0  0  0  0  0  0
   50.1750   29.1840   49.8480 C   0  0  0  0  0  0  0  0  0  0  0  0
   50.9790   28.6620   50.3410 H   0  0  0  0  0  0  0  0  0  0  0  0
   49.6810   28.5320   48.7410 C   0  0  0  0  0  0  0  0  0  0  0  0
   48.6740   29.0720   48.0310 N   0  0  0  0  0  0  0  0  0  0  0  0
  1  7  1  1  0  0  0
  1  6  1  0  0  0  0
  2  1  1  0  0  0  0
  2  3  2  0  0  0  0
  3  4  1  0  0  0  0
  4 10  1  1  0  0  0
  4  5  1  0  0  0  0
  4 24  1  0  0  0  0
  5 11  1  0  0  0  0
  5 12  1  0  0  0  0
  6 14  1  0  0  0  0
  6  5  1  0  0  0  0
  8  2  1  0  0  0  0
  9  3  1  0  0  0  0
 13  6  1  0  0  0  0
 15 16  1  0  0  0  0
 16 17  2  0  0  0  0
 16  1  1  0  0  0  0
 17 22  1  0  0  0  0
 18 17  1  0  0  0  0
 19 18  2  0  0  0  0
 20 19  1  0  0  0  0
 20 15  2  0  0  0  0
 21 15  1  0  0  0  0
 23 19  1  0  0  0  0
 24 25  1  0  0  0  0
 25 26  2  0  0  0  0
 27 26  1  0  0  0  0
 27 28  1  0  0  0  0
 29 27  2  0  0  0  0
 30 24  2  0  0  0  0
 30 29  1  0  0  0  0
M  END
>  <minimizedAffinity>
-5.17781305

>  <minimizedRMSD>
7.87049818

$$$$
