
 OpenBabel03232519063D

 34 36  0  0  0  0  0  0  0  0999 V2000
   46.1080   34.1080   41.9850 C   0  0  0  0  0  0  0  0  0  0  0  0
   45.5860   33.8530   45.6150 C   0  0  0  0  0  0  0  0  0  0  0  0
   44.7820   34.9290   45.8050 C   0  0  0  0  0  0  0  0  0  0  0  0
   44.6070   35.6260   44.1380 S   0  0  0  0  0  0  0  0  0  0  0  0
   45.7200   34.2580   43.4270 C   0  0  0  0  0  0  0  0  0  0  0  0
   45.9740   33.6430   44.3850 N   0  0  0  0  0  0  0  0  0  0  0  0
   44.3440   35.2880   46.7460 H   0  0  0  0  0  0  0  0  0  0  0  0
   45.5510   31.9460   48.9150 C   0  0  0  0  0  0  0  0  0  0  0  0
   45.1580   32.7600   47.8610 C   0  0  0  0  0  0  0  0  0  0  0  0
   45.9850   32.9830   46.7550 C   0  0  0  0  0  0  0  0  0  0  0  0
   47.1640   32.3520   46.8060 N   0  0  0  0  0  0  0  0  0  0  0  0
   47.5750   31.5560   47.8120 C   0  0  0  0  0  0  0  0  0  0  0  0
   46.7610   31.3660   48.8470 N   0  0  0  0  0  0  0  0  0  0  0  0
   44.8710   31.8070   49.7470 H   0  0  0  0  0  0  0  0  0  0  0  0
   44.1910   33.2450   47.8790 H   0  0  0  0  0  0  0  0  0  0  0  0
   48.5450   31.0950   47.7500 H   0  0  0  0  0  0  0  0  0  0  0  0
   44.9210   34.5760   41.1780 C   0  0  0  0  0  0  0  0  0  0  0  0
   44.7120   35.6150   41.5150 H   0  0  0  0  0  0  0  0  0  0  0  0
   44.0480   33.9310   41.4570 H   0  0  0  0  0  0  0  0  0  0  0  0
   45.1940   34.4990   40.1110 H   0  0  0  0  0  0  0  0  0  0  0  0
   46.4020   32.6670   41.7370 C   0  0  0  0  0  0  0  0  0  0  0  0
   47.1830   32.2990   42.4110 H   0  0  0  0  0  0  0  0  0  0  0  0
   45.4600   32.1010   41.9410 H   0  0  0  0  0  0  0  0  0  0  0  0
   46.6330   32.4890   40.6650 H   0  0  0  0  0  0  0  0  0  0  0  0
   47.2890   34.9900   41.6600 C   0  0  0  0  0  0  0  0  0  0  0  0
   47.1710   35.2920   40.5920 H   0  0  0  0  0  0  0  0  0  0  0  0
   47.2440   35.9230   42.2420 H   0  0  0  0  0  0  0  0  0  0  0  0
   48.5760   34.2990   41.7790 C   0  0  0  0  0  0  0  0  0  0  0  0
   49.5510   34.2830   42.7660 C   0  0  0  0  0  0  0  0  0  0  0  0
   50.5740   33.4360   42.3310 C   0  0  0  0  0  0  0  0  0  0  0  0
   51.4670   33.2400   42.9160 H   0  0  0  0  0  0  0  0  0  0  0  0
   50.1960   32.9780   41.1270 N   0  0  0  0  0  0  0  0  0  0  0  0
   49.0190   33.4900   40.8060 N   0  0  0  0  0  0  0  0  0  0  0  0
   50.8040   32.3200   40.5960 H   0  0  0  0  0  0  0  0  0  0  0  0
  1  5  1  0  0  0  0
  2  3  2  0  0  0  0
  2 10  1  0  0  0  0
  3  7  1  0  0  0  0
  4  3  1  0  0  0  0
  5  4  1  0  0  0  0
  5  6  2  0  0  0  0
  6  2  1  0  0  0  0
  8 14  1  0  0  0  0
  9 15  1  0  0  0  0
  9  8  2  0  0  0  0
 10 11  2  0  0  0  0
 10  9  1  0  0  0  0
 11 12  1  0  0  0  0
 12 13  2  0  0  0  0
 13  8  1  0  0  0  0
 16 12  1  0  0  0  0
 17 19  1  0  0  0  0
 17 18  1  0  0  0  0
 17  1  1  0  0  0  0
 20 17  1  0  0  0  0
 21 23  1  0  0  0  0
 21  1  1  0  0  0  0
 21 22  1  0  0  0  0
 24 21  1  0  0  0  0
 25 28  1  0  0  0  0
 25  1  1  0  0  0  0
 25 27  1  0  0  0  0
 26 25  1  0  0  0  0
 28 29  1  0  0  0  0
 30 29  2  0  0  0  0
 30 31  1  0  0  0  0
 32 30  1  0  0  0  0
 33 32  1  0  0  0  0
 33 28  2  0  0  0  0
 34 32  1  0  0  0  0
M  END
>  <minimizedAffinity>
-5.65393019

>  <minimizedRMSD>
2.64926457

$$$$
