
 OpenBabel03232520503D

 29 31  0  0  1  0  0  0  0  0999 V2000
   46.1700   33.7130   45.5030 C   0  0  2  0  0  0  0  0  0  0  0  0
   45.0080   34.6710   45.6220 C   0  0  0  0  0  0  0  0  0  0  0  0
   44.6770   35.4990   44.4670 C   0  0  0  0  0  0  0  0  0  0  0  0
   45.4580   35.3750   43.2450 C   0  0  1  0  0  0  0  0  0  0  0  0
   46.6430   34.5080   43.2880 C   0  0  0  0  0  0  0  0  0  0  0  0
   46.3630   33.2730   44.0870 C   0  0  0  0  0  0  0  0  0  0  0  0
   47.0490   34.3360   45.8120 H   0  0  0  0  0  0  0  0  0  0  0  0
   44.3250   34.8880   46.4270 H   0  0  0  0  0  0  0  0  0  0  0  0
   43.8660   36.1810   44.5240 H   0  0  0  0  0  0  0  0  0  0  0  0
   45.8270   36.4180   43.0030 H   0  0  0  0  0  0  0  0  0  0  0  0
   46.9120   34.2290   42.2320 H   0  0  0  0  0  0  0  0  0  0  0  0
   47.5080   35.0650   43.7020 H   0  0  0  0  0  0  0  0  0  0  0  0
   47.2820   32.6240   44.0900 H   0  0  0  0  0  0  0  0  0  0  0  0
   45.4760   32.7560   43.7060 H   0  0  0  0  0  0  0  0  0  0  0  0
   45.2560   32.8160   47.6260 C   0  0  0  0  0  0  0  0  0  0  0  0
   45.9860   32.6060   46.4580 C   0  0  0  0  0  0  0  0  0  0  0  0
   46.5380   31.3130   46.2390 C   0  0  0  0  0  0  0  0  0  0  0  0
   46.3320   30.3490   47.1680 N   0  0  0  0  0  0  0  0  0  0  0  0
   45.6140   30.5950   48.2920 C   0  0  0  0  0  0  0  0  0  0  0  0
   45.0850   31.8120   48.5160 N   0  0  0  0  0  0  0  0  0  0  0  0
   44.7960   33.7560   47.8920 H   0  0  0  0  0  0  0  0  0  0  0  0
   47.1110   31.0960   45.3520 H   0  0  0  0  0  0  0  0  0  0  0  0
   45.4270   29.8500   49.0570 H   0  0  0  0  0  0  0  0  0  0  0  0
   44.5350   35.0390   42.0960 C   0  0  0  0  0  0  0  0  0  0  0  0
   44.8860   34.3550   40.8780 C   0  0  0  0  0  0  0  0  0  0  0  0
   43.3350   34.3100   40.0080 S   0  0  0  0  0  0  0  0  0  0  0  0
   42.4180   35.2220   41.4090 C   0  0  0  0  0  0  0  0  0  0  0  0
   41.3490   35.4510   41.3410 H   0  0  0  0  0  0  0  0  0  0  0  0
   43.2520   35.4080   42.2060 N   0  0  0  0  0  0  0  0  0  0  0  0
  1  2  1  0  0  0  0
  1  7  1  1  0  0  0
  1 16  1  0  0  0  0
  2  8  1  0  0  0  0
  3  9  1  0  0  0  0
  3  2  2  0  0  0  0
  4 10  1  6  0  0  0
  4  5  1  0  0  0  0
  4  3  1  0  0  0  0
  5 12  1  0  0  0  0
  5  6  1  0  0  0  0
  6 13  1  0  0  0  0
  6  1  1  0  0  0  0
 11  5  1  0  0  0  0
 14  6  1  0  0  0  0
 15 21  1  0  0  0  0
 15 20  1  0  0  0  0
 16 15  2  0  0  0  0
 17 16  1  0  0  0  0
 17 18  2  0  0  0  0
 18 19  1  0  0  0  0
 19 20  2  0  0  0  0
 19 23  1  0  0  0  0
 22 17  1  0  0  0  0
 24 29  1  0  0  0  0
 24  4  1  0  0  0  0
 25 24  2  0  0  0  0
 26 25  1  0  0  0  0
 26 27  1  0  0  0  0
 27 29  2  0  0  0  0
 28 27  1  0  0  0  0
M  END
>  <minimizedAffinity>
-5.17049599

>  <minimizedRMSD>
0.715218604

$$$$
