
 OpenBabel03232518333D

 34 38  0  0  1  0  0  0  0  0999 V2000
   44.7610   35.6250   44.4740 C   0  0  0  0  0  0  0  0  0  0  0  0
   45.6520   35.2810   43.4720 C   0  0  0  0  0  0  0  0  0  0  0  0
   46.5270   34.1680   43.7020 C   0  0  0  0  0  0  0  0  0  0  0  0
   46.4290   33.5180   44.8950 N   0  0  0  0  0  0  0  0  0  0  0  0
   45.5300   33.9190   45.8250 C   0  0  0  0  0  0  0  0  0  0  0  0
   44.6980   34.9650   45.6230 N   0  0  0  0  0  0  0  0  0  0  0  0
   44.1190   36.4790   44.2440 H   0  0  0  0  0  0  0  0  0  0  0  0
   45.7260   35.8010   42.5230 H   0  0  0  0  0  0  0  0  0  0  0  0
   47.5320   33.7390   42.6710 C   0  0  2  0  0  0  0  0  0  0  0  0
   48.8390   34.6090   42.6850 C   0  0  0  0  0  0  0  0  0  0  0  0
   47.8690   34.6030   41.5370 C   0  0  1  0  0  0  0  0  0  0  0  0
   47.7390   32.6530   42.6690 H   0  0  0  0  0  0  0  0  0  0  0  0
   49.7650   34.0290   42.5120 H   0  0  0  0  0  0  0  0  0  0  0  0
   48.8430   35.4660   43.3730 H   0  0  0  0  0  0  0  0  0  0  0  0
   47.3060   35.5500   41.4010 H   0  0  0  0  0  0  0  0  0  0  0  0
   48.2650   33.9000   40.2610 C   0  0  0  0  0  0  0  0  0  0  0  0
   48.8930   32.5810   40.4480 C   0  0  0  0  0  0  0  0  0  0  0  0
   49.1910   32.1140   38.7200 S   0  0  0  0  0  0  0  0  0  0  0  0
   48.4450   33.7220   38.0280 C   0  0  0  0  0  0  0  0  0  0  0  0
   48.1630   34.3940   37.0340 H   0  0  0  0  0  0  0  0  0  0  0  0
   48.0360   34.4760   39.1070 N   0  0  0  0  0  0  0  0  0  0  0  0
   45.4470   33.0440   47.3870 S   0  0  0  0  0  0  0  0  0  0  0  0
   48.6160   29.5550   48.6830 N   0  0  0  0  0  0  0  0  0  0  0  0
   48.6890   30.7000   49.4030 C   0  0  0  0  0  0  0  0  0  0  0  0
   47.7800   31.5600   48.9480 N   0  0  0  0  0  0  0  0  0  0  0  0
   47.0950   31.0060   47.9300 C   0  0  0  0  0  0  0  0  0  0  0  0
   46.0590   31.3860   47.0740 C   0  0  0  0  0  0  0  0  0  0  0  0
   45.6070   30.5620   46.1420 N   0  0  0  0  0  0  0  0  0  0  0  0
   46.1940   29.3240   46.0510 C   0  0  0  0  0  0  0  0  0  0  0  0
   47.2110   28.8860   46.8550 N   0  0  0  0  0  0  0  0  0  0  0  0
   47.6450   29.7420   47.7860 C   0  0  0  0  0  0  0  0  0  0  0  0
   49.2200   28.7120   48.8310 H   0  0  0  0  0  0  0  0  0  0  0  0
   49.3970   30.8420   50.2120 H   0  0  0  0  0  0  0  0  0  0  0  0
   45.7880   28.6850   45.2710 H   0  0  0  0  0  0  0  0  0  0  0  0
  1  6  1  0  0  0  0
  2  3  1  0  0  0  0
  2  1  2  0  0  0  0
  3  4  2  0  0  0  0
  4  5  1  0  0  0  0
  5 22  1  0  0  0  0
  6  5  2  0  0  0  0
  7  1  1  0  0  0  0
  8  2  1  0  0  0  0
  9 12  1  6  0  0  0
  9 10  1  0  0  0  0
  9  3  1  0  0  0  0
 10 14  1  0  0  0  0
 11 15  1  6  0  0  0
 11  9  1  0  0  0  0
 11 10  1  0  0  0  0
 13 10  1  0  0  0  0
 16 17  2  0  0  0  0
 16 11  1  0  0  0  0
 18 17  1  0  0  0  0
 19 18  1  0  0  0  0
 19 21  2  0  0  0  0
 20 19  1  0  0  0  0
 21 16  1  0  0  0  0
 23 32  1  0  0  0  0
 23 24  1  0  0  0  0
 24 33  1  0  0  0  0
 25 24  2  0  0  0  0
 26 25  1  0  0  0  0
 27 22  1  0  0  0  0
 27 26  2  0  0  0  0
 28 27  1  0  0  0  0
 29 28  2  0  0  0  0
 29 30  1  0  0  0  0
 30 31  2  0  0  0  0
 31 26  1  0  0  0  0
 31 23  1  0  0  0  0
 34 29  1  0  0  0  0
M  END
>  <minimizedAffinity>
-5.91712713

>  <minimizedRMSD>
0.560818076

$$$$
