
 OpenBabel03232520463D

 38 41  0  0  0  0  0  0  0  0999 V2000
   46.4700   34.6320   42.1940 C   0  0  0  0  0  0  0  0  0  0  0  0
   47.7670   35.0010   42.0530 C   0  0  0  0  0  0  0  0  0  0  0  0
   48.4630   34.8530   40.8490 C   0  0  0  0  0  0  0  0  0  0  0  0
   47.8080   34.3050   39.7400 C   0  0  0  0  0  0  0  0  0  0  0  0
   46.4970   33.9300   39.8840 C   0  0  0  0  0  0  0  0  0  0  0  0
   45.8430   34.0960   41.1010 C   0  0  0  0  0  0  0  0  0  0  0  0
   48.3530   35.4370   42.8650 H   0  0  0  0  0  0  0  0  0  0  0  0
   49.4980   35.1480   40.7340 H   0  0  0  0  0  0  0  0  0  0  0  0
   48.2680   34.1540   38.7740 H   0  0  0  0  0  0  0  0  0  0  0  0
   45.9430   33.4970   39.0470 H   0  0  0  0  0  0  0  0  0  0  0  0
   44.4850   33.6970   41.2070 N   0  0  0  0  0  0  0  0  0  0  0  0
   43.6590   34.6580   40.6830 C   0  0  0  0  0  0  0  0  0  0  0  0
   42.2720   34.4710   40.6830 C   0  0  0  0  0  0  0  0  0  0  0  0
   41.7800   33.2900   41.2280 C   0  0  0  0  0  0  0  0  0  0  0  0
   40.5420   33.0650   41.2570 O   0  0  0  0  0  0  0  0  0  0  0  0
   42.6340   32.3900   41.7250 N   0  0  0  0  0  0  0  0  0  0  0  0
   43.9630   32.5750   41.7210 C   0  0  0  0  0  0  0  0  0  0  0  0
   44.8270   31.7890   42.1630 O   0  0  0  0  0  0  0  0  0  0  0  0
   43.9560   35.5820   40.2500 H   0  0  0  0  0  0  0  0  0  0  0  0
   42.2820   31.4940   42.1400 H   0  0  0  0  0  0  0  0  0  0  0  0
   41.3350   35.4840   40.1260 C   0  0  0  0  0  0  0  0  0  0  0  0
   40.6210   35.6890   40.9770 H   0  0  0  0  0  0  0  0  0  0  0  0
   41.8490   36.4230   39.9280 H   0  0  0  0  0  0  0  0  0  0  0  0
   40.6910   35.0980   39.3190 H   0  0  0  0  0  0  0  0  0  0  0  0
   44.4260   35.9510   45.0700 C   0  0  0  0  0  0  0  0  0  0  0  0
   44.9780   35.8700   43.7920 C   0  0  0  0  0  0  0  0  0  0  0  0
   45.8340   34.8240   43.4820 C   0  0  0  0  0  0  0  0  0  0  0  0
   46.0850   33.9350   44.4470 N   0  0  0  0  0  0  0  0  0  0  0  0
   45.5390   34.0290   45.6830 C   0  0  0  0  0  0  0  0  0  0  0  0
   44.7110   35.0360   45.9920 N   0  0  0  0  0  0  0  0  0  0  0  0
   43.7700   36.8150   45.1940 H   0  0  0  0  0  0  0  0  0  0  0  0
   44.7680   36.5970   43.0200 H   0  0  0  0  0  0  0  0  0  0  0  0
   45.8290   33.0320   46.7420 C   0  0  0  0  0  0  0  0  0  0  0  0
   45.0020   32.7530   47.9020 C   0  0  0  0  0  0  0  0  0  0  0  0
   46.0210   31.4400   48.6940 S   0  0  0  0  0  0  0  0  0  0  0  0
   47.3500   31.5060   47.3410 C   0  0  0  0  0  0  0  0  0  0  0  0
   48.2440   30.8520   47.3660 H   0  0  0  0  0  0  0  0  0  0  0  0
   46.9670   32.3890   46.5220 N   0  0  0  0  0  0  0  0  0  0  0  0
  1 27  1  0  0  0  0
  2  1  1  0  0  0  0
  2  7  1  0  0  0  0
  3  2  2  0  0  0  0
  4  5  2  0  0  0  0
  4  3  1  0  0  0  0
  5  6  1  0  0  0  0
  6 11  1  0  0  0  0
  6  1  2  0  0  0  0
  8  3  1  0  0  0  0
  9  4  1  0  0  0  0
 10  5  1  0  0  0  0
 11 17  1  0  0  0  0
 12 13  2  0  0  0  0
 12 11  1  0  0  0  0
 13 14  1  0  0  0  0
 14 15  2  0  0  0  0
 14 16  1  0  0  0  0
 16 20  1  0  0  0  0
 17 16  1  0  0  0  0
 17 18  2  0  0  0  0
 19 12  1  0  0  0  0
 21 13  1  0  0  0  0
 21 22  1  0  0  0  0
 23 21  1  0  0  0  0
 24 21  1  0  0  0  0
 25 31  1  0  0  0  0
 25 30  1  0  0  0  0
 26 25  2  0  0  0  0
 27 26  1  0  0  0  0
 27 28  2  0  0  0  0
 28 29  1  0  0  0  0
 29 30  2  0  0  0  0
 29 33  1  0  0  0  0
 32 26  1  0  0  0  0
 33 34  2  0  0  0  0
 34 35  1  0  0  0  0
 36 37  1  0  0  0  0
 36 35  1  0  0  0  0
 38 33  1  0  0  0  0
 38 36  2  0  0  0  0
M  END
>  <minimizedAffinity>
-7.2869091

>  <minimizedRMSD>
0.418835014

$$$$
