
 OpenBabel03232520573D

 34 36  0  0  1  0  0  0  0  0999 V2000
   46.0920   33.5990   45.2640 C   0  0  2  0  0  0  0  0  0  0  0  0
   44.9740   34.7050   45.4970 C   0  0  0  0  0  0  0  0  0  0  0  0
   44.7370   35.6360   44.4210 C   0  0  0  0  0  0  0  0  0  0  0  0
   45.4890   35.5390   43.1810 C   0  0  1  0  0  0  0  0  0  0  0  0
   46.5590   34.5040   43.1200 C   0  0  0  0  0  0  0  0  0  0  0  0
   46.0580   33.2830   43.8730 C   0  0  0  0  0  0  0  0  0  0  0  0
   46.9470   34.2710   45.5710 H   0  0  0  0  0  0  0  0  0  0  0  0
   44.2960   34.9580   46.3110 H   0  0  0  0  0  0  0  0  0  0  0  0
   44.0060   36.4050   44.5010 H   0  0  0  0  0  0  0  0  0  0  0  0
   45.9480   36.5230   42.9200 H   0  0  0  0  0  0  0  0  0  0  0  0
   46.6870   34.2070   42.0600 H   0  0  0  0  0  0  0  0  0  0  0  0
   47.5240   34.8230   43.5560 H   0  0  0  0  0  0  0  0  0  0  0  0
   44.9360   33.2550   43.5670 H   0  0  0  0  0  0  0  0  0  0  0  0
   46.4650   32.4610   43.3630 H   0  0  0  0  0  0  0  0  0  0  0  0
   45.3380   32.8790   47.5100 C   0  0  0  0  0  0  0  0  0  0  0  0
   45.8710   32.6120   46.2780 C   0  0  0  0  0  0  0  0  0  0  0  0
   46.1280   31.2750   46.0200 C   0  0  0  0  0  0  0  0  0  0  0  0
   45.8710   30.3120   46.9140 N   0  0  0  0  0  0  0  0  0  0  0  0
   45.3360   30.6140   48.1450 C   0  0  0  0  0  0  0  0  0  0  0  0
   45.0780   31.8870   48.4230 N   0  0  0  0  0  0  0  0  0  0  0  0
   45.1100   29.5820   49.1090 N   0  0  0  0  0  0  0  0  0  0  0  0
   45.1050   33.8650   47.8130 H   0  0  0  0  0  0  0  0  0  0  0  0
   45.6990   28.7330   49.1440 H   0  0  0  0  0  0  0  0  0  0  0  0
   44.3160   29.7440   49.7720 H   0  0  0  0  0  0  0  0  0  0  0  0
   46.7460   30.6140   44.8760 C   0  0  0  0  0  0  0  0  0  0  0  0
   46.0640   29.8620   43.8810 C   0  0  0  0  0  3  0  0  0  0  0  0
   47.4700   29.2450   42.8580 S   0  0  0  0  0  0  0  0  0  0  0  0
   48.7290   30.1240   43.9750 C   0  0  0  0  0  0  0  0  0  0  0  0
   49.8560   30.0940   43.8150 H   0  0  0  0  0  0  0  0  0  0  0  0
   48.0810   30.6260   44.7530 N   0  0  0  0  0  0  0  0  0  0  0  0
   44.4700   35.2760   42.0430 C   0  0  0  0  0  0  0  0  0  0  0  0
   43.4160   34.4840   42.4360 F   0  0  0  0  0  0  0  0  0  0  0  0
   43.9350   36.5190   41.7140 F   0  0  0  0  0  0  0  0  0  0  0  0
   45.1200   34.8090   40.9180 F   0  0  0  0  0  0  0  0  0  0  0  0
  1  2  1  0  0  0  0
  1  7  1  1  0  0  0
  1 16  1  0  0  0  0
  2  8  1  0  0  0  0
  3  9  1  0  0  0  0
  3  2  2  0  0  0  0
  4 10  1  6  0  0  0
  4  3  1  0  0  0  0
  5  4  1  0  0  0  0
  5 12  1  0  0  0  0
  5  6  1  0  0  0  0
  6  1  1  0  0  0  0
 11  5  1  0  0  0  0
 13  6  1  0  0  0  0
 14  6  1  0  0  0  0
 15 22  1  0  0  0  0
 15 20  1  0  0  0  0
 16 15  2  0  0  0  0
 17 16  1  0  0  0  0
 17 18  2  0  0  0  0
 18 19  1  0  0  0  0
 19 20  2  0  0  0  0
 19 21  1  0  0  0  0
 21 23  1  0  0  0  0
 21 24  1  0  0  0  0
 25 17  1  0  0  0  0
 26 25  2  0  0  0  0
 27 26  1  0  0  0  0
 27 28  1  0  0  0  0
 28 30  2  0  0  0  0
 29 28  1  0  0  0  0
 30 25  1  0  0  0  0
 31 32  1  0  0  0  0
 31  4  1  0  0  0  0
 33 31  1  0  0  0  0
 34 31  1  0  0  0  0
M  END
>  <minimizedAffinity>
-5.57927847

>  <minimizedRMSD>
0.242038742

$$$$
