
 OpenBabel03232520563D

 34 36  0  0  1  0  0  0  0  0999 V2000
   45.8870   33.4470   44.5130 C   0  0  2  0  0  0  0  0  0  0  0  0
   45.2220   34.8630   44.7910 C   0  0  0  0  0  0  0  0  0  0  0  0
   44.8020   35.6290   43.6430 C   0  0  0  0  0  0  0  0  0  0  0  0
   44.9760   35.1020   42.3000 C   0  0  1  0  0  0  0  0  0  0  0  0
   45.6790   33.7950   42.1730 C   0  0  0  0  0  0  0  0  0  0  0  0
   45.2500   32.9290   43.3460 C   0  0  0  0  0  0  0  0  0  0  0  0
   46.9210   33.8670   44.3340 H   0  0  0  0  0  0  0  0  0  0  0  0
   44.9850   35.4430   45.6820 H   0  0  0  0  0  0  0  0  0  0  0  0
   44.3490   36.5870   43.7480 H   0  0  0  0  0  0  0  0  0  0  0  0
   45.5050   35.8410   41.6520 H   0  0  0  0  0  0  0  0  0  0  0  0
   45.3200   33.3010   41.2500 H   0  0  0  0  0  0  0  0  0  0  0  0
   46.7830   33.8730   42.1710 H   0  0  0  0  0  0  0  0  0  0  0  0
   44.1220   33.1930   43.4400 H   0  0  0  0  0  0  0  0  0  0  0  0
   45.2350   31.9480   42.9700 H   0  0  0  0  0  0  0  0  0  0  0  0
   45.4130   33.3070   46.9390 C   0  0  0  0  0  0  0  0  0  0  0  0
   45.8600   32.7580   45.7680 C   0  0  0  0  0  0  0  0  0  0  0  0
   46.2330   31.4250   45.8420 C   0  0  0  0  0  0  0  0  0  0  0  0
   46.1580   30.7230   46.9790 N   0  0  0  0  0  0  0  0  0  0  0  0
   45.7050   31.3060   48.1410 C   0  0  0  0  0  0  0  0  0  0  0  0
   45.3400   32.5830   48.1030 N   0  0  0  0  0  0  0  0  0  0  0  0
   45.6740   30.5600   49.3600 N   0  0  0  0  0  0  0  0  0  0  0  0
   45.1060   34.3170   46.9970 H   0  0  0  0  0  0  0  0  0  0  0  0
   46.3490   29.8000   49.5500 H   0  0  0  0  0  0  0  0  0  0  0  0
   44.9280   30.8340   50.0440 H   0  0  0  0  0  0  0  0  0  0  0  0
   46.8130   30.5280   44.8480 C   0  0  0  0  0  0  0  0  0  0  0  0
   46.1760   29.3940   44.2760 C   0  0  0  0  0  3  0  0  0  0  0  0
   47.5260   28.7010   43.2280 S   0  0  0  0  0  0  0  0  0  0  0  0
   48.7130   30.0850   43.7620 C   0  0  0  0  0  0  0  0  0  0  0  0
   49.7880   30.1800   43.4000 H   0  0  0  0  0  0  0  0  0  0  0  0
   48.0860   30.7070   44.4680 N   0  0  0  0  0  0  0  0  0  0  0  0
   43.5650   34.9760   41.6680 C   0  0  0  0  0  0  0  0  0  0  0  0
   42.5600   35.4010   42.5060 F   0  0  0  0  0  0  0  0  0  0  0  0
   43.5600   35.8330   40.5700 F   0  0  0  0  0  0  0  0  0  0  0  0
   43.3730   33.6990   41.1810 F   0  0  0  0  0  0  0  0  0  0  0  0
  1  7  1  6  0  0  0
  1  2  1  0  0  0  0
  1 16  1  0  0  0  0
  2  8  1  0  0  0  0
  3  9  1  0  0  0  0
  3  2  2  0  0  0  0
  4 10  1  6  0  0  0
  4  3  1  0  0  0  0
  5  4  1  0  0  0  0
  5  6  1  0  0  0  0
  6 13  1  0  0  0  0
  6  1  1  0  0  0  0
 11  5  1  0  0  0  0
 12  5  1  0  0  0  0
 14  6  1  0  0  0  0
 15 22  1  0  0  0  0
 15 20  1  0  0  0  0
 16 17  1  0  0  0  0
 16 15  2  0  0  0  0
 17 18  2  0  0  0  0
 18 19  1  0  0  0  0
 19 21  1  0  0  0  0
 20 19  2  0  0  0  0
 21 23  1  0  0  0  0
 21 24  1  0  0  0  0
 25 17  1  0  0  0  0
 26 25  2  0  0  0  0
 27 28  1  0  0  0  0
 27 26  1  0  0  0  0
 28 30  2  0  0  0  0
 29 28  1  0  0  0  0
 30 25  1  0  0  0  0
 31  4  1  0  0  0  0
 31 32  1  0  0  0  0
 33 31  1  0  0  0  0
 34 31  1  0  0  0  0
M  END
>  <minimizedAffinity>
-4.98949051

>  <minimizedRMSD>
1.10585845

$$$$
