
 OpenBabel03232520333D

 47 52  0  0  1  0  0  0  0  0999 V2000
   49.1310   35.3510   41.9690 C   0  0  0  0  0  0  0  0  0  0  0  0
   48.5780   35.8150   42.8280 H   0  0  0  0  0  0  0  0  0  0  0  0
   49.6590   36.2010   41.4710 H   0  0  0  0  0  0  0  0  0  0  0  0
   46.8370   34.4560   41.3810 C   0  0  0  0  0  0  0  0  0  0  0  0
   48.1550   34.7430   41.0280 C   0  0  0  0  0  0  0  0  0  0  0  0
   48.3900   34.4060   39.7810 N   0  0  0  0  0  0  0  0  0  0  0  0
   47.2420   33.8930   39.2910 C   0  0  0  0  0  0  0  0  0  0  0  0
   46.9620   33.3900   38.0200 C   0  0  0  0  0  0  0  0  0  0  0  0
   45.6970   32.9220   37.7740 C   0  0  0  0  0  0  0  0  0  0  0  0
   44.6720   32.9110   38.6990 C   0  0  0  0  0  0  0  0  0  0  0  0
   45.0080   33.4180   39.9300 C   0  0  0  0  0  0  0  0  0  0  0  0
   46.2420   33.9040   40.2570 C   0  0  0  0  0  0  0  0  0  0  0  0
   49.2770   34.4910   39.2120 H   0  0  0  0  0  0  0  0  0  0  0  0
   47.7080   33.3710   37.2630 H   0  0  0  0  0  0  0  0  0  0  0  0
   45.5090   32.5370   36.7780 H   0  0  0  0  0  0  0  0  0  0  0  0
   43.6810   32.5370   38.4830 H   0  0  0  0  0  0  0  0  0  0  0  0
   44.2360   33.4340   40.7000 H   0  0  0  0  0  0  0  0  0  0  0  0
   44.7640   36.0170   44.0490 C   0  0  0  0  0  0  0  0  0  0  0  0
   45.3980   35.8260   42.8020 C   0  0  0  0  0  0  0  0  0  0  0  0
   46.1740   34.6720   42.6610 C   0  0  0  0  0  0  0  0  0  0  0  0
   46.2950   33.7900   43.6970 N   0  0  0  0  0  0  0  0  0  0  0  0
   45.6540   34.0360   44.8760 C   0  0  0  0  0  0  0  0  0  0  0  0
   44.8970   35.1350   45.0540 N   0  0  0  0  0  0  0  0  0  0  0  0
   44.1660   36.8960   44.1720 H   0  0  0  0  0  0  0  0  0  0  0  0
   45.2990   36.5280   41.9820 H   0  0  0  0  0  0  0  0  0  0  0  0
   45.8560   33.2430   45.5850 H   0  0  0  0  0  0  0  0  0  0  0  0
   50.0730   34.3380   42.5320 C   0  0  0  0  0  0  0  0  0  0  0  0
   49.9670   34.2160   43.6370 H   0  0  0  0  0  0  0  0  0  0  0  0
   51.1040   34.7370   42.3870 H   0  0  0  0  0  0  0  0  0  0  0  0
   50.0190   33.0000   41.8630 C   0  0  1  0  0  0  0  0  0  0  0  0
   51.1950   32.2620   41.4150 C   0  0  0  0  0  0  0  0  0  0  0  0
   50.5820   31.8430   42.7090 C   0  0  2  0  0  0  0  0  0  0  0  0
   49.0700   32.7510   41.3210 H   0  0  0  0  0  0  0  0  0  0  0  0
   51.1350   31.5840   40.5510 H   0  0  0  0  0  0  0  0  0  0  0  0
   52.1670   32.7910   41.5030 H   0  0  0  0  0  0  0  0  0  0  0  0
   51.1190   32.1030   43.6550 H   0  0  0  0  0  0  0  0  0  0  0  0
   49.9320   30.6490   42.7120 O   0  0  0  0  0  0  0  0  0  0  0  0
   49.8870   29.8020   43.8110 C   0  0  0  0  0  0  0  0  0  0  0  0
   50.6790   28.7960   44.3400 C   0  0  0  0  0  0  0  0  0  0  0  0
   50.0920   28.3350   45.4550 N   0  0  0  0  0  0  0  0  0  0  0  0
   48.9310   28.9890   45.7060 C   0  0  0  0  0  0  0  0  0  0  0  0
   48.0650   28.8000   46.7380 C   0  0  0  0  0  0  0  0  0  0  0  0
   46.9490   29.6010   46.7640 C   0  0  0  0  0  0  0  0  0  0  0  0
   46.7380   30.5500   45.7720 C   0  0  0  0  0  0  0  0  0  0  0  0
   47.6570   30.6850   44.7580 C   0  0  0  0  0  0  0  0  0  0  0  0
   48.7940   29.9160   44.6750 C   0  0  0  0  0  0  0  0  0  0  0  0
   50.5720   27.5550   45.9890 H   0  0  0  0  0  0  0  0  0  0  0  0
  1 27  1  0  0  0  0
  1  2  1  0  0  0  0
  3  1  1  0  0  0  0
  4 20  1  0  0  0  0
  5  4  2  0  0  0  0
  5  1  1  0  0  0  0
  6  5  1  0  0  0  0
  7  6  1  0  0  0  0
  7 12  1  0  0  0  0
  8  7  2  0  0  0  0
  9  8  1  0  0  0  0
  9 10  2  0  0  0  0
 10 11  1  0  0  0  0
 11 12  2  0  0  0  0
 11 17  1  0  0  0  0
 12  4  1  0  0  0  0
 13  6  1  0  0  0  0
 14  8  1  0  0  0  0
 15  9  1  0  0  0  0
 16 10  1  0  0  0  0
 18 24  1  0  0  0  0
 18 23  1  0  0  0  0
 19 18  2  0  0  0  0
 20 19  1  0  0  0  0
 20 21  2  0  0  0  0
 21 22  1  0  0  0  0
 22 23  2  0  0  0  0
 22 26  1  0  0  0  0
 25 19  1  0  0  0  0
 27 28  1  0  0  0  0
 29 27  1  0  0  0  0
 30 33  1  6  0  0  0
 30 27  1  0  0  0  0
 30 32  1  0  0  0  0
 31 35  1  0  0  0  0
 31 30  1  0  0  0  0
 31 32  1  0  0  0  0
 32 37  1  0  0  0  0
 32 36  1  1  0  0  0
 34 31  1  0  0  0  0
 37 38  1  0  0  0  0
 38 39  2  0  0  0  0
 38 46  1  0  0  0  0
 39 40  1  0  0  0  0
 40 41  1  0  0  0  0
 40 47  1  0  0  0  0
 41 42  1  0  0  0  0
 42 43  2  0  0  0  0
 44 43  1  0  0  0  0
 45 44  2  0  0  0  0
 46 45  1  0  0  0  0
 46 41  2  0  0  0  0
M  END
>  <minimizedAffinity>
-6.02663088

>  <minimizedRMSD>
3.01555395

$$$$
