
 OpenBabel03232519293D

 37 39  0  0  1  0  0  0  0  0999 V2000
   47.2130   34.2870   40.1870 C   0  0  1  0  0  0  0  0  0  0  0  0
   48.3730   34.3800   39.1680 C   0  0  0  0  0  0  0  0  0  0  0  0
   47.7740   34.0020   37.8280 C   0  0  0  0  0  0  0  0  0  0  0  0
   47.3580   32.5490   37.8400 C   0  0  0  0  0  0  0  0  0  0  0  0
   47.4560   31.9770   39.2440 C   0  0  0  0  0  0  0  0  0  0  0  0
   46.7790   32.8800   40.2750 C   0  0  2  0  0  0  0  0  0  0  0  0
   46.4690   35.0210   39.8490 H   0  0  0  0  0  0  0  0  0  0  0  0
   48.7640   35.4110   39.1430 H   0  0  0  0  0  0  0  0  0  0  0  0
   49.1450   33.6530   39.4960 H   0  0  0  0  0  0  0  0  0  0  0  0
   48.6100   34.1510   37.0910 H   0  0  0  0  0  0  0  0  0  0  0  0
   46.9840   34.7050   37.5750 H   0  0  0  0  0  0  0  0  0  0  0  0
   48.1020   31.9590   37.2430 H   0  0  0  0  0  0  0  0  0  0  0  0
   46.3640   32.3780   37.4200 H   0  0  0  0  0  0  0  0  0  0  0  0
   46.9010   31.0120   39.2520 H   0  0  0  0  0  0  0  0  0  0  0  0
   48.4940   31.7210   39.5150 H   0  0  0  0  0  0  0  0  0  0  0  0
   47.1490   32.4450   41.2510 H   0  0  0  0  0  0  0  0  0  0  0  0
   45.3240   32.6400   40.0530 C   0  0  0  0  0  0  0  0  0  0  0  0
   44.4400   33.7050   39.9590 C   0  0  0  0  0  0  0  0  0  0  0  0
   42.8420   32.8320   39.6780 S   0  0  0  0  0  0  0  0  0  0  0  0
   43.6660   31.1620   39.7380 C   0  0  0  0  0  0  0  0  0  0  0  0
   43.1930   30.1740   39.6260 H   0  0  0  0  0  0  0  0  0  0  0  0
   44.8190   31.4300   39.9270 N   0  0  0  0  0  0  0  0  0  0  0  0
   47.7430   34.8160   41.5350 C   0  0  0  0  0  0  0  0  0  0  0  0
   47.5170   35.8550   41.7100 H   0  0  0  0  0  0  0  0  0  0  0  0
   48.8690   34.6530   41.4250 H   0  0  0  0  0  0  0  0  0  0  0  0
   47.2920   33.8210   42.5710 C   0  0  0  0  0  0  0  0  0  0  0  0
   48.1470   33.3880   43.1530 H   0  0  0  0  0  0  0  0  0  0  0  0
   46.7060   32.9740   42.1030 H   0  0  0  0  0  0  0  0  0  0  0  0
   46.1400   33.8220   44.7210 C   0  0  0  0  0  0  0  0  0  0  0  0
   46.3520   34.4350   43.4710 C   0  0  0  0  0  0  0  0  0  0  0  0
   45.6520   35.5700   43.1440 C   0  0  0  0  0  0  0  0  0  0  0  0
   44.7700   36.0510   44.0700 N   0  0  0  0  0  0  0  0  0  0  0  0
   44.5670   35.4580   45.2720 C   0  0  0  0  0  0  0  0  0  0  0  0
   45.2590   34.3370   45.5950 N   0  0  0  0  0  0  0  0  0  0  0  0
   46.6980   32.9290   44.9680 H   0  0  0  0  0  0  0  0  0  0  0  0
   45.6950   36.1410   42.2340 H   0  0  0  0  0  0  0  0  0  0  0  0
   43.8450   35.9190   45.9340 H   0  0  0  0  0  0  0  0  0  0  0  0
  1  7  1  6  0  0  0
  1  6  1  0  0  0  0
  1 23  1  0  0  0  0
  2  9  1  0  0  0  0
  2  1  1  0  0  0  0
  3  4  1  0  0  0  0
  3  2  1  0  0  0  0
  4  5  1  0  0  0  0
  5 14  1  0  0  0  0
  5 15  1  0  0  0  0
  5  6  1  0  0  0  0
  6 16  1  1  0  0  0
  8  2  1  0  0  0  0
 10  3  1  0  0  0  0
 11  3  1  0  0  0  0
 12  4  1  0  0  0  0
 13  4  1  0  0  0  0
 17  6  1  0  0  0  0
 18 17  2  0  0  0  0
 19 20  1  0  0  0  0
 19 18  1  0  0  0  0
 20 22  2  0  0  0  0
 21 20  1  0  0  0  0
 22 17  1  0  0  0  0
 23 24  1  0  0  0  0
 23 26  1  0  0  0  0
 25 23  1  0  0  0  0
 26 27  1  0  0  0  0
 26 30  1  0  0  0  0
 28 26  1  0  0  0  0
 29 35  1  0  0  0  0
 29 34  1  0  0  0  0
 30 29  2  0  0  0  0
 31 30  1  0  0  0  0
 31 32  2  0  0  0  0
 32 33  1  0  0  0  0
 33 34  2  0  0  0  0
 33 37  1  0  0  0  0
 36 31  1  0  0  0  0
M  END
>  <minimizedAffinity>
-4.36411619

>  <minimizedRMSD>
1.37331498

$$$$
