
 OpenBabel03232520063D

 30 33  0  0  0  0  0  0  0  0999 V2000
   46.1770   30.3750   49.1300 N   0  0  0  0  0  0  0  0  0  0  0  0
   45.3000   31.3880   49.4420 C   0  0  0  0  0  0  0  0  0  0  0  0
   45.2380   32.2160   48.3610 N   0  0  0  0  0  0  0  0  0  0  0  0
   46.0670   31.6910   47.4430 C   0  0  0  0  0  0  0  0  0  0  0  0
   46.3180   32.2020   46.1880 C   0  0  0  0  0  0  0  0  0  0  0  0
   47.1980   31.5140   45.3990 N   0  0  0  0  0  0  0  0  0  0  0  0
   47.7910   30.3920   45.8280 C   0  0  0  0  0  0  0  0  0  0  0  0
   47.5150   29.9310   47.0580 N   0  0  0  0  0  0  0  0  0  0  0  0
   46.6770   30.5340   47.8850 C   0  0  0  0  0  0  0  0  0  0  0  0
   46.4670   29.5580   49.7320 H   0  0  0  0  0  0  0  0  0  0  0  0
   44.7710   31.4790   50.3810 H   0  0  0  0  0  0  0  0  0  0  0  0
   48.7380   29.6120   45.0390 C   0  0  0  0  0  0  0  0  0  0  0  0
   49.4230   28.4410   45.1380 C   0  0  0  0  0  0  0  0  0  0  0  0
   50.1620   28.3250   43.9800 C   0  0  0  0  0  0  0  0  0  0  0  0
   49.8970   29.4340   43.2200 C   0  0  0  0  0  0  0  0  0  0  0  0
   50.3380   29.6260   42.2400 H   0  0  0  0  0  0  0  0  0  0  0  0
   49.0430   30.1810   43.8820 O   0  0  0  0  0  0  0  0  0  0  0  0
   45.6380   33.6590   45.4470 S   0  0  0  0  0  0  0  0  0  0  0  0
   47.7730   34.7110   42.3480 C   0  0  0  0  0  0  0  0  0  0  0  0
   47.0690   34.3330   41.2200 C   0  0  0  0  0  0  0  0  0  0  0  0
   45.8460   33.7070   41.4320 C   0  0  0  0  0  0  0  0  0  0  0  0
   45.4170   33.5060   42.7120 N   0  0  0  0  0  0  0  0  0  0  0  0
   46.1600   33.9020   43.7710 C   0  0  0  0  0  0  0  0  0  0  0  0
   47.3200   34.4960   43.5730 N   0  0  0  0  0  0  0  0  0  0  0  0
   47.3970   34.4860   40.1890 H   0  0  0  0  0  0  0  0  0  0  0  0
   45.2040   33.3660   40.6290 H   0  0  0  0  0  0  0  0  0  0  0  0
   49.0800   35.3790   42.1410 C   0  0  0  0  0  0  0  0  0  0  0  0
   49.2510   36.1520   41.1780 O   0  0  0  0  0  0  0  0  0  0  0  0
   50.1100   35.1380   43.0280 O   0  0  0  0  0  0  0  0  0  0  0  0
   51.0700   35.0640   42.6640 H   0  0  0  0  0  0  0  0  0  0  0  0
  1  2  1  0  0  0  0
  1 10  1  0  0  0  0
  2 11  1  0  0  0  0
  3  2  2  0  0  0  0
  4  9  1  0  0  0  0
  4  3  1  0  0  0  0
  5  4  2  0  0  0  0
  6  7  2  0  0  0  0
  6  5  1  0  0  0  0
  7  8  1  0  0  0  0
  8  9  2  0  0  0  0
  9  1  1  0  0  0  0
 12 13  2  0  0  0  0
 12  7  1  0  0  0  0
 14 13  1  0  0  0  0
 15 17  1  0  0  0  0
 15 14  2  0  0  0  0
 16 15  1  0  0  0  0
 17 12  1  0  0  0  0
 18  5  1  0  0  0  0
 19 24  1  0  0  0  0
 20 21  1  0  0  0  0
 20 19  2  0  0  0  0
 21 22  2  0  0  0  0
 22 23  1  0  0  0  0
 23 18  1  0  0  0  0
 24 23  2  0  0  0  0
 25 20  1  0  0  0  0
 26 21  1  0  0  0  0
 27 19  1  0  0  0  0
 27 29  1  0  0  0  0
 28 27  2  0  0  0  0
 30 29  1  0  0  0  0
M  END
>  <minimizedAffinity>
-5.74169064

>  <minimizedRMSD>
0.616977394

$$$$
