
 OpenBabel03232520333D

 47 52  0  0  1  0  0  0  0  0999 V2000
   49.0760   35.4260   41.9730 C   0  0  0  0  0  0  0  0  0  0  0  0
   48.5560   35.9620   42.7930 H   0  0  0  0  0  0  0  0  0  0  0  0
   49.6670   36.1810   41.4170 H   0  0  0  0  0  0  0  0  0  0  0  0
   46.8030   34.4700   41.4210 C   0  0  0  0  0  0  0  0  0  0  0  0
   48.1060   34.7850   41.0530 C   0  0  0  0  0  0  0  0  0  0  0  0
   48.3380   34.4370   39.7990 N   0  0  0  0  0  0  0  0  0  0  0  0
   47.1890   33.8900   39.3340 C   0  0  0  0  0  0  0  0  0  0  0  0
   46.9020   33.3620   38.0680 C   0  0  0  0  0  0  0  0  0  0  0  0
   45.6540   32.8640   37.8470 C   0  0  0  0  0  0  0  0  0  0  0  0
   44.6340   32.8390   38.7840 C   0  0  0  0  0  0  0  0  0  0  0  0
   44.9820   33.3700   40.0010 C   0  0  0  0  0  0  0  0  0  0  0  0
   46.2160   33.8920   40.3070 C   0  0  0  0  0  0  0  0  0  0  0  0
   49.2120   34.5300   39.2040 H   0  0  0  0  0  0  0  0  0  0  0  0
   47.6590   33.3480   37.2770 H   0  0  0  0  0  0  0  0  0  0  0  0
   45.4590   32.4600   36.8500 H   0  0  0  0  0  0  0  0  0  0  0  0
   43.6550   32.4380   38.5800 H   0  0  0  0  0  0  0  0  0  0  0  0
   44.2540   33.4010   40.8120 H   0  0  0  0  0  0  0  0  0  0  0  0
   44.7380   36.0410   44.0970 C   0  0  0  0  0  0  0  0  0  0  0  0
   45.3660   35.8440   42.8600 C   0  0  0  0  0  0  0  0  0  0  0  0
   46.1440   34.6850   42.7080 C   0  0  0  0  0  0  0  0  0  0  0  0
   46.2650   33.8040   43.7470 N   0  0  0  0  0  0  0  0  0  0  0  0
   45.6310   34.0540   44.9230 C   0  0  0  0  0  0  0  0  0  0  0  0
   44.8720   35.1620   45.1010 N   0  0  0  0  0  0  0  0  0  0  0  0
   44.1260   36.9170   44.2700 H   0  0  0  0  0  0  0  0  0  0  0  0
   45.2340   36.5740   42.0750 H   0  0  0  0  0  0  0  0  0  0  0  0
   45.8570   33.2390   45.6040 H   0  0  0  0  0  0  0  0  0  0  0  0
   50.0290   34.4280   42.5630 C   0  0  0  0  0  0  0  0  0  0  0  0
   49.6950   34.2330   43.6070 H   0  0  0  0  0  0  0  0  0  0  0  0
   51.0480   34.8820   42.6310 H   0  0  0  0  0  0  0  0  0  0  0  0
   50.1670   33.1600   41.7610 C   0  0  1  0  0  0  0  0  0  0  0  0
   51.4010   32.4040   41.6460 C   0  0  0  0  0  0  0  0  0  0  0  0
   50.3980   31.9040   42.6260 C   0  0  2  0  0  0  0  0  0  0  0  0
   49.4380   33.0660   40.9360 H   0  0  0  0  0  0  0  0  0  0  0  0
   52.3680   32.7730   42.0480 H   0  0  0  0  0  0  0  0  0  0  0  0
   51.5770   31.8230   40.7010 H   0  0  0  0  0  0  0  0  0  0  0  0
   50.6300   32.0680   43.6930 H   0  0  0  0  0  0  0  0  0  0  0  0
   49.7360   30.7540   42.3170 O   0  0  0  0  0  0  0  0  0  0  0  0
   48.4240   30.5440   42.0330 C   0  0  0  0  0  0  0  0  0  0  0  0
   47.9400   30.3920   40.7510 C   0  0  0  0  0  0  0  0  0  0  0  0
   46.6150   30.1740   40.3850 C   0  0  0  0  0  0  0  0  0  0  0  0
   45.7170   30.1090   41.4550 C   0  0  0  0  0  0  0  0  0  0  0  0
   46.1760   30.2560   42.7470 C   0  0  0  0  0  0  0  0  0  0  0  0
   45.2010   30.1740   43.7370 C   0  0  0  0  0  0  0  0  0  0  0  0
   45.5930   30.3150   45.0610 C   0  0  0  0  0  0  0  0  0  0  0  0
   46.9130   30.5320   45.4190 C   0  0  0  0  0  0  0  0  0  0  0  0
   47.8390   30.6040   44.3910 C   0  0  0  0  0  0  0  0  0  0  0  0
   47.4960   30.4710   43.0630 C   0  0  0  0  0  0  0  0  0  0  0  0
  1 27  1  0  0  0  0
  1  2  1  0  0  0  0
  3  1  1  0  0  0  0
  4 20  1  0  0  0  0
  5  4  2  0  0  0  0
  5  1  1  0  0  0  0
  6  5  1  0  0  0  0
  7  6  1  0  0  0  0
  7 12  1  0  0  0  0
  8  7  2  0  0  0  0
  9  8  1  0  0  0  0
  9 10  2  0  0  0  0
 10 11  1  0  0  0  0
 11 12  2  0  0  0  0
 11 17  1  0  0  0  0
 12  4  1  0  0  0  0
 13  6  1  0  0  0  0
 14  8  1  0  0  0  0
 15  9  1  0  0  0  0
 16 10  1  0  0  0  0
 18 24  1  0  0  0  0
 18 23  1  0  0  0  0
 19 18  2  0  0  0  0
 20 19  1  0  0  0  0
 20 21  2  0  0  0  0
 21 22  1  0  0  0  0
 22 23  2  0  0  0  0
 22 26  1  0  0  0  0
 25 19  1  0  0  0  0
 27 29  1  0  0  0  0
 27 28  1  0  0  0  0
 30 33  1  6  0  0  0
 30 27  1  0  0  0  0
 30 32  1  0  0  0  0
 31 30  1  0  0  0  0
 31 34  1  0  0  0  0
 31 32  1  0  0  0  0
 32 36  1  1  0  0  0
 35 31  1  0  0  0  0
 37 32  1  0  0  0  0
 38 37  1  0  0  0  0
 38 47  1  0  0  0  0
 39 38  2  0  0  0  0
 40 39  1  0  0  0  0
 40 41  2  0  0  0  0
 41 42  1  0  0  0  0
 42 47  2  0  0  0  0
 42 43  1  0  0  0  0
 43 44  2  0  0  0  0
 44 45  1  0  0  0  0
 46 45  2  0  0  0  0
 47 46  1  0  0  0  0
M  END
>  <minimizedAffinity>
-5.86521578

>  <minimizedRMSD>
0.796435893

$$$$
