
 OpenBabel03232520463D

 38 41  0  0  0  0  0  0  0  0999 V2000
   46.4180   34.6820   42.1700 C   0  0  0  0  0  0  0  0  0  0  0  0
   47.7290   35.0360   42.0280 C   0  0  0  0  0  0  0  0  0  0  0  0
   48.4360   34.8210   40.8480 C   0  0  0  0  0  0  0  0  0  0  0  0
   47.7890   34.2180   39.7540 C   0  0  0  0  0  0  0  0  0  0  0  0
   46.4720   33.8630   39.8960 C   0  0  0  0  0  0  0  0  0  0  0  0
   45.8080   34.0990   41.0970 C   0  0  0  0  0  0  0  0  0  0  0  0
   48.2470   35.5020   42.8600 H   0  0  0  0  0  0  0  0  0  0  0  0
   49.4730   35.1340   40.8270 H   0  0  0  0  0  0  0  0  0  0  0  0
   48.3860   34.0850   38.8860 H   0  0  0  0  0  0  0  0  0  0  0  0
   45.9790   33.4030   39.0590 H   0  0  0  0  0  0  0  0  0  0  0  0
   44.4450   33.7140   41.1970 N   0  0  0  0  0  0  0  0  0  0  0  0
   43.6240   34.6530   40.6270 C   0  0  0  0  0  0  0  0  0  0  0  0
   42.2460   34.4790   40.6120 C   0  0  0  0  0  0  0  0  0  0  0  0
   41.7380   33.3250   41.1940 C   0  0  0  0  0  0  0  0  0  0  0  0
   40.5000   33.1050   41.2150 O   0  0  0  0  0  0  0  0  0  0  0  0
   42.5800   32.4340   41.7390 N   0  0  0  0  0  0  0  0  0  0  0  0
   43.9060   32.6140   41.7460 C   0  0  0  0  0  0  0  0  0  0  0  0
   44.7570   31.8380   42.2310 O   0  0  0  0  0  0  0  0  0  0  0  0
   43.9460   35.5620   40.1620 H   0  0  0  0  0  0  0  0  0  0  0  0
   42.2370   31.5410   42.1930 H   0  0  0  0  0  0  0  0  0  0  0  0
   41.3250   35.4780   40.0020 C   0  0  0  0  0  0  0  0  0  0  0  0
   40.3340   35.0390   39.9300 H   0  0  0  0  0  0  0  0  0  0  0  0
   41.6750   35.7920   38.9970 H   0  0  0  0  0  0  0  0  0  0  0  0
   41.2770   36.3360   40.7090 H   0  0  0  0  0  0  0  0  0  0  0  0
   44.3820   36.1820   44.9550 C   0  0  0  0  0  0  0  0  0  0  0  0
   44.9530   36.0460   43.6890 C   0  0  0  0  0  0  0  0  0  0  0  0
   45.7630   34.9460   43.4380 C   0  0  0  0  0  0  0  0  0  0  0  0
   45.9500   34.0740   44.4350 N   0  0  0  0  0  0  0  0  0  0  0  0
   45.3870   34.2190   45.6610 C   0  0  0  0  0  0  0  0  0  0  0  0
   44.5990   35.2870   45.9090 N   0  0  0  0  0  0  0  0  0  0  0  0
   43.7490   37.0530   45.1300 H   0  0  0  0  0  0  0  0  0  0  0  0
   44.7990   36.7520   42.8900 H   0  0  0  0  0  0  0  0  0  0  0  0
   45.6830   33.1860   46.6480 C   0  0  0  0  0  0  0  0  0  0  0  0
   46.8150   32.4220   46.4810 C   0  0  0  0  0  3  0  0  0  0  0  0
   46.8660   31.5190   47.5450 C   0  0  0  0  0  3  0  0  0  0  0  0
   45.7310   31.8080   48.3030 C   0  0  0  0  0  0  0  0  0  0  0  0
   45.3700   31.3480   49.2280 H   0  0  0  0  0  0  0  0  0  0  0  0
   45.0610   32.8000   47.7370 O   0  0  0  0  0  0  0  0  0  0  0  0
  1 27  1  0  0  0  0
  2  1  1  0  0  0  0
  2  7  1  0  0  0  0
  3  2  2  0  0  0  0
  4  5  2  0  0  0  0
  4  3  1  0  0  0  0
  5  6  1  0  0  0  0
  6 11  1  0  0  0  0
  6  1  2  0  0  0  0
  8  3  1  0  0  0  0
  9  4  1  0  0  0  0
 10  5  1  0  0  0  0
 11 17  1  0  0  0  0
 12 11  1  0  0  0  0
 13 12  2  0  0  0  0
 13 14  1  0  0  0  0
 14 15  2  0  0  0  0
 14 16  1  0  0  0  0
 16 17  1  0  0  0  0
 16 20  1  0  0  0  0
 17 18  2  0  0  0  0
 19 12  1  0  0  0  0
 21 13  1  0  0  0  0
 21 24  1  0  0  0  0
 22 21  1  0  0  0  0
 23 21  1  0  0  0  0
 25 31  1  0  0  0  0
 25 30  1  0  0  0  0
 26 25  2  0  0  0  0
 27 26  1  0  0  0  0
 27 28  2  0  0  0  0
 28 29  1  0  0  0  0
 29 30  2  0  0  0  0
 29 33  1  0  0  0  0
 32 26  1  0  0  0  0
 33 38  1  0  0  0  0
 34 33  2  0  0  0  0
 34 35  1  0  0  0  0
 35 36  2  0  0  0  0
 36 37  1  0  0  0  0
 38 36  1  0  0  0  0
M  END
>  <minimizedAffinity>
-7.46911383

>  <minimizedRMSD>
0.166022882

$$$$
