
 OpenBabel03232518283D

 27 30  0  0  0  0  0  0  0  0999 V2000
   44.6010   35.6420   44.6420 C   0  0  0  0  0  0  0  0  0  0  0  0
   45.5140   35.3960   43.6260 C   0  0  0  0  0  0  0  0  0  0  0  0
   46.4460   34.3530   43.8170 C   0  0  0  0  0  0  0  0  0  0  0  0
   46.3990   33.6410   44.9950 N   0  0  0  0  0  0  0  0  0  0  0  0
   45.4800   33.9380   45.9370 C   0  0  0  0  0  0  0  0  0  0  0  0
   44.5720   34.9310   45.7890 N   0  0  0  0  0  0  0  0  0  0  0  0
   43.8740   36.4460   44.5100 H   0  0  0  0  0  0  0  0  0  0  0  0
   45.5140   35.9840   42.7140 H   0  0  0  0  0  0  0  0  0  0  0  0
   47.4180   34.0510   42.7990 C   0  0  0  0  0  0  0  0  0  0  0  0
   47.5520   34.7250   41.6170 C   0  0  0  0  0  0  0  0  0  0  0  0
   48.5990   34.0950   40.9610 C   0  0  0  0  0  0  0  0  0  0  0  0
   49.0360   33.0670   41.8030 C   0  0  0  0  0  0  0  0  0  0  0  0
   49.8340   32.3230   41.6870 H   0  0  0  0  0  0  0  0  0  0  0  0
   48.2860   33.0840   42.9030 O   0  0  0  0  0  0  0  0  0  0  0  0
   45.4590   32.9830   47.4520 S   0  0  0  0  0  0  0  0  0  0  0  0
   48.6840   29.5010   48.6080 N   0  0  0  0  0  0  0  0  0  0  0  0
   48.6820   30.5830   49.4020 C   0  0  0  0  0  0  0  0  0  0  0  0
   47.7650   31.4570   48.9880 N   0  0  0  0  0  0  0  0  0  0  0  0
   47.1370   30.9580   47.8980 C   0  0  0  0  0  0  0  0  0  0  0  0
   46.1200   31.3710   47.0310 C   0  0  0  0  0  0  0  0  0  0  0  0
   45.7430   30.5830   46.0170 N   0  0  0  0  0  0  0  0  0  0  0  0
   46.3730   29.3890   45.8670 C   0  0  0  0  0  0  0  0  0  0  0  0
   47.3760   28.9160   46.6740 N   0  0  0  0  0  0  0  0  0  0  0  0
   47.7340   29.7280   47.6820 C   0  0  0  0  0  0  0  0  0  0  0  0
   49.3010   28.6560   48.6990 H   0  0  0  0  0  0  0  0  0  0  0  0
   49.3510   30.6870   50.2480 H   0  0  0  0  0  0  0  0  0  0  0  0
   46.0210   28.8020   45.0310 H   0  0  0  0  0  0  0  0  0  0  0  0
  1  6  1  0  0  0  0
  2  3  1  0  0  0  0
  2  1  2  0  0  0  0
  3  4  2  0  0  0  0
  4  5  1  0  0  0  0
  5 15  1  0  0  0  0
  6  5  2  0  0  0  0
  7  1  1  0  0  0  0
  8  2  1  0  0  0  0
  9 14  1  0  0  0  0
  9  3  1  0  0  0  0
 10  9  2  0  0  0  0
 11 10  1  0  0  0  0
 11 12  2  0  0  0  0
 12 14  1  0  0  0  0
 13 12  1  0  0  0  0
 16 25  1  0  0  0  0
 16 17  1  0  0  0  0
 17 26  1  0  0  0  0
 18 17  2  0  0  0  0
 19 18  1  0  0  0  0
 20 15  1  0  0  0  0
 20 19  2  0  0  0  0
 21 20  1  0  0  0  0
 22 21  2  0  0  0  0
 22 23  1  0  0  0  0
 23 24  2  0  0  0  0
 24 19  1  0  0  0  0
 24 16  1  0  0  0  0
 27 22  1  0  0  0  0
M  END
>  <minimizedAffinity>
-5.3506937

>  <minimizedRMSD>
0.572414875

$$$$
