
 OpenBabel03232516553D

 17 18  0  0  0  0  0  0  0  0999 V2000
   45.5050   35.0340   43.9510 C   0  0  0  0  0  0  0  0  0  0  0  0
   46.6040   34.3660   43.4310 C   0  0  0  0  0  0  0  0  0  0  0  0
   47.1240   33.3820   44.2530 C   0  0  0  0  0  0  0  0  0  0  0  0
   46.5730   33.1210   45.4630 N   0  0  0  0  0  0  0  0  0  0  0  0
   45.5070   33.7930   45.9240 C   0  0  0  0  0  0  0  0  0  0  0  0
   44.9830   34.7410   45.1680 N   0  0  0  0  0  0  0  0  0  0  0  0
   47.9630   32.7620   44.0340 H   0  0  0  0  0  0  0  0  0  0  0  0
   44.9890   33.6720   46.8600 H   0  0  0  0  0  0  0  0  0  0  0  0
   47.2470   34.5530   42.1390 C   0  0  0  0  0  0  0  0  0  0  0  0
   48.3170   35.3700   41.9150 C   0  0  0  0  0  0  0  0  0  0  0  0
   48.6930   35.3310   40.5950 C   0  0  0  0  0  0  0  0  0  0  0  0
   47.7960   34.4510   40.0330 C   0  0  0  0  0  0  0  0  0  0  0  0
   47.7700   34.1560   38.9870 H   0  0  0  0  0  0  0  0  0  0  0  0
   46.9940   34.0400   40.9710 O   0  0  0  0  0  0  0  0  0  0  0  0
   44.9650   36.0850   43.1050 C   0  0  0  0  0  0  0  0  0  0  0  0
   45.1960   37.3330   43.2800 O   0  0  0  0  0  0  0  0  0  0  0  0
   44.3180   35.9490   42.2450 H   0  0  0  0  0  0  0  0  0  0  0  0
  1  6  1  0  0  0  0
  2  1  2  0  0  0  0
  2  3  1  0  0  0  0
  3  4  2  0  0  0  0
  4  5  1  0  0  0  0
  5  8  1  0  0  0  0
  6  5  2  0  0  0  0
  7  3  1  0  0  0  0
  9  2  1  0  0  0  0
 10  9  2  0  0  0  0
 11 10  1  0  0  0  0
 12 11  2  0  0  0  0
 12 14  1  0  0  0  0
 13 12  1  0  0  0  0
 14  9  1  0  0  0  0
 15 16  2  0  0  0  0
 15  1  1  0  0  0  0
 17 15  1  0  0  0  0
M  END
>  <minimizedAffinity>
-4.38924408

>  <minimizedRMSD>
0.762109756

$$$$
