
 OpenBabel03232520573D

 34 36  0  0  1  0  0  0  0  0999 V2000
   46.1040   33.5320   45.2230 C   0  0  2  0  0  0  0  0  0  0  0  0
   45.0150   34.6650   45.4810 C   0  0  0  0  0  0  0  0  0  0  0  0
   44.7760   35.5950   44.4100 C   0  0  0  0  0  0  0  0  0  0  0  0
   45.5070   35.4870   43.1510 C   0  0  1  0  0  0  0  0  0  0  0  0
   46.5410   34.4390   43.0770 C   0  0  0  0  0  0  0  0  0  0  0  0
   46.0230   33.2200   43.8350 C   0  0  0  0  0  0  0  0  0  0  0  0
   46.9810   34.1870   45.5010 H   0  0  0  0  0  0  0  0  0  0  0  0
   44.3660   34.9280   46.3070 H   0  0  0  0  0  0  0  0  0  0  0  0
   44.0590   36.3800   44.5150 H   0  0  0  0  0  0  0  0  0  0  0  0
   45.9550   36.4770   42.9150 H   0  0  0  0  0  0  0  0  0  0  0  0
   46.8060   34.2150   42.0450 H   0  0  0  0  0  0  0  0  0  0  0  0
   47.4650   34.7680   43.6050 H   0  0  0  0  0  0  0  0  0  0  0  0
   44.8740   33.2600   43.5770 H   0  0  0  0  0  0  0  0  0  0  0  0
   46.3300   32.4060   43.2650 H   0  0  0  0  0  0  0  0  0  0  0  0
   45.4290   32.8140   47.5020 C   0  0  0  0  0  0  0  0  0  0  0  0
   45.8910   32.5510   46.2380 C   0  0  0  0  0  0  0  0  0  0  0  0
   46.0590   31.2150   45.9640 C   0  0  0  0  0  0  0  0  0  0  0  0
   45.7710   30.2640   46.8870 N   0  0  0  0  0  0  0  0  0  0  0  0
   45.3170   30.5590   48.1250 C   0  0  0  0  0  0  0  0  0  0  0  0
   45.1460   31.8380   48.4350 N   0  0  0  0  0  0  0  0  0  0  0  0
   45.0550   29.5260   49.0570 N   0  0  0  0  0  0  0  0  0  0  0  0
   45.2640   33.8220   47.8420 H   0  0  0  0  0  0  0  0  0  0  0  0
   45.5010   29.4940   50.0150 H   0  0  0  0  0  0  0  0  0  0  0  0
   44.4110   28.7210   48.8840 H   0  0  0  0  0  0  0  0  0  0  0  0
   46.7950   30.6010   44.8340 C   0  0  0  0  0  0  0  0  0  0  0  0
   48.1860   30.4660   44.7820 C   0  0  0  0  0  3  0  0  0  0  0  0
   48.5900   29.8570   43.6210 C   0  0  0  0  0  3  0  0  0  0  0  0
   47.3930   29.6380   42.9940 C   0  0  0  0  0  0  0  0  0  0  0  0
   47.2740   29.1640   42.0210 H   0  0  0  0  0  0  0  0  0  0  0  0
   46.4300   30.0780   43.7270 O   0  0  0  0  0  0  0  0  0  0  0  0
   44.4580   35.2530   42.0340 C   0  0  0  0  0  0  0  0  0  0  0  0
   43.4070   34.4690   42.4370 F   0  0  0  0  0  0  0  0  0  0  0  0
   43.9290   36.5070   41.7280 F   0  0  0  0  0  0  0  0  0  0  0  0
   45.0850   34.7800   40.8930 F   0  0  0  0  0  0  0  0  0  0  0  0
  1  2  1  0  0  0  0
  1  7  1  1  0  0  0
  1 16  1  0  0  0  0
  2  8  1  0  0  0  0
  3  9  1  0  0  0  0
  3  2  2  0  0  0  0
  4 10  1  6  0  0  0
  4  3  1  0  0  0  0
  5  4  1  0  0  0  0
  5 12  1  0  0  0  0
  5  6  1  0  0  0  0
  6  1  1  0  0  0  0
 11  5  1  0  0  0  0
 13  6  1  0  0  0  0
 14  6  1  0  0  0  0
 15 22  1  0  0  0  0
 15 20  1  0  0  0  0
 16 15  2  0  0  0  0
 17 16  1  0  0  0  0
 17 18  2  0  0  0  0
 18 19  1  0  0  0  0
 19 20  2  0  0  0  0
 19 21  1  0  0  0  0
 21 23  1  0  0  0  0
 24 21  1  0  0  0  0
 25 17  1  0  0  0  0
 26 25  2  0  0  0  0
 27 26  1  0  0  0  0
 28 27  2  0  0  0  0
 28 30  1  0  0  0  0
 29 28  1  0  0  0  0
 30 25  1  0  0  0  0
 31 32  1  0  0  0  0
 31  4  1  0  0  0  0
 33 31  1  0  0  0  0
 34 31  1  0  0  0  0
M  END
>  <minimizedAffinity>
-5.56102085

>  <minimizedRMSD>
0.431941897

$$$$
