
 OpenBabel03232516293D

 37 40  0  0  0  0  0  0  0  0999 V2000
   44.1650   33.3990   39.2000 C   0  0  0  0  0  0  0  0  0  0  0  0
   44.0200   34.2250   38.4530 H   0  0  0  0  0  0  0  0  0  0  0  0
   44.7200   32.5650   38.7290 H   0  0  0  0  0  0  0  0  0  0  0  0
   44.8810   33.9250   40.3640 C   0  0  0  0  0  0  0  0  0  0  0  0
   44.6540   34.9180   41.2330 N   0  0  0  0  0  0  0  0  0  0  0  0
   45.6190   34.9900   42.1220 O   0  0  0  0  0  0  0  0  0  0  0  0
   46.5010   34.0440   41.8560 C   0  0  0  0  0  0  0  0  0  0  0  0
   46.0440   33.3930   40.7750 N   0  0  0  0  0  0  0  0  0  0  0  0
   47.5800   34.0120   42.7290 O   0  0  0  0  0  0  0  0  0  0  0  0
   48.6250   33.1320   42.6840 C   0  0  0  0  0  0  0  0  0  0  0  0
   49.8030   33.7200   42.2060 C   0  0  0  0  0  0  0  0  0  0  0  0
   50.9660   32.9780   42.0920 C   0  0  0  0  0  0  0  0  0  0  0  0
   50.9930   31.6440   42.4460 C   0  0  0  0  0  0  0  0  0  0  0  0
   49.8430   31.0680   42.9120 C   0  0  0  0  0  0  0  0  0  0  0  0
   49.7410   29.7430   43.2950 C   0  0  0  0  0  0  0  0  0  0  0  0
   48.5600   29.1810   43.7660 C   0  0  0  0  0  0  0  0  0  0  0  0
   47.4090   29.9680   43.8640 C   0  0  0  0  0  0  0  0  0  0  0  0
   47.4880   31.2940   43.4860 C   0  0  0  0  0  0  0  0  0  0  0  0
   48.6880   31.7980   43.0270 C   0  0  0  0  0  0  0  0  0  0  0  0
   42.7870   32.8660   39.5000 C   0  0  0  0  0  0  0  0  0  0  0  0
   40.3360   34.7990   41.4210 C   0  0  0  0  0  0  0  0  0  0  0  0
   40.0060   35.8630   40.5560 C   0  0  0  0  0  0  0  0  0  0  0  0
   40.6350   35.9050   39.3070 C   0  0  0  0  0  0  0  0  0  0  0  0
   41.5390   34.9150   38.9870 N   0  0  0  0  0  0  0  0  0  0  0  0
   41.8130   33.9200   39.8650 C   0  0  0  0  0  0  0  0  0  0  0  0
   41.2130   33.8730   41.0630 N   0  0  0  0  0  0  0  0  0  0  0  0
   39.8040   34.8470   42.3610 H   0  0  0  0  0  0  0  0  0  0  0  0
   39.3130   36.6680   40.7360 H   0  0  0  0  0  0  0  0  0  0  0  0
   40.4730   36.6610   38.5570 H   0  0  0  0  0  0  0  0  0  0  0  0
   42.2850   32.1570   38.2660 C   0  0  0  0  0  0  0  0  0  0  0  0
   41.1710   32.3010   38.1900 H   0  0  0  0  0  0  0  0  0  0  0  0
   42.4390   31.0690   38.3170 H   0  0  0  0  0  0  0  0  0  0  0  0
   42.7870   32.5520   37.3520 H   0  0  0  0  0  0  0  0  0  0  0  0
   42.8370   31.8140   40.5850 C   0  0  0  0  0  0  0  0  0  0  0  0
   43.0840   32.2720   41.5800 H   0  0  0  0  0  0  0  0  0  0  0  0
   41.9220   31.2070   40.6110 H   0  0  0  0  0  0  0  0  0  0  0  0
   43.6870   31.1380   40.3440 H   0  0  0  0  0  0  0  0  0  0  0  0
  1 20  1  0  0  0  0
  1  4  1  0  0  0  0
  2  1  1  0  0  0  0
  3  1  1  0  0  0  0
  4  8  1  0  0  0  0
  4  5  2  0  0  0  0
  5  6  1  0  0  0  0
  7  6  1  0  0  0  0
  7  9  1  0  0  0  0
  8  7  2  0  0  0  0
 10  9  1  0  0  0  0
 10 19  1  0  0  0  0
 11 10  2  0  0  0  0
 12 11  1  0  0  0  0
 12 13  2  0  0  0  0
 13 14  1  0  0  0  0
 14 19  2  0  0  0  0
 14 15  1  0  0  0  0
 15 16  2  0  0  0  0
 16 17  1  0  0  0  0
 18 17  2  0  0  0  0
 19 18  1  0  0  0  0
 20 25  1  0  0  0  0
 20 34  1  0  0  0  0
 21 27  1  0  0  0  0
 22 28  1  0  0  0  0
 22 21  2  0  0  0  0
 23 22  1  0  0  0  0
 24 23  2  0  0  0  0
 24 25  1  0  0  0  0
 25 26  2  0  0  0  0
 26 21  1  0  0  0  0
 29 23  1  0  0  0  0
 30 32  1  0  0  0  0
 30 20  1  0  0  0  0
 31 30  1  0  0  0  0
 33 30  1  0  0  0  0
 34 36  1  0  0  0  0
 34 35  1  0  0  0  0
 37 34  1  0  0  0  0
M  END
>  <minimizedAffinity>
-4.8993144

>  <minimizedRMSD>
4.05721617

$$$$
