
 OpenBabel03232520573D

 34 36  0  0  1  0  0  0  0  0999 V2000
   46.1050   33.5280   45.2230 C   0  0  2  0  0  0  0  0  0  0  0  0
   45.0180   34.6620   45.4810 C   0  0  0  0  0  0  0  0  0  0  0  0
   44.7790   35.5920   44.4100 C   0  0  0  0  0  0  0  0  0  0  0  0
   45.5090   35.4840   43.1510 C   0  0  1  0  0  0  0  0  0  0  0  0
   46.5410   34.4340   43.0760 C   0  0  0  0  0  0  0  0  0  0  0  0
   46.0220   33.2160   43.8350 C   0  0  0  0  0  0  0  0  0  0  0  0
   46.9830   34.1820   45.5000 H   0  0  0  0  0  0  0  0  0  0  0  0
   44.3700   34.9270   46.3070 H   0  0  0  0  0  0  0  0  0  0  0  0
   44.0630   36.3780   44.5150 H   0  0  0  0  0  0  0  0  0  0  0  0
   45.9580   36.4720   42.9140 H   0  0  0  0  0  0  0  0  0  0  0  0
   46.8050   34.2100   42.0440 H   0  0  0  0  0  0  0  0  0  0  0  0
   47.4660   34.7620   43.6040 H   0  0  0  0  0  0  0  0  0  0  0  0
   44.8730   33.2580   43.5770 H   0  0  0  0  0  0  0  0  0  0  0  0
   46.3270   32.4020   43.2640 H   0  0  0  0  0  0  0  0  0  0  0  0
   45.4280   32.8110   47.5020 C   0  0  0  0  0  0  0  0  0  0  0  0
   45.8910   32.5470   46.2380 C   0  0  0  0  0  0  0  0  0  0  0  0
   46.0590   31.2120   45.9650 C   0  0  0  0  0  0  0  0  0  0  0  0
   45.7710   30.2610   46.8880 N   0  0  0  0  0  0  0  0  0  0  0  0
   45.3160   30.5570   48.1260 C   0  0  0  0  0  0  0  0  0  0  0  0
   45.1450   31.8360   48.4340 N   0  0  0  0  0  0  0  0  0  0  0  0
   45.0540   29.5240   49.0580 N   0  0  0  0  0  0  0  0  0  0  0  0
   45.2630   33.8190   47.8410 H   0  0  0  0  0  0  0  0  0  0  0  0
   45.5000   29.4920   50.0160 H   0  0  0  0  0  0  0  0  0  0  0  0
   44.4100   28.7180   48.8850 H   0  0  0  0  0  0  0  0  0  0  0  0
   46.7960   30.5970   44.8350 C   0  0  0  0  0  0  0  0  0  0  0  0
   48.1870   30.4660   44.7820 C   0  0  0  0  0  3  0  0  0  0  0  0
   48.5920   29.8550   43.6210 C   0  0  0  0  0  3  0  0  0  0  0  0
   47.3960   29.6320   42.9970 C   0  0  0  0  0  0  0  0  0  0  0  0
   47.2770   29.1540   42.0260 H   0  0  0  0  0  0  0  0  0  0  0  0
   46.4310   30.0700   43.7310 O   0  0  0  0  0  0  0  0  0  0  0  0
   44.4590   35.2510   42.0350 C   0  0  0  0  0  0  0  0  0  0  0  0
   43.4080   34.4650   42.4380 F   0  0  0  0  0  0  0  0  0  0  0  0
   43.9290   36.5050   41.7310 F   0  0  0  0  0  0  0  0  0  0  0  0
   45.0850   34.7800   40.8920 F   0  0  0  0  0  0  0  0  0  0  0  0
  1  2  1  0  0  0  0
  1  7  1  1  0  0  0
  1 16  1  0  0  0  0
  2  8  1  0  0  0  0
  3  9  1  0  0  0  0
  3  2  2  0  0  0  0
  4 10  1  6  0  0  0
  4  3  1  0  0  0  0
  5  4  1  0  0  0  0
  5 12  1  0  0  0  0
  5  6  1  0  0  0  0
  6  1  1  0  0  0  0
 11  5  1  0  0  0  0
 13  6  1  0  0  0  0
 14  6  1  0  0  0  0
 15 22  1  0  0  0  0
 15 20  1  0  0  0  0
 16 15  2  0  0  0  0
 17 16  1  0  0  0  0
 17 18  2  0  0  0  0
 18 19  1  0  0  0  0
 19 20  2  0  0  0  0
 19 21  1  0  0  0  0
 21 23  1  0  0  0  0
 24 21  1  0  0  0  0
 25 17  1  0  0  0  0
 26 25  2  0  0  0  0
 27 26  1  0  0  0  0
 28 27  2  0  0  0  0
 28 30  1  0  0  0  0
 29 28  1  0  0  0  0
 30 25  1  0  0  0  0
 31 32  1  0  0  0  0
 31  4  1  0  0  0  0
 33 31  1  0  0  0  0
 34 31  1  0  0  0  0
M  END
>  <minimizedAffinity>
-5.55650234

>  <minimizedRMSD>
0.44262296

$$$$
