
 OpenBabel03232520573D

 34 36  0  0  1  0  0  0  0  0999 V2000
   46.0950   33.5970   45.2430 C   0  0  2  0  0  0  0  0  0  0  0  0
   44.9880   34.7150   45.4840 C   0  0  0  0  0  0  0  0  0  0  0  0
   44.7410   35.6320   44.4040 C   0  0  0  0  0  0  0  0  0  0  0  0
   45.4820   35.5260   43.1510 C   0  0  1  0  0  0  0  0  0  0  0  0
   46.5320   34.4930   43.0920 C   0  0  0  0  0  0  0  0  0  0  0  0
   46.0280   33.2720   43.8570 C   0  0  0  0  0  0  0  0  0  0  0  0
   46.9610   34.2680   45.5210 H   0  0  0  0  0  0  0  0  0  0  0  0
   44.3290   34.9750   46.3030 H   0  0  0  0  0  0  0  0  0  0  0  0
   44.0110   36.4070   44.4970 H   0  0  0  0  0  0  0  0  0  0  0  0
   45.9160   36.5200   42.9090 H   0  0  0  0  0  0  0  0  0  0  0  0
   46.8070   34.2650   42.0640 H   0  0  0  0  0  0  0  0  0  0  0  0
   47.4480   34.8410   43.6230 H   0  0  0  0  0  0  0  0  0  0  0  0
   44.8810   33.2930   43.5900 H   0  0  0  0  0  0  0  0  0  0  0  0
   46.3510   32.4590   43.2950 H   0  0  0  0  0  0  0  0  0  0  0  0
   45.3290   32.8710   47.4890 C   0  0  0  0  0  0  0  0  0  0  0  0
   45.8910   32.6210   46.2640 C   0  0  0  0  0  0  0  0  0  0  0  0
   46.1760   31.2980   46.0320 C   0  0  0  0  0  0  0  0  0  0  0  0
   45.9010   30.3440   46.9560 N   0  0  0  0  0  0  0  0  0  0  0  0
   45.3460   30.6250   48.1560 C   0  0  0  0  0  0  0  0  0  0  0  0
   45.0590   31.8930   48.4240 N   0  0  0  0  0  0  0  0  0  0  0  0
   45.1020   29.5930   49.0920 N   0  0  0  0  0  0  0  0  0  0  0  0
   45.0660   33.8690   47.7950 H   0  0  0  0  0  0  0  0  0  0  0  0
   45.4860   29.6120   50.0780 H   0  0  0  0  0  0  0  0  0  0  0  0
   44.5330   28.7370   48.8970 H   0  0  0  0  0  0  0  0  0  0  0  0
   47.0290   30.7210   44.9660 C   0  0  0  0  0  0  0  0  0  0  0  0
   46.5820   29.8000   44.0130 C   0  0  0  0  0  3  0  0  0  0  0  0
   47.5870   29.4420   43.1470 C   0  0  0  0  0  3  0  0  0  0  0  0
   48.6350   30.1820   43.6240 C   0  0  0  0  0  0  0  0  0  0  0  0
   49.6380   30.1830   43.2040 H   0  0  0  0  0  0  0  0  0  0  0  0
   48.2550   30.8740   44.6410 O   0  0  0  0  0  0  0  0  0  0  0  0
   44.4450   35.2670   42.0290 C   0  0  0  0  0  0  0  0  0  0  0  0
   43.4000   34.4730   42.4330 F   0  0  0  0  0  0  0  0  0  0  0  0
   43.9020   36.5100   41.7050 F   0  0  0  0  0  0  0  0  0  0  0  0
   45.0860   34.7900   40.8970 F   0  0  0  0  0  0  0  0  0  0  0  0
  1  2  1  0  0  0  0
  1  7  1  1  0  0  0
  1 16  1  0  0  0  0
  2  8  1  0  0  0  0
  3  9  1  0  0  0  0
  3  2  2  0  0  0  0
  4 10  1  6  0  0  0
  4  3  1  0  0  0  0
  5  4  1  0  0  0  0
  5 12  1  0  0  0  0
  5  6  1  0  0  0  0
  6  1  1  0  0  0  0
 11  5  1  0  0  0  0
 13  6  1  0  0  0  0
 14  6  1  0  0  0  0
 15 22  1  0  0  0  0
 15 20  1  0  0  0  0
 16 15  2  0  0  0  0
 17 16  1  0  0  0  0
 17 18  2  0  0  0  0
 18 19  1  0  0  0  0
 19 20  2  0  0  0  0
 19 21  1  0  0  0  0
 21 23  1  0  0  0  0
 24 21  1  0  0  0  0
 25 17  1  0  0  0  0
 26 25  2  0  0  0  0
 27 28  2  0  0  0  0
 27 26  1  0  0  0  0
 28 30  1  0  0  0  0
 29 28  1  0  0  0  0
 30 25  1  0  0  0  0
 31 32  1  0  0  0  0
 31  4  1  0  0  0  0
 33 31  1  0  0  0  0
 34 31  1  0  0  0  0
M  END
>  <minimizedAffinity>
-5.55400848

>  <minimizedRMSD>
0.328700185

$$$$
