
 OpenBabel03232519523D

 42 45  0  0  1  0  0  0  0  0999 V2000
   45.9440   33.7080   42.1130 N   0  0  0  0  0  0  0  0  0  0  0  0
   47.1310   34.0000   41.3230 C   0  0  0  0  0  0  0  0  0  0  0  0
   46.5560   33.8670   39.9330 C   0  0  0  0  0  0  0  0  0  0  0  0
   45.8430   32.5420   40.0530 C   0  0  0  0  0  0  0  0  0  0  0  0
   45.2600   32.6000   41.4190 C   0  0  2  0  0  0  0  0  0  0  0  0
   47.5080   35.0350   41.4740 H   0  0  0  0  0  0  0  0  0  0  0  0
   47.8950   33.2190   41.4310 H   0  0  0  0  0  0  0  0  0  0  0  0
   45.8410   34.6940   39.7300 H   0  0  0  0  0  0  0  0  0  0  0  0
   47.3550   33.7650   39.1810 H   0  0  0  0  0  0  0  0  0  0  0  0
   46.6280   31.7450   39.9230 H   0  0  0  0  0  0  0  0  0  0  0  0
   45.0670   32.4350   39.2660 H   0  0  0  0  0  0  0  0  0  0  0  0
   45.6460   31.6980   41.9520 H   0  0  0  0  0  0  0  0  0  0  0  0
   44.5000   36.1090   44.5490 C   0  0  0  0  0  0  0  0  0  0  0  0
   44.9260   35.5760   43.3300 C   0  0  0  0  0  0  0  0  0  0  0  0
   45.4900   34.3140   43.2950 C   0  0  0  0  0  0  0  0  0  0  0  0
   45.6020   33.6480   44.4820 N   0  0  0  0  0  0  0  0  0  0  0  0
   45.1900   34.1650   45.6590 C   0  0  0  0  0  0  0  0  0  0  0  0
   44.6380   35.4030   45.6770 N   0  0  0  0  0  0  0  0  0  0  0  0
   45.3840   33.3340   46.7890 N   0  0  0  0  0  0  0  0  0  0  0  0
   44.0620   37.0890   44.5720 H   0  0  0  0  0  0  0  0  0  0  0  0
   44.8270   36.1210   42.4040 H   0  0  0  0  0  0  0  0  0  0  0  0
   46.3040   33.4500   47.2900 H   0  0  0  0  0  0  0  0  0  0  0  0
   44.6960   32.6430   47.1340 H   0  0  0  0  0  0  0  0  0  0  0  0
   43.8450   32.6520   41.5040 N   0  0  0  0  0  0  0  0  0  0  0  0
   43.0330   33.5170   40.8980 C   0  0  0  0  0  0  0  0  0  0  0  0
   41.6520   33.4980   41.0370 C   0  0  0  0  0  0  0  0  0  0  0  0
   41.0710   32.5350   41.8440 C   0  0  0  0  0  0  0  0  0  0  0  0
   39.8140   32.4540   42.0230 O   0  0  0  0  0  0  0  0  0  0  0  0
   41.8940   31.6630   42.4540 N   0  0  0  0  0  0  0  0  0  0  0  0
   43.2020   31.7350   42.2800 C   0  0  0  0  0  0  0  0  0  0  0  0
   43.9010   30.8690   42.8960 O   0  0  0  0  0  0  0  0  0  0  0  0
   43.5220   34.2670   40.2680 H   0  0  0  0  0  0  0  0  0  0  0  0
   41.4390   30.9420   43.0590 H   0  0  0  0  0  0  0  0  0  0  0  0
   40.7860   34.4600   40.3500 C   0  0  0  0  0  0  0  0  0  0  0  0
   40.0830   34.8610   41.1260 H   0  0  0  0  0  0  0  0  0  0  0  0
   41.4360   35.3470   40.1090 H   0  0  0  0  0  0  0  0  0  0  0  0
   40.1120   34.0260   39.1150 C   0  0  0  0  0  0  0  0  0  0  0  0
   40.7250   32.7600   38.5740 C   0  0  0  0  0  0  0  0  0  0  0  0
   39.6850   31.7210   38.2760 C   0  0  0  0  0  0  0  0  0  0  0  0
   38.5750   32.1600   37.3820 C   0  0  0  0  0  0  0  0  0  0  0  0
   38.2330   33.6010   37.6730 C   0  0  0  0  0  0  0  0  0  0  0  0
   38.6380   33.8500   39.1410 C   0  0  0  0  0  0  0  0  0  0  0  0
  1 15  1  0  0  0  0
  2  7  1  0  0  0  0
  2  6  1  0  0  0  0
  2  1  1  0  0  0  0
  3  4  1  0  0  0  0
  3  2  1  0  0  0  0
  4  5  1  0  0  0  0
  5 24  1  0  0  0  0
  5 12  1  1  0  0  0
  5  1  1  0  0  0  0
  8  3  1  0  0  0  0
  9  3  1  0  0  0  0
 10  4  1  0  0  0  0
 11  4  1  0  0  0  0
 13 20  1  0  0  0  0
 13 18  1  0  0  0  0
 14 13  2  0  0  0  0
 15 14  1  0  0  0  0
 15 16  2  0  0  0  0
 16 17  1  0  0  0  0
 17 18  2  0  0  0  0
 17 19  1  0  0  0  0
 19 23  1  0  0  0  0
 19 22  1  0  0  0  0
 21 14  1  0  0  0  0
 24 30  1  0  0  0  0
 25 26  2  0  0  0  0
 25 24  1  0  0  0  0
 26 27  1  0  0  0  0
 27 28  2  0  0  0  0
 27 29  1  0  0  0  0
 29 33  1  0  0  0  0
 30 29  1  0  0  0  0
 30 31  2  0  0  0  0
 32 25  1  0  0  0  0
 34 26  1  0  0  0  0
 34 35  1  0  0  0  0
 36 34  1  0  0  0  0
 37 42  1  0  0  0  0
 37 34  1  0  0  0  0
 38 37  1  0  0  0  0
 39 38  1  0  0  0  0
 40 41  1  0  0  0  0
 40 39  1  0  0  0  0
 41 42  1  0  0  0  0
M  END
>  <minimizedAffinity>
-6.99684668

>  <minimizedRMSD>
1.22523522

$$$$
