
 OpenBabel03232520553D

 31 32  0  0  1  0  0  0  0  0999 V2000
   46.0960   33.8840   45.2500 C   0  0  2  0  0  0  0  0  0  0  0  0
   44.8890   34.8820   45.3990 C   0  0  0  0  0  0  0  0  0  0  0  0
   44.6020   35.7190   44.2630 C   0  0  0  0  0  0  0  0  0  0  0  0
   45.3910   35.6290   43.0410 C   0  0  1  0  0  0  0  0  0  0  0  0
   46.5400   34.7110   43.0570 C   0  0  0  0  0  0  0  0  0  0  0  0
   46.2120   33.4980   43.8770 C   0  0  0  0  0  0  0  0  0  0  0  0
   46.8880   34.6420   45.5690 H   0  0  0  0  0  0  0  0  0  0  0  0
   44.1890   35.0920   46.2000 H   0  0  0  0  0  0  0  0  0  0  0  0
   43.7850   36.4220   44.3140 H   0  0  0  0  0  0  0  0  0  0  0  0
   45.7310   36.6450   42.7540 H   0  0  0  0  0  0  0  0  0  0  0  0
   46.7700   34.3960   42.0020 H   0  0  0  0  0  0  0  0  0  0  0  0
   47.4540   35.1680   43.4920 H   0  0  0  0  0  0  0  0  0  0  0  0
   45.1950   33.1630   43.4980 H   0  0  0  0  0  0  0  0  0  0  0  0
   46.8990   32.7320   43.5280 H   0  0  0  0  0  0  0  0  0  0  0  0
   45.1710   33.1210   47.3810 C   0  0  0  0  0  0  0  0  0  0  0  0
   45.9590   32.9120   46.2960 C   0  0  0  0  0  0  0  0  0  0  0  0
   46.6200   31.6760   46.2270 C   0  0  0  0  0  0  0  0  0  0  0  0
   46.4860   30.7520   47.1810 N   0  0  0  0  0  0  0  0  0  0  0  0
   45.6830   30.9910   48.2740 C   0  0  0  0  0  0  0  0  0  0  0  0
   45.0440   32.1560   48.3570 N   0  0  0  0  0  0  0  0  0  0  0  0
   45.5740   30.0160   49.3120 N   0  0  0  0  0  0  0  0  0  0  0  0
   44.6110   34.0290   47.5490 H   0  0  0  0  0  0  0  0  0  0  0  0
   45.6940   30.2570   50.3410 H   0  0  0  0  0  0  0  0  0  0  0  0
   45.3750   28.9960   49.2150 H   0  0  0  0  0  0  0  0  0  0  0  0
   47.4890   31.2100   45.2100 N   0  0  0  0  0  0  0  0  0  0  0  0
   47.1680   30.6020   44.3980 H   0  0  0  0  0  0  0  0  0  0  0  0
   48.3790   31.6340   45.5430 H   0  0  0  0  0  0  0  0  0  0  0  0
   44.4220   35.2130   41.9070 C   0  0  0  0  0  0  0  0  0  0  0  0
   43.4700   34.3100   42.3180 F   0  0  0  0  0  0  0  0  0  0  0  0
   43.7340   36.3660   41.5260 F   0  0  0  0  0  0  0  0  0  0  0  0
   45.1360   34.7830   40.8060 F   0  0  0  0  0  0  0  0  0  0  0  0
  1  2  1  0  0  0  0
  1  7  1  1  0  0  0
  1 16  1  0  0  0  0
  2  8  1  0  0  0  0
  3  9  1  0  0  0  0
  3  2  2  0  0  0  0
  4 10  1  6  0  0  0
  4  5  1  0  0  0  0
  4  3  1  0  0  0  0
  5 12  1  0  0  0  0
  5  6  1  0  0  0  0
  6  1  1  0  0  0  0
 11  5  1  0  0  0  0
 13  6  1  0  0  0  0
 14  6  1  0  0  0  0
 15 22  1  0  0  0  0
 15 20  1  0  0  0  0
 16 15  2  0  0  0  0
 17 16  1  0  0  0  0
 17 18  2  0  0  0  0
 18 19  1  0  0  0  0
 19 20  2  0  0  0  0
 19 21  1  0  0  0  0
 21 23  1  0  0  0  0
 24 21  1  0  0  0  0
 25 27  1  0  0  0  0
 25 17  1  0  0  0  0
 26 25  1  0  0  0  0
 28 29  1  0  0  0  0
 28  4  1  0  0  0  0
 30 28  1  0  0  0  0
 31 28  1  0  0  0  0
M  END
>  <minimizedAffinity>
-5.66156912

>  <minimizedRMSD>
0.379965812

$$$$
