
 OpenBabel03232520593D

 38 40  0  0  1  0  0  0  0  0999 V2000
   45.3840   32.8630   47.4950 C   0  0  0  0  0  0  0  0  0  0  0  0
   45.9320   32.6160   46.2790 C   0  0  0  0  0  0  0  0  0  0  0  0
   46.1930   31.2670   46.0200 C   0  0  0  0  0  0  0  0  0  0  0  0
   45.9270   30.2660   46.8950 N   0  0  0  0  0  0  0  0  0  0  0  0
   45.3660   30.5690   48.1270 C   0  0  0  0  0  0  0  0  0  0  0  0
   45.1120   31.8470   48.3930 N   0  0  0  0  0  0  0  0  0  0  0  0
   45.0890   29.5500   49.0710 N   0  0  0  0  0  0  0  0  0  0  0  0
   45.1480   33.8710   47.7970 H   0  0  0  0  0  0  0  0  0  0  0  0
   44.1810   29.1820   49.3840 H   0  0  0  0  0  0  0  0  0  0  0  0
   46.0300   29.2410   49.3910 H   0  0  0  0  0  0  0  0  0  0  0  0
   46.1780   33.5750   45.2560 C   0  0  2  0  0  0  0  0  0  0  0  0
   44.9630   34.6640   45.4950 C   0  0  0  0  0  0  0  0  0  0  0  0
   44.7370   35.6070   44.4350 C   0  0  0  0  0  0  0  0  0  0  0  0
   45.5360   35.5480   43.2110 C   0  0  1  0  0  0  0  0  0  0  0  0
   46.5940   34.5460   43.1550 C   0  0  0  0  0  0  0  0  0  0  0  0
   46.1480   33.3040   43.8910 C   0  0  0  0  0  0  0  0  0  0  0  0
   46.9470   34.3290   45.6050 H   0  0  0  0  0  0  0  0  0  0  0  0
   44.2830   34.8000   46.3270 H   0  0  0  0  0  0  0  0  0  0  0  0
   43.9690   36.3250   44.5500 H   0  0  0  0  0  0  0  0  0  0  0  0
   45.9580   36.5570   43.0230 H   0  0  0  0  0  0  0  0  0  0  0  0
   47.5070   34.9140   43.6560 H   0  0  0  0  0  0  0  0  0  0  0  0
   46.8690   34.3650   42.0950 H   0  0  0  0  0  0  0  0  0  0  0  0
   45.2130   32.8840   43.4640 H   0  0  0  0  0  0  0  0  0  0  0  0
   46.9970   32.6560   43.5480 H   0  0  0  0  0  0  0  0  0  0  0  0
   44.5210   35.2890   42.0570 C   0  0  0  0  0  0  0  0  0  0  0  0
   43.4550   34.4970   42.4480 F   0  0  0  0  0  0  0  0  0  0  0  0
   43.9840   36.5280   41.7230 F   0  0  0  0  0  0  0  0  0  0  0  0
   45.1940   34.8250   40.9430 F   0  0  0  0  0  0  0  0  0  0  0  0
   46.8270   30.5830   44.9050 C   0  0  0  0  0  0  0  0  0  0  0  0
   46.4730   29.9070   43.7830 C   0  0  0  0  0  0  0  0  0  0  0  0
   47.6410   29.4590   43.1550 C   0  0  0  0  0  0  0  0  0  0  0  0
   48.6430   29.8850   43.9230 N   0  0  0  0  0  0  0  0  0  0  0  0
   48.1890   30.5490   44.9590 N   0  0  0  0  0  0  0  0  0  0  0  0
   45.4130   29.8270   43.5670 H   0  0  0  0  0  0  0  0  0  0  0  0
   47.5680   28.9020   42.2480 H   0  0  0  0  0  0  0  0  0  0  0  0
   50.0410   29.5980   43.5730 C   0  0  0  0  0  2  0  0  0  0  0  0
   50.7910   29.0800   44.7900 C   0  0  0  0  0  2  0  0  0  0  0  0
   51.7520   29.6220   44.9220 H   0  0  0  0  0  0  0  0  0  0  0  0
  1  8  1  0  0  0  0
  1  6  1  0  0  0  0
  2  1  2  0  0  0  0
  3  2  1  0  0  0  0
  3  4  2  0  0  0  0
  4  5  1  0  0  0  0
  5  6  2  0  0  0  0
  5  7  1  0  0  0  0
  7  9  1  0  0  0  0
  7 10  1  0  0  0  0
 11 12  1  0  0  0  0
 11 17  1  1  0  0  0
 11  2  1  0  0  0  0
 12 18  1  0  0  0  0
 13 19  1  0  0  0  0
 13 12  2  0  0  0  0
 14 20  1  6  0  0  0
 14 13  1  0  0  0  0
 15 14  1  0  0  0  0
 15 21  1  0  0  0  0
 15 16  1  0  0  0  0
 16 11  1  0  0  0  0
 22 15  1  0  0  0  0
 23 16  1  0  0  0  0
 24 16  1  0  0  0  0
 25 26  1  0  0  0  0
 25 14  1  0  0  0  0
 27 25  1  0  0  0  0
 28 25  1  0  0  0  0
 29 33  2  0  0  0  0
 29  3  1  0  0  0  0
 30 29  1  0  0  0  0
 31 30  2  0  0  0  0
 31 32  1  0  0  0  0
 32 33  1  0  0  0  0
 34 30  1  0  0  0  0
 35 31  1  0  0  0  0
 36 32  1  0  0  0  0
 36 37  1  0  0  0  0
 37 38  1  0  0  0  0
M  END
>  <minimizedAffinity>
-5.48448515

>  <minimizedRMSD>
0.0715943351

$$$$
