
 OpenBabel03232518233D

 13 13  0  0  0  0  0  0  0  0999 V2000
   44.4840   35.8600   44.6180 C   0  0  0  0  0  0  0  0  0  0  0  0
   45.0720   35.9750   43.3420 C   0  0  0  0  0  0  0  0  0  0  0  0
   46.0890   35.0450   42.9960 C   0  0  0  0  0  0  0  0  0  0  0  0
   46.4380   34.0950   43.9180 N   0  0  0  0  0  0  0  0  0  0  0  0
   45.8390   34.0380   45.1180 C   0  0  0  0  0  0  0  0  0  0  0  0
   44.8800   34.9020   45.4640 N   0  0  0  0  0  0  0  0  0  0  0  0
   43.7170   36.5730   44.8680 H   0  0  0  0  0  0  0  0  0  0  0  0
   44.8040   36.7110   42.6190 H   0  0  0  0  0  0  0  0  0  0  0  0
   46.5510   35.1180   42.0190 H   0  0  0  0  0  0  0  0  0  0  0  0
   46.3400   32.7680   46.2740 S   0  0  0  0  0  0  0  0  0  0  0  0
   45.2350   32.7430   47.7060 C   0  0  0  0  0  0  0  0  0  0  0  0
   45.8860   32.1900   48.9310 C   0  0  0  0  0  0  0  0  0  0  0  0
   45.6000   31.1110   49.0930 H   0  0  0  0  0  0  0  0  0  0  0  0
  1  7  1  0  0  0  0
  1  6  1  0  0  0  0
  2  1  2  0  0  0  0
  3  2  1  0  0  0  0
  3  4  2  0  0  0  0
  4  5  1  0  0  0  0
  5  6  2  0  0  0  0
  5 10  1  0  0  0  0
  8  2  1  0  0  0  0
  9  3  1  0  0  0  0
 10 11  1  0  0  0  0
 11 12  1  0  0  0  0
 12 13  1  0  0  0  0
M  END
>  <minimizedAffinity>
-3.45093107

>  <minimizedRMSD>
0.261699915

$$$$
