
 OpenBabel03232516313D

 37 39  0  0  0  0  0  0  0  0999 V2000
   47.5910   34.7960   41.4480 C   0  0  0  0  0  0  0  0  0  0  0  0
   47.5560   35.0900   40.4010 H   0  0  0  0  0  0  0  0  0  0  0  0
   47.5380   35.7640   42.0240 H   0  0  0  0  0  0  0  0  0  0  0  0
   48.8810   34.1810   41.7910 C   0  0  0  0  0  0  0  0  0  0  0  0
   49.8120   34.4280   42.7380 N   0  0  0  0  0  0  0  0  0  0  0  0
   50.8030   33.5690   42.6120 O   0  0  0  0  0  0  0  0  0  0  0  0
   50.5490   32.7670   41.6080 C   0  0  0  0  0  0  0  0  0  0  0  0
   49.3770   33.1260   41.0950 N   0  0  0  0  0  0  0  0  0  0  0  0
   51.5010   31.7960   41.3390 O   0  0  0  0  0  0  0  0  0  0  0  0
   51.9290   31.4830   40.0610 C   0  0  0  0  0  0  0  0  0  0  0  0
   53.2770   31.2380   39.8190 C   0  0  0  0  0  0  0  0  0  0  0  0
   53.3910   30.9540   38.4500 C   0  0  0  0  0  0  0  0  0  0  0  0
   52.1490   31.0320   37.9230 N   0  0  0  0  0  0  0  0  0  0  0  0
   51.2590   31.3490   38.8740 N   0  0  0  0  0  0  0  0  0  0  0  0
   54.1140   31.2460   40.4830 H   0  0  0  0  0  0  0  0  0  0  0  0
   54.2540   30.7080   37.8350 H   0  0  0  0  0  0  0  0  0  0  0  0
   51.6790   30.8330   36.5550 C   0  0  0  0  0  0  0  0  0  0  0  0
   51.8140   29.3960   36.1440 C   0  0  0  0  0  0  0  0  0  0  0  0
   50.8860   29.0190   35.6620 H   0  0  0  0  0  0  0  0  0  0  0  0
   46.3910   34.0170   41.8720 C   0  0  0  0  0  0  0  0  0  0  0  0
   45.3530   34.1100   45.3790 C   0  0  0  0  0  0  0  0  0  0  0  0
   44.6970   35.3280   45.5000 C   0  0  0  0  0  0  0  0  0  0  0  0
   44.6050   36.1300   44.3660 C   0  0  0  0  0  0  0  0  0  0  0  0
   45.1670   35.6770   43.2000 N   0  0  0  0  0  0  0  0  0  0  0  0
   45.7950   34.4890   43.1280 C   0  0  0  0  0  0  0  0  0  0  0  0
   45.8840   33.7120   44.2230 N   0  0  0  0  0  0  0  0  0  0  0  0
   45.4710   33.4200   46.2180 H   0  0  0  0  0  0  0  0  0  0  0  0
   44.2760   35.6240   46.4510 H   0  0  0  0  0  0  0  0  0  0  0  0
   44.1020   37.0900   44.4100 H   0  0  0  0  0  0  0  0  0  0  0  0
   45.3560   34.1710   40.7590 C   0  0  0  0  0  0  0  0  0  0  0  0
   44.3480   33.9260   41.1580 H   0  0  0  0  0  0  0  0  0  0  0  0
   45.3880   35.2380   40.4070 H   0  0  0  0  0  0  0  0  0  0  0  0
   45.6570   33.5080   39.9270 H   0  0  0  0  0  0  0  0  0  0  0  0
   46.6960   32.5450   41.9450 C   0  0  0  0  0  0  0  0  0  0  0  0
   47.3190   32.2450   41.0850 H   0  0  0  0  0  0  0  0  0  0  0  0
   45.7150   32.0110   41.8900 H   0  0  0  0  0  0  0  0  0  0  0  0
   47.1390   32.3390   42.9210 H   0  0  0  0  0  0  0  0  0  0  0  0
  1  4  1  0  0  0  0
  1 20  1  0  0  0  0
  1  3  1  0  0  0  0
  2  1  1  0  0  0  0
  4  5  2  0  0  0  0
  6  5  1  0  0  0  0
  7  6  1  0  0  0  0
  8  7  2  0  0  0  0
  8  4  1  0  0  0  0
  9  7  1  0  0  0  0
 10  9  1  0  0  0  0
 11 10  1  0  0  0  0
 11 15  1  0  0  0  0
 12 11  2  0  0  0  0
 13 12  1  0  0  0  0
 13 14  1  0  0  0  0
 14 10  2  0  0  0  0
 16 12  1  0  0  0  0
 17 13  1  0  0  0  0
 18 17  1  0  0  0  0
 19 18  1  0  0  0  0
 20 34  1  0  0  0  0
 20 25  1  0  0  0  0
 21 22  1  0  0  0  0
 21 27  1  0  0  0  0
 22 28  1  0  0  0  0
 23 29  1  0  0  0  0
 23 22  2  0  0  0  0
 24 23  1  0  0  0  0
 25 24  2  0  0  0  0
 25 26  1  0  0  0  0
 26 21  2  0  0  0  0
 30 31  1  0  0  0  0
 30 20  1  0  0  0  0
 32 30  1  0  0  0  0
 33 30  1  0  0  0  0
 34 37  1  0  0  0  0
 35 34  1  0  0  0  0
 36 34  1  0  0  0  0
M  END
>  <minimizedAffinity>
-4.92268658

>  <minimizedRMSD>
1.22955704

$$$$
