
 OpenBabel03232520593D

 38 40  0  0  1  0  0  0  0  0999 V2000
   45.3940   32.8810   47.5040 C   0  0  0  0  0  0  0  0  0  0  0  0
   45.9280   32.6300   46.2830 C   0  0  0  0  0  0  0  0  0  0  0  0
   46.1740   31.2790   46.0210 C   0  0  0  0  0  0  0  0  0  0  0  0
   45.9090   30.2790   46.8980 N   0  0  0  0  0  0  0  0  0  0  0  0
   45.3630   30.5870   48.1360 C   0  0  0  0  0  0  0  0  0  0  0  0
   45.1220   31.8670   48.4050 N   0  0  0  0  0  0  0  0  0  0  0  0
   45.0860   29.5700   49.0820 N   0  0  0  0  0  0  0  0  0  0  0  0
   45.1700   33.8910   47.8100 H   0  0  0  0  0  0  0  0  0  0  0  0
   44.1780   29.2100   49.4040 H   0  0  0  0  0  0  0  0  0  0  0  0
   46.0280   29.2520   49.3930 H   0  0  0  0  0  0  0  0  0  0  0  0
   46.1720   33.5880   45.2590 C   0  0  2  0  0  0  0  0  0  0  0  0
   44.9540   34.6740   45.4940 C   0  0  0  0  0  0  0  0  0  0  0  0
   44.7260   35.6140   44.4320 C   0  0  0  0  0  0  0  0  0  0  0  0
   45.5260   35.5540   43.2090 C   0  0  1  0  0  0  0  0  0  0  0  0
   46.5860   34.5550   43.1550 C   0  0  0  0  0  0  0  0  0  0  0  0
   46.1430   33.3130   43.8930 C   0  0  0  0  0  0  0  0  0  0  0  0
   46.9380   34.3440   45.6050 H   0  0  0  0  0  0  0  0  0  0  0  0
   44.2730   34.8100   46.3250 H   0  0  0  0  0  0  0  0  0  0  0  0
   43.9560   36.3290   44.5450 H   0  0  0  0  0  0  0  0  0  0  0  0
   45.9450   36.5630   43.0190 H   0  0  0  0  0  0  0  0  0  0  0  0
   47.4990   34.9260   43.6560 H   0  0  0  0  0  0  0  0  0  0  0  0
   46.8630   34.3720   42.0960 H   0  0  0  0  0  0  0  0  0  0  0  0
   45.2100   32.8900   43.4670 H   0  0  0  0  0  0  0  0  0  0  0  0
   46.9950   32.6660   43.5530 H   0  0  0  0  0  0  0  0  0  0  0  0
   44.5120   35.2900   42.0550 C   0  0  0  0  0  0  0  0  0  0  0  0
   43.4500   34.4930   42.4460 F   0  0  0  0  0  0  0  0  0  0  0  0
   43.9700   36.5260   41.7200 F   0  0  0  0  0  0  0  0  0  0  0  0
   45.1880   34.8280   40.9410 F   0  0  0  0  0  0  0  0  0  0  0  0
   46.7910   30.5900   44.9000 C   0  0  0  0  0  0  0  0  0  0  0  0
   46.4220   29.8610   43.8150 C   0  0  0  0  0  0  0  0  0  0  0  0
   47.5810   29.4500   43.1490 C   0  0  0  0  0  0  0  0  0  0  0  0
   48.5940   29.9480   43.8570 N   0  0  0  0  0  0  0  0  0  0  0  0
   48.1540   30.6230   44.8920 N   0  0  0  0  0  0  0  0  0  0  0  0
   45.3590   29.7240   43.6520 H   0  0  0  0  0  0  0  0  0  0  0  0
   47.4960   28.8610   42.2640 H   0  0  0  0  0  0  0  0  0  0  0  0
   49.9880   29.7170   43.4520 C   0  0  0  0  0  2  0  0  0  0  0  0
   50.7870   29.1550   44.6160 C   0  0  0  0  0  2  0  0  0  0  0  0
   51.7380   29.7150   44.7500 H   0  0  0  0  0  0  0  0  0  0  0  0
  1  8  1  0  0  0  0
  1  6  1  0  0  0  0
  2  1  2  0  0  0  0
  3  2  1  0  0  0  0
  3  4  2  0  0  0  0
  4  5  1  0  0  0  0
  5  6  2  0  0  0  0
  5  7  1  0  0  0  0
  7 10  1  0  0  0  0
  7  9  1  0  0  0  0
 11 12  1  0  0  0  0
 11 17  1  1  0  0  0
 11  2  1  0  0  0  0
 12 18  1  0  0  0  0
 13 19  1  0  0  0  0
 13 12  2  0  0  0  0
 14 20  1  6  0  0  0
 14 13  1  0  0  0  0
 15 14  1  0  0  0  0
 15 21  1  0  0  0  0
 15 16  1  0  0  0  0
 16 11  1  0  0  0  0
 22 15  1  0  0  0  0
 23 16  1  0  0  0  0
 24 16  1  0  0  0  0
 25 26  1  0  0  0  0
 25 14  1  0  0  0  0
 27 25  1  0  0  0  0
 28 25  1  0  0  0  0
 29  3  1  0  0  0  0
 30 29  1  0  0  0  0
 31 30  2  0  0  0  0
 31 32  1  0  0  0  0
 32 33  1  0  0  0  0
 33 29  2  0  0  0  0
 34 30  1  0  0  0  0
 35 31  1  0  0  0  0
 36 32  1  0  0  0  0
 36 37  1  0  0  0  0
 37 38  1  0  0  0  0
M  END
>  <minimizedAffinity>
-5.49119949

>  <minimizedRMSD>
0.160477713

$$$$
