
 OpenBabel03232520013D

 16 16  0  0  0  0  0  0  0  0999 V2000
   48.0490   34.8180   42.1680 C   0  0  0  0  0  0  0  0  0  0  0  0
   47.4860   34.5350   40.9240 C   0  0  0  0  0  0  0  0  0  0  0  0
   46.2700   33.8440   40.9000 C   0  0  0  0  0  0  0  0  0  0  0  0
   45.7040   33.4860   42.0970 N   0  0  0  0  0  0  0  0  0  0  0  0
   46.3000   33.7880   43.2640 C   0  0  0  0  0  0  0  0  0  0  0  0
   47.4520   34.4420   43.3060 N   0  0  0  0  0  0  0  0  0  0  0  0
   47.9830   34.8470   40.0110 H   0  0  0  0  0  0  0  0  0  0  0  0
   45.7920   33.6010   39.9610 H   0  0  0  0  0  0  0  0  0  0  0  0
   49.3290   35.5450   42.1940 C   0  0  0  0  0  0  0  0  0  0  0  0
   49.4970   36.5240   41.4150 O   0  0  0  0  0  0  0  0  0  0  0  0
   50.3090   35.1430   43.0620 O   0  0  0  0  0  0  0  0  0  0  0  0
   51.2740   35.3160   42.8040 H   0  0  0  0  0  0  0  0  0  0  0  0
   45.6050   33.3430   44.8570 S   0  0  0  0  0  0  0  0  0  0  0  0
   44.9010   34.8740   45.5570 C   0  0  0  0  0  0  0  0  0  0  0  0
   44.4870   35.8220   44.4750 C   0  0  0  0  0  0  0  0  0  0  0  0
   45.3520   36.3350   44.0490 H   0  0  0  0  0  0  0  0  0  0  0  0
  1  9  1  0  0  0  0
  1  6  1  0  0  0  0
  2  1  2  0  0  0  0
  3  2  1  0  0  0  0
  3  4  2  0  0  0  0
  4  5  1  0  0  0  0
  5  6  2  0  0  0  0
  5 13  1  0  0  0  0
  7  2  1  0  0  0  0
  8  3  1  0  0  0  0
  9 11  1  0  0  0  0
 10  9  2  0  0  0  0
 12 11  1  0  0  0  0
 13 14  1  0  0  0  0
 15 14  1  0  0  0  0
 16 15  1  0  0  0  0
M  END
>  <minimizedAffinity>
-4.19854021

>  <minimizedRMSD>
0.387137443

$$$$
