
 OpenBabel03232516273D

 31 32  0  0  0  0  0  0  0  0999 V2000
   45.4270   33.4810   41.5920 C   0  0  0  0  0  0  0  0  0  0  0  0
   45.4280   33.9230   45.2240 C   0  0  0  0  0  0  0  0  0  0  0  0
   44.8360   35.1950   45.4090 C   0  0  0  0  0  0  0  0  0  0  0  0
   44.4370   35.8980   44.2540 C   0  0  0  0  0  0  0  0  0  0  0  0
   44.6440   35.3110   43.0410 N   0  0  0  0  0  0  0  0  0  0  0  0
   45.2170   34.0900   42.9320 C   0  0  0  0  0  0  0  0  0  0  0  0
   45.6090   33.3960   44.0180 N   0  0  0  0  0  0  0  0  0  0  0  0
   45.7130   33.4350   46.1480 H   0  0  0  0  0  0  0  0  0  0  0  0
   44.6890   35.6270   46.3890 H   0  0  0  0  0  0  0  0  0  0  0  0
   43.9800   36.8700   44.3240 H   0  0  0  0  0  0  0  0  0  0  0  0
   44.1020   33.4720   40.8480 C   0  0  0  0  0  0  0  0  0  0  0  0
   43.6220   32.4670   40.8350 H   0  0  0  0  0  0  0  0  0  0  0  0
   44.2150   33.8140   39.7980 H   0  0  0  0  0  0  0  0  0  0  0  0
   43.4070   34.2100   41.3380 H   0  0  0  0  0  0  0  0  0  0  0  0
   45.8250   32.0320   41.7370 C   0  0  0  0  0  0  0  0  0  0  0  0
   45.0120   31.4410   42.1850 H   0  0  0  0  0  0  0  0  0  0  0  0
   46.7700   31.9210   42.2970 H   0  0  0  0  0  0  0  0  0  0  0  0
   45.9770   31.6350   40.7010 H   0  0  0  0  0  0  0  0  0  0  0  0
   46.4000   34.2360   40.7490 C   0  0  0  0  0  0  0  0  0  0  0  0
   45.9360   35.1820   40.4250 H   0  0  0  0  0  0  0  0  0  0  0  0
   46.5440   33.6420   39.8220 H   0  0  0  0  0  0  0  0  0  0  0  0
   47.6990   34.5020   41.3880 C   0  0  0  0  0  0  0  0  0  0  0  0
   48.2410   35.5890   41.9630 N   0  0  0  0  0  0  0  0  0  0  0  0
   49.4530   35.3010   42.3900 O   0  0  0  0  0  0  0  0  0  0  0  0
   49.7190   34.0420   42.1090 C   0  0  0  0  0  0  0  0  0  0  0  0
   48.6570   33.5370   41.4950 N   0  0  0  0  0  0  0  0  0  0  0  0
   50.9750   33.5720   42.4980 O   0  0  0  0  0  0  0  0  0  0  0  0
   51.3460   32.3540   41.9140 C   0  0  0  0  0  0  0  0  0  0  0  0
   50.9100   31.2760   42.4410 O   0  0  0  0  0  0  0  0  0  0  0  0
   52.1540   32.2530   40.8030 O   0  0  0  0  0  0  0  0  0  0  0  0
   52.0190   31.4920   40.1190 H   0  0  0  0  0  0  0  0  0  0  0  0
  1 15  1  0  0  0  0
  1  6  1  0  0  0  0
  2  3  1  0  0  0  0
  2  8  1  0  0  0  0
  3  9  1  0  0  0  0
  4 10  1  0  0  0  0
  4  3  2  0  0  0  0
  5  4  1  0  0  0  0
  6  5  2  0  0  0  0
  6  7  1  0  0  0  0
  7  2  2  0  0  0  0
 11 14  1  0  0  0  0
 11  1  1  0  0  0  0
 12 11  1  0  0  0  0
 13 11  1  0  0  0  0
 15 16  1  0  0  0  0
 15 17  1  0  0  0  0
 18 15  1  0  0  0  0
 19 22  1  0  0  0  0
 19  1  1  0  0  0  0
 20 19  1  0  0  0  0
 21 19  1  0  0  0  0
 22 26  1  0  0  0  0
 22 23  2  0  0  0  0
 23 24  1  0  0  0  0
 25 24  1  0  0  0  0
 25 27  1  0  0  0  0
 26 25  2  0  0  0  0
 28 29  2  0  0  0  0
 28 27  1  0  0  0  0
 30 28  1  0  0  0  0
 31 30  1  0  0  0  0
M  END
>  <minimizedAffinity>
-4.62951994

>  <minimizedRMSD>
1.10959625

$$$$
