
 OpenBabel03232520593D

 38 40  0  0  1  0  0  0  0  0999 V2000
   45.3800   32.8810   47.5030 C   0  0  0  0  0  0  0  0  0  0  0  0
   45.9280   32.6290   46.2880 C   0  0  0  0  0  0  0  0  0  0  0  0
   46.1880   31.2790   46.0350 C   0  0  0  0  0  0  0  0  0  0  0  0
   45.9220   30.2810   46.9140 N   0  0  0  0  0  0  0  0  0  0  0  0
   45.3620   30.5900   48.1450 C   0  0  0  0  0  0  0  0  0  0  0  0
   45.1080   31.8680   48.4060 N   0  0  0  0  0  0  0  0  0  0  0  0
   45.0850   29.5740   49.0920 N   0  0  0  0  0  0  0  0  0  0  0  0
   45.1440   33.8900   47.8020 H   0  0  0  0  0  0  0  0  0  0  0  0
   44.1760   29.2080   49.4080 H   0  0  0  0  0  0  0  0  0  0  0  0
   46.0250   29.2660   49.4140 H   0  0  0  0  0  0  0  0  0  0  0  0
   46.1740   33.5840   45.2620 C   0  0  2  0  0  0  0  0  0  0  0  0
   44.9580   34.6730   45.4960 C   0  0  0  0  0  0  0  0  0  0  0  0
   44.7320   35.6120   44.4320 C   0  0  0  0  0  0  0  0  0  0  0  0
   45.5320   35.5480   43.2080 C   0  0  1  0  0  0  0  0  0  0  0  0
   46.5900   34.5460   43.1570 C   0  0  0  0  0  0  0  0  0  0  0  0
   46.1450   33.3070   43.8970 C   0  0  0  0  0  0  0  0  0  0  0  0
   46.9420   34.3400   45.6070 H   0  0  0  0  0  0  0  0  0  0  0  0
   44.2780   34.8130   46.3260 H   0  0  0  0  0  0  0  0  0  0  0  0
   43.9640   36.3300   44.5430 H   0  0  0  0  0  0  0  0  0  0  0  0
   45.9530   36.5560   43.0160 H   0  0  0  0  0  0  0  0  0  0  0  0
   47.5040   34.9170   43.6570 H   0  0  0  0  0  0  0  0  0  0  0  0
   46.8660   34.3610   42.0980 H   0  0  0  0  0  0  0  0  0  0  0  0
   45.2100   32.8850   43.4720 H   0  0  0  0  0  0  0  0  0  0  0  0
   46.9940   32.6580   43.5580 H   0  0  0  0  0  0  0  0  0  0  0  0
   44.5170   35.2840   42.0550 C   0  0  0  0  0  0  0  0  0  0  0  0
   43.4570   34.4850   42.4460 F   0  0  0  0  0  0  0  0  0  0  0  0
   43.9740   36.5200   41.7220 F   0  0  0  0  0  0  0  0  0  0  0  0
   45.1930   34.8250   40.9400 F   0  0  0  0  0  0  0  0  0  0  0  0
   46.8220   30.5900   44.9230 C   0  0  0  0  0  0  0  0  0  0  0  0
   46.4680   29.9040   43.8060 C   0  0  0  0  0  0  0  0  0  0  0  0
   47.6350   29.4580   43.1770 C   0  0  0  0  0  0  0  0  0  0  0  0
   48.6380   29.8950   43.9390 N   0  0  0  0  0  0  0  0  0  0  0  0
   48.1840   30.5640   44.9710 N   0  0  0  0  0  0  0  0  0  0  0  0
   45.4070   29.8170   43.5960 H   0  0  0  0  0  0  0  0  0  0  0  0
   47.5620   28.8940   42.2750 H   0  0  0  0  0  0  0  0  0  0  0  0
   50.0370   29.6130   43.5860 C   0  0  0  0  0  2  0  0  0  0  0  0
   50.1030   28.5230   42.5310 C   0  0  0  0  0  2  0  0  0  0  0  0
   50.8360   27.7380   42.8200 H   0  0  0  0  0  0  0  0  0  0  0  0
  1  8  1  0  0  0  0
  1  6  1  0  0  0  0
  2  1  2  0  0  0  0
  3  2  1  0  0  0  0
  3  4  2  0  0  0  0
  4  5  1  0  0  0  0
  5  6  2  0  0  0  0
  5  7  1  0  0  0  0
  7  9  1  0  0  0  0
  7 10  1  0  0  0  0
 11 12  1  0  0  0  0
 11 17  1  1  0  0  0
 11  2  1  0  0  0  0
 12 18  1  0  0  0  0
 13 19  1  0  0  0  0
 13 12  2  0  0  0  0
 14 20  1  6  0  0  0
 14 13  1  0  0  0  0
 15 14  1  0  0  0  0
 15 21  1  0  0  0  0
 15 16  1  0  0  0  0
 16 11  1  0  0  0  0
 22 15  1  0  0  0  0
 23 16  1  0  0  0  0
 24 16  1  0  0  0  0
 25 26  1  0  0  0  0
 25 14  1  0  0  0  0
 27 25  1  0  0  0  0
 28 25  1  0  0  0  0
 29 33  2  0  0  0  0
 29  3  1  0  0  0  0
 30 29  1  0  0  0  0
 31 30  2  0  0  0  0
 31 32  1  0  0  0  0
 32 33  1  0  0  0  0
 34 30  1  0  0  0  0
 35 31  1  0  0  0  0
 36 32  1  0  0  0  0
 37 38  1  0  0  0  0
 37 36  1  0  0  0  0
M  END
>  <minimizedAffinity>
-5.42578077

>  <minimizedRMSD>
0.073699221

$$$$
