
 OpenBabel03232520583D

 38 40  0  0  1  0  0  0  0  0999 V2000
   45.3820   32.8580   47.4920 C   0  0  0  0  0  0  0  0  0  0  0  0
   45.9320   32.6130   46.2770 C   0  0  0  0  0  0  0  0  0  0  0  0
   46.1960   31.2640   46.0170 C   0  0  0  0  0  0  0  0  0  0  0  0
   45.9300   30.2620   46.8920 N   0  0  0  0  0  0  0  0  0  0  0  0
   45.3670   30.5640   48.1230 C   0  0  0  0  0  0  0  0  0  0  0  0
   45.1110   31.8410   48.3890 N   0  0  0  0  0  0  0  0  0  0  0  0
   45.0900   29.5440   49.0650 N   0  0  0  0  0  0  0  0  0  0  0  0
   45.1440   33.8650   47.7950 H   0  0  0  0  0  0  0  0  0  0  0  0
   44.1820   29.1740   49.3770 H   0  0  0  0  0  0  0  0  0  0  0  0
   46.0310   29.2360   49.3870 H   0  0  0  0  0  0  0  0  0  0  0  0
   46.1780   33.5730   45.2550 C   0  0  2  0  0  0  0  0  0  0  0  0
   44.9640   34.6620   45.4950 C   0  0  0  0  0  0  0  0  0  0  0  0
   44.7380   35.6060   44.4370 C   0  0  0  0  0  0  0  0  0  0  0  0
   45.5360   35.5480   43.2120 C   0  0  1  0  0  0  0  0  0  0  0  0
   46.5940   34.5460   43.1550 C   0  0  0  0  0  0  0  0  0  0  0  0
   46.1480   33.3030   43.8890 C   0  0  0  0  0  0  0  0  0  0  0  0
   46.9480   34.3260   45.6040 H   0  0  0  0  0  0  0  0  0  0  0  0
   44.2840   34.7970   46.3280 H   0  0  0  0  0  0  0  0  0  0  0  0
   43.9700   36.3240   44.5530 H   0  0  0  0  0  0  0  0  0  0  0  0
   45.9580   36.5570   43.0250 H   0  0  0  0  0  0  0  0  0  0  0  0
   47.5080   34.9130   43.6550 H   0  0  0  0  0  0  0  0  0  0  0  0
   46.8680   34.3660   42.0950 H   0  0  0  0  0  0  0  0  0  0  0  0
   45.2120   32.8840   43.4630 H   0  0  0  0  0  0  0  0  0  0  0  0
   46.9960   32.6550   43.5450 H   0  0  0  0  0  0  0  0  0  0  0  0
   44.5200   35.2910   42.0590 C   0  0  0  0  0  0  0  0  0  0  0  0
   43.4540   34.4990   42.4490 F   0  0  0  0  0  0  0  0  0  0  0  0
   43.9850   36.5310   41.7260 F   0  0  0  0  0  0  0  0  0  0  0  0
   45.1930   34.8270   40.9440 F   0  0  0  0  0  0  0  0  0  0  0  0
   46.8320   30.5820   44.9030 C   0  0  0  0  0  0  0  0  0  0  0  0
   46.4820   29.9040   43.7810 C   0  0  0  0  0  0  0  0  0  0  0  0
   47.6510   29.4600   43.1540 C   0  0  0  0  0  0  0  0  0  0  0  0
   48.6520   29.8900   43.9220 N   0  0  0  0  0  0  0  0  0  0  0  0
   48.1950   30.5530   44.9570 N   0  0  0  0  0  0  0  0  0  0  0  0
   45.4220   29.8200   43.5650 H   0  0  0  0  0  0  0  0  0  0  0  0
   47.5800   28.9020   42.2480 H   0  0  0  0  0  0  0  0  0  0  0  0
   50.0510   29.6080   43.5730 C   0  0  0  0  0  2  0  0  0  0  0  0
   50.1240   28.8730   42.2450 C   0  0  0  0  0  2  0  0  0  0  0  0
   50.7810   27.9810   42.3250 H   0  0  0  0  0  0  0  0  0  0  0  0
  1  8  1  0  0  0  0
  1  6  1  0  0  0  0
  2  1  2  0  0  0  0
  3  2  1  0  0  0  0
  3  4  2  0  0  0  0
  4  5  1  0  0  0  0
  5  6  2  0  0  0  0
  5  7  1  0  0  0  0
  7  9  1  0  0  0  0
  7 10  1  0  0  0  0
 11 12  1  0  0  0  0
 11 17  1  1  0  0  0
 11  2  1  0  0  0  0
 12 18  1  0  0  0  0
 13 19  1  0  0  0  0
 13 12  2  0  0  0  0
 14 20  1  6  0  0  0
 14 13  1  0  0  0  0
 15 14  1  0  0  0  0
 15 21  1  0  0  0  0
 15 16  1  0  0  0  0
 16 11  1  0  0  0  0
 22 15  1  0  0  0  0
 23 16  1  0  0  0  0
 24 16  1  0  0  0  0
 25 26  1  0  0  0  0
 25 14  1  0  0  0  0
 27 25  1  0  0  0  0
 28 25  1  0  0  0  0
 29 33  2  0  0  0  0
 29  3  1  0  0  0  0
 30 29  1  0  0  0  0
 31 30  2  0  0  0  0
 31 32  1  0  0  0  0
 32 33  1  0  0  0  0
 34 30  1  0  0  0  0
 35 31  1  0  0  0  0
 36 32  1  0  0  0  0
 37 38  1  0  0  0  0
 37 36  1  0  0  0  0
M  END
>  <minimizedAffinity>
-5.42349148

>  <minimizedRMSD>
0.0808659196

$$$$
