
 OpenBabel03232517543D

 31 33  0  0  0  0  0  0  0  0999 V2000
   46.6140   31.6050   44.0480 N   0  0  0  0  0  0  0  0  0  0  0  0
   46.2660   30.3990   43.5250 C   0  0  0  0  0  0  0  0  0  0  0  0
   46.9810   30.2110   42.4000 N   0  0  0  0  0  0  0  0  0  0  0  0
   47.7680   31.2730   42.2110 C   0  0  0  0  0  0  0  0  0  0  0  0
   48.7040   31.6590   41.2610 C   0  0  0  0  0  0  0  0  0  0  0  0
   49.3170   32.8430   41.4060 N   0  0  0  0  0  0  0  0  0  0  0  0
   49.1070   33.7090   42.4070 C   0  0  0  0  0  0  0  0  0  0  0  0
   48.1980   33.3570   43.3470 N   0  0  0  0  0  0  0  0  0  0  0  0
   47.5470   32.1660   43.2450 C   0  0  0  0  0  0  0  0  0  0  0  0
   45.5290   29.7130   43.9580 H   0  0  0  0  0  0  0  0  0  0  0  0
   48.9190   30.9990   40.4240 H   0  0  0  0  0  0  0  0  0  0  0  0
   45.0570   34.1210   46.2360 C   0  0  0  0  0  0  0  0  0  0  0  0
   45.5640   33.4990   45.0990 C   0  0  0  0  0  0  0  0  0  0  0  0
   46.1120   32.1990   45.2180 C   0  0  0  0  0  0  0  0  0  0  0  0
   46.1020   31.6500   46.4520 N   0  0  0  0  0  0  0  0  0  0  0  0
   45.6090   32.2640   47.5320 C   0  0  0  0  0  0  0  0  0  0  0  0
   45.0900   33.4870   47.4380 N   0  0  0  0  0  0  0  0  0  0  0  0
   44.4860   35.4120   46.2450 N   0  0  0  0  0  0  0  0  0  0  0  0
   45.5230   34.0250   44.1670 H   0  0  0  0  0  0  0  0  0  0  0  0
   45.6320   31.7650   48.4920 H   0  0  0  0  0  0  0  0  0  0  0  0
   44.0170   35.6500   45.3230 H   0  0  0  0  0  0  0  0  0  0  0  0
   44.5320   36.0320   47.0600 H   0  0  0  0  0  0  0  0  0  0  0  0
   49.8570   34.9680   42.4300 C   0  0  0  0  0  0  0  0  0  0  0  0
   49.9620   35.2410   43.5210 H   0  0  0  0  0  0  0  0  0  0  0  0
   50.8740   34.8250   42.0760 H   0  0  0  0  0  0  0  0  0  0  0  0
   49.1890   36.0730   41.6720 C   0  0  0  0  0  0  0  0  0  0  0  0
   48.2070   36.2930   42.0900 H   0  0  0  0  0  0  0  0  0  0  0  0
   49.8850   36.9180   41.5820 H   0  0  0  0  0  0  0  0  0  0  0  0
   48.9580   35.5540   40.3190 N   0  0  0  0  0  0  0  0  0  0  0  0
   48.1560   35.9840   39.8460 H   0  0  0  0  0  0  0  0  0  0  0  0
   49.0010   34.5140   40.2770 H   0  0  0  0  0  0  0  0  0  0  0  0
  1 14  1  0  0  0  0
  2 10  1  0  0  0  0
  2  1  1  0  0  0  0
  3  2  2  0  0  0  0
  4  3  1  0  0  0  0
  4  9  1  0  0  0  0
  5  6  1  0  0  0  0
  5  4  2  0  0  0  0
  6  7  2  0  0  0  0
  7 23  1  0  0  0  0
  7  8  1  0  0  0  0
  9  8  2  0  0  0  0
  9  1  1  0  0  0  0
 11  5  1  0  0  0  0
 12 18  1  0  0  0  0
 12 17  1  0  0  0  0
 13 14  1  0  0  0  0
 13 12  2  0  0  0  0
 14 15  2  0  0  0  0
 15 16  1  0  0  0  0
 16 20  1  0  0  0  0
 17 16  2  0  0  0  0
 18 22  1  0  0  0  0
 19 13  1  0  0  0  0
 21 18  1  0  0  0  0
 23 24  1  0  0  0  0
 25 23  1  0  0  0  0
 26 27  1  0  0  0  0
 26 23  1  0  0  0  0
 28 26  1  0  0  0  0
 29 26  1  0  0  0  0
 30 29  1  0  0  0  0
 31 29  1  0  0  0  0
M  END
>  <minimizedAffinity>
-5.08335781

>  <minimizedRMSD>
1.11568761

$$$$
