
 OpenBabel03232520593D

 38 40  0  0  1  0  0  0  0  0999 V2000
   45.3740   32.8910   47.5350 C   0  0  0  0  0  0  0  0  0  0  0  0
   45.9300   32.6250   46.3270 C   0  0  0  0  0  0  0  0  0  0  0  0
   46.1940   31.2720   46.0910 C   0  0  0  0  0  0  0  0  0  0  0  0
   45.9230   30.2850   46.9810 N   0  0  0  0  0  0  0  0  0  0  0  0
   45.3540   30.6080   48.2040 C   0  0  0  0  0  0  0  0  0  0  0  0
   45.0970   31.8900   48.4480 N   0  0  0  0  0  0  0  0  0  0  0  0
   45.0710   29.6040   49.1620 N   0  0  0  0  0  0  0  0  0  0  0  0
   45.1360   33.9040   47.8190 H   0  0  0  0  0  0  0  0  0  0  0  0
   44.1610   29.2410   49.4760 H   0  0  0  0  0  0  0  0  0  0  0  0
   46.0100   29.3010   49.4940 H   0  0  0  0  0  0  0  0  0  0  0  0
   46.1830   33.5680   45.2900 C   0  0  2  0  0  0  0  0  0  0  0  0
   44.9670   34.6610   45.5060 C   0  0  0  0  0  0  0  0  0  0  0  0
   44.7480   35.5880   44.4300 C   0  0  0  0  0  0  0  0  0  0  0  0
   45.5520   35.5080   43.2110 C   0  0  1  0  0  0  0  0  0  0  0  0
   46.6100   34.5050   43.1760 C   0  0  0  0  0  0  0  0  0  0  0  0
   46.1590   33.2750   43.9290 C   0  0  0  0  0  0  0  0  0  0  0  0
   46.9500   34.3260   45.6300 H   0  0  0  0  0  0  0  0  0  0  0  0
   44.2830   34.8110   46.3320 H   0  0  0  0  0  0  0  0  0  0  0  0
   43.9800   36.3080   44.5300 H   0  0  0  0  0  0  0  0  0  0  0  0
   45.9760   36.5130   43.0090 H   0  0  0  0  0  0  0  0  0  0  0  0
   47.5210   34.8790   43.6750 H   0  0  0  0  0  0  0  0  0  0  0  0
   46.8900   34.3070   42.1210 H   0  0  0  0  0  0  0  0  0  0  0  0
   45.2260   32.8490   43.5040 H   0  0  0  0  0  0  0  0  0  0  0  0
   47.0090   32.6200   43.6010 H   0  0  0  0  0  0  0  0  0  0  0  0
   44.5430   35.2320   42.0560 C   0  0  0  0  0  0  0  0  0  0  0  0
   43.5050   34.4010   42.4390 F   0  0  0  0  0  0  0  0  0  0  0  0
   43.9660   36.4580   41.7400 F   0  0  0  0  0  0  0  0  0  0  0  0
   45.2280   34.8050   40.9340 F   0  0  0  0  0  0  0  0  0  0  0  0
   46.8350   30.5710   44.9920 C   0  0  0  0  0  0  0  0  0  0  0  0
   46.4900   29.8990   43.8640 C   0  0  0  0  0  0  0  0  0  0  0  0
   47.6600   29.4230   43.2620 C   0  0  0  0  0  0  0  0  0  0  0  0
   48.6550   29.8290   44.0500 N   0  0  0  0  0  0  0  0  0  0  0  0
   48.1940   30.5060   45.0740 N   0  0  0  0  0  0  0  0  0  0  0  0
   45.4330   29.8420   43.6270 H   0  0  0  0  0  0  0  0  0  0  0  0
   47.5930   28.8650   42.3560 H   0  0  0  0  0  0  0  0  0  0  0  0
   50.0540   29.5100   43.7300 C   0  0  0  0  0  2  0  0  0  0  0  0
   50.6440   30.5810   42.8300 C   0  0  0  0  0  2  0  0  0  0  0  0
   51.1580   30.1230   41.9560 H   0  0  0  0  0  0  0  0  0  0  0  0
  1  8  1  0  0  0  0
  1  6  1  0  0  0  0
  2  1  2  0  0  0  0
  3  2  1  0  0  0  0
  3  4  2  0  0  0  0
  4  5  1  0  0  0  0
  5  6  2  0  0  0  0
  5  7  1  0  0  0  0
  7  9  1  0  0  0  0
  7 10  1  0  0  0  0
 11 12  1  0  0  0  0
 11 17  1  1  0  0  0
 11  2  1  0  0  0  0
 12 18  1  0  0  0  0
 13 19  1  0  0  0  0
 13 12  2  0  0  0  0
 14 20  1  6  0  0  0
 14 13  1  0  0  0  0
 15 14  1  0  0  0  0
 15 21  1  0  0  0  0
 15 16  1  0  0  0  0
 16 11  1  0  0  0  0
 22 15  1  0  0  0  0
 23 16  1  0  0  0  0
 24 16  1  0  0  0  0
 25 26  1  0  0  0  0
 25 14  1  0  0  0  0
 27 25  1  0  0  0  0
 28 25  1  0  0  0  0
 29 33  2  0  0  0  0
 29  3  1  0  0  0  0
 30 29  1  0  0  0  0
 31 30  2  0  0  0  0
 31 32  1  0  0  0  0
 32 33  1  0  0  0  0
 34 30  1  0  0  0  0
 35 31  1  0  0  0  0
 36 32  1  0  0  0  0
 37 36  1  0  0  0  0
 38 37  1  0  0  0  0
M  END
>  <minimizedAffinity>
-5.53082085

>  <minimizedRMSD>
0.27410689

$$$$
