
 OpenBabel03232520593D

 38 40  0  0  1  0  0  0  0  0999 V2000
   45.3700   32.8960   47.5290 C   0  0  0  0  0  0  0  0  0  0  0  0
   45.9250   32.6310   46.3200 C   0  0  0  0  0  0  0  0  0  0  0  0
   46.1890   31.2780   46.0840 C   0  0  0  0  0  0  0  0  0  0  0  0
   45.9180   30.2910   46.9730 N   0  0  0  0  0  0  0  0  0  0  0  0
   45.3490   30.6130   48.1970 C   0  0  0  0  0  0  0  0  0  0  0  0
   45.0930   31.8940   48.4410 N   0  0  0  0  0  0  0  0  0  0  0  0
   45.0670   29.6090   49.1550 N   0  0  0  0  0  0  0  0  0  0  0  0
   45.1310   33.9090   47.8140 H   0  0  0  0  0  0  0  0  0  0  0  0
   44.1570   29.2450   49.4680 H   0  0  0  0  0  0  0  0  0  0  0  0
   46.0060   29.3050   49.4860 H   0  0  0  0  0  0  0  0  0  0  0  0
   46.1780   33.5740   45.2840 C   0  0  2  0  0  0  0  0  0  0  0  0
   44.9640   34.6700   45.5030 C   0  0  0  0  0  0  0  0  0  0  0  0
   44.7450   35.5980   44.4290 C   0  0  0  0  0  0  0  0  0  0  0  0
   45.5470   35.5180   43.2080 C   0  0  1  0  0  0  0  0  0  0  0  0
   46.6020   34.5120   43.1700 C   0  0  0  0  0  0  0  0  0  0  0  0
   46.1510   33.2830   43.9230 C   0  0  0  0  0  0  0  0  0  0  0  0
   46.9470   34.3310   45.6240 H   0  0  0  0  0  0  0  0  0  0  0  0
   44.2820   34.8200   46.3300 H   0  0  0  0  0  0  0  0  0  0  0  0
   43.9780   36.3190   44.5300 H   0  0  0  0  0  0  0  0  0  0  0  0
   45.9720   36.5220   43.0060 H   0  0  0  0  0  0  0  0  0  0  0  0
   47.5150   34.8850   43.6680 H   0  0  0  0  0  0  0  0  0  0  0  0
   46.8810   34.3150   42.1140 H   0  0  0  0  0  0  0  0  0  0  0  0
   45.2160   32.8590   43.5000 H   0  0  0  0  0  0  0  0  0  0  0  0
   46.9990   32.6270   43.5920 H   0  0  0  0  0  0  0  0  0  0  0  0
   44.5350   35.2440   42.0550 C   0  0  0  0  0  0  0  0  0  0  0  0
   43.4890   34.4250   42.4420 F   0  0  0  0  0  0  0  0  0  0  0  0
   43.9690   36.4730   41.7320 F   0  0  0  0  0  0  0  0  0  0  0  0
   45.2150   34.8050   40.9350 F   0  0  0  0  0  0  0  0  0  0  0  0
   46.8300   30.5770   44.9840 C   0  0  0  0  0  0  0  0  0  0  0  0
   46.4850   29.9050   43.8570 C   0  0  0  0  0  0  0  0  0  0  0  0
   47.6550   29.4300   43.2540 C   0  0  0  0  0  0  0  0  0  0  0  0
   48.6510   29.8380   44.0410 N   0  0  0  0  0  0  0  0  0  0  0  0
   48.1900   30.5150   45.0650 N   0  0  0  0  0  0  0  0  0  0  0  0
   45.4280   29.8460   43.6210 H   0  0  0  0  0  0  0  0  0  0  0  0
   47.5890   28.8720   42.3480 H   0  0  0  0  0  0  0  0  0  0  0  0
   50.0500   29.5210   43.7200 C   0  0  0  0  0  2  0  0  0  0  0  0
   50.6380   30.5960   42.8220 C   0  0  0  0  0  2  0  0  0  0  0  0
   51.1530   30.1400   41.9470 H   0  0  0  0  0  0  0  0  0  0  0  0
  1  8  1  0  0  0  0
  1  6  1  0  0  0  0
  2  1  2  0  0  0  0
  3  2  1  0  0  0  0
  3  4  2  0  0  0  0
  4  5  1  0  0  0  0
  5  6  2  0  0  0  0
  5  7  1  0  0  0  0
  7  9  1  0  0  0  0
  7 10  1  0  0  0  0
 11 12  1  0  0  0  0
 11 17  1  1  0  0  0
 11  2  1  0  0  0  0
 12 18  1  0  0  0  0
 13 19  1  0  0  0  0
 13 12  2  0  0  0  0
 14 20  1  6  0  0  0
 14 13  1  0  0  0  0
 15 14  1  0  0  0  0
 15 21  1  0  0  0  0
 15 16  1  0  0  0  0
 16 11  1  0  0  0  0
 22 15  1  0  0  0  0
 23 16  1  0  0  0  0
 24 16  1  0  0  0  0
 25 26  1  0  0  0  0
 25 14  1  0  0  0  0
 27 25  1  0  0  0  0
 28 25  1  0  0  0  0
 29 33  2  0  0  0  0
 29  3  1  0  0  0  0
 30 29  1  0  0  0  0
 31 30  2  0  0  0  0
 31 32  1  0  0  0  0
 32 33  1  0  0  0  0
 34 30  1  0  0  0  0
 35 31  1  0  0  0  0
 36 32  1  0  0  0  0
 37 36  1  0  0  0  0
 38 37  1  0  0  0  0
M  END
>  <minimizedAffinity>
-5.52877522

>  <minimizedRMSD>
0.214549616

$$$$
