
 OpenBabel03232520593D

 38 40  0  0  1  0  0  0  0  0999 V2000
   45.3970   32.8830   47.5080 C   0  0  0  0  0  0  0  0  0  0  0  0
   45.9290   32.6300   46.2860 C   0  0  0  0  0  0  0  0  0  0  0  0
   46.1720   31.2780   46.0240 C   0  0  0  0  0  0  0  0  0  0  0  0
   45.9060   30.2800   46.9020 N   0  0  0  0  0  0  0  0  0  0  0  0
   45.3620   30.5890   48.1400 C   0  0  0  0  0  0  0  0  0  0  0  0
   45.1250   31.8690   48.4090 N   0  0  0  0  0  0  0  0  0  0  0  0
   45.0850   29.5730   49.0870 N   0  0  0  0  0  0  0  0  0  0  0  0
   45.1750   33.8930   47.8130 H   0  0  0  0  0  0  0  0  0  0  0  0
   44.1760   29.2150   49.4110 H   0  0  0  0  0  0  0  0  0  0  0  0
   46.0260   29.2530   49.3970 H   0  0  0  0  0  0  0  0  0  0  0  0
   46.1730   33.5870   45.2610 C   0  0  2  0  0  0  0  0  0  0  0  0
   44.9530   34.6720   45.4930 C   0  0  0  0  0  0  0  0  0  0  0  0
   44.7260   35.6110   44.4300 C   0  0  0  0  0  0  0  0  0  0  0  0
   45.5280   35.5500   43.2080 C   0  0  1  0  0  0  0  0  0  0  0  0
   46.5900   34.5520   43.1570 C   0  0  0  0  0  0  0  0  0  0  0  0
   46.1470   33.3110   43.8960 C   0  0  0  0  0  0  0  0  0  0  0  0
   46.9380   34.3450   45.6080 H   0  0  0  0  0  0  0  0  0  0  0  0
   44.2710   34.8080   46.3230 H   0  0  0  0  0  0  0  0  0  0  0  0
   43.9550   36.3250   44.5410 H   0  0  0  0  0  0  0  0  0  0  0  0
   45.9460   36.5600   43.0170 H   0  0  0  0  0  0  0  0  0  0  0  0
   47.5010   34.9250   43.6590 H   0  0  0  0  0  0  0  0  0  0  0  0
   46.8680   34.3690   42.0990 H   0  0  0  0  0  0  0  0  0  0  0  0
   45.2150   32.8860   43.4690 H   0  0  0  0  0  0  0  0  0  0  0  0
   47.0000   32.6650   43.5570 H   0  0  0  0  0  0  0  0  0  0  0  0
   44.5160   35.2840   42.0520 C   0  0  0  0  0  0  0  0  0  0  0  0
   43.4580   34.4810   42.4410 F   0  0  0  0  0  0  0  0  0  0  0  0
   43.9680   36.5180   41.7200 F   0  0  0  0  0  0  0  0  0  0  0  0
   45.1950   34.8280   40.9380 F   0  0  0  0  0  0  0  0  0  0  0  0
   46.7860   30.5880   44.9020 C   0  0  0  0  0  0  0  0  0  0  0  0
   46.4140   29.8560   43.8210 C   0  0  0  0  0  0  0  0  0  0  0  0
   47.5710   29.4450   43.1510 C   0  0  0  0  0  0  0  0  0  0  0  0
   48.5860   29.9460   43.8540 N   0  0  0  0  0  0  0  0  0  0  0  0
   48.1490   30.6230   44.8890 N   0  0  0  0  0  0  0  0  0  0  0  0
   45.3500   29.7170   43.6610 H   0  0  0  0  0  0  0  0  0  0  0  0
   47.4830   28.8540   42.2680 H   0  0  0  0  0  0  0  0  0  0  0  0
   49.9790   29.7170   43.4440 C   0  0  0  0  0  2  0  0  0  0  0  0
   50.4960   30.9090   42.6560 C   0  0  0  0  0  2  0  0  0  0  0  0
   50.9860   30.5770   41.7150 H   0  0  0  0  0  0  0  0  0  0  0  0
  1  8  1  0  0  0  0
  1  6  1  0  0  0  0
  2  1  2  0  0  0  0
  3  2  1  0  0  0  0
  3  4  2  0  0  0  0
  4  5  1  0  0  0  0
  5  6  2  0  0  0  0
  5  7  1  0  0  0  0
  7 10  1  0  0  0  0
  7  9  1  0  0  0  0
 11 12  1  0  0  0  0
 11 17  1  1  0  0  0
 11  2  1  0  0  0  0
 12 18  1  0  0  0  0
 13 19  1  0  0  0  0
 13 12  2  0  0  0  0
 14 20  1  6  0  0  0
 14 13  1  0  0  0  0
 15 14  1  0  0  0  0
 15 21  1  0  0  0  0
 15 16  1  0  0  0  0
 16 11  1  0  0  0  0
 22 15  1  0  0  0  0
 23 16  1  0  0  0  0
 24 16  1  0  0  0  0
 25 26  1  0  0  0  0
 25 14  1  0  0  0  0
 27 25  1  0  0  0  0
 28 25  1  0  0  0  0
 29  3  1  0  0  0  0
 30 29  1  0  0  0  0
 31 30  2  0  0  0  0
 31 32  1  0  0  0  0
 32 33  1  0  0  0  0
 33 29  2  0  0  0  0
 34 30  1  0  0  0  0
 35 31  1  0  0  0  0
 36 32  1  0  0  0  0
 37 36  1  0  0  0  0
 38 37  1  0  0  0  0
M  END
>  <minimizedAffinity>
-5.53195047

>  <minimizedRMSD>
0.21089378

$$$$
