
 OpenBabel03232518083D

 19 19  0  0  0  0  0  0  0  0999 V2000
   48.0980   33.8990   42.0210 C   0  0  0  0  0  0  0  0  0  0  0  0
   47.2340   34.2410   43.0780 C   0  0  0  0  0  0  0  0  0  0  0  0
   47.0180   33.2840   44.0670 C   0  0  0  0  0  0  0  0  0  0  0  0
   47.6500   32.0740   43.9600 N   0  0  0  0  0  0  0  0  0  0  0  0
   48.4670   31.7960   42.9290 C   0  0  0  0  0  0  0  0  0  0  0  0
   48.6880   32.6910   41.9750 N   0  0  0  0  0  0  0  0  0  0  0  0
   46.7100   35.1700   43.2140 H   0  0  0  0  0  0  0  0  0  0  0  0
   48.9860   30.8560   42.8070 H   0  0  0  0  0  0  0  0  0  0  0  0
   48.2530   34.9970   41.0340 C   0  0  0  0  0  0  0  0  0  0  0  0
   47.2510   35.4280   40.8400 H   0  0  0  0  0  0  0  0  0  0  0  0
   48.6300   34.5970   40.0550 H   0  0  0  0  0  0  0  0  0  0  0  0
   49.1680   36.0670   41.5770 C   0  0  0  0  0  0  0  0  0  0  0  0
   50.0580   36.1050   40.9140 H   0  0  0  0  0  0  0  0  0  0  0  0
   48.6470   37.0250   41.6810 H   0  0  0  0  0  0  0  0  0  0  0  0
   49.5860   35.7060   42.5620 H   0  0  0  0  0  0  0  0  0  0  0  0
   45.9420   33.6090   45.4370 S   0  0  0  0  0  0  0  0  0  0  0  0
   46.5170   32.6870   46.8950 C   0  0  0  0  0  0  0  0  0  0  0  0
   45.3130   32.6100   47.8400 C   0  0  0  0  0  0  0  0  0  0  0  0
   45.1260   33.6140   48.2240 H   0  0  0  0  0  0  0  0  0  0  0  0
  1  2  1  0  0  0  0
  2  7  1  0  0  0  0
  2  3  2  0  0  0  0
  3 16  1  0  0  0  0
  4  3  1  0  0  0  0
  5  4  2  0  0  0  0
  6  1  2  0  0  0  0
  6  5  1  0  0  0  0
  8  5  1  0  0  0  0
  9 12  1  0  0  0  0
  9  1  1  0  0  0  0
 10  9  1  0  0  0  0
 11  9  1  0  0  0  0
 12 14  1  0  0  0  0
 12 15  1  0  0  0  0
 13 12  1  0  0  0  0
 16 17  1  0  0  0  0
 17 18  1  0  0  0  0
 18 19  1  0  0  0  0
M  END
>  <minimizedAffinity>
-3.4386456

>  <minimizedRMSD>
2.23308992

$$$$
