
 OpenBabel03232520563D

 40 43  0  0  1  0  0  0  0  0999 V2000
   46.2950   33.0220   46.5180 C   0  0  0  0  0  0  0  0  0  0  0  0
   46.2050   32.1560   45.4250 C   0  0  0  0  0  0  0  0  0  0  0  0
   46.1950   30.8290   45.7520 C   0  0  0  0  0  0  0  0  0  0  0  0
   46.2560   30.4470   47.0520 N   0  0  0  0  0  0  0  0  0  0  0  0
   46.3420   31.2960   48.0910 C   0  0  0  0  0  0  0  0  0  0  0  0
   46.3630   32.5920   47.8220 N   0  0  0  0  0  0  0  0  0  0  0  0
   46.4520   30.7910   49.4170 N   0  0  0  0  0  0  0  0  0  0  0  0
   46.3220   34.0730   46.3980 H   0  0  0  0  0  0  0  0  0  0  0  0
   45.9170   31.2340   50.1880 H   0  0  0  0  0  0  0  0  0  0  0  0
   47.0830   29.9700   49.5800 H   0  0  0  0  0  0  0  0  0  0  0  0
   46.0220   32.5770   44.0740 C   0  0  2  0  0  0  0  0  0  0  0  0
   46.2950   34.1570   44.0720 C   0  0  0  0  0  0  0  0  0  0  0  0
   45.8540   34.9010   42.9260 C   0  0  0  0  0  0  0  0  0  0  0  0
   45.1800   34.2260   41.8220 C   0  0  1  0  0  0  0  0  0  0  0  0
   45.0790   32.7680   41.9170 C   0  0  0  0  0  0  0  0  0  0  0  0
   44.7950   32.4090   43.3840 C   0  0  0  0  0  0  0  0  0  0  0  0
   46.9450   32.3420   43.4710 H   0  0  0  0  0  0  0  0  0  0  0  0
   46.7610   34.8430   44.7710 H   0  0  0  0  0  0  0  0  0  0  0  0
   46.0170   35.9650   42.8840 H   0  0  0  0  0  0  0  0  0  0  0  0
   45.6990   34.5150   40.8840 H   0  0  0  0  0  0  0  0  0  0  0  0
   46.0630   32.3070   41.6570 H   0  0  0  0  0  0  0  0  0  0  0  0
   44.3440   32.3760   41.2190 H   0  0  0  0  0  0  0  0  0  0  0  0
   44.1250   33.3550   43.6960 H   0  0  0  0  0  0  0  0  0  0  0  0
   44.0490   31.7030   43.3140 H   0  0  0  0  0  0  0  0  0  0  0  0
   43.7640   34.8380   41.6960 C   0  0  0  0  0  0  0  0  0  0  0  0
   43.3610   35.5090   42.8250 F   0  0  0  0  0  0  0  0  0  0  0  0
   43.8390   35.7880   40.6750 F   0  0  0  0  0  0  0  0  0  0  0  0
   42.8620   33.8690   41.2940 F   0  0  0  0  0  0  0  0  0  0  0  0
   46.3030   29.6360   44.8840 C   0  0  0  0  0  0  0  0  0  0  0  0
   45.3780   28.7780   44.5630 N   0  0  0  0  0  0  0  0  0  0  0  0
   45.4060   27.6840   43.8480 C   0  0  0  0  0  3  0  0  0  0  0  0
   46.5910   27.3390   43.3220 N   0  0  0  0  0  0  0  0  0  0  0  0
   47.6770   28.1160   43.5510 C   0  0  0  0  0  0  0  0  0  0  0  0
   48.8410   27.6670   43.0020 C   0  0  0  0  0  3  0  0  0  0  0  0
   49.9930   28.3840   43.2230 C   0  0  0  0  0  0  0  0  0  0  0  0
   50.8990   28.0060   42.7770 H   0  0  0  0  0  0  0  0  0  0  0  0
   49.9050   29.5370   44.0010 C   0  0  0  0  0  0  0  0  0  0  0  0
   50.8560   30.0320   44.1210 H   0  0  0  0  0  0  0  0  0  0  0  0
   48.6760   29.8980   44.5060 C   0  0  0  0  0  3  0  0  0  0  0  0
   47.4930   29.2360   44.3230 C   0  0  0  0  0  0  0  0  0  0  0  0
  1  6  1  0  0  0  0
  2  3  1  0  0  0  0
  2  1  2  0  0  0  0
  3  4  2  0  0  0  0
  4  5  1  0  0  0  0
  5  7  1  0  0  0  0
  6  5  2  0  0  0  0
  7 10  1  0  0  0  0
  7  9  1  0  0  0  0
  8  1  1  0  0  0  0
 11 17  1  6  0  0  0
 11  2  1  0  0  0  0
 12 11  1  0  0  0  0
 12 18  1  0  0  0  0
 13 12  2  0  0  0  0
 14 20  1  6  0  0  0
 14 15  1  0  0  0  0
 14 13  1  0  0  0  0
 15 16  1  0  0  0  0
 16 23  1  0  0  0  0
 16 11  1  0  0  0  0
 19 13  1  0  0  0  0
 21 15  1  0  0  0  0
 22 15  1  0  0  0  0
 24 16  1  0  0  0  0
 25 14  1  0  0  0  0
 25 26  1  0  0  0  0
 27 25  1  0  0  0  0
 28 25  1  0  0  0  0
 29  3  1  0  0  0  0
 30 29  1  0  0  0  0
 31 30  2  0  0  0  0
 32 33  2  0  0  0  0
 32 31  1  0  0  0  0
 33 40  1  0  0  0  0
 34 35  2  0  0  0  0
 34 33  1  0  0  0  0
 35 37  1  0  0  0  0
 36 35  1  0  0  0  0
 37 38  1  0  0  0  0
 37 39  2  0  0  0  0
 40 39  1  0  0  0  0
 40 29  2  0  0  0  0
M  END
>  <minimizedAffinity>
-4.88429546

>  <minimizedRMSD>
2.33027124

$$$$
