
 OpenBabel03232520253D

 34 37  0  0  0  0  0  0  0  0999 V2000
   46.7740   34.4820   41.3050 C   0  0  0  0  0  0  0  0  0  0  0  0
   48.0660   34.8240   40.9590 C   0  0  0  0  0  0  0  0  0  0  0  0
   48.2920   34.4740   39.6900 N   0  0  0  0  0  0  0  0  0  0  0  0
   47.1700   33.9110   39.2120 C   0  0  0  0  0  0  0  0  0  0  0  0
   46.8800   33.3830   37.9650 C   0  0  0  0  0  0  0  0  0  0  0  0
   45.6320   32.8640   37.7430 C   0  0  0  0  0  0  0  0  0  0  0  0
   44.6130   32.8210   38.6830 C   0  0  0  0  0  0  0  0  0  0  0  0
   44.9580   33.3620   39.9120 C   0  0  0  0  0  0  0  0  0  0  0  0
   46.1820   33.8980   40.2080 C   0  0  0  0  0  0  0  0  0  0  0  0
   49.1760   34.6070   39.1590 H   0  0  0  0  0  0  0  0  0  0  0  0
   47.5980   33.3610   37.1480 H   0  0  0  0  0  0  0  0  0  0  0  0
   45.4040   32.4490   36.7610 H   0  0  0  0  0  0  0  0  0  0  0  0
   43.6410   32.4170   38.5130 H   0  0  0  0  0  0  0  0  0  0  0  0
   44.1940   33.3580   40.7000 H   0  0  0  0  0  0  0  0  0  0  0  0
   44.7500   36.0570   44.0220 C   0  0  0  0  0  0  0  0  0  0  0  0
   45.3730   35.8500   42.7850 C   0  0  0  0  0  0  0  0  0  0  0  0
   46.1270   34.6900   42.5960 C   0  0  0  0  0  0  0  0  0  0  0  0
   46.2240   33.8010   43.6320 N   0  0  0  0  0  0  0  0  0  0  0  0
   45.6010   34.0440   44.8130 C   0  0  0  0  0  0  0  0  0  0  0  0
   44.8680   35.1610   45.0130 N   0  0  0  0  0  0  0  0  0  0  0  0
   44.1740   36.9560   44.1470 H   0  0  0  0  0  0  0  0  0  0  0  0
   45.2520   36.6040   42.0040 H   0  0  0  0  0  0  0  0  0  0  0  0
   45.7800   33.2380   45.5280 H   0  0  0  0  0  0  0  0  0  0  0  0
   49.0330   35.4740   41.8580 C   0  0  0  0  0  0  0  0  0  0  0  0
   49.7360   36.0790   41.2110 H   0  0  0  0  0  0  0  0  0  0  0  0
   48.5720   36.2170   42.5230 H   0  0  0  0  0  0  0  0  0  0  0  0
   49.8620   34.4570   42.6160 C   0  0  0  0  0  0  0  0  0  0  0  0
   49.3830   34.3870   43.6200 H   0  0  0  0  0  0  0  0  0  0  0  0
   50.8720   34.8810   42.7920 H   0  0  0  0  0  0  0  0  0  0  0  0
   49.9250   33.1340   41.9400 C   0  0  0  0  0  0  0  0  0  0  0  0
   49.2110   32.1060   42.8080 C   0  0  0  0  0  0  0  0  0  0  0  0
   50.0600   30.8730   42.7860 C   0  0  0  0  0  0  0  0  0  0  0  0
   51.3130   31.1600   42.0240 C   0  0  0  0  0  0  0  0  0  0  0  0
   51.3720   32.6560   41.9470 C   0  0  0  0  0  0  0  0  0  0  0  0
  1 17  1  0  0  0  0
  2  1  2  0  0  0  0
  2 24  1  0  0  0  0
  3  2  1  0  0  0  0
  4  3  1  0  0  0  0
  4  9  1  0  0  0  0
  5  4  2  0  0  0  0
  6  5  1  0  0  0  0
  6  7  2  0  0  0  0
  7  8  1  0  0  0  0
  8  9  2  0  0  0  0
  8 14  1  0  0  0  0
  9  1  1  0  0  0  0
 10  3  1  0  0  0  0
 11  5  1  0  0  0  0
 12  6  1  0  0  0  0
 13  7  1  0  0  0  0
 15 21  1  0  0  0  0
 15 20  1  0  0  0  0
 16 15  2  0  0  0  0
 17 16  1  0  0  0  0
 17 18  2  0  0  0  0
 18 19  1  0  0  0  0
 19 20  2  0  0  0  0
 19 23  1  0  0  0  0
 22 16  1  0  0  0  0
 24 26  1  0  0  0  0
 24 27  1  0  0  0  0
 25 24  1  0  0  0  0
 27 29  1  0  0  0  0
 27 28  1  0  0  0  0
 30 34  1  0  0  0  0
 30 27  1  0  0  0  0
 30 31  1  0  0  0  0
 32 31  1  0  0  0  0
 33 32  1  0  0  0  0
 34 33  1  0  0  0  0
M  END
>  <minimizedAffinity>
-5.80038118

>  <minimizedRMSD>
0.954794109

$$$$
