
 OpenBabel03232520333D

 45 49  0  0  1  0  0  0  0  0999 V2000
   46.8050   34.5370   41.3660 C   0  0  0  0  0  0  0  0  0  0  0  0
   48.0840   34.9260   40.9820 C   0  0  0  0  0  0  0  0  0  0  0  0
   48.3290   34.5650   39.7360 N   0  0  0  0  0  0  0  0  0  0  0  0
   47.2220   33.9390   39.2890 C   0  0  0  0  0  0  0  0  0  0  0  0
   46.9460   33.3620   38.0490 C   0  0  0  0  0  0  0  0  0  0  0  0
   45.7320   32.7800   37.8430 C   0  0  0  0  0  0  0  0  0  0  0  0
   44.7300   32.7130   38.7830 C   0  0  0  0  0  0  0  0  0  0  0  0
   45.0500   33.2970   39.9980 C   0  0  0  0  0  0  0  0  0  0  0  0
   46.2440   33.8970   40.2740 C   0  0  0  0  0  0  0  0  0  0  0  0
   49.1910   34.6980   39.1290 H   0  0  0  0  0  0  0  0  0  0  0  0
   47.6910   33.3770   37.2540 H   0  0  0  0  0  0  0  0  0  0  0  0
   45.5470   32.3410   36.8690 H   0  0  0  0  0  0  0  0  0  0  0  0
   43.7910   32.2530   38.5980 H   0  0  0  0  0  0  0  0  0  0  0  0
   44.3180   33.2950   40.8110 H   0  0  0  0  0  0  0  0  0  0  0  0
   44.7320   36.0680   44.0610 C   0  0  0  0  0  0  0  0  0  0  0  0
   45.3580   35.8790   42.8190 C   0  0  0  0  0  0  0  0  0  0  0  0
   46.1480   34.7430   42.6590 C   0  0  0  0  0  0  0  0  0  0  0  0
   46.2890   33.8630   43.6980 N   0  0  0  0  0  0  0  0  0  0  0  0
   45.6560   34.1050   44.8740 C   0  0  0  0  0  0  0  0  0  0  0  0
   44.8830   35.1970   45.0620 N   0  0  0  0  0  0  0  0  0  0  0  0
   44.1150   36.9570   44.1840 H   0  0  0  0  0  0  0  0  0  0  0  0
   45.2600   36.5570   41.9950 H   0  0  0  0  0  0  0  0  0  0  0  0
   45.8700   33.3150   45.5880 H   0  0  0  0  0  0  0  0  0  0  0  0
   49.0180   35.6480   41.8780 C   0  0  0  0  0  0  0  0  0  0  0  0
   48.4350   36.1880   42.6660 H   0  0  0  0  0  0  0  0  0  0  0  0
   49.5700   36.4060   41.2610 H   0  0  0  0  0  0  0  0  0  0  0  0
   49.9490   34.7150   42.5860 C   0  0  0  0  0  0  0  0  0  0  0  0
   50.9500   35.2320   42.6110 H   0  0  0  0  0  0  0  0  0  0  0  0
   49.6710   34.5730   43.6520 H   0  0  0  0  0  0  0  0  0  0  0  0
   50.1620   33.4010   41.8990 C   0  0  1  0  0  0  0  0  0  0  0  0
   51.0930   32.3800   42.3590 C   0  0  0  0  0  0  0  0  0  0  0  0
   49.6550   32.1740   42.7070 C   0  0  2  0  0  0  0  0  0  0  0  0
   49.8590   33.3640   40.8350 H   0  0  0  0  0  0  0  0  0  0  0  0
   51.5500   31.7080   41.5980 H   0  0  0  0  0  0  0  0  0  0  0  0
   51.8170   32.6780   43.1290 H   0  0  0  0  0  0  0  0  0  0  0  0
   49.4420   32.3690   43.7840 H   0  0  0  0  0  0  0  0  0  0  0  0
   49.0080   31.1850   42.0380 O   0  0  0  0  0  0  0  0  0  0  0  0
   47.7240   30.8060   42.3840 C   0  0  0  0  0  0  0  0  0  0  0  0
   46.5970   30.5400   41.6360 C   0  0  0  0  0  0  0  0  0  0  0  0
   45.4250   30.1760   42.2620 C   0  0  0  0  0  0  0  0  0  0  0  0
   44.6160   29.9930   41.5770 H   0  0  0  0  0  0  0  0  0  0  0  0
   45.3210   30.0620   43.6280 C   0  0  0  0  0  0  0  0  0  0  0  0
   46.4370   30.3240   44.3940 C   0  0  0  0  0  0  0  0  0  0  0  0
   46.3210   30.2260   45.4640 H   0  0  0  0  0  0  0  0  0  0  0  0
   47.6370   30.6960   43.7770 C   0  0  0  0  0  0  0  0  0  0  0  0
  1 17  1  0  0  0  0
  2  1  2  0  0  0  0
  2 24  1  0  0  0  0
  3  2  1  0  0  0  0
  4  3  1  0  0  0  0
  4  9  1  0  0  0  0
  5  4  2  0  0  0  0
  6  5  1  0  0  0  0
  6  7  2  0  0  0  0
  7  8  1  0  0  0  0
  8  9  2  0  0  0  0
  8 14  1  0  0  0  0
  9  1  1  0  0  0  0
 10  3  1  0  0  0  0
 11  5  1  0  0  0  0
 12  6  1  0  0  0  0
 13  7  1  0  0  0  0
 15 21  1  0  0  0  0
 15 20  1  0  0  0  0
 16 15  2  0  0  0  0
 17 16  1  0  0  0  0
 17 18  2  0  0  0  0
 18 19  1  0  0  0  0
 19 20  2  0  0  0  0
 19 23  1  0  0  0  0
 22 16  1  0  0  0  0
 24 27  1  0  0  0  0
 24 25  1  0  0  0  0
 26 24  1  0  0  0  0
 27 28  1  0  0  0  0
 27 29  1  0  0  0  0
 30 33  1  6  0  0  0
 30 31  1  0  0  0  0
 30 27  1  0  0  0  0
 30 32  1  0  0  0  0
 31 32  1  0  0  0  0
 31 35  1  0  0  0  0
 32 36  1  1  0  0  0
 34 31  1  0  0  0  0
 37 38  1  0  0  0  0
 37 32  1  0  0  0  0
 38 45  1  0  0  0  0
 39 40  1  0  0  0  0
 39 38  2  0  0  0  0
 40 42  2  0  0  0  0
 41 40  1  0  0  0  0
 42 43  1  0  0  0  0
 43 44  1  0  0  0  0
 45 43  2  0  0  0  0
M  END
>  <minimizedAffinity>
-5.587924

>  <minimizedRMSD>
0.590731323

$$$$
