
 OpenBabel03232519593D

 35 39  0  0  1  0  0  0  0  0999 V2000
   48.0430   35.1520   41.9830 C   0  0  2  0  0  0  0  0  0  0  0  0
   49.2990   34.8860   41.2160 C   0  0  0  0  0  0  0  0  0  0  0  0
   49.1830   34.3400   42.5820 C   0  0  2  0  0  0  0  0  0  0  0  0
   47.8950   36.1370   42.4680 H   0  0  0  0  0  0  0  0  0  0  0  0
   49.3520   34.1800   40.3960 H   0  0  0  0  0  0  0  0  0  0  0  0
   50.0000   35.7630   41.1210 H   0  0  0  0  0  0  0  0  0  0  0  0
   49.7730   34.8140   43.4130 H   0  0  0  0  0  0  0  0  0  0  0  0
   48.9370   32.9050   42.7940 C   0  0  0  0  0  0  0  0  0  0  0  0
   47.9730   32.2500   43.4520 N   0  0  0  0  0  0  0  0  0  0  0  0
   47.9340   30.9110   43.5320 C   0  0  0  0  0  0  0  0  0  0  0  0
   48.8680   30.1390   42.9520 N   0  0  0  0  0  0  0  0  0  0  0  0
   49.8790   30.7330   42.2650 C   0  0  0  0  0  0  0  0  0  0  0  0
   50.7870   29.8700   41.7070 C   0  0  0  0  0  0  0  0  0  0  0  0
   51.8290   30.4210   41.0030 C   0  0  0  0  0  0  0  0  0  0  0  0
   52.5690   29.7720   40.5450 H   0  0  0  0  0  0  0  0  0  0  0  0
   51.9250   31.7830   40.8840 C   0  0  0  0  0  0  0  0  0  0  0  0
   52.7540   32.1970   40.3260 H   0  0  0  0  0  0  0  0  0  0  0  0
   50.9800   32.5920   41.4710 C   0  0  0  0  0  0  0  0  0  0  0  0
   49.9080   32.1100   42.1920 C   0  0  0  0  0  0  0  0  0  0  0  0
   45.6830   34.2110   42.2430 N   0  0  0  0  0  0  0  0  0  0  0  0
   46.7920   34.4730   41.6110 C   0  0  0  0  0  0  0  0  0  0  0  0
   46.7050   33.9900   40.2980 C   0  0  0  0  0  0  0  0  0  0  0  0
   45.5060   33.4300   40.1750 N   0  0  0  0  0  0  0  0  0  0  0  0
   44.8640   33.5570   41.3600 C   0  0  0  0  0  0  0  0  0  0  0  0
   47.3710   33.9880   39.4450 H   0  0  0  0  0  0  0  0  0  0  0  0
   43.8570   33.1970   41.5810 H   0  0  0  0  0  0  0  0  0  0  0  0
   44.7470   35.8010   43.7480 C   0  0  0  0  0  0  0  0  0  0  0  0
   45.3250   34.5030   43.5590 C   0  0  0  0  0  0  0  0  0  0  0  0
   45.4640   33.6920   44.6730 C   0  0  0  0  0  0  0  0  0  0  0  0
   45.0480   34.1660   45.8730 N   0  0  0  0  0  0  0  0  0  0  0  0
   44.5110   35.3840   46.0250 C   0  0  0  0  0  0  0  0  0  0  0  0
   44.3570   36.2080   44.9640 N   0  0  0  0  0  0  0  0  0  0  0  0
   44.5950   36.5020   42.9600 H   0  0  0  0  0  0  0  0  0  0  0  0
   45.9040   32.7200   44.4940 H   0  0  0  0  0  0  0  0  0  0  0  0
   44.2400   35.5790   47.0630 H   0  0  0  0  0  0  0  0  0  0  0  0
  1  4  1  1  0  0  0
  1  3  1  0  0  0  0
  2  1  1  0  0  0  0
  2  3  1  0  0  0  0
  3  8  1  0  0  0  0
  3  7  1  1  0  0  0
  5  2  1  0  0  0  0
  6  2  1  0  0  0  0
  8  9  1  0  0  0  0
  9 10  2  0  0  0  0
 11 10  1  0  0  0  0
 12 11  2  0  0  0  0
 13 12  1  0  0  0  0
 14 13  2  0  0  0  0
 15 14  1  0  0  0  0
 16 14  1  0  0  0  0
 16 18  2  0  0  0  0
 17 16  1  0  0  0  0
 18 19  1  0  0  0  0
 19 12  1  0  0  0  0
 19  8  2  0  0  0  0
 20 28  1  0  0  0  0
 21  1  1  0  0  0  0
 21 20  1  0  0  0  0
 22 21  2  0  0  0  0
 23 22  1  0  0  0  0
 23 24  2  0  0  0  0
 24 26  1  0  0  0  0
 24 20  1  0  0  0  0
 25 22  1  0  0  0  0
 27 32  1  0  0  0  0
 28 27  2  0  0  0  0
 28 29  1  0  0  0  0
 29 30  2  0  0  0  0
 30 31  1  0  0  0  0
 31 35  1  0  0  0  0
 32 31  2  0  0  0  0
 33 27  1  0  0  0  0
 34 29  1  0  0  0  0
M  END
>  <minimizedAffinity>
-4.99170351

>  <minimizedRMSD>
2.409935

$$$$
