
 OpenBabel03232520463D

 44 48  0  0  1  0  0  0  0  0999 V2000
   47.2680   34.2210   42.7960 C   0  0  0  0  0  0  0  0  0  0  0  0
   48.5240   34.7480   42.8180 C   0  0  0  0  0  0  0  0  0  0  0  0
   49.1760   35.1340   41.6420 C   0  0  0  0  0  0  0  0  0  0  0  0
   48.5230   34.9740   40.4110 C   0  0  0  0  0  0  0  0  0  0  0  0
   47.2600   34.4410   40.4140 C   0  0  0  0  0  0  0  0  0  0  0  0
   46.6420   34.0700   41.5960 C   0  0  0  0  0  0  0  0  0  0  0  0
   49.0830   34.8970   43.7370 H   0  0  0  0  0  0  0  0  0  0  0  0
   50.1570   35.5500   41.6080 H   0  0  0  0  0  0  0  0  0  0  0  0
   48.9680   35.2490   39.4660 H   0  0  0  0  0  0  0  0  0  0  0  0
   46.7270   34.3050   39.4680 H   0  0  0  0  0  0  0  0  0  0  0  0
   45.3400   33.5200   41.5500 N   0  0  0  0  0  0  0  0  0  0  0  0
   44.4020   34.5160   41.4990 C   0  0  0  0  0  0  0  0  0  0  0  0
   43.0400   34.1880   41.4510 C   0  0  0  0  0  0  0  0  0  0  0  0
   42.6880   32.8510   41.4550 C   0  0  0  0  0  0  0  0  0  0  0  0
   41.4870   32.5000   41.4120 O   0  0  0  0  0  0  0  0  0  0  0  0
   43.6460   31.9160   41.5050 N   0  0  0  0  0  0  0  0  0  0  0  0
   44.9650   32.2220   41.5530 C   0  0  0  0  0  0  0  0  0  0  0  0
   45.9220   31.4230   41.6020 O   0  0  0  0  0  0  0  0  0  0  0  0
   44.5820   35.5590   41.4950 H   0  0  0  0  0  0  0  0  0  0  0  0
   43.4550   30.8730   41.5100 H   0  0  0  0  0  0  0  0  0  0  0  0
   41.9840   35.2340   41.3950 C   0  0  0  0  0  0  0  0  0  0  0  0
   42.3610   36.1920   41.0290 H   0  0  0  0  0  0  0  0  0  0  0  0
   41.1540   34.8350   40.8060 H   0  0  0  0  0  0  0  0  0  0  0  0
   41.6770   35.3970   42.4690 H   0  0  0  0  0  0  0  0  0  0  0  0
   45.2180   34.0390   45.9430 C   0  0  0  0  0  0  0  0  0  0  0  0
   45.6870   34.5120   44.7340 C   0  0  0  0  0  0  0  0  0  0  0  0
   46.6780   33.8370   44.0790 C   0  0  0  0  0  0  0  0  0  0  0  0
   47.1410   32.7140   44.6830 N   0  0  0  0  0  0  0  0  0  0  0  0
   46.6590   32.2670   45.8820 C   0  0  0  0  0  0  0  0  0  0  0  0
   45.7100   32.9460   46.4780 N   0  0  0  0  0  0  0  0  0  0  0  0
   44.4410   34.5220   46.5110 H   0  0  0  0  0  0  0  0  0  0  0  0
   45.2920   35.4080   44.2900 H   0  0  0  0  0  0  0  0  0  0  0  0
   47.4870   31.0950   45.9790 C   0  0  2  0  0  3  0  0  0  0  0  0
   48.1880   30.1030   46.0610 N   0  0  0  0  0  2  0  0  0  0  0  0
   48.9860   29.2010   46.2100 C   0  0  0  0  0  2  0  0  0  0  0  0
   48.1360   28.3620   45.6080 N   0  0  0  0  0  2  0  0  0  0  0  0
   46.9140   28.7680   45.1390 C   0  0  0  0  0  0  0  0  0  0  0  0
   46.1690   27.7190   44.5400 C   0  0  0  0  0  3  0  0  0  0  0  0
   44.9480   28.0960   44.0700 C   0  0  0  0  0  0  0  0  0  0  0  0
   44.4030   27.2840   43.6210 H   0  0  0  0  0  0  0  0  0  0  0  0
   44.4170   29.3600   44.1360 C   0  0  0  0  0  0  0  0  0  0  0  0
   43.4640   29.6530   43.7690 H   0  0  0  0  0  0  0  0  0  0  0  0
   45.2770   30.2410   44.7480 C   0  0  0  0  0  3  0  0  0  0  0  0
   46.5870   30.1450   45.3270 C   0  0  0  0  0  0  0  0  0  0  0  0
  1  2  1  0  0  0  0
  1 27  1  0  0  0  0
  2  7  1  0  0  0  0
  3  2  2  0  0  0  0
  4  5  2  0  0  0  0
  4  3  1  0  0  0  0
  5  6  1  0  0  0  0
  6  1  2  0  0  0  0
  8  3  1  0  0  0  0
  9  4  1  0  0  0  0
 10  5  1  0  0  0  0
 11 17  1  0  0  0  0
 11  6  1  0  0  0  0
 12 11  1  0  0  0  0
 13 14  1  0  0  0  0
 13 12  2  0  0  0  0
 14 16  1  0  0  0  0
 15 14  2  0  0  0  0
 16 20  1  0  0  0  0
 16 17  1  0  0  0  0
 17 18  2  0  0  0  0
 19 12  1  0  0  0  0
 21 13  1  0  0  0  0
 21 24  1  0  0  0  0
 22 21  1  0  0  0  0
 23 21  1  0  0  0  0
 25 30  1  0  0  0  0
 25 31  1  0  0  0  0
 26 25  2  0  0  0  0
 27 28  2  0  0  0  0
 27 26  1  0  0  0  0
 28 29  1  0  0  0  0
 29 30  2  0  0  0  0
 32 26  1  0  0  0  0
 33 29  1  6  0  0  0
 33 34  1  0  0  0  0
 34 35  1  0  0  0  0
 36 35  1  0  0  0  0
 37 44  1  0  0  0  0
 37 36  1  0  0  0  0
 38 37  2  0  0  0  0
 39 41  2  0  0  0  0
 39 38  1  0  0  0  0
 40 39  1  0  0  0  0
 41 43  1  0  0  0  0
 42 41  1  0  0  0  0
 43 44  2  0  0  0  0
 44 33  1  0  0  0  0
M  END
>  <minimizedAffinity>
-5.93830585

>  <minimizedRMSD>
2.05573487

$$$$
