
 OpenBabel03232520503D

 35 38  0  0  1  0  0  0  0  0999 V2000
   46.4610   31.6000   45.4730 C   0  0  2  0  0  0  0  0  0  0  0  0
   46.8530   33.0390   45.2470 C   0  0  0  0  0  0  0  0  0  0  0  0
   46.7870   33.5790   43.9030 C   0  0  0  0  0  0  0  0  0  0  0  0
   46.3300   32.7020   42.7950 C   0  0  2  0  0  0  0  0  0  0  0  0
   46.1710   31.2730   43.1210 C   0  0  0  0  0  0  0  0  0  0  0  0
   45.4630   31.1490   44.4470 C   0  0  0  0  0  0  0  0  0  0  0  0
   47.4230   31.0480   45.2550 H   0  0  0  0  0  0  0  0  0  0  0  0
   47.1920   33.8070   45.8960 H   0  0  0  0  0  0  0  0  0  0  0  0
   47.0580   34.6020   43.6930 H   0  0  0  0  0  0  0  0  0  0  0  0
   45.3560   33.1190   42.4710 H   0  0  0  0  0  0  0  0  0  0  0  0
   45.6480   30.7730   42.3030 H   0  0  0  0  0  0  0  0  0  0  0  0
   47.1610   30.7570   43.2710 H   0  0  0  0  0  0  0  0  0  0  0  0
   44.5220   31.7080   44.4760 H   0  0  0  0  0  0  0  0  0  0  0  0
   45.3100   30.0500   44.6160 H   0  0  0  0  0  0  0  0  0  0  0  0
   47.2710   32.7950   41.6500 C   0  0  0  0  0  0  0  0  0  0  0  0
   46.7820   33.4980   40.5920 N   0  0  0  0  0  0  0  0  0  0  0  0
   47.5420   33.6420   39.4940 C   0  0  0  0  0  0  0  0  0  0  0  0
   48.7870   33.1150   39.3860 N   0  0  0  0  0  0  0  0  0  0  0  0
   49.3120   32.4130   40.4050 C   0  0  0  0  0  0  0  0  0  0  0  0
   50.5520   31.8390   40.4160 C   0  0  0  0  0  0  0  0  0  0  0  0
   51.0390   31.1330   41.4920 C   0  0  0  0  0  0  0  0  0  0  0  0
   52.0250   30.6860   41.4780 H   0  0  0  0  0  0  0  0  0  0  0  0
   50.2330   31.0030   42.6080 C   0  0  0  0  0  0  0  0  0  0  0  0
   50.6390   30.4360   43.4530 H   0  0  0  0  0  0  0  0  0  0  0  0
   48.9770   31.5730   42.6220 C   0  0  0  0  0  0  0  0  0  0  0  0
   48.5360   32.2670   41.5260 C   0  0  0  0  0  0  0  0  0  0  0  0
   46.2320   32.4480   47.7910 C   0  0  0  0  0  0  0  0  0  0  0  0
   46.0230   31.4290   46.8610 C   0  0  0  0  0  0  0  0  0  0  0  0
   45.3890   30.2410   47.3170 C   0  0  0  0  0  0  0  0  0  0  0  0
   45.0210   30.1520   48.6190 N   0  0  0  0  0  0  0  0  0  0  0  0
   45.2420   31.1670   49.4920 C   0  0  0  0  0  0  0  0  0  0  0  0
   45.8420   32.3020   49.0790 N   0  0  0  0  0  0  0  0  0  0  0  0
   46.7040   33.3900   47.5550 H   0  0  0  0  0  0  0  0  0  0  0  0
   45.2060   29.4270   46.6310 H   0  0  0  0  0  0  0  0  0  0  0  0
   44.9180   31.0170   50.5130 H   0  0  0  0  0  0  0  0  0  0  0  0
  1  7  1  6  0  0  0
  1 28  1  0  0  0  0
  2  1  1  0  0  0  0
  2  8  1  0  0  0  0
  3  2  2  0  0  0  0
  4 10  1  6  0  0  0
  4  5  1  0  0  0  0
  4  3  1  0  0  0  0
  5 12  1  0  0  0  0
  5  6  1  0  0  0  0
  6 13  1  0  0  0  0
  6 14  1  0  0  0  0
  6  1  1  0  0  0  0
  9  3  1  0  0  0  0
 11  5  1  0  0  0  0
 15  4  1  0  0  0  0
 16 15  2  0  0  0  0
 17 16  1  0  0  0  0
 18 17  2  0  0  0  0
 18 19  1  0  0  0  0
 19 20  2  0  0  0  0
 19 26  1  0  0  0  0
 20 21  1  0  0  0  0
 21 23  2  0  0  0  0
 22 21  1  0  0  0  0
 23 25  1  0  0  0  0
 23 24  1  0  0  0  0
 26 15  1  0  0  0  0
 26 25  2  0  0  0  0
 27 32  1  0  0  0  0
 28 29  1  0  0  0  0
 28 27  2  0  0  0  0
 29 30  2  0  0  0  0
 30 31  1  0  0  0  0
 31 35  1  0  0  0  0
 32 31  2  0  0  0  0
 33 27  1  0  0  0  0
 34 29  1  0  0  0  0
M  END
>  <minimizedAffinity>
-4.82312393

>  <minimizedRMSD>
4.65252352

$$$$
