
 OpenBabel03232520293D

 48 53  0  0  1  0  0  0  0  0999 V2000
   49.0920   35.7830   41.9050 C   0  0  0  0  0  0  0  0  0  0  0  0
   49.8030   36.3950   41.3130 H   0  0  0  0  0  0  0  0  0  0  0  0
   48.4990   36.4630   42.5660 H   0  0  0  0  0  0  0  0  0  0  0  0
   46.9810   34.5490   41.2960 C   0  0  0  0  0  0  0  0  0  0  0  0
   48.2220   35.0380   40.9660 C   0  0  0  0  0  0  0  0  0  0  0  0
   48.5070   34.7420   39.6930 N   0  0  0  0  0  0  0  0  0  0  0  0
   47.4540   34.0640   39.1980 C   0  0  0  0  0  0  0  0  0  0  0  0
   47.2370   33.5270   37.9300 C   0  0  0  0  0  0  0  0  0  0  0  0
   46.0610   32.8740   37.6860 C   0  0  0  0  0  0  0  0  0  0  0  0
   45.0450   32.6980   38.6160 C   0  0  0  0  0  0  0  0  0  0  0  0
   45.3180   33.2510   39.8520 C   0  0  0  0  0  0  0  0  0  0  0  0
   46.4620   33.9160   40.1780 C   0  0  0  0  0  0  0  0  0  0  0  0
   49.3700   34.9700   39.1280 H   0  0  0  0  0  0  0  0  0  0  0  0
   47.9880   33.6260   37.1510 H   0  0  0  0  0  0  0  0  0  0  0  0
   45.9320   32.4720   36.6880 H   0  0  0  0  0  0  0  0  0  0  0  0
   44.1240   32.1750   38.3890 H   0  0  0  0  0  0  0  0  0  0  0  0
   44.5850   33.1650   40.6450 H   0  0  0  0  0  0  0  0  0  0  0  0
   44.7760   35.8310   44.0170 C   0  0  0  0  0  0  0  0  0  0  0  0
   45.4250   35.7410   42.7800 C   0  0  0  0  0  0  0  0  0  0  0  0
   46.2910   34.6560   42.5930 C   0  0  0  0  0  0  0  0  0  0  0  0
   46.4800   33.7350   43.5850 N   0  0  0  0  0  0  0  0  0  0  0  0
   45.8160   33.8830   44.7630 C   0  0  0  0  0  0  0  0  0  0  0  0
   44.9750   34.9080   44.9890 N   0  0  0  0  0  0  0  0  0  0  0  0
   44.0960   36.6460   44.2220 H   0  0  0  0  0  0  0  0  0  0  0  0
   45.2560   36.4780   42.0240 H   0  0  0  0  0  0  0  0  0  0  0  0
   46.0000   33.1260   45.5190 H   0  0  0  0  0  0  0  0  0  0  0  0
   49.8920   34.8530   42.7570 C   0  0  0  0  0  0  0  0  0  0  0  0
   49.2300   34.4940   43.5760 H   0  0  0  0  0  0  0  0  0  0  0  0
   50.7050   35.4240   43.2540 H   0  0  0  0  0  0  0  0  0  0  0  0
   50.5610   33.7210   42.0140 C   0  0  1  0  0  0  0  0  0  0  0  0
   51.0740   32.5650   42.7040 C   0  0  0  0  0  0  0  0  0  0  0  0
   49.7330   32.4170   42.0450 C   0  0  2  0  0  0  0  0  0  0  0  0
   50.9850   33.9720   41.0280 H   0  0  0  0  0  0  0  0  0  0  0  0
   51.0470   32.5390   43.8140 H   0  0  0  0  0  0  0  0  0  0  0  0
   51.9860   32.0810   42.2980 H   0  0  0  0  0  0  0  0  0  0  0  0
   48.8370   32.3800   42.6700 H   0  0  0  0  0  0  0  0  0  0  0  0
   49.7820   31.4550   40.9510 C   0  0  0  0  0  0  0  0  0  0  0  0
   48.5530   30.9870   40.6630 N   0  0  0  0  0  0  0  0  0  0  0  0
   48.3810   30.1030   39.6350 C   0  0  0  0  0  0  0  0  0  0  0  0
   49.4240   29.6720   38.8810 N   0  0  0  0  0  0  0  0  0  0  0  0
   50.6670   30.1120   39.1340 C   0  0  0  0  0  0  0  0  0  0  0  0
   51.8070   29.7430   38.4510 C   0  0  0  0  0  0  0  0  0  0  0  0
   53.0470   30.2600   38.8160 C   0  0  0  0  0  0  0  0  0  0  0  0
   53.9270   29.9500   38.2590 H   0  0  0  0  0  0  0  0  0  0  0  0
   53.1950   31.1620   39.8740 C   0  0  0  0  0  0  0  0  0  0  0  0
   54.1590   31.5500   40.1420 H   0  0  0  0  0  0  0  0  0  0  0  0
   52.0420   31.5160   40.5410 C   0  0  0  0  0  0  0  0  0  0  0  0
   50.8200   30.9960   40.1670 C   0  0  0  0  0  0  0  0  0  0  0  0
  1  3  1  0  0  0  0
  1 27  1  0  0  0  0
  2  1  1  0  0  0  0
  4 20  1  0  0  0  0
  5  4  2  0  0  0  0
  5  1  1  0  0  0  0
  6  5  1  0  0  0  0
  7  6  1  0  0  0  0
  7 12  1  0  0  0  0
  8  7  2  0  0  0  0
  9  8  1  0  0  0  0
  9 10  2  0  0  0  0
 10 11  1  0  0  0  0
 11 12  2  0  0  0  0
 11 17  1  0  0  0  0
 12  4  1  0  0  0  0
 13  6  1  0  0  0  0
 14  8  1  0  0  0  0
 15  9  1  0  0  0  0
 16 10  1  0  0  0  0
 18 24  1  0  0  0  0
 18 23  1  0  0  0  0
 19 18  2  0  0  0  0
 20 19  1  0  0  0  0
 20 21  2  0  0  0  0
 21 22  1  0  0  0  0
 22 23  2  0  0  0  0
 22 26  1  0  0  0  0
 25 19  1  0  0  0  0
 27 29  1  0  0  0  0
 27 28  1  0  0  0  0
 30 33  1  6  0  0  0
 30 32  1  0  0  0  0
 30 31  1  0  0  0  0
 30 27  1  0  0  0  0
 31 34  1  0  0  0  0
 32 36  1  1  0  0  0
 32 31  1  0  0  0  0
 35 31  1  0  0  0  0
 37 32  1  0  0  0  0
 38 37  1  0  0  0  0
 39 38  2  0  0  0  0
 40 41  2  0  0  0  0
 40 39  1  0  0  0  0
 41 48  1  0  0  0  0
 42 43  2  0  0  0  0
 42 41  1  0  0  0  0
 43 45  1  0  0  0  0
 44 43  1  0  0  0  0
 45 46  1  0  0  0  0
 45 47  2  0  0  0  0
 48 47  1  0  0  0  0
 48 37  2  0  0  0  0
M  END
>  <minimizedAffinity>
-6.30468082

>  <minimizedRMSD>
1.09807074

$$$$
