
 OpenBabel03232520063D

 36 40  0  0  0  0  0  0  0  0999 V2000
   46.2430   30.4040   49.0880 N   0  0  0  0  0  0  0  0  0  0  0  0
   45.3880   31.4240   49.4350 C   0  0  0  0  0  0  0  0  0  0  0  0
   45.2850   32.2700   48.3890 N   0  0  0  0  0  0  0  0  0  0  0  0
   46.0810   31.7500   47.4190 C   0  0  0  0  0  0  0  0  0  0  0  0
   46.2840   32.2890   46.1720 C   0  0  0  0  0  0  0  0  0  0  0  0
   47.1240   31.6160   45.3530 N   0  0  0  0  0  0  0  0  0  0  0  0
   47.7380   30.4800   45.7090 C   0  0  0  0  0  0  0  0  0  0  0  0
   47.4900   30.0080   46.9490 N   0  0  0  0  0  0  0  0  0  0  0  0
   46.6880   30.5930   47.8220 C   0  0  0  0  0  0  0  0  0  0  0  0
   46.5510   29.5740   49.6570 H   0  0  0  0  0  0  0  0  0  0  0  0
   44.9070   31.4860   50.4010 H   0  0  0  0  0  0  0  0  0  0  0  0
   48.6590   29.6420   44.9570 C   0  0  0  0  0  0  0  0  0  0  0  0
   49.0710   28.4380   45.3930 N   0  0  0  0  0  0  0  0  0  0  0  0
   49.9050   27.6230   44.7630 C   0  0  0  0  0  0  0  0  0  0  0  0
   50.4300   27.9830   43.5570 N   0  0  0  0  0  0  0  0  0  0  0  0
   50.0830   29.1750   43.0220 C   0  0  0  0  0  0  0  0  0  0  0  0
   50.6140   29.5290   41.8120 C   0  0  0  0  0  0  0  0  0  0  0  0
   50.2940   30.7270   41.2310 C   0  0  0  0  0  0  0  0  0  0  0  0
   50.7470   30.9300   40.2880 H   0  0  0  0  0  0  0  0  0  0  0  0
   49.4100   31.5510   41.9360 C   0  0  0  0  0  0  0  0  0  0  0  0
   49.1810   32.4870   41.4440 H   0  0  0  0  0  0  0  0  0  0  0  0
   48.9100   31.1380   43.1510 C   0  0  0  0  0  0  0  0  0  0  0  0
   49.2140   29.9440   43.7540 C   0  0  0  0  0  0  0  0  0  0  0  0
   45.5910   33.7560   45.4700 S   0  0  0  0  0  0  0  0  0  0  0  0
   47.6890   34.7970   42.3450 C   0  0  0  0  0  0  0  0  0  0  0  0
   46.9000   34.5170   41.2300 C   0  0  0  0  0  0  0  0  0  0  0  0
   45.6360   33.9700   41.4630 C   0  0  0  0  0  0  0  0  0  0  0  0
   45.2480   33.7440   42.7520 N   0  0  0  0  0  0  0  0  0  0  0  0
   46.0620   34.0400   43.7890 C   0  0  0  0  0  0  0  0  0  0  0  0
   47.2710   34.5620   43.5790 N   0  0  0  0  0  0  0  0  0  0  0  0
   47.2380   34.7080   40.2210 H   0  0  0  0  0  0  0  0  0  0  0  0
   45.0000   33.7410   40.6180 H   0  0  0  0  0  0  0  0  0  0  0  0
   49.0250   35.3770   42.1120 C   0  0  0  0  0  0  0  0  0  0  0  0
   49.2080   36.0940   41.0960 O   0  0  0  0  0  0  0  0  0  0  0  0
   50.0320   35.1220   43.0070 O   0  0  0  0  0  0  0  0  0  0  0  0
   50.8810   35.6550   43.0180 H   0  0  0  0  0  0  0  0  0  0  0  0
  1  2  1  0  0  0  0
  1 10  1  0  0  0  0
  2 11  1  0  0  0  0
  3  2  2  0  0  0  0
  4  9  1  0  0  0  0
  4  3  1  0  0  0  0
  5  4  2  0  0  0  0
  6  7  2  0  0  0  0
  6  5  1  0  0  0  0
  7  8  1  0  0  0  0
  8  9  2  0  0  0  0
  9  1  1  0  0  0  0
 12 13  1  0  0  0  0
 12  7  1  0  0  0  0
 14 13  2  0  0  0  0
 15 14  1  0  0  0  0
 16 15  2  0  0  0  0
 16 23  1  0  0  0  0
 17 16  1  0  0  0  0
 18 17  2  0  0  0  0
 18 20  1  0  0  0  0
 19 18  1  0  0  0  0
 20 22  2  0  0  0  0
 21 20  1  0  0  0  0
 22 23  1  0  0  0  0
 23 12  2  0  0  0  0
 24  5  1  0  0  0  0
 25 30  1  0  0  0  0
 26 27  1  0  0  0  0
 26 25  2  0  0  0  0
 27 28  2  0  0  0  0
 28 29  1  0  0  0  0
 29 24  1  0  0  0  0
 30 29  2  0  0  0  0
 31 26  1  0  0  0  0
 32 27  1  0  0  0  0
 33 25  1  0  0  0  0
 33 35  1  0  0  0  0
 34 33  2  0  0  0  0
 35 36  1  0  0  0  0
M  END
>  <minimizedAffinity>
-6.17600679

>  <minimizedRMSD>
0.472672909

$$$$
