
 OpenBabel03232520573D

 40 43  0  0  1  0  0  0  0  0999 V2000
   45.2950   32.6170   47.6600 C   0  0  0  0  0  0  0  0  0  0  0  0
   45.9600   32.3520   46.4610 C   0  0  0  0  0  0  0  0  0  0  0  0
   46.2540   31.0330   46.2540 C   0  0  0  0  0  0  0  0  0  0  0  0
   45.8890   30.1020   47.1700 N   0  0  0  0  0  0  0  0  0  0  0  0
   45.2470   30.3770   48.3200 C   0  0  0  0  0  0  0  0  0  0  0  0
   44.9500   31.6420   48.5670 N   0  0  0  0  0  0  0  0  0  0  0  0
   44.9530   29.3310   49.2390 N   0  0  0  0  0  0  0  0  0  0  0  0
   45.0200   33.5990   47.9430 H   0  0  0  0  0  0  0  0  0  0  0  0
   44.0320   29.3020   49.7160 H   0  0  0  0  0  0  0  0  0  0  0  0
   45.6900   28.6050   49.4120 H   0  0  0  0  0  0  0  0  0  0  0  0
   46.2310   33.3270   45.4550 C   0  0  2  0  0  0  0  0  0  0  0  0
   45.1150   34.4630   45.6420 C   0  0  0  0  0  0  0  0  0  0  0  0
   44.9320   35.3920   44.5630 C   0  0  0  0  0  0  0  0  0  0  0  0
   45.7360   35.2830   43.3510 C   0  0  1  0  0  0  0  0  0  0  0  0
   46.7790   34.2550   43.3530 C   0  0  0  0  0  0  0  0  0  0  0  0
   46.2200   33.0170   44.0720 C   0  0  0  0  0  0  0  0  0  0  0  0
   47.0750   33.9970   45.7870 H   0  0  0  0  0  0  0  0  0  0  0  0
   44.4220   34.7160   46.4370 H   0  0  0  0  0  0  0  0  0  0  0  0
   44.1930   36.1720   44.6470 H   0  0  0  0  0  0  0  0  0  0  0  0
   46.1800   36.2810   43.1510 H   0  0  0  0  0  0  0  0  0  0  0  0
   47.6520   34.6080   43.9540 H   0  0  0  0  0  0  0  0  0  0  0  0
   47.1390   34.0540   42.3470 H   0  0  0  0  0  0  0  0  0  0  0  0
   45.0690   33.0950   43.7400 H   0  0  0  0  0  0  0  0  0  0  0  0
   46.5080   32.2400   43.4610 H   0  0  0  0  0  0  0  0  0  0  0  0
   44.7670   35.0370   42.1690 C   0  0  0  0  0  0  0  0  0  0  0  0
   43.7700   34.1400   42.4640 F   0  0  0  0  0  0  0  0  0  0  0  0
   44.1400   36.2600   41.9190 F   0  0  0  0  0  0  0  0  0  0  0  0
   45.4800   34.6990   41.0330 F   0  0  0  0  0  0  0  0  0  0  0  0
   47.1020   30.3990   45.2200 C   0  0  0  0  0  0  0  0  0  0  0  0
   46.8410   30.2080   43.9600 N   0  0  0  0  0  0  0  0  0  0  0  0
   47.5100   29.6210   43.0040 C   0  0  0  0  0  3  0  0  0  0  0  0
   48.7010   29.0990   43.3370 N   0  0  0  0  0  0  0  0  0  0  0  0
   49.1420   29.1980   44.6140 C   0  0  0  0  0  0  0  0  0  0  0  0
   50.3460   28.6110   44.8620 C   0  0  0  0  0  3  0  0  0  0  0  0
   50.8420   28.6390   46.1440 C   0  0  0  0  0  0  0  0  0  0  0  0
   51.7970   28.1660   46.3110 H   0  0  0  0  0  0  0  0  0  0  0  0
   50.0800   29.2720   47.1240 C   0  0  0  0  0  0  0  0  0  0  0  0
   50.5460   29.2430   48.0960 H   0  0  0  0  0  0  0  0  0  0  0  0
   48.8770   29.8330   46.7600 C   0  0  0  0  0  3  0  0  0  0  0  0
   48.3260   29.8440   45.5090 C   0  0  0  0  0  0  0  0  0  0  0  0
  1  8  1  0  0  0  0
  1  6  1  0  0  0  0
  2  1  2  0  0  0  0
  3  2  1  0  0  0  0
  3  4  2  0  0  0  0
  4  5  1  0  0  0  0
  5  6  2  0  0  0  0
  5  7  1  0  0  0  0
  7 10  1  0  0  0  0
  7  9  1  0  0  0  0
 11 12  1  0  0  0  0
 11 17  1  1  0  0  0
 11  2  1  0  0  0  0
 12 18  1  0  0  0  0
 13 19  1  0  0  0  0
 13 12  2  0  0  0  0
 14 20  1  6  0  0  0
 14 15  1  0  0  0  0
 14 13  1  0  0  0  0
 15 21  1  0  0  0  0
 15 16  1  0  0  0  0
 16 11  1  0  0  0  0
 22 15  1  0  0  0  0
 23 16  1  0  0  0  0
 24 16  1  0  0  0  0
 25 26  1  0  0  0  0
 25 14  1  0  0  0  0
 27 25  1  0  0  0  0
 28 25  1  0  0  0  0
 29 40  1  0  0  0  0
 29  3  1  0  0  0  0
 30 29  2  0  0  0  0
 31 32  2  0  0  0  0
 31 30  1  0  0  0  0
 32 33  1  0  0  0  0
 33 34  2  0  0  0  0
 33 40  1  0  0  0  0
 34 35  1  0  0  0  0
 35 36  1  0  0  0  0
 35 37  2  0  0  0  0
 37 38  1  0  0  0  0
 39 37  1  0  0  0  0
 40 39  2  0  0  0  0
M  END
>  <minimizedAffinity>
-5.99984264

>  <minimizedRMSD>
0.859329402

$$$$
