
 OpenBabel03232519563D

 28 31  0  0  0  0  0  0  0  0999 V2000
   44.8090   33.8840   41.6020 N   0  0  0  0  0  0  0  0  0  0  0  0
   45.7190   33.1990   40.9070 C   0  0  0  0  0  0  0  0  0  0  0  0
   45.2150   33.0760   39.5890 C   0  0  0  0  0  0  0  0  0  0  0  0
   44.0300   33.6880   39.5300 N   0  0  0  0  0  0  0  0  0  0  0  0
   43.7670   34.1930   40.7670 C   0  0  0  0  0  0  0  0  0  0  0  0
   45.6320   32.6020   38.7200 H   0  0  0  0  0  0  0  0  0  0  0  0
   42.8730   34.7420   41.0210 H   0  0  0  0  0  0  0  0  0  0  0  0
   46.9990   32.6430   41.3090 C   0  0  0  0  0  0  0  0  0  0  0  0
   47.0970   31.2780   41.3220 N   0  0  0  0  0  0  0  0  0  0  0  0
   48.2860   30.7740   41.6930 C   0  0  0  0  0  0  0  0  0  0  0  0
   49.3890   31.4920   42.0510 N   0  0  0  0  0  0  0  0  0  0  0  0
   49.3150   32.8550   42.0460 C   0  0  0  0  0  0  0  0  0  0  0  0
   50.3810   33.6630   42.3870 C   0  0  0  0  0  0  0  0  0  0  0  0
   50.2690   35.0490   42.3590 C   0  0  0  0  0  0  0  0  0  0  0  0
   51.1130   35.6730   42.6290 H   0  0  0  0  0  0  0  0  0  0  0  0
   49.0490   35.6200   41.9790 C   0  0  0  0  0  0  0  0  0  0  0  0
   48.9720   36.6920   41.9610 H   0  0  0  0  0  0  0  0  0  0  0  0
   48.0200   34.7640   41.6490 C   0  0  0  0  0  0  0  0  0  0  0  0
   48.1020   33.3880   41.6680 C   0  0  0  0  0  0  0  0  0  0  0  0
   44.3980   35.5950   43.2310 C   0  0  0  0  0  0  0  0  0  0  0  0
   44.8270   34.2520   42.9640 C   0  0  0  0  0  0  0  0  0  0  0  0
   45.2250   33.4070   44.0160 C   0  0  0  0  0  0  0  0  0  0  0  0
   45.1780   33.9370   45.2830 N   0  0  0  0  0  0  0  0  0  0  0  0
   44.7640   35.2180   45.5120 C   0  0  0  0  0  0  0  0  0  0  0  0
   44.3780   36.0410   44.4930 N   0  0  0  0  0  0  0  0  0  0  0  0
   44.0970   36.2380   42.4410 H   0  0  0  0  0  0  0  0  0  0  0  0
   45.5290   32.4060   43.8210 H   0  0  0  0  0  0  0  0  0  0  0  0
   44.7800   35.4980   46.5610 H   0  0  0  0  0  0  0  0  0  0  0  0
  1 21  1  0  0  0  0
  2  8  1  0  0  0  0
  2  1  1  0  0  0  0
  3  2  2  0  0  0  0
  4  3  1  0  0  0  0
  4  5  2  0  0  0  0
  5  7  1  0  0  0  0
  5  1  1  0  0  0  0
  6  3  1  0  0  0  0
  8  9  2  0  0  0  0
  8 19  1  0  0  0  0
  9 10  1  0  0  0  0
 10 11  2  0  0  0  0
 12 11  1  0  0  0  0
 12 13  1  0  0  0  0
 14 13  2  0  0  0  0
 14 15  1  0  0  0  0
 16 14  1  0  0  0  0
 17 16  1  0  0  0  0
 18 19  1  0  0  0  0
 18 16  2  0  0  0  0
 19 12  2  0  0  0  0
 20 25  1  0  0  0  0
 21 20  2  0  0  0  0
 21 22  1  0  0  0  0
 22 23  2  0  0  0  0
 23 24  1  0  0  0  0
 24 28  1  0  0  0  0
 25 24  2  0  0  0  0
 26 20  1  0  0  0  0
 27 22  1  0  0  0  0
M  END
>  <minimizedAffinity>
-5.21975136

>  <minimizedRMSD>
3.15492392

$$$$
