
 OpenBabel03232520533D

 32 34  0  0  1  0  0  0  0  0999 V2000
   46.6640   32.2970   45.3020 C   0  0  2  0  0  0  0  0  0  0  0  0
   45.6260   33.2910   45.7640 C   0  0  0  0  0  0  0  0  0  0  0  0
   45.4560   34.4820   44.9710 C   0  0  0  0  0  0  0  0  0  0  0  0
   46.2570   34.7090   43.7750 C   0  0  1  0  0  0  0  0  0  0  0  0
   47.3130   33.7140   43.4720 C   0  0  0  0  0  0  0  0  0  0  0  0
   46.8330   32.3380   43.8230 C   0  0  0  0  0  0  0  0  0  0  0  0
   47.6260   32.6620   45.7700 H   0  0  0  0  0  0  0  0  0  0  0  0
   44.9230   33.3560   46.5840 H   0  0  0  0  0  0  0  0  0  0  0  0
   44.7530   35.2380   45.2130 H   0  0  0  0  0  0  0  0  0  0  0  0
   46.7490   35.7010   43.8570 H   0  0  0  0  0  0  0  0  0  0  0  0
   48.2230   33.9470   44.0340 H   0  0  0  0  0  0  0  0  0  0  0  0
   47.5650   33.7900   42.3930 H   0  0  0  0  0  0  0  0  0  0  0  0
   47.6640   31.6440   43.5690 H   0  0  0  0  0  0  0  0  0  0  0  0
   45.8810   32.0840   43.3390 H   0  0  0  0  0  0  0  0  0  0  0  0
   45.6480   30.9060   47.0420 C   0  0  0  0  0  0  0  0  0  0  0  0
   46.3930   30.9930   45.8800 C   0  0  0  0  0  0  0  0  0  0  0  0
   46.8540   29.7930   45.3370 C   0  0  0  0  0  0  0  0  0  0  0  0
   46.5760   28.6190   45.9320 N   0  0  0  0  0  0  0  0  0  0  0  0
   45.8370   28.5590   47.0790 C   0  0  0  0  0  0  0  0  0  0  0  0
   45.3780   29.7140   47.6260 N   0  0  0  0  0  0  0  0  0  0  0  0
   45.2180   31.7300   47.5920 H   0  0  0  0  0  0  0  0  0  0  0  0
   47.4400   29.8070   44.4300 H   0  0  0  0  0  0  0  0  0  0  0  0
   45.5310   27.2900   47.7310 C   0  0  0  0  0  0  0  0  0  0  0  0
   44.2860   26.6940   47.6920 C   0  0  0  0  0  3  0  0  0  0  0  0
   44.4010   25.5480   48.4040 N   0  0  0  0  0  0  0  0  0  0  0  0
   45.6650   25.4500   48.8580 C   0  0  0  0  0  3  0  0  0  0  0  0
   46.3840   26.5320   48.4450 N   0  0  0  0  0  0  0  0  0  0  0  0
   47.3860   26.7710   48.6180 H   0  0  0  0  0  0  0  0  0  0  0  0
   45.2950   34.8380   42.5820 C   0  0  0  0  0  0  0  0  0  0  0  0
   44.1720   34.0670   42.7180 F   0  0  0  0  0  0  0  0  0  0  0  0
   44.8660   36.1680   42.5530 F   0  0  0  0  0  0  0  0  0  0  0  0
   45.9720   34.5970   41.4000 F   0  0  0  0  0  0  0  0  0  0  0  0
  1  2  1  0  0  0  0
  1  7  1  1  0  0  0
  1 16  1  0  0  0  0
  2  8  1  0  0  0  0
  3  9  1  0  0  0  0
  3  2  2  0  0  0  0
  4 10  1  1  0  0  0
  4  3  1  0  0  0  0
  5  4  1  0  0  0  0
  5  6  1  0  0  0  0
  5 11  1  0  0  0  0
  6  1  1  0  0  0  0
 12  5  1  0  0  0  0
 13  6  1  0  0  0  0
 14  6  1  0  0  0  0
 15 21  1  0  0  0  0
 15 20  1  0  0  0  0
 16 15  2  0  0  0  0
 17 16  1  0  0  0  0
 17 18  2  0  0  0  0
 18 19  1  0  0  0  0
 19 20  2  0  0  0  0
 19 23  1  0  0  0  0
 22 17  1  0  0  0  0
 23 27  1  0  0  0  0
 24 23  2  0  0  0  0
 24 25  1  0  0  0  0
 25 26  2  0  0  0  0
 27 28  1  0  0  0  0
 27 26  1  0  0  0  0
 29 30  1  0  0  0  0
 29  4  1  0  0  0  0
 31 29  1  0  0  0  0
 32 29  1  0  0  0  0
M  END
>  <minimizedAffinity>
-4.68789768

>  <minimizedRMSD>
2.16981101

$$$$
