
 OpenBabel03232518523D

 31 33  0  0  0  0  0  0  0  0999 V2000
   44.8340   35.1970   44.8450 C   0  0  0  0  0  0  0  0  0  0  0  0
   45.7920   34.7010   43.9720 C   0  0  0  0  0  0  0  0  0  0  0  0
   46.5540   33.6400   44.4220 C   0  0  0  0  0  0  0  0  0  0  0  0
   46.3400   33.1380   45.6730 N   0  0  0  0  0  0  0  0  0  0  0  0
   45.4220   33.6240   46.4940 C   0  0  0  0  0  0  0  0  0  0  0  0
   44.6910   34.6370   46.0690 N   0  0  0  0  0  0  0  0  0  0  0  0
   44.2360   36.0290   44.4940 H   0  0  0  0  0  0  0  0  0  0  0  0
   45.9940   35.2630   42.6370 C   0  0  0  0  0  0  0  0  0  0  0  0
   45.0880   36.3230   42.4970 F   0  0  0  0  0  0  0  0  0  0  0  0
   45.5970   34.3740   41.6550 F   0  0  0  0  0  0  0  0  0  0  0  0
   47.2660   35.6930   42.4110 F   0  0  0  0  0  0  0  0  0  0  0  0
   47.5810   32.9800   43.6960 C   0  0  0  0  0  0  0  0  0  0  0  0
   47.6630   31.7410   43.4780 O   0  0  0  0  0  0  0  0  0  0  0  0
   48.7520   33.2510   43.0080 O   0  0  0  0  0  0  0  0  0  0  0  0
   49.0660   32.8060   41.7620 C   0  0  0  0  0  0  0  0  0  0  0  0
   48.1210   32.7220   40.6020 C   0  0  0  0  0  0  0  0  0  0  0  0
   49.1960   32.0550   39.3150 S   0  0  0  0  0  0  0  0  0  0  0  0
   50.6910   31.9900   40.4610 C   0  0  0  0  0  0  0  0  0  0  0  0
   50.2930   32.4030   41.5130 N   0  0  0  0  0  0  0  0  0  0  0  0
   46.9790   32.9840   40.4060 H   0  0  0  0  0  0  0  0  0  0  0  0
   52.0130   31.4770   39.9220 C   0  0  0  0  0  0  0  0  0  0  0  0
   52.8860   30.6510   40.5430 C   0  0  0  0  0  0  0  0  0  0  0  0
   53.8510   30.5490   39.6010 N   0  0  0  0  0  0  0  0  0  0  0  0
   53.5320   31.2850   38.5070 C   0  0  0  0  0  0  0  0  0  0  0  0
   52.3300   31.8930   38.7140 N   0  0  0  0  0  0  0  0  0  0  0  0
   51.8730   32.5060   38.0250 H   0  0  0  0  0  0  0  0  0  0  0  0
   45.1580   33.1660   47.7590 O   0  0  0  0  0  0  0  0  0  0  0  0
   45.8890   32.1260   48.3650 C   0  0  0  0  0  0  0  0  0  0  0  0
   47.2340   32.4660   48.4790 F   0  0  0  0  0  0  0  0  0  0  0  0
   45.7020   30.9110   47.7620 F   0  0  0  0  0  0  0  0  0  0  0  0
   45.4460   32.0610   49.6990 F   0  0  0  0  0  0  0  0  0  0  0  0
  1  6  1  0  0  0  0
  2  3  1  0  0  0  0
  2  1  2  0  0  0  0
  3  4  2  0  0  0  0
  4  5  1  0  0  0  0
  5 27  1  0  0  0  0
  6  5  2  0  0  0  0
  7  1  1  0  0  0  0
  8  2  1  0  0  0  0
  9  8  1  0  0  0  0
 10  8  1  0  0  0  0
 11  8  1  0  0  0  0
 12  3  1  0  0  0  0
 13 12  2  0  0  0  0
 14 12  1  0  0  0  0
 15 14  1  0  0  0  0
 16 15  2  0  0  0  0
 17 18  1  0  0  0  0
 17 16  1  0  0  0  0
 18 19  2  0  0  0  0
 19 15  1  0  0  0  0
 20 16  1  0  0  0  0
 21 18  1  0  0  0  0
 21 22  2  0  0  0  0
 23 22  1  0  0  0  0
 24 25  1  0  0  0  0
 24 23  2  0  0  0  0
 25 21  1  0  0  0  0
 26 25  1  0  0  0  0
 27 28  1  0  0  0  0
 28 29  1  0  0  0  0
 28 31  1  0  0  0  0
 30 28  1  0  0  0  0
M  END
>  <minimizedAffinity>
-6.11070681

>  <minimizedRMSD>
0.501714706

$$$$
