
 OpenBabel03232518013D

 37 39  0  0  1  0  0  0  0  0999 V2000
   47.9540   34.3770   41.1750 C   0  0  0  0  0  0  0  0  0  0  0  0
   44.2000   34.7950   41.3430 C   0  0  0  0  0  0  0  0  0  0  0  0
   45.4530   34.3950   40.8470 C   0  0  0  0  0  0  0  0  0  0  0  0
   46.5960   34.7350   41.5770 C   0  0  0  0  0  0  0  0  0  0  0  0
   46.4320   35.4430   42.7380 N   0  0  0  0  0  0  0  0  0  0  0  0
   45.2090   35.8060   43.1770 C   0  0  0  0  0  0  0  0  0  0  0  0
   44.1100   35.4940   42.5010 N   0  0  0  0  0  0  0  0  0  0  0  0
   45.5620   33.8450   39.9410 H   0  0  0  0  0  0  0  0  0  0  0  0
   45.1080   36.3690   44.1070 H   0  0  0  0  0  0  0  0  0  0  0  0
   43.0500   34.4000   40.5110 C   0  0  0  0  0  0  0  0  0  0  0  0
   42.4610   35.1110   39.7050 O   0  0  0  0  0  0  0  0  0  0  0  0
   42.9270   33.3620   40.8370 H   0  0  0  0  0  0  0  0  0  0  0  0
   48.8640   35.5680   41.5100 C   0  0  0  0  0  0  0  0  0  0  0  0
   49.8910   35.2660   41.2150 H   0  0  0  0  0  0  0  0  0  0  0  0
   48.5640   36.4350   40.9200 H   0  0  0  0  0  0  0  0  0  0  0  0
   48.8290   35.8030   42.5840 H   0  0  0  0  0  0  0  0  0  0  0  0
   48.0210   34.3240   39.6410 C   0  0  0  0  0  0  0  0  0  0  0  0
   47.5070   33.3760   39.3790 H   0  0  0  0  0  0  0  0  0  0  0  0
   49.0600   34.2370   39.3150 H   0  0  0  0  0  0  0  0  0  0  0  0
   47.4440   35.1380   39.1890 H   0  0  0  0  0  0  0  0  0  0  0  0
   48.4970   33.1350   41.6450 C   0  0  0  0  0  0  0  0  0  0  0  0
   48.1410   32.6630   42.5410 H   0  0  0  0  0  0  0  0  0  0  0  0
   48.1280   32.3310   40.8480 H   0  0  0  0  0  0  0  0  0  0  0  0
   49.8940   33.1650   41.5030 O   0  0  0  0  0  0  0  0  0  0  0  0
   50.2180   31.8760   41.1300 C   0  0  1  0  0  0  0  0  0  0  0  0
   50.5980   31.5210   39.7680 C   0  0  0  0  0  0  0  0  0  0  0  0
   51.6920   31.7490   40.7300 C   0  0  2  0  0  0  0  0  0  0  0  0
   49.8670   31.0280   41.7990 H   0  0  0  0  0  0  0  0  0  0  0  0
   50.3630   30.5260   39.3420 H   0  0  0  0  0  0  0  0  0  0  0  0
   50.4410   32.3380   39.0040 H   0  0  0  0  0  0  0  0  0  0  0  0
   52.3070   32.6620   40.6220 H   0  0  0  0  0  0  0  0  0  0  0  0
   52.3780   30.5190   41.2010 C   0  0  0  0  0  0  0  0  0  0  0  0
   52.6380   29.4690   40.3440 C   0  0  0  0  0  0  0  0  0  0  0  0
   53.2650   28.5430   41.1230 N   0  0  0  0  0  0  0  0  0  0  0  0
   53.3750   29.0270   42.3950 C   0  0  0  0  0  0  0  0  0  0  0  0
   52.8160   30.2660   42.4320 N   0  0  0  0  0  0  0  0  0  0  0  0
   52.7620   30.8730   43.2960 H   0  0  0  0  0  0  0  0  0  0  0  0
  1 13  1  0  0  0  0
  1  4  1  0  0  0  0
  1 21  1  0  0  0  0
  2  7  1  0  0  0  0
  3  2  2  0  0  0  0
  3  4  1  0  0  0  0
  4  5  2  0  0  0  0
  5  6  1  0  0  0  0
  6  9  1  0  0  0  0
  7  6  2  0  0  0  0
  8  3  1  0  0  0  0
 10 12  1  0  0  0  0
 10  2  1  0  0  0  0
 11 10  2  0  0  0  0
 13 16  1  0  0  0  0
 14 13  1  0  0  0  0
 15 13  1  0  0  0  0
 17  1  1  0  0  0  0
 18 17  1  0  0  0  0
 19 17  1  0  0  0  0
 20 17  1  0  0  0  0
 21 22  1  0  0  0  0
 23 21  1  0  0  0  0
 24 21  1  0  0  0  0
 25 24  1  0  0  0  0
 25 28  1  1  0  0  0
 26 27  1  0  0  0  0
 26 25  1  0  0  0  0
 27 31  1  6  0  0  0
 27 25  1  0  0  0  0
 27 32  1  0  0  0  0
 29 26  1  0  0  0  0
 30 26  1  0  0  0  0
 32 36  1  0  0  0  0
 33 34  1  0  0  0  0
 33 32  2  0  0  0  0
 34 35  2  0  0  0  0
 35 36  1  0  0  0  0
 36 37  1  0  0  0  0
M  END
>  <minimizedAffinity>
-4.48987865

>  <minimizedRMSD>
1.26082885

$$$$
