
 OpenBabel03232520533D

 32 34  0  0  1  0  0  0  0  0999 V2000
   46.3220   32.1770   45.0680 C   0  0  2  0  0  0  0  0  0  0  0  0
   45.5610   33.3350   45.6670 C   0  0  0  0  0  0  0  0  0  0  0  0
   45.6080   34.5900   44.9590 C   0  0  0  0  0  0  0  0  0  0  0  0
   46.3610   34.7250   43.7190 C   0  0  1  0  0  0  0  0  0  0  0  0
   47.1480   33.5500   43.2770 C   0  0  0  0  0  0  0  0  0  0  0  0
   46.4000   32.2880   43.5860 C   0  0  0  0  0  0  0  0  0  0  0  0
   47.3690   32.2900   45.4780 H   0  0  0  0  0  0  0  0  0  0  0  0
   44.9450   33.4900   46.5420 H   0  0  0  0  0  0  0  0  0  0  0  0
   45.1070   35.4600   45.2990 H   0  0  0  0  0  0  0  0  0  0  0  0
   47.0640   35.5780   43.8180 H   0  0  0  0  0  0  0  0  0  0  0  0
   48.1220   33.5390   43.7770 H   0  0  0  0  0  0  0  0  0  0  0  0
   47.3410   33.6480   42.1870 H   0  0  0  0  0  0  0  0  0  0  0  0
   47.0390   31.4510   43.2270 H   0  0  0  0  0  0  0  0  0  0  0  0
   45.3850   32.2820   43.1640 H   0  0  0  0  0  0  0  0  0  0  0  0
   45.6190   30.7810   46.9530 C   0  0  0  0  0  0  0  0  0  0  0  0
   45.8070   30.9230   45.5900 C   0  0  0  0  0  0  0  0  0  0  0  0
   45.4930   29.8220   44.7930 C   0  0  0  0  0  0  0  0  0  0  0  0
   45.0300   28.6850   45.3450 N   0  0  0  0  0  0  0  0  0  0  0  0
   44.8530   28.5690   46.6940 C   0  0  0  0  0  0  0  0  0  0  0  0
   45.1520   29.6280   47.4900 N   0  0  0  0  0  0  0  0  0  0  0  0
   45.8120   31.5270   47.7090 H   0  0  0  0  0  0  0  0  0  0  0  0
   45.6220   29.8820   43.7230 H   0  0  0  0  0  0  0  0  0  0  0  0
   44.3520   27.3400   47.3010 C   0  0  0  0  0  0  0  0  0  0  0  0
   44.7710   26.8710   48.5300 C   0  0  0  0  0  3  0  0  0  0  0  0
   44.0860   25.7230   48.7410 N   0  0  0  0  0  0  0  0  0  0  0  0
   43.2810   25.5020   47.6830 C   0  0  0  0  0  3  0  0  0  0  0  0
   43.4370   26.5050   46.7740 N   0  0  0  0  0  0  0  0  0  0  0  0
   42.9700   26.6450   45.8510 H   0  0  0  0  0  0  0  0  0  0  0  0
   45.3760   35.1450   42.6150 C   0  0  0  0  0  0  0  0  0  0  0  0
   44.1460   34.5580   42.7450 F   0  0  0  0  0  0  0  0  0  0  0  0
   45.1770   36.5220   42.7560 F   0  0  0  0  0  0  0  0  0  0  0  0
   45.9420   34.9360   41.3700 F   0  0  0  0  0  0  0  0  0  0  0  0
  1  7  1  1  0  0  0
  1 16  1  0  0  0  0
  1  2  1  0  0  0  0
  2  8  1  0  0  0  0
  3  9  1  0  0  0  0
  3  2  2  0  0  0  0
  4 10  1  1  0  0  0
  4  3  1  0  0  0  0
  5  6  1  0  0  0  0
  5  4  1  0  0  0  0
  5 11  1  0  0  0  0
  6  1  1  0  0  0  0
 12  5  1  0  0  0  0
 13  6  1  0  0  0  0
 14  6  1  0  0  0  0
 15 20  1  0  0  0  0
 15 21  1  0  0  0  0
 16 15  2  0  0  0  0
 17 18  2  0  0  0  0
 17 16  1  0  0  0  0
 18 19  1  0  0  0  0
 19 23  1  0  0  0  0
 19 20  2  0  0  0  0
 22 17  1  0  0  0  0
 23 24  2  0  0  0  0
 24 25  1  0  0  0  0
 26 25  2  0  0  0  0
 27 23  1  0  0  0  0
 27 26  1  0  0  0  0
 28 27  1  0  0  0  0
 29 30  1  0  0  0  0
 29 31  1  0  0  0  0
 29  4  1  0  0  0  0
 32 29  1  0  0  0  0
M  END
>  <minimizedAffinity>
-4.36986923

>  <minimizedRMSD>
2.36028814

$$$$
