
 OpenBabel03232519573D

 22 24  0  0  0  0  0  0  0  0999 V2000
   44.0950   33.9560   41.6010 N   0  0  0  0  0  0  0  0  0  0  0  0
   44.8290   33.8910   40.5010 C   0  0  0  0  0  0  0  0  0  0  0  0
   43.9150   33.6480   39.4330 C   0  0  0  0  0  0  0  0  0  0  0  0
   42.6720   33.5810   39.9310 N   0  0  0  0  0  0  0  0  0  0  0  0
   42.7630   33.7710   41.2740 C   0  0  0  0  0  0  0  0  0  0  0  0
   44.0620   33.5190   38.3780 H   0  0  0  0  0  0  0  0  0  0  0  0
   41.9320   33.7740   41.9620 H   0  0  0  0  0  0  0  0  0  0  0  0
   44.2100   35.4170   43.5040 C   0  0  0  0  0  0  0  0  0  0  0  0
   44.5020   34.1230   42.9230 C   0  0  0  0  0  0  0  0  0  0  0  0
   45.1470   33.1650   43.7250 C   0  0  0  0  0  0  0  0  0  0  0  0
   45.4750   33.4810   45.0070 N   0  0  0  0  0  0  0  0  0  0  0  0
   45.1840   34.7160   45.5190 C   0  0  0  0  0  0  0  0  0  0  0  0
   44.5560   35.6670   44.7670 N   0  0  0  0  0  0  0  0  0  0  0  0
   43.7150   36.1610   42.9000 H   0  0  0  0  0  0  0  0  0  0  0  0
   45.3590   32.2020   43.3580 H   0  0  0  0  0  0  0  0  0  0  0  0
   45.4860   34.8690   46.5470 H   0  0  0  0  0  0  0  0  0  0  0  0
   46.2100   34.0210   40.1790 C   0  0  0  0  0  0  0  0  0  0  0  0
   47.3110   34.4440   40.8880 C   0  0  0  0  0  0  0  0  0  0  0  0
   48.4280   34.4730   40.1400 N   0  0  0  0  0  0  0  0  0  0  0  0
   48.0730   34.0620   38.9030 C   0  0  0  0  0  0  0  0  0  0  0  0
   46.7610   33.8080   38.9720 N   0  0  0  0  0  0  0  0  0  0  0  0
   46.3220   33.4700   38.0630 H   0  0  0  0  0  0  0  0  0  0  0  0
  1  9  1  0  0  0  0
  2  1  1  0  0  0  0
  3  4  1  0  0  0  0
  3  2  2  0  0  0  0
  4  5  2  0  0  0  0
  5  1  1  0  0  0  0
  5  7  1  0  0  0  0
  6  3  1  0  0  0  0
  8 13  1  0  0  0  0
  9  8  2  0  0  0  0
  9 10  1  0  0  0  0
 10 11  2  0  0  0  0
 11 12  1  0  0  0  0
 12 16  1  0  0  0  0
 13 12  2  0  0  0  0
 14  8  1  0  0  0  0
 15 10  1  0  0  0  0
 17  2  1  0  0  0  0
 17 18  2  0  0  0  0
 19 18  1  0  0  0  0
 20 21  1  0  0  0  0
 20 19  2  0  0  0  0
 21 17  1  0  0  0  0
 22 21  1  0  0  0  0
M  END
>  <minimizedAffinity>
-4.11114836

>  <minimizedRMSD>
1.55263197

$$$$
