
 OpenBabel03232520213D

 38 41  0  0  0  0  0  0  0  0999 V2000
   47.4370   34.2070   42.1370 C   0  0  0  0  0  0  0  0  0  0  0  0
   48.3560   35.3110   41.6990 C   0  0  0  0  0  0  0  0  0  0  0  0
   49.7050   35.3010   42.2880 C   0  0  0  0  0  0  0  0  0  0  0  0
   50.3550   33.9530   42.3570 C   0  0  0  0  0  0  0  0  0  0  0  0
   49.4330   32.8200   42.0040 C   0  0  0  0  0  0  0  0  0  0  0  0
   48.1340   33.0340   42.7660 C   0  0  0  0  0  0  0  0  0  0  0  0
   47.8670   36.2840   42.0020 H   0  0  0  0  0  0  0  0  0  0  0  0
   48.4240   35.3850   40.5890 H   0  0  0  0  0  0  0  0  0  0  0  0
   50.3310   36.0140   41.7570 H   0  0  0  0  0  0  0  0  0  0  0  0
   49.6170   35.6680   43.3480 H   0  0  0  0  0  0  0  0  0  0  0  0
   50.8190   33.7520   43.3620 H   0  0  0  0  0  0  0  0  0  0  0  0
   51.2030   33.9380   41.6360 H   0  0  0  0  0  0  0  0  0  0  0  0
   49.8660   31.8850   42.4240 H   0  0  0  0  0  0  0  0  0  0  0  0
   49.1990   32.7610   40.9430 H   0  0  0  0  0  0  0  0  0  0  0  0
   48.2710   33.1170   43.8470 H   0  0  0  0  0  0  0  0  0  0  0  0
   47.5060   32.1270   42.5800 H   0  0  0  0  0  0  0  0  0  0  0  0
   45.2140   34.4950   45.0860 C   0  0  0  0  0  0  0  0  0  0  0  0
   44.5350   35.6870   44.8460 C   0  0  0  0  0  0  0  0  0  0  0  0
   44.8440   36.3860   43.6830 C   0  0  0  0  0  0  0  0  0  0  0  0
   45.7830   35.8700   42.8530 N   0  0  0  0  0  0  0  0  0  0  0  0
   46.4270   34.7020   43.1140 C   0  0  0  0  0  0  0  0  0  0  0  0
   46.1270   34.0230   44.2450 N   0  0  0  0  0  0  0  0  0  0  0  0
   45.0620   33.8500   45.9660 H   0  0  0  0  0  0  0  0  0  0  0  0
   43.8170   35.9980   45.5680 H   0  0  0  0  0  0  0  0  0  0  0  0
   44.3290   37.3120   43.4830 H   0  0  0  0  0  0  0  0  0  0  0  0
   46.7290   33.6820   40.9100 C   0  0  0  0  0  0  0  0  0  0  0  0
   45.4960   33.1330   40.6050 C   0  0  0  0  0  0  0  0  0  0  0  0
   45.2840   32.7880   39.3200 C   0  0  0  0  0  0  0  0  0  0  0  0
   46.2020   32.9580   38.3650 C   0  0  0  0  0  0  0  0  0  0  0  0
   47.6080   33.7090   39.3250 S   0  0  0  0  0  0  0  0  0  0  0  0
   44.8070   33.0280   41.4280 H   0  0  0  0  0  0  0  0  0  0  0  0
   44.3500   32.3490   38.9860 H   0  0  0  0  0  0  0  0  0  0  0  0
   46.3320   32.7230   36.9500 C   0  0  0  0  0  0  0  0  0  0  0  0
   47.4000   32.2510   36.2640 C   0  0  0  0  0  0  0  0  0  0  0  0
   46.9930   32.2240   34.9750 N   0  0  0  0  0  0  0  0  0  0  0  0
   45.7090   32.6700   34.9020 C   0  0  0  0  0  0  0  0  0  0  0  0
   45.2830   32.9910   36.1610 N   0  0  0  0  0  0  0  0  0  0  0  0
   44.3280   33.3580   36.3670 H   0  0  0  0  0  0  0  0  0  0  0  0
  1  6  1  0  0  0  0
  1 21  1  0  0  0  0
  2  7  1  0  0  0  0
  2  1  1  0  0  0  0
  2  3  1  0  0  0  0
  3  4  1  0  0  0  0
  3 10  1  0  0  0  0
  4 11  1  0  0  0  0
  5  4  1  0  0  0  0
  5 13  1  0  0  0  0
  5  6  1  0  0  0  0
  6 15  1  0  0  0  0
  8  2  1  0  0  0  0
  9  3  1  0  0  0  0
 12  4  1  0  0  0  0
 14  5  1  0  0  0  0
 16  6  1  0  0  0  0
 17 23  1  0  0  0  0
 18 17  1  0  0  0  0
 18 24  1  0  0  0  0
 19 18  2  0  0  0  0
 20 21  2  0  0  0  0
 20 19  1  0  0  0  0
 21 22  1  0  0  0  0
 22 17  2  0  0  0  0
 25 19  1  0  0  0  0
 26  1  1  0  0  0  0
 27 26  2  0  0  0  0
 27 31  1  0  0  0  0
 28 27  1  0  0  0  0
 29 28  2  0  0  0  0
 29 30  1  0  0  0  0
 30 26  1  0  0  0  0
 32 28  1  0  0  0  0
 33 29  1  0  0  0  0
 34 33  2  0  0  0  0
 35 34  1  0  0  0  0
 36 35  2  0  0  0  0
 36 37  1  0  0  0  0
 37 38  1  0  0  0  0
 37 33  1  0  0  0  0
M  END
>  <minimizedAffinity>
-6.07400656

>  <minimizedRMSD>
0.453619272

$$$$
