
 OpenBabel03232520513D

 29 31  0  0  1  0  0  0  0  0999 V2000
   46.4080   34.1230   44.4990 C   0  0  2  0  0  0  0  0  0  0  0  0
   45.2960   34.6230   45.3930 C   0  0  0  0  0  0  0  0  0  0  0  0
   44.5120   35.7390   44.8990 C   0  0  0  0  0  0  0  0  0  0  0  0
   44.8050   36.3370   43.5910 C   0  0  2  0  0  0  0  0  0  0  0  0
   46.0030   35.8230   42.8720 C   0  0  0  0  0  0  0  0  0  0  0  0
   46.0400   34.3110   43.0610 C   0  0  0  0  0  0  0  0  0  0  0  0
   47.2940   34.7880   44.7240 H   0  0  0  0  0  0  0  0  0  0  0  0
   44.9600   34.3040   46.3560 H   0  0  0  0  0  0  0  0  0  0  0  0
   43.7200   36.1310   45.4840 H   0  0  0  0  0  0  0  0  0  0  0  0
   43.8950   36.2860   42.9630 H   0  0  0  0  0  0  0  0  0  0  0  0
   46.9550   36.2820   43.1370 H   0  0  0  0  0  0  0  0  0  0  0  0
   45.8440   35.9650   41.7690 H   0  0  0  0  0  0  0  0  0  0  0  0
   44.9750   33.9610   42.9640 H   0  0  0  0  0  0  0  0  0  0  0  0
   46.7120   33.8260   42.3600 H   0  0  0  0  0  0  0  0  0  0  0  0
   46.7610   32.3800   46.2280 C   0  0  0  0  0  0  0  0  0  0  0  0
   46.7540   32.7520   44.8840 C   0  0  0  0  0  0  0  0  0  0  0  0
   47.1020   31.7610   43.9280 C   0  0  0  0  0  0  0  0  0  0  0  0
   47.4190   30.5220   44.3610 N   0  0  0  0  0  0  0  0  0  0  0  0
   47.4160   30.1960   45.6770 C   0  0  0  0  0  0  0  0  0  0  0  0
   47.0890   31.1210   46.5890 N   0  0  0  0  0  0  0  0  0  0  0  0
   46.5090   33.0710   47.0200 H   0  0  0  0  0  0  0  0  0  0  0  0
   47.1250   31.9550   42.8700 H   0  0  0  0  0  0  0  0  0  0  0  0
   47.6740   29.1940   45.9920 H   0  0  0  0  0  0  0  0  0  0  0  0
   45.0790   37.7920   43.8580 C   0  0  0  0  0  0  0  0  0  0  0  0
   45.4300   38.9010   43.1150 C   0  0  0  0  0  3  0  0  0  0  0  0
   45.5270   39.9480   43.9820 N   0  0  0  0  0  0  0  0  0  0  0  0
   45.2480   39.5210   45.2270 C   0  0  0  0  0  3  0  0  0  0  0  0
   44.9760   38.2010   45.1470 N   0  0  0  0  0  0  0  0  0  0  0  0
   44.7320   37.6970   46.0460 H   0  0  0  0  0  0  0  0  0  0  0  0
  1  7  1  1  0  0  0
  1 16  1  0  0  0  0
  1  2  1  0  0  0  0
  2  8  1  0  0  0  0
  3  2  2  0  0  0  0
  3  9  1  0  0  0  0
  4 10  1  6  0  0  0
  4 24  1  0  0  0  0
  4  3  1  0  0  0  0
  5  6  1  0  0  0  0
  5 11  1  0  0  0  0
  5  4  1  0  0  0  0
  6  1  1  0  0  0  0
 12  5  1  0  0  0  0
 13  6  1  0  0  0  0
 14  6  1  0  0  0  0
 15 20  1  0  0  0  0
 15 21  1  0  0  0  0
 16 15  2  0  0  0  0
 17 18  2  0  0  0  0
 17 16  1  0  0  0  0
 18 19  1  0  0  0  0
 19 23  1  0  0  0  0
 19 20  2  0  0  0  0
 22 17  1  0  0  0  0
 24 28  1  0  0  0  0
 25 24  2  0  0  0  0
 25 26  1  0  0  0  0
 26 27  2  0  0  0  0
 28 27  1  0  0  0  0
 28 29  1  0  0  0  0
M  END
>  <minimizedAffinity>
-3.91342807

>  <minimizedRMSD>
1.87887609

$$$$
