
 OpenBabel03232520463D

 38 41  0  0  0  0  0  0  0  0999 V2000
   46.4210   34.7070   42.0780 C   0  0  0  0  0  0  0  0  0  0  0  0
   47.7300   35.0630   41.9380 C   0  0  0  0  0  0  0  0  0  0  0  0
   48.4330   34.8200   40.7560 C   0  0  0  0  0  0  0  0  0  0  0  0
   47.7880   34.1940   39.6780 C   0  0  0  0  0  0  0  0  0  0  0  0
   46.4770   33.8430   39.8320 C   0  0  0  0  0  0  0  0  0  0  0  0
   45.8060   34.0990   41.0190 C   0  0  0  0  0  0  0  0  0  0  0  0
   48.3120   35.5490   42.7110 H   0  0  0  0  0  0  0  0  0  0  0  0
   49.4720   35.0960   40.6320 H   0  0  0  0  0  0  0  0  0  0  0  0
   48.2970   33.9860   38.7440 H   0  0  0  0  0  0  0  0  0  0  0  0
   45.9220   33.3570   39.0370 H   0  0  0  0  0  0  0  0  0  0  0  0
   44.4430   33.7170   41.1320 N   0  0  0  0  0  0  0  0  0  0  0  0
   43.6240   34.6460   40.5700 C   0  0  0  0  0  0  0  0  0  0  0  0
   42.2370   34.4790   40.5660 C   0  0  0  0  0  0  0  0  0  0  0  0
   41.7420   33.3290   41.1560 C   0  0  0  0  0  0  0  0  0  0  0  0
   40.4980   33.1080   41.1900 O   0  0  0  0  0  0  0  0  0  0  0  0
   42.5750   32.4350   41.7000 N   0  0  0  0  0  0  0  0  0  0  0  0
   43.9120   32.6100   41.6980 C   0  0  0  0  0  0  0  0  0  0  0  0
   44.7680   31.8380   42.1760 O   0  0  0  0  0  0  0  0  0  0  0  0
   43.9420   35.5620   40.0940 H   0  0  0  0  0  0  0  0  0  0  0  0
   42.2610   31.5390   42.1650 H   0  0  0  0  0  0  0  0  0  0  0  0
   41.3130   35.4670   39.9640 C   0  0  0  0  0  0  0  0  0  0  0  0
   40.9980   36.1240   40.8230 H   0  0  0  0  0  0  0  0  0  0  0  0
   41.9350   36.1270   39.3110 H   0  0  0  0  0  0  0  0  0  0  0  0
   40.4600   35.0280   39.4400 H   0  0  0  0  0  0  0  0  0  0  0  0
   44.4150   36.2980   44.8470 C   0  0  0  0  0  0  0  0  0  0  0  0
   44.9940   36.1310   43.5850 C   0  0  0  0  0  0  0  0  0  0  0  0
   45.7680   34.9990   43.3410 C   0  0  0  0  0  0  0  0  0  0  0  0
   45.9100   34.1300   44.3460 N   0  0  0  0  0  0  0  0  0  0  0  0
   45.3430   34.3060   45.5640 C   0  0  0  0  0  0  0  0  0  0  0  0
   44.5990   35.3870   45.8100 N   0  0  0  0  0  0  0  0  0  0  0  0
   43.8240   37.2210   44.9420 H   0  0  0  0  0  0  0  0  0  0  0  0
   44.8980   36.8150   42.7520 H   0  0  0  0  0  0  0  0  0  0  0  0
   45.5750   33.2880   46.5720 C   0  0  0  0  0  0  0  0  0  0  0  0
   46.5170   32.2610   46.4790 C   0  0  0  0  0  3  0  0  0  0  0  0
   46.3670   31.5890   47.6190 N   0  0  0  0  0  0  0  0  0  0  0  0
   45.4200   32.1110   48.3960 C   0  0  0  0  0  3  0  0  0  0  0  0
   44.9200   33.1780   47.7420 N   0  0  0  0  0  0  0  0  0  0  0  0
   44.1640   33.7570   48.1450 H   0  0  0  0  0  0  0  0  0  0  0  0
  1 27  1  0  0  0  0
  2  1  1  0  0  0  0
  2  7  1  0  0  0  0
  3  2  2  0  0  0  0
  4  5  2  0  0  0  0
  4  3  1  0  0  0  0
  5  6  1  0  0  0  0
  6 11  1  0  0  0  0
  6  1  2  0  0  0  0
  8  3  1  0  0  0  0
  9  4  1  0  0  0  0
 10  5  1  0  0  0  0
 11 17  1  0  0  0  0
 12 11  1  0  0  0  0
 13 12  2  0  0  0  0
 13 14  1  0  0  0  0
 14 15  2  0  0  0  0
 14 16  1  0  0  0  0
 16 20  1  0  0  0  0
 17 16  1  0  0  0  0
 17 18  2  0  0  0  0
 19 12  1  0  0  0  0
 21 13  1  0  0  0  0
 21 22  1  0  0  0  0
 23 21  1  0  0  0  0
 24 21  1  0  0  0  0
 25 31  1  0  0  0  0
 25 30  1  0  0  0  0
 26 25  2  0  0  0  0
 27 26  1  0  0  0  0
 27 28  2  0  0  0  0
 28 29  1  0  0  0  0
 29 30  2  0  0  0  0
 29 33  1  0  0  0  0
 32 26  1  0  0  0  0
 33 37  1  0  0  0  0
 34 33  2  0  0  0  0
 34 35  1  0  0  0  0
 35 36  2  0  0  0  0
 37 38  1  0  0  0  0
 37 36  1  0  0  0  0
M  END
>  <minimizedAffinity>
-7.83197975

>  <minimizedRMSD>
0.192602366

$$$$
