
 OpenBabel03232519053D

 42 43  0  0  1  0  0  0  0  0999 V2000
   44.4260   35.9440   44.7430 C   0  0  0  0  0  0  0  0  0  0  0  0
   44.2950   35.8220   43.3530 C   0  0  0  0  0  0  0  0  0  0  0  0
   45.1170   34.8310   42.7880 C   0  0  0  0  0  0  0  0  0  0  0  0
   45.3020   33.7410   43.5930 N   0  0  0  0  0  0  0  0  0  0  0  0
   45.4660   33.9050   44.8970 C   0  0  0  0  0  0  0  0  0  0  0  0
   45.0130   35.0240   45.5050 N   0  0  0  0  0  0  0  0  0  0  0  0
   46.0770   32.9130   45.6390 N   0  0  0  0  0  0  0  0  0  0  0  0
   45.6520   32.8170   47.0590 C   0  0  0  0  0  0  0  0  0  0  0  0
   46.5420   31.9280   47.8850 C   0  0  0  0  0  0  0  0  0  0  0  0
   47.6740   31.5060   47.2340 O   0  0  0  0  0  0  0  0  0  0  0  0
   47.3440   30.9240   46.0350 C   0  0  0  0  0  0  0  0  0  0  0  0
   47.0930   32.0820   45.0960 C   0  0  1  0  0  0  0  0  0  0  0  0
   43.9100   36.6550   45.4100 H   0  0  0  0  0  0  0  0  0  0  0  0
   43.5820   36.5110   42.9520 H   0  0  0  0  0  0  0  0  0  0  0  0
   44.9440   34.8400   41.6820 H   0  0  0  0  0  0  0  0  0  0  0  0
   46.1430   35.4440   42.7650 H   0  0  0  0  0  0  0  0  0  0  0  0
   45.1860   33.7020   42.7210 H   0  0  0  0  0  0  0  0  0  0  0  0
   44.6090   32.5120   47.1610 H   0  0  0  0  0  0  0  0  0  0  0  0
   45.7490   33.8530   47.4280 H   0  0  0  0  0  0  0  0  0  0  0  0
   46.8940   32.5370   48.7530 H   0  0  0  0  0  0  0  0  0  0  0  0
   45.9480   31.0430   48.1860 H   0  0  0  0  0  0  0  0  0  0  0  0
   46.4610   30.2800   46.1390 H   0  0  0  0  0  0  0  0  0  0  0  0
   48.1690   30.2970   45.6280 H   0  0  0  0  0  0  0  0  0  0  0  0
   48.0460   32.6870   45.1040 H   0  0  0  0  0  0  0  0  0  0  0  0
   46.6550   31.8370   43.7990 N   0  0  1  0  0  0  0  0  0  0  0  0
   45.4190   31.3210   43.6520 C   0  0  0  0  0  0  0  0  0  0  0  0
   45.2100   31.1410   42.1660 C   0  0  0  0  0  0  0  0  0  0  0  0
   46.3430   31.9780   41.5570 C   0  0  0  0  0  0  0  0  0  0  0  0
   46.9930   32.6350   42.7730 C   0  0  2  0  0  0  0  0  0  0  0  0
   45.8080   30.2850   43.8610 H   0  0  0  0  0  0  0  0  0  0  0  0
   44.6060   31.1200   44.3420 H   0  0  0  0  0  0  0  0  0  0  0  0
   45.2060   30.1250   41.7660 H   0  0  0  0  0  0  0  0  0  0  0  0
   44.2310   31.5750   41.8510 H   0  0  0  0  0  0  0  0  0  0  0  0
   45.9590   32.7380   40.8550 H   0  0  0  0  0  0  0  0  0  0  0  0
   47.0000   31.3270   40.9610 H   0  0  0  0  0  0  0  0  0  0  0  0
   47.4230   33.5890   42.5930 H   0  0  0  0  0  0  0  0  0  0  0  0
   48.3890   32.0230   42.7220 C   0  0  0  0  0  0  0  0  0  0  0  0
   49.5370   32.8020   42.4990 C   0  0  0  0  0  0  0  0  0  0  0  0
   50.6790   32.0420   42.4880 N   0  0  0  0  0  0  0  0  0  0  0  0
   50.2520   30.7900   42.7020 C   0  0  0  0  0  0  0  0  0  0  0  0
   48.9170   30.7690   42.8390 N   0  0  0  0  0  0  0  0  0  0  0  0
   48.2740   29.9630   43.0130 H   0  0  0  0  0  0  0  0  0  0  0  0
  1 13  1  0  0  0  0
  1  6  2  0  0  0  0
  2  1  1  0  0  0  0
  4  5  2  0  0  0  0
  5  6  1  0  0  0  0
  5  7  1  0  0  0  0
  7  8  1  0  0  0  0
  8 18  1  0  0  0  0
  8 19  1  0  0  0  0
  8  9  1  0  0  0  0
  9 21  1  0  0  0  0
  9 20  1  0  0  0  0
 10  9  1  0  0  0  0
 11 22  1  0  0  0  0
 11 10  1  0  0  0  0
 12 24  1  6  0  0  0
 12  7  1  0  0  0  0
 12 11  1  0  0  0  0
 14  2  1  0  0  0  0
 15  3  1  0  0  0  0
 16  3  1  0  0  0  0
 17  4  1  0  0  0  0
 23 11  1  0  0  0  0
 25 26  1  1  0  0  0
 25 12  1  0  0  0  0
 26 30  1  0  0  0  0
 26 31  1  0  0  0  0
 27 26  1  0  0  0  0
 28 27  1  0  0  0  0
 28 29  1  0  0  0  0
 29 36  1  1  0  0  0
 29 25  1  0  0  0  0
 32 27  1  0  0  0  0
 33 27  1  0  0  0  0
 34 28  1  0  0  0  0
 35 28  1  0  0  0  0
 37 29  1  0  0  0  0
 37 41  1  0  0  0  0
 38 37  2  0  0  0  0
 39 38  1  0  0  0  0
 39 40  2  0  0  0  0
 40 41  1  0  0  0  0
 41 42  1  0  0  0  0
M  END
>  <minimizedAffinity>
-4.67066479

>  <minimizedRMSD>
1.57116234

$$$$
