
 OpenBabel03232520433D

 40 43  0  0  1  0  0  0  0  0999 V2000
   38.6110   33.2980   38.7640 N   0  0  0  0  0  0  0  0  0  0  0  0
   38.4160   34.0410   39.9620 C   0  0  0  0  0  0  0  0  0  0  0  0
   39.4680   33.7360   40.9990 C   0  0  0  0  0  0  0  0  0  0  0  0
   40.8170   34.0360   40.4230 C   0  0  1  0  0  0  0  0  0  0  0  0
   40.7740   34.4500   38.9740 C   0  0  0  0  0  0  0  0  0  0  0  0
   39.9090   33.5300   38.1560 C   0  0  1  0  0  0  0  0  0  0  0  0
   37.8150   33.3830   38.1260 H   0  0  0  0  0  0  0  0  0  0  0  0
   38.4040   35.1350   39.7150 H   0  0  0  0  0  0  0  0  0  0  0  0
   37.4170   33.7940   40.3530 H   0  0  0  0  0  0  0  0  0  0  0  0
   39.3250   32.7110   41.3520 H   0  0  0  0  0  0  0  0  0  0  0  0
   39.2230   34.3970   41.8790 H   0  0  0  0  0  0  0  0  0  0  0  0
   41.3570   33.0540   40.4380 H   0  0  0  0  0  0  0  0  0  0  0  0
   41.8050   34.3920   38.5860 H   0  0  0  0  0  0  0  0  0  0  0  0
   40.3550   35.4680   38.9020 H   0  0  0  0  0  0  0  0  0  0  0  0
   39.6740   34.1110   37.2150 H   0  0  0  0  0  0  0  0  0  0  0  0
   40.5750   32.2770   37.7560 C   0  0  0  0  0  0  0  0  0  0  0  0
   39.9830   31.0270   37.5930 C   0  0  0  0  0  0  0  0  0  0  0  0
   40.9020   30.0930   37.2160 N   0  0  0  0  0  0  0  0  0  0  0  0
   42.0800   30.7660   37.1430 C   0  0  0  0  0  0  0  0  0  0  0  0
   41.8830   32.0560   37.4630 N   0  0  0  0  0  0  0  0  0  0  0  0
   42.6320   32.7960   37.4860 H   0  0  0  0  0  0  0  0  0  0  0  0
   41.5950   35.3080   41.4120 S   0  0  0  0  0  0  0  0  0  0  0  0
   44.0520   35.5160   42.6730 C   0  0  0  0  0  0  0  0  0  0  0  0
   43.3610   35.0310   41.5630 C   0  0  0  0  0  0  0  0  0  0  0  0
   44.0600   34.3390   40.5970 C   0  0  0  0  0  0  0  0  0  0  0  0
   45.4040   34.1540   40.7570 N   0  0  0  0  0  0  0  0  0  0  0  0
   46.0490   34.6330   41.8400 C   0  0  0  0  0  0  0  0  0  0  0  0
   45.3820   35.3210   42.8100 N   0  0  0  0  0  0  0  0  0  0  0  0
   43.5530   36.0670   43.4650 H   0  0  0  0  0  0  0  0  0  0  0  0
   43.5860   33.9480   39.7330 H   0  0  0  0  0  0  0  0  0  0  0  0
   47.4810   34.4600   42.0540 C   0  0  0  0  0  0  0  0  0  0  0  0
   48.3350   35.5310   41.9510 C   0  0  0  0  0  0  0  0  0  0  0  0
   49.7020   35.3980   42.1510 C   0  0  0  0  0  0  0  0  0  0  0  0
   50.2280   34.1510   42.4630 C   0  0  0  0  0  0  0  0  0  0  0  0
   49.3460   33.0990   42.5600 C   0  0  0  0  0  0  0  0  0  0  0  0
   48.0170   33.2590   42.3590 N   0  0  0  0  0  0  0  0  0  0  0  0
   47.9800   36.5270   41.7100 H   0  0  0  0  0  0  0  0  0  0  0  0
   50.3560   36.2420   42.0670 H   0  0  0  0  0  0  0  0  0  0  0  0
   51.2950   34.0710   42.6140 H   0  0  0  0  0  0  0  0  0  0  0  0
   49.8050   32.1460   42.8050 H   0  0  0  0  0  0  0  0  0  0  0  0
  1  2  1  0  0  0  0
  2  9  1  0  0  0  0
  2  3  1  0  0  0  0
  3 10  1  0  0  0  0
  3 11  1  0  0  0  0
  4 12  1  1  0  0  0
  4  3  1  0  0  0  0
  4 22  1  0  0  0  0
  5  4  1  0  0  0  0
  6 15  1  6  0  0  0
  6  1  1  0  0  0  0
  6  5  1  0  0  0  0
  7  1  1  0  0  0  0
  8  2  1  0  0  0  0
 13  5  1  0  0  0  0
 14  5  1  0  0  0  0
 16  6  1  0  0  0  0
 17 16  2  0  0  0  0
 18 17  1  0  0  0  0
 19 18  2  0  0  0  0
 19 20  1  0  0  0  0
 20 21  1  0  0  0  0
 20 16  1  0  0  0  0
 22 24  1  0  0  0  0
 23 28  1  0  0  0  0
 23 29  1  0  0  0  0
 24 23  2  0  0  0  0
 25 26  2  0  0  0  0
 25 24  1  0  0  0  0
 26 27  1  0  0  0  0
 27 31  1  0  0  0  0
 27 28  2  0  0  0  0
 30 25  1  0  0  0  0
 31 36  1  0  0  0  0
 32 31  2  0  0  0  0
 32 33  1  0  0  0  0
 33 34  2  0  0  0  0
 34 35  1  0  0  0  0
 34 39  1  0  0  0  0
 35 40  1  0  0  0  0
 36 35  2  0  0  0  0
 37 32  1  0  0  0  0
 38 33  1  0  0  0  0
M  END
>  <minimizedAffinity>
-5.92493773

>  <minimizedRMSD>
1.04529357

$$$$
