
 OpenBabel03232520503D

 29 31  0  0  1  0  0  0  0  0999 V2000
   46.4070   34.1230   44.4990 C   0  0  2  0  0  0  0  0  0  0  0  0
   45.2950   34.6240   45.3940 C   0  0  0  0  0  0  0  0  0  0  0  0
   44.5120   35.7400   44.8990 C   0  0  0  0  0  0  0  0  0  0  0  0
   44.8050   36.3380   43.5910 C   0  0  2  0  0  0  0  0  0  0  0  0
   46.0030   35.8240   42.8730 C   0  0  0  0  0  0  0  0  0  0  0  0
   46.0400   34.3110   43.0610 C   0  0  0  0  0  0  0  0  0  0  0  0
   47.2930   34.7880   44.7240 H   0  0  0  0  0  0  0  0  0  0  0  0
   44.9600   34.3040   46.3560 H   0  0  0  0  0  0  0  0  0  0  0  0
   43.7190   36.1320   45.4840 H   0  0  0  0  0  0  0  0  0  0  0  0
   43.8950   36.2870   42.9630 H   0  0  0  0  0  0  0  0  0  0  0  0
   46.9550   36.2820   43.1380 H   0  0  0  0  0  0  0  0  0  0  0  0
   45.8440   35.9650   41.7700 H   0  0  0  0  0  0  0  0  0  0  0  0
   44.9750   33.9620   42.9630 H   0  0  0  0  0  0  0  0  0  0  0  0
   46.7120   33.8270   42.3610 H   0  0  0  0  0  0  0  0  0  0  0  0
   46.7620   32.3810   46.2280 C   0  0  0  0  0  0  0  0  0  0  0  0
   46.7540   32.7520   44.8840 C   0  0  0  0  0  0  0  0  0  0  0  0
   47.1000   31.7610   43.9280 C   0  0  0  0  0  0  0  0  0  0  0  0
   47.4160   30.5220   44.3610 N   0  0  0  0  0  0  0  0  0  0  0  0
   47.4150   30.1960   45.6760 C   0  0  0  0  0  0  0  0  0  0  0  0
   47.0890   31.1210   46.5890 N   0  0  0  0  0  0  0  0  0  0  0  0
   46.5110   33.0720   47.0210 H   0  0  0  0  0  0  0  0  0  0  0  0
   47.1210   31.9550   42.8690 H   0  0  0  0  0  0  0  0  0  0  0  0
   47.6730   29.1940   45.9920 H   0  0  0  0  0  0  0  0  0  0  0  0
   45.0790   37.7920   43.8590 C   0  0  0  0  0  0  0  0  0  0  0  0
   45.4300   38.9020   43.1150 C   0  0  0  0  0  3  0  0  0  0  0  0
   45.5270   39.9480   43.9830 N   0  0  0  0  0  0  0  0  0  0  0  0
   45.2490   39.5210   45.2270 C   0  0  0  0  0  3  0  0  0  0  0  0
   44.9760   38.2010   45.1470 N   0  0  0  0  0  0  0  0  0  0  0  0
   44.7320   37.6990   46.0470 H   0  0  0  0  0  0  0  0  0  0  0  0
  1  7  1  1  0  0  0
  1 16  1  0  0  0  0
  1  2  1  0  0  0  0
  2  8  1  0  0  0  0
  3  2  2  0  0  0  0
  3  9  1  0  0  0  0
  4 10  1  6  0  0  0
  4 24  1  0  0  0  0
  4  3  1  0  0  0  0
  5  6  1  0  0  0  0
  5 11  1  0  0  0  0
  5  4  1  0  0  0  0
  6  1  1  0  0  0  0
 12  5  1  0  0  0  0
 13  6  1  0  0  0  0
 14  6  1  0  0  0  0
 15 20  1  0  0  0  0
 15 21  1  0  0  0  0
 16 15  2  0  0  0  0
 17 18  2  0  0  0  0
 17 16  1  0  0  0  0
 18 19  1  0  0  0  0
 19 23  1  0  0  0  0
 19 20  2  0  0  0  0
 22 17  1  0  0  0  0
 24 28  1  0  0  0  0
 25 24  2  0  0  0  0
 25 26  1  0  0  0  0
 26 27  2  0  0  0  0
 28 27  1  0  0  0  0
 28 29  1  0  0  0  0
M  END
>  <minimizedAffinity>
-3.91426826

>  <minimizedRMSD>
1.85019219

$$$$
