
 OpenBabel03232520503D

 29 31  0  0  1  0  0  0  0  0999 V2000
   46.3240   34.1180   44.5690 C   0  0  2  0  0  0  0  0  0  0  0  0
   45.2010   34.6450   45.4340 C   0  0  0  0  0  0  0  0  0  0  0  0
   44.4500   35.7710   44.9130 C   0  0  0  0  0  0  0  0  0  0  0  0
   44.7840   36.3540   43.6080 C   0  0  2  0  0  0  0  0  0  0  0  0
   45.9890   35.8120   42.9220 C   0  0  0  0  0  0  0  0  0  0  0  0
   45.9940   34.3010   43.1220 C   0  0  0  0  0  0  0  0  0  0  0  0
   47.2170   34.7680   44.8100 H   0  0  0  0  0  0  0  0  0  0  0  0
   44.8370   34.3390   46.3910 H   0  0  0  0  0  0  0  0  0  0  0  0
   43.6520   36.1820   45.4770 H   0  0  0  0  0  0  0  0  0  0  0  0
   43.8890   36.3150   42.9590 H   0  0  0  0  0  0  0  0  0  0  0  0
   46.9430   36.2550   43.2050 H   0  0  0  0  0  0  0  0  0  0  0  0
   45.8580   35.9480   41.8140 H   0  0  0  0  0  0  0  0  0  0  0  0
   44.9250   33.9710   43.0020 H   0  0  0  0  0  0  0  0  0  0  0  0
   46.6730   33.7990   42.4410 H   0  0  0  0  0  0  0  0  0  0  0  0
   46.1480   32.2360   46.1760 C   0  0  0  0  0  0  0  0  0  0  0  0
   46.6370   32.7430   44.9730 C   0  0  0  0  0  0  0  0  0  0  0  0
   47.4420   31.8850   44.1790 C   0  0  0  0  0  0  0  0  0  0  0  0
   47.6940   30.6350   44.6220 N   0  0  0  0  0  0  0  0  0  0  0  0
   47.2030   30.1760   45.7980 C   0  0  0  0  0  0  0  0  0  0  0  0
   46.4400   30.9740   46.5570 N   0  0  0  0  0  0  0  0  0  0  0  0
   45.5270   32.8210   46.8410 H   0  0  0  0  0  0  0  0  0  0  0  0
   47.8630   32.1890   43.2360 H   0  0  0  0  0  0  0  0  0  0  0  0
   47.4220   29.1680   46.1260 H   0  0  0  0  0  0  0  0  0  0  0  0
   45.0790   37.8050   43.8710 C   0  0  0  0  0  0  0  0  0  0  0  0
   45.4510   38.9050   43.1250 C   0  0  0  0  0  0  0  0  0  0  0  0
   45.5590   39.9540   43.9890 N   0  0  0  0  0  0  0  0  0  0  0  0
   45.2670   39.5370   45.2330 C   0  0  0  0  0  0  0  0  0  0  0  0
   44.9740   38.2200   45.1560 N   0  0  0  0  0  0  0  0  0  0  0  0
   44.7190   37.7260   46.0570 H   0  0  0  0  0  0  0  0  0  0  0  0
  1  7  1  1  0  0  0
  1 16  1  0  0  0  0
  1  2  1  0  0  0  0
  2  8  1  0  0  0  0
  3  2  2  0  0  0  0
  3  9  1  0  0  0  0
  4 10  1  6  0  0  0
  4 24  1  0  0  0  0
  4  3  1  0  0  0  0
  5  6  1  0  0  0  0
  5 11  1  0  0  0  0
  5  4  1  0  0  0  0
  6  1  1  0  0  0  0
 12  5  1  0  0  0  0
 13  6  1  0  0  0  0
 14  6  1  0  0  0  0
 15 20  1  0  0  0  0
 15 21  1  0  0  0  0
 16 15  2  0  0  0  0
 17 18  2  0  0  0  0
 17 16  1  0  0  0  0
 18 19  1  0  0  0  0
 19 23  1  0  0  0  0
 19 20  2  0  0  0  0
 22 17  1  0  0  0  0
 24 28  1  0  0  0  0
 25 24  2  0  0  0  0
 25 26  1  0  0  0  0
 26 27  2  0  0  0  0
 28 27  1  0  0  0  0
 28 29  1  0  0  0  0
M  END
>  <minimizedAffinity>
-3.92119551

>  <minimizedRMSD>
1.74410939

$$$$
