
 OpenBabel03232518593D

 46 49  0  0  1  0  0  0  0  0999 V2000
   46.8100   33.3340   45.0850 C   0  0  0  0  0  0  0  0  0  0  0  0
   47.1520   33.8360   46.0160 H   0  0  0  0  0  0  0  0  0  0  0  0
   47.7060   33.3480   44.4290 H   0  0  0  0  0  0  0  0  0  0  0  0
   45.7990   34.1530   44.3600 C   0  0  0  0  0  0  0  0  0  0  0  0
   44.9930   35.0000   45.0690 C   0  0  0  0  0  0  0  0  0  0  0  0
   44.1590   35.6390   44.1910 C   0  0  0  0  0  0  0  0  0  0  0  0
   44.5230   35.1240   42.9700 N   0  0  0  0  0  0  0  0  0  0  0  0
   45.4940   34.2430   43.0590 N   0  0  0  0  0  0  0  0  0  0  0  0
   44.8890   35.2520   46.1360 H   0  0  0  0  0  0  0  0  0  0  0  0
   43.3710   36.3770   44.2780 H   0  0  0  0  0  0  0  0  0  0  0  0
   44.4280   34.6910   40.6090 N   0  0  0  0  0  0  0  0  0  0  0  0
   43.2940   34.2330   39.8360 C   0  0  0  0  0  0  0  0  0  0  0  0
   42.2380   34.0160   40.9310 C   0  0  0  0  0  0  0  0  0  0  0  0
   42.4180   35.2870   41.7330 C   0  0  0  0  0  0  0  0  0  0  0  0
   43.9190   35.4900   41.6840 C   0  0  1  0  0  0  0  0  0  0  0  0
   45.1650   35.1450   40.0370 H   0  0  0  0  0  0  0  0  0  0  0  0
   42.9260   34.9360   39.0930 H   0  0  0  0  0  0  0  0  0  0  0  0
   43.5040   33.2090   39.4360 H   0  0  0  0  0  0  0  0  0  0  0  0
   41.2280   33.9190   40.5110 H   0  0  0  0  0  0  0  0  0  0  0  0
   42.5400   33.1850   41.5870 H   0  0  0  0  0  0  0  0  0  0  0  0
   41.9610   36.1480   41.2010 H   0  0  0  0  0  0  0  0  0  0  0  0
   42.0310   35.2010   42.7660 H   0  0  0  0  0  0  0  0  0  0  0  0
   44.1740   36.5420   41.4720 H   0  0  0  0  0  0  0  0  0  0  0  0
   46.2760   31.9810   45.2700 C   0  0  2  0  0  0  0  0  0  0  0  0
   45.3020   31.8030   44.7160 H   0  0  0  0  0  0  0  0  0  0  0  0
   45.8170   32.2550   48.9330 C   0  0  0  0  0  0  0  0  0  0  0  0
   45.2940   30.9570   49.2470 C   0  0  0  0  0  0  0  0  0  0  0  0
   45.1190   30.0150   48.1820 C   0  0  0  0  0  0  0  0  0  0  0  0
   45.4590   30.4040   46.9150 N   0  0  0  0  0  0  0  0  0  0  0  0
   45.9440   31.6300   46.6750 C   0  0  0  0  0  0  0  0  0  0  0  0
   46.1220   32.5490   47.6720 N   0  0  0  0  0  0  0  0  0  0  0  0
   45.9270   32.9160   49.7720 H   0  0  0  0  0  0  0  0  0  0  0  0
   45.0150   30.6090   50.2160 H   0  0  0  0  0  0  0  0  0  0  0  0
   44.7290   29.0360   48.3870 H   0  0  0  0  0  0  0  0  0  0  0  0
   47.1700   30.8810   44.6980 C   0  0  0  0  0  0  0  0  0  0  0  0
   46.6460   29.9100   44.8140 H   0  0  0  0  0  0  0  0  0  0  0  0
   48.0280   30.8220   45.4190 H   0  0  0  0  0  0  0  0  0  0  0  0
   47.6100   31.1310   43.3220 C   0  0  0  0  0  0  0  0  0  0  0  0
   48.8500   31.5200   42.8730 C   0  0  0  0  0  0  0  0  0  0  0  0
   49.6130   31.6460   43.5960 H   0  0  0  0  0  0  0  0  0  0  0  0
   49.1230   31.7360   41.5390 C   0  0  0  0  0  0  0  0  0  0  0  0
   48.0720   31.5380   40.6440 C   0  0  0  0  0  0  0  0  0  0  0  0
   48.2660   31.7020   39.5890 H   0  0  0  0  0  0  0  0  0  0  0  0
   46.8050   31.1470   41.0360 C   0  0  0  0  0  0  0  0  0  0  0  0
   46.0260   31.0080   40.2980 H   0  0  0  0  0  0  0  0  0  0  0  0
   46.5790   30.9420   42.4010 C   0  0  0  0  0  0  0  0  0  0  0  0
  1 24  1  0  0  0  0
  1  2  1  0  0  0  0
  3  1  1  0  0  0  0
  4  5  1  0  0  0  0
  4  1  1  0  0  0  0
  5  9  1  0  0  0  0
  6 10  1  0  0  0  0
  6  5  2  0  0  0  0
  7  8  1  0  0  0  0
  7  6  1  0  0  0  0
  8  4  2  0  0  0  0
 11 15  1  0  0  0  0
 12 11  1  0  0  0  0
 12 13  1  0  0  0  0
 13 20  1  0  0  0  0
 13 14  1  0  0  0  0
 14 22  1  0  0  0  0
 15 23  1  6  0  0  0
 15 14  1  0  0  0  0
 15  7  1  0  0  0  0
 16 11  1  0  0  0  0
 17 12  1  0  0  0  0
 18 12  1  0  0  0  0
 19 13  1  0  0  0  0
 21 14  1  0  0  0  0
 24 25  1  6  0  0  0
 24 30  1  0  0  0  0
 26 27  1  0  0  0  0
 26 32  1  0  0  0  0
 27 33  1  0  0  0  0
 28 34  1  0  0  0  0
 28 27  2  0  0  0  0
 29 28  1  0  0  0  0
 30 29  2  0  0  0  0
 30 31  1  0  0  0  0
 31 26  2  0  0  0  0
 35 36  1  0  0  0  0
 35 24  1  0  0  0  0
 35 37  1  0  0  0  0
 38 35  1  0  0  0  0
 39 38  1  0  0  0  0
 39 40  1  0  0  0  0
 41 39  2  0  0  0  0
 42 44  2  0  0  0  0
 42 41  1  0  0  0  0
 43 42  1  0  0  0  0
 44 46  1  0  0  0  0
 45 44  1  0  0  0  0
 46 38  2  0  0  0  0
M  END
>  <minimizedAffinity>
-5.30007982

>  <minimizedRMSD>
0.776190877

$$$$
