
 OpenBabel03232520533D

 32 34  0  0  1  0  0  0  0  0999 V2000
   43.9690   34.4950   41.5520 C   0  0  2  0  0  0  0  0  0  0  0  0
   42.8190   35.3720   41.9830 C   0  0  0  0  0  0  0  0  0  0  0  0
   41.7980   35.6470   41.0050 C   0  0  0  0  0  0  0  0  0  0  0  0
   41.8800   35.0960   39.6580 C   0  0  1  0  0  0  0  0  0  0  0  0
   43.1020   34.3300   39.3170 C   0  0  0  0  0  0  0  0  0  0  0  0
   43.5490   33.5280   40.5020 C   0  0  0  0  0  0  0  0  0  0  0  0
   44.7070   35.2140   41.0850 H   0  0  0  0  0  0  0  0  0  0  0  0
   42.5310   35.8850   42.8910 H   0  0  0  0  0  0  0  0  0  0  0  0
   40.9510   36.2510   41.2110 H   0  0  0  0  0  0  0  0  0  0  0  0
   41.7930   35.9270   38.9260 H   0  0  0  0  0  0  0  0  0  0  0  0
   43.9000   35.0120   39.0050 H   0  0  0  0  0  0  0  0  0  0  0  0
   42.8730   33.6750   38.4490 H   0  0  0  0  0  0  0  0  0  0  0  0
   44.4600   32.9770   40.1790 H   0  0  0  0  0  0  0  0  0  0  0  0
   42.7570   32.8780   40.8980 H   0  0  0  0  0  0  0  0  0  0  0  0
   44.9640   34.7560   43.7740 C   0  0  0  0  0  0  0  0  0  0  0  0
   44.6260   33.9300   42.7180 C   0  0  0  0  0  0  0  0  0  0  0  0
   44.9560   32.5800   42.8440 C   0  0  0  0  0  0  0  0  0  0  0  0
   45.5750   32.1250   43.9480 N   0  0  0  0  0  0  0  0  0  0  0  0
   45.8990   32.9610   44.9780 C   0  0  0  0  0  0  0  0  0  0  0  0
   45.5880   34.2790   44.8790 N   0  0  0  0  0  0  0  0  0  0  0  0
   44.7850   35.8190   43.8410 H   0  0  0  0  0  0  0  0  0  0  0  0
   44.7120   31.8940   42.0460 H   0  0  0  0  0  0  0  0  0  0  0  0
   46.5700   32.4760   46.1800 C   0  0  0  0  0  0  0  0  0  0  0  0
   46.8270   31.1420   46.4250 C   0  0  0  0  0  3  0  0  0  0  0  0
   47.4540   31.0990   47.6240 N   0  0  0  0  0  0  0  0  0  0  0  0
   47.5740   32.3570   48.0900 C   0  0  0  0  0  3  0  0  0  0  0  0
   47.0260   33.2310   47.1990 N   0  0  0  0  0  0  0  0  0  0  0  0
   46.9500   34.2700   47.2460 H   0  0  0  0  0  0  0  0  0  0  0  0
   40.6320   34.2280   39.4280 C   0  0  0  0  0  0  0  0  0  0  0  0
   40.1880   33.6180   40.5710 F   0  0  0  0  0  0  0  0  0  0  0  0
   39.6120   35.0900   39.0140 F   0  0  0  0  0  0  0  0  0  0  0  0
   40.8600   33.3350   38.3960 F   0  0  0  0  0  0  0  0  0  0  0  0
  1  7  1  6  0  0  0
  1  2  1  0  0  0  0
  1 16  1  0  0  0  0
  2  8  1  0  0  0  0
  3  9  1  0  0  0  0
  3  2  2  0  0  0  0
  4 10  1  6  0  0  0
  4  3  1  0  0  0  0
  5  4  1  0  0  0  0
  5  6  1  0  0  0  0
  6 14  1  0  0  0  0
  6  1  1  0  0  0  0
 11  5  1  0  0  0  0
 12  5  1  0  0  0  0
 13  6  1  0  0  0  0
 15 21  1  0  0  0  0
 15 20  1  0  0  0  0
 16 17  1  0  0  0  0
 16 15  2  0  0  0  0
 17 18  2  0  0  0  0
 18 19  1  0  0  0  0
 19 23  1  0  0  0  0
 20 19  2  0  0  0  0
 22 17  1  0  0  0  0
 23 24  2  0  0  0  0
 23 27  1  0  0  0  0
 24 25  1  0  0  0  0
 25 26  2  0  0  0  0
 27 28  1  0  0  0  0
 27 26  1  0  0  0  0
 29  4  1  0  0  0  0
 29 30  1  0  0  0  0
 31 29  1  0  0  0  0
 32 29  1  0  0  0  0
M  END
>  <minimizedAffinity>
-5.62375832

>  <minimizedRMSD>
4.59436798

$$$$
