
 OpenBabel03232520533D

 32 34  0  0  1  0  0  0  0  0999 V2000
   46.3660   32.3900   45.4610 C   0  0  2  0  0  0  0  0  0  0  0  0
   45.4400   33.5000   45.8960 C   0  0  0  0  0  0  0  0  0  0  0  0
   45.3950   34.6810   45.0710 C   0  0  0  0  0  0  0  0  0  0  0  0
   46.2120   34.7890   43.8690 C   0  0  1  0  0  0  0  0  0  0  0  0
   47.1550   33.6800   43.5930 C   0  0  0  0  0  0  0  0  0  0  0  0
   46.5330   32.3730   43.9820 C   0  0  0  0  0  0  0  0  0  0  0  0
   47.3630   32.6630   45.9180 H   0  0  0  0  0  0  0  0  0  0  0  0
   44.7510   33.6620   46.7140 H   0  0  0  0  0  0  0  0  0  0  0  0
   44.7770   35.5140   45.2920 H   0  0  0  0  0  0  0  0  0  0  0  0
   46.8070   35.7250   43.9240 H   0  0  0  0  0  0  0  0  0  0  0  0
   48.0870   33.8300   44.1480 H   0  0  0  0  0  0  0  0  0  0  0  0
   47.4110   33.7000   42.5120 H   0  0  0  0  0  0  0  0  0  0  0  0
   47.2850   31.5870   43.7460 H   0  0  0  0  0  0  0  0  0  0  0  0
   45.5570   32.2080   43.5050 H   0  0  0  0  0  0  0  0  0  0  0  0
   45.5540   31.1290   47.3960 C   0  0  0  0  0  0  0  0  0  0  0  0
   45.9590   31.1380   46.0750 C   0  0  0  0  0  0  0  0  0  0  0  0
   45.9620   29.9110   45.4090 C   0  0  0  0  0  0  0  0  0  0  0  0
   45.5840   28.7860   46.0420 N   0  0  0  0  0  0  0  0  0  0  0  0
   45.1870   28.8030   47.3490 C   0  0  0  0  0  0  0  0  0  0  0  0
   45.1760   29.9850   48.0170 N   0  0  0  0  0  0  0  0  0  0  0  0
   45.4930   31.9830   48.0550 H   0  0  0  0  0  0  0  0  0  0  0  0
   46.2700   29.8650   44.3750 H   0  0  0  0  0  0  0  0  0  0  0  0
   44.7750   27.5880   48.0440 C   0  0  0  0  0  0  0  0  0  0  0  0
   44.5310   26.3890   47.4040 C   0  0  0  0  0  3  0  0  0  0  0  0
   44.1770   25.5160   48.3760 N   0  0  0  0  0  0  0  0  0  0  0  0
   44.2060   26.1580   49.5600 C   0  0  0  0  0  3  0  0  0  0  0  0
   44.5780   27.4540   49.3690 N   0  0  0  0  0  0  0  0  0  0  0  0
   44.7000   28.2210   50.0670 H   0  0  0  0  0  0  0  0  0  0  0  0
   45.2650   34.9870   42.6730 C   0  0  0  0  0  0  0  0  0  0  0  0
   44.1150   34.2520   42.7770 F   0  0  0  0  0  0  0  0  0  0  0  0
   44.8820   36.3310   42.6820 F   0  0  0  0  0  0  0  0  0  0  0  0
   45.9440   34.7590   41.4900 F   0  0  0  0  0  0  0  0  0  0  0  0
  1  2  1  0  0  0  0
  1  7  1  1  0  0  0
  1 16  1  0  0  0  0
  2  8  1  0  0  0  0
  3  9  1  0  0  0  0
  3  2  2  0  0  0  0
  4 10  1  1  0  0  0
  4  3  1  0  0  0  0
  5  4  1  0  0  0  0
  5  6  1  0  0  0  0
  5 11  1  0  0  0  0
  6  1  1  0  0  0  0
 12  5  1  0  0  0  0
 13  6  1  0  0  0  0
 14  6  1  0  0  0  0
 15 20  1  0  0  0  0
 15 21  1  0  0  0  0
 16 15  2  0  0  0  0
 17 18  2  0  0  0  0
 17 16  1  0  0  0  0
 18 19  1  0  0  0  0
 19 20  2  0  0  0  0
 19 23  1  0  0  0  0
 22 17  1  0  0  0  0
 23 27  1  0  0  0  0
 24 23  2  0  0  0  0
 24 25  1  0  0  0  0
 25 26  2  0  0  0  0
 27 26  1  0  0  0  0
 27 28  1  0  0  0  0
 29 31  1  0  0  0  0
 29 30  1  0  0  0  0
 29  4  1  0  0  0  0
 32 29  1  0  0  0  0
M  END
>  <minimizedAffinity>
-4.88960886

>  <minimizedRMSD>
1.86104

$$$$
