
 OpenBabel03232516363D

 38 40  0  0  1  0  0  0  0  0999 V2000
   45.6760   33.7210   42.9270 C   0  0  1  0  0  0  0  0  0  0  0  0
   45.5180   35.1550   43.2690 C   0  0  0  0  0  0  0  0  0  0  0  0
   44.6430   35.9230   42.4190 C   0  0  0  0  0  0  0  0  0  0  0  0
   43.9550   35.3380   41.2950 C   0  0  0  0  0  0  0  0  0  0  0  0
   44.1150   33.8990   41.0850 C   0  0  0  0  0  0  0  0  0  0  0  0
   44.3790   33.1800   42.3780 C   0  0  0  0  0  0  0  0  0  0  0  0
   45.8860   35.8600   44.0050 H   0  0  0  0  0  0  0  0  0  0  0  0
   44.4670   36.9540   42.5840 H   0  0  0  0  0  0  0  0  0  0  0  0
   42.8660   35.6320   41.3600 H   0  0  0  0  0  0  0  0  0  0  0  0
   44.3090   35.8710   40.3730 H   0  0  0  0  0  0  0  0  0  0  0  0
   44.8410   33.6000   40.3060 H   0  0  0  0  0  0  0  0  0  0  0  0
   43.1330   33.4890   40.7050 H   0  0  0  0  0  0  0  0  0  0  0  0
   43.6080   33.4950   43.1040 H   0  0  0  0  0  0  0  0  0  0  0  0
   44.4920   32.0910   42.2600 H   0  0  0  0  0  0  0  0  0  0  0  0
   46.8030   33.6820   41.8940 C   0  0  0  0  0  0  0  0  0  0  0  0
   46.9000   33.5880   40.6300 O   0  0  0  0  0  0  0  0  0  0  0  0
   48.1350   33.7810   42.4880 N   0  0  0  0  0  0  0  0  0  0  0  0
   48.9500   34.8960   42.3560 C   0  0  0  0  0  0  0  0  0  0  0  0
   48.7510   35.9960   41.8550 N   0  0  0  0  0  0  0  0  0  0  0  0
   50.3050   35.0000   42.8490 N   0  0  0  0  0  0  0  0  0  0  0  0
   47.9910   36.4670   41.4310 H   0  0  0  0  0  0  0  0  0  0  0  0
   48.4920   33.0050   43.0700 H   0  0  0  0  0  0  0  0  0  0  0  0
   50.4640   35.4190   43.7980 H   0  0  0  0  0  0  0  0  0  0  0  0
   51.0320   34.6310   42.1840 H   0  0  0  0  0  0  0  0  0  0  0  0
   46.1690   33.6590   45.3110 C   0  0  0  0  0  0  0  0  0  0  0  0
   46.1870   32.9930   44.1020 C   0  0  0  0  0  0  0  0  0  0  0  0
   46.7430   31.6600   44.0380 C   0  0  0  0  0  0  0  0  0  0  0  0
   47.2270   31.1200   45.1670 N   0  0  0  0  0  0  0  0  0  0  0  0
   47.1950   31.8040   46.3290 C   0  0  0  0  0  0  0  0  0  0  0  0
   46.6780   33.0380   46.3980 N   0  0  0  0  0  0  0  0  0  0  0  0
   45.8050   34.6270   45.5800 H   0  0  0  0  0  0  0  0  0  0  0  0
   46.7130   31.2150   43.0530 H   0  0  0  0  0  0  0  0  0  0  0  0
   47.7510   31.1390   47.5300 C   0  0  0  0  0  0  0  0  0  0  0  0
   47.5190   31.5080   48.8390 C   0  0  0  0  0  0  0  0  0  0  0  0
   48.2210   30.6290   49.5770 N   0  0  0  0  0  0  0  0  0  0  0  0
   48.8600   29.7550   48.7450 C   0  0  0  0  0  0  0  0  0  0  0  0
   48.5690   30.0710   47.4700 N   0  0  0  0  0  0  0  0  0  0  0  0
   48.9530   29.5290   46.6670 H   0  0  0  0  0  0  0  0  0  0  0  0
  1 15  1  6  0  0  0
  1  2  1  0  0  0  0
  1 26  1  0  0  0  0
  2  7  1  0  0  0  0
  3  8  1  0  0  0  0
  3  2  2  0  0  0  0
  4  9  1  0  0  0  0
  4  3  1  0  0  0  0
  5  4  1  0  0  0  0
  5  6  1  0  0  0  0
  6  1  1  0  0  0  0
  6 13  1  0  0  0  0
 10  4  1  0  0  0  0
 11  5  1  0  0  0  0
 12  5  1  0  0  0  0
 14  6  1  0  0  0  0
 15 17  1  0  0  0  0
 16 15  2  0  0  0  0
 17 22  1  0  0  0  0
 18 17  1  0  0  0  0
 18 20  1  0  0  0  0
 19 18  2  0  0  0  0
 20 23  1  0  0  0  0
 21 19  1  0  0  0  0
 24 20  1  0  0  0  0
 25 31  1  0  0  0  0
 25 30  1  0  0  0  0
 26 25  2  0  0  0  0
 27 26  1  0  0  0  0
 27 28  2  0  0  0  0
 28 29  1  0  0  0  0
 29 30  2  0  0  0  0
 29 33  1  0  0  0  0
 32 27  1  0  0  0  0
 33 34  2  0  0  0  0
 34 35  1  0  0  0  0
 36 35  2  0  0  0  0
 37 33  1  0  0  0  0
 37 36  1  0  0  0  0
 38 37  1  0  0  0  0
M  END
>  <minimizedAffinity>
-5.85201311

>  <minimizedRMSD>
1.49812484

$$$$
