
 OpenBabel03232520573D

 34 36  0  0  1  0  0  0  0  0999 V2000
   46.1100   33.6020   45.3270 C   0  0  2  0  0  0  0  0  0  0  0  0
   44.9720   34.6810   45.5140 C   0  0  0  0  0  0  0  0  0  0  0  0
   44.7470   35.5930   44.4230 C   0  0  0  0  0  0  0  0  0  0  0  0
   45.5350   35.5000   43.2030 C   0  0  1  0  0  0  0  0  0  0  0  0
   46.6240   34.5190   43.1980 C   0  0  0  0  0  0  0  0  0  0  0  0
   46.1780   33.2750   43.9390 C   0  0  0  0  0  0  0  0  0  0  0  0
   46.9450   34.2960   45.6710 H   0  0  0  0  0  0  0  0  0  0  0  0
   44.2680   34.9290   46.3020 H   0  0  0  0  0  0  0  0  0  0  0  0
   44.0080   36.3470   44.4600 H   0  0  0  0  0  0  0  0  0  0  0  0
   45.9500   36.5180   42.9830 H   0  0  0  0  0  0  0  0  0  0  0  0
   47.4860   34.9260   43.7960 H   0  0  0  0  0  0  0  0  0  0  0  0
   46.9750   34.2800   42.1970 H   0  0  0  0  0  0  0  0  0  0  0  0
   46.7720   32.4970   43.5090 H   0  0  0  0  0  0  0  0  0  0  0  0
   45.1250   33.0980   43.5470 H   0  0  0  0  0  0  0  0  0  0  0  0
   45.3170   32.8810   47.5390 C   0  0  0  0  0  0  0  0  0  0  0  0
   45.8890   32.6100   46.3340 C   0  0  0  0  0  0  0  0  0  0  0  0
   46.2230   31.2660   46.0930 C   0  0  0  0  0  0  0  0  0  0  0  0
   45.9910   30.3140   47.0000 N   0  0  0  0  0  0  0  0  0  0  0  0
   45.4110   30.6150   48.2120 C   0  0  0  0  0  0  0  0  0  0  0  0
   45.0850   31.8830   48.4630 N   0  0  0  0  0  0  0  0  0  0  0  0
   45.1820   29.5880   49.1710 N   0  0  0  0  0  0  0  0  0  0  0  0
   45.0400   33.8850   47.7850 H   0  0  0  0  0  0  0  0  0  0  0  0
   45.0010   29.8730   50.1540 H   0  0  0  0  0  0  0  0  0  0  0  0
   45.1980   28.5890   48.8820 H   0  0  0  0  0  0  0  0  0  0  0  0
   46.8370   30.5880   44.9560 C   0  0  0  0  0  0  0  0  0  0  0  0
   48.1840   30.5390   44.8620 N   0  0  0  0  0  0  0  0  0  0  0  0
   48.4960   29.8750   43.7980 O   0  0  0  0  0  0  0  0  0  0  0  0
   47.3930   29.4910   43.1990 C   0  0  0  0  0  0  0  0  0  0  0  0
   47.5750   28.9210   42.2850 H   0  0  0  0  0  0  0  0  0  0  0  0
   46.2950   29.9160   43.8900 N   0  0  0  0  0  0  0  0  0  0  0  0
   44.5510   35.2090   42.0420 C   0  0  0  0  0  0  0  0  0  0  0  0
   43.5340   34.3540   42.4040 F   0  0  0  0  0  0  0  0  0  0  0  0
   43.9530   36.4240   41.7170 F   0  0  0  0  0  0  0  0  0  0  0  0
   45.2640   34.7910   40.9230 F   0  0  0  0  0  0  0  0  0  0  0  0
  1  2  1  0  0  0  0
  1  7  1  1  0  0  0
  1 16  1  0  0  0  0
  2  8  1  0  0  0  0
  3  9  1  0  0  0  0
  3  2  2  0  0  0  0
  4 10  1  6  0  0  0
  4  3  1  0  0  0  0
  5  4  1  0  0  0  0
  5 11  1  0  0  0  0
  5  6  1  0  0  0  0
  6  1  1  0  0  0  0
 12  5  1  0  0  0  0
 13  6  1  0  0  0  0
 14  6  1  0  0  0  0
 15 22  1  0  0  0  0
 15 20  1  0  0  0  0
 16 15  2  0  0  0  0
 17 16  1  0  0  0  0
 17 18  2  0  0  0  0
 18 19  1  0  0  0  0
 19 20  2  0  0  0  0
 19 21  1  0  0  0  0
 21 23  1  0  0  0  0
 24 21  1  0  0  0  0
 25 17  1  0  0  0  0
 26 25  2  0  0  0  0
 27 26  1  0  0  0  0
 28 27  1  0  0  0  0
 28 30  2  0  0  0  0
 29 28  1  0  0  0  0
 30 25  1  0  0  0  0
 31 32  1  0  0  0  0
 31  4  1  0  0  0  0
 33 31  1  0  0  0  0
 34 31  1  0  0  0  0
M  END
>  <minimizedAffinity>
-5.60632181

>  <minimizedRMSD>
0.0658204779

$$$$
