
 OpenBabel03232519183D

 43 46  0  0  1  0  0  0  0  0999 V2000
   44.1060   34.4740   42.2290 C   0  0  0  0  0  0  0  0  0  0  0  0
   43.3860   34.4790   43.1080 H   0  0  0  0  0  0  0  0  0  0  0  0
   44.0950   35.5100   41.8900 H   0  0  0  0  0  0  0  0  0  0  0  0
   43.5370   33.4870   41.2800 C   0  0  1  0  0  0  0  0  0  0  0  0
   43.8180   32.4620   41.5970 H   0  0  0  0  0  0  0  0  0  0  0  0
   42.0740   33.5660   41.1930 C   0  0  0  0  0  0  0  0  0  0  0  0
   41.4710   34.8390   40.9030 C   0  0  0  0  0  0  0  0  0  0  0  0
   40.0760   34.9490   40.8100 C   0  0  0  0  0  0  0  0  0  0  0  0
   39.3610   33.8180   41.0040 N   0  0  0  0  0  0  0  0  0  0  0  0
   39.9350   32.6540   41.2700 C   0  0  0  0  0  0  0  0  0  0  0  0
   41.2870   32.4990   41.3700 N   0  0  0  0  0  0  0  0  0  0  0  0
   42.1240   35.6920   40.7630 H   0  0  0  0  0  0  0  0  0  0  0  0
   39.6320   35.8980   40.5950 H   0  0  0  0  0  0  0  0  0  0  0  0
   39.1210   31.4390   41.4740 C   0  0  0  0  0  0  0  0  0  0  0  0
   39.7570   30.3210   42.0630 C   0  0  0  0  0  0  0  0  0  0  0  0
   38.3250   29.1030   42.0890 S   0  0  0  0  0  0  0  0  0  0  0  0
   37.1730   30.3620   41.3000 C   0  0  0  0  0  0  0  0  0  0  0  0
   37.8690   31.2170   41.1920 N   0  0  0  0  0  0  0  0  0  0  0  0
   40.6850   30.0640   42.4260 H   0  0  0  0  0  0  0  0  0  0  0  0
   36.0140   30.4870   40.9190 H   0  0  0  0  0  0  0  0  0  0  0  0
   44.1430   33.6770   39.9080 C   0  0  0  0  0  0  0  0  0  0  0  0
   44.3440   34.7630   39.7650 H   0  0  0  0  0  0  0  0  0  0  0  0
   43.3990   33.2890   39.1810 H   0  0  0  0  0  0  0  0  0  0  0  0
   45.0670   33.0980   39.8280 H   0  0  0  0  0  0  0  0  0  0  0  0
   45.3630   34.1540   42.7860 N   0  0  0  0  0  0  0  0  0  0  0  0
   45.8610   33.1220   43.6350 C   0  0  0  0  0  0  0  0  0  0  0  0
   46.5590   32.0760   43.0870 C   0  0  0  0  0  0  0  0  0  0  0  0
   47.0640   31.0470   43.8580 C   0  0  0  0  0  0  0  0  0  0  0  0
   46.8360   31.1230   45.1710 N   0  0  0  0  0  0  0  0  0  0  0  0
   46.1420   32.1620   45.7160 C   0  0  0  0  0  0  0  0  0  0  0  0
   45.6510   33.1610   44.9710 N   0  0  0  0  0  0  0  0  0  0  0  0
   46.7080   32.0730   42.0240 H   0  0  0  0  0  0  0  0  0  0  0  0
   47.6100   30.2420   43.3730 H   0  0  0  0  0  0  0  0  0  0  0  0
   46.0020   32.0570   47.1640 C   0  0  0  0  0  0  0  0  0  0  0  0
   45.3340   32.6160   48.1620 N   0  0  0  0  0  0  0  0  0  0  0  0
   45.6680   32.0480   49.2820 O   0  0  0  0  0  0  0  0  0  0  0  0
   46.5710   31.0930   49.0690 C   0  0  0  0  0  0  0  0  0  0  0  0
   47.0170   30.4650   49.8440 H   0  0  0  0  0  0  0  0  0  0  0  0
   46.7840   31.0980   47.7210 N   0  0  0  0  0  0  0  0  0  0  0  0
   46.4680   34.9790   42.5180 C   0  0  0  0  0  0  0  0  0  0  0  0
   47.4790   34.7680   43.4090 F   0  0  0  0  0  0  0  0  0  0  0  0
   45.9880   36.2960   42.7950 F   0  0  0  0  0  0  0  0  0  0  0  0
   46.9230   34.9470   41.2280 F   0  0  0  0  0  0  0  0  0  0  0  0
  1 25  1  0  0  0  0
  1  2  1  0  0  0  0
  3  1  1  0  0  0  0
  4  5  1  1  0  0  0
  4  1  1  0  0  0  0
  6  4  1  0  0  0  0
  6 11  1  0  0  0  0
  7  6  2  0  0  0  0
  8  7  1  0  0  0  0
  8  9  2  0  0  0  0
  9 10  1  0  0  0  0
 10 11  2  0  0  0  0
 10 14  1  0  0  0  0
 12  7  1  0  0  0  0
 13  8  1  0  0  0  0
 14 15  2  0  0  0  0
 15 16  1  0  0  0  0
 15 19  1  0  0  0  0
 17 16  1  0  0  0  0
 18 17  2  0  0  0  0
 18 14  1  0  0  0  0
 20 17  1  0  0  0  0
 21  4  1  0  0  0  0
 22 21  1  0  0  0  0
 23 21  1  0  0  0  0
 24 21  1  0  0  0  0
 25 26  1  0  0  0  0
 26 31  1  0  0  0  0
 27 26  2  0  0  0  0
 27 28  1  0  0  0  0
 28 29  2  0  0  0  0
 29 30  1  0  0  0  0
 30 34  1  0  0  0  0
 31 30  2  0  0  0  0
 32 27  1  0  0  0  0
 33 28  1  0  0  0  0
 34 39  1  0  0  0  0
 34 35  2  0  0  0  0
 35 36  1  0  0  0  0
 37 36  1  0  0  0  0
 37 38  1  0  0  0  0
 39 37  2  0  0  0  0
 40 25  1  0  0  0  0
 40 42  1  0  0  0  0
 40 41  1  0  0  0  0
 43 40  1  0  0  0  0
M  END
>  <minimizedAffinity>
-6.17126131

>  <minimizedRMSD>
1.12453794

$$$$
