
 OpenBabel03232520573D

 34 36  0  0  1  0  0  0  0  0999 V2000
   46.1100   33.6340   45.2970 C   0  0  2  0  0  0  0  0  0  0  0  0
   44.9740   34.7130   45.4980 C   0  0  0  0  0  0  0  0  0  0  0  0
   44.7370   35.6260   44.4110 C   0  0  0  0  0  0  0  0  0  0  0  0
   45.5110   35.5350   43.1820 C   0  0  1  0  0  0  0  0  0  0  0  0
   46.6010   34.5540   43.1640 C   0  0  0  0  0  0  0  0  0  0  0  0
   46.1620   33.3090   43.9070 C   0  0  0  0  0  0  0  0  0  0  0  0
   46.9480   34.3280   45.6330 H   0  0  0  0  0  0  0  0  0  0  0  0
   44.2780   34.9590   46.2940 H   0  0  0  0  0  0  0  0  0  0  0  0
   43.9980   36.3800   44.4570 H   0  0  0  0  0  0  0  0  0  0  0  0
   45.9240   36.5530   42.9590 H   0  0  0  0  0  0  0  0  0  0  0  0
   47.4690   34.9610   43.7530 H   0  0  0  0  0  0  0  0  0  0  0  0
   46.9410   34.3170   42.1590 H   0  0  0  0  0  0  0  0  0  0  0  0
   46.7510   32.5310   43.4700 H   0  0  0  0  0  0  0  0  0  0  0  0
   45.1060   33.1330   43.5270 H   0  0  0  0  0  0  0  0  0  0  0  0
   45.2790   32.8950   47.4890 C   0  0  0  0  0  0  0  0  0  0  0  0
   45.9000   32.6400   46.3050 C   0  0  0  0  0  0  0  0  0  0  0  0
   46.2980   31.3100   46.0860 C   0  0  0  0  0  0  0  0  0  0  0  0
   46.0780   30.3550   46.9920 N   0  0  0  0  0  0  0  0  0  0  0  0
   45.4490   30.6400   48.1840 C   0  0  0  0  0  0  0  0  0  0  0  0
   45.0610   31.8950   48.4140 N   0  0  0  0  0  0  0  0  0  0  0  0
   45.2330   29.6110   49.1440 N   0  0  0  0  0  0  0  0  0  0  0  0
   44.9520   33.8880   47.7190 H   0  0  0  0  0  0  0  0  0  0  0  0
   45.0100   29.8950   50.1180 H   0  0  0  0  0  0  0  0  0  0  0  0
   45.3010   28.6110   48.8640 H   0  0  0  0  0  0  0  0  0  0  0  0
   46.9750   30.6510   44.9740 C   0  0  0  0  0  0  0  0  0  0  0  0
   46.2630   29.8780   44.1260 N   0  0  0  0  0  0  0  0  0  0  0  0
   47.0610   29.4240   43.2180 O   0  0  0  0  0  0  0  0  0  0  0  0
   48.2710   29.8760   43.4490 C   0  0  0  0  0  0  0  0  0  0  0  0
   49.0070   29.5350   42.7190 H   0  0  0  0  0  0  0  0  0  0  0  0
   48.2840   30.6700   44.5610 N   0  0  0  0  0  0  0  0  0  0  0  0
   44.5150   35.2460   42.0320 C   0  0  0  0  0  0  0  0  0  0  0  0
   43.4850   34.4140   42.4120 F   0  0  0  0  0  0  0  0  0  0  0  0
   43.9370   36.4660   41.6930 F   0  0  0  0  0  0  0  0  0  0  0  0
   45.2130   34.7990   40.9150 F   0  0  0  0  0  0  0  0  0  0  0  0
  1  2  1  0  0  0  0
  1  7  1  1  0  0  0
  1 16  1  0  0  0  0
  2  8  1  0  0  0  0
  3  9  1  0  0  0  0
  3  2  2  0  0  0  0
  4 10  1  6  0  0  0
  4  3  1  0  0  0  0
  5  4  1  0  0  0  0
  5 11  1  0  0  0  0
  5  6  1  0  0  0  0
  6  1  1  0  0  0  0
 12  5  1  0  0  0  0
 13  6  1  0  0  0  0
 14  6  1  0  0  0  0
 15 22  1  0  0  0  0
 15 20  1  0  0  0  0
 16 15  2  0  0  0  0
 17 16  1  0  0  0  0
 17 18  2  0  0  0  0
 18 19  1  0  0  0  0
 19 20  2  0  0  0  0
 19 21  1  0  0  0  0
 21 23  1  0  0  0  0
 24 21  1  0  0  0  0
 25 17  1  0  0  0  0
 26 25  2  0  0  0  0
 27 28  1  0  0  0  0
 27 26  1  0  0  0  0
 28 30  2  0  0  0  0
 29 28  1  0  0  0  0
 30 25  1  0  0  0  0
 31 32  1  0  0  0  0
 31  4  1  0  0  0  0
 33 31  1  0  0  0  0
 34 31  1  0  0  0  0
M  END
>  <minimizedAffinity>
-5.56504822

>  <minimizedRMSD>
0.258715987

$$$$
