
 OpenBabel03232519443D

 44 47  0  0  0  0  0  0  0  0999 V2000
   46.5320   34.4400   41.9600 N   0  0  0  0  0  0  0  0  0  0  0  0
   47.6820   35.2010   41.8450 C   0  0  0  0  0  0  0  0  0  0  0  0
   48.4250   35.2050   40.6960 C   0  0  0  0  0  0  0  0  0  0  0  0
   47.9780   34.4080   39.6380 C   0  0  0  0  0  0  0  0  0  0  0  0
   48.6360   34.4000   38.5830 O   0  0  0  0  0  0  0  0  0  0  0  0
   46.8540   33.6880   39.8100 N   0  0  0  0  0  0  0  0  0  0  0  0
   46.1480   33.7080   40.9470 C   0  0  0  0  0  0  0  0  0  0  0  0
   45.1290   33.0900   41.1620 O   0  0  0  0  0  0  0  0  0  0  0  0
   48.0800   35.8370   42.6270 H   0  0  0  0  0  0  0  0  0  0  0  0
   49.3270   35.7900   40.5770 H   0  0  0  0  0  0  0  0  0  0  0  0
   46.3710   32.8620   38.7750 C   0  0  0  0  0  0  0  0  0  0  0  0
   45.4550   33.2640   37.8300 C   0  0  0  0  0  0  0  0  0  0  0  0
   45.0240   32.4080   36.8480 C   0  0  0  0  0  0  0  0  0  0  0  0
   45.5060   31.1180   36.7870 C   0  0  0  0  0  0  0  0  0  0  0  0
   46.4090   30.7400   37.7280 C   0  0  0  0  0  0  0  0  0  0  0  0
   46.8900   31.5650   38.7590 C   0  0  0  0  0  0  0  0  0  0  0  0
   45.1330   34.2850   37.9530 H   0  0  0  0  0  0  0  0  0  0  0  0
   44.3010   32.8570   36.1690 H   0  0  0  0  0  0  0  0  0  0  0  0
   45.1460   30.4890   36.0100 H   0  0  0  0  0  0  0  0  0  0  0  0
   46.7660   29.7020   37.6420 H   0  0  0  0  0  0  0  0  0  0  0  0
   47.8820   31.0550   39.7370 C   0  0  0  0  0  0  0  0  0  0  0  0
   48.0320   29.9710   39.4250 H   0  0  0  0  0  0  0  0  0  0  0  0
   49.2050   31.7340   39.7150 C   0  0  0  0  0  0  0  0  0  0  0  0
   49.5030   32.3080   40.6060 H   0  0  0  0  0  0  0  0  0  0  0  0
   49.9180   30.8510   39.9810 H   0  0  0  0  0  0  0  0  0  0  0  0
   49.6570   31.9430   38.7560 H   0  0  0  0  0  0  0  0  0  0  0  0
   47.3960   31.0730   41.1510 C   0  0  0  0  0  0  0  0  0  0  0  0
   46.3830   30.7750   41.3410 H   0  0  0  0  0  0  0  0  0  0  0  0
   47.9070   30.1290   41.5990 H   0  0  0  0  0  0  0  0  0  0  0  0
   47.9130   31.7680   41.8370 H   0  0  0  0  0  0  0  0  0  0  0  0
   44.4930   35.8510   44.7060 C   0  0  0  0  0  0  0  0  0  0  0  0
   45.0700   35.6820   43.4200 C   0  0  0  0  0  0  0  0  0  0  0  0
   45.9450   34.6120   43.2590 C   0  0  0  0  0  0  0  0  0  0  0  0
   46.2150   33.7830   44.3000 N   0  0  0  0  0  0  0  0  0  0  0  0
   45.6310   33.9920   45.5150 C   0  0  0  0  0  0  0  0  0  0  0  0
   44.7930   34.9990   45.7120 N   0  0  0  0  0  0  0  0  0  0  0  0
   43.8010   36.6750   44.8860 H   0  0  0  0  0  0  0  0  0  0  0  0
   44.8230   36.3630   42.6440 H   0  0  0  0  0  0  0  0  0  0  0  0
   45.9440   33.0810   46.6120 C   0  0  0  0  0  0  0  0  0  0  0  0
   47.0280   32.3040   46.7970 N   0  0  0  0  0  0  0  0  0  0  0  0
   46.9450   31.6260   47.9050 O   0  0  0  0  0  0  0  0  0  0  0  0
   45.7870   31.9680   48.4490 C   0  0  0  0  0  0  0  0  0  0  0  0
   45.4850   31.5260   49.3990 H   0  0  0  0  0  0  0  0  0  0  0  0
   45.1540   32.8570   47.6790 N   0  0  0  0  0  0  0  0  0  0  0  0
  1 33  1  0  0  0  0
  2  1  1  0  0  0  0
  2  9  1  0  0  0  0
  3  2  2  0  0  0  0
  4  6  1  0  0  0  0
  4  3  1  0  0  0  0
  5  4  2  0  0  0  0
  6  7  1  0  0  0  0
  7  8  2  0  0  0  0
  7  1  1  0  0  0  0
 10  3  1  0  0  0  0
 11  6  1  0  0  0  0
 12 17  1  0  0  0  0
 12 11  2  0  0  0  0
 13 12  1  0  0  0  0
 14 13  2  0  0  0  0
 14 15  1  0  0  0  0
 15 16  2  0  0  0  0
 16 11  1  0  0  0  0
 16 21  1  0  0  0  0
 18 13  1  0  0  0  0
 19 14  1  0  0  0  0
 20 15  1  0  0  0  0
 21 27  1  0  0  0  0
 22 21  1  0  0  0  0
 23 21  1  0  0  0  0
 23 25  1  0  0  0  0
 23 24  1  0  0  0  0
 26 23  1  0  0  0  0
 27 28  1  0  0  0  0
 27 29  1  0  0  0  0
 27 30  1  0  0  0  0
 31 37  1  0  0  0  0
 31 36  1  0  0  0  0
 32 31  2  0  0  0  0
 33 32  1  0  0  0  0
 33 34  2  0  0  0  0
 34 35  1  0  0  0  0
 35 36  2  0  0  0  0
 35 39  1  0  0  0  0
 38 32  1  0  0  0  0
 39 40  2  0  0  0  0
 39 44  1  0  0  0  0
 40 41  1  0  0  0  0
 41 42  1  0  0  0  0
 42 43  1  0  0  0  0
 44 42  2  0  0  0  0
M  END
>  <minimizedAffinity>
-6.24442482

>  <minimizedRMSD>
0.108763359

$$$$
