
 OpenBabel03232518173D

 28 30  0  0  1  0  0  0  0  0999 V2000
   44.0200   34.9410   41.5490 C   0  0  2  0  0  0  0  0  0  0  0  0
   42.4870   34.8100   41.3840 C   0  0  0  0  0  0  0  0  0  0  0  0
   42.4430   35.0840   39.8670 C   0  0  1  0  0  0  0  0  0  0  0  0
   43.5110   34.1460   39.3940 C   0  0  0  0  0  0  0  0  0  0  0  0
   44.5030   33.9990   40.5420 C   0  0  0  0  0  0  0  0  0  0  0  0
   44.3000   36.0010   41.2940 H   0  0  0  0  0  0  0  0  0  0  0  0
   42.2320   33.7690   41.5720 H   0  0  0  0  0  0  0  0  0  0  0  0
   41.9660   35.5730   41.9620 H   0  0  0  0  0  0  0  0  0  0  0  0
   42.7940   36.1140   39.6730 H   0  0  0  0  0  0  0  0  0  0  0  0
   44.0240   34.4820   38.4640 H   0  0  0  0  0  0  0  0  0  0  0  0
   43.1080   33.1320   39.1750 H   0  0  0  0  0  0  0  0  0  0  0  0
   44.5820   32.9550   40.8720 H   0  0  0  0  0  0  0  0  0  0  0  0
   45.5230   34.3180   40.2060 H   0  0  0  0  0  0  0  0  0  0  0  0
   44.2450   35.7660   43.8530 C   0  0  0  0  0  0  0  0  0  0  0  0
   44.4560   34.7060   42.9320 C   0  0  0  0  0  0  0  0  0  0  0  0
   45.0800   33.5060   43.3770 C   0  0  0  0  0  0  0  0  0  0  0  0
   45.4460   33.4450   44.6860 N   0  0  0  0  0  0  0  0  0  0  0  0
   45.2300   34.4770   45.5490 C   0  0  0  0  0  0  0  0  0  0  0  0
   44.6330   35.6300   45.1330 N   0  0  0  0  0  0  0  0  0  0  0  0
   43.7700   36.6730   43.5070 H   0  0  0  0  0  0  0  0  0  0  0  0
   45.2290   32.7260   42.6670 H   0  0  0  0  0  0  0  0  0  0  0  0
   45.5250   34.4150   46.5850 H   0  0  0  0  0  0  0  0  0  0  0  0
   41.1170   34.8640   39.2940 C   0  0  0  0  0  0  0  0  0  0  0  0
   39.9610   35.0320   39.9740 N   0  0  0  0  0  0  0  0  0  0  0  0
   38.9880   34.7590   39.1890 O   0  0  0  0  0  0  0  0  0  0  0  0
   39.4230   34.4140   38.0080 C   0  0  0  0  0  0  0  0  0  0  0  0
   38.6760   34.1640   37.2700 H   0  0  0  0  0  0  0  0  0  0  0  0
   40.7640   34.4800   38.0720 N   0  0  0  0  0  0  0  0  0  0  0  0
  1  6  1  6  0  0  0
  1 15  1  0  0  0  0
  2  1  1  0  0  0  0
  2  7  1  0  0  0  0
  2  8  1  0  0  0  0
  3  9  1  6  0  0  0
  3  2  1  0  0  0  0
  4  3  1  0  0  0  0
  4  5  1  0  0  0  0
  5 12  1  0  0  0  0
  5  1  1  0  0  0  0
 10  4  1  0  0  0  0
 11  4  1  0  0  0  0
 13  5  1  0  0  0  0
 14 19  1  0  0  0  0
 15 16  1  0  0  0  0
 15 14  2  0  0  0  0
 16 17  2  0  0  0  0
 17 18  1  0  0  0  0
 18 22  1  0  0  0  0
 19 18  2  0  0  0  0
 20 14  1  0  0  0  0
 21 16  1  0  0  0  0
 23  3  1  0  0  0  0
 23 24  2  0  0  0  0
 25 24  1  0  0  0  0
 26 28  2  0  0  0  0
 26 25  1  0  0  0  0
 27 26  1  0  0  0  0
 28 23  1  0  0  0  0
M  END
>  <minimizedAffinity>
-4.83708668

>  <minimizedRMSD>
0.61789459

$$$$
