
 OpenBabel03232520093D

 22 24  0  0  0  0  0  0  0  0999 V2000
   46.0580   32.9030   45.9450 C   0  0  0  0  0  0  0  0  0  0  0  0
   45.7250   32.6360   47.2580 C   0  0  0  0  0  0  0  0  0  0  0  0
   46.2040   31.5030   47.8340 C   0  0  0  0  0  0  0  0  0  0  0  0
   47.0100   30.6840   47.0330 C   0  0  0  0  0  0  0  0  0  0  0  0
   47.0790   31.5370   45.4660 S   0  0  0  0  0  0  0  0  0  0  0  0
   45.0920   33.3420   47.7800 H   0  0  0  0  0  0  0  0  0  0  0  0
   46.0030   31.2020   48.8510 H   0  0  0  0  0  0  0  0  0  0  0  0
   44.4770   35.9920   44.7710 C   0  0  0  0  0  0  0  0  0  0  0  0
   45.0350   36.1100   43.4640 C   0  0  0  0  0  0  0  0  0  0  0  0
   45.9450   35.1120   43.0280 C   0  0  0  0  0  0  0  0  0  0  0  0
   46.2310   34.0970   43.8890 N   0  0  0  0  0  0  0  0  0  0  0  0
   45.6750   34.0320   45.1200 C   0  0  0  0  0  0  0  0  0  0  0  0
   44.8070   34.9670   45.5590 N   0  0  0  0  0  0  0  0  0  0  0  0
   43.7980   36.7780   45.0370 H   0  0  0  0  0  0  0  0  0  0  0  0
   44.7920   36.9270   42.7920 H   0  0  0  0  0  0  0  0  0  0  0  0
   46.3920   35.1560   42.0500 H   0  0  0  0  0  0  0  0  0  0  0  0
   47.6460   29.4110   47.4230 C   0  0  0  0  0  0  0  0  0  0  0  0
   47.1390   28.1680   47.3570 N   0  0  0  0  0  0  0  0  0  0  0  0
   48.0130   27.3160   47.7950 O   0  0  0  0  0  0  0  0  0  0  0  0
   49.1150   27.9550   48.1640 C   0  0  0  0  0  0  0  0  0  0  0  0
   49.9680   27.4090   48.5600 H   0  0  0  0  0  0  0  0  0  0  0  0
   48.8980   29.2740   47.9350 N   0  0  0  0  0  0  0  0  0  0  0  0
  1  2  2  0  0  0  0
  2  6  1  0  0  0  0
  2  3  1  0  0  0  0
  3  7  1  0  0  0  0
  4 17  1  0  0  0  0
  4  3  2  0  0  0  0
  5  1  1  0  0  0  0
  5  4  1  0  0  0  0
  8 14  1  0  0  0  0
  8 13  1  0  0  0  0
  9  8  2  0  0  0  0
 10  9  1  0  0  0  0
 10 11  2  0  0  0  0
 11 12  1  0  0  0  0
 12 13  2  0  0  0  0
 12  1  1  0  0  0  0
 15  9  1  0  0  0  0
 16 10  1  0  0  0  0
 17 22  1  0  0  0  0
 18 17  2  0  0  0  0
 18 19  1  0  0  0  0
 19 20  1  0  0  0  0
 20 21  1  0  0  0  0
 22 20  2  0  0  0  0
M  END
>  <minimizedAffinity>
-4.36761379

>  <minimizedRMSD>
1.52339745

$$$$
