
 OpenBabel03232520513D

 29 31  0  0  1  0  0  0  0  0999 V2000
   46.3230   33.2180   46.0790 C   0  0  2  0  0  0  0  0  0  0  0  0
   47.0020   32.0480   45.4290 C   0  0  0  0  0  0  0  0  0  0  0  0
   47.3340   30.9060   46.2610 C   0  0  0  0  0  0  0  0  0  0  0  0
   47.0030   30.9260   47.6830 C   0  0  2  0  0  0  0  0  0  0  0  0
   46.5520   32.2130   48.2440 C   0  0  0  0  0  0  0  0  0  0  0  0
   45.5520   32.8210   47.2940 C   0  0  0  0  0  0  0  0  0  0  0  0
   47.1750   33.8880   46.3980 H   0  0  0  0  0  0  0  0  0  0  0  0
   47.2900   31.9110   44.4180 H   0  0  0  0  0  0  0  0  0  0  0  0
   47.8240   30.0510   45.8150 H   0  0  0  0  0  0  0  0  0  0  0  0
   46.1390   30.2060   47.8020 H   0  0  0  0  0  0  0  0  0  0  0  0
   46.1260   32.0400   49.2450 H   0  0  0  0  0  0  0  0  0  0  0  0
   47.4070   32.9120   48.3330 H   0  0  0  0  0  0  0  0  0  0  0  0
   45.2120   33.7580   47.7930 H   0  0  0  0  0  0  0  0  0  0  0  0
   44.7200   32.1440   47.0540 H   0  0  0  0  0  0  0  0  0  0  0  0
   45.5030   33.5030   43.7680 C   0  0  0  0  0  0  0  0  0  0  0  0
   45.5500   33.9670   45.0830 C   0  0  0  0  0  0  0  0  0  0  0  0
   44.8470   35.1630   45.3760 C   0  0  0  0  0  0  0  0  0  0  0  0
   44.1730   35.7870   44.3720 N   0  0  0  0  0  0  0  0  0  0  0  0
   44.1550   35.3020   43.1060 C   0  0  0  0  0  0  0  0  0  0  0  0
   44.8200   34.1610   42.8100 N   0  0  0  0  0  0  0  0  0  0  0  0
   45.9920   32.6120   43.4190 H   0  0  0  0  0  0  0  0  0  0  0  0
   44.8780   35.5240   46.3880 H   0  0  0  0  0  0  0  0  0  0  0  0
   43.5730   35.9210   42.4330 H   0  0  0  0  0  0  0  0  0  0  0  0
   48.1030   30.3750   48.5140 C   0  0  0  0  0  0  0  0  0  0  0  0
   48.7900   29.2280   48.3180 N   0  0  0  0  0  0  0  0  0  0  0  0
   49.6910   29.0840   49.2700 O   0  0  0  0  0  0  0  0  0  0  0  0
   49.6330   30.1030   50.1040 C   0  0  0  0  0  0  0  0  0  0  0  0
   50.2250   30.2990   50.9870 H   0  0  0  0  0  0  0  0  0  0  0  0
   48.6630   30.8950   49.6450 N   0  0  0  0  0  0  0  0  0  0  0  0
  1  7  1  1  0  0  0
  1  6  1  0  0  0  0
  2  1  1  0  0  0  0
  2  3  2  0  0  0  0
  3  4  1  0  0  0  0
  4 10  1  1  0  0  0
  4  5  1  0  0  0  0
  4 24  1  0  0  0  0
  5 12  1  0  0  0  0
  5 11  1  0  0  0  0
  6 13  1  0  0  0  0
  6  5  1  0  0  0  0
  8  2  1  0  0  0  0
  9  3  1  0  0  0  0
 14  6  1  0  0  0  0
 15 16  1  0  0  0  0
 16 17  2  0  0  0  0
 16  1  1  0  0  0  0
 17 22  1  0  0  0  0
 18 17  1  0  0  0  0
 19 18  2  0  0  0  0
 20 19  1  0  0  0  0
 20 15  2  0  0  0  0
 21 15  1  0  0  0  0
 23 19  1  0  0  0  0
 24 29  1  0  0  0  0
 25 24  2  0  0  0  0
 25 26  1  0  0  0  0
 26 27  1  0  0  0  0
 27 28  1  0  0  0  0
 29 27  2  0  0  0  0
M  END
>  <minimizedAffinity>
-4.85651493

>  <minimizedRMSD>
7.41934443

$$$$
