
 OpenBabel03232518293D

 27 30  0  0  0  0  0  0  0  0999 V2000
   44.7090   35.6290   44.4790 C   0  0  0  0  0  0  0  0  0  0  0  0
   45.6240   35.3190   43.4850 C   0  0  0  0  0  0  0  0  0  0  0  0
   46.5260   34.2460   43.7270 C   0  0  0  0  0  0  0  0  0  0  0  0
   46.4420   33.5780   44.9240 N   0  0  0  0  0  0  0  0  0  0  0  0
   45.5200   33.9420   45.8440 C   0  0  0  0  0  0  0  0  0  0  0  0
   44.6670   34.9520   45.6250 N   0  0  0  0  0  0  0  0  0  0  0  0
   44.0560   36.4470   44.2430 H   0  0  0  0  0  0  0  0  0  0  0  0
   45.7020   35.8290   42.5480 H   0  0  0  0  0  0  0  0  0  0  0  0
   47.5300   33.8310   42.7530 C   0  0  0  0  0  0  0  0  0  0  0  0
   47.4130   33.2590   41.5460 N   0  0  0  0  0  0  0  0  0  0  0  0
   48.6090   33.0640   41.0230 O   0  0  0  0  0  0  0  0  0  0  0  0
   49.5240   33.5040   41.8750 C   0  0  0  0  0  0  0  0  0  0  0  0
   50.5970   33.4610   41.6860 H   0  0  0  0  0  0  0  0  0  0  0  0
   48.8570   33.9850   42.9590 N   0  0  0  0  0  0  0  0  0  0  0  0
   45.4430   33.0490   47.3890 S   0  0  0  0  0  0  0  0  0  0  0  0
   48.6080   29.5550   48.6560 N   0  0  0  0  0  0  0  0  0  0  0  0
   48.6670   30.6740   49.3960 C   0  0  0  0  0  0  0  0  0  0  0  0
   47.7440   31.5440   48.9360 N   0  0  0  0  0  0  0  0  0  0  0  0
   47.0830   30.9970   47.8990 C   0  0  0  0  0  0  0  0  0  0  0  0
   46.0590   31.4000   47.0500 C   0  0  0  0  0  0  0  0  0  0  0  0
   45.6310   30.5620   46.0880 N   0  0  0  0  0  0  0  0  0  0  0  0
   46.2220   29.3400   45.9800 C   0  0  0  0  0  0  0  0  0  0  0  0
   47.2260   28.9050   46.7890 N   0  0  0  0  0  0  0  0  0  0  0  0
   47.6340   29.7530   47.7370 C   0  0  0  0  0  0  0  0  0  0  0  0
   49.2490   28.7560   48.8570 H   0  0  0  0  0  0  0  0  0  0  0  0
   49.2520   31.0260   50.2320 H   0  0  0  0  0  0  0  0  0  0  0  0
   45.8580   28.6840   45.1950 H   0  0  0  0  0  0  0  0  0  0  0  0
  1  6  1  0  0  0  0
  2  3  1  0  0  0  0
  2  1  2  0  0  0  0
  3  4  2  0  0  0  0
  4  5  1  0  0  0  0
  5 15  1  0  0  0  0
  6  5  2  0  0  0  0
  7  1  1  0  0  0  0
  8  2  1  0  0  0  0
  9 14  1  0  0  0  0
  9  3  1  0  0  0  0
 10  9  2  0  0  0  0
 11 10  1  0  0  0  0
 11 12  1  0  0  0  0
 12 14  2  0  0  0  0
 13 12  1  0  0  0  0
 16 25  1  0  0  0  0
 16 17  1  0  0  0  0
 17 26  1  0  0  0  0
 18 17  2  0  0  0  0
 19 18  1  0  0  0  0
 20 15  1  0  0  0  0
 20 19  2  0  0  0  0
 21 20  1  0  0  0  0
 22 21  2  0  0  0  0
 22 23  1  0  0  0  0
 23 24  2  0  0  0  0
 24 19  1  0  0  0  0
 24 16  1  0  0  0  0
 27 22  1  0  0  0  0
M  END
>  <minimizedAffinity>
-5.18860388

>  <minimizedRMSD>
0.361020893

$$$$
