
 OpenBabel03232520533D

 32 34  0  0  1  0  0  0  0  0999 V2000
   43.5460   34.9280   40.7460 C   0  0  2  0  0  0  0  0  0  0  0  0
   42.2550   35.6200   41.1540 C   0  0  0  0  0  0  0  0  0  0  0  0
   41.2810   35.8620   40.1280 C   0  0  0  0  0  0  0  0  0  0  0  0
   41.5240   35.4590   38.7570 C   0  0  1  0  0  0  0  0  0  0  0  0
   42.8580   34.8980   38.4530 C   0  0  0  0  0  0  0  0  0  0  0  0
   43.3110   34.0180   39.5950 C   0  0  0  0  0  0  0  0  0  0  0  0
   44.1740   35.7910   40.3730 H   0  0  0  0  0  0  0  0  0  0  0  0
   41.8450   36.0040   42.0800 H   0  0  0  0  0  0  0  0  0  0  0  0
   40.3430   36.3440   40.3300 H   0  0  0  0  0  0  0  0  0  0  0  0
   41.3640   36.3570   38.1050 H   0  0  0  0  0  0  0  0  0  0  0  0
   42.8400   34.3610   37.5030 H   0  0  0  0  0  0  0  0  0  0  0  0
   43.5830   35.7520   38.4200 H   0  0  0  0  0  0  0  0  0  0  0  0
   44.2550   33.5280   39.3220 H   0  0  0  0  0  0  0  0  0  0  0  0
   42.5410   33.2400   39.8240 H   0  0  0  0  0  0  0  0  0  0  0  0
   44.6910   35.1560   42.9110 C   0  0  0  0  0  0  0  0  0  0  0  0
   44.1770   34.3460   41.9180 C   0  0  0  0  0  0  0  0  0  0  0  0
   44.3120   32.9750   42.1020 C   0  0  0  0  0  0  0  0  0  0  0  0
   44.9210   32.4820   43.2110 N   0  0  0  0  0  0  0  0  0  0  0  0
   45.4140   33.3040   44.1640 C   0  0  0  0  0  0  0  0  0  0  0  0
   45.2910   34.6460   44.0000 N   0  0  0  0  0  0  0  0  0  0  0  0
   44.6680   36.2360   42.9160 H   0  0  0  0  0  0  0  0  0  0  0  0
   43.9370   32.2690   41.3740 H   0  0  0  0  0  0  0  0  0  0  0  0
   46.0660   32.7560   45.3480 C   0  0  0  0  0  0  0  0  0  0  0  0
   46.6850   33.3260   46.4100 N   0  0  0  0  0  0  0  0  0  0  0  0
   47.1080   32.3850   47.2100 O   0  0  0  0  0  0  0  0  0  0  0  0
   46.7880   31.1910   46.7130 C   0  0  0  0  0  0  0  0  0  0  0  0
   47.0790   30.3320   47.2740 H   0  0  0  0  0  0  0  0  0  0  0  0
   46.1360   31.4170   45.5490 N   0  0  0  0  0  0  0  0  0  0  0  0
   40.4330   34.4680   38.3340 C   0  0  0  0  0  0  0  0  0  0  0  0
   39.5790   34.1430   39.3700 F   0  0  0  0  0  0  0  0  0  0  0  0
   39.6480   35.1120   37.3740 F   0  0  0  0  0  0  0  0  0  0  0  0
   40.9920   33.3660   37.7250 F   0  0  0  0  0  0  0  0  0  0  0  0
  1  7  1  6  0  0  0
  1  2  1  0  0  0  0
  1 16  1  0  0  0  0
  2  8  1  0  0  0  0
  3  9  1  0  0  0  0
  3  2  2  0  0  0  0
  4 10  1  6  0  0  0
  4  3  1  0  0  0  0
  5  4  1  0  0  0  0
  5  6  1  0  0  0  0
  6 14  1  0  0  0  0
  6  1  1  0  0  0  0
 11  5  1  0  0  0  0
 12  5  1  0  0  0  0
 13  6  1  0  0  0  0
 15 21  1  0  0  0  0
 15 20  1  0  0  0  0
 16 17  1  0  0  0  0
 16 15  2  0  0  0  0
 17 18  2  0  0  0  0
 18 19  1  0  0  0  0
 19 23  1  0  0  0  0
 20 19  2  0  0  0  0
 22 17  1  0  0  0  0
 23 28  1  0  0  0  0
 23 24  2  0  0  0  0
 24 25  1  0  0  0  0
 26 25  1  0  0  0  0
 26 27  1  0  0  0  0
 28 26  2  0  0  0  0
 29  4  1  0  0  0  0
 29 30  1  0  0  0  0
 31 29  1  0  0  0  0
 32 29  1  0  0  0  0
M  END
>  <minimizedAffinity>
-5.33784246

>  <minimizedRMSD>
5.3975091

$$$$
