
 OpenBabel03232520053D

 30 33  0  0  0  0  0  0  0  0999 V2000
   46.1840   30.3760   49.1270 N   0  0  0  0  0  0  0  0  0  0  0  0
   45.3160   31.3960   49.4330 C   0  0  0  0  0  0  0  0  0  0  0  0
   45.2510   32.2190   48.3630 N   0  0  0  0  0  0  0  0  0  0  0  0
   46.0750   31.6910   47.4290 C   0  0  0  0  0  0  0  0  0  0  0  0
   46.3170   32.2050   46.1790 C   0  0  0  0  0  0  0  0  0  0  0  0
   47.1910   31.5150   45.3800 N   0  0  0  0  0  0  0  0  0  0  0  0
   47.7810   30.3880   45.8070 C   0  0  0  0  0  0  0  0  0  0  0  0
   47.5060   29.9300   47.0430 N   0  0  0  0  0  0  0  0  0  0  0  0
   46.6790   30.5350   47.8690 C   0  0  0  0  0  0  0  0  0  0  0  0
   46.4670   29.5570   49.7390 H   0  0  0  0  0  0  0  0  0  0  0  0
   44.8120   31.4550   50.3880 H   0  0  0  0  0  0  0  0  0  0  0  0
   48.7190   29.6120   45.0010 C   0  0  0  0  0  0  0  0  0  0  0  0
   49.0390   30.1490   43.7870 N   0  0  0  0  0  0  0  0  0  0  0  0
   49.8870   29.3460   43.1770 O   0  0  0  0  0  0  0  0  0  0  0  0
   50.1170   28.3180   43.9580 C   0  0  0  0  0  0  0  0  0  0  0  0
   50.7830   27.4800   43.7210 H   0  0  0  0  0  0  0  0  0  0  0  0
   49.4050   28.4390   45.1170 N   0  0  0  0  0  0  0  0  0  0  0  0
   45.6390   33.6660   45.4450 S   0  0  0  0  0  0  0  0  0  0  0  0
   47.8000   34.7230   42.3580 C   0  0  0  0  0  0  0  0  0  0  0  0
   47.0740   34.3420   41.2220 C   0  0  0  0  0  0  0  0  0  0  0  0
   45.8530   33.7260   41.4290 C   0  0  0  0  0  0  0  0  0  0  0  0
   45.4130   33.5180   42.7060 N   0  0  0  0  0  0  0  0  0  0  0  0
   46.1640   33.9120   43.7730 C   0  0  0  0  0  0  0  0  0  0  0  0
   47.3250   34.4980   43.5710 N   0  0  0  0  0  0  0  0  0  0  0  0
   47.4110   34.5000   40.2050 H   0  0  0  0  0  0  0  0  0  0  0  0
   45.2260   33.3990   40.6180 H   0  0  0  0  0  0  0  0  0  0  0  0
   49.0970   35.3780   42.1480 C   0  0  0  0  0  0  0  0  0  0  0  0
   49.2430   36.1480   41.1600 O   0  0  0  0  0  0  0  0  0  0  0  0
   50.1120   35.1370   43.0280 O   0  0  0  0  0  0  0  0  0  0  0  0
   50.9170   35.7750   43.0800 H   0  0  0  0  0  0  0  0  0  0  0  0
  1  2  1  0  0  0  0
  1 10  1  0  0  0  0
  2 11  1  0  0  0  0
  3  2  2  0  0  0  0
  4  9  1  0  0  0  0
  4  3  1  0  0  0  0
  5  4  2  0  0  0  0
  6  7  2  0  0  0  0
  6  5  1  0  0  0  0
  7  8  1  0  0  0  0
  8  9  2  0  0  0  0
  9  1  1  0  0  0  0
 12 17  1  0  0  0  0
 12  7  1  0  0  0  0
 13 12  2  0  0  0  0
 14 13  1  0  0  0  0
 14 15  1  0  0  0  0
 15 17  2  0  0  0  0
 16 15  1  0  0  0  0
 18  5  1  0  0  0  0
 19 24  1  0  0  0  0
 20 21  1  0  0  0  0
 20 19  2  0  0  0  0
 21 22  2  0  0  0  0
 22 23  1  0  0  0  0
 23 18  1  0  0  0  0
 24 23  2  0  0  0  0
 25 20  1  0  0  0  0
 26 21  1  0  0  0  0
 27 19  1  0  0  0  0
 27 29  1  0  0  0  0
 28 27  2  0  0  0  0
 29 30  1  0  0  0  0
M  END
>  <minimizedAffinity>
-5.70451546

>  <minimizedRMSD>
0.222797468

$$$$
