
 OpenBabel03232520573D

 34 36  0  0  1  0  0  0  0  0999 V2000
   46.1160   33.6090   45.3220 C   0  0  2  0  0  0  0  0  0  0  0  0
   44.9820   34.6910   45.5120 C   0  0  0  0  0  0  0  0  0  0  0  0
   44.7540   35.6020   44.4210 C   0  0  0  0  0  0  0  0  0  0  0  0
   45.5360   35.5050   43.1970 C   0  0  1  0  0  0  0  0  0  0  0  0
   46.6230   34.5210   43.1900 C   0  0  0  0  0  0  0  0  0  0  0  0
   46.1770   33.2800   43.9340 C   0  0  0  0  0  0  0  0  0  0  0  0
   46.9550   34.3020   45.6620 H   0  0  0  0  0  0  0  0  0  0  0  0
   44.2820   34.9420   46.3030 H   0  0  0  0  0  0  0  0  0  0  0  0
   44.0170   36.3580   44.4600 H   0  0  0  0  0  0  0  0  0  0  0  0
   45.9530   36.5210   42.9740 H   0  0  0  0  0  0  0  0  0  0  0  0
   47.4890   34.9280   43.7830 H   0  0  0  0  0  0  0  0  0  0  0  0
   46.9700   34.2800   42.1870 H   0  0  0  0  0  0  0  0  0  0  0  0
   46.7680   32.4990   43.5030 H   0  0  0  0  0  0  0  0  0  0  0  0
   45.1230   33.1050   43.5480 H   0  0  0  0  0  0  0  0  0  0  0  0
   45.2650   32.8790   47.5090 C   0  0  0  0  0  0  0  0  0  0  0  0
   45.8980   32.6190   46.3320 C   0  0  0  0  0  0  0  0  0  0  0  0
   46.2990   31.2890   46.1220 C   0  0  0  0  0  0  0  0  0  0  0  0
   46.0710   30.3370   47.0300 N   0  0  0  0  0  0  0  0  0  0  0  0
   45.4300   30.6260   48.2140 C   0  0  0  0  0  0  0  0  0  0  0  0
   45.0400   31.8810   48.4360 N   0  0  0  0  0  0  0  0  0  0  0  0
   45.2060   29.6010   49.1760 N   0  0  0  0  0  0  0  0  0  0  0  0
   44.9350   33.8720   47.7320 H   0  0  0  0  0  0  0  0  0  0  0  0
   44.9730   29.8880   50.1470 H   0  0  0  0  0  0  0  0  0  0  0  0
   45.2770   28.6000   48.9010 H   0  0  0  0  0  0  0  0  0  0  0  0
   46.9880   30.6260   45.0190 C   0  0  0  0  0  0  0  0  0  0  0  0
   46.2800   29.8760   44.1490 N   0  0  0  0  0  0  0  0  0  0  0  0
   47.0880   29.4130   43.2540 O   0  0  0  0  0  0  0  0  0  0  0  0
   48.3010   29.8400   43.5160 C   0  0  0  0  0  0  0  0  0  0  0  0
   49.0460   29.4890   42.7990 H   0  0  0  0  0  0  0  0  0  0  0  0
   48.3050   30.6230   44.6350 N   0  0  0  0  0  0  0  0  0  0  0  0
   44.5470   35.2140   42.0420 C   0  0  0  0  0  0  0  0  0  0  0  0
   43.5300   34.3620   42.4090 F   0  0  0  0  0  0  0  0  0  0  0  0
   43.9500   36.4300   41.7170 F   0  0  0  0  0  0  0  0  0  0  0  0
   45.2540   34.7930   40.9200 F   0  0  0  0  0  0  0  0  0  0  0  0
  1  2  1  0  0  0  0
  1  7  1  1  0  0  0
  1 16  1  0  0  0  0
  2  8  1  0  0  0  0
  3  9  1  0  0  0  0
  3  2  2  0  0  0  0
  4 10  1  6  0  0  0
  4  3  1  0  0  0  0
  5  4  1  0  0  0  0
  5 11  1  0  0  0  0
  5  6  1  0  0  0  0
  6  1  1  0  0  0  0
 12  5  1  0  0  0  0
 13  6  1  0  0  0  0
 14  6  1  0  0  0  0
 15 22  1  0  0  0  0
 15 20  1  0  0  0  0
 16 15  2  0  0  0  0
 17 16  1  0  0  0  0
 17 18  2  0  0  0  0
 18 19  1  0  0  0  0
 19 20  2  0  0  0  0
 19 21  1  0  0  0  0
 21 23  1  0  0  0  0
 24 21  1  0  0  0  0
 25 17  1  0  0  0  0
 26 25  2  0  0  0  0
 27 28  1  0  0  0  0
 27 26  1  0  0  0  0
 28 30  2  0  0  0  0
 29 28  1  0  0  0  0
 30 25  1  0  0  0  0
 31 32  1  0  0  0  0
 31  4  1  0  0  0  0
 33 31  1  0  0  0  0
 34 31  1  0  0  0  0
M  END
>  <minimizedAffinity>
-5.56900692

>  <minimizedRMSD>
0.285127044

$$$$
