
 OpenBabel03232513553D

 31 34  0  0  0  0  0  0  0  0999 V2000
   45.2960   33.3840   44.6550 C   0  0  0  0  0  0  0  0  0  0  0  0
   45.6550   33.6530   43.3220 C   0  0  0  0  0  0  0  0  0  0  0  0
   46.8830   33.1890   42.8790 C   0  0  0  0  0  0  0  0  0  0  0  0
   47.6800   32.5050   43.7300 N   0  0  0  0  0  0  0  0  0  0  0  0
   47.3020   32.2650   45.0050 C   0  0  0  0  0  0  0  0  0  0  0  0
   46.1140   32.7070   45.4530 N   0  0  0  0  0  0  0  0  0  0  0  0
   44.3430   33.7310   45.0380 H   0  0  0  0  0  0  0  0  0  0  0  0
   47.9470   31.7150   45.6810 H   0  0  0  0  0  0  0  0  0  0  0  0
   47.2460   33.4650   41.5200 N   0  0  0  0  0  0  0  0  0  0  0  0
   47.9630   34.6330   41.4060 C   0  0  0  0  0  0  0  0  0  0  0  0
   48.3730   35.0040   40.1320 C   0  0  0  0  0  0  0  0  0  0  0  0
   48.0930   34.2680   39.0240 C   0  0  0  0  0  0  0  0  0  0  0  0
   48.4700   34.6180   37.8720 O   0  0  0  0  0  0  0  0  0  0  0  0
   47.3760   33.1220   39.2210 N   0  0  0  0  0  0  0  0  0  0  0  0
   46.9690   32.7370   40.4330 C   0  0  0  0  0  0  0  0  0  0  0  0
   46.3080   31.6900   40.6530 O   0  0  0  0  0  0  0  0  0  0  0  0
   48.2210   35.2660   42.2420 H   0  0  0  0  0  0  0  0  0  0  0  0
   48.9430   35.9300   40.0300 H   0  0  0  0  0  0  0  0  0  0  0  0
   47.1260   32.5040   38.3960 H   0  0  0  0  0  0  0  0  0  0  0  0
   44.7340   34.3800   42.5280 N   0  0  0  0  0  0  0  0  0  0  0  0
   44.5660   35.7380   42.3800 C   0  0  0  0  0  0  0  0  0  0  0  0
   43.5690   35.9760   41.5220 N   0  0  0  0  0  0  0  0  0  0  0  0
   43.1060   34.7600   41.1260 C   0  0  0  0  0  0  0  0  0  0  0  0
   43.8350   33.8290   41.7560 N   0  0  0  0  0  0  0  0  0  0  0  0
   45.1820   36.4610   42.9090 H   0  0  0  0  0  0  0  0  0  0  0  0
   42.0130   34.5280   40.1860 C   0  0  0  0  0  0  0  0  0  0  0  0
   40.8580   33.8860   40.4760 N   0  0  0  0  0  0  0  0  0  0  0  0
   40.1040   33.8520   39.4210 O   0  0  0  0  0  0  0  0  0  0  0  0
   40.7100   34.4570   38.4020 C   0  0  0  0  0  0  0  0  0  0  0  0
   40.2730   34.5520   37.4170 H   0  0  0  0  0  0  0  0  0  0  0  0
   41.9150   34.8860   38.8780 N   0  0  0  0  0  0  0  0  0  0  0  0
  1  7  1  0  0  0  0
  1  6  1  0  0  0  0
  2  1  2  0  0  0  0
  3  2  1  0  0  0  0
  3  4  2  0  0  0  0
  4  5  1  0  0  0  0
  5  6  2  0  0  0  0
  5  8  1  0  0  0  0
  9  3  1  0  0  0  0
 10  9  1  0  0  0  0
 10 17  1  0  0  0  0
 11 10  2  0  0  0  0
 12 14  1  0  0  0  0
 12 11  1  0  0  0  0
 13 12  2  0  0  0  0
 14 15  1  0  0  0  0
 15 16  2  0  0  0  0
 15  9  1  0  0  0  0
 18 11  1  0  0  0  0
 19 14  1  0  0  0  0
 20  2  1  0  0  0  0
 21 20  1  0  0  0  0
 21 25  1  0  0  0  0
 22 21  2  0  0  0  0
 23 22  1  0  0  0  0
 23 24  2  0  0  0  0
 24 20  1  0  0  0  0
 26 27  2  0  0  0  0
 26 23  1  0  0  0  0
 28 27  1  0  0  0  0
 29 31  2  0  0  0  0
 29 28  1  0  0  0  0
 30 29  1  0  0  0  0
 31 26  1  0  0  0  0
M  END
>  <minimizedAffinity>
-5.12710285

>  <minimizedRMSD>
0.283378035

$$$$
