
 OpenBabel03232520573D

 34 36  0  0  1  0  0  0  0  0999 V2000
   46.1080   33.6050   45.3270 C   0  0  2  0  0  0  0  0  0  0  0  0
   44.9700   34.6840   45.5150 C   0  0  0  0  0  0  0  0  0  0  0  0
   44.7440   35.5970   44.4250 C   0  0  0  0  0  0  0  0  0  0  0  0
   45.5320   35.5050   43.2040 C   0  0  1  0  0  0  0  0  0  0  0  0
   46.6220   34.5250   43.1990 C   0  0  0  0  0  0  0  0  0  0  0  0
   46.1760   33.2800   43.9380 C   0  0  0  0  0  0  0  0  0  0  0  0
   46.9430   34.3000   45.6710 H   0  0  0  0  0  0  0  0  0  0  0  0
   44.2660   34.9310   46.3030 H   0  0  0  0  0  0  0  0  0  0  0  0
   44.0050   36.3510   44.4630 H   0  0  0  0  0  0  0  0  0  0  0  0
   45.9460   36.5230   42.9850 H   0  0  0  0  0  0  0  0  0  0  0  0
   47.4830   34.9320   43.7970 H   0  0  0  0  0  0  0  0  0  0  0  0
   46.9720   34.2870   42.1970 H   0  0  0  0  0  0  0  0  0  0  0  0
   46.7700   32.5020   43.5080 H   0  0  0  0  0  0  0  0  0  0  0  0
   45.1230   33.1030   43.5470 H   0  0  0  0  0  0  0  0  0  0  0  0
   45.3170   32.8830   47.5390 C   0  0  0  0  0  0  0  0  0  0  0  0
   45.8890   32.6120   46.3330 C   0  0  0  0  0  0  0  0  0  0  0  0
   46.2220   31.2690   46.0910 C   0  0  0  0  0  0  0  0  0  0  0  0
   45.9900   30.3160   46.9970 N   0  0  0  0  0  0  0  0  0  0  0  0
   45.4120   30.6170   48.2100 C   0  0  0  0  0  0  0  0  0  0  0  0
   45.0860   31.8840   48.4620 N   0  0  0  0  0  0  0  0  0  0  0  0
   45.1830   29.5890   49.1680 N   0  0  0  0  0  0  0  0  0  0  0  0
   45.0400   33.8860   47.7860 H   0  0  0  0  0  0  0  0  0  0  0  0
   45.0030   29.8730   50.1520 H   0  0  0  0  0  0  0  0  0  0  0  0
   45.1990   28.5900   48.8790 H   0  0  0  0  0  0  0  0  0  0  0  0
   46.8350   30.5920   44.9530 C   0  0  0  0  0  0  0  0  0  0  0  0
   48.1810   30.5420   44.8580 N   0  0  0  0  0  0  0  0  0  0  0  0
   48.4920   29.8800   43.7930 O   0  0  0  0  0  0  0  0  0  0  0  0
   47.3900   29.4960   43.1940 C   0  0  0  0  0  0  0  0  0  0  0  0
   47.5710   28.9260   42.2800 H   0  0  0  0  0  0  0  0  0  0  0  0
   46.2920   29.9200   43.8870 N   0  0  0  0  0  0  0  0  0  0  0  0
   44.5480   35.2150   42.0440 C   0  0  0  0  0  0  0  0  0  0  0  0
   43.5270   34.3640   42.4070 F   0  0  0  0  0  0  0  0  0  0  0  0
   43.9540   36.4300   41.7140 F   0  0  0  0  0  0  0  0  0  0  0  0
   45.2600   34.7900   40.9270 F   0  0  0  0  0  0  0  0  0  0  0  0
  1  2  1  0  0  0  0
  1  7  1  1  0  0  0
  1 16  1  0  0  0  0
  2  8  1  0  0  0  0
  3  9  1  0  0  0  0
  3  2  2  0  0  0  0
  4 10  1  6  0  0  0
  4  3  1  0  0  0  0
  5  4  1  0  0  0  0
  5 11  1  0  0  0  0
  5  6  1  0  0  0  0
  6  1  1  0  0  0  0
 12  5  1  0  0  0  0
 13  6  1  0  0  0  0
 14  6  1  0  0  0  0
 15 22  1  0  0  0  0
 15 20  1  0  0  0  0
 16 15  2  0  0  0  0
 17 16  1  0  0  0  0
 17 18  2  0  0  0  0
 18 19  1  0  0  0  0
 19 20  2  0  0  0  0
 19 21  1  0  0  0  0
 21 23  1  0  0  0  0
 24 21  1  0  0  0  0
 25 17  1  0  0  0  0
 26 25  2  0  0  0  0
 27 26  1  0  0  0  0
 28 27  1  0  0  0  0
 28 30  2  0  0  0  0
 29 28  1  0  0  0  0
 30 25  1  0  0  0  0
 31 32  1  0  0  0  0
 31  4  1  0  0  0  0
 33 31  1  0  0  0  0
 34 31  1  0  0  0  0
M  END
>  <minimizedAffinity>
-5.61129713

>  <minimizedRMSD>
0.32040143

$$$$
