
 OpenBabel03232519303D

 37 39  0  0  1  0  0  0  0  0999 V2000
   47.2360   34.2740   40.1950 C   0  0  1  0  0  0  0  0  0  0  0  0
   48.3540   34.3950   39.1500 C   0  0  0  0  0  0  0  0  0  0  0  0
   47.7250   33.9570   37.8390 C   0  0  0  0  0  0  0  0  0  0  0  0
   47.5200   32.4570   37.9070 C   0  0  0  0  0  0  0  0  0  0  0  0
   47.5440   31.9440   39.3160 C   0  0  0  0  0  0  0  0  0  0  0  0
   46.8190   32.8570   40.3070 C   0  0  2  0  0  0  0  0  0  0  0  0
   46.4350   34.9740   39.8750 H   0  0  0  0  0  0  0  0  0  0  0  0
   48.7070   35.4590   39.0860 H   0  0  0  0  0  0  0  0  0  0  0  0
   49.1640   33.7170   39.4570 H   0  0  0  0  0  0  0  0  0  0  0  0
   48.3570   34.2420   36.9700 H   0  0  0  0  0  0  0  0  0  0  0  0
   46.7400   34.4430   37.6980 H   0  0  0  0  0  0  0  0  0  0  0  0
   46.6610   32.1100   37.3150 H   0  0  0  0  0  0  0  0  0  0  0  0
   48.4290   32.0250   37.4140 H   0  0  0  0  0  0  0  0  0  0  0  0
   48.5560   31.7910   39.7150 H   0  0  0  0  0  0  0  0  0  0  0  0
   47.0080   30.9750   39.3550 H   0  0  0  0  0  0  0  0  0  0  0  0
   47.0520   32.3720   41.3000 H   0  0  0  0  0  0  0  0  0  0  0  0
   45.3790   32.7080   39.9490 C   0  0  0  0  0  0  0  0  0  0  0  0
   44.6010   31.6550   39.6430 N   0  0  0  0  0  0  0  0  0  0  0  0
   43.3930   32.0000   39.4090 O   0  0  0  0  0  0  0  0  0  0  0  0
   43.3220   33.3010   39.5500 C   0  0  0  0  0  0  0  0  0  0  0  0
   42.4360   33.8810   39.4180 H   0  0  0  0  0  0  0  0  0  0  0  0
   44.5310   33.7770   39.8840 N   0  0  0  0  0  0  0  0  0  0  0  0
   47.7580   34.8050   41.5440 C   0  0  0  0  0  0  0  0  0  0  0  0
   47.5350   35.8410   41.7210 H   0  0  0  0  0  0  0  0  0  0  0  0
   48.8820   34.7020   41.4940 H   0  0  0  0  0  0  0  0  0  0  0  0
   47.2740   33.8050   42.5670 C   0  0  0  0  0  0  0  0  0  0  0  0
   46.7090   32.9440   42.0920 H   0  0  0  0  0  0  0  0  0  0  0  0
   48.1390   33.3760   43.1510 H   0  0  0  0  0  0  0  0  0  0  0  0
   46.1260   33.8120   44.7220 C   0  0  0  0  0  0  0  0  0  0  0  0
   46.3460   34.4120   43.4660 C   0  0  0  0  0  0  0  0  0  0  0  0
   45.6530   35.5510   43.1420 C   0  0  0  0  0  0  0  0  0  0  0  0
   44.7740   36.0560   44.0600 N   0  0  0  0  0  0  0  0  0  0  0  0
   44.5680   35.4730   45.2650 C   0  0  0  0  0  0  0  0  0  0  0  0
   45.2490   34.3460   45.5940 N   0  0  0  0  0  0  0  0  0  0  0  0
   46.6590   32.9260   44.9850 H   0  0  0  0  0  0  0  0  0  0  0  0
   45.6900   36.1290   42.2360 H   0  0  0  0  0  0  0  0  0  0  0  0
   43.8520   35.9380   45.9370 H   0  0  0  0  0  0  0  0  0  0  0  0
  1  7  1  6  0  0  0
  1  6  1  0  0  0  0
  1 23  1  0  0  0  0
  2  9  1  0  0  0  0
  2  1  1  0  0  0  0
  3  4  1  0  0  0  0
  3  2  1  0  0  0  0
  4  5  1  0  0  0  0
  5 15  1  0  0  0  0
  5 14  1  0  0  0  0
  5  6  1  0  0  0  0
  6 16  1  1  0  0  0
  8  2  1  0  0  0  0
 10  3  1  0  0  0  0
 11  3  1  0  0  0  0
 12  4  1  0  0  0  0
 13  4  1  0  0  0  0
 17  6  1  0  0  0  0
 18 17  2  0  0  0  0
 19 20  1  0  0  0  0
 19 18  1  0  0  0  0
 20 22  2  0  0  0  0
 21 20  1  0  0  0  0
 22 17  1  0  0  0  0
 23 24  1  0  0  0  0
 23 26  1  0  0  0  0
 25 23  1  0  0  0  0
 26 28  1  0  0  0  0
 26 30  1  0  0  0  0
 27 26  1  0  0  0  0
 29 35  1  0  0  0  0
 29 34  1  0  0  0  0
 30 29  2  0  0  0  0
 31 30  1  0  0  0  0
 31 32  2  0  0  0  0
 32 33  1  0  0  0  0
 33 34  2  0  0  0  0
 33 37  1  0  0  0  0
 36 31  1  0  0  0  0
M  END
>  <minimizedAffinity>
-4.41494989

>  <minimizedRMSD>
1.30288136

$$$$
