
 OpenBabel03232520233D

 29 32  0  0  0  0  0  0  0  0999 V2000
   45.1730   33.9260   41.4340 C   0  0  0  0  0  0  0  0  0  0  0  0
   45.8420   34.6110   42.4260 C   0  0  0  0  0  0  0  0  0  0  0  0
   47.0650   34.9440   42.0120 N   0  0  0  0  0  0  0  0  0  0  0  0
   47.1970   34.4790   40.7510 C   0  0  0  0  0  0  0  0  0  0  0  0
   48.2730   34.5670   39.8820 C   0  0  0  0  0  0  0  0  0  0  0  0
   48.1450   34.0020   38.6390 C   0  0  0  0  0  0  0  0  0  0  0  0
   47.0140   33.3450   38.1710 C   0  0  0  0  0  0  0  0  0  0  0  0
   45.9790   33.2970   39.0940 C   0  0  0  0  0  0  0  0  0  0  0  0
   46.0230   33.8290   40.3440 C   0  0  0  0  0  0  0  0  0  0  0  0
   47.8220   35.4700   42.5350 H   0  0  0  0  0  0  0  0  0  0  0  0
   49.2000   35.0650   40.1670 H   0  0  0  0  0  0  0  0  0  0  0  0
   48.9970   34.0810   37.9770 H   0  0  0  0  0  0  0  0  0  0  0  0
   46.9520   32.9130   37.1850 H   0  0  0  0  0  0  0  0  0  0  0  0
   45.0680   32.7930   38.7800 H   0  0  0  0  0  0  0  0  0  0  0  0
   41.4590   33.6830   41.0960 C   0  0  0  0  0  0  0  0  0  0  0  0
   42.7640   34.2120   41.0460 C   0  0  0  0  0  0  0  0  0  0  0  0
   43.8210   33.3900   41.4800 C   0  0  0  0  0  0  0  0  0  0  0  0
   43.5370   32.1240   41.9290 N   0  0  0  0  0  0  0  0  0  0  0  0
   42.2550   31.6750   41.9510 C   0  0  0  0  0  0  0  0  0  0  0  0
   41.2270   32.4340   41.5440 N   0  0  0  0  0  0  0  0  0  0  0  0
   40.6780   34.3420   40.7550 H   0  0  0  0  0  0  0  0  0  0  0  0
   42.9360   35.2070   40.6870 H   0  0  0  0  0  0  0  0  0  0  0  0
   42.0030   30.6890   42.2970 H   0  0  0  0  0  0  0  0  0  0  0  0
   45.3330   34.9460   43.7500 C   0  0  0  0  0  0  0  0  0  0  0  0
   44.8210   36.1360   44.1070 N   0  0  0  0  0  0  0  0  0  0  0  0
   44.4570   36.1180   45.3540 O   0  0  0  0  0  0  0  0  0  0  0  0
   44.7160   34.9300   45.8470 C   0  0  0  0  0  0  0  0  0  0  0  0
   44.6280   34.3750   46.7800 H   0  0  0  0  0  0  0  0  0  0  0  0
   45.2570   34.2000   44.8680 N   0  0  0  0  0  0  0  0  0  0  0  0
  1 17  1  0  0  0  0
  1  2  2  0  0  0  0
  2 24  1  0  0  0  0
  3  2  1  0  0  0  0
  3 10  1  0  0  0  0
  4  3  1  0  0  0  0
  5 11  1  0  0  0  0
  5  4  2  0  0  0  0
  6  5  1  0  0  0  0
  7  6  2  0  0  0  0
  7  8  1  0  0  0  0
  8  9  2  0  0  0  0
  9  4  1  0  0  0  0
  9  1  1  0  0  0  0
 12  6  1  0  0  0  0
 13  7  1  0  0  0  0
 14  8  1  0  0  0  0
 15 20  1  0  0  0  0
 16 15  2  0  0  0  0
 16 17  1  0  0  0  0
 17 18  2  0  0  0  0
 18 19  1  0  0  0  0
 19 23  1  0  0  0  0
 20 19  2  0  0  0  0
 21 15  1  0  0  0  0
 22 16  1  0  0  0  0
 24 25  2  0  0  0  0
 24 29  1  0  0  0  0
 25 26  1  0  0  0  0
 26 27  1  0  0  0  0
 27 28  1  0  0  0  0
 29 27  2  0  0  0  0
M  END
>  <minimizedAffinity>
-5.49700975

>  <minimizedRMSD>
3.87365079

$$$$
