
 OpenBabel03232520433D

 41 44  0  0  1  0  0  0  0  0999 V2000
   38.5870   33.2710   38.7080 N   0  0  0  0  0  0  0  0  0  0  0  0
   38.3940   34.0490   39.9010 C   0  0  0  0  0  0  0  0  0  0  0  0
   39.4310   33.7070   40.9600 C   0  0  0  0  0  0  0  0  0  0  0  0
   40.7860   34.0090   40.3840 C   0  0  1  0  0  0  0  0  0  0  0  0
   40.7640   34.3970   38.9330 C   0  0  0  0  0  0  0  0  0  0  0  0
   39.9040   33.4420   38.1260 C   0  0  1  0  0  0  0  0  0  0  0  0
   37.8250   33.5480   38.0480 H   0  0  0  0  0  0  0  0  0  0  0  0
   38.4600   35.1460   39.7510 H   0  0  0  0  0  0  0  0  0  0  0  0
   37.4120   33.7360   40.3180 H   0  0  0  0  0  0  0  0  0  0  0  0
   39.2800   32.6340   41.2220 H   0  0  0  0  0  0  0  0  0  0  0  0
   39.2160   34.2760   41.8740 H   0  0  0  0  0  0  0  0  0  0  0  0
   41.3650   33.0650   40.4470 H   0  0  0  0  0  0  0  0  0  0  0  0
   40.4320   35.4380   38.7460 H   0  0  0  0  0  0  0  0  0  0  0  0
   41.7950   34.2820   38.5310 H   0  0  0  0  0  0  0  0  0  0  0  0
   39.7610   33.9180   37.1310 H   0  0  0  0  0  0  0  0  0  0  0  0
   40.5950   32.1460   37.9040 C   0  0  0  0  0  0  0  0  0  0  0  0
   39.8210   31.0040   37.9400 C   0  0  0  0  0  0  0  0  0  0  0  0
   40.5390   29.8280   37.7220 C   0  0  0  0  0  0  0  0  0  0  0  0
   40.0840   28.8320   37.7160 H   0  0  0  0  0  0  0  0  0  0  0  0
   41.8650   29.7520   37.4930 N   0  0  0  0  0  0  0  0  0  0  0  0
   42.5630   30.9250   37.4720 C   0  0  0  0  0  0  0  0  0  0  0  0
   41.9280   32.0980   37.6760 N   0  0  0  0  0  0  0  0  0  0  0  0
   41.5580   35.2820   41.3750 S   0  0  0  0  0  0  0  0  0  0  0  0
   44.0220   35.4980   42.6360 C   0  0  0  0  0  0  0  0  0  0  0  0
   43.3280   35.0140   41.5280 C   0  0  0  0  0  0  0  0  0  0  0  0
   44.0320   34.3350   40.5770 C   0  0  0  0  0  0  0  0  0  0  0  0
   45.3730   34.1330   40.7070 N   0  0  0  0  0  0  0  0  0  0  0  0
   46.0200   34.6190   41.8030 C   0  0  0  0  0  0  0  0  0  0  0  0
   45.3450   35.3040   42.7730 N   0  0  0  0  0  0  0  0  0  0  0  0
   43.4270   36.0300   43.3640 H   0  0  0  0  0  0  0  0  0  0  0  0
   43.5860   33.9250   39.6840 H   0  0  0  0  0  0  0  0  0  0  0  0
   47.4510   34.4490   42.0260 C   0  0  0  0  0  0  0  0  0  0  0  0
   48.3040   35.4990   41.9390 C   0  0  0  0  0  0  0  0  0  0  0  0
   49.6680   35.3580   42.1500 C   0  0  0  0  0  0  0  0  0  0  0  0
   50.1930   34.1170   42.4590 C   0  0  0  0  0  0  0  0  0  0  0  0
   49.3050   33.0690   42.5410 C   0  0  0  0  0  0  0  0  0  0  0  0
   47.9790   33.2350   42.3300 N   0  0  0  0  0  0  0  0  0  0  0  0
   47.8740   36.4660   41.6960 H   0  0  0  0  0  0  0  0  0  0  0  0
   50.3440   36.2020   42.0800 H   0  0  0  0  0  0  0  0  0  0  0  0
   51.2500   33.9390   42.6360 H   0  0  0  0  0  0  0  0  0  0  0  0
   49.6230   32.0580   42.7770 H   0  0  0  0  0  0  0  0  0  0  0  0
  1  2  1  0  0  0  0
  2  9  1  0  0  0  0
  2  3  1  0  0  0  0
  3 10  1  0  0  0  0
  3 11  1  0  0  0  0
  4 12  1  1  0  0  0
  4  3  1  0  0  0  0
  4 23  1  0  0  0  0
  5  4  1  0  0  0  0
  6 15  1  6  0  0  0
  6  1  1  0  0  0  0
  6  5  1  0  0  0  0
  7  1  1  0  0  0  0
  8  2  1  0  0  0  0
 13  5  1  0  0  0  0
 14  5  1  0  0  0  0
 16 17  1  0  0  0  0
 16  6  1  0  0  0  0
 18 17  2  0  0  0  0
 19 18  1  0  0  0  0
 20 18  1  0  0  0  0
 21 20  2  0  0  0  0
 21 22  1  0  0  0  0
 22 16  2  0  0  0  0
 23 25  1  0  0  0  0
 24 29  1  0  0  0  0
 24 30  1  0  0  0  0
 25 24  2  0  0  0  0
 26 27  2  0  0  0  0
 26 25  1  0  0  0  0
 27 28  1  0  0  0  0
 28 32  1  0  0  0  0
 28 29  2  0  0  0  0
 31 26  1  0  0  0  0
 32 37  1  0  0  0  0
 33 32  2  0  0  0  0
 33 34  1  0  0  0  0
 34 35  2  0  0  0  0
 35 36  1  0  0  0  0
 35 40  1  0  0  0  0
 36 41  1  0  0  0  0
 37 36  2  0  0  0  0
 38 33  1  0  0  0  0
 39 34  1  0  0  0  0
M  END
>  <minimizedAffinity>
-5.89681387

>  <minimizedRMSD>
1.21889377

$$$$
