
 OpenBabel03232520573D

 35 37  0  0  1  0  0  0  0  0999 V2000
   46.1020   33.5890   45.2920 C   0  0  2  0  0  0  0  0  0  0  0  0
   44.9730   34.6860   45.5170 C   0  0  0  0  0  0  0  0  0  0  0  0
   44.7440   35.6200   44.4440 C   0  0  0  0  0  0  0  0  0  0  0  0
   45.5110   35.5400   43.2170 C   0  0  1  0  0  0  0  0  0  0  0  0
   46.5920   34.5290   43.1690 C   0  0  0  0  0  0  0  0  0  0  0  0
   46.1010   33.2890   43.9020 C   0  0  0  0  0  0  0  0  0  0  0  0
   46.9450   34.2700   45.6250 H   0  0  0  0  0  0  0  0  0  0  0  0
   44.2850   34.9270   46.3240 H   0  0  0  0  0  0  0  0  0  0  0  0
   44.0060   36.3850   44.5170 H   0  0  0  0  0  0  0  0  0  0  0  0
   45.9670   36.5450   43.0170 H   0  0  0  0  0  0  0  0  0  0  0  0
   47.4810   34.8750   43.7490 H   0  0  0  0  0  0  0  0  0  0  0  0
   46.8760   34.3030   42.1430 H   0  0  0  0  0  0  0  0  0  0  0  0
   46.5660   32.5020   43.3820 H   0  0  0  0  0  0  0  0  0  0  0  0
   44.9930   33.2230   43.5640 H   0  0  0  0  0  0  0  0  0  0  0  0
   45.3610   32.8670   47.5380 C   0  0  0  0  0  0  0  0  0  0  0  0
   45.8680   32.6020   46.2980 C   0  0  0  0  0  0  0  0  0  0  0  0
   46.1100   31.2540   46.0240 C   0  0  0  0  0  0  0  0  0  0  0  0
   45.8570   30.2830   46.9200 N   0  0  0  0  0  0  0  0  0  0  0  0
   45.3470   30.5910   48.1600 C   0  0  0  0  0  0  0  0  0  0  0  0
   45.1080   31.8670   48.4480 N   0  0  0  0  0  0  0  0  0  0  0  0
   45.1210   29.5650   49.1250 N   0  0  0  0  0  0  0  0  0  0  0  0
   45.1440   33.8690   47.8440 H   0  0  0  0  0  0  0  0  0  0  0  0
   45.7510   29.6620   49.9670 H   0  0  0  0  0  0  0  0  0  0  0  0
   44.4370   28.8050   49.0500 H   0  0  0  0  0  0  0  0  0  0  0  0
   46.6800   30.5650   44.8740 C   0  0  0  0  0  0  0  0  0  0  0  0
   48.0770   30.5010   44.7640 C   0  0  0  0  0  3  0  0  0  0  0  0
   48.8020   29.9500   43.7040 C   0  0  0  0  0  0  0  0  0  0  0  0
   49.8810   29.9760   43.7690 H   0  0  0  0  0  0  0  0  0  0  0  0
   48.0480   29.4550   42.7340 N   0  0  0  0  0  0  0  0  0  0  0  0
   46.7080   29.4950   42.7940 C   0  0  0  0  0  3  0  0  0  0  0  0
   46.0470   30.0260   43.8160 N   0  0  0  0  0  0  0  0  0  0  0  0
   44.5120   35.2810   42.0610 C   0  0  0  0  0  0  0  0  0  0  0  0
   43.4550   34.4840   42.4360 F   0  0  0  0  0  0  0  0  0  0  0  0
   43.9790   36.5210   41.7220 F   0  0  0  0  0  0  0  0  0  0  0  0
   45.1870   34.8140   40.9490 F   0  0  0  0  0  0  0  0  0  0  0  0
  1  2  1  0  0  0  0
  1  7  1  1  0  0  0
  1 16  1  0  0  0  0
  2  8  1  0  0  0  0
  3  9  1  0  0  0  0
  3  2  2  0  0  0  0
  4 10  1  6  0  0  0
  4  3  1  0  0  0  0
  5  4  1  0  0  0  0
  5 11  1  0  0  0  0
  5  6  1  0  0  0  0
  6  1  1  0  0  0  0
 12  5  1  0  0  0  0
 13  6  1  0  0  0  0
 14  6  1  0  0  0  0
 15 22  1  0  0  0  0
 15 20  1  0  0  0  0
 16 15  2  0  0  0  0
 17 16  1  0  0  0  0
 17 18  2  0  0  0  0
 18 19  1  0  0  0  0
 19 20  2  0  0  0  0
 19 21  1  0  0  0  0
 21 23  1  0  0  0  0
 24 21  1  0  0  0  0
 25 17  1  0  0  0  0
 26 25  1  0  0  0  0
 27 28  1  0  0  0  0
 27 26  2  0  0  0  0
 29 30  2  0  0  0  0
 29 27  1  0  0  0  0
 30 31  1  0  0  0  0
 31 25  2  0  0  0  0
 32 33  1  0  0  0  0
 32  4  1  0  0  0  0
 34 32  1  0  0  0  0
 35 32  1  0  0  0  0
M  END
>  <minimizedAffinity>
-5.65584373

>  <minimizedRMSD>
0.319302142

$$$$
