
 OpenBabel03232519563D

 23 25  0  0  0  0  0  0  0  0999 V2000
   43.9610   34.2040   41.5070 N   0  0  0  0  0  0  0  0  0  0  0  0
   44.6340   33.8440   40.4080 C   0  0  0  0  0  0  0  0  0  0  0  0
   43.6960   33.9310   39.3400 C   0  0  0  0  0  0  0  0  0  0  0  0
   42.5250   34.3340   39.8210 N   0  0  0  0  0  0  0  0  0  0  0  0
   42.6620   34.5110   41.1650 C   0  0  0  0  0  0  0  0  0  0  0  0
   43.8360   33.7220   38.2980 H   0  0  0  0  0  0  0  0  0  0  0  0
   41.8940   34.8360   41.8510 H   0  0  0  0  0  0  0  0  0  0  0  0
   44.2250   35.5490   43.4610 C   0  0  0  0  0  0  0  0  0  0  0  0
   44.4190   34.2650   42.8210 C   0  0  0  0  0  0  0  0  0  0  0  0
   45.0220   33.2470   43.5510 C   0  0  0  0  0  0  0  0  0  0  0  0
   45.4120   33.4850   44.8340 N   0  0  0  0  0  0  0  0  0  0  0  0
   45.2160   34.7090   45.4120 C   0  0  0  0  0  0  0  0  0  0  0  0
   44.6250   35.7390   44.7300 N   0  0  0  0  0  0  0  0  0  0  0  0
   43.7590   36.3580   42.9220 H   0  0  0  0  0  0  0  0  0  0  0  0
   45.1680   32.2550   43.1930 H   0  0  0  0  0  0  0  0  0  0  0  0
   45.5240   34.9110   46.4320 H   0  0  0  0  0  0  0  0  0  0  0  0
   46.0050   33.4770   40.1510 C   0  0  0  0  0  0  0  0  0  0  0  0
   47.0280   34.2950   40.5240 C   0  0  0  0  0  0  0  0  0  0  0  0
   48.3620   34.0370   40.3250 C   0  0  0  0  0  0  0  0  0  0  0  0
   49.1510   34.7010   40.6300 H   0  0  0  0  0  0  0  0  0  0  0  0
   48.7050   32.9050   39.7230 N   0  0  0  0  0  0  0  0  0  0  0  0
   47.7400   32.0570   39.3310 C   0  0  0  0  0  0  0  0  0  0  0  0
   46.4960   32.4070   39.5730 N   0  0  0  0  0  0  0  0  0  0  0  0
  1  9  1  0  0  0  0
  2  1  1  0  0  0  0
  3  4  1  0  0  0  0
  3  2  2  0  0  0  0
  4  5  2  0  0  0  0
  5  1  1  0  0  0  0
  5  7  1  0  0  0  0
  6  3  1  0  0  0  0
  8 13  1  0  0  0  0
  9  8  2  0  0  0  0
  9 10  1  0  0  0  0
 10 11  2  0  0  0  0
 11 12  1  0  0  0  0
 12 16  1  0  0  0  0
 13 12  2  0  0  0  0
 14  8  1  0  0  0  0
 15 10  1  0  0  0  0
 17  2  1  0  0  0  0
 17 18  1  0  0  0  0
 19 18  2  0  0  0  0
 19 20  1  0  0  0  0
 21 19  1  0  0  0  0
 22 23  1  0  0  0  0
 22 21  2  0  0  0  0
 23 17  2  0  0  0  0
M  END
>  <minimizedAffinity>
-3.99818254

>  <minimizedRMSD>
1.07142711

$$$$
