
 OpenBabel03232520573D

 35 37  0  0  1  0  0  0  0  0999 V2000
   46.1010   33.5890   45.2920 C   0  0  2  0  0  0  0  0  0  0  0  0
   44.9730   34.6870   45.5170 C   0  0  0  0  0  0  0  0  0  0  0  0
   44.7430   35.6200   44.4430 C   0  0  0  0  0  0  0  0  0  0  0  0
   45.5100   35.5370   43.2150 C   0  0  1  0  0  0  0  0  0  0  0  0
   46.5910   34.5260   43.1690 C   0  0  0  0  0  0  0  0  0  0  0  0
   46.0990   33.2870   43.9030 C   0  0  0  0  0  0  0  0  0  0  0  0
   46.9450   34.2700   45.6240 H   0  0  0  0  0  0  0  0  0  0  0  0
   44.2860   34.9300   46.3240 H   0  0  0  0  0  0  0  0  0  0  0  0
   44.0060   36.3850   44.5160 H   0  0  0  0  0  0  0  0  0  0  0  0
   45.9670   36.5420   43.0140 H   0  0  0  0  0  0  0  0  0  0  0  0
   47.4800   34.8720   43.7470 H   0  0  0  0  0  0  0  0  0  0  0  0
   46.8740   34.2990   42.1430 H   0  0  0  0  0  0  0  0  0  0  0  0
   46.5630   32.4990   43.3840 H   0  0  0  0  0  0  0  0  0  0  0  0
   44.9910   33.2220   43.5660 H   0  0  0  0  0  0  0  0  0  0  0  0
   45.3610   32.8710   47.5410 C   0  0  0  0  0  0  0  0  0  0  0  0
   45.8680   32.6030   46.3010 C   0  0  0  0  0  0  0  0  0  0  0  0
   46.1080   31.2550   46.0280 C   0  0  0  0  0  0  0  0  0  0  0  0
   45.8550   30.2860   46.9250 N   0  0  0  0  0  0  0  0  0  0  0  0
   45.3470   30.5950   48.1650 C   0  0  0  0  0  0  0  0  0  0  0  0
   45.1090   31.8720   48.4510 N   0  0  0  0  0  0  0  0  0  0  0  0
   45.1210   29.5710   49.1320 N   0  0  0  0  0  0  0  0  0  0  0  0
   45.1460   33.8730   47.8450 H   0  0  0  0  0  0  0  0  0  0  0  0
   45.7520   29.6680   49.9740 H   0  0  0  0  0  0  0  0  0  0  0  0
   44.4370   28.8110   49.0580 H   0  0  0  0  0  0  0  0  0  0  0  0
   46.6770   30.5650   44.8780 C   0  0  0  0  0  0  0  0  0  0  0  0
   48.0740   30.5000   44.7670 C   0  0  0  0  0  3  0  0  0  0  0  0
   48.7980   29.9480   43.7060 C   0  0  0  0  0  0  0  0  0  0  0  0
   49.8770   29.9750   43.7690 H   0  0  0  0  0  0  0  0  0  0  0  0
   48.0420   29.4510   42.7380 N   0  0  0  0  0  0  0  0  0  0  0  0
   46.7030   29.4910   42.8000 C   0  0  0  0  0  3  0  0  0  0  0  0
   46.0440   30.0230   43.8220 N   0  0  0  0  0  0  0  0  0  0  0  0
   44.5100   35.2770   42.0610 C   0  0  0  0  0  0  0  0  0  0  0  0
   43.4560   34.4770   42.4360 F   0  0  0  0  0  0  0  0  0  0  0  0
   43.9730   36.5160   41.7240 F   0  0  0  0  0  0  0  0  0  0  0  0
   45.1840   34.8140   40.9470 F   0  0  0  0  0  0  0  0  0  0  0  0
  1  2  1  0  0  0  0
  1  7  1  1  0  0  0
  1 16  1  0  0  0  0
  2  8  1  0  0  0  0
  3  9  1  0  0  0  0
  3  2  2  0  0  0  0
  4 10  1  6  0  0  0
  4  3  1  0  0  0  0
  5  4  1  0  0  0  0
  5 11  1  0  0  0  0
  5  6  1  0  0  0  0
  6  1  1  0  0  0  0
 12  5  1  0  0  0  0
 13  6  1  0  0  0  0
 14  6  1  0  0  0  0
 15 22  1  0  0  0  0
 15 20  1  0  0  0  0
 16 15  2  0  0  0  0
 17 16  1  0  0  0  0
 17 18  2  0  0  0  0
 18 19  1  0  0  0  0
 19 20  2  0  0  0  0
 19 21  1  0  0  0  0
 21 23  1  0  0  0  0
 24 21  1  0  0  0  0
 25 17  1  0  0  0  0
 26 25  1  0  0  0  0
 27 28  1  0  0  0  0
 27 26  2  0  0  0  0
 29 30  2  0  0  0  0
 29 27  1  0  0  0  0
 30 31  1  0  0  0  0
 31 25  2  0  0  0  0
 32 33  1  0  0  0  0
 32  4  1  0  0  0  0
 34 32  1  0  0  0  0
 35 32  1  0  0  0  0
M  END
>  <minimizedAffinity>
-5.65361881

>  <minimizedRMSD>
0.256554872

$$$$
