
 OpenBabel03232519493D

 41 44  0  0  1  0  0  0  0  0999 V2000
   46.6950   33.9590   42.5260 N   0  0  0  0  0  0  0  0  0  0  0  0
   48.0150   34.3670   42.0550 C   0  0  0  0  0  0  0  0  0  0  0  0
   47.6920   34.6870   40.6080 C   0  0  0  0  0  0  0  0  0  0  0  0
   46.9420   33.4350   40.2230 C   0  0  0  0  0  0  0  0  0  0  0  0
   46.1130   33.1610   41.4360 C   0  0  2  0  0  0  0  0  0  0  0  0
   48.3570   35.2940   42.5640 H   0  0  0  0  0  0  0  0  0  0  0  0
   48.7510   33.5630   42.0900 H   0  0  0  0  0  0  0  0  0  0  0  0
   47.0370   35.5570   40.5090 H   0  0  0  0  0  0  0  0  0  0  0  0
   48.6090   34.8430   39.9900 H   0  0  0  0  0  0  0  0  0  0  0  0
   46.2610   33.6850   39.3860 H   0  0  0  0  0  0  0  0  0  0  0  0
   47.6570   32.6620   39.9430 H   0  0  0  0  0  0  0  0  0  0  0  0
   46.3740   32.1130   41.7200 H   0  0  0  0  0  0  0  0  0  0  0  0
   44.7160   33.3080   41.2870 N   0  0  0  0  0  0  0  0  0  0  0  0
   44.0580   34.2340   40.5850 C   0  0  0  0  0  0  0  0  0  0  0  0
   42.6780   34.2870   40.5080 C   0  0  0  0  0  0  0  0  0  0  0  0
   41.9150   33.3460   41.1800 C   0  0  0  0  0  0  0  0  0  0  0  0
   40.6420   33.3410   41.1470 O   0  0  0  0  0  0  0  0  0  0  0  0
   42.5840   32.4170   41.8840 N   0  0  0  0  0  0  0  0  0  0  0  0
   43.9070   32.4110   41.9260 C   0  0  0  0  0  0  0  0  0  0  0  0
   44.4350   31.4860   42.6230 O   0  0  0  0  0  0  0  0  0  0  0  0
   44.6720   34.9690   40.0610 H   0  0  0  0  0  0  0  0  0  0  0  0
   42.0110   31.7130   42.3860 H   0  0  0  0  0  0  0  0  0  0  0  0
   41.9720   35.3200   39.7260 C   0  0  0  0  0  0  0  0  0  0  0  0
   41.5150   34.9660   38.8020 H   0  0  0  0  0  0  0  0  0  0  0  0
   41.1840   35.7460   40.3940 H   0  0  0  0  0  0  0  0  0  0  0  0
   42.6900   36.1720   39.5800 H   0  0  0  0  0  0  0  0  0  0  0  0
   44.5790   35.5270   45.1430 C   0  0  0  0  0  0  0  0  0  0  0  0
   45.1780   35.3130   43.8930 C   0  0  0  0  0  0  0  0  0  0  0  0
   46.0650   34.2330   43.7330 C   0  0  0  0  0  0  0  0  0  0  0  0
   46.2810   33.4550   44.8300 N   0  0  0  0  0  0  0  0  0  0  0  0
   45.7000   33.6680   46.0270 C   0  0  0  0  0  0  0  0  0  0  0  0
   44.8580   34.6990   46.1720 N   0  0  0  0  0  0  0  0  0  0  0  0
   43.9070   36.3690   45.2110 H   0  0  0  0  0  0  0  0  0  0  0  0
   45.0200   35.9150   43.0150 H   0  0  0  0  0  0  0  0  0  0  0  0
   45.9810   32.7910   47.1590 C   0  0  0  0  0  0  0  0  0  0  0  0
   45.0020   32.3150   47.9800 C   0  0  0  0  0  0  0  0  0  0  0  0
   45.3460   31.4910   49.0270 C   0  0  0  0  0  0  0  0  0  0  0  0
   44.6020   31.0970   49.6940 H   0  0  0  0  0  0  0  0  0  0  0  0
   46.6350   31.1610   49.2380 N   0  0  0  0  0  0  0  0  0  0  0  0
   47.6190   31.6260   48.4340 C   0  0  0  0  0  0  0  0  0  0  0  0
   47.2460   32.4220   47.4300 N   0  0  0  0  0  0  0  0  0  0  0  0
  1 29  1  0  0  0  0
  2  7  1  0  0  0  0
  2  1  1  0  0  0  0
  2  6  1  0  0  0  0
  3  2  1  0  0  0  0
  4  3  1  0  0  0  0
  4  5  1  0  0  0  0
  5 12  1  1  0  0  0
  5  1  1  0  0  0  0
  8  3  1  0  0  0  0
  9  3  1  0  0  0  0
 10  4  1  0  0  0  0
 11  4  1  0  0  0  0
 13  5  1  0  0  0  0
 13 19  1  0  0  0  0
 14 13  1  0  0  0  0
 15 14  2  0  0  0  0
 15 16  1  0  0  0  0
 16 18  1  0  0  0  0
 17 16  2  0  0  0  0
 18 19  1  0  0  0  0
 18 22  1  0  0  0  0
 19 20  2  0  0  0  0
 21 14  1  0  0  0  0
 23 25  1  0  0  0  0
 23 15  1  0  0  0  0
 24 23  1  0  0  0  0
 26 23  1  0  0  0  0
 27 33  1  0  0  0  0
 27 32  1  0  0  0  0
 28 27  2  0  0  0  0
 29 28  1  0  0  0  0
 29 30  2  0  0  0  0
 30 31  1  0  0  0  0
 31 32  2  0  0  0  0
 31 35  1  0  0  0  0
 34 28  1  0  0  0  0
 35 41  2  0  0  0  0
 35 36  1  0  0  0  0
 36 37  2  0  0  0  0
 37 39  1  0  0  0  0
 37 38  1  0  0  0  0
 40 39  2  0  0  0  0
 41 40  1  0  0  0  0
M  END
>  <minimizedAffinity>
-6.8714385

>  <minimizedRMSD>
0.934442043

$$$$
