
 OpenBabel03232516273D

 33 35  0  0  0  0  0  0  0  0999 V2000
   46.2760   33.9730   41.6720 C   0  0  0  0  0  0  0  0  0  0  0  0
   45.4390   34.0030   45.2390 C   0  0  0  0  0  0  0  0  0  0  0  0
   44.7870   35.2440   45.4150 C   0  0  0  0  0  0  0  0  0  0  0  0
   44.6390   36.0740   44.2820 C   0  0  0  0  0  0  0  0  0  0  0  0
   45.1410   35.6170   43.0840 N   0  0  0  0  0  0  0  0  0  0  0  0
   45.7540   34.4170   42.9850 C   0  0  0  0  0  0  0  0  0  0  0  0
   45.9010   33.6210   44.0470 N   0  0  0  0  0  0  0  0  0  0  0  0
   45.5570   33.3560   46.1070 H   0  0  0  0  0  0  0  0  0  0  0  0
   44.4170   35.5440   46.3790 H   0  0  0  0  0  0  0  0  0  0  0  0
   44.1530   37.0250   44.3590 H   0  0  0  0  0  0  0  0  0  0  0  0
   45.1870   34.1110   40.6220 C   0  0  0  0  0  0  0  0  0  0  0  0
   44.1720   34.1500   41.1130 H   0  0  0  0  0  0  0  0  0  0  0  0
   45.2140   33.3020   39.8670 H   0  0  0  0  0  0  0  0  0  0  0  0
   45.2940   35.0800   40.0880 H   0  0  0  0  0  0  0  0  0  0  0  0
   46.6120   32.4900   41.7270 C   0  0  0  0  0  0  0  0  0  0  0  0
   45.7500   31.9670   42.2100 H   0  0  0  0  0  0  0  0  0  0  0  0
   46.7490   32.0500   40.7360 H   0  0  0  0  0  0  0  0  0  0  0  0
   47.4930   32.3790   42.3780 H   0  0  0  0  0  0  0  0  0  0  0  0
   47.4620   34.7640   41.1990 C   0  0  0  0  0  0  0  0  0  0  0  0
   47.3510   35.8340   41.4400 H   0  0  0  0  0  0  0  0  0  0  0  0
   47.4920   34.6570   40.0920 H   0  0  0  0  0  0  0  0  0  0  0  0
   48.7490   34.3160   41.7200 C   0  0  0  0  0  0  0  0  0  0  0  0
   49.6100   34.7820   42.6280 N   0  0  0  0  0  0  0  0  0  0  0  0
   50.6580   33.9960   42.7450 O   0  0  0  0  0  0  0  0  0  0  0  0
   50.5160   32.9840   41.9120 C   0  0  0  0  0  0  0  0  0  0  0  0
   49.3500   33.1800   41.2870 N   0  0  0  0  0  0  0  0  0  0  0  0
   51.3530   31.8180   41.6110 C   0  0  0  0  0  0  0  0  0  0  0  0
   52.0690   31.6500   40.4430 C   0  0  0  0  0  0  0  0  0  0  0  0
   52.8190   30.5040   40.2820 C   0  0  0  0  0  0  0  0  0  0  0  0
   53.3650   30.4120   39.3530 H   0  0  0  0  0  0  0  0  0  0  0  0
   52.8300   29.5890   41.2660 N   0  0  0  0  0  0  0  0  0  0  0  0
   52.1160   29.7680   42.4170 C   0  0  0  0  0  0  0  0  0  0  0  0
   51.3670   30.8850   42.6060 N   0  0  0  0  0  0  0  0  0  0  0  0
  1 15  1  0  0  0  0
  1  6  1  0  0  0  0
  2  3  1  0  0  0  0
  2  8  1  0  0  0  0
  3  9  1  0  0  0  0
  4 10  1  0  0  0  0
  4  3  2  0  0  0  0
  5  4  1  0  0  0  0
  6  5  2  0  0  0  0
  6  7  1  0  0  0  0
  7  2  2  0  0  0  0
 11 12  1  0  0  0  0
 11  1  1  0  0  0  0
 13 11  1  0  0  0  0
 14 11  1  0  0  0  0
 15 16  1  0  0  0  0
 15 18  1  0  0  0  0
 17 15  1  0  0  0  0
 19 20  1  0  0  0  0
 19  1  1  0  0  0  0
 19 22  1  0  0  0  0
 21 19  1  0  0  0  0
 22 23  2  0  0  0  0
 23 24  1  0  0  0  0
 25 24  1  0  0  0  0
 26 22  1  0  0  0  0
 26 25  2  0  0  0  0
 27 25  1  0  0  0  0
 27 33  1  0  0  0  0
 28 27  2  0  0  0  0
 29 28  1  0  0  0  0
 29 31  2  0  0  0  0
 30 29  1  0  0  0  0
 31 32  1  0  0  0  0
 32 33  2  0  0  0  0
M  END
>  <minimizedAffinity>
-4.89184093

>  <minimizedRMSD>
1.80180955

$$$$
