
 OpenBabel03232520513D

 30 32  0  0  1  0  0  0  0  0999 V2000
   47.9620   31.5910   47.2970 C   0  0  2  0  0  0  0  0  0  0  0  0
   46.8370   32.3490   47.9670 C   0  0  0  0  0  0  0  0  0  0  0  0
   45.7260   32.7560   47.1330 C   0  0  0  0  0  0  0  0  0  0  0  0
   45.7130   32.4330   45.6970 C   0  0  2  0  0  0  0  0  0  0  0  0
   46.9500   31.8230   45.1460 C   0  0  0  0  0  0  0  0  0  0  0  0
   47.4670   30.8000   46.1270 C   0  0  0  0  0  0  0  0  0  0  0  0
   48.6550   32.4060   46.9690 H   0  0  0  0  0  0  0  0  0  0  0  0
   46.7100   32.6470   48.9790 H   0  0  0  0  0  0  0  0  0  0  0  0
   44.9070   33.2910   47.5500 H   0  0  0  0  0  0  0  0  0  0  0  0
   44.8440   31.7700   45.5040 H   0  0  0  0  0  0  0  0  0  0  0  0
   47.7510   32.5770   44.9340 H   0  0  0  0  0  0  0  0  0  0  0  0
   46.7030   31.2870   44.2150 H   0  0  0  0  0  0  0  0  0  0  0  0
   46.6080   30.1770   46.4190 H   0  0  0  0  0  0  0  0  0  0  0  0
   48.3070   30.2290   45.6880 H   0  0  0  0  0  0  0  0  0  0  0  0
   49.1520   31.4250   49.4660 C   0  0  0  0  0  0  0  0  0  0  0  0
   48.6780   30.8060   48.3100 C   0  0  0  0  0  0  0  0  0  0  0  0
   48.9390   29.4160   48.1720 C   0  0  0  0  0  0  0  0  0  0  0  0
   49.6210   28.7730   49.1490 N   0  0  0  0  0  0  0  0  0  0  0  0
   50.0630   29.4170   50.2590 C   0  0  0  0  0  0  0  0  0  0  0  0
   49.8200   30.7410   50.4020 N   0  0  0  0  0  0  0  0  0  0  0  0
   49.0120   32.4750   49.6780 H   0  0  0  0  0  0  0  0  0  0  0  0
   48.6030   28.8730   47.3040 H   0  0  0  0  0  0  0  0  0  0  0  0
   50.6060   28.8800   51.0270 H   0  0  0  0  0  0  0  0  0  0  0  0
   45.5140   33.7470   44.9890 C   0  0  0  0  0  0  0  0  0  0  0  0
   44.8110   34.8070   45.5250 C   0  0  0  0  0  0  0  0  0  0  0  0
   44.7100   35.9590   44.7560 C   0  0  0  0  0  0  0  0  0  0  0  0
   44.1440   36.7640   45.2270 H   0  0  0  0  0  0  0  0  0  0  0  0
   45.2730   36.0330   43.5410 N   0  0  0  0  0  0  0  0  0  0  0  0
   45.9480   34.9730   43.0630 C   0  0  0  0  0  0  0  0  0  0  0  0
   46.0920   33.8110   43.7540 N   0  0  0  0  0  0  0  0  0  0  0  0
  1  7  1  6  0  0  0
  1  2  1  0  0  0  0
  1 16  1  0  0  0  0
  2  8  1  0  0  0  0
  3  9  1  0  0  0  0
  3  2  2  0  0  0  0
  4 10  1  6  0  0  0
  4  3  1  0  0  0  0
  5  4  1  0  0  0  0
  5  6  1  0  0  0  0
  6 13  1  0  0  0  0
  6  1  1  0  0  0  0
 11  5  1  0  0  0  0
 12  5  1  0  0  0  0
 14  6  1  0  0  0  0
 15 21  1  0  0  0  0
 15 20  1  0  0  0  0
 16 15  2  0  0  0  0
 17 16  1  0  0  0  0
 17 18  2  0  0  0  0
 18 19  1  0  0  0  0
 19 20  2  0  0  0  0
 19 23  1  0  0  0  0
 22 17  1  0  0  0  0
 24 25  1  0  0  0  0
 24  4  1  0  0  0  0
 26 27  1  0  0  0  0
 26 25  2  0  0  0  0
 28 26  1  0  0  0  0
 29 28  2  0  0  0  0
 29 30  1  0  0  0  0
 30 24  2  0  0  0  0
M  END
>  <minimizedAffinity>
-4.66662598

>  <minimizedRMSD>
4.3272295

$$$$
