
 OpenBabel03232515373D

 38 41  0  0  1  0  0  0  0  0999 V2000
   46.5840   34.0660   40.6460 C   0  0  2  0  0  0  0  0  0  0  0  0
   46.5380   34.7790   39.7540 H   0  0  0  0  0  0  0  0  0  0  0  0
   48.4720   35.3990   41.4970 C   0  0  0  0  0  0  0  0  0  0  0  0
   47.8240   34.2140   41.2900 C   0  0  0  0  0  0  0  0  0  0  0  0
   48.4960   33.0790   41.7380 C   0  0  0  0  0  0  0  0  0  0  0  0
   49.7120   33.1340   42.3390 N   0  0  0  0  0  0  0  0  0  0  0  0
   50.2820   34.3730   42.5010 C   0  0  0  0  0  0  0  0  0  0  0  0
   49.6700   35.4760   42.0870 N   0  0  0  0  0  0  0  0  0  0  0  0
   47.9910   36.3120   41.1650 H   0  0  0  0  0  0  0  0  0  0  0  0
   48.2410   32.0290   41.7270 H   0  0  0  0  0  0  0  0  0  0  0  0
   51.2550   34.5530   42.9690 H   0  0  0  0  0  0  0  0  0  0  0  0
   45.4230   34.6440   41.4760 C   0  0  0  0  0  0  0  0  0  0  0  0
   44.1500   34.8000   40.8890 C   0  0  0  0  0  0  0  0  0  0  0  0
   43.4140   35.3410   41.9400 C   0  0  0  0  0  0  0  0  0  0  0  0
   44.2620   35.4750   43.0680 C   0  0  0  0  0  0  0  0  0  0  0  0
   45.4450   35.0430   42.7280 O   0  0  0  0  0  0  0  0  0  0  0  0
   43.8640   34.5580   39.8970 H   0  0  0  0  0  0  0  0  0  0  0  0
   42.3700   35.6100   41.8970 H   0  0  0  0  0  0  0  0  0  0  0  0
   43.9590   35.8680   44.0300 H   0  0  0  0  0  0  0  0  0  0  0  0
   46.2700   32.7380   40.1300 C   0  0  0  0  0  0  0  0  0  0  0  0
   45.2620   32.4220   40.4890 H   0  0  0  0  0  0  0  0  0  0  0  0
   46.9390   31.9150   40.4370 H   0  0  0  0  0  0  0  0  0  0  0  0
   46.3380   32.7050   38.6730 N   0  0  0  0  0  0  0  0  0  0  0  0
   45.3070   33.1160   37.9490 N   0  0  0  0  0  0  0  0  0  0  0  0
   45.5170   33.0220   36.6540 C   0  0  0  0  0  0  0  0  0  0  0  0
   46.7600   32.5200   36.4930 C   0  0  0  0  0  0  0  0  0  0  0  0
   47.2270   32.3410   37.7730 C   0  0  0  0  0  0  0  0  0  0  0  0
   44.7780   33.3140   35.8910 H   0  0  0  0  0  0  0  0  0  0  0  0
   47.4390   32.2360   35.2490 C   0  0  0  0  0  0  0  0  0  0  0  0
   48.6070   32.8100   34.7990 C   0  0  0  0  0  0  0  0  0  0  0  0
   49.1970   32.4870   33.5980 C   0  0  0  0  0  0  0  0  0  0  0  0
   50.1300   33.0000   33.3240 H   0  0  0  0  0  0  0  0  0  0  0  0
   48.6240   31.5720   32.8070 N   0  0  0  0  0  0  0  0  0  0  0  0
   47.4860   31.0020   33.2280 C   0  0  0  0  0  0  0  0  0  0  0  0
   46.9200   31.3220   34.4010 N   0  0  0  0  0  0  0  0  0  0  0  0
   48.5100   31.8340   38.2010 N   0  0  0  0  0  0  0  0  0  0  0  0
   49.2820   32.5040   38.4590 H   0  0  0  0  0  0  0  0  0  0  0  0
   48.9010   30.8710   38.3310 H   0  0  0  0  0  0  0  0  0  0  0  0
  1  2  1  6  0  0  0
  1  4  1  0  0  0  0
  1 12  1  0  0  0  0
  3  8  1  0  0  0  0
  4  3  2  0  0  0  0
  4  5  1  0  0  0  0
  5  6  2  0  0  0  0
  6  7  1  0  0  0  0
  7 11  1  0  0  0  0
  8  7  2  0  0  0  0
  9  3  1  0  0  0  0
 10  5  1  0  0  0  0
 12 16  1  0  0  0  0
 13 12  2  0  0  0  0
 13 14  1  0  0  0  0
 14 15  2  0  0  0  0
 15 19  1  0  0  0  0
 16 15  1  0  0  0  0
 17 13  1  0  0  0  0
 18 14  1  0  0  0  0
 20 22  1  0  0  0  0
 20 21  1  0  0  0  0
 20  1  1  0  0  0  0
 23 20  1  0  0  0  0
 24 23  1  0  0  0  0
 25 24  2  0  0  0  0
 26 25  1  0  0  0  0
 26 27  2  0  0  0  0
 27 36  1  0  0  0  0
 27 23  1  0  0  0  0
 28 25  1  0  0  0  0
 29 26  1  0  0  0  0
 30 29  1  0  0  0  0
 31 30  2  0  0  0  0
 32 31  1  0  0  0  0
 33 34  2  0  0  0  0
 33 31  1  0  0  0  0
 34 35  1  0  0  0  0
 35 29  2  0  0  0  0
 36 38  1  0  0  0  0
 36 37  1  0  0  0  0
M  END
>  <minimizedAffinity>
-5.18425512

>  <minimizedRMSD>
0.608961761

$$$$
