
 OpenBabel03232520583D

 35 37  0  0  1  0  0  0  0  0999 V2000
   46.1050   33.5850   45.2880 C   0  0  2  0  0  0  0  0  0  0  0  0
   44.9750   34.6800   45.5160 C   0  0  0  0  0  0  0  0  0  0  0  0
   44.7450   35.6190   44.4470 C   0  0  0  0  0  0  0  0  0  0  0  0
   45.5140   35.5440   43.2210 C   0  0  1  0  0  0  0  0  0  0  0  0
   46.5960   34.5350   43.1700 C   0  0  0  0  0  0  0  0  0  0  0  0
   46.1050   33.2910   43.8960 C   0  0  0  0  0  0  0  0  0  0  0  0
   46.9470   34.2660   45.6240 H   0  0  0  0  0  0  0  0  0  0  0  0
   44.2850   34.9170   46.3240 H   0  0  0  0  0  0  0  0  0  0  0  0
   44.0070   36.3820   44.5230 H   0  0  0  0  0  0  0  0  0  0  0  0
   45.9690   36.5510   43.0260 H   0  0  0  0  0  0  0  0  0  0  0  0
   47.4840   34.8790   43.7520 H   0  0  0  0  0  0  0  0  0  0  0  0
   46.8820   34.3140   42.1430 H   0  0  0  0  0  0  0  0  0  0  0  0
   46.5720   32.5070   43.3740 H   0  0  0  0  0  0  0  0  0  0  0  0
   44.9980   33.2260   43.5570 H   0  0  0  0  0  0  0  0  0  0  0  0
   45.3570   32.8520   47.5280 C   0  0  0  0  0  0  0  0  0  0  0  0
   45.8710   32.5930   46.2900 C   0  0  0  0  0  0  0  0  0  0  0  0
   46.1200   31.2480   46.0120 C   0  0  0  0  0  0  0  0  0  0  0  0
   45.8670   30.2720   46.9030 N   0  0  0  0  0  0  0  0  0  0  0  0
   45.3510   30.5740   48.1420 C   0  0  0  0  0  0  0  0  0  0  0  0
   45.1050   31.8480   48.4330 N   0  0  0  0  0  0  0  0  0  0  0  0
   45.1250   29.5430   49.1030 N   0  0  0  0  0  0  0  0  0  0  0  0
   45.1350   33.8520   47.8370 H   0  0  0  0  0  0  0  0  0  0  0  0
   45.7510   29.6390   49.9480 H   0  0  0  0  0  0  0  0  0  0  0  0
   44.4450   28.7810   49.0210 H   0  0  0  0  0  0  0  0  0  0  0  0
   46.6980   30.5660   44.8610 C   0  0  0  0  0  0  0  0  0  0  0  0
   48.0950   30.5000   44.7600 C   0  0  0  0  0  3  0  0  0  0  0  0
   48.8270   29.9560   43.7010 C   0  0  0  0  0  0  0  0  0  0  0  0
   49.9050   29.9810   43.7730 H   0  0  0  0  0  0  0  0  0  0  0  0
   48.0780   29.4700   42.7230 N   0  0  0  0  0  0  0  0  0  0  0  0
   46.7380   29.5100   42.7740 C   0  0  0  0  0  3  0  0  0  0  0  0
   46.0720   30.0350   43.7950 N   0  0  0  0  0  0  0  0  0  0  0  0
   44.5170   35.2890   42.0630 C   0  0  0  0  0  0  0  0  0  0  0  0
   43.4550   34.4980   42.4360 F   0  0  0  0  0  0  0  0  0  0  0  0
   43.9900   36.5320   41.7210 F   0  0  0  0  0  0  0  0  0  0  0  0
   45.1920   34.8180   40.9520 F   0  0  0  0  0  0  0  0  0  0  0  0
  1  2  1  0  0  0  0
  1  7  1  1  0  0  0
  1 16  1  0  0  0  0
  2  8  1  0  0  0  0
  3  9  1  0  0  0  0
  3  2  2  0  0  0  0
  4 10  1  6  0  0  0
  4  3  1  0  0  0  0
  5  4  1  0  0  0  0
  5 11  1  0  0  0  0
  5  6  1  0  0  0  0
  6  1  1  0  0  0  0
 12  5  1  0  0  0  0
 13  6  1  0  0  0  0
 14  6  1  0  0  0  0
 15 22  1  0  0  0  0
 15 20  1  0  0  0  0
 16 15  2  0  0  0  0
 17 16  1  0  0  0  0
 17 18  2  0  0  0  0
 18 19  1  0  0  0  0
 19 20  2  0  0  0  0
 19 21  1  0  0  0  0
 21 23  1  0  0  0  0
 24 21  1  0  0  0  0
 25 17  1  0  0  0  0
 26 25  1  0  0  0  0
 27 28  1  0  0  0  0
 27 26  2  0  0  0  0
 29 30  2  0  0  0  0
 29 27  1  0  0  0  0
 30 31  1  0  0  0  0
 31 25  2  0  0  0  0
 32 33  1  0  0  0  0
 32  4  1  0  0  0  0
 34 32  1  0  0  0  0
 35 32  1  0  0  0  0
M  END
>  <minimizedAffinity>
-5.64495277

>  <minimizedRMSD>
0.45925343

$$$$
