
 OpenBabel03232515403D

 27 29  0  0  0  0  0  0  0  0999 V2000
   46.5710   34.1970   40.7610 C   0  0  0  0  0  0  0  0  0  0  0  0
   47.2330   33.5240   39.7360 C   0  0  0  0  0  0  0  0  0  0  0  0
   46.4320   32.9940   38.7390 C   0  0  0  0  0  0  0  0  0  0  0  0
   45.1200   33.0820   38.6990 N   0  0  0  0  0  0  0  0  0  0  0  0
   44.5040   33.7450   39.7140 C   0  0  0  0  0  0  0  0  0  0  0  0
   45.2160   34.2910   40.7240 N   0  0  0  0  0  0  0  0  0  0  0  0
   48.2990   33.4620   39.7850 H   0  0  0  0  0  0  0  0  0  0  0  0
   46.9160   32.4710   37.9360 H   0  0  0  0  0  0  0  0  0  0  0  0
   43.0500   33.8710   39.7180 C   0  0  0  0  0  0  0  0  0  0  0  0
   42.4670   35.1020   39.9360 C   0  0  0  0  0  0  0  0  0  0  0  0
   41.1010   35.2910   39.9520 C   0  0  0  0  0  0  0  0  0  0  0  0
   40.6120   36.2430   40.1210 H   0  0  0  0  0  0  0  0  0  0  0  0
   40.2960   34.2310   39.7470 N   0  0  0  0  0  0  0  0  0  0  0  0
   40.8610   33.0110   39.5300 C   0  0  0  0  0  0  0  0  0  0  0  0
   42.2000   32.8480   39.5180 N   0  0  0  0  0  0  0  0  0  0  0  0
   47.3070   34.7690   41.8180 O   0  0  0  0  0  0  0  0  0  0  0  0
   47.8290   33.9240   42.8150 C   0  0  0  0  0  0  0  0  0  0  0  0
   48.9400   33.3890   42.6420 O   0  0  0  0  0  0  0  0  0  0  0  0
   45.9340   34.6410   44.3370 C   0  0  0  0  0  0  0  0  0  0  0  0
   46.9710   33.7560   44.0030 C   0  0  0  0  0  0  0  0  0  0  0  0
   47.2420   32.6370   44.8100 C   0  0  0  0  0  0  0  0  0  0  0  0
   46.4550   32.4610   45.9220 N   0  0  0  0  0  0  0  0  0  0  0  0
   45.4700   33.3350   46.2040 C   0  0  0  0  0  0  0  0  0  0  0  0
   45.2140   34.3890   45.4440 N   0  0  0  0  0  0  0  0  0  0  0  0
   45.8150   35.4580   43.6520 H   0  0  0  0  0  0  0  0  0  0  0  0
   48.0370   31.9440   44.5690 H   0  0  0  0  0  0  0  0  0  0  0  0
   44.8970   33.1170   47.1060 H   0  0  0  0  0  0  0  0  0  0  0  0
  1 16  1  0  0  0  0
  2  7  1  0  0  0  0
  2  1  2  0  0  0  0
  3  2  1  0  0  0  0
  4  3  2  0  0  0  0
  4  5  1  0  0  0  0
  5  9  1  0  0  0  0
  5  6  2  0  0  0  0
  6  1  1  0  0  0  0
  8  3  1  0  0  0  0
  9 10  1  0  0  0  0
 10 11  2  0  0  0  0
 11 12  1  0  0  0  0
 13 11  1  0  0  0  0
 14 13  2  0  0  0  0
 15 14  1  0  0  0  0
 15  9  2  0  0  0  0
 16 17  1  0  0  0  0
 17 20  1  0  0  0  0
 18 17  2  0  0  0  0
 19 24  1  0  0  0  0
 20 19  2  0  0  0  0
 20 21  1  0  0  0  0
 21 22  2  0  0  0  0
 22 23  1  0  0  0  0
 23 27  1  0  0  0  0
 24 23  2  0  0  0  0
 25 19  1  0  0  0  0
 26 21  1  0  0  0  0
M  END
>  <minimizedAffinity>
-4.41134024

>  <minimizedRMSD>
6.94226217

$$$$
