
 OpenBabel03232518183D

 29 31  0  0  1  0  0  0  0  0999 V2000
   43.8620   34.9940   41.6980 C   0  0  2  0  0  0  0  0  0  0  0  0
   42.3500   34.6830   41.5470 C   0  0  0  0  0  0  0  0  0  0  0  0
   42.2540   35.1170   40.0700 C   0  0  1  0  0  0  0  0  0  0  0  0
   43.3990   34.3110   39.4840 C   0  0  0  0  0  0  0  0  0  0  0  0
   44.4120   34.1810   40.6100 C   0  0  0  0  0  0  0  0  0  0  0  0
   43.8880   36.0950   41.4840 H   0  0  0  0  0  0  0  0  0  0  0  0
   41.7430   35.3030   42.2070 H   0  0  0  0  0  0  0  0  0  0  0  0
   42.1850   33.5860   41.6540 H   0  0  0  0  0  0  0  0  0  0  0  0
   42.4810   36.1830   40.0450 H   0  0  0  0  0  0  0  0  0  0  0  0
   43.8390   34.9310   38.6860 H   0  0  0  0  0  0  0  0  0  0  0  0
   43.0590   33.3350   39.1030 H   0  0  0  0  0  0  0  0  0  0  0  0
   45.4250   34.4790   40.2660 H   0  0  0  0  0  0  0  0  0  0  0  0
   44.3880   33.1130   40.9110 H   0  0  0  0  0  0  0  0  0  0  0  0
   44.1850   35.7440   44.0040 C   0  0  0  0  0  0  0  0  0  0  0  0
   44.3700   34.7150   43.0430 C   0  0  0  0  0  0  0  0  0  0  0  0
   45.0410   33.5130   43.4140 C   0  0  0  0  0  0  0  0  0  0  0  0
   45.4760   33.4190   44.6980 N   0  0  0  0  0  0  0  0  0  0  0  0
   45.2870   34.4200   45.6030 C   0  0  0  0  0  0  0  0  0  0  0  0
   44.6490   35.5740   45.2660 N   0  0  0  0  0  0  0  0  0  0  0  0
   43.6780   36.6520   43.7230 H   0  0  0  0  0  0  0  0  0  0  0  0
   45.1580   32.7670   42.6580 H   0  0  0  0  0  0  0  0  0  0  0  0
   45.6650   34.2640   46.6090 H   0  0  0  0  0  0  0  0  0  0  0  0
   40.9600   34.7830   39.4800 C   0  0  0  0  0  0  0  0  0  0  0  0
   40.7600   34.7970   38.1170 C   0  0  0  0  0  0  0  0  0  0  0  0
   39.4970   34.4650   37.6450 C   0  0  0  0  0  0  0  0  0  0  0  0
   39.2830   34.4610   36.5690 H   0  0  0  0  0  0  0  0  0  0  0  0
   38.4880   34.1350   38.4980 N   0  0  0  0  0  0  0  0  0  0  0  0
   38.7100   34.1290   39.8310 C   0  0  0  0  0  0  0  0  0  0  0  0
   39.9340   34.4500   40.2960 N   0  0  0  0  0  0  0  0  0  0  0  0
  1  6  1  6  0  0  0
  1 15  1  0  0  0  0
  2  8  1  0  0  0  0
  2  1  1  0  0  0  0
  2  7  1  0  0  0  0
  3  9  1  6  0  0  0
  3  2  1  0  0  0  0
  4  3  1  0  0  0  0
  4  5  1  0  0  0  0
  5 13  1  0  0  0  0
  5  1  1  0  0  0  0
 10  4  1  0  0  0  0
 11  4  1  0  0  0  0
 12  5  1  0  0  0  0
 14 19  1  0  0  0  0
 15 16  1  0  0  0  0
 15 14  2  0  0  0  0
 16 17  2  0  0  0  0
 17 18  1  0  0  0  0
 18 22  1  0  0  0  0
 19 18  2  0  0  0  0
 20 14  1  0  0  0  0
 21 16  1  0  0  0  0
 23  3  1  0  0  0  0
 23 29  1  0  0  0  0
 24 23  2  0  0  0  0
 25 24  1  0  0  0  0
 25 27  2  0  0  0  0
 26 25  1  0  0  0  0
 27 28  1  0  0  0  0
 28 29  2  0  0  0  0
M  END
>  <minimizedAffinity>
-5.09709215

>  <minimizedRMSD>
0.846541762

$$$$
