
 OpenBabel03232509563D

 42 46  0  0  1  0  0  0  0  0999 V2000
   47.3100   34.9100   41.8830 C   0  0  0  0  0  0  0  0  0  0  0  0
   48.5400   35.5670   41.7780 C   0  0  0  0  0  0  0  0  0  0  0  0
   49.0270   35.3850   40.5360 N   0  0  0  0  0  0  0  0  0  0  0  0
   48.1350   34.6340   39.8620 C   0  0  0  0  0  0  0  0  0  0  0  0
   48.1660   34.1780   38.5560 C   0  0  0  0  0  0  0  0  0  0  0  0
   47.1260   33.4310   38.1080 C   0  0  0  0  0  0  0  0  0  0  0  0
   46.0110   33.0820   38.8740 C   0  0  0  0  0  0  0  0  0  0  0  0
   46.0480   33.5720   40.1710 C   0  0  0  0  0  0  0  0  0  0  0  0
   47.0490   34.3170   40.6710 C   0  0  0  0  0  0  0  0  0  0  0  0
   49.0170   36.1280   42.5700 H   0  0  0  0  0  0  0  0  0  0  0  0
   49.9350   35.7610   40.1640 H   0  0  0  0  0  0  0  0  0  0  0  0
   49.0220   34.4370   37.9440 H   0  0  0  0  0  0  0  0  0  0  0  0
   47.2260   33.1100   37.0660 H   0  0  0  0  0  0  0  0  0  0  0  0
   45.2950   32.4940   38.3360 H   0  0  0  0  0  0  0  0  0  0  0  0
   44.8860   33.1520   40.8990 N   0  0  0  0  0  0  0  0  0  0  0  0
   43.5160   33.5320   41.1230 C   0  0  0  0  0  0  0  0  0  0  0  0
   42.8550   32.3100   41.7030 C   0  0  0  0  0  0  0  0  0  0  0  0
   43.9650   31.8630   42.6350 C   0  0  0  0  0  0  0  0  0  0  0  0
   45.1470   31.9420   41.6790 C   0  0  1  0  0  0  0  0  0  0  0  0
   43.0580   33.6630   40.0990 H   0  0  0  0  0  0  0  0  0  0  0  0
   43.3030   34.4200   41.6710 H   0  0  0  0  0  0  0  0  0  0  0  0
   42.6360   31.5210   40.9770 H   0  0  0  0  0  0  0  0  0  0  0  0
   41.9520   32.5730   42.3170 H   0  0  0  0  0  0  0  0  0  0  0  0
   44.0660   32.4270   43.5440 H   0  0  0  0  0  0  0  0  0  0  0  0
   43.8200   30.7610   42.8390 H   0  0  0  0  0  0  0  0  0  0  0  0
   46.0450   32.0240   42.3210 H   0  0  0  0  0  0  0  0  0  0  0  0
   45.2370   30.7120   40.8630 C   0  0  0  0  0  0  0  0  0  0  0  0
   46.4080   29.9440   40.9030 C   0  0  0  0  0  0  0  0  0  0  0  0
   46.6330   28.7700   40.2140 C   0  0  0  0  0  0  0  0  0  0  0  0
   47.5750   28.2570   40.3170 H   0  0  0  0  0  0  0  0  0  0  0  0
   45.6200   28.3180   39.4230 N   0  0  0  0  0  0  0  0  0  0  0  0
   44.4730   29.0480   39.3700 C   0  0  0  0  0  0  0  0  0  0  0  0
   44.3190   30.1870   40.0670 N   0  0  0  0  0  0  0  0  0  0  0  0
   44.6210   35.7890   44.3150 C   0  0  0  0  0  0  0  0  0  0  0  0
   45.4310   35.8280   43.1790 C   0  0  0  0  0  0  0  0  0  0  0  0
   46.4680   34.8770   43.0530 C   0  0  0  0  0  0  0  0  0  0  0  0
   46.6240   33.9630   44.0620 N   0  0  0  0  0  0  0  0  0  0  0  0
   45.8120   33.9630   45.1470 C   0  0  0  0  0  0  0  0  0  0  0  0
   44.8180   34.8630   45.2830 N   0  0  0  0  0  0  0  0  0  0  0  0
   43.8340   36.5270   44.3870 H   0  0  0  0  0  0  0  0  0  0  0  0
   45.3080   36.5540   42.3810 H   0  0  0  0  0  0  0  0  0  0  0  0
   46.0260   33.1860   45.8950 H   0  0  0  0  0  0  0  0  0  0  0  0
  1 36  1  0  0  0  0
  2  1  2  0  0  0  0
  2 10  1  0  0  0  0
  3  2  1  0  0  0  0
  4  3  1  0  0  0  0
  4  9  1  0  0  0  0
  5  4  2  0  0  0  0
  6  5  1  0  0  0  0
  6  7  2  0  0  0  0
  7  8  1  0  0  0  0
  8  9  2  0  0  0  0
  8 15  1  0  0  0  0
  9  1  1  0  0  0  0
 11  3  1  0  0  0  0
 12  5  1  0  0  0  0
 13  6  1  0  0  0  0
 14  7  1  0  0  0  0
 15 16  1  0  0  0  0
 15 19  1  0  0  0  0
 16 21  1  0  0  0  0
 16 17  1  0  0  0  0
 17 23  1  0  0  0  0
 17 18  1  0  0  0  0
 18 25  1  0  0  0  0
 18 24  1  0  0  0  0
 19 26  1  1  0  0  0
 19 18  1  0  0  0  0
 20 16  1  0  0  0  0
 22 17  1  0  0  0  0
 27 28  1  0  0  0  0
 27 19  1  0  0  0  0
 29 30  1  0  0  0  0
 29 28  2  0  0  0  0
 31 29  1  0  0  0  0
 32 31  2  0  0  0  0
 32 33  1  0  0  0  0
 33 27  2  0  0  0  0
 34 40  1  0  0  0  0
 34 39  1  0  0  0  0
 35 34  2  0  0  0  0
 36 35  1  0  0  0  0
 36 37  2  0  0  0  0
 37 38  1  0  0  0  0
 38 39  2  0  0  0  0
 38 42  1  0  0  0  0
 41 35  1  0  0  0  0
M  END
>  <minimizedAffinity>
-5.85866785

>  <minimizedRMSD>
0.583313167

$$$$
