
 OpenBabel03232520283D

 43 47  0  0  1  0  0  0  0  0999 V2000
   46.9850   34.5310   41.3270 C   0  0  0  0  0  0  0  0  0  0  0  0
   48.2600   34.9870   41.0000 C   0  0  0  0  0  0  0  0  0  0  0  0
   48.5370   34.6960   39.7460 N   0  0  0  0  0  0  0  0  0  0  0  0
   47.4710   34.0550   39.2320 C   0  0  0  0  0  0  0  0  0  0  0  0
   47.2300   33.5300   37.9640 C   0  0  0  0  0  0  0  0  0  0  0  0
   46.0470   32.9220   37.7060 C   0  0  0  0  0  0  0  0  0  0  0  0
   45.0230   32.7710   38.6200 C   0  0  0  0  0  0  0  0  0  0  0  0
   45.2890   33.3020   39.8710 C   0  0  0  0  0  0  0  0  0  0  0  0
   46.4670   33.9330   40.2080 C   0  0  0  0  0  0  0  0  0  0  0  0
   49.4040   34.8870   39.1610 H   0  0  0  0  0  0  0  0  0  0  0  0
   47.9740   33.6000   37.1800 H   0  0  0  0  0  0  0  0  0  0  0  0
   45.8800   32.5190   36.7070 H   0  0  0  0  0  0  0  0  0  0  0  0
   44.0810   32.2920   38.4280 H   0  0  0  0  0  0  0  0  0  0  0  0
   44.5530   33.2380   40.6670 H   0  0  0  0  0  0  0  0  0  0  0  0
   44.7830   35.8470   44.0400 C   0  0  0  0  0  0  0  0  0  0  0  0
   45.4370   35.7400   42.8010 C   0  0  0  0  0  0  0  0  0  0  0  0
   46.2960   34.6520   42.6180 C   0  0  0  0  0  0  0  0  0  0  0  0
   46.4720   33.7430   43.6240 N   0  0  0  0  0  0  0  0  0  0  0  0
   45.8060   33.9090   44.7960 C   0  0  0  0  0  0  0  0  0  0  0  0
   44.9720   34.9380   45.0160 N   0  0  0  0  0  0  0  0  0  0  0  0
   44.1180   36.6770   44.2000 H   0  0  0  0  0  0  0  0  0  0  0  0
   45.3040   36.4490   42.0080 H   0  0  0  0  0  0  0  0  0  0  0  0
   46.0090   33.1350   45.5420 H   0  0  0  0  0  0  0  0  0  0  0  0
   49.1460   35.6910   41.9480 C   0  0  0  0  0  0  0  0  0  0  0  0
   49.7980   36.4020   41.3700 H   0  0  0  0  0  0  0  0  0  0  0  0
   48.5190   36.3130   42.6370 H   0  0  0  0  0  0  0  0  0  0  0  0
   49.9940   34.7290   42.7420 C   0  0  0  0  0  0  0  0  0  0  0  0
   49.3740   34.4390   43.6270 H   0  0  0  0  0  0  0  0  0  0  0  0
   50.8770   35.2750   43.1540 H   0  0  0  0  0  0  0  0  0  0  0  0
   50.4680   33.5470   41.9640 C   0  0  1  0  0  0  0  0  0  0  0  0
   51.0060   32.3340   42.5880 C   0  0  0  0  0  0  0  0  0  0  0  0
   49.5950   32.2840   42.1650 C   0  0  2  0  0  0  0  0  0  0  0  0
   50.7670   33.7700   40.9190 H   0  0  0  0  0  0  0  0  0  0  0  0
   51.8030   31.8000   42.0290 H   0  0  0  0  0  0  0  0  0  0  0  0
   51.2480   32.3650   43.6820 H   0  0  0  0  0  0  0  0  0  0  0  0
   48.8260   32.3160   42.9480 H   0  0  0  0  0  0  0  0  0  0  0  0
   49.3450   31.4530   40.9390 C   0  0  0  0  0  0  0  0  0  0  0  0
   48.3930   30.4580   40.8210 C   0  0  0  0  0  0  0  0  0  0  0  0
   48.4780   29.9330   39.5440 C   0  0  0  0  0  0  0  0  0  0  0  0
   47.8700   29.1370   39.1320 H   0  0  0  0  0  0  0  0  0  0  0  0
   49.4740   30.6150   38.9160 N   0  0  0  0  0  0  0  0  0  0  0  0
   49.9840   31.5190   39.7560 N   0  0  0  0  0  0  0  0  0  0  0  0
   49.7900   30.4490   37.9130 H   0  0  0  0  0  0  0  0  0  0  0  0
  1 17  1  0  0  0  0
  2  1  2  0  0  0  0
  2 24  1  0  0  0  0
  3  2  1  0  0  0  0
  4  3  1  0  0  0  0
  4  9  1  0  0  0  0
  5  4  2  0  0  0  0
  6  5  1  0  0  0  0
  6  7  2  0  0  0  0
  7  8  1  0  0  0  0
  8  9  2  0  0  0  0
  8 14  1  0  0  0  0
  9  1  1  0  0  0  0
 10  3  1  0  0  0  0
 11  5  1  0  0  0  0
 12  6  1  0  0  0  0
 13  7  1  0  0  0  0
 15 21  1  0  0  0  0
 15 20  1  0  0  0  0
 16 15  2  0  0  0  0
 17 16  1  0  0  0  0
 17 18  2  0  0  0  0
 18 19  1  0  0  0  0
 19 20  2  0  0  0  0
 19 23  1  0  0  0  0
 22 16  1  0  0  0  0
 24 26  1  0  0  0  0
 24 27  1  0  0  0  0
 25 24  1  0  0  0  0
 27 29  1  0  0  0  0
 27 28  1  0  0  0  0
 30 33  1  6  0  0  0
 30 32  1  0  0  0  0
 30 31  1  0  0  0  0
 30 27  1  0  0  0  0
 31 35  1  0  0  0  0
 32 31  1  0  0  0  0
 32 36  1  1  0  0  0
 34 31  1  0  0  0  0
 37 32  1  0  0  0  0
 38 37  1  0  0  0  0
 39 38  2  0  0  0  0
 40 39  1  0  0  0  0
 41 39  1  0  0  0  0
 41 42  1  0  0  0  0
 42 37  2  0  0  0  0
 43 41  1  0  0  0  0
M  END
>  <minimizedAffinity>
-5.79786158

>  <minimizedRMSD>
0.654185355

$$$$
