
 OpenBabel03232520543D

 33 35  0  0  1  0  0  0  0  0999 V2000
   44.2290   34.3450   41.1380 C   0  0  2  0  0  0  0  0  0  0  0  0
   43.0780   35.3320   41.2540 C   0  0  0  0  0  0  0  0  0  0  0  0
   42.2310   35.4900   40.1050 C   0  0  0  0  0  0  0  0  0  0  0  0
   42.4630   34.7400   38.8880 C   0  0  1  0  0  0  0  0  0  0  0  0
   43.6620   33.8850   38.8560 C   0  0  0  0  0  0  0  0  0  0  0  0
   43.8810   33.2430   40.2030 C   0  0  0  0  0  0  0  0  0  0  0  0
   45.0510   34.9590   40.6650 H   0  0  0  0  0  0  0  0  0  0  0  0
   42.6930   35.9930   42.0190 H   0  0  0  0  0  0  0  0  0  0  0  0
   41.4050   36.1470   40.0770 H   0  0  0  0  0  0  0  0  0  0  0  0
   42.5060   35.4610   38.0440 H   0  0  0  0  0  0  0  0  0  0  0  0
   43.5380   33.1180   38.0610 H   0  0  0  0  0  0  0  0  0  0  0  0
   44.5670   34.5000   38.6010 H   0  0  0  0  0  0  0  0  0  0  0  0
   42.9160   32.8050   40.5320 H   0  0  0  0  0  0  0  0  0  0  0  0
   44.6920   32.5220   40.1460 H   0  0  0  0  0  0  0  0  0  0  0  0
   44.7390   34.8880   43.4820 C   0  0  0  0  0  0  0  0  0  0  0  0
   44.6630   33.9510   42.4680 C   0  0  0  0  0  0  0  0  0  0  0  0
   45.0290   32.6500   42.8030 C   0  0  0  0  0  0  0  0  0  0  0  0
   45.4340   32.3390   44.0500 N   0  0  0  0  0  0  0  0  0  0  0  0
   45.4990   33.2820   45.0230 C   0  0  0  0  0  0  0  0  0  0  0  0
   45.1450   34.5610   44.7220 N   0  0  0  0  0  0  0  0  0  0  0  0
   44.4920   35.9350   43.3860 H   0  0  0  0  0  0  0  0  0  0  0  0
   44.9950   31.8640   42.0640 H   0  0  0  0  0  0  0  0  0  0  0  0
   45.9360   32.9560   46.3750 C   0  0  0  0  0  0  0  0  0  0  0  0
   47.0430   32.3660   46.9550 C   0  0  0  0  0  0  0  0  0  0  0  0
   46.8060   32.3680   48.3340 C   0  0  0  0  0  0  0  0  0  0  0  0
   47.5950   31.9300   48.9480 H   0  0  0  0  0  0  0  0  0  0  0  0
   45.6000   32.9410   48.5440 N   0  0  0  0  0  0  0  0  0  0  0  0
   45.0920   33.2860   47.3710 N   0  0  0  0  0  0  0  0  0  0  0  0
   45.2650   33.0240   49.5290 H   0  0  0  0  0  0  0  0  0  0  0  0
   41.2090   33.8990   38.6030 C   0  0  0  0  0  0  0  0  0  0  0  0
   40.5000   33.5900   39.7350 F   0  0  0  0  0  0  0  0  0  0  0  0
   40.3630   34.6740   37.8160 F   0  0  0  0  0  0  0  0  0  0  0  0
   41.5510   32.7900   37.8470 F   0  0  0  0  0  0  0  0  0  0  0  0
  1  7  1  6  0  0  0
  1  2  1  0  0  0  0
  1 16  1  0  0  0  0
  2  8  1  0  0  0  0
  3  2  2  0  0  0  0
  4 10  1  6  0  0  0
  4  3  1  0  0  0  0
  5  4  1  0  0  0  0
  5  6  1  0  0  0  0
  6 13  1  0  0  0  0
  6  1  1  0  0  0  0
  9  3  1  0  0  0  0
 11  5  1  0  0  0  0
 12  5  1  0  0  0  0
 14  6  1  0  0  0  0
 15 20  1  0  0  0  0
 16 17  1  0  0  0  0
 16 15  2  0  0  0  0
 17 18  2  0  0  0  0
 18 19  1  0  0  0  0
 19 23  1  0  0  0  0
 20 19  2  0  0  0  0
 21 15  1  0  0  0  0
 22 17  1  0  0  0  0
 23 24  1  0  0  0  0
 23 28  2  0  0  0  0
 24 25  2  0  0  0  0
 25 27  1  0  0  0  0
 25 26  1  0  0  0  0
 27 29  1  0  0  0  0
 28 27  1  0  0  0  0
 30  4  1  0  0  0  0
 30 31  1  0  0  0  0
 32 30  1  0  0  0  0
 33 30  1  0  0  0  0
M  END
>  <minimizedAffinity>
-5.58293343

>  <minimizedRMSD>
4.74526596

$$$$
