
 OpenBabel03232520583D

 35 37  0  0  1  0  0  0  0  0999 V2000
   46.1040   33.6050   45.2380 C   0  0  2  0  0  0  0  0  0  0  0  0
   44.9900   34.7240   45.4760 C   0  0  0  0  0  0  0  0  0  0  0  0
   44.7390   35.6440   44.3980 C   0  0  0  0  0  0  0  0  0  0  0  0
   45.4810   35.5260   43.1490 C   0  0  1  0  0  0  0  0  0  0  0  0
   46.5400   34.4990   43.0920 C   0  0  0  0  0  0  0  0  0  0  0  0
   46.0440   33.2780   43.8550 C   0  0  0  0  0  0  0  0  0  0  0  0
   46.9590   34.2910   45.5210 H   0  0  0  0  0  0  0  0  0  0  0  0
   44.3150   34.9950   46.3070 H   0  0  0  0  0  0  0  0  0  0  0  0
   44.0080   36.4220   44.4820 H   0  0  0  0  0  0  0  0  0  0  0  0
   45.9360   36.5190   42.9190 H   0  0  0  0  0  0  0  0  0  0  0  0
   47.4420   34.8580   43.6410 H   0  0  0  0  0  0  0  0  0  0  0  0
   46.8340   34.2920   42.0660 H   0  0  0  0  0  0  0  0  0  0  0  0
   44.9200   33.2250   43.5690 H   0  0  0  0  0  0  0  0  0  0  0  0
   46.4650   32.4720   43.3280 H   0  0  0  0  0  0  0  0  0  0  0  0
   45.2820   32.9080   47.4700 C   0  0  0  0  0  0  0  0  0  0  0  0
   45.8910   32.6460   46.2760 C   0  0  0  0  0  0  0  0  0  0  0  0
   46.2350   31.3130   46.0720 C   0  0  0  0  0  0  0  0  0  0  0  0
   45.9880   30.3460   46.9740 N   0  0  0  0  0  0  0  0  0  0  0  0
   45.3730   30.6500   48.1690 C   0  0  0  0  0  0  0  0  0  0  0  0
   45.0350   31.9150   48.3890 N   0  0  0  0  0  0  0  0  0  0  0  0
   45.1200   29.6460   49.1320 N   0  0  0  0  0  0  0  0  0  0  0  0
   44.9780   33.9090   47.7300 H   0  0  0  0  0  0  0  0  0  0  0  0
   45.6300   28.7380   49.1290 H   0  0  0  0  0  0  0  0  0  0  0  0
   44.3980   29.8320   49.8610 H   0  0  0  0  0  0  0  0  0  0  0  0
   46.9390   30.6570   44.9790 C   0  0  0  0  0  0  0  0  0  0  0  0
   48.2090   30.6690   44.4510 C   0  0  0  0  0  3  0  0  0  0  0  0
   48.1870   29.8760   43.2970 C   0  0  0  0  0  0  0  0  0  0  0  0
   49.0780   29.7430   42.7200 H   0  0  0  0  0  0  0  0  0  0  0  0
   46.9220   29.4350   43.1910 N   0  0  0  0  0  0  0  0  0  0  0  0
   46.1670   29.8880   44.1770 N   0  0  0  0  0  0  0  0  0  0  0  0
   46.6250   28.8030   42.3890 H   0  0  0  0  0  0  0  0  0  0  0  0
   44.4450   35.2680   42.0270 C   0  0  0  0  0  0  0  0  0  0  0  0
   43.3990   34.4730   42.4380 F   0  0  0  0  0  0  0  0  0  0  0  0
   43.8990   36.5050   41.6980 F   0  0  0  0  0  0  0  0  0  0  0  0
   45.0950   34.7970   40.8930 F   0  0  0  0  0  0  0  0  0  0  0  0
  1  2  1  0  0  0  0
  1  7  1  1  0  0  0
  1 16  1  0  0  0  0
  2  8  1  0  0  0  0
  3  9  1  0  0  0  0
  3  2  2  0  0  0  0
  4 10  1  6  0  0  0
  4  3  1  0  0  0  0
  5  4  1  0  0  0  0
  5 11  1  0  0  0  0
  5  6  1  0  0  0  0
  6  1  1  0  0  0  0
 12  5  1  0  0  0  0
 13  6  1  0  0  0  0
 14  6  1  0  0  0  0
 15 22  1  0  0  0  0
 15 20  1  0  0  0  0
 16 15  2  0  0  0  0
 17 16  1  0  0  0  0
 17 18  2  0  0  0  0
 18 19  1  0  0  0  0
 19 20  2  0  0  0  0
 19 21  1  0  0  0  0
 21 24  1  0  0  0  0
 23 21  1  0  0  0  0
 25 17  1  0  0  0  0
 26 25  1  0  0  0  0
 27 26  2  0  0  0  0
 28 27  1  0  0  0  0
 29 27  1  0  0  0  0
 29 30  1  0  0  0  0
 30 25  2  0  0  0  0
 31 29  1  0  0  0  0
 32 33  1  0  0  0  0
 32  4  1  0  0  0  0
 34 32  1  0  0  0  0
 35 32  1  0  0  0  0
M  END
>  <minimizedAffinity>
-5.54105663

>  <minimizedRMSD>
0.127095148

$$$$
