
 OpenBabel03232520573D

 35 37  0  0  1  0  0  0  0  0999 V2000
   46.1040   33.6050   45.2380 C   0  0  2  0  0  0  0  0  0  0  0  0
   44.9910   34.7240   45.4760 C   0  0  0  0  0  0  0  0  0  0  0  0
   44.7390   35.6440   44.3980 C   0  0  0  0  0  0  0  0  0  0  0  0
   45.4820   35.5260   43.1490 C   0  0  1  0  0  0  0  0  0  0  0  0
   46.5410   34.4990   43.0920 C   0  0  0  0  0  0  0  0  0  0  0  0
   46.0440   33.2780   43.8550 C   0  0  0  0  0  0  0  0  0  0  0  0
   46.9590   34.2910   45.5200 H   0  0  0  0  0  0  0  0  0  0  0  0
   44.3160   34.9950   46.3070 H   0  0  0  0  0  0  0  0  0  0  0  0
   44.0090   36.4220   44.4820 H   0  0  0  0  0  0  0  0  0  0  0  0
   45.9360   36.5190   42.9180 H   0  0  0  0  0  0  0  0  0  0  0  0
   47.4430   34.8570   43.6400 H   0  0  0  0  0  0  0  0  0  0  0  0
   46.8340   34.2920   42.0660 H   0  0  0  0  0  0  0  0  0  0  0  0
   44.9200   33.2240   43.5690 H   0  0  0  0  0  0  0  0  0  0  0  0
   46.4650   32.4710   43.3280 H   0  0  0  0  0  0  0  0  0  0  0  0
   45.2810   32.9070   47.4700 C   0  0  0  0  0  0  0  0  0  0  0  0
   45.8910   32.6460   46.2750 C   0  0  0  0  0  0  0  0  0  0  0  0
   46.2360   31.3130   46.0730 C   0  0  0  0  0  0  0  0  0  0  0  0
   45.9900   30.3460   46.9750 N   0  0  0  0  0  0  0  0  0  0  0  0
   45.3730   30.6490   48.1680 C   0  0  0  0  0  0  0  0  0  0  0  0
   45.0340   31.9150   48.3880 N   0  0  0  0  0  0  0  0  0  0  0  0
   45.1200   29.6450   49.1320 N   0  0  0  0  0  0  0  0  0  0  0  0
   44.9760   33.9080   47.7290 H   0  0  0  0  0  0  0  0  0  0  0  0
   45.6310   28.7380   49.1290 H   0  0  0  0  0  0  0  0  0  0  0  0
   44.3970   29.8310   49.8610 H   0  0  0  0  0  0  0  0  0  0  0  0
   46.9410   30.6580   44.9790 C   0  0  0  0  0  0  0  0  0  0  0  0
   48.2120   30.6710   44.4520 C   0  0  0  0  0  3  0  0  0  0  0  0
   48.1920   29.8780   43.2990 C   0  0  0  0  0  0  0  0  0  0  0  0
   49.0830   29.7460   42.7220 H   0  0  0  0  0  0  0  0  0  0  0  0
   46.9280   29.4340   43.1930 N   0  0  0  0  0  0  0  0  0  0  0  0
   46.1710   29.8860   44.1780 N   0  0  0  0  0  0  0  0  0  0  0  0
   46.6320   28.8000   42.3910 H   0  0  0  0  0  0  0  0  0  0  0  0
   44.4450   35.2670   42.0270 C   0  0  0  0  0  0  0  0  0  0  0  0
   43.3990   34.4730   42.4380 F   0  0  0  0  0  0  0  0  0  0  0  0
   43.8990   36.5050   41.6980 F   0  0  0  0  0  0  0  0  0  0  0  0
   45.0950   34.7970   40.8930 F   0  0  0  0  0  0  0  0  0  0  0  0
  1  2  1  0  0  0  0
  1  7  1  1  0  0  0
  1 16  1  0  0  0  0
  2  8  1  0  0  0  0
  3  9  1  0  0  0  0
  3  2  2  0  0  0  0
  4 10  1  6  0  0  0
  4  3  1  0  0  0  0
  5  4  1  0  0  0  0
  5 11  1  0  0  0  0
  5  6  1  0  0  0  0
  6  1  1  0  0  0  0
 12  5  1  0  0  0  0
 13  6  1  0  0  0  0
 14  6  1  0  0  0  0
 15 22  1  0  0  0  0
 15 20  1  0  0  0  0
 16 15  2  0  0  0  0
 17 16  1  0  0  0  0
 17 18  2  0  0  0  0
 18 19  1  0  0  0  0
 19 20  2  0  0  0  0
 19 21  1  0  0  0  0
 21 24  1  0  0  0  0
 23 21  1  0  0  0  0
 25 17  1  0  0  0  0
 26 25  1  0  0  0  0
 27 26  2  0  0  0  0
 28 27  1  0  0  0  0
 29 27  1  0  0  0  0
 29 30  1  0  0  0  0
 30 25  2  0  0  0  0
 31 29  1  0  0  0  0
 32 33  1  0  0  0  0
 32  4  1  0  0  0  0
 34 32  1  0  0  0  0
 35 32  1  0  0  0  0
M  END
>  <minimizedAffinity>
-5.53950644

>  <minimizedRMSD>
0.297816604

$$$$
