
 OpenBabel03232519203D

 31 33  0  0  1  0  0  0  0  0999 V2000
   47.2410   31.1750   47.4520 N   0  0  0  0  0  0  0  0  0  0  0  0
   47.2390   31.5010   48.8790 C   0  0  0  0  0  0  0  0  0  0  0  0
   45.9380   32.2670   49.0130 C   0  0  0  0  0  0  0  0  0  0  0  0
   44.9680   31.4860   48.1810 C   0  0  0  0  0  0  0  0  0  0  0  0
   45.9180   30.9330   47.0800 C   0  0  2  0  0  0  0  0  0  0  0  0
   47.9200   30.3780   47.3530 H   0  0  0  0  0  0  0  0  0  0  0  0
   48.0540   32.1960   49.1480 H   0  0  0  0  0  0  0  0  0  0  0  0
   47.1890   30.6020   49.5040 H   0  0  0  0  0  0  0  0  0  0  0  0
   45.6240   32.3540   50.0750 H   0  0  0  0  0  0  0  0  0  0  0  0
   46.1120   33.2890   48.5750 H   0  0  0  0  0  0  0  0  0  0  0  0
   44.2070   32.1090   47.7070 H   0  0  0  0  0  0  0  0  0  0  0  0
   44.6050   30.6710   48.8230 H   0  0  0  0  0  0  0  0  0  0  0  0
   45.5710   29.4530   47.0450 C   0  0  0  0  0  0  0  0  0  0  0  0
   46.0630   28.2240   47.3940 C   0  0  0  0  0  0  0  0  0  0  0  0
   45.1590   27.2650   47.0220 C   0  0  0  0  0  0  0  0  0  0  0  0
   45.3400   26.2140   47.2020 H   0  0  0  0  0  0  0  0  0  0  0  0
   44.1190   27.8890   46.4480 N   0  0  0  0  0  0  0  0  0  0  0  0
   44.3770   29.2070   46.4660 N   0  0  0  0  0  0  0  0  0  0  0  0
   43.2670   27.4160   46.0600 H   0  0  0  0  0  0  0  0  0  0  0  0
   45.6480   31.3580   45.8010 O   0  0  0  0  0  0  0  0  0  0  0  0
   46.4680   32.2900   45.0840 C   0  0  0  0  0  0  0  0  0  0  0  0
   47.6020   31.9370   44.7200 O   0  0  0  0  0  0  0  0  0  0  0  0
   44.6030   35.3940   45.4910 C   0  0  0  0  0  0  0  0  0  0  0  0
   44.7370   36.0360   44.2470 C   0  0  0  0  0  0  0  0  0  0  0  0
   45.4960   35.3920   43.2690 C   0  0  0  0  0  0  0  0  0  0  0  0
   46.0630   34.1740   43.5860 N   0  0  0  0  0  0  0  0  0  0  0  0
   45.8870   33.6120   44.8210 C   0  0  0  0  0  0  0  0  0  0  0  0
   45.1670   34.2160   45.7570 N   0  0  0  0  0  0  0  0  0  0  0  0
   44.0240   35.8310   46.3130 H   0  0  0  0  0  0  0  0  0  0  0  0
   44.2650   36.9790   44.0820 H   0  0  0  0  0  0  0  0  0  0  0  0
   45.6330   35.8330   42.3020 H   0  0  0  0  0  0  0  0  0  0  0  0
  1  2  1  0  0  0  0
  2  3  1  0  0  0  0
  2  7  1  0  0  0  0
  2  8  1  0  0  0  0
  3  9  1  0  0  0  0
  4 12  1  0  0  0  0
  4  3  1  0  0  0  0
  5 20  1  6  0  0  0
  5  1  1  0  0  0  0
  5  4  1  0  0  0  0
  6  1  1  0  0  0  0
 10  3  1  0  0  0  0
 11  4  1  0  0  0  0
 13  5  1  0  0  0  0
 13 14  1  0  0  0  0
 15 16  1  0  0  0  0
 15 14  2  0  0  0  0
 17 18  1  0  0  0  0
 17 15  1  0  0  0  0
 18 13  2  0  0  0  0
 19 17  1  0  0  0  0
 21 20  1  0  0  0  0
 22 21  2  0  0  0  0
 23 28  1  0  0  0  0
 23 29  1  0  0  0  0
 24 23  2  0  0  0  0
 25 26  2  0  0  0  0
 25 24  1  0  0  0  0
 26 27  1  0  0  0  0
 27 21  1  0  0  0  0
 27 28  2  0  0  0  0
 30 24  1  0  0  0  0
 31 25  1  0  0  0  0
M  END
>  <minimizedAffinity>
-4.73141909

>  <minimizedRMSD>
3.22043061

$$$$
