
 OpenBabel03232520073D

 31 34  0  0  0  0  0  0  0  0999 V2000
   46.1570   30.3720   49.1360 N   0  0  0  0  0  0  0  0  0  0  0  0
   45.3060   31.3860   49.4290 C   0  0  0  0  0  0  0  0  0  0  0  0
   45.2400   32.2220   48.3610 N   0  0  0  0  0  0  0  0  0  0  0  0
   46.0640   31.6880   47.4300 C   0  0  0  0  0  0  0  0  0  0  0  0
   46.3180   32.2060   46.1890 C   0  0  0  0  0  0  0  0  0  0  0  0
   47.1950   31.5220   45.4050 N   0  0  0  0  0  0  0  0  0  0  0  0
   47.7850   30.3920   45.8220 C   0  0  0  0  0  0  0  0  0  0  0  0
   47.4980   29.9260   47.0510 N   0  0  0  0  0  0  0  0  0  0  0  0
   46.6490   30.5380   47.8840 C   0  0  0  0  0  0  0  0  0  0  0  0
   46.4650   29.5350   49.7050 H   0  0  0  0  0  0  0  0  0  0  0  0
   44.8200   31.4210   50.3800 H   0  0  0  0  0  0  0  0  0  0  0  0
   48.7300   29.6240   45.0170 C   0  0  0  0  0  0  0  0  0  0  0  0
   49.5800   28.5580   45.3280 C   0  0  0  0  0  0  0  0  0  0  0  0
   50.2420   28.2480   44.1400 C   0  0  0  0  0  0  0  0  0  0  0  0
   50.9720   27.4360   44.1230 H   0  0  0  0  0  0  0  0  0  0  0  0
   49.8020   29.0980   43.1700 N   0  0  0  0  0  0  0  0  0  0  0  0
   48.9120   29.9030   43.7020 N   0  0  0  0  0  0  0  0  0  0  0  0
   50.2000   29.0010   42.2140 H   0  0  0  0  0  0  0  0  0  0  0  0
   45.6330   33.6730   45.4550 S   0  0  0  0  0  0  0  0  0  0  0  0
   47.7800   34.7140   42.3560 C   0  0  0  0  0  0  0  0  0  0  0  0
   47.0610   34.3270   41.2170 C   0  0  0  0  0  0  0  0  0  0  0  0
   45.8260   33.7000   41.4260 C   0  0  0  0  0  0  0  0  0  0  0  0
   45.4120   33.5110   42.7150 N   0  0  0  0  0  0  0  0  0  0  0  0
   46.1500   33.9050   43.7690 C   0  0  0  0  0  0  0  0  0  0  0  0
   47.3260   34.5030   43.5840 N   0  0  0  0  0  0  0  0  0  0  0  0
   47.4330   34.5010   40.2310 H   0  0  0  0  0  0  0  0  0  0  0  0
   45.2210   33.3780   40.6090 H   0  0  0  0  0  0  0  0  0  0  0  0
   49.0740   35.3710   42.1420 C   0  0  0  0  0  0  0  0  0  0  0  0
   49.2360   36.1340   41.1620 O   0  0  0  0  0  0  0  0  0  0  0  0
   50.0960   35.1340   43.0280 O   0  0  0  0  0  0  0  0  0  0  0  0
   51.0580   35.1860   42.6770 H   0  0  0  0  0  0  0  0  0  0  0  0
  1  2  1  0  0  0  0
  1 10  1  0  0  0  0
  2 11  1  0  0  0  0
  3  2  2  0  0  0  0
  4  9  1  0  0  0  0
  4  3  1  0  0  0  0
  5  4  2  0  0  0  0
  6  7  2  0  0  0  0
  6  5  1  0  0  0  0
  7  8  1  0  0  0  0
  8  9  2  0  0  0  0
  9  1  1  0  0  0  0
 12 13  1  0  0  0  0
 12  7  1  0  0  0  0
 14 13  2  0  0  0  0
 15 14  1  0  0  0  0
 16 17  1  0  0  0  0
 16 14  1  0  0  0  0
 17 12  2  0  0  0  0
 18 16  1  0  0  0  0
 19  5  1  0  0  0  0
 20 25  1  0  0  0  0
 21 22  1  0  0  0  0
 21 20  2  0  0  0  0
 22 23  2  0  0  0  0
 23 24  1  0  0  0  0
 24 19  1  0  0  0  0
 25 24  2  0  0  0  0
 26 21  1  0  0  0  0
 27 22  1  0  0  0  0
 28 20  1  0  0  0  0
 28 30  1  0  0  0  0
 29 28  2  0  0  0  0
 31 30  1  0  0  0  0
M  END
>  <minimizedAffinity>
-5.70336533

>  <minimizedRMSD>
0.557570457

$$$$
