
 OpenBabel03232517513D

 18 19  0  0  0  0  0  0  0  0999 V2000
   44.8950   35.0710   44.4360 C   0  0  0  0  0  0  0  0  0  0  0  0
   45.6320   35.0550   43.2290 C   0  0  0  0  0  0  0  0  0  0  0  0
   46.7370   34.1880   43.1780 C   0  0  0  0  0  0  0  0  0  0  0  0
   47.0360   33.4260   44.2620 N   0  0  0  0  0  0  0  0  0  0  0  0
   46.2880   33.4890   45.3910 C   0  0  0  0  0  0  0  0  0  0  0  0
   45.2320   34.3030   45.4710 N   0  0  0  0  0  0  0  0  0  0  0  0
   43.7610   35.8880   44.6420 N   0  0  0  0  0  0  0  0  0  0  0  0
   45.3160   35.6920   42.4320 H   0  0  0  0  0  0  0  0  0  0  0  0
   46.6350   32.8290   46.1840 H   0  0  0  0  0  0  0  0  0  0  0  0
   42.8910   35.5540   45.1150 H   0  0  0  0  0  0  0  0  0  0  0  0
   43.8240   36.8810   44.2910 H   0  0  0  0  0  0  0  0  0  0  0  0
   47.5150   34.1500   41.9440 C   0  0  0  0  0  0  0  0  0  0  0  0
   47.0230   34.3720   40.6760 C   0  0  0  0  0  0  0  0  0  0  0  0
   48.1490   34.2220   39.8800 C   0  0  0  0  0  0  0  0  0  0  0  0
   48.2330   34.3090   38.8120 H   0  0  0  0  0  0  0  0  0  0  0  0
   49.2460   33.9290   40.6360 N   0  0  0  0  0  0  0  0  0  0  0  0
   48.8150   33.8930   41.9070 N   0  0  0  0  0  0  0  0  0  0  0  0
   50.2180   33.7670   40.2900 H   0  0  0  0  0  0  0  0  0  0  0  0
  1  7  1  0  0  0  0
  1  6  1  0  0  0  0
  2  1  2  0  0  0  0
  3  2  1  0  0  0  0
  3  4  2  0  0  0  0
  4  5  1  0  0  0  0
  5  6  2  0  0  0  0
  5  9  1  0  0  0  0
  7 10  1  0  0  0  0
  8  2  1  0  0  0  0
 11  7  1  0  0  0  0
 12  3  1  0  0  0  0
 13 12  1  0  0  0  0
 14 16  1  0  0  0  0
 14 13  2  0  0  0  0
 15 14  1  0  0  0  0
 16 17  1  0  0  0  0
 17 12  2  0  0  0  0
 18 16  1  0  0  0  0
M  END
>  <minimizedAffinity>
-4.42134571

>  <minimizedRMSD>
0.709894419

$$$$
