
 OpenBabel03232517183D

 44 49  0  0  1  0  0  0  0  0999 V2000
   46.3350   32.7250   46.9040 C   0  0  0  0  0  0  0  0  0  0  0  0
   45.5260   32.6130   48.0060 C   0  0  0  0  0  0  0  0  0  0  0  0
   46.2210   31.7950   48.8880 C   0  0  0  0  0  0  0  0  0  0  0  0
   47.3990   31.4570   48.2860 C   0  0  0  0  0  0  0  0  0  0  0  0
   47.4060   32.0380   47.1180 O   0  0  0  0  0  0  0  0  0  0  0  0
   44.5800   33.1070   48.0410 H   0  0  0  0  0  0  0  0  0  0  0  0
   45.8050   31.5310   49.8690 H   0  0  0  0  0  0  0  0  0  0  0  0
   46.6580   34.0680   43.6070 C   0  0  0  0  0  0  0  0  0  0  0  0
   45.5220   34.7290   44.0710 C   0  0  0  0  0  0  0  0  0  0  0  0
   45.2720   34.2940   45.3760 C   0  0  0  0  0  0  0  0  0  0  0  0
   46.2490   33.3930   45.6600 N   0  0  0  0  0  0  0  0  0  0  0  0
   47.0720   33.2470   44.6320 N   0  0  0  0  0  0  0  0  0  0  0  0
   44.8810   35.4700   43.5780 H   0  0  0  0  0  0  0  0  0  0  0  0
   44.4690   34.6080   46.0210 H   0  0  0  0  0  0  0  0  0  0  0  0
   48.6810   35.3900   40.8410 C   0  0  0  0  0  0  0  0  0  0  0  0
   48.1290   34.7320   39.7440 C   0  0  0  0  0  0  0  0  0  0  0  0
   47.0720   33.8440   39.9610 C   0  0  0  0  0  0  0  0  0  0  0  0
   46.6100   33.6450   41.2440 N   0  0  0  0  0  0  0  0  0  0  0  0
   47.1810   34.3090   42.2650 C   0  0  0  0  0  0  0  0  0  0  0  0
   48.1960   35.1680   42.0950 N   0  0  0  0  0  0  0  0  0  0  0  0
   49.4980   36.0930   40.7770 H   0  0  0  0  0  0  0  0  0  0  0  0
   48.5360   34.9300   38.7670 H   0  0  0  0  0  0  0  0  0  0  0  0
   46.6380   33.3300   39.1360 H   0  0  0  0  0  0  0  0  0  0  0  0
   48.3990   30.6210   48.8770 N   0  0  0  0  0  0  0  0  0  0  0  0
   49.2660   30.8210   49.9270 C   0  0  0  0  0  0  0  0  0  0  0  0
   50.0150   29.6720   50.0570 C   0  0  0  0  0  0  0  0  0  0  0  0
   49.5970   28.7980   49.0920 N   0  0  0  0  0  0  0  0  0  0  0  0
   48.6160   29.3810   48.3800 C   0  0  0  0  0  0  0  0  0  0  0  0
   49.2020   31.7750   50.4200 H   0  0  0  0  0  0  0  0  0  0  0  0
   50.7600   29.6180   50.8270 H   0  0  0  0  0  0  0  0  0  0  0  0
   47.9150   28.7020   47.2400 C   0  0  1  0  0  0  0  0  0  0  0  0
   47.5340   27.2060   47.5470 C   0  0  0  0  0  0  0  0  0  0  0  0
   46.5310   28.2820   47.3500 C   0  0  2  0  0  0  0  0  0  0  0  0
   48.4710   28.8080   46.2720 H   0  0  0  0  0  0  0  0  0  0  0  0
   47.7380   26.4830   46.7440 H   0  0  0  0  0  0  0  0  0  0  0  0
   47.6780   26.8860   48.6060 H   0  0  0  0  0  0  0  0  0  0  0  0
   45.9660   28.6700   48.2390 H   0  0  0  0  0  0  0  0  0  0  0  0
   45.7140   28.1650   46.1050 C   0  0  0  0  0  0  0  0  0  0  0  0
   44.5730   28.8280   45.7030 C   0  0  0  0  0  0  0  0  0  0  0  0
   44.1760   28.3790   44.4640 C   0  0  0  0  0  0  0  0  0  0  0  0
   43.3220   28.6970   43.8740 H   0  0  0  0  0  0  0  0  0  0  0  0
   45.0860   27.4390   44.1210 N   0  0  0  0  0  0  0  0  0  0  0  0
   45.9960   27.3120   45.0930 N   0  0  0  0  0  0  0  0  0  0  0  0
   45.1120   26.8680   43.2320 H   0  0  0  0  0  0  0  0  0  0  0  0
  1  5  1  0  0  0  0
  1  2  2  0  0  0  0
  2  6  1  0  0  0  0
  2  3  1  0  0  0  0
  3  7  1  0  0  0  0
  4 24  1  0  0  0  0
  4  3  2  0  0  0  0
  5  4  1  0  0  0  0
  8  9  1  0  0  0  0
  8 12  2  0  0  0  0
  9 10  2  0  0  0  0
 10 11  1  0  0  0  0
 10 14  1  0  0  0  0
 11  1  1  0  0  0  0
 12 11  1  0  0  0  0
 13  9  1  0  0  0  0
 15 20  1  0  0  0  0
 16 17  1  0  0  0  0
 16 15  2  0  0  0  0
 17 18  2  0  0  0  0
 18 19  1  0  0  0  0
 19  8  1  0  0  0  0
 20 19  2  0  0  0  0
 21 15  1  0  0  0  0
 22 16  1  0  0  0  0
 23 17  1  0  0  0  0
 24 25  1  0  0  0  0
 25 26  2  0  0  0  0
 25 29  1  0  0  0  0
 26 30  1  0  0  0  0
 27 26  1  0  0  0  0
 28 24  1  0  0  0  0
 28 27  2  0  0  0  0
 31 34  1  6  0  0  0
 31 33  1  0  0  0  0
 31 32  1  0  0  0  0
 31 28  1  0  0  0  0
 32 36  1  0  0  0  0
 33 32  1  0  0  0  0
 33 37  1  1  0  0  0
 35 32  1  0  0  0  0
 38 33  1  0  0  0  0
 39 38  1  0  0  0  0
 40 39  2  0  0  0  0
 41 40  1  0  0  0  0
 42 40  1  0  0  0  0
 42 43  1  0  0  0  0
 43 38  2  0  0  0  0
 44 42  1  0  0  0  0
M  END
>  <minimizedAffinity>
-5.95679712

>  <minimizedRMSD>
0.246524438

$$$$
