
 OpenBabel03232520433D

 41 44  0  0  1  0  0  0  0  0999 V2000
   38.0500   33.4470   40.0600 N   0  0  0  0  0  0  0  0  0  0  0  0
   38.8050   32.9450   41.1100 C   0  0  0  0  0  0  0  0  0  0  0  0
   39.8890   33.7150   41.6990 C   0  0  0  0  0  0  0  0  0  0  0  0
   40.7180   34.3150   40.6220 C   0  0  1  0  0  0  0  0  0  0  0  0
   39.8230   34.8650   39.5850 C   0  0  0  0  0  0  0  0  0  0  0  0
   38.8920   33.8900   38.9670 C   0  0  1  0  0  0  0  0  0  0  0  0
   37.2900   34.0980   40.3050 H   0  0  0  0  0  0  0  0  0  0  0  0
   38.0980   32.6630   41.9300 H   0  0  0  0  0  0  0  0  0  0  0  0
   39.2310   31.9460   40.7960 H   0  0  0  0  0  0  0  0  0  0  0  0
   39.4240   34.4410   42.4090 H   0  0  0  0  0  0  0  0  0  0  0  0
   40.5200   33.0440   42.3310 H   0  0  0  0  0  0  0  0  0  0  0  0
   41.3920   33.5190   40.2350 H   0  0  0  0  0  0  0  0  0  0  0  0
   40.4670   35.2670   38.7480 H   0  0  0  0  0  0  0  0  0  0  0  0
   39.2160   35.6810   40.0160 H   0  0  0  0  0  0  0  0  0  0  0  0
   38.2160   34.4620   38.2680 H   0  0  0  0  0  0  0  0  0  0  0  0
   39.5250   32.7460   38.3010 C   0  0  0  0  0  0  0  0  0  0  0  0
   38.7410   31.7350   37.7780 C   0  0  0  0  0  0  0  0  0  0  0  0
   39.5560   30.7960   37.2170 C   0  0  0  0  0  0  0  0  0  0  0  0
   39.2740   29.8810   36.7230 H   0  0  0  0  0  0  0  0  0  0  0  0
   40.8200   31.2110   37.3880 N   0  0  0  0  0  0  0  0  0  0  0  0
   40.8050   32.3800   38.0370 N   0  0  0  0  0  0  0  0  0  0  0  0
   41.6820   30.7340   37.0810 H   0  0  0  0  0  0  0  0  0  0  0  0
   41.5490   35.6070   41.5370 S   0  0  0  0  0  0  0  0  0  0  0  0
   44.0410   35.6630   42.7830 C   0  0  0  0  0  0  0  0  0  0  0  0
   43.3220   35.2410   41.6670 C   0  0  0  0  0  0  0  0  0  0  0  0
   43.9780   34.5450   40.6700 C   0  0  0  0  0  0  0  0  0  0  0  0
   45.3090   34.2990   40.8170 N   0  0  0  0  0  0  0  0  0  0  0  0
   45.9830   34.7170   41.9060 C   0  0  0  0  0  0  0  0  0  0  0  0
   45.3640   35.4030   42.9030 N   0  0  0  0  0  0  0  0  0  0  0  0
   43.5040   36.2110   43.5570 H   0  0  0  0  0  0  0  0  0  0  0  0
   43.4610   34.2100   39.8080 H   0  0  0  0  0  0  0  0  0  0  0  0
   47.4130   34.4660   42.0920 C   0  0  0  0  0  0  0  0  0  0  0  0
   48.3120   35.4790   41.9850 C   0  0  0  0  0  0  0  0  0  0  0  0
   49.6700   35.2930   42.1520 C   0  0  0  0  0  0  0  0  0  0  0  0
   50.1520   34.0420   42.4390 C   0  0  0  0  0  0  0  0  0  0  0  0
   49.2160   33.0180   42.5440 C   0  0  0  0  0  0  0  0  0  0  0  0
   47.9000   33.2510   42.3730 N   0  0  0  0  0  0  0  0  0  0  0  0
   47.9630   36.4950   41.7570 H   0  0  0  0  0  0  0  0  0  0  0  0
   50.3440   36.1330   42.0560 H   0  0  0  0  0  0  0  0  0  0  0  0
   51.1810   33.8230   42.5800 H   0  0  0  0  0  0  0  0  0  0  0  0
   49.5220   31.9870   42.7720 H   0  0  0  0  0  0  0  0  0  0  0  0
  1  7  1  0  0  0  0
  1  2  1  0  0  0  0
  2  3  1  0  0  0  0
  2  8  1  0  0  0  0
  3 11  1  0  0  0  0
  3 10  1  0  0  0  0
  4 12  1  6  0  0  0
  4 23  1  0  0  0  0
  4  3  1  0  0  0  0
  5 14  1  0  0  0  0
  5  4  1  0  0  0  0
  6 15  1  6  0  0  0
  6  5  1  0  0  0  0
  6  1  1  0  0  0  0
  9  2  1  0  0  0  0
 13  5  1  0  0  0  0
 16  6  1  0  0  0  0
 17 16  1  0  0  0  0
 18 20  1  0  0  0  0
 18 17  2  0  0  0  0
 19 18  1  0  0  0  0
 20 21  1  0  0  0  0
 21 16  2  0  0  0  0
 22 20  1  0  0  0  0
 23 25  1  0  0  0  0
 24 29  1  0  0  0  0
 24 30  1  0  0  0  0
 25 24  2  0  0  0  0
 26 27  2  0  0  0  0
 26 25  1  0  0  0  0
 27 28  1  0  0  0  0
 28 32  1  0  0  0  0
 28 29  2  0  0  0  0
 31 26  1  0  0  0  0
 32 37  1  0  0  0  0
 33 32  2  0  0  0  0
 33 34  1  0  0  0  0
 34 35  2  0  0  0  0
 35 36  1  0  0  0  0
 35 40  1  0  0  0  0
 36 41  1  0  0  0  0
 37 36  2  0  0  0  0
 38 33  1  0  0  0  0
 39 34  1  0  0  0  0
M  END
>  <minimizedAffinity>
-6.48810339

>  <minimizedRMSD>
1.01773548

$$$$
