
 OpenBabel03232514503D

 44 48  0  0  1  0  0  0  0  0999 V2000
   45.6640   32.6470   47.1530 C   0  0  0  0  0  0  0  0  0  0  0  0
   46.4200   31.5310   46.7020 C   0  0  0  0  0  0  0  0  0  0  0  0
   46.6890   30.5150   47.6610 C   0  0  0  0  0  0  0  0  0  0  0  0
   46.2530   30.6260   48.9000 N   0  0  0  0  0  0  0  0  0  0  0  0
   45.5300   31.7220   49.2930 C   0  0  0  0  0  0  0  0  0  0  0  0
   45.2400   32.7260   48.4090 N   0  0  0  0  0  0  0  0  0  0  0  0
   45.3810   33.4810   46.5530 H   0  0  0  0  0  0  0  0  0  0  0  0
   45.1380   31.8750   50.3120 H   0  0  0  0  0  0  0  0  0  0  0  0
   47.0070   31.5920   45.3500 C   0  0  2  0  0  0  0  0  0  0  0  0
   47.1010   32.9580   44.8700 C   0  0  0  0  0  0  0  0  0  0  0  0
   46.8860   33.2560   43.4510 C   0  0  0  0  0  0  0  0  0  0  0  0
   46.6120   32.1580   42.4930 C   0  0  0  0  0  0  0  0  0  0  0  0
   46.9350   30.8430   43.0640 C   0  0  0  0  0  0  0  0  0  0  0  0
   46.1000   30.7530   44.3930 C   0  0  0  0  0  0  0  0  0  0  0  0
   47.9250   30.9990   45.2580 H   0  0  0  0  0  0  0  0  0  0  0  0
   47.3070   33.9140   45.2850 H   0  0  0  0  0  0  0  0  0  0  0  0
   46.9320   34.2220   43.0190 H   0  0  0  0  0  0  0  0  0  0  0  0
   45.5800   32.1480   42.1190 H   0  0  0  0  0  0  0  0  0  0  0  0
   47.2780   32.3210   41.6150 H   0  0  0  0  0  0  0  0  0  0  0  0
   47.9800   30.6800   43.3630 H   0  0  0  0  0  0  0  0  0  0  0  0
   46.6250   30.0570   42.3670 H   0  0  0  0  0  0  0  0  0  0  0  0
   45.1220   31.1820   44.2680 H   0  0  0  0  0  0  0  0  0  0  0  0
   46.2130   29.6920   44.5500 H   0  0  0  0  0  0  0  0  0  0  0  0
   47.3370   29.2530   47.5070 C   0  0  0  0  0  0  0  0  0  0  0  0
   48.5400   29.0060   47.8680 N   0  0  0  0  0  0  0  0  0  0  0  0
   48.8310   27.7700   47.5810 O   0  0  0  0  0  0  0  0  0  0  0  0
   47.8530   27.1500   47.0250 C   0  0  0  0  0  0  0  0  0  0  0  0
   46.8950   28.0190   46.9530 N   0  0  0  0  0  0  0  0  0  0  0  0
   47.8590   25.7580   46.5820 C   0  0  0  0  0  0  0  0  0  0  0  0
   48.6010   25.3900   45.6050 O   0  0  0  0  0  0  0  0  0  0  0  0
   46.9900   24.7480   47.2830 C   0  0  1  0  0  0  0  0  0  0  0  0
   47.5600   23.4340   47.5540 C   0  0  0  0  0  0  0  0  0  0  0  0
   47.5620   24.4430   48.6780 C   0  0  2  0  0  0  0  0  0  0  0  0
   45.9390   25.0770   47.4660 H   0  0  0  0  0  0  0  0  0  0  0  0
   48.4800   23.0870   47.0840 H   0  0  0  0  0  0  0  0  0  0  0  0
   46.7920   22.6180   47.6820 H   0  0  0  0  0  0  0  0  0  0  0  0
   48.5850   24.7890   48.9180 H   0  0  0  0  0  0  0  0  0  0  0  0
   46.6290   24.2120   49.8030 C   0  0  0  0  0  0  0  0  0  0  0  0
   46.7050   23.1920   50.7050 C   0  0  0  0  0  0  0  0  0  0  0  0
   45.6140   23.4160   51.5490 C   0  0  0  0  0  0  0  0  0  0  0  0
   45.3020   22.8240   52.4180 H   0  0  0  0  0  0  0  0  0  0  0  0
   44.9360   24.5160   51.1550 N   0  0  0  0  0  0  0  0  0  0  0  0
   45.5680   24.9980   50.0810 N   0  0  0  0  0  0  0  0  0  0  0  0
   44.0840   24.9590   51.5580 H   0  0  0  0  0  0  0  0  0  0  0  0
  1  6  1  0  0  0  0
  2  1  2  0  0  0  0
  2  3  1  0  0  0  0
  3  4  2  0  0  0  0
  4  5  1  0  0  0  0
  5  8  1  0  0  0  0
  6  5  2  0  0  0  0
  7  1  1  0  0  0  0
  9 15  1  1  0  0  0
  9  2  1  0  0  0  0
 10 16  1  0  0  0  0
 10  9  1  0  0  0  0
 11 10  2  0  0  0  0
 12 13  1  0  0  0  0
 12 11  1  0  0  0  0
 13 20  1  0  0  0  0
 13 14  1  0  0  0  0
 14 23  1  0  0  0  0
 14  9  1  0  0  0  0
 17 11  1  0  0  0  0
 18 12  1  0  0  0  0
 19 12  1  0  0  0  0
 21 13  1  0  0  0  0
 22 14  1  0  0  0  0
 24  3  1  0  0  0  0
 24 25  2  0  0  0  0
 26 25  1  0  0  0  0
 27 26  1  0  0  0  0
 28 27  2  0  0  0  0
 28 24  1  0  0  0  0
 29 27  1  0  0  0  0
 29 31  1  0  0  0  0
 30 29  2  0  0  0  0
 31 34  1  6  0  0  0
 31 32  1  0  0  0  0
 31 33  1  0  0  0  0
 32 36  1  0  0  0  0
 32 33  1  0  0  0  0
 33 37  1  1  0  0  0
 33 38  1  0  0  0  0
 35 32  1  0  0  0  0
 38 43  2  0  0  0  0
 38 39  1  0  0  0  0
 39 40  2  0  0  0  0
 40 41  1  0  0  0  0
 42 40  1  0  0  0  0
 42 44  1  0  0  0  0
 43 42  1  0  0  0  0
M  END
>  <minimizedAffinity>
-4.97587776

>  <minimizedRMSD>
4.85157776

$$$$
