
 OpenBabel03232519533D

 46 50  0  0  1  0  0  0  0  0999 V2000
   46.6310   34.0530   42.5220 N   0  0  0  0  0  0  0  0  0  0  0  0
   47.7070   34.6800   41.7700 C   0  0  0  0  0  0  0  0  0  0  0  0
   47.3220   34.2360   40.3670 C   0  0  0  0  0  0  0  0  0  0  0  0
   47.1060   32.7650   40.5870 C   0  0  0  0  0  0  0  0  0  0  0  0
   46.4240   32.7340   41.9190 C   0  0  2  0  0  0  0  0  0  0  0  0
   47.5470   35.7650   41.8560 H   0  0  0  0  0  0  0  0  0  0  0  0
   48.7050   34.3420   42.0740 H   0  0  0  0  0  0  0  0  0  0  0  0
   46.3750   34.7470   40.1340 H   0  0  0  0  0  0  0  0  0  0  0  0
   48.1190   34.4280   39.6320 H   0  0  0  0  0  0  0  0  0  0  0  0
   46.4900   32.3140   39.7850 H   0  0  0  0  0  0  0  0  0  0  0  0
   48.0900   32.2680   40.5540 H   0  0  0  0  0  0  0  0  0  0  0  0
   47.0610   32.0590   42.5520 H   0  0  0  0  0  0  0  0  0  0  0  0
   44.4830   36.1810   44.6890 C   0  0  0  0  0  0  0  0  0  0  0  0
   45.1840   35.7410   43.5680 C   0  0  0  0  0  0  0  0  0  0  0  0
   45.9020   34.5590   43.6120 C   0  0  0  0  0  0  0  0  0  0  0  0
   45.8750   33.8790   44.7940 N   0  0  0  0  0  0  0  0  0  0  0  0
   45.1940   34.3100   45.8770 C   0  0  0  0  0  0  0  0  0  0  0  0
   44.5070   35.4540   45.8140 N   0  0  0  0  0  0  0  0  0  0  0  0
   45.2850   33.4650   47.0210 N   0  0  0  0  0  0  0  0  0  0  0  0
   43.9280   37.1120   44.6260 H   0  0  0  0  0  0  0  0  0  0  0  0
   45.1800   36.3120   42.6450 H   0  0  0  0  0  0  0  0  0  0  0  0
   46.1880   33.4690   47.5470 H   0  0  0  0  0  0  0  0  0  0  0  0
   44.6330   32.8190   47.4720 H   0  0  0  0  0  0  0  0  0  0  0  0
   45.0870   32.2900   41.9300 N   0  0  0  0  0  0  0  0  0  0  0  0
   44.0880   32.7140   41.1610 C   0  0  0  0  0  0  0  0  0  0  0  0
   42.7890   32.2250   41.2320 C   0  0  0  0  0  0  0  0  0  0  0  0
   42.4980   31.2340   42.1530 C   0  0  0  0  0  0  0  0  0  0  0  0
   41.3270   30.7470   42.2640 O   0  0  0  0  0  0  0  0  0  0  0  0
   43.5030   30.8110   42.9240 N   0  0  0  0  0  0  0  0  0  0  0  0
   44.7180   31.3110   42.8130 C   0  0  0  0  0  0  0  0  0  0  0  0
   45.6070   30.8390   43.5950 O   0  0  0  0  0  0  0  0  0  0  0  0
   44.3300   33.4970   40.4360 H   0  0  0  0  0  0  0  0  0  0  0  0
   43.2940   30.0530   43.6340 H   0  0  0  0  0  0  0  0  0  0  0  0
   41.7170   32.7360   40.3490 C   0  0  0  0  0  0  0  0  0  0  0  0
   41.8950   33.8200   40.2290 H   0  0  0  0  0  0  0  0  0  0  0  0
   40.7300   32.6480   40.8720 H   0  0  0  0  0  0  0  0  0  0  0  0
   41.7570   31.9910   39.0830 C   0  0  0  0  0  0  0  0  0  0  0  0
   42.8180   31.8890   38.2060 C   0  0  0  0  0  0  0  0  0  0  0  0
   42.7310   31.1500   37.0360 C   0  0  0  0  0  0  0  0  0  0  0  0
   41.5360   30.4930   36.7410 C   0  0  0  0  0  0  0  0  0  0  0  0
   40.4600   30.5910   37.6220 C   0  0  0  0  0  0  0  0  0  0  0  0
   39.3060   29.9180   37.2720 C   0  0  0  0  0  0  0  0  0  0  0  0
   38.2040   29.9780   38.1050 C   0  0  0  0  0  0  0  0  0  0  0  0
   38.2810   30.7110   39.2740 C   0  0  0  0  0  0  0  0  0  0  0  0
   39.4420   31.3770   39.6060 C   0  0  0  0  0  0  0  0  0  0  0  0
   40.5610   31.3370   38.7940 C   0  0  0  0  0  0  0  0  0  0  0  0
  1 15  1  0  0  0  0
  2  6  1  0  0  0  0
  2  7  1  0  0  0  0
  2  1  1  0  0  0  0
  3  4  1  0  0  0  0
  3  2  1  0  0  0  0
  4  5  1  0  0  0  0
  5 24  1  0  0  0  0
  5  1  1  0  0  0  0
  5 12  1  1  0  0  0
  8  3  1  0  0  0  0
  9  3  1  0  0  0  0
 10  4  1  0  0  0  0
 11  4  1  0  0  0  0
 13 18  1  0  0  0  0
 14 15  1  0  0  0  0
 14 13  2  0  0  0  0
 15 16  2  0  0  0  0
 16 17  1  0  0  0  0
 17 19  1  0  0  0  0
 18 17  2  0  0  0  0
 19 23  1  0  0  0  0
 19 22  1  0  0  0  0
 20 13  1  0  0  0  0
 21 14  1  0  0  0  0
 24 30  1  0  0  0  0
 25 26  2  0  0  0  0
 25 24  1  0  0  0  0
 26 27  1  0  0  0  0
 27 28  2  0  0  0  0
 27 29  1  0  0  0  0
 29 33  1  0  0  0  0
 30 29  1  0  0  0  0
 30 31  2  0  0  0  0
 32 25  1  0  0  0  0
 34 36  1  0  0  0  0
 34 26  1  0  0  0  0
 35 34  1  0  0  0  0
 37 34  1  0  0  0  0
 38 37  2  0  0  0  0
 39 38  1  0  0  0  0
 40 39  2  0  0  0  0
 40 41  1  0  0  0  0
 41 46  1  0  0  0  0
 42 41  2  0  0  0  0
 42 43  1  0  0  0  0
 43 44  2  0  0  0  0
 44 45  1  0  0  0  0
 46 37  1  0  0  0  0
 46 45  2  0  0  0  0
M  END
>  <minimizedAffinity>
-6.4462142

>  <minimizedRMSD>
2.58217549

$$$$
