
 OpenBabel03232517143D

 37 41  0  0  0  0  0  0  0  0999 V2000
   46.3450   32.7300   46.8980 C   0  0  0  0  0  0  0  0  0  0  0  0
   45.5180   32.5840   47.9910 C   0  0  0  0  0  0  0  0  0  0  0  0
   46.2440   31.8180   48.8780 C   0  0  0  0  0  0  0  0  0  0  0  0
   47.4780   31.5200   48.3070 C   0  0  0  0  0  0  0  0  0  0  0  0
   47.4570   32.0930   47.1440 O   0  0  0  0  0  0  0  0  0  0  0  0
   44.5620   33.0270   47.9920 H   0  0  0  0  0  0  0  0  0  0  0  0
   45.7920   31.5740   49.8410 H   0  0  0  0  0  0  0  0  0  0  0  0
   46.6710   34.0370   43.6010 C   0  0  0  0  0  0  0  0  0  0  0  0
   45.5350   34.7020   44.0630 C   0  0  0  0  0  0  0  0  0  0  0  0
   45.2870   34.2740   45.3640 C   0  0  0  0  0  0  0  0  0  0  0  0
   46.2730   33.3730   45.6460 N   0  0  0  0  0  0  0  0  0  0  0  0
   47.0920   33.2220   44.6220 N   0  0  0  0  0  0  0  0  0  0  0  0
   44.9250   35.4330   43.5250 H   0  0  0  0  0  0  0  0  0  0  0  0
   44.4810   34.5920   46.0140 H   0  0  0  0  0  0  0  0  0  0  0  0
   48.6690   35.3870   40.8310 C   0  0  0  0  0  0  0  0  0  0  0  0
   48.1180   34.7010   39.7270 C   0  0  0  0  0  0  0  0  0  0  0  0
   47.0700   33.7870   39.9610 C   0  0  0  0  0  0  0  0  0  0  0  0
   46.6230   33.5980   41.2450 N   0  0  0  0  0  0  0  0  0  0  0  0
   47.1850   34.2790   42.2570 C   0  0  0  0  0  0  0  0  0  0  0  0
   48.1960   35.1680   42.0830 N   0  0  0  0  0  0  0  0  0  0  0  0
   49.4620   36.0710   40.6170 H   0  0  0  0  0  0  0  0  0  0  0  0
   48.4680   34.8480   38.7150 H   0  0  0  0  0  0  0  0  0  0  0  0
   46.6220   33.2450   39.1470 H   0  0  0  0  0  0  0  0  0  0  0  0
   48.4780   30.7440   48.9470 N   0  0  0  0  0  0  0  0  0  0  0  0
   49.2770   31.0110   50.0420 C   0  0  0  0  0  0  0  0  0  0  0  0
   50.0590   29.9050   50.2430 C   0  0  0  0  0  0  0  0  0  0  0  0
   49.7340   29.0140   49.2980 N   0  0  0  0  0  0  0  0  0  0  0  0
   48.7590   29.5210   48.4890 C   0  0  0  0  0  0  0  0  0  0  0  0
   49.2040   31.9670   50.5700 H   0  0  0  0  0  0  0  0  0  0  0  0
   50.7840   29.8470   51.0460 H   0  0  0  0  0  0  0  0  0  0  0  0
   48.2290   28.7490   47.3570 C   0  0  0  0  0  0  0  0  0  0  0  0
   48.6490   28.8230   46.0460 C   0  0  0  0  0  0  0  0  0  0  0  0
   47.9330   27.9610   45.2480 C   0  0  0  0  0  0  0  0  0  0  0  0
   48.0710   27.8310   44.1910 H   0  0  0  0  0  0  0  0  0  0  0  0
   47.0880   27.3830   46.1170 N   0  0  0  0  0  0  0  0  0  0  0  0
   47.2490   27.8320   47.3440 N   0  0  0  0  0  0  0  0  0  0  0  0
   46.3700   26.6460   45.8470 H   0  0  0  0  0  0  0  0  0  0  0  0
  1  5  1  0  0  0  0
  1  2  2  0  0  0  0
  2  6  1  0  0  0  0
  2  3  1  0  0  0  0
  3  7  1  0  0  0  0
  4  3  2  0  0  0  0
  4 24  1  0  0  0  0
  5  4  1  0  0  0  0
  8  9  1  0  0  0  0
  8 12  2  0  0  0  0
  9 10  2  0  0  0  0
 10 11  1  0  0  0  0
 10 14  1  0  0  0  0
 11  1  1  0  0  0  0
 12 11  1  0  0  0  0
 13  9  1  0  0  0  0
 15 20  1  0  0  0  0
 16 17  1  0  0  0  0
 16 15  2  0  0  0  0
 17 18  2  0  0  0  0
 18 19  1  0  0  0  0
 19  8  1  0  0  0  0
 20 19  2  0  0  0  0
 21 15  1  0  0  0  0
 22 16  1  0  0  0  0
 23 17  1  0  0  0  0
 24 25  1  0  0  0  0
 25 26  2  0  0  0  0
 25 29  1  0  0  0  0
 26 30  1  0  0  0  0
 27 26  1  0  0  0  0
 28 24  1  0  0  0  0
 28 27  2  0  0  0  0
 31 28  1  0  0  0  0
 32 31  1  0  0  0  0
 33 32  2  0  0  0  0
 33 35  1  0  0  0  0
 34 33  1  0  0  0  0
 35 36  1  0  0  0  0
 36 31  2  0  0  0  0
 37 35  1  0  0  0  0
M  END
>  <minimizedAffinity>
-5.83763647

>  <minimizedRMSD>
1.59179008

$$$$
