
 OpenBabel03232517073D

 35 37  0  0  1  0  0  0  0  0999 V2000
   44.7980   34.4980   42.4300 C   0  0  2  0  0  0  0  0  0  0  0  0
   44.3290   33.4820   42.2990 H   0  0  0  0  0  0  0  0  0  0  0  0
   46.0590   34.6030   41.7360 C   0  0  0  0  0  0  0  0  0  0  0  0
   46.9830   35.3680   42.4580 C   0  0  0  0  0  0  0  0  0  0  0  0
   48.2730   35.6180   41.9650 C   0  0  0  0  0  0  0  0  0  0  0  0
   48.6720   35.1050   40.7290 C   0  0  0  0  0  0  0  0  0  0  0  0
   47.7930   34.3600   40.0130 C   0  0  0  0  0  0  0  0  0  0  0  0
   48.0690   33.7980   38.7810 C   0  0  0  0  0  0  0  0  0  0  0  0
   47.1550   33.0300   38.0540 C   0  0  0  0  0  0  0  0  0  0  0  0
   45.8940   32.8330   38.6230 C   0  0  0  0  0  0  0  0  0  0  0  0
   45.6000   33.3860   39.8510 C   0  0  0  0  0  0  0  0  0  0  0  0
   46.5530   34.1310   40.5060 C   0  0  0  0  0  0  0  0  0  0  0  0
   43.9410   35.5070   41.8110 N   0  0  0  0  0  0  0  0  0  0  0  0
   42.5480   35.2080   41.6720 C   0  0  0  0  0  0  0  0  0  0  0  0
   42.1490   33.9690   41.5050 N   0  0  0  0  0  0  0  0  0  0  0  0
   41.4610   36.1460   41.6790 N   0  0  0  0  0  0  0  0  0  0  0  0
   42.7520   33.1490   41.4700 H   0  0  0  0  0  0  0  0  0  0  0  0
   44.1930   36.4460   41.4420 H   0  0  0  0  0  0  0  0  0  0  0  0
   41.7920   36.9350   41.0850 H   0  0  0  0  0  0  0  0  0  0  0  0
   40.5930   35.9270   42.2180 H   0  0  0  0  0  0  0  0  0  0  0  0
   44.6620   34.4860   43.9130 C   0  0  1  0  0  0  0  0  0  0  0  0
   43.5940   34.1900   44.1430 H   0  0  0  0  0  0  0  0  0  0  0  0
   45.4860   33.4720   44.5870 C   0  0  0  0  0  0  0  0  0  0  0  0
   45.5270   32.2460   43.9800 C   0  0  0  0  0  0  0  0  0  0  0  0
   46.2270   31.1950   44.5450 C   0  0  0  0  0  0  0  0  0  0  0  0
   46.8800   31.4640   45.7480 N   0  0  0  0  0  0  0  0  0  0  0  0
   46.8330   32.6670   46.3250 C   0  0  0  0  0  0  0  0  0  0  0  0
   46.1460   33.6420   45.7460 N   0  0  0  0  0  0  0  0  0  0  0  0
   45.1810   31.7860   43.0890 H   0  0  0  0  0  0  0  0  0  0  0  0
   46.4170   30.1690   44.2960 H   0  0  0  0  0  0  0  0  0  0  0  0
   47.3360   32.8820   47.2530 H   0  0  0  0  0  0  0  0  0  0  0  0
   44.7990   35.8470   44.5590 C   0  0  0  0  0  0  0  0  0  0  0  0
   44.3230   35.7170   45.5810 H   0  0  0  0  0  0  0  0  0  0  0  0
   45.8160   36.1530   44.7820 H   0  0  0  0  0  0  0  0  0  0  0  0
   44.1390   36.5460   44.0560 H   0  0  0  0  0  0  0  0  0  0  0  0
  1  2  1  6  0  0  0
  1 21  1  0  0  0  0
  3  1  1  0  0  0  0
  3  4  1  0  0  0  0
  5  4  2  0  0  0  0
  6  5  1  0  0  0  0
  7 12  1  0  0  0  0
  7  6  2  0  0  0  0
  8  7  1  0  0  0  0
  9 10  1  0  0  0  0
  9  8  2  0  0  0  0
 10 11  2  0  0  0  0
 11 12  1  0  0  0  0
 12  3  2  0  0  0  0
 13  1  1  0  0  0  0
 14 16  1  0  0  0  0
 14 13  1  0  0  0  0
 15 14  2  0  0  0  0
 16 20  1  0  0  0  0
 17 15  1  0  0  0  0
 18 13  1  0  0  0  0
 19 16  1  0  0  0  0
 21 22  1  1  0  0  0
 21 32  1  0  0  0  0
 21 23  1  0  0  0  0
 23 28  1  0  0  0  0
 24 25  1  0  0  0  0
 24 23  2  0  0  0  0
 25 26  2  0  0  0  0
 26 27  1  0  0  0  0
 27 31  1  0  0  0  0
 28 27  2  0  0  0  0
 29 24  1  0  0  0  0
 30 25  1  0  0  0  0
 32 34  1  0  0  0  0
 32 33  1  0  0  0  0
 35 32  1  0  0  0  0
M  END
>  <minimizedAffinity>
-6.22839832

>  <minimizedRMSD>
1.37699831

$$$$
