
 OpenBabel03232519303D

 38 40  0  0  1  0  0  0  0  0999 V2000
   46.9920   34.2980   40.4120 C   0  0  1  0  0  0  0  0  0  0  0  0
   48.1610   34.1320   39.4260 C   0  0  0  0  0  0  0  0  0  0  0  0
   47.5300   33.8450   38.0760 C   0  0  0  0  0  0  0  0  0  0  0  0
   46.8980   32.4770   38.1230 C   0  0  0  0  0  0  0  0  0  0  0  0
   46.7720   31.9560   39.5200 C   0  0  0  0  0  0  0  0  0  0  0  0
   46.2510   33.0160   40.4940 C   0  0  2  0  0  0  0  0  0  0  0  0
   46.4050   35.1540   40.0310 H   0  0  0  0  0  0  0  0  0  0  0  0
   48.8380   33.3460   39.7530 H   0  0  0  0  0  0  0  0  0  0  0  0
   48.7290   35.0810   39.3390 H   0  0  0  0  0  0  0  0  0  0  0  0
   46.8650   34.6570   37.7900 H   0  0  0  0  0  0  0  0  0  0  0  0
   48.3530   33.8280   37.3090 H   0  0  0  0  0  0  0  0  0  0  0  0
   47.4840   31.7330   37.5440 H   0  0  0  0  0  0  0  0  0  0  0  0
   45.8910   32.5560   37.6680 H   0  0  0  0  0  0  0  0  0  0  0  0
   47.7580   31.6080   39.8710 H   0  0  0  0  0  0  0  0  0  0  0  0
   46.0380   31.1250   39.5530 H   0  0  0  0  0  0  0  0  0  0  0  0
   46.4080   32.5000   41.4900 H   0  0  0  0  0  0  0  0  0  0  0  0
   44.8030   33.0970   40.1690 C   0  0  0  0  0  0  0  0  0  0  0  0
   43.8660   32.1260   39.9310 C   0  0  0  0  0  0  0  0  0  0  0  0
   42.6250   32.6690   39.6750 C   0  0  0  0  0  0  0  0  0  0  0  0
   41.7030   32.1590   39.4540 H   0  0  0  0  0  0  0  0  0  0  0  0
   42.8260   33.9960   39.7630 N   0  0  0  0  0  0  0  0  0  0  0  0
   44.0920   34.2430   40.0500 N   0  0  0  0  0  0  0  0  0  0  0  0
   42.1280   34.7730   39.6340 H   0  0  0  0  0  0  0  0  0  0  0  0
   47.5590   34.6800   41.7940 C   0  0  0  0  0  0  0  0  0  0  0  0
   48.6720   34.4510   41.7000 H   0  0  0  0  0  0  0  0  0  0  0  0
   47.4980   35.7210   42.0280 H   0  0  0  0  0  0  0  0  0  0  0  0
   47.0070   33.6790   42.7570 C   0  0  0  0  0  0  0  0  0  0  0  0
   47.8150   33.1050   43.2940 H   0  0  0  0  0  0  0  0  0  0  0  0
   46.3730   32.8920   42.2500 H   0  0  0  0  0  0  0  0  0  0  0  0
   46.0150   33.6970   44.9890 C   0  0  0  0  0  0  0  0  0  0  0  0
   46.1560   34.2790   43.7320 C   0  0  0  0  0  0  0  0  0  0  0  0
   45.4520   35.4280   43.4720 C   0  0  0  0  0  0  0  0  0  0  0  0
   44.6520   35.9520   44.4340 N   0  0  0  0  0  0  0  0  0  0  0  0
   44.5230   35.3750   45.6540 C   0  0  0  0  0  0  0  0  0  0  0  0
   45.2140   34.2400   45.9230 N   0  0  0  0  0  0  0  0  0  0  0  0
   46.5480   32.7920   45.2470 H   0  0  0  0  0  0  0  0  0  0  0  0
   45.4100   36.0250   42.5800 H   0  0  0  0  0  0  0  0  0  0  0  0
   43.8760   35.8170   46.4040 H   0  0  0  0  0  0  0  0  0  0  0  0
  1  7  1  6  0  0  0
  1  6  1  0  0  0  0
  1 24  1  0  0  0  0
  2  8  1  0  0  0  0
  2  1  1  0  0  0  0
  3  4  1  0  0  0  0
  3  2  1  0  0  0  0
  4  5  1  0  0  0  0
  5 15  1  0  0  0  0
  5 14  1  0  0  0  0
  5  6  1  0  0  0  0
  6 16  1  1  0  0  0
  9  2  1  0  0  0  0
 10  3  1  0  0  0  0
 11  3  1  0  0  0  0
 12  4  1  0  0  0  0
 13  4  1  0  0  0  0
 17  6  1  0  0  0  0
 18 17  1  0  0  0  0
 19 21  1  0  0  0  0
 19 18  2  0  0  0  0
 20 19  1  0  0  0  0
 21 22  1  0  0  0  0
 22 17  2  0  0  0  0
 23 21  1  0  0  0  0
 24 26  1  0  0  0  0
 24 27  1  0  0  0  0
 25 24  1  0  0  0  0
 27 28  1  0  0  0  0
 27 31  1  0  0  0  0
 29 27  1  0  0  0  0
 30 36  1  0  0  0  0
 30 35  1  0  0  0  0
 31 30  2  0  0  0  0
 32 31  1  0  0  0  0
 32 33  2  0  0  0  0
 33 34  1  0  0  0  0
 34 35  2  0  0  0  0
 34 38  1  0  0  0  0
 37 32  1  0  0  0  0
M  END
>  <minimizedAffinity>
-4.3894062

>  <minimizedRMSD>
1.95343781

$$$$
