
 OpenBabel03232519133D

 34 37  0  0  1  0  0  0  0  0999 V2000
   44.5280   35.3270   43.1450 C   0  0  1  0  0  0  0  0  0  0  0  0
   43.6460   35.1710   43.7930 H   0  0  0  0  0  0  0  0  0  0  0  0
   45.5920   34.4150   43.6420 C   0  0  0  0  0  0  0  0  0  0  0  0
   46.6990   34.1390   42.8120 C   0  0  0  0  0  0  0  0  0  0  0  0
   47.7130   33.2790   43.2710 C   0  0  0  0  0  0  0  0  0  0  0  0
   47.5550   32.7580   44.5190 N   0  0  0  0  0  0  0  0  0  0  0  0
   46.5050   33.0340   45.2770 C   0  0  0  0  0  0  0  0  0  0  0  0
   45.5360   33.8490   44.8520 N   0  0  0  0  0  0  0  0  0  0  0  0
   46.7940   34.5750   41.8180 H   0  0  0  0  0  0  0  0  0  0  0  0
   48.5680   33.0520   42.6570 H   0  0  0  0  0  0  0  0  0  0  0  0
   46.3450   32.4530   46.6310 C   0  0  0  0  0  0  0  0  0  0  0  0
   47.3280   31.5470   47.0680 C   0  0  0  0  0  0  0  0  0  0  0  0
   46.6960   31.1040   48.7640 S   0  0  0  0  0  0  0  0  0  0  0  0
   45.2140   32.2540   48.5250 C   0  0  0  0  0  0  0  0  0  0  0  0
   45.3750   32.6740   47.5020 N   0  0  0  0  0  0  0  0  0  0  0  0
   48.1790   31.1910   46.6180 H   0  0  0  0  0  0  0  0  0  0  0  0
   44.1650   32.6870   49.0920 H   0  0  0  0  0  0  0  0  0  0  0  0
   44.9490   36.7650   43.3680 C   0  0  0  0  0  0  0  0  0  0  0  0
   45.0520   37.3220   42.4080 H   0  0  0  0  0  0  0  0  0  0  0  0
   45.9870   36.7910   43.8060 H   0  0  0  0  0  0  0  0  0  0  0  0
   44.3040   37.3080   44.0730 H   0  0  0  0  0  0  0  0  0  0  0  0
   44.2420   35.0960   41.6930 C   0  0  0  0  0  0  0  0  0  0  0  0
   44.0910   36.0120   41.1140 H   0  0  0  0  0  0  0  0  0  0  0  0
   45.1850   34.6440   41.2720 H   0  0  0  0  0  0  0  0  0  0  0  0
   43.1540   34.1100   41.5470 C   0  0  0  0  0  0  0  0  0  0  0  0
   43.3800   32.7760   41.8190 C   0  0  0  0  0  0  0  0  0  0  0  0
   42.3890   31.7930   41.7270 C   0  0  0  0  0  0  0  0  0  0  0  0
   41.1340   32.2170   41.3420 C   0  0  0  0  0  0  0  0  0  0  0  0
   40.8660   33.5270   41.0620 C   0  0  0  0  0  0  0  0  0  0  0  0
   39.5900   33.8930   40.6750 C   0  0  0  0  0  0  0  0  0  0  0  0
   39.3060   35.2190   40.3800 C   0  0  0  0  0  0  0  0  0  0  0  0
   40.3020   36.1760   40.4770 C   0  0  0  0  0  0  0  0  0  0  0  0
   41.5590   35.7620   40.8690 C   0  0  0  0  0  0  0  0  0  0  0  0
   41.8760   34.4670   41.1670 C   0  0  0  0  0  0  0  0  0  0  0  0
  1 18  1  0  0  0  0
  1  3  1  0  0  0  0
  1  2  1  1  0  0  0
  3  8  1  0  0  0  0
  4  5  1  0  0  0  0
  4  3  2  0  0  0  0
  5  6  2  0  0  0  0
  6  7  1  0  0  0  0
  7 11  1  0  0  0  0
  8  7  2  0  0  0  0
  9  4  1  0  0  0  0
 10  5  1  0  0  0  0
 11 12  2  0  0  0  0
 11 15  1  0  0  0  0
 12 13  1  0  0  0  0
 14 13  1  0  0  0  0
 14 17  1  0  0  0  0
 15 14  2  0  0  0  0
 16 12  1  0  0  0  0
 18 20  1  0  0  0  0
 18 21  1  0  0  0  0
 19 18  1  0  0  0  0
 22  1  1  0  0  0  0
 23 22  1  0  0  0  0
 24 22  1  0  0  0  0
 25 22  1  0  0  0  0
 25 26  1  0  0  0  0
 27 26  2  0  0  0  0
 28 27  1  0  0  0  0
 29 34  1  0  0  0  0
 29 28  2  0  0  0  0
 30 29  1  0  0  0  0
 31 32  1  0  0  0  0
 31 30  2  0  0  0  0
 32 33  2  0  0  0  0
 33 34  1  0  0  0  0
 34 25  2  0  0  0  0
M  END
>  <minimizedAffinity>
-6.28769398

>  <minimizedRMSD>
1.13862824

$$$$
