
 OpenBabel03232518013D

 34 36  0  0  1  0  0  0  0  0999 V2000
   47.9360   34.4180   41.1680 C   0  0  0  0  0  0  0  0  0  0  0  0
   44.1770   34.7760   41.3650 C   0  0  0  0  0  0  0  0  0  0  0  0
   45.4210   34.3860   40.8480 C   0  0  0  0  0  0  0  0  0  0  0  0
   46.5740   34.7620   41.5760 C   0  0  0  0  0  0  0  0  0  0  0  0
   46.4210   35.4770   42.7330 N   0  0  0  0  0  0  0  0  0  0  0  0
   45.1800   35.8240   43.1790 C   0  0  0  0  0  0  0  0  0  0  0  0
   44.0880   35.4830   42.5140 N   0  0  0  0  0  0  0  0  0  0  0  0
   45.5900   33.8310   39.9540 H   0  0  0  0  0  0  0  0  0  0  0  0
   45.0300   36.3890   44.0880 H   0  0  0  0  0  0  0  0  0  0  0  0
   43.0250   34.3500   40.5740 C   0  0  0  0  0  0  0  0  0  0  0  0
   42.4530   34.9630   39.6950 O   0  0  0  0  0  0  0  0  0  0  0  0
   42.5450   33.3870   40.7050 H   0  0  0  0  0  0  0  0  0  0  0  0
   48.8380   35.6080   41.5270 C   0  0  0  0  0  0  0  0  0  0  0  0
   48.6660   35.9130   42.5950 H   0  0  0  0  0  0  0  0  0  0  0  0
   48.6030   36.4310   40.8240 H   0  0  0  0  0  0  0  0  0  0  0  0
   49.9040   35.3420   41.3590 H   0  0  0  0  0  0  0  0  0  0  0  0
   48.0020   34.3990   39.6330 C   0  0  0  0  0  0  0  0  0  0  0  0
   47.5820   35.3220   39.2040 H   0  0  0  0  0  0  0  0  0  0  0  0
   49.0820   34.2880   39.3920 H   0  0  0  0  0  0  0  0  0  0  0  0
   47.5000   33.4690   39.3180 H   0  0  0  0  0  0  0  0  0  0  0  0
   48.4860   33.1680   41.6150 C   0  0  0  0  0  0  0  0  0  0  0  0
   48.0100   32.6070   42.3930 H   0  0  0  0  0  0  0  0  0  0  0  0
   48.2550   32.4100   40.7140 H   0  0  0  0  0  0  0  0  0  0  0  0
   49.8830   33.2670   41.6370 O   0  0  0  0  0  0  0  0  0  0  0  0
   50.3220   32.0020   41.3080 C   0  0  1  0  0  0  0  0  0  0  0  0
   51.6940   31.7130   40.9100 C   0  0  0  0  0  0  0  0  0  0  0  0
   51.3350   31.4700   42.3290 C   0  0  2  0  0  0  0  0  0  0  0  0
   49.5360   31.2350   41.0270 H   0  0  0  0  0  0  0  0  0  0  0  0
   51.8800   30.8410   40.2180 H   0  0  0  0  0  0  0  0  0  0  0  0
   52.4240   32.5190   40.6880 H   0  0  0  0  0  0  0  0  0  0  0  0
   51.7820   32.1660   43.0610 H   0  0  0  0  0  0  0  0  0  0  0  0
   51.2030   30.0210   42.7170 C   0  0  0  0  0  0  0  0  0  0  0  0
   52.1380   29.4140   43.6970 C   0  0  0  0  0  0  0  0  0  0  0  0
   50.6360   29.5530   43.9750 C   0  0  0  0  0  0  0  0  0  0  0  0
  1 13  1  0  0  0  0
  1  4  1  0  0  0  0
  1 21  1  0  0  0  0
  2  7  1  0  0  0  0
  3  2  2  0  0  0  0
  3  4  1  0  0  0  0
  4  5  2  0  0  0  0
  5  6  1  0  0  0  0
  6  9  1  0  0  0  0
  7  6  2  0  0  0  0
  8  3  1  0  0  0  0
 10 12  1  0  0  0  0
 10  2  1  0  0  0  0
 11 10  2  0  0  0  0
 13 14  1  0  0  0  0
 15 13  1  0  0  0  0
 16 13  1  0  0  0  0
 17  1  1  0  0  0  0
 18 17  1  0  0  0  0
 19 17  1  0  0  0  0
 20 17  1  0  0  0  0
 21 24  1  0  0  0  0
 21 22  1  0  0  0  0
 23 21  1  0  0  0  0
 25 28  1  6  0  0  0
 25 24  1  0  0  0  0
 25 27  1  0  0  0  0
 26 25  1  0  0  0  0
 26 27  1  0  0  0  0
 27 32  1  0  0  0  0
 27 31  1  1  0  0  0
 29 26  1  0  0  0  0
 30 26  1  0  0  0  0
 32 33  1  0  0  0  0
 32 34  1  0  0  0  0
 33 34  1  0  0  0  0
M  END
>  <minimizedAffinity>
-4.25201941

>  <minimizedRMSD>
0.80288142

$$$$
