
 OpenBabel03232517483D

 26 29  0  0  0  0  0  0  0  0999 V2000
   47.0140   31.6560   47.7180 N   0  0  0  0  0  0  0  0  0  0  0  0
   46.9820   32.3770   46.6210 C   0  0  0  0  0  0  0  0  0  0  0  0
   45.8200   33.1510   46.5910 C   0  0  0  0  0  0  0  0  0  0  0  0
   45.1580   32.8660   47.7110 N   0  0  0  0  0  0  0  0  0  0  0  0
   45.8750   31.9630   48.3960 C   0  0  0  0  0  0  0  0  0  0  0  0
   47.7320   32.3970   45.8260 H   0  0  0  0  0  0  0  0  0  0  0  0
   45.5380   31.5730   49.3500 H   0  0  0  0  0  0  0  0  0  0  0  0
   48.4960   30.9840   49.4560 C   0  0  0  0  0  0  0  0  0  0  0  0
   47.9840   30.7450   48.1560 C   0  0  0  0  0  0  0  0  0  0  0  0
   48.4800   29.6600   47.4580 C   0  0  0  0  0  0  0  0  0  0  0  0
   49.4220   28.8920   48.0560 N   0  0  0  0  0  0  0  0  0  0  0  0
   49.8940   29.1290   49.2810 C   0  0  0  0  0  0  0  0  0  0  0  0
   49.4220   30.1720   49.9580 N   0  0  0  0  0  0  0  0  0  0  0  0
   48.1820   31.8110   50.1080 H   0  0  0  0  0  0  0  0  0  0  0  0
   48.0730   29.5010   46.4680 H   0  0  0  0  0  0  0  0  0  0  0  0
   50.6330   28.3790   49.5280 H   0  0  0  0  0  0  0  0  0  0  0  0
   45.4220   34.0760   45.5470 C   0  0  0  0  0  0  0  0  0  0  0  0
   44.6260   35.1970   45.7270 C   0  0  0  0  0  0  0  0  0  0  0  0
   44.5230   35.7610   44.4500 C   0  0  0  0  0  0  0  0  0  0  0  0
   45.2520   34.9600   43.5840 C   0  0  0  0  0  0  0  0  0  0  0  0
   45.7660   33.9800   44.2660 O   0  0  0  0  0  0  0  0  0  0  0  0
   44.1720   35.5720   46.6480 H   0  0  0  0  0  0  0  0  0  0  0  0
   43.9660   36.6620   44.2090 H   0  0  0  0  0  0  0  0  0  0  0  0
   45.4010   35.2140   42.1120 C   0  0  0  0  0  0  0  0  0  0  0  0
   44.1080   35.1150   41.3370 C   0  0  0  0  0  0  0  0  0  0  0  0
   45.2680   34.1220   41.1460 C   0  0  0  0  0  0  0  0  0  0  0  0
  1  9  1  0  0  0  0
  1  5  1  0  0  0  0
  2  1  1  0  0  0  0
  3  2  2  0  0  0  0
  3  4  1  0  0  0  0
  4  5  2  0  0  0  0
  5  7  1  0  0  0  0
  6  2  1  0  0  0  0
  8 13  1  0  0  0  0
  8 14  1  0  0  0  0
  9  8  2  0  0  0  0
 10 11  2  0  0  0  0
 10  9  1  0  0  0  0
 11 12  1  0  0  0  0
 12 16  1  0  0  0  0
 12 13  2  0  0  0  0
 15 10  1  0  0  0  0
 17 18  2  0  0  0  0
 17  3  1  0  0  0  0
 18 22  1  0  0  0  0
 19 18  1  0  0  0  0
 20 21  1  0  0  0  0
 20 19  2  0  0  0  0
 21 17  1  0  0  0  0
 23 19  1  0  0  0  0
 24 20  1  0  0  0  0
 25 24  1  0  0  0  0
 26 25  1  0  0  0  0
 26 24  1  0  0  0  0
M  END
>  <minimizedAffinity>
-5.347857

>  <minimizedRMSD>
1.92319834

$$$$
