
 OpenBabel03232520513D

 26 28  0  0  1  0  0  0  0  0999 V2000
   46.2430   33.6680   45.7200 C   0  0  2  0  0  0  0  0  0  0  0  0
   45.0330   34.5660   45.8700 C   0  0  0  0  0  0  0  0  0  0  0  0
   44.5900   35.2940   44.7030 C   0  0  0  0  0  0  0  0  0  0  0  0
   45.3020   35.1430   43.4360 C   0  0  1  0  0  0  0  0  0  0  0  0
   46.5280   34.3290   43.4270 C   0  0  0  0  0  0  0  0  0  0  0  0
   46.3410   33.1320   44.3260 C   0  0  0  0  0  0  0  0  0  0  0  0
   47.0990   34.3970   45.8640 H   0  0  0  0  0  0  0  0  0  0  0  0
   44.4280   34.7580   46.7300 H   0  0  0  0  0  0  0  0  0  0  0  0
   43.7440   35.9310   44.7780 H   0  0  0  0  0  0  0  0  0  0  0  0
   45.5630   36.1700   43.0440 H   0  0  0  0  0  0  0  0  0  0  0  0
   47.3560   34.9360   43.8490 H   0  0  0  0  0  0  0  0  0  0  0  0
   46.7440   33.9730   42.4070 H   0  0  0  0  0  0  0  0  0  0  0  0
   47.2600   32.5180   44.2620 H   0  0  0  0  0  0  0  0  0  0  0  0
   45.4240   32.5780   44.0570 H   0  0  0  0  0  0  0  0  0  0  0  0
   45.2710   32.7310   47.7770 C   0  0  0  0  0  0  0  0  0  0  0  0
   46.2420   32.6520   46.7780 C   0  0  0  0  0  0  0  0  0  0  0  0
   47.1830   31.6140   46.8480 C   0  0  0  0  0  0  0  0  0  0  0  0
   47.1090   30.7330   47.8830 N   0  0  0  0  0  0  0  0  0  0  0  0
   46.1570   30.8320   48.8410 C   0  0  0  0  0  0  0  0  0  0  0  0
   45.2420   31.8280   48.7860 N   0  0  0  0  0  0  0  0  0  0  0  0
   44.4950   33.4820   47.8330 H   0  0  0  0  0  0  0  0  0  0  0  0
   47.9310   31.5280   46.1040 H   0  0  0  0  0  0  0  0  0  0  0  0
   46.1870   30.0710   49.6290 H   0  0  0  0  0  0  0  0  0  0  0  0
   44.2540   34.6220   42.4440 C   0  0  0  0  0  3  0  0  0  0  0  0
   43.7920   35.6800   41.4660 C   0  0  0  0  0  2  0  0  0  0  0  0
   44.5620   34.5020   41.0090 C   0  0  0  0  0  2  0  0  0  0  0  0
  1  7  1  1  0  0  0
  1  2  1  0  0  0  0
  1 16  1  0  0  0  0
  2  8  1  0  0  0  0
  3  9  1  0  0  0  0
  3  2  2  0  0  0  0
  4 10  1  6  0  0  0
  4  3  1  0  0  0  0
  5  4  1  0  0  0  0
  5 11  1  0  0  0  0
  5  6  1  0  0  0  0
  6  1  1  0  0  0  0
 12  5  1  0  0  0  0
 13  6  1  0  0  0  0
 14  6  1  0  0  0  0
 15 21  1  0  0  0  0
 15 20  1  0  0  0  0
 16 17  1  0  0  0  0
 16 15  2  0  0  0  0
 17 18  2  0  0  0  0
 18 19  1  0  0  0  0
 19 23  1  0  0  0  0
 20 19  2  0  0  0  0
 22 17  1  0  0  0  0
 24  4  1  0  0  0  0
 25 24  1  0  0  0  0
 26 25  1  0  0  0  0
 26 24  1  0  0  0  0
M  END
>  <minimizedAffinity>
-4.76194906

>  <minimizedRMSD>
0.949140131

$$$$
