
 OpenBabel03232520433D

 37 40  0  0  1  0  0  0  0  0999 V2000
   41.6760   34.9900   41.4960 S   0  0  0  0  0  0  0  0  0  0  0  0
   38.6320   32.2450   39.6950 N   0  0  0  0  0  0  0  0  0  0  0  0
   38.5220   33.1870   40.7830 C   0  0  0  0  0  0  0  0  0  0  0  0
   39.7640   33.1300   41.6600 C   0  0  0  0  0  0  0  0  0  0  0  0
   40.9500   33.4910   40.8170 C   0  0  1  0  0  0  0  0  0  0  0  0
   40.6060   33.6830   39.3610 C   0  0  0  0  0  0  0  0  0  0  0  0
   39.7800   32.5350   38.8500 C   0  0  2  0  0  0  0  0  0  0  0  0
   38.7860   31.3010   40.1060 H   0  0  0  0  0  0  0  0  0  0  0  0
   37.6070   32.9730   41.3350 H   0  0  0  0  0  0  0  0  0  0  0  0
   38.3910   34.1960   40.3370 H   0  0  0  0  0  0  0  0  0  0  0  0
   39.5830   33.8370   42.4890 H   0  0  0  0  0  0  0  0  0  0  0  0
   39.8000   32.1190   42.0950 H   0  0  0  0  0  0  0  0  0  0  0  0
   41.6080   32.6030   40.8380 H   0  0  0  0  0  0  0  0  0  0  0  0
   40.1470   34.6630   39.1310 H   0  0  0  0  0  0  0  0  0  0  0  0
   41.5620   33.6550   38.7900 H   0  0  0  0  0  0  0  0  0  0  0  0
   40.3950   31.6320   38.6700 H   0  0  0  0  0  0  0  0  0  0  0  0
   39.2190   32.9440   37.5010 C   0  0  0  0  0  0  0  0  0  0  0  0
   38.8260   34.3510   37.2520 C   0  0  0  0  0  0  0  0  0  0  0  0
   37.7550   33.2700   37.3590 C   0  0  0  0  0  0  0  0  0  0  0  0
   44.1180   35.2960   42.7730 C   0  0  0  0  0  0  0  0  0  0  0  0
   43.4610   34.8270   41.6310 C   0  0  0  0  0  0  0  0  0  0  0  0
   44.2100   34.2480   40.6310 C   0  0  0  0  0  0  0  0  0  0  0  0
   45.5570   34.1620   40.8110 N   0  0  0  0  0  0  0  0  0  0  0  0
   46.1690   34.6180   41.9150 C   0  0  0  0  0  0  0  0  0  0  0  0
   45.4590   35.1910   42.9090 N   0  0  0  0  0  0  0  0  0  0  0  0
   43.5910   35.7580   43.5880 H   0  0  0  0  0  0  0  0  0  0  0  0
   43.7580   33.8780   39.7460 H   0  0  0  0  0  0  0  0  0  0  0  0
   47.6170   34.5320   42.1200 C   0  0  0  0  0  0  0  0  0  0  0  0
   48.4070   35.6200   41.9480 C   0  0  0  0  0  0  0  0  0  0  0  0
   49.7780   35.5730   42.1330 C   0  0  0  0  0  0  0  0  0  0  0  0
   50.3770   34.3760   42.5070 C   0  0  0  0  0  0  0  0  0  0  0  0
   49.5520   33.2870   42.6740 C   0  0  0  0  0  0  0  0  0  0  0  0
   48.2230   33.3790   42.4830 N   0  0  0  0  0  0  0  0  0  0  0  0
   48.0290   36.5950   41.6580 H   0  0  0  0  0  0  0  0  0  0  0  0
   50.4410   36.4050   42.0100 H   0  0  0  0  0  0  0  0  0  0  0  0
   51.4270   34.1860   42.6880 H   0  0  0  0  0  0  0  0  0  0  0  0
   49.8610   32.2720   42.9660 H   0  0  0  0  0  0  0  0  0  0  0  0
  1 21  1  0  0  0  0
  2  8  1  0  0  0  0
  2  3  1  0  0  0  0
  3  9  1  0  0  0  0
  3  4  1  0  0  0  0
  4 12  1  0  0  0  0
  4 11  1  0  0  0  0
  5 13  1  1  0  0  0
  5  1  1  0  0  0  0
  5  4  1  0  0  0  0
  6  5  1  0  0  0  0
  7 16  1  6  0  0  0
  7  6  1  0  0  0  0
  7  2  1  0  0  0  0
 10  3  1  0  0  0  0
 14  6  1  0  0  0  0
 15  6  1  0  0  0  0
 17  7  1  0  0  0  0
 18 19  1  0  0  0  0
 18 17  1  0  0  0  0
 19 17  1  0  0  0  0
 20 25  1  0  0  0  0
 20 26  1  0  0  0  0
 21 20  2  0  0  0  0
 22 23  2  0  0  0  0
 22 21  1  0  0  0  0
 23 24  1  0  0  0  0
 24 28  1  0  0  0  0
 24 25  2  0  0  0  0
 27 22  1  0  0  0  0
 28 33  1  0  0  0  0
 29 28  2  0  0  0  0
 29 30  1  0  0  0  0
 30 31  2  0  0  0  0
 31 32  1  0  0  0  0
 31 36  1  0  0  0  0
 32 37  1  0  0  0  0
 33 32  2  0  0  0  0
 34 29  1  0  0  0  0
 35 30  1  0  0  0  0
M  END
>  <minimizedAffinity>
-5.59055996

>  <minimizedRMSD>
1.31058025

$$$$
