
 OpenBabel03232520543D

 29 31  0  0  1  0  0  0  0  0999 V2000
   46.6490   33.2450   44.7190 C   0  0  2  0  0  0  0  0  0  0  0  0
   45.4480   34.0130   45.2040 C   0  0  0  0  0  0  0  0  0  0  0  0
   44.9770   35.0970   44.3750 C   0  0  0  0  0  0  0  0  0  0  0  0
   45.6390   35.4230   43.1260 C   0  0  1  0  0  0  0  0  0  0  0  0
   46.8570   34.6500   42.7810 C   0  0  0  0  0  0  0  0  0  0  0  0
   46.6940   33.2270   43.2340 C   0  0  0  0  0  0  0  0  0  0  0  0
   47.5260   33.8440   45.1000 H   0  0  0  0  0  0  0  0  0  0  0  0
   44.7870   33.9820   46.0610 H   0  0  0  0  0  0  0  0  0  0  0  0
   44.1410   35.7000   44.6220 H   0  0  0  0  0  0  0  0  0  0  0  0
   45.9120   36.5020   43.1300 H   0  0  0  0  0  0  0  0  0  0  0  0
   47.0370   34.7220   41.6990 H   0  0  0  0  0  0  0  0  0  0  0  0
   47.7140   35.0820   43.3540 H   0  0  0  0  0  0  0  0  0  0  0  0
   47.4940   32.6190   42.8350 H   0  0  0  0  0  0  0  0  0  0  0  0
   45.6730   32.9060   42.8820 H   0  0  0  0  0  0  0  0  0  0  0  0
   45.9080   31.7170   46.4830 C   0  0  0  0  0  0  0  0  0  0  0  0
   46.7040   31.9500   45.3770 C   0  0  0  0  0  0  0  0  0  0  0  0
   47.5310   30.9080   44.9680 C   0  0  0  0  0  0  0  0  0  0  0  0
   47.5420   29.7370   45.6290 N   0  0  0  0  0  0  0  0  0  0  0  0
   46.7490   29.5280   46.7170 C   0  0  0  0  0  0  0  0  0  0  0  0
   45.9300   30.5240   47.1420 N   0  0  0  0  0  0  0  0  0  0  0  0
   45.2130   32.4110   46.9340 H   0  0  0  0  0  0  0  0  0  0  0  0
   48.1640   31.0290   44.1240 H   0  0  0  0  0  0  0  0  0  0  0  0
   46.7830   28.2230   47.4270 C   0  0  0  0  0  3  0  0  0  0  0  0
   46.3110   26.9810   46.7230 C   0  0  0  0  0  2  0  0  0  0  0  0
   45.4640   27.6020   47.7780 C   0  0  0  0  0  2  0  0  0  0  0  0
   44.6140   35.2720   41.9900 C   0  0  0  0  0  0  0  0  0  0  0  0
   43.5510   34.4670   42.3360 F   0  0  0  0  0  0  0  0  0  0  0  0
   44.0620   36.5330   41.7530 F   0  0  0  0  0  0  0  0  0  0  0  0
   45.2400   34.8860   40.8270 F   0  0  0  0  0  0  0  0  0  0  0  0
  1  7  1  1  0  0  0
  1  2  1  0  0  0  0
  1 16  1  0  0  0  0
  2  8  1  0  0  0  0
  3  9  1  0  0  0  0
  3  2  2  0  0  0  0
  4 10  1  1  0  0  0
  4  3  1  0  0  0  0
  5  4  1  0  0  0  0
  5  6  1  0  0  0  0
  5 12  1  0  0  0  0
  6  1  1  0  0  0  0
 11  5  1  0  0  0  0
 13  6  1  0  0  0  0
 14  6  1  0  0  0  0
 15 21  1  0  0  0  0
 15 20  1  0  0  0  0
 16 15  2  0  0  0  0
 17 16  1  0  0  0  0
 17 18  2  0  0  0  0
 18 19  1  0  0  0  0
 19 20  2  0  0  0  0
 19 23  1  0  0  0  0
 22 17  1  0  0  0  0
 23 25  1  0  0  0  0
 24 23  1  0  0  0  0
 24 25  1  0  0  0  0
 26 27  1  0  0  0  0
 26  4  1  0  0  0  0
 28 26  1  0  0  0  0
 29 26  1  0  0  0  0
M  END
>  <minimizedAffinity>
-4.50272751

>  <minimizedRMSD>
1.91238415

$$$$
