
 OpenBabel03232520583D

 31 33  0  0  1  0  0  0  0  0999 V2000
   46.1290   33.6020   45.3240 C   0  0  2  0  0  0  0  0  0  0  0  0
   44.9750   34.6670   45.4930 C   0  0  0  0  0  0  0  0  0  0  0  0
   44.7290   35.5680   44.3980 C   0  0  0  0  0  0  0  0  0  0  0  0
   45.5230   35.4850   43.1880 C   0  0  1  0  0  0  0  0  0  0  0  0
   46.6530   34.5440   43.2060 C   0  0  0  0  0  0  0  0  0  0  0  0
   46.2240   33.2830   43.9370 C   0  0  0  0  0  0  0  0  0  0  0  0
   46.9620   34.2930   45.6860 H   0  0  0  0  0  0  0  0  0  0  0  0
   44.2610   34.9250   46.2690 H   0  0  0  0  0  0  0  0  0  0  0  0
   43.9780   36.3150   44.4190 H   0  0  0  0  0  0  0  0  0  0  0  0
   45.9210   36.5080   42.9640 H   0  0  0  0  0  0  0  0  0  0  0  0
   46.9700   34.3000   42.1880 H   0  0  0  0  0  0  0  0  0  0  0  0
   47.5180   34.9610   43.7740 H   0  0  0  0  0  0  0  0  0  0  0  0
   46.8530   32.5360   43.5030 H   0  0  0  0  0  0  0  0  0  0  0  0
   45.1880   33.0790   43.5270 H   0  0  0  0  0  0  0  0  0  0  0  0
   45.3900   32.8740   47.5660 C   0  0  0  0  0  0  0  0  0  0  0  0
   45.9060   32.6010   46.3200 C   0  0  0  0  0  0  0  0  0  0  0  0
   46.1620   31.2480   46.0370 C   0  0  0  0  0  0  0  0  0  0  0  0
   45.9010   30.3200   46.9610 N   0  0  0  0  0  0  0  0  0  0  0  0
   45.3940   30.6170   48.1800 C   0  0  0  0  0  0  0  0  0  0  0  0
   45.1380   31.8830   48.4870 N   0  0  0  0  0  0  0  0  0  0  0  0
   45.1530   29.5490   49.1060 N   0  0  0  0  0  0  0  0  0  0  0  0
   45.1620   33.8740   47.8830 H   0  0  0  0  0  0  0  0  0  0  0  0
   45.7970   28.7600   49.2500 H   0  0  0  0  0  0  0  0  0  0  0  0
   44.2380   29.6790   49.6120 H   0  0  0  0  0  0  0  0  0  0  0  0
   46.6970   30.6340   44.8020 C   0  0  0  0  0  3  0  0  0  0  0  0
   47.1870   29.1640   44.8680 C   0  0  0  0  0  2  0  0  0  0  0  0
   48.1880   30.2090   44.8130 C   0  0  0  0  0  2  0  0  0  0  0  0
   44.5730   35.1620   42.0100 C   0  0  0  0  0  0  0  0  0  0  0  0
   43.5870   34.2810   42.3610 F   0  0  0  0  0  0  0  0  0  0  0  0
   43.9430   36.3650   41.6850 F   0  0  0  0  0  0  0  0  0  0  0  0
   45.3180   34.7750   40.9020 F   0  0  0  0  0  0  0  0  0  0  0  0
  1  2  1  0  0  0  0
  1  7  1  1  0  0  0
  1 16  1  0  0  0  0
  2  8  1  0  0  0  0
  3  9  1  0  0  0  0
  3  2  2  0  0  0  0
  4 10  1  6  0  0  0
  4  5  1  0  0  0  0
  4  3  1  0  0  0  0
  5 12  1  0  0  0  0
  5  6  1  0  0  0  0
  6  1  1  0  0  0  0
 11  5  1  0  0  0  0
 13  6  1  0  0  0  0
 14  6  1  0  0  0  0
 15 22  1  0  0  0  0
 15 20  1  0  0  0  0
 16 15  2  0  0  0  0
 17 16  1  0  0  0  0
 17 18  2  0  0  0  0
 18 19  1  0  0  0  0
 19 20  2  0  0  0  0
 19 21  1  0  0  0  0
 21 23  1  0  0  0  0
 21 24  1  0  0  0  0
 25 27  1  0  0  0  0
 25 26  1  0  0  0  0
 25 17  1  0  0  0  0
 27 26  1  0  0  0  0
 28 29  1  0  0  0  0
 28  4  1  0  0  0  0
 30 28  1  0  0  0  0
 31 28  1  0  0  0  0
M  END
>  <minimizedAffinity>
-5.60402632

>  <minimizedRMSD>
0.283676803

$$$$
