
 OpenBabel03232520513D

 26 28  0  0  1  0  0  0  0  0999 V2000
   46.3140   33.4620   45.4330 C   0  0  2  0  0  0  0  0  0  0  0  0
   45.1540   34.4280   45.3190 C   0  0  0  0  0  0  0  0  0  0  0  0
   45.0710   35.2380   44.1240 C   0  0  0  0  0  0  0  0  0  0  0  0
   46.0830   35.1000   43.0790 C   0  0  1  0  0  0  0  0  0  0  0  0
   47.2260   34.2100   43.3380 C   0  0  0  0  0  0  0  0  0  0  0  0
   46.7490   32.9860   44.0810 C   0  0  0  0  0  0  0  0  0  0  0  0
   47.1380   34.1260   45.8390 H   0  0  0  0  0  0  0  0  0  0  0  0
   44.3550   34.6190   46.0020 H   0  0  0  0  0  0  0  0  0  0  0  0
   44.2690   35.9240   44.0160 H   0  0  0  0  0  0  0  0  0  0  0  0
   46.4890   36.1250   42.8330 H   0  0  0  0  0  0  0  0  0  0  0  0
   47.9430   34.7420   43.9980 H   0  0  0  0  0  0  0  0  0  0  0  0
   47.6840   33.8890   42.3890 H   0  0  0  0  0  0  0  0  0  0  0  0
   47.6200   32.3180   44.2200 H   0  0  0  0  0  0  0  0  0  0  0  0
   45.9080   32.5060   43.5490 H   0  0  0  0  0  0  0  0  0  0  0  0
   45.3420   32.7490   47.5770 C   0  0  0  0  0  0  0  0  0  0  0  0
   45.9840   32.4000   46.3890 C   0  0  0  0  0  0  0  0  0  0  0  0
   46.2990   31.0490   46.1770 C   0  0  0  0  0  0  0  0  0  0  0  0
   45.9680   30.1420   47.1360 N   0  0  0  0  0  0  0  0  0  0  0  0
   45.3460   30.5070   48.2820 C   0  0  0  0  0  0  0  0  0  0  0  0
   45.0350   31.8070   48.5000 N   0  0  0  0  0  0  0  0  0  0  0  0
   45.0480   33.7520   47.8550 H   0  0  0  0  0  0  0  0  0  0  0  0
   46.7850   30.7540   45.2850 H   0  0  0  0  0  0  0  0  0  0  0  0
   45.1250   29.6990   48.9880 H   0  0  0  0  0  0  0  0  0  0  0  0
   45.3080   34.6960   41.8180 C   0  0  0  0  0  0  0  0  0  0  0  0
   44.0130   33.9780   42.1280 C   0  0  0  0  0  0  0  0  0  0  0  0
   44.0120   35.3140   41.4910 C   0  0  0  0  0  0  0  0  0  0  0  0
  1  7  1  1  0  0  0
  1 16  1  0  0  0  0
  2  1  1  0  0  0  0
  2  8  1  0  0  0  0
  3  2  2  0  0  0  0
  4 10  1  6  0  0  0
  4  5  1  0  0  0  0
  4  3  1  0  0  0  0
  5 11  1  0  0  0  0
  5  6  1  0  0  0  0
  6 13  1  0  0  0  0
  6  1  1  0  0  0  0
  9  3  1  0  0  0  0
 12  5  1  0  0  0  0
 14  6  1  0  0  0  0
 15 21  1  0  0  0  0
 15 20  1  0  0  0  0
 16 15  2  0  0  0  0
 17 16  1  0  0  0  0
 17 18  2  0  0  0  0
 18 19  1  0  0  0  0
 19 20  2  0  0  0  0
 19 23  1  0  0  0  0
 22 17  1  0  0  0  0
 24 25  1  0  0  0  0
 24  4  1  0  0  0  0
 26 24  1  0  0  0  0
 26 25  1  0  0  0  0
M  END
>  <minimizedAffinity>
-4.76800823

>  <minimizedRMSD>
0.794185877

$$$$
