
 OpenBabel03232519453D

 41 44  0  0  0  0  0  0  0  0999 V2000
   46.6320   34.3480   41.9800 N   0  0  0  0  0  0  0  0  0  0  0  0
   47.7450   35.1580   41.8460 C   0  0  0  0  0  0  0  0  0  0  0  0
   48.4430   35.2230   40.6710 C   0  0  0  0  0  0  0  0  0  0  0  0
   47.9890   34.4380   39.6070 C   0  0  0  0  0  0  0  0  0  0  0  0
   48.6040   34.4830   38.5260 O   0  0  0  0  0  0  0  0  0  0  0  0
   46.9030   33.6690   39.7970 N   0  0  0  0  0  0  0  0  0  0  0  0
   46.2390   33.6300   40.9610 C   0  0  0  0  0  0  0  0  0  0  0  0
   45.2540   32.9650   41.1950 O   0  0  0  0  0  0  0  0  0  0  0  0
   48.1440   35.7860   42.6290 H   0  0  0  0  0  0  0  0  0  0  0  0
   49.3170   35.8470   40.5350 H   0  0  0  0  0  0  0  0  0  0  0  0
   46.4110   32.8510   38.7580 C   0  0  0  0  0  0  0  0  0  0  0  0
   45.4470   33.2460   37.8600 C   0  0  0  0  0  0  0  0  0  0  0  0
   45.0130   32.3980   36.8670 C   0  0  0  0  0  0  0  0  0  0  0  0
   45.5400   31.1270   36.7550 C   0  0  0  0  0  0  0  0  0  0  0  0
   46.4900   30.7600   37.6540 C   0  0  0  0  0  0  0  0  0  0  0  0
   46.9770   31.5760   38.6870 C   0  0  0  0  0  0  0  0  0  0  0  0
   45.0830   34.2620   38.0180 H   0  0  0  0  0  0  0  0  0  0  0  0
   44.2520   32.7550   36.1840 H   0  0  0  0  0  0  0  0  0  0  0  0
   45.1970   30.4640   35.9750 H   0  0  0  0  0  0  0  0  0  0  0  0
   46.8800   29.7460   37.5270 H   0  0  0  0  0  0  0  0  0  0  0  0
   48.0220   31.0790   39.6140 C   0  0  0  0  0  0  0  0  0  0  0  0
   48.2030   30.0110   39.2690 H   0  0  0  0  0  0  0  0  0  0  0  0
   49.3180   31.8140   39.5650 C   0  0  0  0  0  0  0  0  0  0  0  0
   49.6260   32.3730   40.4610 H   0  0  0  0  0  0  0  0  0  0  0  0
   49.7240   32.0650   38.5980 H   0  0  0  0  0  0  0  0  0  0  0  0
   50.0700   30.9500   39.7810 H   0  0  0  0  0  0  0  0  0  0  0  0
   47.5950   31.0390   41.0450 C   0  0  0  0  0  0  0  0  0  0  0  0
   48.1090   31.7380   41.7310 H   0  0  0  0  0  0  0  0  0  0  0  0
   46.6020   30.6950   41.2710 H   0  0  0  0  0  0  0  0  0  0  0  0
   48.1640   30.1100   41.4490 H   0  0  0  0  0  0  0  0  0  0  0  0
   44.5570   35.5320   44.8100 C   0  0  0  0  0  0  0  0  0  0  0  0
   45.1030   35.4250   43.5030 C   0  0  0  0  0  0  0  0  0  0  0  0
   46.0820   34.4560   43.3020 C   0  0  0  0  0  0  0  0  0  0  0  0
   46.4830   33.6550   44.3340 N   0  0  0  0  0  0  0  0  0  0  0  0
   45.9220   33.8060   45.5670 C   0  0  0  0  0  0  0  0  0  0  0  0
   44.9890   34.7160   45.7990 N   0  0  0  0  0  0  0  0  0  0  0  0
   43.8100   36.3080   44.8670 H   0  0  0  0  0  0  0  0  0  0  0  0
   44.7840   36.0610   42.6860 H   0  0  0  0  0  0  0  0  0  0  0  0
   46.3960   32.9070   46.6570 C   0  0  0  0  0  0  0  0  0  0  0  0
   45.5120   32.4080   47.7160 C   0  0  0  0  0  0  0  0  0  0  0  0
   45.7940   31.4660   46.6060 C   0  0  0  0  0  0  0  0  0  0  0  0
  1 33  1  0  0  0  0
  2  1  1  0  0  0  0
  2  9  1  0  0  0  0
  3  2  2  0  0  0  0
  4  6  1  0  0  0  0
  4  3  1  0  0  0  0
  5  4  2  0  0  0  0
  6  7  1  0  0  0  0
  7  8  2  0  0  0  0
  7  1  1  0  0  0  0
 10  3  1  0  0  0  0
 11  6  1  0  0  0  0
 12 17  1  0  0  0  0
 12 11  2  0  0  0  0
 13 12  1  0  0  0  0
 14 13  2  0  0  0  0
 14 15  1  0  0  0  0
 15 16  2  0  0  0  0
 16 11  1  0  0  0  0
 16 21  1  0  0  0  0
 18 13  1  0  0  0  0
 19 14  1  0  0  0  0
 20 15  1  0  0  0  0
 21 27  1  0  0  0  0
 22 21  1  0  0  0  0
 23 21  1  0  0  0  0
 23 26  1  0  0  0  0
 23 24  1  0  0  0  0
 25 23  1  0  0  0  0
 27 29  1  0  0  0  0
 27 30  1  0  0  0  0
 27 28  1  0  0  0  0
 31 37  1  0  0  0  0
 31 36  1  0  0  0  0
 32 31  2  0  0  0  0
 33 32  1  0  0  0  0
 33 34  2  0  0  0  0
 34 35  1  0  0  0  0
 35 36  2  0  0  0  0
 35 39  1  0  0  0  0
 38 32  1  0  0  0  0
 39 40  1  0  0  0  0
 41 39  1  0  0  0  0
 41 40  1  0  0  0  0
M  END
>  <minimizedAffinity>
-5.71351528

>  <minimizedRMSD>
0.327653468

$$$$
