
 OpenBabel03232520573D

 31 33  0  0  1  0  0  0  0  0999 V2000
   46.1620   33.7150   45.3090 C   0  0  2  0  0  0  0  0  0  0  0  0
   44.9960   34.7690   45.4590 C   0  0  0  0  0  0  0  0  0  0  0  0
   44.7230   35.6300   44.3390 C   0  0  0  0  0  0  0  0  0  0  0  0
   45.5020   35.5180   43.1220 C   0  0  1  0  0  0  0  0  0  0  0  0
   46.6460   34.5940   43.1550 C   0  0  0  0  0  0  0  0  0  0  0  0
   46.2440   33.3520   43.9320 C   0  0  0  0  0  0  0  0  0  0  0  0
   46.9900   34.4290   45.6370 H   0  0  0  0  0  0  0  0  0  0  0  0
   44.2890   35.0420   46.2350 H   0  0  0  0  0  0  0  0  0  0  0  0
   43.9620   36.3670   44.3450 H   0  0  0  0  0  0  0  0  0  0  0  0
   45.8830   36.5390   42.8590 H   0  0  0  0  0  0  0  0  0  0  0  0
   46.9520   34.3220   42.1400 H   0  0  0  0  0  0  0  0  0  0  0  0
   47.5120   35.0410   43.6980 H   0  0  0  0  0  0  0  0  0  0  0  0
   46.8780   32.6010   43.5130 H   0  0  0  0  0  0  0  0  0  0  0  0
   45.2050   33.1210   43.5420 H   0  0  0  0  0  0  0  0  0  0  0  0
   45.1340   32.9410   47.4170 C   0  0  0  0  0  0  0  0  0  0  0  0
   45.9670   32.7440   46.3400 C   0  0  0  0  0  0  0  0  0  0  0  0
   46.5950   31.4890   46.2620 C   0  0  0  0  0  0  0  0  0  0  0  0
   46.3620   30.5750   47.2070 N   0  0  0  0  0  0  0  0  0  0  0  0
   45.5370   30.7950   48.2580 C   0  0  0  0  0  0  0  0  0  0  0  0
   44.9250   31.9680   48.3680 N   0  0  0  0  0  0  0  0  0  0  0  0
   45.3570   29.7510   49.2230 N   0  0  0  0  0  0  0  0  0  0  0  0
   44.6090   33.8640   47.5720 H   0  0  0  0  0  0  0  0  0  0  0  0
   46.1210   29.1630   49.5800 H   0  0  0  0  0  0  0  0  0  0  0  0
   44.3470   29.6690   49.5150 H   0  0  0  0  0  0  0  0  0  0  0  0
   47.5250   30.9680   45.2350 C   0  0  0  0  0  3  0  0  0  0  0  0
   47.0300   29.8250   44.3110 C   0  0  0  0  0  2  0  0  0  0  0  0
   47.9640   29.4870   45.3660 C   0  0  0  0  0  2  0  0  0  0  0  0
   44.5420   35.1440   41.9670 C   0  0  0  0  0  0  0  0  0  0  0  0
   43.5840   34.2470   42.3550 F   0  0  0  0  0  0  0  0  0  0  0  0
   43.8760   36.3230   41.6260 F   0  0  0  0  0  0  0  0  0  0  0  0
   45.2790   34.7510   40.8560 F   0  0  0  0  0  0  0  0  0  0  0  0
  1  2  1  0  0  0  0
  1  7  1  1  0  0  0
  1 16  1  0  0  0  0
  2  8  1  0  0  0  0
  3  9  1  0  0  0  0
  3  2  2  0  0  0  0
  4 10  1  6  0  0  0
  4  5  1  0  0  0  0
  4  3  1  0  0  0  0
  5 12  1  0  0  0  0
  5  6  1  0  0  0  0
  6  1  1  0  0  0  0
 11  5  1  0  0  0  0
 13  6  1  0  0  0  0
 14  6  1  0  0  0  0
 15 22  1  0  0  0  0
 15 20  1  0  0  0  0
 16 15  2  0  0  0  0
 17 16  1  0  0  0  0
 17 18  2  0  0  0  0
 18 19  1  0  0  0  0
 19 20  2  0  0  0  0
 19 21  1  0  0  0  0
 21 24  1  0  0  0  0
 21 23  1  0  0  0  0
 25 27  1  0  0  0  0
 25 17  1  0  0  0  0
 26 25  1  0  0  0  0
 26 27  1  0  0  0  0
 28 29  1  0  0  0  0
 28  4  1  0  0  0  0
 30 28  1  0  0  0  0
 31 28  1  0  0  0  0
M  END
>  <minimizedAffinity>
-5.5714345

>  <minimizedRMSD>
0.319335222

$$$$
