
 OpenBabel03232520573D

 31 33  0  0  1  0  0  0  0  0999 V2000
   46.1630   33.7150   45.3100 C   0  0  2  0  0  0  0  0  0  0  0  0
   44.9960   34.7690   45.4590 C   0  0  0  0  0  0  0  0  0  0  0  0
   44.7230   35.6290   44.3390 C   0  0  0  0  0  0  0  0  0  0  0  0
   45.5030   35.5180   43.1220 C   0  0  1  0  0  0  0  0  0  0  0  0
   46.6460   34.5940   43.1560 C   0  0  0  0  0  0  0  0  0  0  0  0
   46.2450   33.3520   43.9330 C   0  0  0  0  0  0  0  0  0  0  0  0
   46.9900   34.4290   45.6380 H   0  0  0  0  0  0  0  0  0  0  0  0
   44.2880   35.0410   46.2350 H   0  0  0  0  0  0  0  0  0  0  0  0
   43.9610   36.3670   44.3450 H   0  0  0  0  0  0  0  0  0  0  0  0
   45.8830   36.5390   42.8600 H   0  0  0  0  0  0  0  0  0  0  0  0
   46.9530   34.3230   42.1410 H   0  0  0  0  0  0  0  0  0  0  0  0
   47.5120   35.0420   43.6990 H   0  0  0  0  0  0  0  0  0  0  0  0
   46.8790   32.6010   43.5140 H   0  0  0  0  0  0  0  0  0  0  0  0
   45.2060   33.1200   43.5430 H   0  0  0  0  0  0  0  0  0  0  0  0
   45.1340   32.9410   47.4180 C   0  0  0  0  0  0  0  0  0  0  0  0
   45.9670   32.7440   46.3400 C   0  0  0  0  0  0  0  0  0  0  0  0
   46.5940   31.4880   46.2620 C   0  0  0  0  0  0  0  0  0  0  0  0
   46.3620   30.5740   47.2080 N   0  0  0  0  0  0  0  0  0  0  0  0
   45.5370   30.7950   48.2580 C   0  0  0  0  0  0  0  0  0  0  0  0
   44.9250   31.9680   48.3690 N   0  0  0  0  0  0  0  0  0  0  0  0
   45.3570   29.7510   49.2240 N   0  0  0  0  0  0  0  0  0  0  0  0
   44.6090   33.8640   47.5730 H   0  0  0  0  0  0  0  0  0  0  0  0
   46.1210   29.1630   49.5800 H   0  0  0  0  0  0  0  0  0  0  0  0
   44.3470   29.6690   49.5150 H   0  0  0  0  0  0  0  0  0  0  0  0
   47.5250   30.9680   45.2350 C   0  0  0  0  0  3  0  0  0  0  0  0
   47.0300   29.8250   44.3110 C   0  0  0  0  0  2  0  0  0  0  0  0
   47.9630   29.4860   45.3650 C   0  0  0  0  0  2  0  0  0  0  0  0
   44.5420   35.1440   41.9670 C   0  0  0  0  0  0  0  0  0  0  0  0
   43.5850   34.2470   42.3550 F   0  0  0  0  0  0  0  0  0  0  0  0
   43.8760   36.3230   41.6260 F   0  0  0  0  0  0  0  0  0  0  0  0
   45.2800   34.7510   40.8560 F   0  0  0  0  0  0  0  0  0  0  0  0
  1  2  1  0  0  0  0
  1  7  1  1  0  0  0
  1 16  1  0  0  0  0
  2  8  1  0  0  0  0
  3  9  1  0  0  0  0
  3  2  2  0  0  0  0
  4 10  1  6  0  0  0
  4  5  1  0  0  0  0
  4  3  1  0  0  0  0
  5 12  1  0  0  0  0
  5  6  1  0  0  0  0
  6  1  1  0  0  0  0
 11  5  1  0  0  0  0
 13  6  1  0  0  0  0
 14  6  1  0  0  0  0
 15 22  1  0  0  0  0
 15 20  1  0  0  0  0
 16 15  2  0  0  0  0
 17 16  1  0  0  0  0
 17 18  2  0  0  0  0
 18 19  1  0  0  0  0
 19 20  2  0  0  0  0
 19 21  1  0  0  0  0
 21 24  1  0  0  0  0
 21 23  1  0  0  0  0
 25 27  1  0  0  0  0
 25 17  1  0  0  0  0
 26 25  1  0  0  0  0
 26 27  1  0  0  0  0
 28 29  1  0  0  0  0
 28  4  1  0  0  0  0
 30 28  1  0  0  0  0
 31 28  1  0  0  0  0
M  END
>  <minimizedAffinity>
-5.57187653

>  <minimizedRMSD>
0.374092042

$$$$
