
 OpenBabel03232520583D

 31 33  0  0  1  0  0  0  0  0999 V2000
   46.1260   33.5990   45.3150 C   0  0  2  0  0  0  0  0  0  0  0  0
   44.9780   34.6690   45.4890 C   0  0  0  0  0  0  0  0  0  0  0  0
   44.7310   35.5710   44.3960 C   0  0  0  0  0  0  0  0  0  0  0  0
   45.5210   35.4860   43.1830 C   0  0  1  0  0  0  0  0  0  0  0  0
   46.6470   34.5400   43.1960 C   0  0  0  0  0  0  0  0  0  0  0  0
   46.2160   33.2810   43.9270 C   0  0  0  0  0  0  0  0  0  0  0  0
   46.9630   34.2870   45.6740 H   0  0  0  0  0  0  0  0  0  0  0  0
   44.2670   34.9290   46.2670 H   0  0  0  0  0  0  0  0  0  0  0  0
   43.9830   36.3220   44.4190 H   0  0  0  0  0  0  0  0  0  0  0  0
   45.9230   36.5080   42.9580 H   0  0  0  0  0  0  0  0  0  0  0  0
   46.9590   34.2970   42.1760 H   0  0  0  0  0  0  0  0  0  0  0  0
   47.5150   34.9540   43.7620 H   0  0  0  0  0  0  0  0  0  0  0  0
   46.8400   32.5320   43.4900 H   0  0  0  0  0  0  0  0  0  0  0  0
   45.1770   33.0820   43.5200 H   0  0  0  0  0  0  0  0  0  0  0  0
   45.3940   32.8720   47.5590 C   0  0  0  0  0  0  0  0  0  0  0  0
   45.9020   32.5980   46.3100 C   0  0  0  0  0  0  0  0  0  0  0  0
   46.1500   31.2440   46.0250 C   0  0  0  0  0  0  0  0  0  0  0  0
   45.8890   30.3160   46.9490 N   0  0  0  0  0  0  0  0  0  0  0  0
   45.3880   30.6150   48.1710 C   0  0  0  0  0  0  0  0  0  0  0  0
   45.1400   31.8820   48.4800 N   0  0  0  0  0  0  0  0  0  0  0  0
   45.1460   29.5470   49.0960 N   0  0  0  0  0  0  0  0  0  0  0  0
   45.1720   33.8730   47.8790 H   0  0  0  0  0  0  0  0  0  0  0  0
   45.7870   28.7550   49.2370 H   0  0  0  0  0  0  0  0  0  0  0  0
   44.2330   29.6810   49.6070 H   0  0  0  0  0  0  0  0  0  0  0  0
   46.6770   30.6290   44.7860 C   0  0  0  0  0  3  0  0  0  0  0  0
   47.2380   29.1860   44.8680 C   0  0  0  0  0  2  0  0  0  0  0  0
   48.1860   30.2750   44.7600 C   0  0  0  0  0  2  0  0  0  0  0  0
   44.5650   35.1680   42.0070 C   0  0  0  0  0  0  0  0  0  0  0  0
   43.5750   34.2940   42.3610 F   0  0  0  0  0  0  0  0  0  0  0  0
   43.9420   36.3750   41.6840 F   0  0  0  0  0  0  0  0  0  0  0  0
   45.3060   34.7770   40.8970 F   0  0  0  0  0  0  0  0  0  0  0  0
  1  2  1  0  0  0  0
  1  7  1  1  0  0  0
  1 16  1  0  0  0  0
  2  8  1  0  0  0  0
  3  9  1  0  0  0  0
  3  2  2  0  0  0  0
  4 10  1  6  0  0  0
  4  5  1  0  0  0  0
  4  3  1  0  0  0  0
  5 12  1  0  0  0  0
  5  6  1  0  0  0  0
  6  1  1  0  0  0  0
 11  5  1  0  0  0  0
 13  6  1  0  0  0  0
 14  6  1  0  0  0  0
 15 22  1  0  0  0  0
 15 20  1  0  0  0  0
 16 15  2  0  0  0  0
 17 16  1  0  0  0  0
 17 18  2  0  0  0  0
 18 19  1  0  0  0  0
 19 20  2  0  0  0  0
 19 21  1  0  0  0  0
 21 23  1  0  0  0  0
 21 24  1  0  0  0  0
 25 26  1  0  0  0  0
 25 17  1  0  0  0  0
 27 25  1  0  0  0  0
 27 26  1  0  0  0  0
 28 29  1  0  0  0  0
 28  4  1  0  0  0  0
 30 28  1  0  0  0  0
 31 28  1  0  0  0  0
M  END
>  <minimizedAffinity>
-5.59991121

>  <minimizedRMSD>
0.445359349

$$$$
