
 OpenBabel03232520543D

 29 31  0  0  1  0  0  0  0  0999 V2000
   46.0490   33.6300   44.9450 C   0  0  2  0  0  0  0  0  0  0  0  0
   44.9960   34.6120   45.3840 C   0  0  0  0  0  0  0  0  0  0  0  0
   44.6850   35.6970   44.4830 C   0  0  0  0  0  0  0  0  0  0  0  0
   45.3650   35.8240   43.2080 C   0  0  1  0  0  0  0  0  0  0  0  0
   46.4370   34.8440   42.9090 C   0  0  0  0  0  0  0  0  0  0  0  0
   46.0600   33.5010   43.4640 C   0  0  0  0  0  0  0  0  0  0  0  0
   47.0180   34.1060   45.2730 H   0  0  0  0  0  0  0  0  0  0  0  0
   44.3560   34.7470   46.2470 H   0  0  0  0  0  0  0  0  0  0  0  0
   43.9610   36.4420   44.6940 H   0  0  0  0  0  0  0  0  0  0  0  0
   45.8060   36.8430   43.1300 H   0  0  0  0  0  0  0  0  0  0  0  0
   46.6040   34.8100   41.8220 H   0  0  0  0  0  0  0  0  0  0  0  0
   47.3640   35.1730   43.4400 H   0  0  0  0  0  0  0  0  0  0  0  0
   46.7440   32.7460   43.1040 H   0  0  0  0  0  0  0  0  0  0  0  0
   44.9930   33.3230   43.1470 H   0  0  0  0  0  0  0  0  0  0  0  0
   45.8070   32.4420   47.0720 C   0  0  0  0  0  0  0  0  0  0  0  0
   45.9100   32.3920   45.6950 C   0  0  0  0  0  0  0  0  0  0  0  0
   45.8870   31.1300   45.1080 C   0  0  0  0  0  0  0  0  0  0  0  0
   45.7690   30.0230   45.8610 N   0  0  0  0  0  0  0  0  0  0  0  0
   45.6680   30.0930   47.2180 C   0  0  0  0  0  0  0  0  0  0  0  0
   45.6870   31.3100   47.8210 N   0  0  0  0  0  0  0  0  0  0  0  0
   45.8100   33.3310   47.6870 H   0  0  0  0  0  0  0  0  0  0  0  0
   45.9630   31.0300   44.0540 H   0  0  0  0  0  0  0  0  0  0  0  0
   45.5380   28.8520   48.0240 C   0  0  0  0  0  0  0  0  0  0  0  0
   46.2530   27.6030   47.5850 C   0  0  0  0  0  0  0  0  0  0  0  0
   44.7770   27.7150   47.4090 C   0  0  0  0  0  0  0  0  0  0  0  0
   44.3050   35.7600   42.0950 C   0  0  0  0  0  0  0  0  0  0  0  0
   43.1010   35.2580   42.5360 F   0  0  0  0  0  0  0  0  0  0  0  0
   44.0370   37.0710   41.6970 F   0  0  0  0  0  0  0  0  0  0  0  0
   44.8050   35.1020   40.9940 F   0  0  0  0  0  0  0  0  0  0  0  0
  1  7  1  1  0  0  0
  1  2  1  0  0  0  0
  1 16  1  0  0  0  0
  2  8  1  0  0  0  0
  3  9  1  0  0  0  0
  3  2  2  0  0  0  0
  4 10  1  6  0  0  0
  4  3  1  0  0  0  0
  5  4  1  0  0  0  0
  5 12  1  0  0  0  0
  5  6  1  0  0  0  0
  6  1  1  0  0  0  0
 11  5  1  0  0  0  0
 13  6  1  0  0  0  0
 14  6  1  0  0  0  0
 15 21  1  0  0  0  0
 15 20  1  0  0  0  0
 16 15  2  0  0  0  0
 17 16  1  0  0  0  0
 17 18  2  0  0  0  0
 18 19  1  0  0  0  0
 19 20  2  0  0  0  0
 19 23  1  0  0  0  0
 22 17  1  0  0  0  0
 24 23  1  0  0  0  0
 25 24  1  0  0  0  0
 25 23  1  0  0  0  0
 26 27  1  0  0  0  0
 26  4  1  0  0  0  0
 28 26  1  0  0  0  0
 29 26  1  0  0  0  0
M  END
>  <minimizedAffinity>
-4.65489244

>  <minimizedRMSD>
1.00582492

$$$$
