
 OpenBabel03232520123D

 34 37  0  0  1  0  0  0  0  0999 V2000
   45.5750   30.1450   45.9530 N   0  0  0  0  0  0  0  0  0  0  0  0
   44.6140   29.1040   45.7470 C   0  0  0  0  0  0  0  0  0  0  0  0
   44.8190   27.9510   46.7100 C   0  0  0  0  0  0  0  0  0  0  0  0
   45.2550   28.4230   48.0850 C   0  0  0  0  0  0  0  0  0  0  0  0
   44.9380   29.8930   48.2670 C   0  0  0  0  0  0  0  0  0  0  0  0
   45.7910   30.6510   47.3010 C   0  0  1  0  0  0  0  0  0  0  0  0
   44.8030   28.6890   44.7290 H   0  0  0  0  0  0  0  0  0  0  0  0
   43.5540   29.4530   45.8500 H   0  0  0  0  0  0  0  0  0  0  0  0
   43.8440   27.3990   46.7600 H   0  0  0  0  0  0  0  0  0  0  0  0
   45.5600   27.2480   46.3030 H   0  0  0  0  0  0  0  0  0  0  0  0
   46.3580   28.3090   48.1330 H   0  0  0  0  0  0  0  0  0  0  0  0
   44.8200   27.7780   48.8650 H   0  0  0  0  0  0  0  0  0  0  0  0
   43.8780   30.0500   47.9500 H   0  0  0  0  0  0  0  0  0  0  0  0
   45.0980   30.1890   49.3010 H   0  0  0  0  0  0  0  0  0  0  0  0
   45.3550   31.6910   47.2700 H   0  0  0  0  0  0  0  0  0  0  0  0
   47.6320   32.4570   43.3340 C   0  0  0  0  0  0  0  0  0  0  0  0
   48.1130   31.1790   43.4540 C   0  0  0  0  0  0  0  0  0  0  0  0
   47.5030   30.3170   44.3010 C   0  0  0  0  0  0  0  0  0  0  0  0
   46.4140   30.8170   44.9930 C   0  0  0  0  0  0  0  0  0  0  0  0
   46.2660   32.4970   44.4400 S   0  0  0  0  0  0  0  0  0  0  0  0
   48.9860   30.8990   42.8490 H   0  0  0  0  0  0  0  0  0  0  0  0
   47.7880   29.3060   44.4730 H   0  0  0  0  0  0  0  0  0  0  0  0
   49.4820   35.4300   42.2240 C   0  0  0  0  0  0  0  0  0  0  0  0
   48.9540   35.6090   40.9150 C   0  0  0  0  0  0  0  0  0  0  0  0
   47.9720   34.6940   40.4480 C   0  0  0  0  0  0  0  0  0  0  0  0
   47.5790   33.6790   41.2890 N   0  0  0  0  0  0  0  0  0  0  0  0
   48.1060   33.5520   42.5120 C   0  0  0  0  0  0  0  0  0  0  0  0
   49.0330   34.4110   42.9570 N   0  0  0  0  0  0  0  0  0  0  0  0
   50.2290   36.1350   42.5610 H   0  0  0  0  0  0  0  0  0  0  0  0
   49.2610   36.4040   40.2590 H   0  0  0  0  0  0  0  0  0  0  0  0
   47.5490   34.7990   39.4610 H   0  0  0  0  0  0  0  0  0  0  0  0
   47.2280   30.7760   47.6730 C   0  0  0  0  0  0  0  0  0  0  0  0
   47.6930   30.9910   49.0610 C   0  0  0  0  0  0  0  0  0  0  0  0
   47.7260   32.1580   48.1680 C   0  0  0  0  0  0  0  0  0  0  0  0
  1  6  1  0  0  0  0
  2  8  1  0  0  0  0
  2  1  1  0  0  0  0
  2  3  1  0  0  0  0
  3  9  1  0  0  0  0
  3  4  1  0  0  0  0
  4 11  1  0  0  0  0
  4  5  1  0  0  0  0
  4 12  1  0  0  0  0
  5 14  1  0  0  0  0
  6 15  1  6  0  0  0
  6 32  1  0  0  0  0
  6  5  1  0  0  0  0
  7  2  1  0  0  0  0
 10  3  1  0  0  0  0
 13  5  1  0  0  0  0
 16 17  2  0  0  0  0
 16 20  1  0  0  0  0
 17 18  1  0  0  0  0
 18 22  1  0  0  0  0
 18 19  2  0  0  0  0
 19  1  1  0  0  0  0
 20 19  1  0  0  0  0
 21 17  1  0  0  0  0
 23 29  1  0  0  0  0
 23 28  1  0  0  0  0
 24 23  2  0  0  0  0
 25 24  1  0  0  0  0
 25 26  2  0  0  0  0
 26 27  1  0  0  0  0
 27 28  2  0  0  0  0
 27 16  1  0  0  0  0
 30 24  1  0  0  0  0
 31 25  1  0  0  0  0
 32 34  1  0  0  0  0
 32 33  1  0  0  0  0
 34 33  1  0  0  0  0
M  END
>  <minimizedAffinity>
-4.79076338

>  <minimizedRMSD>
4.05511951

$$$$
