
 OpenBabel03232520393D

 13 14  0  0  0  0  0  0  0  0999 V2000
   43.1560   34.1030   39.6090 C   0  0  0  0  0  0  0  0  0  0  0  0
   43.6270   34.6220   40.8420 C   0  0  0  0  0  0  0  0  0  0  0  0
   42.7180   35.2970   41.6690 C   0  0  0  0  0  0  0  0  0  0  0  0
   41.4100   35.4320   41.2650 N   0  0  0  0  0  0  0  0  0  0  0  0
   41.0200   34.9120   40.0690 C   0  0  0  0  0  0  0  0  0  0  0  0
   41.8630   34.2580   39.2480 N   0  0  0  0  0  0  0  0  0  0  0  0
   43.8280   33.5860   38.9650 H   0  0  0  0  0  0  0  0  0  0  0  0
   43.0410   35.7060   42.6160 H   0  0  0  0  0  0  0  0  0  0  0  0
   39.5880   35.0950   39.6900 C   0  0  0  0  0  0  0  0  0  0  0  0
   38.7370   33.8740   40.0780 C   0  0  0  0  0  0  0  0  0  0  0  0
   38.9560   34.2910   38.6330 C   0  0  0  0  0  0  0  0  0  0  0  0
   45.3410   34.4260   41.3400 S   0  0  0  0  0  0  0  0  0  0  0  0
   45.5390   33.0810   41.7380 H   0  0  0  0  0  0  0  0  0  0  0  0
  1  2  1  0  0  0  0
  2 12  1  0  0  0  0
  2  3  2  0  0  0  0
  3  8  1  0  0  0  0
  4  3  1  0  0  0  0
  5  4  2  0  0  0  0
  6  1  2  0  0  0  0
  6  5  1  0  0  0  0
  7  1  1  0  0  0  0
  9  5  1  0  0  0  0
  9 10  1  0  0  0  0
 11  9  1  0  0  0  0
 11 10  1  0  0  0  0
 12 13  1  0  0  0  0
M  END
>  <minimizedAffinity>
-3.450454

>  <minimizedRMSD>
7.07934999

$$$$
