
 OpenBabel03232518393D

 16 17  0  0  0  0  0  0  0  0999 V2000
   45.6290   34.8870   43.9510 C   0  0  0  0  0  0  0  0  0  0  0  0
   46.6930   34.3280   43.2330 C   0  0  0  0  0  0  0  0  0  0  0  0
   47.3690   33.2820   43.8170 C   0  0  0  0  0  0  0  0  0  0  0  0
   46.9760   32.8450   45.0540 N   0  0  0  0  0  0  0  0  0  0  0  0
   45.9510   33.4020   45.7170 C   0  0  0  0  0  0  0  0  0  0  0  0
   45.2670   34.4290   45.1710 N   0  0  0  0  0  0  0  0  0  0  0  0
   45.0900   35.7100   43.4990 H   0  0  0  0  0  0  0  0  0  0  0  0
   48.2030   32.8070   43.3090 H   0  0  0  0  0  0  0  0  0  0  0  0
   47.0740   34.8410   41.8970 C   0  0  0  0  0  0  0  0  0  0  0  0
   48.1730   34.1650   41.1660 C   0  0  0  0  0  0  0  0  0  0  0  0
   48.4350   35.5010   41.7140 C   0  0  0  0  0  0  0  0  0  0  0  0
   45.5260   32.9920   46.9590 O   0  0  0  0  0  0  0  0  0  0  0  0
   46.3190   32.3270   47.8990 C   0  0  0  0  0  0  0  0  0  0  0  0
   47.5930   32.8880   47.9850 F   0  0  0  0  0  0  0  0  0  0  0  0
   46.3730   30.9740   47.6330 F   0  0  0  0  0  0  0  0  0  0  0  0
   45.7600   32.5210   49.1670 F   0  0  0  0  0  0  0  0  0  0  0  0
  1  6  1  0  0  0  0
  2  3  1  0  0  0  0
  2  1  2  0  0  0  0
  3  4  2  0  0  0  0
  4  5  1  0  0  0  0
  5 12  1  0  0  0  0
  6  5  2  0  0  0  0
  7  1  1  0  0  0  0
  8  3  1  0  0  0  0
  9  2  1  0  0  0  0
 10 11  1  0  0  0  0
 10  9  1  0  0  0  0
 11  9  1  0  0  0  0
 12 13  1  0  0  0  0
 13 14  1  0  0  0  0
 13 16  1  0  0  0  0
 15 13  1  0  0  0  0
M  END
>  <minimizedAffinity>
-4.55031681

>  <minimizedRMSD>
1.51720428

$$$$
