
 OpenBabel03232520003D

 26 29  0  0  1  0  0  0  0  0999 V2000
   44.8110   33.6120   41.6130 N   0  0  0  0  0  0  0  0  0  0  0  0
   45.6850   33.7700   40.6590 C   0  0  0  0  0  0  0  0  0  0  0  0
   45.2050   33.1320   39.4970 C   0  0  0  0  0  0  0  0  0  0  0  0
   44.0260   32.5990   39.8090 N   0  0  0  0  0  0  0  0  0  0  0  0
   43.7660   32.8830   41.1050 C   0  0  0  0  0  0  0  0  0  0  0  0
   45.5870   33.0090   38.4910 H   0  0  0  0  0  0  0  0  0  0  0  0
   42.8820   32.5870   41.6590 H   0  0  0  0  0  0  0  0  0  0  0  0
   44.3120   35.3560   43.1510 C   0  0  0  0  0  0  0  0  0  0  0  0
   44.8610   34.0640   42.9260 C   0  0  0  0  0  0  0  0  0  0  0  0
   45.3750   33.4070   44.0360 C   0  0  0  0  0  0  0  0  0  0  0  0
   45.3280   34.0160   45.2420 N   0  0  0  0  0  0  0  0  0  0  0  0
   44.8020   35.2380   45.4130 C   0  0  0  0  0  0  0  0  0  0  0  0
   44.2970   35.9040   44.3760 N   0  0  0  0  0  0  0  0  0  0  0  0
   43.8890   35.9410   42.3460 H   0  0  0  0  0  0  0  0  0  0  0  0
   45.7770   32.4420   43.8310 H   0  0  0  0  0  0  0  0  0  0  0  0
   44.7870   35.6850   46.4000 H   0  0  0  0  0  0  0  0  0  0  0  0
   46.9890   34.4570   40.5540 C   0  0  2  0  0  0  0  0  0  0  0  0
   47.9870   33.9910   39.5380 C   0  0  0  0  0  0  0  0  0  0  0  0
   48.2440   33.7070   40.9870 C   0  0  1  0  0  0  0  0  0  0  0  0
   46.9500   35.5320   40.7990 H   0  0  0  0  0  0  0  0  0  0  0  0
   48.5940   34.7820   39.0080 H   0  0  0  0  0  0  0  0  0  0  0  0
   47.8560   33.1140   38.9210 H   0  0  0  0  0  0  0  0  0  0  0  0
   48.1220   32.6850   41.3560 H   0  0  0  0  0  0  0  0  0  0  0  0
   49.3500   34.5550   41.5770 C   0  0  0  0  0  0  0  0  0  0  0  0
   49.5480   34.7160   43.0170 C   0  0  0  0  0  0  0  0  0  0  0  0
   50.3930   33.6870   42.3020 C   0  0  0  0  0  0  0  0  0  0  0  0
  1  9  1  0  0  0  0
  2  1  1  0  0  0  0
  3  4  1  0  0  0  0
  3  2  2  0  0  0  0
  4  5  2  0  0  0  0
  5  1  1  0  0  0  0
  5  7  1  0  0  0  0
  6  3  1  0  0  0  0
  8 13  1  0  0  0  0
  9  8  2  0  0  0  0
  9 10  1  0  0  0  0
 10 11  2  0  0  0  0
 11 12  1  0  0  0  0
 12 16  1  0  0  0  0
 13 12  2  0  0  0  0
 14  8  1  0  0  0  0
 15 10  1  0  0  0  0
 17  2  1  0  0  0  0
 17 20  1  1  0  0  0
 17 19  1  0  0  0  0
 18 17  1  0  0  0  0
 18 19  1  0  0  0  0
 19 23  1  1  0  0  0
 19 24  1  0  0  0  0
 21 18  1  0  0  0  0
 22 18  1  0  0  0  0
 24 26  1  0  0  0  0
 24 25  1  0  0  0  0
 26 25  1  0  0  0  0
M  END
>  <minimizedAffinity>
-4.38260412

>  <minimizedRMSD>
2.02709031

$$$$
