
 OpenBabel03232515493D

 29 30  0  0  0  0  0  0  0  0999 V2000
   46.8000   34.2820   42.0330 C   0  0  0  0  0  0  0  0  0  0  0  0
   44.5650   36.1660   44.4510 C   0  0  0  0  0  0  0  0  0  0  0  0
   45.2680   35.8600   43.2710 C   0  0  0  0  0  0  0  0  0  0  0  0
   46.0350   34.6870   43.2210 C   0  0  0  0  0  0  0  0  0  0  0  0
   46.0600   33.8990   44.3270 N   0  0  0  0  0  0  0  0  0  0  0  0
   45.3800   34.2040   45.4550 C   0  0  0  0  0  0  0  0  0  0  0  0
   44.6300   35.3380   45.5250 N   0  0  0  0  0  0  0  0  0  0  0  0
   43.9620   37.0730   44.5140 H   0  0  0  0  0  0  0  0  0  0  0  0
   45.2350   36.4900   42.4180 H   0  0  0  0  0  0  0  0  0  0  0  0
   45.4910   33.4870   46.2580 H   0  0  0  0  0  0  0  0  0  0  0  0
   45.8340   34.2610   40.8460 C   0  0  0  0  0  0  0  0  0  0  0  0
   45.3460   35.2740   40.7750 H   0  0  0  0  0  0  0  0  0  0  0  0
   46.4170   34.1630   39.9010 H   0  0  0  0  0  0  0  0  0  0  0  0
   45.0530   33.5140   40.9860 H   0  0  0  0  0  0  0  0  0  0  0  0
   48.0040   35.0920   41.7340 C   0  0  0  0  0  0  0  0  0  0  0  0
   48.7150   34.9700   42.5790 H   0  0  0  0  0  0  0  0  0  0  0  0
   48.4910   34.6800   40.8500 H   0  0  0  0  0  0  0  0  0  0  0  0
   47.7970   36.1790   41.5850 H   0  0  0  0  0  0  0  0  0  0  0  0
   47.2580   32.8450   42.2290 C   0  0  0  0  0  0  0  0  0  0  0  0
   46.5350   32.1880   41.7020 H   0  0  0  0  0  0  0  0  0  0  0  0
   47.0670   32.6460   43.3210 H   0  0  0  0  0  0  0  0  0  0  0  0
   48.6490   32.6070   41.8330 C   0  0  0  0  0  0  0  0  0  0  0  0
   49.7510   32.9480   42.5910 C   0  0  0  0  0  0  0  0  0  0  0  0
   51.0320   32.6790   42.1220 C   0  0  0  0  0  0  0  0  0  0  0  0
   51.8990   32.9490   42.7240 H   0  0  0  0  0  0  0  0  0  0  0  0
   51.1910   32.0620   40.8810 C   0  0  0  0  0  0  0  0  0  0  0  0
   50.1280   31.7000   40.0820 C   0  0  0  0  0  0  0  0  0  0  0  0
   50.2360   31.2280   39.1310 H   0  0  0  0  0  0  0  0  0  0  0  0
   48.8750   32.0000   40.6140 C   0  0  0  0  0  0  0  0  0  0  0  0
  1 19  1  0  0  0  0
  1  4  1  0  0  0  0
  2  8  1  0  0  0  0
  2  7  1  0  0  0  0
  3  2  2  0  0  0  0
  4  3  1  0  0  0  0
  4  5  2  0  0  0  0
  5  6  1  0  0  0  0
  6  7  2  0  0  0  0
  6 10  1  0  0  0  0
  9  3  1  0  0  0  0
 11 14  1  0  0  0  0
 11  1  1  0  0  0  0
 12 11  1  0  0  0  0
 13 11  1  0  0  0  0
 15  1  1  0  0  0  0
 15 16  1  0  0  0  0
 17 15  1  0  0  0  0
 18 15  1  0  0  0  0
 19 21  1  0  0  0  0
 20 19  1  0  0  0  0
 22 19  1  0  0  0  0
 22 23  1  0  0  0  0
 24 23  2  0  0  0  0
 24 25  1  0  0  0  0
 26 24  1  0  0  0  0
 27 29  1  0  0  0  0
 27 26  2  0  0  0  0
 28 27  1  0  0  0  0
 29 22  2  0  0  0  0
M  END
>  <minimizedAffinity>
-4.66540003

>  <minimizedRMSD>
1.07690406

$$$$
