
 OpenBabel03232514553D

 31 33  0  0  1  0  0  0  0  0999 V2000
   47.3060   34.0060   41.4470 C   0  0  1  0  0  0  0  0  0  0  0  0
   48.1710   34.9380   40.6230 C   0  0  0  0  0  0  0  0  0  0  0  0
   49.0790   35.7980   41.4100 C   0  0  0  0  0  0  0  0  0  0  0  0
   49.7940   35.0870   42.5240 C   0  0  0  0  0  0  0  0  0  0  0  0
   49.3110   33.6890   42.7630 C   0  0  0  0  0  0  0  0  0  0  0  0
   47.7900   33.7080   42.8030 C   0  0  2  0  0  0  0  0  0  0  0  0
   47.2350   33.0490   40.8580 H   0  0  0  0  0  0  0  0  0  0  0  0
   48.7670   34.3700   39.8970 H   0  0  0  0  0  0  0  0  0  0  0  0
   47.4970   35.5870   40.0190 H   0  0  0  0  0  0  0  0  0  0  0  0
   49.7530   36.3130   40.7280 H   0  0  0  0  0  0  0  0  0  0  0  0
   48.4440   36.5990   41.8830 H   0  0  0  0  0  0  0  0  0  0  0  0
   50.8720   34.9990   42.2080 H   0  0  0  0  0  0  0  0  0  0  0  0
   49.8270   35.6870   43.4630 H   0  0  0  0  0  0  0  0  0  0  0  0
   49.6880   33.3560   43.7500 H   0  0  0  0  0  0  0  0  0  0  0  0
   49.6910   33.0380   41.9540 H   0  0  0  0  0  0  0  0  0  0  0  0
   47.5150   34.4960   43.5000 H   0  0  0  0  0  0  0  0  0  0  0  0
   44.2430   35.7830   42.5470 C   0  0  0  0  0  0  0  0  0  0  0  0
   43.2980   35.3730   41.5710 C   0  0  0  0  0  0  0  0  0  0  0  0
   43.7330   34.5010   40.5490 C   0  0  0  0  0  0  0  0  0  0  0  0
   45.0510   34.0930   40.5500 N   0  0  0  0  0  0  0  0  0  0  0  0
   45.8970   34.5090   41.4930 C   0  0  0  0  0  0  0  0  0  0  0  0
   45.5160   35.3480   42.4920 N   0  0  0  0  0  0  0  0  0  0  0  0
   44.0250   36.4410   43.3670 H   0  0  0  0  0  0  0  0  0  0  0  0
   42.3010   35.7490   41.6630 H   0  0  0  0  0  0  0  0  0  0  0  0
   43.0080   34.2010   39.8180 H   0  0  0  0  0  0  0  0  0  0  0  0
   47.3050   32.3940   43.3370 C   0  0  0  0  0  0  0  0  0  0  0  0
   47.0750   32.4460   44.8240 C   0  0  0  0  0  0  0  0  0  0  0  0
   46.2340   31.2040   45.1450 C   0  0  0  0  0  0  0  0  0  0  0  0
   47.1870   30.0160   45.0180 C   0  0  0  0  0  0  0  0  0  0  0  0
   48.4270   30.3770   44.2690 C   0  0  0  0  0  0  0  0  0  0  0  0
   48.1660   31.2230   43.0290 C   0  0  0  0  0  0  0  0  0  0  0  0
  1  7  1  6  0  0  0
  1 21  1  0  0  0  0
  1  6  1  0  0  0  0
  2  3  1  0  0  0  0
  2  1  1  0  0  0  0
  3 11  1  0  0  0  0
  3  4  1  0  0  0  0
  4  5  1  0  0  0  0
  4 13  1  0  0  0  0
  5  6  1  0  0  0  0
  5 14  1  0  0  0  0
  6 26  1  0  0  0  0
  6 16  1  1  0  0  0
  8  2  1  0  0  0  0
  9  2  1  0  0  0  0
 10  3  1  0  0  0  0
 12  4  1  0  0  0  0
 15  5  1  0  0  0  0
 17 23  1  0  0  0  0
 18 24  1  0  0  0  0
 18 17  2  0  0  0  0
 19 20  2  0  0  0  0
 19 18  1  0  0  0  0
 20 21  1  0  0  0  0
 21 22  2  0  0  0  0
 22 17  1  0  0  0  0
 25 19  1  0  0  0  0
 26 27  1  0  0  0  0
 27 28  1  0  0  0  0
 29 28  1  0  0  0  0
 30 29  1  0  0  0  0
 31 26  1  0  0  0  0
 31 30  1  0  0  0  0
M  END
>  <minimizedAffinity>
-5.42813444

>  <minimizedRMSD>
2.10457277

$$$$
