
 OpenBabel03232512493D

 21 23  0  0  0  0  0  0  0  0999 V2000
   45.4850   33.6050   46.0550 C   0  0  0  0  0  0  0  0  0  0  0  0
   46.0740   33.5330   44.7880 C   0  0  0  0  0  0  0  0  0  0  0  0
   47.1240   32.6490   44.5780 C   0  0  0  0  0  0  0  0  0  0  0  0
   47.5200   31.8910   45.6550 N   0  0  0  0  0  0  0  0  0  0  0  0
   46.9350   31.9790   46.8680 C   0  0  0  0  0  0  0  0  0  0  0  0
   45.9160   32.8400   47.0580 N   0  0  0  0  0  0  0  0  0  0  0  0
   44.6720   34.2840   46.2270 H   0  0  0  0  0  0  0  0  0  0  0  0
   47.3060   31.3450   47.6660 H   0  0  0  0  0  0  0  0  0  0  0  0
   47.8120   32.4720   43.3560 N   0  0  0  0  0  0  0  0  0  0  0  0
   47.7520   31.5860   42.3460 C   0  0  0  0  0  0  0  0  0  0  0  0
   48.6530   31.8780   41.3980 N   0  0  0  0  0  0  0  0  0  0  0  0
   49.2860   32.9790   41.8400 C   0  0  0  0  0  0  0  0  0  0  0  0
   48.7750   33.3580   43.0530 N   0  0  0  0  0  0  0  0  0  0  0  0
   47.0200   30.7640   42.3920 H   0  0  0  0  0  0  0  0  0  0  0  0
   50.0810   33.4590   41.2750 H   0  0  0  0  0  0  0  0  0  0  0  0
   45.6350   34.3510   43.6560 C   0  0  0  0  0  0  0  0  0  0  0  0
   44.5560   33.5590   42.9150 C   0  0  0  0  0  0  0  0  0  0  0  0
   43.7870   34.4100   41.9390 C   0  0  0  0  0  0  0  0  0  0  0  0
   44.2960   35.8120   41.7910 C   0  0  0  0  0  0  0  0  0  0  0  0
   44.6290   36.4960   43.0680 C   0  0  0  0  0  0  0  0  0  0  0  0
   44.9120   35.5650   44.2210 C   0  0  0  0  0  0  0  0  0  0  0  0
  1  7  1  0  0  0  0
  1  6  1  0  0  0  0
  2  1  2  0  0  0  0
  3  2  1  0  0  0  0
  3  4  2  0  0  0  0
  4  5  1  0  0  0  0
  5  6  2  0  0  0  0
  5  8  1  0  0  0  0
  9  3  1  0  0  0  0
 10 14  1  0  0  0  0
 10  9  1  0  0  0  0
 11 12  1  0  0  0  0
 11 10  2  0  0  0  0
 12 13  2  0  0  0  0
 13  9  1  0  0  0  0
 15 12  1  0  0  0  0
 16 21  1  0  0  0  0
 16  2  1  0  0  0  0
 17 16  1  0  0  0  0
 18 17  1  0  0  0  0
 19 18  1  0  0  0  0
 19 20  1  0  0  0  0
 20 21  1  0  0  0  0
M  END
>  <minimizedAffinity>
-3.97920728

>  <minimizedRMSD>
3.05458283

$$$$
