
 OpenBabel03232520483D

 38 41  0  0  0  0  0  0  0  0999 V2000
   46.8150   34.4700   42.3810 C   0  0  0  0  0  0  0  0  0  0  0  0
   48.0690   35.0000   42.2620 C   0  0  0  0  0  0  0  0  0  0  0  0
   48.7200   35.0930   41.0320 C   0  0  0  0  0  0  0  0  0  0  0  0
   48.0780   34.6330   39.8720 C   0  0  0  0  0  0  0  0  0  0  0  0
   46.8260   34.1050   39.9930 C   0  0  0  0  0  0  0  0  0  0  0  0
   46.2060   34.0270   41.2370 C   0  0  0  0  0  0  0  0  0  0  0  0
   48.6000   35.3670   43.1330 H   0  0  0  0  0  0  0  0  0  0  0  0
   49.7090   35.5170   40.9780 H   0  0  0  0  0  0  0  0  0  0  0  0
   48.5510   34.6900   38.9020 H   0  0  0  0  0  0  0  0  0  0  0  0
   46.3000   33.7390   39.1210 H   0  0  0  0  0  0  0  0  0  0  0  0
   44.9020   33.4700   41.3200 N   0  0  0  0  0  0  0  0  0  0  0  0
   43.9620   34.4070   40.9790 C   0  0  0  0  0  0  0  0  0  0  0  0
   42.6010   34.0750   40.9910 C   0  0  0  0  0  0  0  0  0  0  0  0
   42.2580   32.7760   41.3560 C   0  0  0  0  0  0  0  0  0  0  0  0
   41.0540   32.4170   41.3870 O   0  0  0  0  0  0  0  0  0  0  0  0
   43.2210   31.9000   41.6800 N   0  0  0  0  0  0  0  0  0  0  0  0
   44.5200   32.2310   41.6650 C   0  0  0  0  0  0  0  0  0  0  0  0
   45.4820   31.4880   41.9480 O   0  0  0  0  0  0  0  0  0  0  0  0
   44.1380   35.4110   40.6890 H   0  0  0  0  0  0  0  0  0  0  0  0
   42.9980   30.9150   41.9600 H   0  0  0  0  0  0  0  0  0  0  0  0
   41.5380   35.0520   40.6300 C   0  0  0  0  0  0  0  0  0  0  0  0
   41.0860   34.8630   39.6530 H   0  0  0  0  0  0  0  0  0  0  0  0
   40.7120   34.8940   41.3730 H   0  0  0  0  0  0  0  0  0  0  0  0
   41.8900   36.0990   40.7890 H   0  0  0  0  0  0  0  0  0  0  0  0
   44.7290   35.1220   45.4410 C   0  0  0  0  0  0  0  0  0  0  0  0
   45.2250   35.2760   44.1480 C   0  0  0  0  0  0  0  0  0  0  0  0
   46.2160   34.4140   43.7000 C   0  0  0  0  0  0  0  0  0  0  0  0
   46.6530   33.4640   44.5390 N   0  0  0  0  0  0  0  0  0  0  0  0
   46.1500   33.3360   45.7980 C   0  0  0  0  0  0  0  0  0  0  0  0
   45.1950   34.1610   46.2410 N   0  0  0  0  0  0  0  0  0  0  0  0
   43.9570   35.8060   45.7690 H   0  0  0  0  0  0  0  0  0  0  0  0
   44.8730   36.0370   43.4810 H   0  0  0  0  0  0  0  0  0  0  0  0
   46.7080   32.2450   46.6430 C   0  0  0  0  0  3  0  0  0  0  0  0
   46.9600   32.6540   48.0700 C   0  0  0  0  0  2  0  0  0  0  0  0
   47.7630   31.5310   48.6940 C   0  0  0  0  0  2  0  0  0  0  0  0
   47.4040   30.1930   48.0790 C   0  0  0  0  0  2  0  0  0  0  0  0
   45.9320   30.1980   47.7300 C   0  0  0  0  0  2  0  0  0  0  0  0
   45.7330   31.0940   46.5410 C   0  0  0  0  0  2  0  0  0  0  0  0
  1 27  1  0  0  0  0
  2  1  1  0  0  0  0
  2  7  1  0  0  0  0
  3  2  2  0  0  0  0
  4  5  2  0  0  0  0
  4  3  1  0  0  0  0
  5  6  1  0  0  0  0
  6 11  1  0  0  0  0
  6  1  2  0  0  0  0
  8  3  1  0  0  0  0
  9  4  1  0  0  0  0
 10  5  1  0  0  0  0
 11 17  1  0  0  0  0
 12 13  2  0  0  0  0
 12 11  1  0  0  0  0
 13 14  1  0  0  0  0
 14 15  2  0  0  0  0
 14 16  1  0  0  0  0
 16 20  1  0  0  0  0
 17 16  1  0  0  0  0
 17 18  2  0  0  0  0
 19 12  1  0  0  0  0
 21 24  1  0  0  0  0
 21 13  1  0  0  0  0
 21 23  1  0  0  0  0
 22 21  1  0  0  0  0
 25 31  1  0  0  0  0
 25 30  1  0  0  0  0
 26 25  2  0  0  0  0
 27 26  1  0  0  0  0
 27 28  2  0  0  0  0
 28 29  1  0  0  0  0
 29 30  2  0  0  0  0
 29 33  1  0  0  0  0
 32 26  1  0  0  0  0
 33 34  1  0  0  0  0
 34 35  1  0  0  0  0
 36 35  1  0  0  0  0
 37 36  1  0  0  0  0
 38 33  1  0  0  0  0
 38 37  1  0  0  0  0
M  END
>  <minimizedAffinity>
-7.07595778

>  <minimizedRMSD>
1.04115915

$$$$
