
 OpenBabel03232517193D

 43 48  0  0  1  0  0  0  0  0999 V2000
   46.3680   32.6550   46.9160 C   0  0  0  0  0  0  0  0  0  0  0  0
   45.5340   32.4850   47.9980 C   0  0  0  0  0  0  0  0  0  0  0  0
   46.2470   31.6850   48.8880 C   0  0  0  0  0  0  0  0  0  0  0  0
   47.4530   31.4140   48.3090 C   0  0  0  0  0  0  0  0  0  0  0  0
   47.4550   32.0190   47.1490 O   0  0  0  0  0  0  0  0  0  0  0  0
   44.5610   32.9320   48.0270 H   0  0  0  0  0  0  0  0  0  0  0  0
   45.8430   31.3840   49.8310 H   0  0  0  0  0  0  0  0  0  0  0  0
   46.6730   34.0390   43.6440 C   0  0  0  0  0  0  0  0  0  0  0  0
   45.5510   34.6830   44.1180 C   0  0  0  0  0  0  0  0  0  0  0  0
   45.2980   34.2380   45.4130 C   0  0  0  0  0  0  0  0  0  0  0  0
   46.2690   33.3410   45.6890 N   0  0  0  0  0  0  0  0  0  0  0  0
   47.0940   33.2070   44.6580 N   0  0  0  0  0  0  0  0  0  0  0  0
   44.8790   35.4300   43.6720 H   0  0  0  0  0  0  0  0  0  0  0  0
   44.4980   34.5340   46.0790 H   0  0  0  0  0  0  0  0  0  0  0  0
   48.6940   35.3890   40.8820 C   0  0  0  0  0  0  0  0  0  0  0  0
   48.1470   34.7350   39.7810 C   0  0  0  0  0  0  0  0  0  0  0  0
   47.0860   33.8320   39.9910 C   0  0  0  0  0  0  0  0  0  0  0  0
   46.6210   33.6240   41.2780 N   0  0  0  0  0  0  0  0  0  0  0  0
   47.1990   34.2930   42.3000 C   0  0  0  0  0  0  0  0  0  0  0  0
   48.2160   35.1620   42.1330 N   0  0  0  0  0  0  0  0  0  0  0  0
   49.5090   36.0970   40.8260 H   0  0  0  0  0  0  0  0  0  0  0  0
   48.5410   34.9310   38.8140 H   0  0  0  0  0  0  0  0  0  0  0  0
   46.6420   33.3110   39.1620 H   0  0  0  0  0  0  0  0  0  0  0  0
   48.4820   30.6130   48.9140 N   0  0  0  0  0  0  0  0  0  0  0  0
   49.3270   30.8540   49.9660 C   0  0  0  0  0  0  0  0  0  0  0  0
   50.1170   29.7280   50.1090 C   0  0  0  0  0  0  0  0  0  0  0  0
   49.7360   28.8370   49.1490 N   0  0  0  0  0  0  0  0  0  0  0  0
   48.7460   29.3880   48.4340 C   0  0  0  0  0  0  0  0  0  0  0  0
   49.2370   31.8090   50.4650 H   0  0  0  0  0  0  0  0  0  0  0  0
   50.8630   29.7120   50.8950 H   0  0  0  0  0  0  0  0  0  0  0  0
   48.0760   28.6660   47.2820 C   0  0  1  0  0  0  0  0  0  0  0  0
   47.7460   27.1620   47.5930 C   0  0  0  0  0  0  0  0  0  0  0  0
   46.7040   28.2040   47.3990 C   0  0  2  0  0  0  0  0  0  0  0  0
   48.5860   28.8190   46.3190 H   0  0  0  0  0  0  0  0  0  0  0  0
   48.0520   26.4490   46.8270 H   0  0  0  0  0  0  0  0  0  0  0  0
   47.9880   26.8330   48.6320 H   0  0  0  0  0  0  0  0  0  0  0  0
   46.1240   28.4460   48.3350 H   0  0  0  0  0  0  0  0  0  0  0  0
   45.8680   28.2230   46.1330 C   0  0  0  0  0  0  0  0  0  0  0  0
   46.4010   29.2300   45.1360 C   0  0  0  0  0  0  0  0  0  0  0  0
   45.3340   30.0430   44.4760 C   0  0  0  0  0  0  0  0  0  0  0  0
   44.1070   29.2540   44.1210 C   0  0  0  0  0  0  0  0  0  0  0  0
   43.5530   28.4770   45.2760 C   0  0  0  0  0  0  0  0  0  0  0  0
   44.4370   28.5250   46.5110 C   0  0  0  0  0  0  0  0  0  0  0  0
  1  5  1  0  0  0  0
  1  2  2  0  0  0  0
  2  6  1  0  0  0  0
  2  3  1  0  0  0  0
  3  7  1  0  0  0  0
  4  3  2  0  0  0  0
  4 24  1  0  0  0  0
  5  4  1  0  0  0  0
  8  9  1  0  0  0  0
  8 12  2  0  0  0  0
  9 10  2  0  0  0  0
 10 11  1  0  0  0  0
 10 14  1  0  0  0  0
 11  1  1  0  0  0  0
 12 11  1  0  0  0  0
 13  9  1  0  0  0  0
 15 20  1  0  0  0  0
 16 17  1  0  0  0  0
 16 15  2  0  0  0  0
 17 18  2  0  0  0  0
 18 19  1  0  0  0  0
 19  8  1  0  0  0  0
 20 19  2  0  0  0  0
 21 15  1  0  0  0  0
 22 16  1  0  0  0  0
 23 17  1  0  0  0  0
 24 25  1  0  0  0  0
 25 26  2  0  0  0  0
 25 29  1  0  0  0  0
 26 30  1  0  0  0  0
 27 26  1  0  0  0  0
 28 24  1  0  0  0  0
 28 27  2  0  0  0  0
 31 34  1  6  0  0  0
 31 33  1  0  0  0  0
 31 32  1  0  0  0  0
 31 28  1  0  0  0  0
 32 36  1  0  0  0  0
 33 32  1  0  0  0  0
 33 37  1  1  0  0  0
 35 32  1  0  0  0  0
 38 43  1  0  0  0  0
 38 33  1  0  0  0  0
 39 38  1  0  0  0  0
 40 39  1  0  0  0  0
 41 40  1  0  0  0  0
 41 42  1  0  0  0  0
 42 43  1  0  0  0  0
M  END
>  <minimizedAffinity>
-6.29139996

>  <minimizedRMSD>
0.189510047

$$$$
