
 OpenBabel03232515103D

 34 37  0  0  0  0  0  0  0  0999 V2000
   48.1340   31.0420   48.3870 C   0  0  0  0  0  0  0  0  0  0  0  0
   49.0700   31.6100   49.2250 C   0  0  0  0  0  0  0  0  0  0  0  0
   50.0980   30.8850   49.7600 C   0  0  0  0  0  0  0  0  0  0  0  0
   50.1730   29.5300   49.4250 C   0  0  0  0  0  0  0  0  0  0  0  0
   49.2430   28.9510   48.5880 C   0  0  0  0  0  0  0  0  0  0  0  0
   48.2140   29.7190   48.0650 C   0  0  0  0  0  0  0  0  0  0  0  0
   49.0130   32.6590   49.4840 H   0  0  0  0  0  0  0  0  0  0  0  0
   50.8340   31.3270   50.4180 H   0  0  0  0  0  0  0  0  0  0  0  0
   50.9950   28.9600   49.8550 H   0  0  0  0  0  0  0  0  0  0  0  0
   44.4310   35.8120   44.5580 C   0  0  0  0  0  0  0  0  0  0  0  0
   45.1630   35.7150   43.3810 C   0  0  0  0  0  0  0  0  0  0  0  0
   46.1630   34.7670   43.2910 C   0  0  0  0  0  0  0  0  0  0  0  0
   46.3870   33.9670   44.3640 N   0  0  0  0  0  0  0  0  0  0  0  0
   45.6560   34.0830   45.5030 C   0  0  0  0  0  0  0  0  0  0  0  0
   44.6850   34.9960   45.6080 N   0  0  0  0  0  0  0  0  0  0  0  0
   45.8940   33.2430   46.6260 N   0  0  0  0  0  0  0  0  0  0  0  0
   47.0980   32.6270   46.6980 C   0  0  0  0  0  0  0  0  0  0  0  0
   47.0720   31.8850   47.8620 C   0  0  0  0  0  0  0  0  0  0  0  0
   45.8750   32.0580   48.4700 N   0  0  0  0  0  0  0  0  0  0  0  0
   45.1570   32.8810   47.7270 C   0  0  0  0  0  0  0  0  0  0  0  0
   43.6380   36.5390   44.6770 H   0  0  0  0  0  0  0  0  0  0  0  0
   44.8920   36.4080   42.5920 H   0  0  0  0  0  0  0  0  0  0  0  0
   46.7220   34.7040   42.3670 H   0  0  0  0  0  0  0  0  0  0  0  0
   47.9600   32.6380   46.0480 H   0  0  0  0  0  0  0  0  0  0  0  0
   44.1580   33.2820   47.8370 H   0  0  0  0  0  0  0  0  0  0  0  0
   49.3230   27.5280   48.2380 C   0  0  0  0  0  0  0  0  0  0  0  0
   49.8170   26.7160   49.4080 C   0  0  0  0  0  0  0  0  0  0  0  0
   49.7690   25.2510   49.1450 C   0  0  0  0  0  0  0  0  0  0  0  0
   50.2190   24.8240   47.7940 C   0  0  0  0  0  0  0  0  0  0  0  0
   50.1420   25.8460   46.7200 C   0  0  0  0  0  0  0  0  0  0  0  0
   50.3450   27.2590   47.1410 C   0  0  0  0  0  0  0  0  0  0  0  0
   47.2710   29.1010   47.2070 N   0  0  0  0  0  0  0  0  0  0  0  0
   46.3090   28.7610   47.4790 H   0  0  0  0  0  0  0  0  0  0  0  0
   47.8010   29.0970   46.3050 H   0  0  0  0  0  0  0  0  0  0  0  0
  1  2  1  0  0  0  0
  2  7  1  0  0  0  0
  2  3  2  0  0  0  0
  3  8  1  0  0  0  0
  4  3  1  0  0  0  0
  4  9  1  0  0  0  0
  5  4  2  0  0  0  0
  6  1  2  0  0  0  0
  6  5  1  0  0  0  0
 10 21  1  0  0  0  0
 10 15  1  0  0  0  0
 11 10  2  0  0  0  0
 12 11  1  0  0  0  0
 12 13  2  0  0  0  0
 13 14  1  0  0  0  0
 14 15  2  0  0  0  0
 14 16  1  0  0  0  0
 16 17  1  0  0  0  0
 16 20  1  0  0  0  0
 17 18  2  0  0  0  0
 18  1  1  0  0  0  0
 18 19  1  0  0  0  0
 20 25  1  0  0  0  0
 20 19  2  0  0  0  0
 22 11  1  0  0  0  0
 23 12  1  0  0  0  0
 24 17  1  0  0  0  0
 26  5  1  0  0  0  0
 26 27  1  0  0  0  0
 28 27  1  0  0  0  0
 29 28  1  0  0  0  0
 30 31  1  0  0  0  0
 30 29  1  0  0  0  0
 31 26  1  0  0  0  0
 32 33  1  0  0  0  0
 32  6  1  0  0  0  0
 34 32  1  0  0  0  0
M  END
>  <minimizedAffinity>
-5.87506294

>  <minimizedRMSD>
0.545098186

$$$$
