
 OpenBabel03232520303D

 42 46  0  0  1  0  0  0  0  0999 V2000
   46.9980   34.5310   41.2690 C   0  0  0  0  0  0  0  0  0  0  0  0
   48.2710   34.9930   40.9560 C   0  0  0  0  0  0  0  0  0  0  0  0
   48.5480   34.7160   39.6920 N   0  0  0  0  0  0  0  0  0  0  0  0
   47.4890   34.0850   39.1670 C   0  0  0  0  0  0  0  0  0  0  0  0
   47.2430   33.5760   37.8950 C   0  0  0  0  0  0  0  0  0  0  0  0
   46.0460   32.9660   37.6320 C   0  0  0  0  0  0  0  0  0  0  0  0
   45.0340   32.8090   38.5500 C   0  0  0  0  0  0  0  0  0  0  0  0
   45.3140   33.3280   39.8040 C   0  0  0  0  0  0  0  0  0  0  0  0
   46.4820   33.9480   40.1380 C   0  0  0  0  0  0  0  0  0  0  0  0
   49.4180   34.9230   39.1320 H   0  0  0  0  0  0  0  0  0  0  0  0
   48.0210   33.6780   37.1290 H   0  0  0  0  0  0  0  0  0  0  0  0
   45.9280   32.5960   36.6210 H   0  0  0  0  0  0  0  0  0  0  0  0
   44.1050   32.3300   38.3250 H   0  0  0  0  0  0  0  0  0  0  0  0
   44.5710   33.2530   40.6050 H   0  0  0  0  0  0  0  0  0  0  0  0
   44.8070   35.8250   44.0050 C   0  0  0  0  0  0  0  0  0  0  0  0
   45.4580   35.7300   42.7660 C   0  0  0  0  0  0  0  0  0  0  0  0
   46.3140   34.6370   42.5630 C   0  0  0  0  0  0  0  0  0  0  0  0
   46.4900   33.7120   43.5550 N   0  0  0  0  0  0  0  0  0  0  0  0
   45.8280   33.8640   44.7350 C   0  0  0  0  0  0  0  0  0  0  0  0
   44.9980   34.8980   44.9670 N   0  0  0  0  0  0  0  0  0  0  0  0
   44.1740   36.7020   44.0530 H   0  0  0  0  0  0  0  0  0  0  0  0
   45.3450   36.4350   41.9630 H   0  0  0  0  0  0  0  0  0  0  0  0
   45.9640   33.1340   45.5240 H   0  0  0  0  0  0  0  0  0  0  0  0
   49.1630   35.6860   41.9070 C   0  0  0  0  0  0  0  0  0  0  0  0
   49.8160   36.4220   41.4060 H   0  0  0  0  0  0  0  0  0  0  0  0
   48.5820   36.2330   42.6600 H   0  0  0  0  0  0  0  0  0  0  0  0
   50.0610   34.7130   42.6320 C   0  0  0  0  0  0  0  0  0  0  0  0
   51.0490   35.1930   42.8170 H   0  0  0  0  0  0  0  0  0  0  0  0
   49.6390   34.5490   43.6660 H   0  0  0  0  0  0  0  0  0  0  0  0
   50.2890   33.4310   41.9000 C   0  0  1  0  0  0  0  0  0  0  0  0
   51.0210   32.3060   42.4830 C   0  0  0  0  0  0  0  0  0  0  0  0
   49.5510   32.2290   42.5280 C   0  0  2  0  0  0  0  0  0  0  0  0
   50.2910   33.4900   40.7820 H   0  0  0  0  0  0  0  0  0  0  0  0
   51.5220   32.4890   43.4610 H   0  0  0  0  0  0  0  0  0  0  0  0
   51.6380   31.6810   41.8280 H   0  0  0  0  0  0  0  0  0  0  0  0
   49.0230   32.3840   43.4870 H   0  0  0  0  0  0  0  0  0  0  0  0
   48.8970   31.2470   41.6130 C   0  0  0  0  0  0  0  0  0  0  0  0
   49.1130   29.8670   42.1990 C   0  0  0  0  0  0  0  0  0  0  0  0
   48.3740   28.7870   41.4390 C   0  0  0  0  0  0  0  0  0  0  0  0
   48.8340   28.8410   39.9930 C   0  0  0  0  0  0  0  0  0  0  0  0
   48.5990   30.2310   39.4320 C   0  0  0  0  0  0  0  0  0  0  0  0
   49.4370   31.2460   40.2240 C   0  0  0  0  0  0  0  0  0  0  0  0
  1 17  1  0  0  0  0
  2  1  2  0  0  0  0
  2 24  1  0  0  0  0
  3  2  1  0  0  0  0
  4  3  1  0  0  0  0
  4  9  1  0  0  0  0
  5  4  2  0  0  0  0
  6  5  1  0  0  0  0
  6  7  2  0  0  0  0
  7  8  1  0  0  0  0
  8  9  2  0  0  0  0
  8 14  1  0  0  0  0
  9  1  1  0  0  0  0
 10  3  1  0  0  0  0
 11  5  1  0  0  0  0
 12  6  1  0  0  0  0
 13  7  1  0  0  0  0
 15 21  1  0  0  0  0
 15 20  1  0  0  0  0
 16 15  2  0  0  0  0
 17 16  1  0  0  0  0
 17 18  2  0  0  0  0
 18 19  1  0  0  0  0
 19 20  2  0  0  0  0
 19 23  1  0  0  0  0
 22 16  1  0  0  0  0
 24 27  1  0  0  0  0
 24 26  1  0  0  0  0
 25 24  1  0  0  0  0
 27 28  1  0  0  0  0
 27 29  1  0  0  0  0
 30 33  1  6  0  0  0
 30 31  1  0  0  0  0
 30 32  1  0  0  0  0
 30 27  1  0  0  0  0
 31 32  1  0  0  0  0
 31 34  1  0  0  0  0
 32 36  1  1  0  0  0
 35 31  1  0  0  0  0
 37 38  1  0  0  0  0
 37 32  1  0  0  0  0
 39 38  1  0  0  0  0
 40 39  1  0  0  0  0
 41 40  1  0  0  0  0
 41 42  1  0  0  0  0
 42 37  1  0  0  0  0
M  END
>  <minimizedAffinity>
-5.79248857

>  <minimizedRMSD>
0.175338134

$$$$
