
 OpenBabel03232520573D

 34 36  0  0  1  0  0  0  0  0999 V2000
   46.2140   33.6080   45.3360 C   0  0  2  0  0  0  0  0  0  0  0  0
   45.0050   34.6640   45.4940 C   0  0  0  0  0  0  0  0  0  0  0  0
   44.7730   35.5620   44.3910 C   0  0  0  0  0  0  0  0  0  0  0  0
   45.5810   35.4710   43.1850 C   0  0  1  0  0  0  0  0  0  0  0  0
   46.6840   34.5070   43.2060 C   0  0  0  0  0  0  0  0  0  0  0  0
   46.2280   33.2670   43.9650 C   0  0  0  0  0  0  0  0  0  0  0  0
   46.9200   34.4660   45.6070 H   0  0  0  0  0  0  0  0  0  0  0  0
   44.2520   34.9160   46.2460 H   0  0  0  0  0  0  0  0  0  0  0  0
   44.0100   36.2970   44.3850 H   0  0  0  0  0  0  0  0  0  0  0  0
   45.9760   36.4830   42.9410 H   0  0  0  0  0  0  0  0  0  0  0  0
   47.6110   34.9060   43.7030 H   0  0  0  0  0  0  0  0  0  0  0  0
   46.9760   34.2310   42.1760 H   0  0  0  0  0  0  0  0  0  0  0  0
   46.7840   32.5130   43.4600 H   0  0  0  0  0  0  0  0  0  0  0  0
   45.1590   33.1280   43.5950 H   0  0  0  0  0  0  0  0  0  0  0  0
   45.1900   32.8860   47.4840 C   0  0  0  0  0  0  0  0  0  0  0  0
   45.9850   32.6470   46.3750 C   0  0  0  0  0  0  0  0  0  0  0  0
   46.5170   31.3430   46.2460 C   0  0  0  0  0  0  0  0  0  0  0  0
   46.2230   30.4480   47.1820 N   0  0  0  0  0  0  0  0  0  0  0  0
   45.4440   30.6990   48.2580 C   0  0  0  0  0  0  0  0  0  0  0  0
   44.9270   31.9080   48.4170 N   0  0  0  0  0  0  0  0  0  0  0  0
   45.2280   29.6370   49.2060 N   0  0  0  0  0  0  0  0  0  0  0  0
   44.7580   33.8590   47.6430 H   0  0  0  0  0  0  0  0  0  0  0  0
   45.0880   29.8490   50.2280 H   0  0  0  0  0  0  0  0  0  0  0  0
   45.2120   28.6680   48.8660 H   0  0  0  0  0  0  0  0  0  0  0  0
   47.3890   30.7810   45.1880 C   0  0  0  0  0  3  0  0  0  0  0  0
   48.4690   29.8740   45.6670 C   0  0  0  0  0  2  0  0  0  0  0  0
   48.9130   28.8360   44.6540 C   0  0  0  0  0  2  0  0  0  0  0  0
   48.7760   29.4870   43.2870 C   0  0  0  0  0  2  0  0  0  0  0  0
   47.2570   29.4680   43.0510 C   0  0  0  0  0  2  0  0  0  0  0  0
   46.5520   29.7460   44.3400 C   0  0  0  0  0  2  0  0  0  0  0  0
   44.6150   35.1340   42.0200 C   0  0  0  0  0  0  0  0  0  0  0  0
   43.6350   34.2310   42.3790 F   0  0  0  0  0  0  0  0  0  0  0  0
   43.9580   36.3190   41.6990 F   0  0  0  0  0  0  0  0  0  0  0  0
   45.3310   34.7460   40.9040 F   0  0  0  0  0  0  0  0  0  0  0  0
  1  2  1  0  0  0  0
  1  7  1  1  0  0  0
  1 16  1  0  0  0  0
  2  8  1  0  0  0  0
  3  2  2  0  0  0  0
  4 10  1  6  0  0  0
  4  5  1  0  0  0  0
  4  3  1  0  0  0  0
  5 11  1  0  0  0  0
  5  6  1  0  0  0  0
  6  1  1  0  0  0  0
  9  3  1  0  0  0  0
 12  5  1  0  0  0  0
 13  6  1  0  0  0  0
 14  6  1  0  0  0  0
 15 22  1  0  0  0  0
 15 20  1  0  0  0  0
 16 15  2  0  0  0  0
 17 16  1  0  0  0  0
 17 18  2  0  0  0  0
 18 19  1  0  0  0  0
 19 20  2  0  0  0  0
 19 21  1  0  0  0  0
 21 23  1  0  0  0  0
 24 21  1  0  0  0  0
 25 26  1  0  0  0  0
 25 17  1  0  0  0  0
 27 26  1  0  0  0  0
 28 27  1  0  0  0  0
 29 28  1  0  0  0  0
 29 30  1  0  0  0  0
 30 25  1  0  0  0  0
 31 32  1  0  0  0  0
 31  4  1  0  0  0  0
 33 31  1  0  0  0  0
 34 31  1  0  0  0  0
M  END
>  <minimizedAffinity>
-5.81047869

>  <minimizedRMSD>
0.34314689

$$$$
