
 OpenBabel03232514163D

 37 40  0  0  1  0  0  0  0  0999 V2000
   45.6450   34.6010   42.9510 C   0  0  0  0  0  0  0  0  0  0  0  0
   45.4000   34.1290   44.2310 C   0  0  0  0  0  0  0  0  0  0  0  0
   46.5600   33.6310   44.6950 N   0  0  0  0  0  0  0  0  0  0  0  0
   47.5250   33.7690   43.7610 C   0  0  0  0  0  0  0  0  0  0  0  0
   46.9470   34.3690   42.6880 N   0  0  0  0  0  0  0  0  0  0  0  0
   44.5230   34.0990   44.8560 H   0  0  0  0  0  0  0  0  0  0  0  0
   48.5640   33.4770   43.8030 H   0  0  0  0  0  0  0  0  0  0  0  0
   47.5980   34.7140   41.4540 C   0  0  1  0  0  0  0  0  0  0  0  0
   48.8650   34.1010   41.0080 C   0  0  0  0  0  0  0  0  0  0  0  0
   47.5960   33.5950   40.4100 C   0  0  2  0  0  0  0  0  0  0  0  0
   47.3150   35.7110   41.0540 H   0  0  0  0  0  0  0  0  0  0  0  0
   49.5580   34.7680   40.4980 H   0  0  0  0  0  0  0  0  0  0  0  0
   49.3820   33.4640   41.7670 H   0  0  0  0  0  0  0  0  0  0  0  0
   47.2910   32.5750   40.7530 H   0  0  0  0  0  0  0  0  0  0  0  0
   47.1930   33.9560   39.0100 C   0  0  0  0  0  0  0  0  0  0  0  0
   48.3090   34.2230   38.0690 C   0  0  0  0  0  0  0  0  0  0  0  0
   48.8550   33.0520   37.3320 C   0  0  0  0  0  0  0  0  0  0  0  0
   47.8340   32.0480   36.9130 C   0  0  0  0  0  0  0  0  0  0  0  0
   46.8580   31.7030   38.0140 C   0  0  0  0  0  0  0  0  0  0  0  0
   46.1960   32.9440   38.5120 C   0  0  0  0  0  0  0  0  0  0  0  0
   44.5840   35.2260   42.1210 C   0  0  0  0  0  0  0  0  0  0  0  0
   44.0030   35.9410   42.7470 H   0  0  0  0  0  0  0  0  0  0  0  0
   45.0340   35.7060   41.2320 H   0  0  0  0  0  0  0  0  0  0  0  0
   43.6180   34.1210   41.6750 C   0  0  0  0  0  0  0  0  0  0  0  0
   43.1800   33.6210   42.5600 H   0  0  0  0  0  0  0  0  0  0  0  0
   44.2080   33.3680   41.1230 H   0  0  0  0  0  0  0  0  0  0  0  0
   42.7510   34.5860   39.4130 C   0  0  0  0  0  0  0  0  0  0  0  0
   42.6230   34.6990   40.7960 C   0  0  0  0  0  0  0  0  0  0  0  0
   41.5060   35.3860   41.2720 C   0  0  0  0  0  0  0  0  0  0  0  0
   40.6230   35.8950   40.3750 N   0  0  0  0  0  0  0  0  0  0  0  0
   40.7870   35.7620   39.0530 C   0  0  0  0  0  0  0  0  0  0  0  0
   41.8460   35.1110   38.5790 N   0  0  0  0  0  0  0  0  0  0  0  0
   41.2990   35.5480   42.6540 N   0  0  0  0  0  0  0  0  0  0  0  0
   43.6010   34.0620   39.0030 H   0  0  0  0  0  0  0  0  0  0  0  0
   40.0030   36.2190   38.4430 H   0  0  0  0  0  0  0  0  0  0  0  0
   41.4640   34.7110   43.2270 H   0  0  0  0  0  0  0  0  0  0  0  0
   40.9990   36.3840   43.2070 H   0  0  0  0  0  0  0  0  0  0  0  0
  1  2  2  0  0  0  0
  2  3  1  0  0  0  0
  2  6  1  0  0  0  0
  4  7  1  0  0  0  0
  4  3  2  0  0  0  0
  5  1  1  0  0  0  0
  5  4  1  0  0  0  0
  8 11  1  6  0  0  0
  8  5  1  0  0  0  0
  9  8  1  0  0  0  0
  9 13  1  0  0  0  0
 10 14  1  1  0  0  0
 10  9  1  0  0  0  0
 10  8  1  0  0  0  0
 12  9  1  0  0  0  0
 15 10  1  0  0  0  0
 16 15  1  0  0  0  0
 17 16  1  0  0  0  0
 18 17  1  0  0  0  0
 18 19  1  0  0  0  0
 19 20  1  0  0  0  0
 20 15  1  0  0  0  0
 21 22  1  0  0  0  0
 21  1  1  0  0  0  0
 23 21  1  0  0  0  0
 24 21  1  0  0  0  0
 24 25  1  0  0  0  0
 26 24  1  0  0  0  0
 27 28  1  0  0  0  0
 28 29  2  0  0  0  0
 28 24  1  0  0  0  0
 29 33  1  0  0  0  0
 30 29  1  0  0  0  0
 31 30  2  0  0  0  0
 32 31  1  0  0  0  0
 32 27  2  0  0  0  0
 33 37  1  0  0  0  0
 33 36  1  0  0  0  0
 34 27  1  0  0  0  0
 35 31  1  0  0  0  0
M  END
>  <minimizedAffinity>
-5.27824259

>  <minimizedRMSD>
1.92978954

$$$$
