
 OpenBabel03232520573D

 34 36  0  0  1  0  0  0  0  0999 V2000
   46.2090   33.6330   45.3140 C   0  0  2  0  0  0  0  0  0  0  0  0
   44.9900   34.6770   45.4850 C   0  0  0  0  0  0  0  0  0  0  0  0
   44.7480   35.5830   44.3910 C   0  0  0  0  0  0  0  0  0  0  0  0
   45.5530   35.5100   43.1820 C   0  0  1  0  0  0  0  0  0  0  0  0
   46.6650   34.5560   43.1910 C   0  0  0  0  0  0  0  0  0  0  0  0
   46.2220   33.3050   43.9390 C   0  0  0  0  0  0  0  0  0  0  0  0
   46.9080   34.4940   45.5910 H   0  0  0  0  0  0  0  0  0  0  0  0
   44.2370   34.9160   46.2420 H   0  0  0  0  0  0  0  0  0  0  0  0
   43.9780   36.3120   44.3930 H   0  0  0  0  0  0  0  0  0  0  0  0
   45.9380   36.5270   42.9460 H   0  0  0  0  0  0  0  0  0  0  0  0
   47.5900   34.9590   43.6890 H   0  0  0  0  0  0  0  0  0  0  0  0
   46.9560   34.2910   42.1580 H   0  0  0  0  0  0  0  0  0  0  0  0
   46.7830   32.5610   43.4270 H   0  0  0  0  0  0  0  0  0  0  0  0
   45.1530   33.1590   43.5720 H   0  0  0  0  0  0  0  0  0  0  0  0
   45.1970   32.8830   47.4580 C   0  0  0  0  0  0  0  0  0  0  0  0
   45.9910   32.6610   46.3440 C   0  0  0  0  0  0  0  0  0  0  0  0
   46.5340   31.3630   46.2020 C   0  0  0  0  0  0  0  0  0  0  0  0
   46.2510   30.4570   47.1310 N   0  0  0  0  0  0  0  0  0  0  0  0
   45.4730   30.6910   48.2120 C   0  0  0  0  0  0  0  0  0  0  0  0
   44.9450   31.8940   48.3820 N   0  0  0  0  0  0  0  0  0  0  0  0
   45.2680   29.6190   49.1500 N   0  0  0  0  0  0  0  0  0  0  0  0
   44.7560   33.8510   47.6260 H   0  0  0  0  0  0  0  0  0  0  0  0
   45.1290   29.8200   50.1750 H   0  0  0  0  0  0  0  0  0  0  0  0
   45.2600   28.6530   48.8020 H   0  0  0  0  0  0  0  0  0  0  0  0
   47.4080   30.8180   45.1380 C   0  0  0  0  0  3  0  0  0  0  0  0
   48.4610   29.8700   45.5980 C   0  0  0  0  0  2  0  0  0  0  0  0
   48.8960   28.8590   44.5550 C   0  0  0  0  0  2  0  0  0  0  0  0
   48.7930   29.5610   43.2100 C   0  0  0  0  0  2  0  0  0  0  0  0
   47.2790   29.5850   42.9530 C   0  0  0  0  0  2  0  0  0  0  0  0
   46.5610   29.8340   44.2410 C   0  0  0  0  0  2  0  0  0  0  0  0
   44.5860   35.1750   42.0160 C   0  0  0  0  0  0  0  0  0  0  0  0
   43.5970   34.2840   42.3790 F   0  0  0  0  0  0  0  0  0  0  0  0
   43.9410   36.3650   41.6860 F   0  0  0  0  0  0  0  0  0  0  0  0
   45.3020   34.7730   40.9040 F   0  0  0  0  0  0  0  0  0  0  0  0
  1  2  1  0  0  0  0
  1  7  1  1  0  0  0
  1 16  1  0  0  0  0
  2  8  1  0  0  0  0
  3  9  1  0  0  0  0
  3  2  2  0  0  0  0
  4 10  1  6  0  0  0
  4  5  1  0  0  0  0
  4  3  1  0  0  0  0
  5 11  1  0  0  0  0
  5  6  1  0  0  0  0
  6  1  1  0  0  0  0
 12  5  1  0  0  0  0
 13  6  1  0  0  0  0
 14  6  1  0  0  0  0
 15 22  1  0  0  0  0
 15 20  1  0  0  0  0
 16 15  2  0  0  0  0
 17 16  1  0  0  0  0
 17 18  2  0  0  0  0
 18 19  1  0  0  0  0
 19 20  2  0  0  0  0
 19 21  1  0  0  0  0
 21 23  1  0  0  0  0
 24 21  1  0  0  0  0
 25 26  1  0  0  0  0
 25 17  1  0  0  0  0
 27 26  1  0  0  0  0
 28 27  1  0  0  0  0
 29 28  1  0  0  0  0
 29 30  1  0  0  0  0
 30 25  1  0  0  0  0
 31 32  1  0  0  0  0
 31  4  1  0  0  0  0
 33 31  1  0  0  0  0
 34 31  1  0  0  0  0
M  END
>  <minimizedAffinity>
-5.80715942

>  <minimizedRMSD>
0.657783687

$$$$
