
 OpenBabel03232520583D

 33 35  0  0  1  0  0  0  0  0999 V2000
   46.2040   33.6210   45.3320 C   0  0  2  0  0  0  0  0  0  0  0  0
   45.0000   34.6730   45.5250 C   0  0  0  0  0  0  0  0  0  0  0  0
   44.7440   35.5770   44.4270 C   0  0  0  0  0  0  0  0  0  0  0  0
   45.5360   35.5040   43.2110 C   0  0  1  0  0  0  0  0  0  0  0  0
   46.6400   34.5330   43.2050 C   0  0  0  0  0  0  0  0  0  0  0  0
   46.1530   33.2910   43.9470 C   0  0  0  0  0  0  0  0  0  0  0  0
   46.9430   34.4470   45.5820 H   0  0  0  0  0  0  0  0  0  0  0  0
   44.2730   34.9160   46.2940 H   0  0  0  0  0  0  0  0  0  0  0  0
   43.9590   36.3180   44.4690 H   0  0  0  0  0  0  0  0  0  0  0  0
   45.9030   36.5320   42.9910 H   0  0  0  0  0  0  0  0  0  0  0  0
   47.4930   34.9740   43.7760 H   0  0  0  0  0  0  0  0  0  0  0  0
   46.9970   34.3350   42.1970 H   0  0  0  0  0  0  0  0  0  0  0  0
   45.0380   33.2160   43.6560 H   0  0  0  0  0  0  0  0  0  0  0  0
   46.5980   32.5080   43.4060 H   0  0  0  0  0  0  0  0  0  0  0  0
   45.2030   32.8570   47.4970 C   0  0  0  0  0  0  0  0  0  0  0  0
   45.9890   32.6510   46.3660 C   0  0  0  0  0  0  0  0  0  0  0  0
   46.5110   31.3410   46.1900 C   0  0  0  0  0  0  0  0  0  0  0  0
   46.2140   30.4140   47.0980 N   0  0  0  0  0  0  0  0  0  0  0  0
   45.4460   30.6400   48.1890 C   0  0  0  0  0  0  0  0  0  0  0  0
   44.9420   31.8470   48.3960 N   0  0  0  0  0  0  0  0  0  0  0  0
   45.2280   29.5590   49.1170 N   0  0  0  0  0  0  0  0  0  0  0  0
   44.7880   33.8200   47.6930 H   0  0  0  0  0  0  0  0  0  0  0  0
   45.8870   29.4050   49.9290 H   0  0  0  0  0  0  0  0  0  0  0  0
   44.4060   28.9570   48.9410 H   0  0  0  0  0  0  0  0  0  0  0  0
   47.4510   30.8590   45.1600 C   0  0  0  0  0  3  0  0  0  0  0  0
   46.6930   29.8160   44.2360 C   0  0  0  0  0  2  0  0  0  0  0  0
   47.7830   29.2540   43.3850 C   0  0  0  0  0  2  0  0  0  0  0  0
   48.8750   29.0500   44.4100 C   0  0  0  0  0  2  0  0  0  0  0  0
   48.4660   29.8690   45.6190 C   0  0  0  0  0  2  0  0  0  0  0  0
   44.5600   35.1820   42.0510 C   0  0  0  0  0  0  0  0  0  0  0  0
   43.5500   34.3220   42.4210 F   0  0  0  0  0  0  0  0  0  0  0  0
   43.9480   36.3860   41.7070 F   0  0  0  0  0  0  0  0  0  0  0  0
   45.2610   34.7530   40.9420 F   0  0  0  0  0  0  0  0  0  0  0  0
  1  2  1  0  0  0  0
  1  7  1  1  0  0  0
  1 16  1  0  0  0  0
  2  8  1  0  0  0  0
  3  9  1  0  0  0  0
  3  2  2  0  0  0  0
  4 10  1  6  0  0  0
  4  3  1  0  0  0  0
  5  4  1  0  0  0  0
  5 11  1  0  0  0  0
  5  6  1  0  0  0  0
  6  1  1  0  0  0  0
 12  5  1  0  0  0  0
 13  6  1  0  0  0  0
 14  6  1  0  0  0  0
 15 22  1  0  0  0  0
 15 20  1  0  0  0  0
 16 15  2  0  0  0  0
 17 16  1  0  0  0  0
 17 18  2  0  0  0  0
 18 19  1  0  0  0  0
 19 20  2  0  0  0  0
 19 21  1  0  0  0  0
 21 23  1  0  0  0  0
 24 21  1  0  0  0  0
 25 29  1  0  0  0  0
 25 17  1  0  0  0  0
 26 25  1  0  0  0  0
 27 26  1  0  0  0  0
 27 28  1  0  0  0  0
 28 29  1  0  0  0  0
 30 31  1  0  0  0  0
 30  4  1  0  0  0  0
 32 30  1  0  0  0  0
 33 30  1  0  0  0  0
M  END
>  <minimizedAffinity>
-5.74928999

>  <minimizedRMSD>
0.599740148

$$$$
