
 OpenBabel03232520163D

 30 32  0  0  0  0  0  0  0  0999 V2000
   47.6560   34.3440   41.9710 C   0  0  0  0  0  0  0  0  0  0  0  0
   48.7190   35.4030   41.9180 C   0  0  0  0  0  0  0  0  0  0  0  0
   50.0060   35.0640   42.6180 C   0  0  0  0  0  0  0  0  0  0  0  0
   50.4970   33.6760   42.3490 C   0  0  0  0  0  0  0  0  0  0  0  0
   49.5010   32.8110   41.6250 C   0  0  0  0  0  0  0  0  0  0  0  0
   48.1960   32.9940   42.3630 C   0  0  0  0  0  0  0  0  0  0  0  0
   49.0000   35.7050   40.8920 H   0  0  0  0  0  0  0  0  0  0  0  0
   48.3300   36.3210   42.4090 H   0  0  0  0  0  0  0  0  0  0  0  0
   50.7650   35.7770   42.2940 H   0  0  0  0  0  0  0  0  0  0  0  0
   49.8580   35.2460   43.7150 H   0  0  0  0  0  0  0  0  0  0  0  0
   50.6700   33.1760   43.3400 H   0  0  0  0  0  0  0  0  0  0  0  0
   51.4770   33.6410   41.8340 H   0  0  0  0  0  0  0  0  0  0  0  0
   49.4320   33.2000   40.5990 H   0  0  0  0  0  0  0  0  0  0  0  0
   49.8550   31.7640   41.6730 H   0  0  0  0  0  0  0  0  0  0  0  0
   48.4350   33.0100   43.4530 H   0  0  0  0  0  0  0  0  0  0  0  0
   47.4410   32.2320   42.1680 H   0  0  0  0  0  0  0  0  0  0  0  0
   45.4750   34.2840   44.9490 C   0  0  0  0  0  0  0  0  0  0  0  0
   44.6560   35.4060   44.7780 C   0  0  0  0  0  0  0  0  0  0  0  0
   44.8430   36.1890   43.6460 C   0  0  0  0  0  0  0  0  0  0  0  0
   45.8240   35.8000   42.7730 N   0  0  0  0  0  0  0  0  0  0  0  0
   46.5970   34.7290   42.9460 C   0  0  0  0  0  0  0  0  0  0  0  0
   46.4180   33.9740   44.0370 N   0  0  0  0  0  0  0  0  0  0  0  0
   45.3590   33.6510   45.8180 H   0  0  0  0  0  0  0  0  0  0  0  0
   43.9010   35.6690   45.4910 H   0  0  0  0  0  0  0  0  0  0  0  0
   44.2570   37.0770   43.4300 H   0  0  0  0  0  0  0  0  0  0  0  0
   46.9890   34.1480   40.6250 C   0  0  0  0  0  0  0  0  0  0  0  0
   47.9010   34.1930   39.4560 C   0  0  0  0  0  0  0  0  0  0  0  0
   47.0900   33.5460   38.3560 C   0  0  0  0  0  0  0  0  0  0  0  0
   45.9610   32.8130   39.0130 C   0  0  0  0  0  0  0  0  0  0  0  0
   46.2920   32.8160   40.5150 C   0  0  0  0  0  0  0  0  0  0  0  0
  1  6  1  0  0  0  0
  1 21  1  0  0  0  0
  2  1  1  0  0  0  0
  2  8  1  0  0  0  0
  2  3  1  0  0  0  0
  3 10  1  0  0  0  0
  4  3  1  0  0  0  0
  4 11  1  0  0  0  0
  5 14  1  0  0  0  0
  5  4  1  0  0  0  0
  5  6  1  0  0  0  0
  6 15  1  0  0  0  0
  7  2  1  0  0  0  0
  9  3  1  0  0  0  0
 12  4  1  0  0  0  0
 13  5  1  0  0  0  0
 16  6  1  0  0  0  0
 17 23  1  0  0  0  0
 18 17  1  0  0  0  0
 18 24  1  0  0  0  0
 19 18  2  0  0  0  0
 20 21  2  0  0  0  0
 20 19  1  0  0  0  0
 21 22  1  0  0  0  0
 22 17  2  0  0  0  0
 25 19  1  0  0  0  0
 26  1  1  0  0  0  0
 27 26  1  0  0  0  0
 28 29  1  0  0  0  0
 28 27  1  0  0  0  0
 29 30  1  0  0  0  0
 30 26  1  0  0  0  0
M  END
>  <minimizedAffinity>
-5.57537889

>  <minimizedRMSD>
0.973295093

$$$$
