
 OpenBabel03232517423D

 34 37  0  0  0  0  0  0  0  0999 V2000
   42.8260   35.4680   41.6600 C   0  0  0  0  0  0  0  0  0  0  0  0
   42.9020   34.6020   40.5550 C   0  0  0  0  0  0  0  0  0  0  0  0
   43.9440   33.6890   40.5310 C   0  0  0  0  0  0  0  0  0  0  0  0
   44.8470   33.6660   41.5720 N   0  0  0  0  0  0  0  0  0  0  0  0
   44.7280   34.5110   42.6000 C   0  0  0  0  0  0  0  0  0  0  0  0
   43.7320   35.4020   42.6460 N   0  0  0  0  0  0  0  0  0  0  0  0
   42.0620   36.2110   41.7790 H   0  0  0  0  0  0  0  0  0  0  0  0
   45.5350   34.3230   43.2980 H   0  0  0  0  0  0  0  0  0  0  0  0
   44.0240   32.8120   39.4140 N   0  0  0  0  0  0  0  0  0  0  0  0
   44.6560   33.2320   38.2970 C   0  0  0  0  0  0  0  0  0  0  0  0
   44.7160   32.3620   37.2400 C   0  0  0  0  0  0  0  0  0  0  0  0
   44.1580   31.0870   37.2730 C   0  0  0  0  0  0  0  0  0  0  0  0
   44.2630   30.3720   36.2640 O   0  0  0  0  0  0  0  0  0  0  0  0
   43.5350   30.7060   38.4070 N   0  0  0  0  0  0  0  0  0  0  0  0
   43.4750   31.5580   39.4460 C   0  0  0  0  0  0  0  0  0  0  0  0
   42.8890   31.1610   40.4730 O   0  0  0  0  0  0  0  0  0  0  0  0
   45.0870   34.2160   38.2700 H   0  0  0  0  0  0  0  0  0  0  0  0
   43.1220   29.7610   38.4300 H   0  0  0  0  0  0  0  0  0  0  0  0
   45.4280   32.8640   36.0130 C   0  0  0  0  0  0  0  0  0  0  0  0
   44.8470   32.5080   35.1150 H   0  0  0  0  0  0  0  0  0  0  0  0
   45.3340   33.9820   35.9570 H   0  0  0  0  0  0  0  0  0  0  0  0
   46.4490   32.4920   35.9250 H   0  0  0  0  0  0  0  0  0  0  0  0
   41.9200   34.7380   39.5690 N   0  0  0  0  0  0  0  0  0  0  0  0
   42.2050   35.2180   38.3920 N   0  0  0  0  0  0  0  0  0  0  0  0
   41.0860   35.2470   37.6280 C   0  0  0  0  0  0  0  0  0  0  0  0
   40.0740   34.7350   38.4490 C   0  0  0  0  0  0  0  0  0  0  0  0
   40.6330   34.4190   39.6830 C   0  0  0  0  0  0  0  0  0  0  0  0
   41.0480   35.6000   36.6110 H   0  0  0  0  0  0  0  0  0  0  0  0
   39.0590   34.6400   38.0970 H   0  0  0  0  0  0  0  0  0  0  0  0
   39.8760   33.8480   40.8240 C   0  0  0  0  0  0  0  0  0  0  0  0
   40.5080   32.6030   41.3460 C   0  0  0  0  0  0  0  0  0  0  0  0
   39.5580   31.4760   41.0520 C   0  0  0  0  0  0  0  0  0  0  0  0
   38.2040   32.0760   40.8180 C   0  0  0  0  0  0  0  0  0  0  0  0
   38.4570   33.4960   40.4340 C   0  0  0  0  0  0  0  0  0  0  0  0
  1  7  1  0  0  0  0
  1  6  1  0  0  0  0
  2  1  2  0  0  0  0
  3  2  1  0  0  0  0
  3  4  2  0  0  0  0
  4  5  1  0  0  0  0
  5  6  2  0  0  0  0
  5  8  1  0  0  0  0
  9 15  1  0  0  0  0
  9  3  1  0  0  0  0
 10  9  1  0  0  0  0
 11 12  1  0  0  0  0
 11 10  2  0  0  0  0
 12 14  1  0  0  0  0
 13 12  2  0  0  0  0
 14 18  1  0  0  0  0
 14 15  1  0  0  0  0
 15 16  2  0  0  0  0
 17 10  1  0  0  0  0
 19 11  1  0  0  0  0
 20 19  1  0  0  0  0
 21 19  1  0  0  0  0
 22 19  1  0  0  0  0
 23 27  1  0  0  0  0
 23  2  1  0  0  0  0
 24 23  1  0  0  0  0
 25 24  2  0  0  0  0
 25 26  1  0  0  0  0
 26 27  2  0  0  0  0
 27 30  1  0  0  0  0
 28 25  1  0  0  0  0
 29 26  1  0  0  0  0
 30 31  1  0  0  0  0
 32 31  1  0  0  0  0
 33 32  1  0  0  0  0
 34 33  1  0  0  0  0
 34 30  1  0  0  0  0
M  END
>  <minimizedAffinity>
-4.97534847

>  <minimizedRMSD>
3.4949615

$$$$
