
 OpenBabel03232520583D

 33 35  0  0  1  0  0  0  0  0999 V2000
   45.8540   33.2430   43.9000 C   0  0  2  0  0  0  0  0  0  0  0  0
   45.7360   34.8500   43.8880 C   0  0  0  0  0  0  0  0  0  0  0  0
   45.2410   35.4570   42.6740 C   0  0  0  0  0  0  0  0  0  0  0  0
   44.8550   34.6330   41.5410 C   0  0  1  0  0  0  0  0  0  0  0  0
   45.0750   33.1860   41.6770 C   0  0  0  0  0  0  0  0  0  0  0  0
   44.7430   32.8110   43.1200 C   0  0  0  0  0  0  0  0  0  0  0  0
   46.8230   33.3280   43.3130 H   0  0  0  0  0  0  0  0  0  0  0  0
   45.9330   35.6650   44.5770 H   0  0  0  0  0  0  0  0  0  0  0  0
   45.1300   36.5270   42.5740 H   0  0  0  0  0  0  0  0  0  0  0  0
   45.3760   35.0370   40.6430 H   0  0  0  0  0  0  0  0  0  0  0  0
   46.1600   32.9830   41.5010 H   0  0  0  0  0  0  0  0  0  0  0  0
   44.5180   32.6210   40.9330 H   0  0  0  0  0  0  0  0  0  0  0  0
   43.8540   33.5000   43.3840 H   0  0  0  0  0  0  0  0  0  0  0  0
   44.2960   31.8660   43.0170 H   0  0  0  0  0  0  0  0  0  0  0  0
   45.3490   33.5690   46.3310 C   0  0  0  0  0  0  0  0  0  0  0  0
   45.9990   32.9140   45.2870 C   0  0  0  0  0  0  0  0  0  0  0  0
   46.7630   31.7690   45.6390 C   0  0  0  0  0  0  0  0  0  0  0  0
   46.8020   31.4020   46.9190 N   0  0  0  0  0  0  0  0  0  0  0  0
   46.1600   32.0560   47.9140 C   0  0  0  0  0  0  0  0  0  0  0  0
   45.4400   33.1310   47.6330 N   0  0  0  0  0  0  0  0  0  0  0  0
   46.3110   31.5770   49.2650 N   0  0  0  0  0  0  0  0  0  0  0  0
   44.7660   34.4400   46.1360 H   0  0  0  0  0  0  0  0  0  0  0  0
   47.0940   31.9370   49.8790 H   0  0  0  0  0  0  0  0  0  0  0  0
   45.6240   30.8760   49.5880 H   0  0  0  0  0  0  0  0  0  0  0  0
   47.6350   30.9480   44.7770 C   0  0  0  0  0  3  0  0  0  0  0  0
   48.1800   31.8570   43.6000 C   0  0  0  0  0  2  0  0  0  0  0  0
   48.8610   30.8820   42.6980 C   0  0  0  0  0  2  0  0  0  0  0  0
   47.8600   29.7500   42.6850 C   0  0  0  0  0  2  0  0  0  0  0  0
   46.9360   30.0020   43.8600 C   0  0  0  0  0  2  0  0  0  0  0  0
   43.3520   34.9020   41.2730 C   0  0  0  0  0  0  0  0  0  0  0  0
   42.7050   35.4590   42.3540 F   0  0  0  0  0  0  0  0  0  0  0  0
   43.2980   35.8450   40.2500 F   0  0  0  0  0  0  0  0  0  0  0  0
   42.7390   33.7580   40.8020 F   0  0  0  0  0  0  0  0  0  0  0  0
  1  7  1  6  0  0  0
  1 16  1  0  0  0  0
  2  1  1  0  0  0  0
  2  8  1  0  0  0  0
  3  2  2  0  0  0  0
  4 10  1  6  0  0  0
  4  5  1  0  0  0  0
  4  3  1  0  0  0  0
  5  6  1  0  0  0  0
  6 13  1  0  0  0  0
  6  1  1  0  0  0  0
  9  3  1  0  0  0  0
 11  5  1  0  0  0  0
 12  5  1  0  0  0  0
 14  6  1  0  0  0  0
 15 20  1  0  0  0  0
 16 17  1  0  0  0  0
 16 15  2  0  0  0  0
 17 18  2  0  0  0  0
 18 19  1  0  0  0  0
 19 21  1  0  0  0  0
 20 19  2  0  0  0  0
 21 24  1  0  0  0  0
 21 23  1  0  0  0  0
 22 15  1  0  0  0  0
 25 17  1  0  0  0  0
 26 25  1  0  0  0  0
 27 26  1  0  0  0  0
 28 27  1  0  0  0  0
 28 29  1  0  0  0  0
 29 25  1  0  0  0  0
 30  4  1  0  0  0  0
 30 31  1  0  0  0  0
 32 30  1  0  0  0  0
 33 30  1  0  0  0  0
M  END
>  <minimizedAffinity>
-4.86358118

>  <minimizedRMSD>
1.59102368

$$$$
