
 OpenBabel03232519503D

 39 42  0  0  1  0  0  0  0  0999 V2000
   47.0430   33.9380   43.0240 N   0  0  0  0  0  0  0  0  0  0  0  0
   48.3260   34.5180   42.6440 C   0  0  0  0  0  0  0  0  0  0  0  0
   47.9890   35.0050   41.2480 C   0  0  0  0  0  0  0  0  0  0  0  0
   47.3490   33.7720   40.6750 C   0  0  0  0  0  0  0  0  0  0  0  0
   46.5340   33.2610   41.8210 C   0  0  2  0  0  0  0  0  0  0  0  0
   49.0940   33.7210   42.5440 H   0  0  0  0  0  0  0  0  0  0  0  0
   48.6350   35.3450   43.2830 H   0  0  0  0  0  0  0  0  0  0  0  0
   47.2930   35.8640   41.3300 H   0  0  0  0  0  0  0  0  0  0  0  0
   48.9030   35.3150   40.6950 H   0  0  0  0  0  0  0  0  0  0  0  0
   48.1190   33.0890   40.2980 H   0  0  0  0  0  0  0  0  0  0  0  0
   46.6570   34.0870   39.8470 H   0  0  0  0  0  0  0  0  0  0  0  0
   46.8780   32.2060   41.9610 H   0  0  0  0  0  0  0  0  0  0  0  0
   45.1220   33.3160   41.6710 N   0  0  0  0  0  0  0  0  0  0  0  0
   44.4040   34.2910   41.1140 C   0  0  0  0  0  0  0  0  0  0  0  0
   43.0200   34.2470   41.0170 C   0  0  0  0  0  0  0  0  0  0  0  0
   42.3410   33.1570   41.5100 C   0  0  0  0  0  0  0  0  0  0  0  0
   41.0630   33.0440   41.4570 O   0  0  0  0  0  0  0  0  0  0  0  0
   43.0740   32.1720   42.0730 N   0  0  0  0  0  0  0  0  0  0  0  0
   44.3960   32.2660   42.1390 C   0  0  0  0  0  0  0  0  0  0  0  0
   44.9940   31.2860   42.6870 O   0  0  0  0  0  0  0  0  0  0  0  0
   44.9560   35.1460   40.7290 H   0  0  0  0  0  0  0  0  0  0  0  0
   42.5570   31.3420   42.4480 H   0  0  0  0  0  0  0  0  0  0  0  0
   42.2490   35.3340   40.4000 C   0  0  0  0  0  0  0  0  0  0  0  0
   41.4530   34.8850   39.7400 H   0  0  0  0  0  0  0  0  0  0  0  0
   42.8410   36.0780   39.8640 H   0  0  0  0  0  0  0  0  0  0  0  0
   41.6680   35.8140   41.2360 H   0  0  0  0  0  0  0  0  0  0  0  0
   44.7140   34.8510   45.7750 C   0  0  0  0  0  0  0  0  0  0  0  0
   45.3310   34.8710   44.5210 C   0  0  0  0  0  0  0  0  0  0  0  0
   46.3800   33.9790   44.2500 C   0  0  0  0  0  0  0  0  0  0  0  0
   46.7270   33.1370   45.2610 N   0  0  0  0  0  0  0  0  0  0  0  0
   46.1250   33.1270   46.4650 C   0  0  0  0  0  0  0  0  0  0  0  0
   45.1290   33.9780   46.7170 N   0  0  0  0  0  0  0  0  0  0  0  0
   43.9060   35.5500   45.9610 H   0  0  0  0  0  0  0  0  0  0  0  0
   45.0210   35.5640   43.7350 H   0  0  0  0  0  0  0  0  0  0  0  0
   46.5790   32.1570   47.5260 C   0  0  0  0  0  0  0  0  0  0  0  0
   45.8370   32.3430   48.8150 C   0  0  0  0  0  0  0  0  0  0  0  0
   45.0960   31.0260   49.0260 C   0  0  0  0  0  0  0  0  0  0  0  0
   44.9180   30.5010   47.6000 C   0  0  0  0  0  0  0  0  0  0  0  0
   46.2820   30.7720   47.0050 C   0  0  0  0  0  0  0  0  0  0  0  0
  1 29  1  0  0  0  0
  2  1  1  0  0  0  0
  2  7  1  0  0  0  0
  3  8  1  0  0  0  0
  3  2  1  0  0  0  0
  4  3  1  0  0  0  0
  4  5  1  0  0  0  0
  5 12  1  1  0  0  0
  5  1  1  0  0  0  0
  6  2  1  0  0  0  0
  9  3  1  0  0  0  0
 10  4  1  0  0  0  0
 11  4  1  0  0  0  0
 13  5  1  0  0  0  0
 13 19  1  0  0  0  0
 14 13  1  0  0  0  0
 15 14  2  0  0  0  0
 15 16  1  0  0  0  0
 16 18  1  0  0  0  0
 17 16  2  0  0  0  0
 18 19  1  0  0  0  0
 18 22  1  0  0  0  0
 19 20  2  0  0  0  0
 21 14  1  0  0  0  0
 23 15  1  0  0  0  0
 23 26  1  0  0  0  0
 24 23  1  0  0  0  0
 25 23  1  0  0  0  0
 27 33  1  0  0  0  0
 27 32  1  0  0  0  0
 28 27  2  0  0  0  0
 29 28  1  0  0  0  0
 29 30  2  0  0  0  0
 30 31  1  0  0  0  0
 31 32  2  0  0  0  0
 31 35  1  0  0  0  0
 34 28  1  0  0  0  0
 35 36  1  0  0  0  0
 36 37  1  0  0  0  0
 38 37  1  0  0  0  0
 39 35  1  0  0  0  0
 39 38  1  0  0  0  0
M  END
>  <minimizedAffinity>
-6.40626383

>  <minimizedRMSD>
1.57056761

$$$$
