
 OpenBabel03232520583D

 33 35  0  0  1  0  0  0  0  0999 V2000
   46.2040   33.6230   45.3300 C   0  0  2  0  0  0  0  0  0  0  0  0
   45.0000   34.6750   45.5220 C   0  0  0  0  0  0  0  0  0  0  0  0
   44.7440   35.5780   44.4240 C   0  0  0  0  0  0  0  0  0  0  0  0
   45.5360   35.5050   43.2080 C   0  0  1  0  0  0  0  0  0  0  0  0
   46.6400   34.5340   43.2020 C   0  0  0  0  0  0  0  0  0  0  0  0
   46.1540   33.2920   43.9450 C   0  0  0  0  0  0  0  0  0  0  0  0
   46.9430   34.4490   45.5790 H   0  0  0  0  0  0  0  0  0  0  0  0
   44.2730   34.9180   46.2910 H   0  0  0  0  0  0  0  0  0  0  0  0
   43.9580   36.3180   44.4650 H   0  0  0  0  0  0  0  0  0  0  0  0
   45.9020   36.5330   42.9870 H   0  0  0  0  0  0  0  0  0  0  0  0
   47.4920   34.9760   43.7730 H   0  0  0  0  0  0  0  0  0  0  0  0
   46.9970   34.3360   42.1940 H   0  0  0  0  0  0  0  0  0  0  0  0
   45.0390   33.2170   43.6540 H   0  0  0  0  0  0  0  0  0  0  0  0
   46.5990   32.5090   43.4050 H   0  0  0  0  0  0  0  0  0  0  0  0
   45.2050   32.8600   47.4960 C   0  0  0  0  0  0  0  0  0  0  0  0
   45.9900   32.6540   46.3640 C   0  0  0  0  0  0  0  0  0  0  0  0
   46.5110   31.3440   46.1880 C   0  0  0  0  0  0  0  0  0  0  0  0
   46.2140   30.4170   47.0970 N   0  0  0  0  0  0  0  0  0  0  0  0
   45.4470   30.6430   48.1880 C   0  0  0  0  0  0  0  0  0  0  0  0
   44.9440   31.8500   48.3950 N   0  0  0  0  0  0  0  0  0  0  0  0
   45.2290   29.5620   49.1160 N   0  0  0  0  0  0  0  0  0  0  0  0
   44.7900   33.8230   47.6920 H   0  0  0  0  0  0  0  0  0  0  0  0
   45.8900   29.4090   49.9280 H   0  0  0  0  0  0  0  0  0  0  0  0
   44.4080   28.9610   48.9420 H   0  0  0  0  0  0  0  0  0  0  0  0
   47.4500   30.8600   45.1570 C   0  0  0  0  0  3  0  0  0  0  0  0
   46.6900   29.8170   44.2340 C   0  0  0  0  0  2  0  0  0  0  0  0
   47.7800   29.2550   43.3820 C   0  0  0  0  0  2  0  0  0  0  0  0
   48.8740   29.0520   44.4060 C   0  0  0  0  0  2  0  0  0  0  0  0
   48.4660   29.8710   45.6150 C   0  0  0  0  0  2  0  0  0  0  0  0
   44.5600   35.1820   42.0480 C   0  0  0  0  0  0  0  0  0  0  0  0
   43.5510   34.3210   42.4180 F   0  0  0  0  0  0  0  0  0  0  0  0
   43.9470   36.3840   41.7030 F   0  0  0  0  0  0  0  0  0  0  0  0
   45.2620   34.7530   40.9390 F   0  0  0  0  0  0  0  0  0  0  0  0
  1  2  1  0  0  0  0
  1  7  1  1  0  0  0
  1 16  1  0  0  0  0
  2  8  1  0  0  0  0
  3  9  1  0  0  0  0
  3  2  2  0  0  0  0
  4 10  1  6  0  0  0
  4  3  1  0  0  0  0
  5  4  1  0  0  0  0
  5 11  1  0  0  0  0
  5  6  1  0  0  0  0
  6  1  1  0  0  0  0
 12  5  1  0  0  0  0
 13  6  1  0  0  0  0
 14  6  1  0  0  0  0
 15 22  1  0  0  0  0
 15 20  1  0  0  0  0
 16 15  2  0  0  0  0
 17 16  1  0  0  0  0
 17 18  2  0  0  0  0
 18 19  1  0  0  0  0
 19 20  2  0  0  0  0
 19 21  1  0  0  0  0
 21 23  1  0  0  0  0
 24 21  1  0  0  0  0
 25 29  1  0  0  0  0
 25 17  1  0  0  0  0
 26 25  1  0  0  0  0
 27 26  1  0  0  0  0
 27 28  1  0  0  0  0
 28 29  1  0  0  0  0
 30 31  1  0  0  0  0
 30  4  1  0  0  0  0
 32 30  1  0  0  0  0
 33 30  1  0  0  0  0
M  END
>  <minimizedAffinity>
-5.74726105

>  <minimizedRMSD>
0.203353286

$$$$
