
 OpenBabel03232520213D

 41 44  0  0  0  0  0  0  0  0999 V2000
   47.5730   34.1930   42.1360 C   0  0  0  0  0  0  0  0  0  0  0  0
   48.4730   35.3160   41.7060 C   0  0  0  0  0  0  0  0  0  0  0  0
   49.7970   35.3640   42.3440 C   0  0  0  0  0  0  0  0  0  0  0  0
   50.4800   34.0360   42.4600 C   0  0  0  0  0  0  0  0  0  0  0  0
   49.6030   32.8730   42.0940 C   0  0  0  0  0  0  0  0  0  0  0  0
   48.2730   33.0660   42.8040 C   0  0  0  0  0  0  0  0  0  0  0  0
   47.9380   36.2760   41.9290 H   0  0  0  0  0  0  0  0  0  0  0  0
   48.6200   35.3130   40.5990 H   0  0  0  0  0  0  0  0  0  0  0  0
   50.4050   36.1090   41.8040 H   0  0  0  0  0  0  0  0  0  0  0  0
   49.6950   35.7570   43.3810 H   0  0  0  0  0  0  0  0  0  0  0  0
   51.3270   34.0350   41.7250 H   0  0  0  0  0  0  0  0  0  0  0  0
   50.9650   33.8710   43.4550 H   0  0  0  0  0  0  0  0  0  0  0  0
   49.4850   32.7690   40.9950 H   0  0  0  0  0  0  0  0  0  0  0  0
   50.0530   31.9370   42.4640 H   0  0  0  0  0  0  0  0  0  0  0  0
   48.5180   33.3560   43.8520 H   0  0  0  0  0  0  0  0  0  0  0  0
   47.6610   32.1690   42.8190 H   0  0  0  0  0  0  0  0  0  0  0  0
   45.2300   34.4810   44.9890 C   0  0  0  0  0  0  0  0  0  0  0  0
   44.5300   35.6490   44.7140 C   0  0  0  0  0  0  0  0  0  0  0  0
   44.8640   36.3430   43.5440 C   0  0  0  0  0  0  0  0  0  0  0  0
   45.8430   35.8470   42.7500 N   0  0  0  0  0  0  0  0  0  0  0  0
   46.5060   34.7000   43.0540 C   0  0  0  0  0  0  0  0  0  0  0  0
   46.1840   34.0180   44.1920 N   0  0  0  0  0  0  0  0  0  0  0  0
   44.9410   33.9760   45.9020 H   0  0  0  0  0  0  0  0  0  0  0  0
   43.7430   36.0890   45.3080 H   0  0  0  0  0  0  0  0  0  0  0  0
   44.4280   37.2430   43.1940 H   0  0  0  0  0  0  0  0  0  0  0  0
   46.9170   33.6300   40.8980 C   0  0  0  0  0  0  0  0  0  0  0  0
   45.7210   33.0370   40.5490 C   0  0  0  0  0  0  0  0  0  0  0  0
   45.5550   32.6760   39.2620 C   0  0  0  0  0  0  0  0  0  0  0  0
   46.5040   32.8750   38.3330 C   0  0  0  0  0  0  0  0  0  0  0  0
   47.8560   33.6820   39.3310 S   0  0  0  0  0  0  0  0  0  0  0  0
   45.0610   32.9390   41.3770 H   0  0  0  0  0  0  0  0  0  0  0  0
   44.6320   32.2050   38.9410 H   0  0  0  0  0  0  0  0  0  0  0  0
   46.6450   32.6270   36.9620 C   0  0  0  0  0  0  0  0  0  0  0  0
   45.4730   32.4650   36.2590 C   0  0  0  0  0  0  0  0  0  0  0  0
   44.4970   32.5230   36.7220 H   0  0  0  0  0  0  0  0  0  0  0  0
   45.4590   32.2160   34.9020 C   0  0  0  0  0  0  0  0  0  0  0  0
   46.6960   32.1340   34.2680 C   0  0  0  0  0  0  0  0  0  0  0  0
   46.8040   31.9430   33.2060 H   0  0  0  0  0  0  0  0  0  0  0  0
   47.8660   32.2990   34.9810 C   0  0  0  0  0  0  0  0  0  0  0  0
   48.8280   32.2340   34.4820 H   0  0  0  0  0  0  0  0  0  0  0  0
   47.8740   32.5500   36.3460 C   0  0  0  0  0  0  0  0  0  0  0  0
  1  6  1  0  0  0  0
  1 21  1  0  0  0  0
  2  7  1  0  0  0  0
  2  1  1  0  0  0  0
  2  3  1  0  0  0  0
  3  4  1  0  0  0  0
  3 10  1  0  0  0  0
  4 12  1  0  0  0  0
  5  4  1  0  0  0  0
  5 14  1  0  0  0  0
  5  6  1  0  0  0  0
  6 16  1  0  0  0  0
  6 15  1  0  0  0  0
  8  2  1  0  0  0  0
  9  3  1  0  0  0  0
 11  4  1  0  0  0  0
 13  5  1  0  0  0  0
 17 23  1  0  0  0  0
 18 17  1  0  0  0  0
 18 24  1  0  0  0  0
 19 18  2  0  0  0  0
 20 21  2  0  0  0  0
 20 19  1  0  0  0  0
 21 22  1  0  0  0  0
 22 17  2  0  0  0  0
 25 19  1  0  0  0  0
 26  1  1  0  0  0  0
 27 26  2  0  0  0  0
 27 31  1  0  0  0  0
 28 27  1  0  0  0  0
 29 28  2  0  0  0  0
 29 30  1  0  0  0  0
 30 26  1  0  0  0  0
 32 28  1  0  0  0  0
 33 29  1  0  0  0  0
 34 35  1  0  0  0  0
 34 33  2  0  0  0  0
 36 34  1  0  0  0  0
 37 36  2  0  0  0  0
 37 39  1  0  0  0  0
 38 37  1  0  0  0  0
 39 41  2  0  0  0  0
 40 39  1  0  0  0  0
 41 33  1  0  0  0  0
M  END
>  <minimizedAffinity>
-6.16259766

>  <minimizedRMSD>
0.390264809

$$$$
