
 OpenBabel03232519403D

 38 41  0  0  0  0  0  0  0  0999 V2000
   46.5680   34.4220   42.0300 N   0  0  0  0  0  0  0  0  0  0  0  0
   47.6740   35.2310   41.9240 C   0  0  0  0  0  0  0  0  0  0  0  0
   48.4090   35.2840   40.7660 C   0  0  0  0  0  0  0  0  0  0  0  0
   47.9910   34.4890   39.7050 C   0  0  0  0  0  0  0  0  0  0  0  0
   48.6440   34.5130   38.6220 O   0  0  0  0  0  0  0  0  0  0  0  0
   46.9070   33.7200   39.8590 N   0  0  0  0  0  0  0  0  0  0  0  0
   46.2070   33.6880   41.0040 C   0  0  0  0  0  0  0  0  0  0  0  0
   45.2020   33.0090   41.2200 O   0  0  0  0  0  0  0  0  0  0  0  0
   48.0560   35.8730   42.7050 H   0  0  0  0  0  0  0  0  0  0  0  0
   49.2860   35.9060   40.6420 H   0  0  0  0  0  0  0  0  0  0  0  0
   46.4410   32.8900   38.8140 C   0  0  0  0  0  0  0  0  0  0  0  0
   45.4180   33.2390   37.9490 C   0  0  0  0  0  0  0  0  0  0  0  0
   44.9950   32.4070   36.9510 C   0  0  0  0  0  0  0  0  0  0  0  0
   45.5950   31.1710   36.7820 C   0  0  0  0  0  0  0  0  0  0  0  0
   46.6090   30.8370   37.6460 C   0  0  0  0  0  0  0  0  0  0  0  0
   47.0760   31.6650   38.6890 C   0  0  0  0  0  0  0  0  0  0  0  0
   45.0130   34.2100   38.1540 H   0  0  0  0  0  0  0  0  0  0  0  0
   44.1900   32.7300   36.3030 H   0  0  0  0  0  0  0  0  0  0  0  0
   45.2440   30.5370   35.9900 H   0  0  0  0  0  0  0  0  0  0  0  0
   47.0200   29.8490   37.4370 H   0  0  0  0  0  0  0  0  0  0  0  0
   48.1570   31.0470   39.4300 C   0  0  0  0  0  0  0  0  0  0  0  0
   48.2000   30.4050   40.6420 C   0  0  0  0  0  0  0  0  0  0  0  0
   47.2870   30.3620   41.1690 H   0  0  0  0  0  0  0  0  0  0  0  0
   49.3460   29.8570   41.1680 C   0  0  0  0  0  0  0  0  0  0  0  0
   50.5330   29.9350   40.4740 C   0  0  0  0  0  0  0  0  0  0  0  0
   51.3770   29.4780   40.9630 H   0  0  0  0  0  0  0  0  0  0  0  0
   50.5750   30.5650   39.2490 C   0  0  0  0  0  0  0  0  0  0  0  0
   51.5030   30.6190   38.7190 H   0  0  0  0  0  0  0  0  0  0  0  0
   49.4000   31.0900   38.7780 C   0  0  0  0  0  0  0  0  0  0  0  0
   44.5420   35.7330   44.8370 C   0  0  0  0  0  0  0  0  0  0  0  0
   45.1210   35.6050   43.5550 C   0  0  0  0  0  0  0  0  0  0  0  0
   45.9800   34.5480   43.3330 C   0  0  0  0  0  0  0  0  0  0  0  0
   46.2450   33.6620   44.3480 N   0  0  0  0  0  0  0  0  0  0  0  0
   45.6680   33.8190   45.5680 C   0  0  0  0  0  0  0  0  0  0  0  0
   44.8250   34.8420   45.8130 N   0  0  0  0  0  0  0  0  0  0  0  0
   43.8630   36.5480   45.0530 H   0  0  0  0  0  0  0  0  0  0  0  0
   44.8940   36.3190   42.7730 H   0  0  0  0  0  0  0  0  0  0  0  0
   46.0000   33.0290   46.2210 H   0  0  0  0  0  0  0  0  0  0  0  0
  1 32  1  0  0  0  0
  2  1  1  0  0  0  0
  2  9  1  0  0  0  0
  3  2  2  0  0  0  0
  4  6  1  0  0  0  0
  4  3  1  0  0  0  0
  5  4  2  0  0  0  0
  6  7  1  0  0  0  0
  7  8  2  0  0  0  0
  7  1  1  0  0  0  0
 10  3  1  0  0  0  0
 11  6  1  0  0  0  0
 12 17  1  0  0  0  0
 12 11  2  0  0  0  0
 13 12  1  0  0  0  0
 14 13  2  0  0  0  0
 14 15  1  0  0  0  0
 15 16  2  0  0  0  0
 16 11  1  0  0  0  0
 16 21  1  0  0  0  0
 18 13  1  0  0  0  0
 19 14  1  0  0  0  0
 20 15  1  0  0  0  0
 21 22  1  0  0  0  0
 22 24  2  0  0  0  0
 22 23  1  0  0  0  0
 25 26  1  0  0  0  0
 25 24  1  0  0  0  0
 27 25  2  0  0  0  0
 28 27  1  0  0  0  0
 29 27  1  0  0  0  0
 29 21  2  0  0  0  0
 30 36  1  0  0  0  0
 30 35  1  0  0  0  0
 31 30  2  0  0  0  0
 32 31  1  0  0  0  0
 32 33  2  0  0  0  0
 33 34  1  0  0  0  0
 34 35  2  0  0  0  0
 34 38  1  0  0  0  0
 37 31  1  0  0  0  0
M  END
>  <minimizedAffinity>
-5.27783442

>  <minimizedRMSD>
0.668437421

$$$$
