
 OpenBabel03232519463D

 47 50  0  0  0  0  0  0  0  0999 V2000
   46.5660   34.3860   42.0750 N   0  0  0  0  0  0  0  0  0  0  0  0
   47.6700   35.2040   41.9530 C   0  0  0  0  0  0  0  0  0  0  0  0
   48.3990   35.2550   40.7950 C   0  0  0  0  0  0  0  0  0  0  0  0
   47.9840   34.4420   39.7360 C   0  0  0  0  0  0  0  0  0  0  0  0
   48.6260   34.4700   38.6700 O   0  0  0  0  0  0  0  0  0  0  0  0
   46.9010   33.6630   39.9160 N   0  0  0  0  0  0  0  0  0  0  0  0
   46.2080   33.6400   41.0620 C   0  0  0  0  0  0  0  0  0  0  0  0
   45.2260   32.9690   41.2840 O   0  0  0  0  0  0  0  0  0  0  0  0
   48.0470   35.8570   42.7290 H   0  0  0  0  0  0  0  0  0  0  0  0
   49.2690   35.8840   40.6630 H   0  0  0  0  0  0  0  0  0  0  0  0
   46.4480   32.8170   38.8840 C   0  0  0  0  0  0  0  0  0  0  0  0
   45.4960   33.1710   37.9560 C   0  0  0  0  0  0  0  0  0  0  0  0
   45.0980   32.2970   36.9750 C   0  0  0  0  0  0  0  0  0  0  0  0
   45.6480   31.0350   36.9000 C   0  0  0  0  0  0  0  0  0  0  0  0
   46.5870   30.7030   37.8240 C   0  0  0  0  0  0  0  0  0  0  0  0
   47.0350   31.5490   38.8480 C   0  0  0  0  0  0  0  0  0  0  0  0
   45.0660   34.1670   38.0220 H   0  0  0  0  0  0  0  0  0  0  0  0
   44.3470   32.5970   36.2560 H   0  0  0  0  0  0  0  0  0  0  0  0
   45.3380   30.3380   36.1260 H   0  0  0  0  0  0  0  0  0  0  0  0
   47.0020   29.6890   37.7300 H   0  0  0  0  0  0  0  0  0  0  0  0
   48.0730   31.0920   39.8100 C   0  0  0  0  0  0  0  0  0  0  0  0
   48.2700   30.0180   39.4970 H   0  0  0  0  0  0  0  0  0  0  0  0
   49.3590   31.8400   39.7650 C   0  0  0  0  0  0  0  0  0  0  0  0
   49.6470   32.4290   40.6490 H   0  0  0  0  0  0  0  0  0  0  0  0
   50.1170   30.9910   40.0180 H   0  0  0  0  0  0  0  0  0  0  0  0
   49.7810   32.0680   38.7970 H   0  0  0  0  0  0  0  0  0  0  0  0
   47.6110   31.0810   41.2330 C   0  0  0  0  0  0  0  0  0  0  0  0
   48.0990   31.8010   41.9130 H   0  0  0  0  0  0  0  0  0  0  0  0
   46.6160   30.7310   41.4370 H   0  0  0  0  0  0  0  0  0  0  0  0
   48.1780   30.1660   41.6720 H   0  0  0  0  0  0  0  0  0  0  0  0
   44.5260   35.7060   44.8680 C   0  0  0  0  0  0  0  0  0  0  0  0
   45.1030   35.5720   43.5770 C   0  0  0  0  0  0  0  0  0  0  0  0
   45.9850   34.5180   43.3780 C   0  0  0  0  0  0  0  0  0  0  0  0
   46.2650   33.6590   44.4050 N   0  0  0  0  0  0  0  0  0  0  0  0
   45.6920   33.8250   45.6180 C   0  0  0  0  0  0  0  0  0  0  0  0
   44.8420   34.8210   45.8520 N   0  0  0  0  0  0  0  0  0  0  0  0
   43.8390   36.5300   45.0190 H   0  0  0  0  0  0  0  0  0  0  0  0
   44.8410   36.2790   42.8180 H   0  0  0  0  0  0  0  0  0  0  0  0
   46.0250   32.8780   46.6850 C   0  0  0  0  0  0  0  0  0  0  0  0
   45.2260   32.7650   47.8050 C   0  0  0  0  0  0  0  0  0  0  0  0
   44.3340   33.4050   47.8730 H   0  0  0  0  0  0  0  0  0  0  0  0
   45.4910   31.8870   48.8450 C   0  0  0  0  0  0  0  0  0  0  0  0
   46.6200   31.1040   48.7180 C   0  0  0  0  0  0  0  0  0  0  0  0
   46.7680   30.4340   49.5780 H   0  0  0  0  0  0  0  0  0  0  0  0
   47.4590   31.1770   47.6140 C   0  0  0  0  0  0  0  0  0  0  0  0
   48.3190   30.5190   47.6120 H   0  0  0  0  0  0  0  0  0  0  0  0
   47.1430   32.0730   46.6040 C   0  0  0  0  0  0  0  0  0  0  0  0
  1 33  1  0  0  0  0
  2  1  1  0  0  0  0
  2  9  1  0  0  0  0
  3  2  2  0  0  0  0
  4  6  1  0  0  0  0
  4  3  1  0  0  0  0
  5  4  2  0  0  0  0
  6  7  1  0  0  0  0
  7  8  2  0  0  0  0
  7  1  1  0  0  0  0
 10  3  1  0  0  0  0
 11  6  1  0  0  0  0
 12 17  1  0  0  0  0
 12 11  2  0  0  0  0
 13 12  1  0  0  0  0
 14 13  2  0  0  0  0
 14 15  1  0  0  0  0
 15 16  2  0  0  0  0
 16 11  1  0  0  0  0
 16 21  1  0  0  0  0
 18 13  1  0  0  0  0
 19 14  1  0  0  0  0
 20 15  1  0  0  0  0
 21 27  1  0  0  0  0
 22 21  1  0  0  0  0
 23 21  1  0  0  0  0
 23 25  1  0  0  0  0
 23 24  1  0  0  0  0
 26 23  1  0  0  0  0
 27 29  1  0  0  0  0
 27 30  1  0  0  0  0
 27 28  1  0  0  0  0
 31 37  1  0  0  0  0
 31 36  1  0  0  0  0
 32 31  2  0  0  0  0
 33 32  1  0  0  0  0
 33 34  2  0  0  0  0
 34 35  1  0  0  0  0
 35 36  2  0  0  0  0
 35 39  1  0  0  0  0
 38 32  1  0  0  0  0
 39 40  1  0  0  0  0
 40 41  1  0  0  0  0
 40 42  2  0  0  0  0
 43 42  1  0  0  0  0
 43 44  1  0  0  0  0
 45 43  2  0  0  0  0
 46 45  1  0  0  0  0
 47 39  2  0  0  0  0
 47 45  1  0  0  0  0
M  END
>  <minimizedAffinity>
-6.76155186

>  <minimizedRMSD>
0.426180363

$$$$
