
 OpenBabel03232520293D

 45 49  0  0  1  0  0  0  0  0999 V2000
   46.9680   34.5490   41.3890 C   0  0  0  0  0  0  0  0  0  0  0  0
   48.2480   34.9580   41.0690 C   0  0  0  0  0  0  0  0  0  0  0  0
   48.5290   34.6510   39.8140 N   0  0  0  0  0  0  0  0  0  0  0  0
   47.4420   34.0400   39.2990 C   0  0  0  0  0  0  0  0  0  0  0  0
   47.2060   33.5180   38.0240 C   0  0  0  0  0  0  0  0  0  0  0  0
   46.0010   32.9460   37.7670 C   0  0  0  0  0  0  0  0  0  0  0  0
   44.9590   32.8320   38.6770 C   0  0  0  0  0  0  0  0  0  0  0  0
   45.2420   33.3610   39.9200 C   0  0  0  0  0  0  0  0  0  0  0  0
   46.4360   33.9580   40.2650 C   0  0  0  0  0  0  0  0  0  0  0  0
   49.4020   34.8130   39.2490 H   0  0  0  0  0  0  0  0  0  0  0  0
   47.9740   33.5700   37.2550 H   0  0  0  0  0  0  0  0  0  0  0  0
   45.8540   32.5500   36.7610 H   0  0  0  0  0  0  0  0  0  0  0  0
   44.0150   32.3680   38.4290 H   0  0  0  0  0  0  0  0  0  0  0  0
   44.4740   33.3080   40.6840 H   0  0  0  0  0  0  0  0  0  0  0  0
   44.7690   35.9170   44.0890 C   0  0  0  0  0  0  0  0  0  0  0  0
   45.4310   35.7950   42.8480 C   0  0  0  0  0  0  0  0  0  0  0  0
   46.2660   34.6970   42.6740 C   0  0  0  0  0  0  0  0  0  0  0  0
   46.4210   33.7770   43.6950 N   0  0  0  0  0  0  0  0  0  0  0  0
   45.7540   33.9550   44.8630 C   0  0  0  0  0  0  0  0  0  0  0  0
   44.9400   34.9960   45.0750 N   0  0  0  0  0  0  0  0  0  0  0  0
   44.1180   36.7650   44.2370 H   0  0  0  0  0  0  0  0  0  0  0  0
   45.2840   36.5350   42.0770 H   0  0  0  0  0  0  0  0  0  0  0  0
   45.9270   33.1950   45.6080 H   0  0  0  0  0  0  0  0  0  0  0  0
   49.1430   35.6400   42.0290 C   0  0  0  0  0  0  0  0  0  0  0  0
   48.5360   36.1400   42.8220 H   0  0  0  0  0  0  0  0  0  0  0  0
   49.7290   36.4040   41.4570 H   0  0  0  0  0  0  0  0  0  0  0  0
   50.1040   34.6810   42.6630 C   0  0  0  0  0  0  0  0  0  0  0  0
   49.7720   34.5160   43.7210 H   0  0  0  0  0  0  0  0  0  0  0  0
   51.1000   35.1770   42.7410 H   0  0  0  0  0  0  0  0  0  0  0  0
   50.3130   33.4070   41.9110 C   0  0  1  0  0  0  0  0  0  0  0  0
   50.9130   32.2180   42.5100 C   0  0  0  0  0  0  0  0  0  0  0  0
   49.4380   32.2300   42.4220 C   0  0  2  0  0  0  0  0  0  0  0  0
   50.3080   33.4980   40.8160 H   0  0  0  0  0  0  0  0  0  0  0  0
   51.5410   31.5930   41.8560 H   0  0  0  0  0  0  0  0  0  0  0  0
   51.3450   32.2650   43.5510 H   0  0  0  0  0  0  0  0  0  0  0  0
   48.8700   32.3940   43.3550 H   0  0  0  0  0  0  0  0  0  0  0  0
   48.8860   31.2970   41.4030 C   0  0  0  0  0  0  0  0  0  0  0  0
   47.5980   30.8280   41.5630 C   0  0  0  0  0  0  0  0  0  0  0  0
   47.0020   31.1350   42.4160 H   0  0  0  0  0  0  0  0  0  0  0  0
   47.0630   29.9620   40.6340 C   0  0  0  0  0  0  0  0  0  0  0  0
   47.8940   29.6170   39.5680 C   0  0  0  0  0  0  0  0  0  0  0  0
   47.4680   28.9370   38.8430 H   0  0  0  0  0  0  0  0  0  0  0  0
   49.1920   30.0750   39.3850 C   0  0  0  0  0  0  0  0  0  0  0  0
   49.7220   29.7210   38.5080 H   0  0  0  0  0  0  0  0  0  0  0  0
   49.6940   30.9440   40.3420 C   0  0  0  0  0  0  0  0  0  0  0  0
  1 17  1  0  0  0  0
  2  1  2  0  0  0  0
  2 24  1  0  0  0  0
  3  2  1  0  0  0  0
  4  3  1  0  0  0  0
  4  9  1  0  0  0  0
  5  4  2  0  0  0  0
  6  5  1  0  0  0  0
  6  7  2  0  0  0  0
  7  8  1  0  0  0  0
  8  9  2  0  0  0  0
  8 14  1  0  0  0  0
  9  1  1  0  0  0  0
 10  3  1  0  0  0  0
 11  5  1  0  0  0  0
 12  6  1  0  0  0  0
 13  7  1  0  0  0  0
 15 21  1  0  0  0  0
 15 20  1  0  0  0  0
 16 15  2  0  0  0  0
 17 16  1  0  0  0  0
 17 18  2  0  0  0  0
 18 19  1  0  0  0  0
 19 20  2  0  0  0  0
 19 23  1  0  0  0  0
 22 16  1  0  0  0  0
 24 27  1  0  0  0  0
 24 25  1  0  0  0  0
 26 24  1  0  0  0  0
 27 29  1  0  0  0  0
 27 28  1  0  0  0  0
 30 33  1  6  0  0  0
 30 32  1  0  0  0  0
 30 31  1  0  0  0  0
 30 27  1  0  0  0  0
 31 35  1  0  0  0  0
 32 31  1  0  0  0  0
 32 36  1  1  0  0  0
 34 31  1  0  0  0  0
 37 38  1  0  0  0  0
 37 32  1  0  0  0  0
 38 39  1  0  0  0  0
 40 38  2  0  0  0  0
 41 40  1  0  0  0  0
 42 41  1  0  0  0  0
 43 41  2  0  0  0  0
 43 45  1  0  0  0  0
 44 43  1  0  0  0  0
 45 37  2  0  0  0  0
M  END
>  <minimizedAffinity>
-5.83795023

>  <minimizedRMSD>
0.301970005

$$$$
