
 OpenBabel03232520103D

 25 27  0  0  0  0  0  0  0  0999 V2000
   45.9070   33.1110   46.1740 C   0  0  0  0  0  0  0  0  0  0  0  0
   45.4970   32.9410   47.4820 C   0  0  0  0  0  0  0  0  0  0  0  0
   46.2000   32.1050   48.2940 C   0  0  0  0  0  0  0  0  0  0  0  0
   47.3090   31.4740   47.7170 C   0  0  0  0  0  0  0  0  0  0  0  0
   47.3410   32.0760   46.0200 S   0  0  0  0  0  0  0  0  0  0  0  0
   44.6180   33.4880   47.8130 H   0  0  0  0  0  0  0  0  0  0  0  0
   45.9620   31.9090   49.3150 H   0  0  0  0  0  0  0  0  0  0  0  0
   44.3380   35.9250   44.4250 C   0  0  0  0  0  0  0  0  0  0  0  0
   44.2670   35.4210   43.0970 C   0  0  0  0  0  0  0  0  0  0  0  0
   44.7650   34.1230   42.8390 C   0  0  0  0  0  0  0  0  0  0  0  0
   45.2930   33.4090   43.8910 N   0  0  0  0  0  0  0  0  0  0  0  0
   45.3380   33.9300   45.1330 C   0  0  0  0  0  0  0  0  0  0  0  0
   44.8690   35.1660   45.4020 N   0  0  0  0  0  0  0  0  0  0  0  0
   43.9590   36.9100   44.6160 H   0  0  0  0  0  0  0  0  0  0  0  0
   43.8540   35.9800   42.2770 H   0  0  0  0  0  0  0  0  0  0  0  0
   44.7360   33.6910   41.8480 H   0  0  0  0  0  0  0  0  0  0  0  0
   48.2270   30.5440   48.3440 C   0  0  0  0  0  0  0  0  0  0  0  0
   48.5000   29.3270   47.7650 C   0  0  0  0  0  0  0  0  0  0  0  0
   48.0140   29.0830   46.8310 H   0  0  0  0  0  0  0  0  0  0  0  0
   49.3800   28.4800   48.4020 C   0  0  0  0  0  0  0  0  0  0  0  0
   49.9670   28.8730   49.6080 C   0  0  0  0  0  0  0  0  0  0  0  0
   50.6480   28.1690   50.0630 H   0  0  0  0  0  0  0  0  0  0  0  0
   49.6700   30.0900   50.1520 C   0  0  0  0  0  0  0  0  0  0  0  0
   50.1820   30.2900   51.0880 H   0  0  0  0  0  0  0  0  0  0  0  0
   48.7890   30.9630   49.5350 C   0  0  0  0  0  0  0  0  0  0  0  0
  1  2  2  0  0  0  0
  2  6  1  0  0  0  0
  2  3  1  0  0  0  0
  3  7  1  0  0  0  0
  4  3  2  0  0  0  0
  4 17  1  0  0  0  0
  5  1  1  0  0  0  0
  5  4  1  0  0  0  0
  8 14  1  0  0  0  0
  8 13  1  0  0  0  0
  9  8  2  0  0  0  0
 10  9  1  0  0  0  0
 10 11  2  0  0  0  0
 11 12  1  0  0  0  0
 12 13  2  0  0  0  0
 12  1  1  0  0  0  0
 15  9  1  0  0  0  0
 16 10  1  0  0  0  0
 17 25  1  0  0  0  0
 18 17  2  0  0  0  0
 18 20  1  0  0  0  0
 19 18  1  0  0  0  0
 20 21  2  0  0  0  0
 21 22  1  0  0  0  0
 21 23  1  0  0  0  0
 23 24  1  0  0  0  0
 25 23  2  0  0  0  0
M  END
>  <minimizedAffinity>
-4.68853474

>  <minimizedRMSD>
1.26206601

$$$$
