
 OpenBabel03232520583D

 37 39  0  0  1  0  0  0  0  0999 V2000
   45.3090   32.9230   47.5160 C   0  0  0  0  0  0  0  0  0  0  0  0
   45.8640   32.6550   46.2990 C   0  0  0  0  0  0  0  0  0  0  0  0
   46.1540   31.3020   46.0660 C   0  0  0  0  0  0  0  0  0  0  0  0
   45.9030   30.3340   46.9630 N   0  0  0  0  0  0  0  0  0  0  0  0
   45.3400   30.6520   48.1830 C   0  0  0  0  0  0  0  0  0  0  0  0
   45.0590   31.9270   48.4270 N   0  0  0  0  0  0  0  0  0  0  0  0
   45.0940   29.6490   49.1600 N   0  0  0  0  0  0  0  0  0  0  0  0
   45.0580   33.9390   47.7810 H   0  0  0  0  0  0  0  0  0  0  0  0
   44.4240   29.8520   49.9150 H   0  0  0  0  0  0  0  0  0  0  0  0
   45.5910   28.7240   49.1020 H   0  0  0  0  0  0  0  0  0  0  0  0
   46.0880   33.6010   45.2560 C   0  0  2  0  0  0  0  0  0  0  0  0
   44.9760   34.7220   45.4850 C   0  0  0  0  0  0  0  0  0  0  0  0
   44.7390   35.6440   44.4040 C   0  0  0  0  0  0  0  0  0  0  0  0
   45.4800   35.5320   43.1680 C   0  0  1  0  0  0  0  0  0  0  0  0
   46.5390   34.4900   43.1090 C   0  0  0  0  0  0  0  0  0  0  0  0
   46.0310   33.2750   43.8720 C   0  0  0  0  0  0  0  0  0  0  0  0
   46.9420   34.2910   45.5390 H   0  0  0  0  0  0  0  0  0  0  0  0
   44.3110   34.9840   46.2920 H   0  0  0  0  0  0  0  0  0  0  0  0
   44.0030   36.4290   44.4840 H   0  0  0  0  0  0  0  0  0  0  0  0
   45.9390   36.5130   42.9200 H   0  0  0  0  0  0  0  0  0  0  0  0
   46.7910   34.2440   42.0810 H   0  0  0  0  0  0  0  0  0  0  0  0
   47.4370   34.8400   43.6610 H   0  0  0  0  0  0  0  0  0  0  0  0
   46.4170   32.4580   43.3370 H   0  0  0  0  0  0  0  0  0  0  0  0
   44.9040   33.2610   43.5840 H   0  0  0  0  0  0  0  0  0  0  0  0
   44.4570   35.2710   42.0330 C   0  0  0  0  0  0  0  0  0  0  0  0
   43.4040   34.4750   42.4350 F   0  0  0  0  0  0  0  0  0  0  0  0
   43.9170   36.5080   41.7000 F   0  0  0  0  0  0  0  0  0  0  0  0
   45.1140   34.8050   40.9060 F   0  0  0  0  0  0  0  0  0  0  0  0
   46.8000   30.6140   44.9560 C   0  0  0  0  0  0  0  0  0  0  0  0
   45.8760   29.9230   44.1940 C   0  0  0  0  0  0  0  0  0  0  0  0
   44.8150   29.8650   44.3500 H   0  0  0  0  0  0  0  0  0  0  0  0
   46.2910   29.1930   43.0770 C   0  0  0  0  0  3  0  0  0  0  0  0
   47.6510   29.1990   42.7830 C   0  0  0  0  0  0  0  0  0  0  0  0
   47.9910   28.6390   41.9220 H   0  0  0  0  0  0  0  0  0  0  0  0
   48.5410   29.8900   43.5520 C   0  0  0  0  0  0  0  0  0  0  0  0
   49.5990   29.9040   43.3350 H   0  0  0  0  0  0  0  0  0  0  0  0
   48.1490   30.6230   44.6660 C   0  0  0  0  0  3  0  0  0  0  0  0
  1  8  1  0  0  0  0
  1  6  1  0  0  0  0
  2  1  2  0  0  0  0
  3  2  1  0  0  0  0
  3  4  2  0  0  0  0
  4  5  1  0  0  0  0
  5  6  2  0  0  0  0
  5  7  1  0  0  0  0
  7  9  1  0  0  0  0
 10  7  1  0  0  0  0
 11 12  1  0  0  0  0
 11 17  1  1  0  0  0
 11  2  1  0  0  0  0
 12 18  1  0  0  0  0
 13 19  1  0  0  0  0
 13 12  2  0  0  0  0
 14 20  1  6  0  0  0
 14 13  1  0  0  0  0
 15 14  1  0  0  0  0
 15 22  1  0  0  0  0
 15 16  1  0  0  0  0
 16 11  1  0  0  0  0
 21 15  1  0  0  0  0
 23 16  1  0  0  0  0
 24 16  1  0  0  0  0
 25 26  1  0  0  0  0
 25 14  1  0  0  0  0
 27 25  1  0  0  0  0
 28 25  1  0  0  0  0
 29  3  1  0  0  0  0
 30 31  1  0  0  0  0
 30 29  2  0  0  0  0
 32 30  1  0  0  0  0
 33 32  2  0  0  0  0
 33 35  1  0  0  0  0
 34 33  1  0  0  0  0
 35 37  2  0  0  0  0
 36 35  1  0  0  0  0
 37 29  1  0  0  0  0
M  END
>  <minimizedAffinity>
-5.65145779

>  <minimizedRMSD>
0.179031327

$$$$
