
 OpenBabel03232516553D

 20 21  0  0  0  0  0  0  0  0999 V2000
   45.3700   35.0830   44.1310 C   0  0  0  0  0  0  0  0  0  0  0  0
   46.4180   34.3380   43.5840 C   0  0  0  0  0  0  0  0  0  0  0  0
   46.9760   33.3160   44.3380 C   0  0  0  0  0  0  0  0  0  0  0  0
   46.4580   33.0970   45.5830 N   0  0  0  0  0  0  0  0  0  0  0  0
   45.4460   33.8320   46.0830 C   0  0  0  0  0  0  0  0  0  0  0  0
   44.9200   34.8090   45.3530 N   0  0  0  0  0  0  0  0  0  0  0  0
   47.7760   32.6830   44.0280 H   0  0  0  0  0  0  0  0  0  0  0  0
   45.0500   33.6470   47.0650 H   0  0  0  0  0  0  0  0  0  0  0  0
   47.0480   34.4790   42.2760 C   0  0  0  0  0  0  0  0  0  0  0  0
   46.5430   33.7700   41.2010 C   0  0  0  0  0  0  0  0  0  0  0  0
   45.6870   33.1150   41.3330 H   0  0  0  0  0  0  0  0  0  0  0  0
   47.1430   33.9050   39.9610 C   0  0  0  0  0  0  0  0  0  0  0  0
   48.2280   34.7110   39.7160 C   0  0  0  0  0  0  0  0  0  0  0  0
   48.6500   34.7750   38.7290 H   0  0  0  0  0  0  0  0  0  0  0  0
   48.6990   35.3930   40.7900 C   0  0  0  0  0  0  0  0  0  0  0  0
   49.5650   36.0570   40.6660 H   0  0  0  0  0  0  0  0  0  0  0  0
   48.1510   35.3000   42.0320 C   0  0  0  0  0  0  0  0  0  0  0  0
   44.8700   36.1140   43.2680 C   0  0  0  0  0  0  0  0  0  0  0  0
   45.2000   37.3490   43.3000 O   0  0  0  0  0  0  0  0  0  0  0  0
   44.1560   36.0930   42.4550 H   0  0  0  0  0  0  0  0  0  0  0  0
  1  6  1  0  0  0  0
  2  1  2  0  0  0  0
  2  3  1  0  0  0  0
  3  4  2  0  0  0  0
  4  5  1  0  0  0  0
  5  8  1  0  0  0  0
  6  5  2  0  0  0  0
  7  3  1  0  0  0  0
  9  2  1  0  0  0  0
 10 11  1  0  0  0  0
 10  9  2  0  0  0  0
 12 10  1  0  0  0  0
 13 12  2  0  0  0  0
 13 15  1  0  0  0  0
 14 13  1  0  0  0  0
 15 17  2  0  0  0  0
 16 15  1  0  0  0  0
 17  9  1  0  0  0  0
 18 19  2  0  0  0  0
 18  1  1  0  0  0  0
 20 18  1  0  0  0  0
M  END
>  <minimizedAffinity>
-4.89392185

>  <minimizedRMSD>
0.767026544

$$$$
