
 OpenBabel03232519583D

 25 27  0  0  0  0  0  0  0  0999 V2000
   45.5880   34.0520   41.7080 N   0  0  0  0  0  0  0  0  0  0  0  0
   46.7420   33.8380   41.1150 C   0  0  0  0  0  0  0  0  0  0  0  0
   46.5100   33.5210   39.7750 C   0  0  0  0  0  0  0  0  0  0  0  0
   45.1890   33.5510   39.5850 N   0  0  0  0  0  0  0  0  0  0  0  0
   44.6040   33.8780   40.7710 C   0  0  0  0  0  0  0  0  0  0  0  0
   47.2060   33.2860   38.9910 H   0  0  0  0  0  0  0  0  0  0  0  0
   43.5270   33.9560   40.8290 H   0  0  0  0  0  0  0  0  0  0  0  0
   44.7840   35.6920   43.2350 C   0  0  0  0  0  0  0  0  0  0  0  0
   45.3250   34.3810   43.0350 C   0  0  0  0  0  0  0  0  0  0  0  0
   45.5320   33.5600   44.1530 C   0  0  0  0  0  0  0  0  0  0  0  0
   45.2060   34.0620   45.3840 N   0  0  0  0  0  0  0  0  0  0  0  0
   44.6940   35.3180   45.5300 C   0  0  0  0  0  0  0  0  0  0  0  0
   44.4820   36.1340   44.4590 N   0  0  0  0  0  0  0  0  0  0  0  0
   44.6060   36.3640   42.4080 H   0  0  0  0  0  0  0  0  0  0  0  0
   45.9290   32.5730   43.9900 H   0  0  0  0  0  0  0  0  0  0  0  0
   44.5020   35.5270   46.5880 H   0  0  0  0  0  0  0  0  0  0  0  0
   48.1180   33.8860   41.5900 C   0  0  0  0  0  0  0  0  0  0  0  0
   48.8720   32.7100   41.4980 C   0  0  0  0  0  0  0  0  0  0  0  0
   48.3850   31.8120   41.0850 H   0  0  0  0  0  0  0  0  0  0  0  0
   50.1860   32.5530   41.8760 C   0  0  0  0  0  0  0  0  0  0  0  0
   50.8160   33.6650   42.3950 C   0  0  0  0  0  0  0  0  0  0  0  0
   51.8350   33.5720   42.6960 H   0  0  0  0  0  0  0  0  0  0  0  0
   50.1250   34.8340   42.5060 C   0  0  0  0  0  0  0  0  0  0  0  0
   50.6110   35.7240   42.9160 H   0  0  0  0  0  0  0  0  0  0  0  0
   48.8260   34.9700   42.1270 C   0  0  0  0  0  0  0  0  0  0  0  0
  1  9  1  0  0  0  0
  2 17  1  0  0  0  0
  2  1  1  0  0  0  0
  3  2  2  0  0  0  0
  4  3  1  0  0  0  0
  4  5  2  0  0  0  0
  5  7  1  0  0  0  0
  5  1  1  0  0  0  0
  6  3  1  0  0  0  0
  8 13  1  0  0  0  0
  9  8  2  0  0  0  0
  9 10  1  0  0  0  0
 10 11  2  0  0  0  0
 11 12  1  0  0  0  0
 12 16  1  0  0  0  0
 13 12  2  0  0  0  0
 14  8  1  0  0  0  0
 15 10  1  0  0  0  0
 17 25  1  0  0  0  0
 18 17  2  0  0  0  0
 18 20  1  0  0  0  0
 19 18  1  0  0  0  0
 20 21  2  0  0  0  0
 21 23  1  0  0  0  0
 21 22  1  0  0  0  0
 23 24  1  0  0  0  0
 25 23  2  0  0  0  0
M  END
>  <minimizedAffinity>
-5.03644609

>  <minimizedRMSD>
3.137146

$$$$
