
 OpenBabel03232520583D

 37 39  0  0  1  0  0  0  0  0999 V2000
   45.3080   32.9240   47.5150 C   0  0  0  0  0  0  0  0  0  0  0  0
   45.8640   32.6560   46.2990 C   0  0  0  0  0  0  0  0  0  0  0  0
   46.1540   31.3020   46.0650 C   0  0  0  0  0  0  0  0  0  0  0  0
   45.9030   30.3350   46.9630 N   0  0  0  0  0  0  0  0  0  0  0  0
   45.3400   30.6530   48.1820 C   0  0  0  0  0  0  0  0  0  0  0  0
   45.0580   31.9270   48.4260 N   0  0  0  0  0  0  0  0  0  0  0  0
   45.0940   29.6490   49.1590 N   0  0  0  0  0  0  0  0  0  0  0  0
   45.0570   33.9390   47.7800 H   0  0  0  0  0  0  0  0  0  0  0  0
   44.4240   29.8530   49.9140 H   0  0  0  0  0  0  0  0  0  0  0  0
   45.5910   28.7250   49.1020 H   0  0  0  0  0  0  0  0  0  0  0  0
   46.0880   33.6020   45.2560 C   0  0  2  0  0  0  0  0  0  0  0  0
   44.9750   34.7230   45.4840 C   0  0  0  0  0  0  0  0  0  0  0  0
   44.7380   35.6440   44.4030 C   0  0  0  0  0  0  0  0  0  0  0  0
   45.4800   35.5330   43.1680 C   0  0  1  0  0  0  0  0  0  0  0  0
   46.5390   34.4910   43.1080 C   0  0  0  0  0  0  0  0  0  0  0  0
   46.0310   33.2760   43.8710 C   0  0  0  0  0  0  0  0  0  0  0  0
   46.9420   34.2910   45.5380 H   0  0  0  0  0  0  0  0  0  0  0  0
   44.3100   34.9850   46.2910 H   0  0  0  0  0  0  0  0  0  0  0  0
   44.0020   36.4290   44.4830 H   0  0  0  0  0  0  0  0  0  0  0  0
   45.9380   36.5140   42.9200 H   0  0  0  0  0  0  0  0  0  0  0  0
   46.7910   34.2450   42.0800 H   0  0  0  0  0  0  0  0  0  0  0  0
   47.4370   34.8400   43.6600 H   0  0  0  0  0  0  0  0  0  0  0  0
   46.4160   32.4590   43.3360 H   0  0  0  0  0  0  0  0  0  0  0  0
   44.9040   33.2620   43.5830 H   0  0  0  0  0  0  0  0  0  0  0  0
   44.4570   35.2720   42.0330 C   0  0  0  0  0  0  0  0  0  0  0  0
   43.4030   34.4780   42.4350 F   0  0  0  0  0  0  0  0  0  0  0  0
   43.9190   36.5090   41.6980 F   0  0  0  0  0  0  0  0  0  0  0  0
   45.1130   34.8040   40.9060 F   0  0  0  0  0  0  0  0  0  0  0  0
   46.8000   30.6150   44.9560 C   0  0  0  0  0  0  0  0  0  0  0  0
   45.8760   29.9270   44.1910 C   0  0  0  0  0  0  0  0  0  0  0  0
   44.8140   29.8720   44.3450 H   0  0  0  0  0  0  0  0  0  0  0  0
   46.2910   29.1970   43.0740 C   0  0  0  0  0  3  0  0  0  0  0  0
   47.6520   29.2020   42.7810 C   0  0  0  0  0  0  0  0  0  0  0  0
   47.9920   28.6420   41.9200 H   0  0  0  0  0  0  0  0  0  0  0  0
   48.5420   29.8900   43.5540 C   0  0  0  0  0  0  0  0  0  0  0  0
   49.5990   29.9010   43.3390 H   0  0  0  0  0  0  0  0  0  0  0  0
   48.1500   30.6210   44.6680 C   0  0  0  0  0  3  0  0  0  0  0  0
  1  8  1  0  0  0  0
  1  6  1  0  0  0  0
  2  1  2  0  0  0  0
  3  2  1  0  0  0  0
  3  4  2  0  0  0  0
  4  5  1  0  0  0  0
  5  6  2  0  0  0  0
  5  7  1  0  0  0  0
  7  9  1  0  0  0  0
 10  7  1  0  0  0  0
 11 12  1  0  0  0  0
 11 17  1  1  0  0  0
 11  2  1  0  0  0  0
 12 18  1  0  0  0  0
 13 19  1  0  0  0  0
 13 12  2  0  0  0  0
 14 20  1  6  0  0  0
 14 13  1  0  0  0  0
 15 14  1  0  0  0  0
 15 22  1  0  0  0  0
 15 16  1  0  0  0  0
 16 11  1  0  0  0  0
 21 15  1  0  0  0  0
 23 16  1  0  0  0  0
 24 16  1  0  0  0  0
 25 26  1  0  0  0  0
 25 14  1  0  0  0  0
 27 25  1  0  0  0  0
 28 25  1  0  0  0  0
 29  3  1  0  0  0  0
 30 31  1  0  0  0  0
 30 29  2  0  0  0  0
 32 30  1  0  0  0  0
 33 32  2  0  0  0  0
 33 35  1  0  0  0  0
 34 33  1  0  0  0  0
 35 37  2  0  0  0  0
 36 35  1  0  0  0  0
 37 29  1  0  0  0  0
M  END
>  <minimizedAffinity>
-5.65081024

>  <minimizedRMSD>
0.450741053

$$$$
