
 OpenBabel03232520173D

 34 36  0  0  0  0  0  0  0  0999 V2000
   47.5240   33.9950   42.3660 C   0  0  0  0  0  0  0  0  0  0  0  0
   48.2900   35.1180   41.7330 C   0  0  0  0  0  0  0  0  0  0  0  0
   49.6570   35.3660   42.2460 C   0  0  0  0  0  0  0  0  0  0  0  0
   50.4510   34.1120   42.4620 C   0  0  0  0  0  0  0  0  0  0  0  0
   49.6410   32.8390   42.3000 C   0  0  0  0  0  0  0  0  0  0  0  0
   48.3740   33.0310   43.0980 C   0  0  0  0  0  0  0  0  0  0  0  0
   48.3880   34.9860   40.6190 H   0  0  0  0  0  0  0  0  0  0  0  0
   47.7110   36.0820   41.8300 H   0  0  0  0  0  0  0  0  0  0  0  0
   49.5940   35.9620   43.1850 H   0  0  0  0  0  0  0  0  0  0  0  0
   50.1870   36.0050   41.5100 H   0  0  0  0  0  0  0  0  0  0  0  0
   50.8220   34.1010   43.5240 H   0  0  0  0  0  0  0  0  0  0  0  0
   51.3230   34.0390   41.7830 H   0  0  0  0  0  0  0  0  0  0  0  0
   50.2730   32.0110   42.6920 H   0  0  0  0  0  0  0  0  0  0  0  0
   49.4670   32.7270   41.2150 H   0  0  0  0  0  0  0  0  0  0  0  0
   48.7050   33.5300   44.0540 H   0  0  0  0  0  0  0  0  0  0  0  0
   47.8560   32.1320   43.3950 H   0  0  0  0  0  0  0  0  0  0  0  0
   45.2880   34.3880   45.2990 C   0  0  0  0  0  0  0  0  0  0  0  0
   44.5360   35.5360   44.9570 C   0  0  0  0  0  0  0  0  0  0  0  0
   44.8110   36.1610   43.7230 C   0  0  0  0  0  0  0  0  0  0  0  0
   45.7840   35.6190   42.9330 N   0  0  0  0  0  0  0  0  0  0  0  0
   46.4760   34.5300   43.2890 C   0  0  0  0  0  0  0  0  0  0  0  0
   46.2260   33.9180   44.4700 N   0  0  0  0  0  0  0  0  0  0  0  0
   45.1350   33.8590   46.2220 H   0  0  0  0  0  0  0  0  0  0  0  0
   43.7920   35.9040   45.6220 H   0  0  0  0  0  0  0  0  0  0  0  0
   44.2660   37.0320   43.4210 H   0  0  0  0  0  0  0  0  0  0  0  0
   46.7550   33.3460   41.2490 C   0  0  0  0  0  0  0  0  0  0  0  0
   46.9440   33.8100   39.9670 C   0  0  0  0  0  0  0  0  0  0  0  0
   47.6010   34.6080   39.6900 H   0  0  0  0  0  0  0  0  0  0  0  0
   46.2710   33.2610   38.8920 C   0  0  0  0  0  0  0  0  0  0  0  0
   45.3870   32.2200   39.0980 C   0  0  0  0  0  0  0  0  0  0  0  0
   44.8550   31.7800   38.2790 H   0  0  0  0  0  0  0  0  0  0  0  0
   45.1870   31.7460   40.3620 C   0  0  0  0  0  0  0  0  0  0  0  0
   44.5100   30.9420   40.5540 H   0  0  0  0  0  0  0  0  0  0  0  0
   45.8680   32.3130   41.3990 C   0  0  0  0  0  0  0  0  0  0  0  0
  1  6  1  0  0  0  0
  1 21  1  0  0  0  0
  2  8  1  0  0  0  0
  2  3  1  0  0  0  0
  2  1  1  0  0  0  0
  3  4  1  0  0  0  0
  3  9  1  0  0  0  0
  4 11  1  0  0  0  0
  5  4  1  0  0  0  0
  5 13  1  0  0  0  0
  5  6  1  0  0  0  0
  6 16  1  0  0  0  0
  6 15  1  0  0  0  0
  7  2  1  0  0  0  0
 10  3  1  0  0  0  0
 12  4  1  0  0  0  0
 14  5  1  0  0  0  0
 17 23  1  0  0  0  0
 18 17  1  0  0  0  0
 18 24  1  0  0  0  0
 19 18  2  0  0  0  0
 20 21  2  0  0  0  0
 20 19  1  0  0  0  0
 21 22  1  0  0  0  0
 22 17  2  0  0  0  0
 25 19  1  0  0  0  0
 26 34  1  0  0  0  0
 26  1  1  0  0  0  0
 27 26  2  0  0  0  0
 28 27  1  0  0  0  0
 29 30  2  0  0  0  0
 29 27  1  0  0  0  0
 30 32  1  0  0  0  0
 31 30  1  0  0  0  0
 32 33  1  0  0  0  0
 32 34  2  0  0  0  0
M  END
>  <minimizedAffinity>
-5.38851738

>  <minimizedRMSD>
0.717780352

$$$$
