
 OpenBabel03232519503D

 43 46  0  0  1  0  0  0  0  0999 V2000
   46.7230   34.0580   42.6600 N   0  0  0  0  0  0  0  0  0  0  0  0
   48.0430   34.5110   42.2240 C   0  0  0  0  0  0  0  0  0  0  0  0
   47.7530   34.8290   40.7740 C   0  0  0  0  0  0  0  0  0  0  0  0
   47.0490   33.5640   40.3610 C   0  0  0  0  0  0  0  0  0  0  0  0
   46.1960   33.2560   41.5450 C   0  0  2  0  0  0  0  0  0  0  0  0
   48.7900   33.7080   42.2730 H   0  0  0  0  0  0  0  0  0  0  0  0
   48.3320   35.4330   42.8000 H   0  0  0  0  0  0  0  0  0  0  0  0
   47.0380   35.6840   40.7220 H   0  0  0  0  0  0  0  0  0  0  0  0
   48.6890   35.0280   40.2140 H   0  0  0  0  0  0  0  0  0  0  0  0
   46.4050   33.8160   39.5010 H   0  0  0  0  0  0  0  0  0  0  0  0
   47.8090   32.7920   40.1140 H   0  0  0  0  0  0  0  0  0  0  0  0
   46.4730   32.2120   41.8350 H   0  0  0  0  0  0  0  0  0  0  0  0
   44.7960   33.3680   41.3660 N   0  0  0  0  0  0  0  0  0  0  0  0
   44.1330   34.2790   40.6480 C   0  0  0  0  0  0  0  0  0  0  0  0
   42.7540   34.3000   40.5360 C   0  0  0  0  0  0  0  0  0  0  0  0
   42.0120   33.3400   41.1920 C   0  0  0  0  0  0  0  0  0  0  0  0
   40.7260   33.3100   41.1240 O   0  0  0  0  0  0  0  0  0  0  0  0
   42.6710   32.4270   41.9110 N   0  0  0  0  0  0  0  0  0  0  0  0
   43.9960   32.4510   41.9850 C   0  0  0  0  0  0  0  0  0  0  0  0
   44.5300   31.5390   42.6940 O   0  0  0  0  0  0  0  0  0  0  0  0
   44.7350   35.0230   40.1420 H   0  0  0  0  0  0  0  0  0  0  0  0
   42.1060   31.6970   42.4090 H   0  0  0  0  0  0  0  0  0  0  0  0
   42.0510   35.3180   39.7370 C   0  0  0  0  0  0  0  0  0  0  0  0
   42.0900   36.2760   40.3300 H   0  0  0  0  0  0  0  0  0  0  0  0
   42.5450   35.4540   38.7480 H   0  0  0  0  0  0  0  0  0  0  0  0
   41.0050   35.0430   39.5810 H   0  0  0  0  0  0  0  0  0  0  0  0
   44.5220   35.5450   45.2510 C   0  0  0  0  0  0  0  0  0  0  0  0
   45.1600   35.3660   44.0110 C   0  0  0  0  0  0  0  0  0  0  0  0
   46.0550   34.3000   43.8570 C   0  0  0  0  0  0  0  0  0  0  0  0
   46.2510   33.4950   44.9390 N   0  0  0  0  0  0  0  0  0  0  0  0
   45.6360   33.6730   46.1250 C   0  0  0  0  0  0  0  0  0  0  0  0
   44.7760   34.6980   46.2710 N   0  0  0  0  0  0  0  0  0  0  0  0
   43.8290   36.3450   45.4210 H   0  0  0  0  0  0  0  0  0  0  0  0
   44.9620   36.0340   43.1980 H   0  0  0  0  0  0  0  0  0  0  0  0
   45.9170   32.7510   47.2230 C   0  0  0  0  0  0  0  0  0  0  0  0
   44.8760   32.3070   48.0170 C   0  0  0  0  0  0  0  0  0  0  0  0
   43.8880   32.6700   47.7840 H   0  0  0  0  0  0  0  0  0  0  0  0
   45.1960   31.4380   49.0400 C   0  0  0  0  0  0  0  0  0  0  0  0
   46.5020   31.0420   49.2440 C   0  0  0  0  0  0  0  0  0  0  0  0
   46.7500   30.3590   50.0500 H   0  0  0  0  0  0  0  0  0  0  0  0
   47.5540   31.4840   48.4490 C   0  0  0  0  0  0  0  0  0  0  0  0
   48.5470   31.1390   48.6600 H   0  0  0  0  0  0  0  0  0  0  0  0
   47.2270   32.3610   47.4180 C   0  0  0  0  0  0  0  0  0  0  0  0
  1 29  1  0  0  0  0
  2  6  1  0  0  0  0
  2  1  1  0  0  0  0
  2  7  1  0  0  0  0
  3  2  1  0  0  0  0
  4  3  1  0  0  0  0
  4  5  1  0  0  0  0
  5 12  1  1  0  0  0
  5  1  1  0  0  0  0
  8  3  1  0  0  0  0
  9  3  1  0  0  0  0
 10  4  1  0  0  0  0
 11  4  1  0  0  0  0
 13  5  1  0  0  0  0
 13 19  1  0  0  0  0
 14 13  1  0  0  0  0
 15 14  2  0  0  0  0
 15 16  1  0  0  0  0
 16 18  1  0  0  0  0
 17 16  2  0  0  0  0
 18 19  1  0  0  0  0
 18 22  1  0  0  0  0
 19 20  2  0  0  0  0
 21 14  1  0  0  0  0
 23 24  1  0  0  0  0
 23 15  1  0  0  0  0
 25 23  1  0  0  0  0
 26 23  1  0  0  0  0
 27 33  1  0  0  0  0
 27 32  1  0  0  0  0
 28 27  2  0  0  0  0
 29 28  1  0  0  0  0
 29 30  2  0  0  0  0
 30 31  1  0  0  0  0
 31 32  2  0  0  0  0
 31 35  1  0  0  0  0
 34 28  1  0  0  0  0
 35 43  2  0  0  0  0
 35 36  1  0  0  0  0
 36 38  2  0  0  0  0
 37 36  1  0  0  0  0
 38 39  1  0  0  0  0
 39 40  1  0  0  0  0
 41 42  1  0  0  0  0
 41 39  2  0  0  0  0
 43 41  1  0  0  0  0
M  END
>  <minimizedAffinity>
-7.13474369

>  <minimizedRMSD>
1.07852936

$$$$
