
 OpenBabel03232520573D

 37 39  0  0  1  0  0  0  0  0999 V2000
   45.3940   32.8890   47.5790 C   0  0  0  0  0  0  0  0  0  0  0  0
   45.8740   32.6290   46.3300 C   0  0  0  0  0  0  0  0  0  0  0  0
   46.0730   31.2690   46.0430 C   0  0  0  0  0  0  0  0  0  0  0  0
   45.8100   30.2890   46.9230 N   0  0  0  0  0  0  0  0  0  0  0  0
   45.3260   30.6000   48.1780 C   0  0  0  0  0  0  0  0  0  0  0  0
   45.1310   31.8800   48.4720 N   0  0  0  0  0  0  0  0  0  0  0  0
   45.0690   29.5810   49.1360 N   0  0  0  0  0  0  0  0  0  0  0  0
   45.2150   33.9080   47.8860 H   0  0  0  0  0  0  0  0  0  0  0  0
   44.4480   29.7980   49.9290 H   0  0  0  0  0  0  0  0  0  0  0  0
   45.5070   28.6320   49.0270 H   0  0  0  0  0  0  0  0  0  0  0  0
   46.1030   33.5940   45.3050 C   0  0  2  0  0  0  0  0  0  0  0  0
   44.9620   34.6880   45.5220 C   0  0  0  0  0  0  0  0  0  0  0  0
   44.7310   35.6200   44.4480 C   0  0  0  0  0  0  0  0  0  0  0  0
   45.5030   35.5400   43.2290 C   0  0  1  0  0  0  0  0  0  0  0  0
   46.5850   34.5210   43.1800 C   0  0  0  0  0  0  0  0  0  0  0  0
   46.0840   33.2860   43.9150 C   0  0  0  0  0  0  0  0  0  0  0  0
   46.9350   34.2960   45.6160 H   0  0  0  0  0  0  0  0  0  0  0  0
   44.2730   34.9260   46.3170 H   0  0  0  0  0  0  0  0  0  0  0  0
   43.9780   36.3880   44.5210 H   0  0  0  0  0  0  0  0  0  0  0  0
   45.9470   36.5330   43.0040 H   0  0  0  0  0  0  0  0  0  0  0  0
   46.8650   34.2940   42.1550 H   0  0  0  0  0  0  0  0  0  0  0  0
   47.4620   34.8810   43.7580 H   0  0  0  0  0  0  0  0  0  0  0  0
   46.4990   32.4830   43.3790 H   0  0  0  0  0  0  0  0  0  0  0  0
   44.9650   33.2520   43.6000 H   0  0  0  0  0  0  0  0  0  0  0  0
   44.5120   35.2740   42.0670 C   0  0  0  0  0  0  0  0  0  0  0  0
   43.4540   34.4720   42.4400 F   0  0  0  0  0  0  0  0  0  0  0  0
   43.9750   36.5080   41.7200 F   0  0  0  0  0  0  0  0  0  0  0  0
   45.2010   34.8120   40.9570 F   0  0  0  0  0  0  0  0  0  0  0  0
   46.6250   30.5820   44.8830 C   0  0  0  0  0  0  0  0  0  0  0  0
   48.0050   30.5140   44.9560 C   0  0  0  0  0  0  0  0  0  0  0  0
   48.6360   30.8980   45.7370 H   0  0  0  0  0  0  0  0  0  0  0  0
   48.7340   29.8930   43.9390 C   0  0  0  0  0  3  0  0  0  0  0  0
   48.0120   29.3590   42.8750 C   0  0  0  0  0  0  0  0  0  0  0  0
   48.5600   28.8730   42.0780 H   0  0  0  0  0  0  0  0  0  0  0  0
   46.6510   29.4400   42.8300 C   0  0  0  0  0  0  0  0  0  0  0  0
   46.0790   29.0300   42.0110 H   0  0  0  0  0  0  0  0  0  0  0  0
   45.9080   30.0540   43.8310 C   0  0  0  0  0  3  0  0  0  0  0  0
  1  8  1  0  0  0  0
  1  6  1  0  0  0  0
  2  1  2  0  0  0  0
  3  2  1  0  0  0  0
  3  4  2  0  0  0  0
  4  5  1  0  0  0  0
  5  6  2  0  0  0  0
  5  7  1  0  0  0  0
  7  9  1  0  0  0  0
 10  7  1  0  0  0  0
 11 12  1  0  0  0  0
 11 17  1  1  0  0  0
 11  2  1  0  0  0  0
 12 18  1  0  0  0  0
 13 19  1  0  0  0  0
 13 12  2  0  0  0  0
 14 20  1  6  0  0  0
 14 13  1  0  0  0  0
 15 14  1  0  0  0  0
 15 22  1  0  0  0  0
 15 16  1  0  0  0  0
 16 11  1  0  0  0  0
 21 15  1  0  0  0  0
 23 16  1  0  0  0  0
 24 16  1  0  0  0  0
 25 26  1  0  0  0  0
 25 14  1  0  0  0  0
 27 25  1  0  0  0  0
 28 25  1  0  0  0  0
 29 30  1  0  0  0  0
 29  3  1  0  0  0  0
 30 31  1  0  0  0  0
 32 30  2  0  0  0  0
 33 32  1  0  0  0  0
 34 33  1  0  0  0  0
 35 33  2  0  0  0  0
 35 37  1  0  0  0  0
 36 35  1  0  0  0  0
 37 29  2  0  0  0  0
M  END
>  <minimizedAffinity>
-5.71292686

>  <minimizedRMSD>
0.344824255

$$$$
