
 OpenBabel03232520393D

 19 20  0  0  0  0  0  0  0  0999 V2000
   44.0160   35.5210   42.6810 C   0  0  0  0  0  0  0  0  0  0  0  0
   43.3200   35.0450   41.5310 C   0  0  0  0  0  0  0  0  0  0  0  0
   44.0190   34.3490   40.5560 C   0  0  0  0  0  0  0  0  0  0  0  0
   45.3560   34.1480   40.7410 N   0  0  0  0  0  0  0  0  0  0  0  0
   45.9820   34.6090   41.8350 C   0  0  0  0  0  0  0  0  0  0  0  0
   45.3350   35.2860   42.7960 N   0  0  0  0  0  0  0  0  0  0  0  0
   43.4750   36.0690   43.4530 H   0  0  0  0  0  0  0  0  0  0  0  0
   43.5120   33.9790   39.6770 H   0  0  0  0  0  0  0  0  0  0  0  0
   47.4080   34.4050   42.0500 C   0  0  0  0  0  0  0  0  0  0  0  0
   48.2540   35.5040   41.9180 C   0  0  0  0  0  0  0  0  0  0  0  0
   47.8730   36.4880   41.6640 H   0  0  0  0  0  0  0  0  0  0  0  0
   49.6150   35.3630   42.1110 C   0  0  0  0  0  0  0  0  0  0  0  0
   50.1820   34.1480   42.4370 C   0  0  0  0  0  0  0  0  0  0  0  0
   51.2610   34.0440   42.5880 H   0  0  0  0  0  0  0  0  0  0  0  0
   49.3380   33.0460   42.5690 C   0  0  0  0  0  0  0  0  0  0  0  0
   49.7310   32.0590   42.8270 H   0  0  0  0  0  0  0  0  0  0  0  0
   47.9780   33.1940   42.3760 C   0  0  0  0  0  0  0  0  0  0  0  0
   41.5450   35.3580   41.3690 S   0  0  0  0  0  0  0  0  0  0  0  0
   41.0760   34.4740   40.4150 H   0  0  0  0  0  0  0  0  0  0  0  0
  1  6  1  0  0  0  0
  1  7  1  0  0  0  0
  2  1  2  0  0  0  0
  3  4  2  0  0  0  0
  3  2  1  0  0  0  0
  4  5  1  0  0  0  0
  5  9  1  0  0  0  0
  5  6  2  0  0  0  0
  8  3  1  0  0  0  0
  9 17  1  0  0  0  0
 10  9  2  0  0  0  0
 10 12  1  0  0  0  0
 11 10  1  0  0  0  0
 12 13  2  0  0  0  0
 13 15  1  0  0  0  0
 13 14  1  0  0  0  0
 15 16  1  0  0  0  0
 17 15  2  0  0  0  0
 18  2  1  0  0  0  0
 19 18  1  0  0  0  0
M  END
>  <minimizedAffinity>
-4.40719938

>  <minimizedRMSD>
5.14958858

$$$$
