
 OpenBabel03232520123D

 40 43  0  0  1  0  0  0  0  0999 V2000
   49.2060   28.7960   48.7290 N   0  0  0  0  0  0  0  0  0  0  0  0
   49.3090   27.5130   48.1120 C   0  0  0  0  0  0  0  0  0  0  0  0
   50.7340   27.0460   47.9920 C   0  0  0  0  0  0  0  0  0  0  0  0
   51.5560   27.4380   49.1750 C   0  0  0  0  0  0  0  0  0  0  0  0
   50.7130   27.8540   50.3610 C   0  0  0  0  0  0  0  0  0  0  0  0
   49.9260   29.0520   49.9700 C   0  0  1  0  0  0  0  0  0  0  0  0
   48.8700   27.5090   47.0920 H   0  0  0  0  0  0  0  0  0  0  0  0
   48.8100   26.7640   48.7900 H   0  0  0  0  0  0  0  0  0  0  0  0
   51.1290   27.4650   47.0310 H   0  0  0  0  0  0  0  0  0  0  0  0
   50.7050   25.9400   47.8040 H   0  0  0  0  0  0  0  0  0  0  0  0
   52.0770   26.5060   49.5100 H   0  0  0  0  0  0  0  0  0  0  0  0
   52.3740   28.1480   48.9750 H   0  0  0  0  0  0  0  0  0  0  0  0
   51.4420   28.1650   51.1500 H   0  0  0  0  0  0  0  0  0  0  0  0
   50.0930   27.0350   50.7130 H   0  0  0  0  0  0  0  0  0  0  0  0
   49.0940   29.1360   50.7330 H   0  0  0  0  0  0  0  0  0  0  0  0
   50.6550   30.3220   49.9790 C   0  0  0  0  0  0  0  0  0  0  0  0
   51.6030   30.6010   48.9850 C   0  0  0  0  0  0  0  0  0  0  0  0
   51.8110   29.8690   48.1880 H   0  0  0  0  0  0  0  0  0  0  0  0
   52.3270   31.7780   48.9330 C   0  0  0  0  0  0  0  0  0  0  0  0
   52.1160   32.7370   49.9010 C   0  0  0  0  0  0  0  0  0  0  0  0
   52.6950   33.6520   49.8380 H   0  0  0  0  0  0  0  0  0  0  0  0
   51.1970   32.5180   50.9000 C   0  0  0  0  0  0  0  0  0  0  0  0
   51.0210   33.2750   51.6760 H   0  0  0  0  0  0  0  0  0  0  0  0
   50.5100   31.3210   50.8910 C   0  0  0  0  0  0  0  0  0  0  0  0
   47.2270   31.8980   47.0210 C   0  0  0  0  0  0  0  0  0  0  0  0
   47.1990   31.9070   48.3890 C   0  0  0  0  0  0  0  0  0  0  0  0
   47.8270   30.9180   49.0690 C   0  0  0  0  0  0  0  0  0  0  0  0
   48.4630   29.9560   48.3030 C   0  0  0  0  0  0  0  0  0  0  0  0
   48.1660   30.4590   46.6110 S   0  0  0  0  0  0  0  0  0  0  0  0
   46.6650   32.7190   48.8780 H   0  0  0  0  0  0  0  0  0  0  0  0
   47.8740   30.8170   50.1260 H   0  0  0  0  0  0  0  0  0  0  0  0
   45.0650   34.4710   45.5310 C   0  0  0  0  0  0  0  0  0  0  0  0
   45.5880   34.5360   44.2050 C   0  0  0  0  0  0  0  0  0  0  0  0
   46.6620   33.6980   43.8710 C   0  0  0  0  0  0  0  0  0  0  0  0
   47.1660   32.8500   44.8290 N   0  0  0  0  0  0  0  0  0  0  0  0
   46.6470   32.8180   46.0610 C   0  0  0  0  0  0  0  0  0  0  0  0
   45.6070   33.6170   46.4180 N   0  0  0  0  0  0  0  0  0  0  0  0
   44.2380   35.1020   45.8240 H   0  0  0  0  0  0  0  0  0  0  0  0
   45.1690   35.2100   43.4850 H   0  0  0  0  0  0  0  0  0  0  0  0
   47.0920   33.7120   42.8790 H   0  0  0  0  0  0  0  0  0  0  0  0
  1  6  1  0  0  0  0
  2  1  1  0  0  0  0
  2  8  1  0  0  0  0
  3  2  1  0  0  0  0
  3  4  1  0  0  0  0
  4 11  1  0  0  0  0
  4  5  1  0  0  0  0
  5 14  1  0  0  0  0
  5 13  1  0  0  0  0
  6 16  1  0  0  0  0
  6  5  1  0  0  0  0
  6 15  1  1  0  0  0
  7  2  1  0  0  0  0
  9  3  1  0  0  0  0
 10  3  1  0  0  0  0
 12  4  1  0  0  0  0
 16 24  1  0  0  0  0
 17 16  2  0  0  0  0
 18 17  1  0  0  0  0
 19 17  1  0  0  0  0
 19 20  2  0  0  0  0
 20 22  1  0  0  0  0
 21 20  1  0  0  0  0
 22 23  1  0  0  0  0
 24 22  2  0  0  0  0
 25 26  2  0  0  0  0
 26 30  1  0  0  0  0
 26 27  1  0  0  0  0
 27 31  1  0  0  0  0
 28  1  1  0  0  0  0
 28 27  2  0  0  0  0
 29 25  1  0  0  0  0
 29 28  1  0  0  0  0
 32 38  1  0  0  0  0
 32 37  1  0  0  0  0
 33 32  2  0  0  0  0
 34 33  1  0  0  0  0
 34 35  2  0  0  0  0
 35 36  1  0  0  0  0
 36 37  2  0  0  0  0
 36 25  1  0  0  0  0
 39 33  1  0  0  0  0
 40 34  1  0  0  0  0
M  END
>  <minimizedAffinity>
-4.94083786

>  <minimizedRMSD>
2.55813146

$$$$
