
 OpenBabel03232520473D

 41 44  0  0  0  0  0  0  0  0999 V2000
   46.5570   34.4580   42.4770 C   0  0  0  0  0  0  0  0  0  0  0  0
   47.8630   34.8270   42.3420 C   0  0  0  0  0  0  0  0  0  0  0  0
   48.5320   34.8190   41.1240 C   0  0  0  0  0  0  0  0  0  0  0  0
   47.8370   34.4110   39.9710 C   0  0  0  0  0  0  0  0  0  0  0  0
   46.5220   34.0370   40.0900 C   0  0  0  0  0  0  0  0  0  0  0  0
   45.9060   34.0660   41.3380 C   0  0  0  0  0  0  0  0  0  0  0  0
   48.4870   35.1570   43.1720 H   0  0  0  0  0  0  0  0  0  0  0  0
   49.5680   35.1130   41.0270 H   0  0  0  0  0  0  0  0  0  0  0  0
   48.2860   34.3770   38.9880 H   0  0  0  0  0  0  0  0  0  0  0  0
   45.9650   33.7210   39.2210 H   0  0  0  0  0  0  0  0  0  0  0  0
   44.5440   33.6730   41.4240 N   0  0  0  0  0  0  0  0  0  0  0  0
   43.7150   34.6750   40.9880 C   0  0  0  0  0  0  0  0  0  0  0  0
   42.3330   34.5090   40.9830 C   0  0  0  0  0  0  0  0  0  0  0  0
   41.8370   33.2970   41.4350 C   0  0  0  0  0  0  0  0  0  0  0  0
   40.5960   33.0810   41.4560 O   0  0  0  0  0  0  0  0  0  0  0  0
   42.6820   32.3470   41.8510 N   0  0  0  0  0  0  0  0  0  0  0  0
   44.0130   32.5180   41.8520 C   0  0  0  0  0  0  0  0  0  0  0  0
   44.8710   31.6890   42.2220 O   0  0  0  0  0  0  0  0  0  0  0  0
   44.0300   35.6350   40.6270 H   0  0  0  0  0  0  0  0  0  0  0  0
   42.3580   31.4040   42.2050 H   0  0  0  0  0  0  0  0  0  0  0  0
   41.4080   35.5760   40.5160 C   0  0  0  0  0  0  0  0  0  0  0  0
   41.8520   36.2670   39.7990 H   0  0  0  0  0  0  0  0  0  0  0  0
   40.4840   35.1020   40.1380 H   0  0  0  0  0  0  0  0  0  0  0  0
   41.1720   36.1830   41.4360 H   0  0  0  0  0  0  0  0  0  0  0  0
   44.5310   35.4010   45.4980 C   0  0  0  0  0  0  0  0  0  0  0  0
   45.0430   35.4660   44.2010 C   0  0  0  0  0  0  0  0  0  0  0  0
   45.9550   34.5030   43.7890 C   0  0  0  0  0  0  0  0  0  0  0  0
   46.2970   33.5530   44.6730 N   0  0  0  0  0  0  0  0  0  0  0  0
   45.7870   33.5090   45.9290 C   0  0  0  0  0  0  0  0  0  0  0  0
   44.9090   34.4310   46.3320 N   0  0  0  0  0  0  0  0  0  0  0  0
   43.8260   36.1840   45.7500 H   0  0  0  0  0  0  0  0  0  0  0  0
   44.8080   36.2030   43.4450 H   0  0  0  0  0  0  0  0  0  0  0  0
   46.2290   32.4290   46.8100 C   0  0  0  0  0  0  0  0  0  0  0  0
   45.6390   31.1830   46.7350 C   0  0  0  0  0  0  0  0  0  0  0  0
   44.8440   30.9660   46.0340 H   0  0  0  0  0  0  0  0  0  0  0  0
   46.0560   30.1600   47.5670 C   0  0  0  0  0  3  0  0  0  0  0  0
   47.0710   30.4750   48.4460 C   0  0  0  0  0  0  0  0  0  0  0  0
   47.4040   29.6840   49.1010 H   0  0  0  0  0  0  0  0  0  0  0  0
   47.7110   31.6990   48.5810 C   0  0  0  0  0  0  0  0  0  0  0  0
   48.4940   31.8230   49.3080 H   0  0  0  0  0  0  0  0  0  0  0  0
   47.2450   32.6910   47.7120 C   0  0  0  0  0  3  0  0  0  0  0  0
  1 27  1  0  0  0  0
  2  1  1  0  0  0  0
  2  7  1  0  0  0  0
  3  2  2  0  0  0  0
  4  5  2  0  0  0  0
  4  3  1  0  0  0  0
  5  6  1  0  0  0  0
  6 11  1  0  0  0  0
  6  1  2  0  0  0  0
  8  3  1  0  0  0  0
  9  4  1  0  0  0  0
 10  5  1  0  0  0  0
 11 17  1  0  0  0  0
 12 11  1  0  0  0  0
 13 12  2  0  0  0  0
 13 14  1  0  0  0  0
 14 15  2  0  0  0  0
 14 16  1  0  0  0  0
 16 17  1  0  0  0  0
 16 20  1  0  0  0  0
 17 18  2  0  0  0  0
 19 12  1  0  0  0  0
 21 13  1  0  0  0  0
 21 24  1  0  0  0  0
 22 21  1  0  0  0  0
 23 21  1  0  0  0  0
 25 31  1  0  0  0  0
 25 30  1  0  0  0  0
 26 25  2  0  0  0  0
 27 26  1  0  0  0  0
 27 28  2  0  0  0  0
 28 29  1  0  0  0  0
 29 30  2  0  0  0  0
 29 33  1  0  0  0  0
 32 26  1  0  0  0  0
 33 41  1  0  0  0  0
 34 33  2  0  0  0  0
 34 36  1  0  0  0  0
 35 34  1  0  0  0  0
 36 37  2  0  0  0  0
 37 39  1  0  0  0  0
 37 38  1  0  0  0  0
 39 40  1  0  0  0  0
 41 39  2  0  0  0  0
M  END
>  <minimizedAffinity>
-7.37386227

>  <minimizedRMSD>
0.661337554

$$$$
