
 OpenBabel03232520583D

 38 40  0  0  1  0  0  0  0  0999 V2000
   45.3060   32.8670   47.5340 C   0  0  0  0  0  0  0  0  0  0  0  0
   45.8940   32.6260   46.3270 C   0  0  0  0  0  0  0  0  0  0  0  0
   46.2140   31.2830   46.0820 C   0  0  0  0  0  0  0  0  0  0  0  0
   45.9610   30.3010   46.9630 N   0  0  0  0  0  0  0  0  0  0  0  0
   45.3640   30.5900   48.1720 C   0  0  0  0  0  0  0  0  0  0  0  0
   45.0520   31.8540   48.4330 N   0  0  0  0  0  0  0  0  0  0  0  0
   45.1030   29.5690   49.1220 N   0  0  0  0  0  0  0  0  0  0  0  0
   45.0290   33.8700   47.8100 H   0  0  0  0  0  0  0  0  0  0  0  0
   45.9780   29.6960   49.7040 H   0  0  0  0  0  0  0  0  0  0  0  0
   44.1860   29.2590   48.7160 H   0  0  0  0  0  0  0  0  0  0  0  0
   46.1180   33.5960   45.3050 C   0  0  2  0  0  0  0  0  0  0  0  0
   44.9760   34.6880   45.5240 C   0  0  0  0  0  0  0  0  0  0  0  0
   44.7420   35.6130   44.4450 C   0  0  0  0  0  0  0  0  0  0  0  0
   45.5050   35.5330   43.2220 C   0  0  1  0  0  0  0  0  0  0  0  0
   46.5900   34.5250   43.1800 C   0  0  0  0  0  0  0  0  0  0  0  0
   46.0990   33.2880   43.9180 C   0  0  0  0  0  0  0  0  0  0  0  0
   46.9490   34.3000   45.6170 H   0  0  0  0  0  0  0  0  0  0  0  0
   44.2900   34.9330   46.3140 H   0  0  0  0  0  0  0  0  0  0  0  0
   44.0110   36.3720   44.4910 H   0  0  0  0  0  0  0  0  0  0  0  0
   45.9380   36.5290   42.9800 H   0  0  0  0  0  0  0  0  0  0  0  0
   47.4570   34.9100   43.7580 H   0  0  0  0  0  0  0  0  0  0  0  0
   46.9200   34.3340   42.1610 H   0  0  0  0  0  0  0  0  0  0  0  0
   44.9840   33.2460   43.5990 H   0  0  0  0  0  0  0  0  0  0  0  0
   46.5290   32.4860   43.3900 H   0  0  0  0  0  0  0  0  0  0  0  0
   44.5130   35.2560   42.0650 C   0  0  0  0  0  0  0  0  0  0  0  0
   43.4640   34.4440   42.4410 F   0  0  0  0  0  0  0  0  0  0  0  0
   43.9560   36.4870   41.7260 F   0  0  0  0  0  0  0  0  0  0  0  0
   45.2010   34.8080   40.9500 F   0  0  0  0  0  0  0  0  0  0  0  0
   48.0460   29.4630   42.6940 C   0  0  0  0  0  0  0  0  0  0  0  0
   48.8290   30.0600   43.6500 C   0  0  0  0  0  3  0  0  0  0  0  0
   48.2620   30.6290   44.7710 C   0  0  0  0  0  3  0  0  0  0  0  0
   46.8940   30.6190   44.9760 C   0  0  0  0  0  0  0  0  0  0  0  0
   46.1670   29.9850   43.9460 C   0  0  0  0  0  3  0  0  0  0  0  0
   46.6740   29.4010   42.8070 C   0  0  0  0  0  3  0  0  0  0  0  0
   47.9130   27.7670   40.7420 H   0  0  0  0  0  0  0  0  0  0  0  0
   48.7490   28.7270   41.2490 S   0  0  0  0  0  0  0  0  0  0  0  0
   48.9050   29.8190   40.2410 O   0  0  0  0  0  0  0  0  0  0  0  0
   50.0450   28.0680   41.5770 O   0  0  0  0  0  0  0  0  0  0  0  0
  1  8  1  0  0  0  0
  1  6  1  0  0  0  0
  2  1  2  0  0  0  0
  3  2  1  0  0  0  0
  3  4  2  0  0  0  0
  4  5  1  0  0  0  0
  5  6  2  0  0  0  0
  5  7  1  0  0  0  0
  7  9  1  0  0  0  0
 10  7  1  0  0  0  0
 11 12  1  0  0  0  0
 11 17  1  1  0  0  0
 11  2  1  0  0  0  0
 12 18  1  0  0  0  0
 13 19  1  0  0  0  0
 13 12  2  0  0  0  0
 14 20  1  6  0  0  0
 14 13  1  0  0  0  0
 15 14  1  0  0  0  0
 15 21  1  0  0  0  0
 15 16  1  0  0  0  0
 16 11  1  0  0  0  0
 22 15  1  0  0  0  0
 23 16  1  0  0  0  0
 24 16  1  0  0  0  0
 25 26  1  0  0  0  0
 25 14  1  0  0  0  0
 27 25  1  0  0  0  0
 28 25  1  0  0  0  0
 29 34  2  0  0  0  0
 29 30  1  0  0  0  0
 30 31  2  0  0  0  0
 31 32  1  0  0  0  0
 32  3  1  0  0  0  0
 33 32  2  0  0  0  0
 34 33  1  0  0  0  0
 35 36  1  0  0  0  0
 36 38  2  0  0  0  0
 36 29  1  0  0  0  0
 37 36  2  0  0  0  0
M  END
>  <minimizedAffinity>
-5.456007

>  <minimizedRMSD>
0.660334766

$$$$
