
 OpenBabel03232517543D

 32 35  0  0  0  0  0  0  0  0999 V2000
   47.4110   34.1390   42.7180 N   0  0  0  0  0  0  0  0  0  0  0  0
   48.7160   34.4120   42.6980 C   0  0  0  0  0  0  0  0  0  0  0  0
   49.2650   33.8830   41.5890 N   0  0  0  0  0  0  0  0  0  0  0  0
   48.2930   33.2640   40.8970 C   0  0  0  0  0  0  0  0  0  0  0  0
   48.2250   32.5490   39.7000 C   0  0  0  0  0  0  0  0  0  0  0  0
   47.0280   32.0600   39.3120 N   0  0  0  0  0  0  0  0  0  0  0  0
   45.8860   32.2090   39.9940 C   0  0  0  0  0  0  0  0  0  0  0  0
   45.9400   32.9020   41.1580 N   0  0  0  0  0  0  0  0  0  0  0  0
   47.1200   33.4240   41.6070 C   0  0  0  0  0  0  0  0  0  0  0  0
   49.1780   34.9810   43.4970 H   0  0  0  0  0  0  0  0  0  0  0  0
   49.1250   32.4070   39.1200 H   0  0  0  0  0  0  0  0  0  0  0  0
   45.4110   34.0530   45.8180 C   0  0  0  0  0  0  0  0  0  0  0  0
   46.3750   33.7060   44.8600 C   0  0  0  0  0  0  0  0  0  0  0  0
   46.4370   34.4900   43.6840 C   0  0  0  0  0  0  0  0  0  0  0  0
   45.5620   35.5340   43.5480 N   0  0  0  0  0  0  0  0  0  0  0  0
   44.6600   35.8210   44.4930 C   0  0  0  0  0  0  0  0  0  0  0  0
   44.5730   35.0980   45.6220 N   0  0  0  0  0  0  0  0  0  0  0  0
   45.2310   33.3700   47.0290 N   0  0  0  0  0  0  0  0  0  0  0  0
   47.0140   32.8680   45.0650 H   0  0  0  0  0  0  0  0  0  0  0  0
   44.0380   36.6710   44.2470 H   0  0  0  0  0  0  0  0  0  0  0  0
   45.0240   32.3330   46.9150 H   0  0  0  0  0  0  0  0  0  0  0  0
   45.3240   33.9790   47.8940 H   0  0  0  0  0  0  0  0  0  0  0  0
   42.2880   30.5600   38.7020 C   0  0  0  0  0  0  0  0  0  0  0  0
   43.2040   30.9870   37.7660 C   0  0  0  0  0  0  0  0  0  0  0  0
   44.4010   31.5360   38.1460 C   0  0  0  0  0  0  0  0  0  0  0  0
   44.6610   31.6480   39.4930 C   0  0  0  0  0  0  0  0  0  0  0  0
   43.7330   31.2160   40.4400 C   0  0  0  0  0  0  0  0  0  0  0  0
   42.5290   30.6640   40.0630 C   0  0  0  0  0  0  0  0  0  0  0  0
   40.9960   28.5630   37.8540 H   0  0  0  0  0  0  0  0  0  0  0  0
   40.7740   29.8660   38.1920 S   0  0  0  0  0  0  0  0  0  0  0  0
   39.7590   29.9160   39.2830 O   0  0  0  0  0  0  0  0  0  0  0  0
   40.2750   30.6290   36.9720 O   0  0  0  0  0  0  0  0  0  0  0  0
  1 14  1  0  0  0  0
  2  1  1  0  0  0  0
  2 10  1  0  0  0  0
  3  2  2  0  0  0  0
  4  3  1  0  0  0  0
  4  9  1  0  0  0  0
  5  4  2  0  0  0  0
  6  5  1  0  0  0  0
  6  7  2  0  0  0  0
  7  8  1  0  0  0  0
  8  9  2  0  0  0  0
  9  1  1  0  0  0  0
 11  5  1  0  0  0  0
 12 18  1  0  0  0  0
 13 19  1  0  0  0  0
 13 12  2  0  0  0  0
 14 13  1  0  0  0  0
 15 14  2  0  0  0  0
 15 16  1  0  0  0  0
 16 17  2  0  0  0  0
 17 12  1  0  0  0  0
 18 22  1  0  0  0  0
 20 16  1  0  0  0  0
 21 18  1  0  0  0  0
 23 28  1  0  0  0  0
 24 25  1  0  0  0  0
 24 23  2  0  0  0  0
 25 26  2  0  0  0  0
 26  7  1  0  0  0  0
 26 27  1  0  0  0  0
 28 27  2  0  0  0  0
 29 30  1  0  0  0  0
 30 23  1  0  0  0  0
 30 31  2  0  0  0  0
 32 30  2  0  0  0  0
M  END
>  <minimizedAffinity>
-4.86375761

>  <minimizedRMSD>
8.32611942

$$$$
