
 OpenBabel03232520583D

 38 40  0  0  1  0  0  0  0  0999 V2000
   45.3050   32.8680   47.5340 C   0  0  0  0  0  0  0  0  0  0  0  0
   45.8930   32.6270   46.3260 C   0  0  0  0  0  0  0  0  0  0  0  0
   46.2130   31.2850   46.0820 C   0  0  0  0  0  0  0  0  0  0  0  0
   45.9600   30.3020   46.9620 N   0  0  0  0  0  0  0  0  0  0  0  0
   45.3630   30.5910   48.1710 C   0  0  0  0  0  0  0  0  0  0  0  0
   45.0510   31.8550   48.4330 N   0  0  0  0  0  0  0  0  0  0  0  0
   45.1020   29.5700   49.1220 N   0  0  0  0  0  0  0  0  0  0  0  0
   45.0270   33.8710   47.8100 H   0  0  0  0  0  0  0  0  0  0  0  0
   45.9780   29.6970   49.7040 H   0  0  0  0  0  0  0  0  0  0  0  0
   44.1860   29.2600   48.7150 H   0  0  0  0  0  0  0  0  0  0  0  0
   46.1170   33.5980   45.3040 C   0  0  2  0  0  0  0  0  0  0  0  0
   44.9750   34.6900   45.5240 C   0  0  0  0  0  0  0  0  0  0  0  0
   44.7410   35.6140   44.4450 C   0  0  0  0  0  0  0  0  0  0  0  0
   45.5040   35.5350   43.2220 C   0  0  1  0  0  0  0  0  0  0  0  0
   46.5890   34.5260   43.1790 C   0  0  0  0  0  0  0  0  0  0  0  0
   46.0980   33.2890   43.9170 C   0  0  0  0  0  0  0  0  0  0  0  0
   46.9480   34.3010   45.6160 H   0  0  0  0  0  0  0  0  0  0  0  0
   44.2890   34.9340   46.3140 H   0  0  0  0  0  0  0  0  0  0  0  0
   44.0100   36.3730   44.4910 H   0  0  0  0  0  0  0  0  0  0  0  0
   45.9370   36.5300   42.9790 H   0  0  0  0  0  0  0  0  0  0  0  0
   47.4560   34.9110   43.7570 H   0  0  0  0  0  0  0  0  0  0  0  0
   46.9180   34.3360   42.1600 H   0  0  0  0  0  0  0  0  0  0  0  0
   44.9820   33.2480   43.5990 H   0  0  0  0  0  0  0  0  0  0  0  0
   46.5270   32.4880   43.3890 H   0  0  0  0  0  0  0  0  0  0  0  0
   44.5120   35.2580   42.0650 C   0  0  0  0  0  0  0  0  0  0  0  0
   43.4620   34.4470   42.4420 F   0  0  0  0  0  0  0  0  0  0  0  0
   43.9550   36.4900   41.7250 F   0  0  0  0  0  0  0  0  0  0  0  0
   45.1990   34.8090   40.9510 F   0  0  0  0  0  0  0  0  0  0  0  0
   48.0450   29.4640   42.6940 C   0  0  0  0  0  0  0  0  0  0  0  0
   48.8290   30.0630   43.6480 C   0  0  0  0  0  3  0  0  0  0  0  0
   48.2620   30.6320   44.7690 C   0  0  0  0  0  3  0  0  0  0  0  0
   46.8930   30.6210   44.9760 C   0  0  0  0  0  0  0  0  0  0  0  0
   46.1650   29.9840   43.9460 C   0  0  0  0  0  3  0  0  0  0  0  0
   46.6740   29.4010   42.8070 C   0  0  0  0  0  3  0  0  0  0  0  0
   47.9090   27.7740   40.7360 H   0  0  0  0  0  0  0  0  0  0  0  0
   48.7470   28.7280   41.2490 S   0  0  0  0  0  0  0  0  0  0  0  0
   48.9140   29.8220   40.2440 O   0  0  0  0  0  0  0  0  0  0  0  0
   50.0400   28.0620   41.5790 O   0  0  0  0  0  0  0  0  0  0  0  0
  1  8  1  0  0  0  0
  1  6  1  0  0  0  0
  2  1  2  0  0  0  0
  3  2  1  0  0  0  0
  3  4  2  0  0  0  0
  4  5  1  0  0  0  0
  5  6  2  0  0  0  0
  5  7  1  0  0  0  0
  7  9  1  0  0  0  0
 10  7  1  0  0  0  0
 11 12  1  0  0  0  0
 11 17  1  1  0  0  0
 11  2  1  0  0  0  0
 12 18  1  0  0  0  0
 13 19  1  0  0  0  0
 13 12  2  0  0  0  0
 14 20  1  6  0  0  0
 14 13  1  0  0  0  0
 15 14  1  0  0  0  0
 15 21  1  0  0  0  0
 15 16  1  0  0  0  0
 16 11  1  0  0  0  0
 22 15  1  0  0  0  0
 23 16  1  0  0  0  0
 24 16  1  0  0  0  0
 25 26  1  0  0  0  0
 25 14  1  0  0  0  0
 27 25  1  0  0  0  0
 28 25  1  0  0  0  0
 29 34  2  0  0  0  0
 29 30  1  0  0  0  0
 30 31  2  0  0  0  0
 31 32  1  0  0  0  0
 32  3  1  0  0  0  0
 33 32  2  0  0  0  0
 34 33  1  0  0  0  0
 35 36  1  0  0  0  0
 36 38  2  0  0  0  0
 36 29  1  0  0  0  0
 37 36  2  0  0  0  0
M  END
>  <minimizedAffinity>
-5.4545083

>  <minimizedRMSD>
0.791302919

$$$$
