
 OpenBabel03232516233D

 32 35  0  0  0  0  0  0  0  0999 V2000
   48.5330   35.1680   40.7200 C   0  0  0  0  0  0  0  0  0  0  0  0
   48.3130   33.9970   39.9700 C   0  0  0  0  0  0  0  0  0  0  0  0
   47.2790   33.1570   40.3730 C   0  0  0  0  0  0  0  0  0  0  0  0
   46.5430   33.5210   41.4690 N   0  0  0  0  0  0  0  0  0  0  0  0
   46.7910   34.6560   42.1580 C   0  0  0  0  0  0  0  0  0  0  0  0
   47.7730   35.4700   41.7910 N   0  0  0  0  0  0  0  0  0  0  0  0
   45.9610   34.9550   43.3000 N   0  0  0  0  0  0  0  0  0  0  0  0
   45.0680   35.9230   43.5760 C   0  0  0  0  0  0  0  0  0  0  0  0
   44.5820   35.7180   44.8060 N   0  0  0  0  0  0  0  0  0  0  0  0
   45.1790   34.6040   45.3150 C   0  0  0  0  0  0  0  0  0  0  0  0
   45.0080   33.9950   46.5420 C   0  0  0  0  0  0  0  0  0  0  0  0
   45.7350   32.8820   46.8020 N   0  0  0  0  0  0  0  0  0  0  0  0
   46.5870   32.4000   45.8860 C   0  0  0  0  0  0  0  0  0  0  0  0
   46.7340   33.0120   44.7010 N   0  0  0  0  0  0  0  0  0  0  0  0
   46.0510   34.1170   44.3700 C   0  0  0  0  0  0  0  0  0  0  0  0
   49.3430   35.7900   40.3750 H   0  0  0  0  0  0  0  0  0  0  0  0
   48.8950   33.7140   39.1080 H   0  0  0  0  0  0  0  0  0  0  0  0
   47.0110   32.2310   39.8810 H   0  0  0  0  0  0  0  0  0  0  0  0
   44.8570   36.6910   42.8410 H   0  0  0  0  0  0  0  0  0  0  0  0
   48.8410   28.9290   46.8220 C   0  0  0  0  0  0  0  0  0  0  0  0
   48.3750   29.7450   47.8480 C   0  0  0  0  0  0  0  0  0  0  0  0
   47.6540   30.8510   47.4800 C   0  0  0  0  0  0  0  0  0  0  0  0
   47.3640   31.2000   46.1770 C   0  0  0  0  0  0  0  0  0  0  0  0
   47.8260   30.3930   45.1580 C   0  0  0  0  0  0  0  0  0  0  0  0
   48.5610   29.2630   45.5010 C   0  0  0  0  0  0  0  0  0  0  0  0
   49.9340   26.6310   46.2830 H   0  0  0  0  0  0  0  0  0  0  0  0
   49.7580   27.5230   47.2820 S   0  0  0  0  0  0  0  0  0  0  0  0
   51.0800   28.0390   47.8280 O   0  0  0  0  0  0  0  0  0  0  0  0
   49.0550   26.9280   48.4870 O   0  0  0  0  0  0  0  0  0  0  0  0
   44.1160   34.4910   47.5100 N   0  0  0  0  0  0  0  0  0  0  0  0
   43.0630   34.3630   47.5580 H   0  0  0  0  0  0  0  0  0  0  0  0
   44.5190   35.0650   48.2960 H   0  0  0  0  0  0  0  0  0  0  0  0
  1  6  1  0  0  0  0
  2  3  1  0  0  0  0
  2  1  2  0  0  0  0
  3  4  2  0  0  0  0
  4  5  1  0  0  0  0
  5  7  1  0  0  0  0
  6  5  2  0  0  0  0
  7  8  1  0  0  0  0
  7 15  1  0  0  0  0
  8  9  2  0  0  0  0
  9 10  1  0  0  0  0
 10 11  1  0  0  0  0
 11 12  2  0  0  0  0
 11 30  1  0  0  0  0
 13 23  1  0  0  0  0
 13 12  1  0  0  0  0
 14 13  2  0  0  0  0
 15 14  1  0  0  0  0
 15 10  2  0  0  0  0
 16  1  1  0  0  0  0
 17  2  1  0  0  0  0
 18  3  1  0  0  0  0
 19  8  1  0  0  0  0
 20 27  1  0  0  0  0
 20 21  1  0  0  0  0
 22 21  2  0  0  0  0
 23 22  1  0  0  0  0
 24 25  1  0  0  0  0
 24 23  2  0  0  0  0
 25 20  2  0  0  0  0
 26 27  1  0  0  0  0
 27 28  2  0  0  0  0
 27 29  2  0  0  0  0
 30 31  1  0  0  0  0
 30 32  1  0  0  0  0
M  END
>  <minimizedAffinity>
-6.40103197

>  <minimizedRMSD>
0.935298204

$$$$
