
 OpenBabel03232520583D

 38 40  0  0  1  0  0  0  0  0999 V2000
   45.3070   32.8590   47.5270 C   0  0  0  0  0  0  0  0  0  0  0  0
   45.8960   32.6220   46.3190 C   0  0  0  0  0  0  0  0  0  0  0  0
   46.2180   31.2800   46.0720 C   0  0  0  0  0  0  0  0  0  0  0  0
   45.9650   30.2950   46.9490 N   0  0  0  0  0  0  0  0  0  0  0  0
   45.3670   30.5810   48.1580 C   0  0  0  0  0  0  0  0  0  0  0  0
   45.0530   31.8440   48.4230 N   0  0  0  0  0  0  0  0  0  0  0  0
   45.1070   29.5570   49.1060 N   0  0  0  0  0  0  0  0  0  0  0  0
   45.0280   33.8610   47.8050 H   0  0  0  0  0  0  0  0  0  0  0  0
   45.9810   29.6830   49.6890 H   0  0  0  0  0  0  0  0  0  0  0  0
   44.1910   29.2470   48.6990 H   0  0  0  0  0  0  0  0  0  0  0  0
   46.1190   33.5950   45.3000 C   0  0  2  0  0  0  0  0  0  0  0  0
   44.9770   34.6860   45.5220 C   0  0  0  0  0  0  0  0  0  0  0  0
   44.7430   35.6130   44.4450 C   0  0  0  0  0  0  0  0  0  0  0  0
   45.5060   35.5370   43.2220 C   0  0  1  0  0  0  0  0  0  0  0  0
   46.5910   34.5290   43.1770 C   0  0  0  0  0  0  0  0  0  0  0  0
   46.1010   33.2900   43.9120 C   0  0  0  0  0  0  0  0  0  0  0  0
   46.9500   34.2980   45.6140 H   0  0  0  0  0  0  0  0  0  0  0  0
   44.2910   34.9280   46.3120 H   0  0  0  0  0  0  0  0  0  0  0  0
   44.0110   36.3710   44.4930 H   0  0  0  0  0  0  0  0  0  0  0  0
   45.9380   36.5330   42.9820 H   0  0  0  0  0  0  0  0  0  0  0  0
   47.4580   34.9130   43.7560 H   0  0  0  0  0  0  0  0  0  0  0  0
   46.9210   34.3410   42.1580 H   0  0  0  0  0  0  0  0  0  0  0  0
   44.9850   33.2490   43.5930 H   0  0  0  0  0  0  0  0  0  0  0  0
   46.5300   32.4900   43.3810 H   0  0  0  0  0  0  0  0  0  0  0  0
   44.5140   35.2630   42.0640 C   0  0  0  0  0  0  0  0  0  0  0  0
   43.4620   34.4540   42.4400 F   0  0  0  0  0  0  0  0  0  0  0  0
   43.9610   36.4950   41.7240 F   0  0  0  0  0  0  0  0  0  0  0  0
   45.2010   34.8120   40.9510 F   0  0  0  0  0  0  0  0  0  0  0  0
   48.0540   29.4710   42.6800 C   0  0  0  0  0  0  0  0  0  0  0  0
   48.8360   30.0650   43.6380 C   0  0  0  0  0  3  0  0  0  0  0  0
   48.2690   30.6300   44.7610 C   0  0  0  0  0  3  0  0  0  0  0  0
   46.9000   30.6200   44.9640 C   0  0  0  0  0  0  0  0  0  0  0  0
   46.1730   29.9890   43.9300 C   0  0  0  0  0  3  0  0  0  0  0  0
   46.6830   29.4100   42.7900 C   0  0  0  0  0  3  0  0  0  0  0  0
   47.9520   27.7440   40.7540 H   0  0  0  0  0  0  0  0  0  0  0  0
   48.7590   28.7400   41.2330 S   0  0  0  0  0  0  0  0  0  0  0  0
   48.8600   29.8220   40.2090 O   0  0  0  0  0  0  0  0  0  0  0  0
   50.0840   28.1330   41.5480 O   0  0  0  0  0  0  0  0  0  0  0  0
  1  8  1  0  0  0  0
  1  6  1  0  0  0  0
  2  1  2  0  0  0  0
  3  2  1  0  0  0  0
  3  4  2  0  0  0  0
  4  5  1  0  0  0  0
  5  6  2  0  0  0  0
  5  7  1  0  0  0  0
  7  9  1  0  0  0  0
 10  7  1  0  0  0  0
 11 12  1  0  0  0  0
 11 17  1  1  0  0  0
 11  2  1  0  0  0  0
 12 18  1  0  0  0  0
 13 19  1  0  0  0  0
 13 12  2  0  0  0  0
 14 20  1  6  0  0  0
 14 13  1  0  0  0  0
 15 14  1  0  0  0  0
 15 21  1  0  0  0  0
 15 16  1  0  0  0  0
 16 11  1  0  0  0  0
 22 15  1  0  0  0  0
 23 16  1  0  0  0  0
 24 16  1  0  0  0  0
 25 26  1  0  0  0  0
 25 14  1  0  0  0  0
 27 25  1  0  0  0  0
 28 25  1  0  0  0  0
 29 34  2  0  0  0  0
 29 30  1  0  0  0  0
 30 31  2  0  0  0  0
 31 32  1  0  0  0  0
 32  3  1  0  0  0  0
 33 32  2  0  0  0  0
 34 33  1  0  0  0  0
 35 36  1  0  0  0  0
 36 38  2  0  0  0  0
 36 29  1  0  0  0  0
 37 36  2  0  0  0  0
M  END
>  <minimizedAffinity>
-5.45397043

>  <minimizedRMSD>
0.611384809

$$$$
