
 OpenBabel03232520473D

 42 45  0  0  0  0  0  0  0  0999 V2000
   47.2990   34.2370   42.7860 C   0  0  0  0  0  0  0  0  0  0  0  0
   48.5390   34.7920   42.7540 C   0  0  0  0  0  0  0  0  0  0  0  0
   49.1460   35.2090   41.5730 C   0  0  0  0  0  0  0  0  0  0  0  0
   48.4550   35.0540   40.3640 C   0  0  0  0  0  0  0  0  0  0  0  0
   47.2040   34.4960   40.3870 C   0  0  0  0  0  0  0  0  0  0  0  0
   46.6400   34.0940   41.5940 C   0  0  0  0  0  0  0  0  0  0  0  0
   49.1300   34.9410   43.6560 H   0  0  0  0  0  0  0  0  0  0  0  0
   50.1330   35.6470   41.5710 H   0  0  0  0  0  0  0  0  0  0  0  0
   48.9150   35.3760   39.4270 H   0  0  0  0  0  0  0  0  0  0  0  0
   46.6770   34.3820   39.4390 H   0  0  0  0  0  0  0  0  0  0  0  0
   45.3420   33.5210   41.5790 N   0  0  0  0  0  0  0  0  0  0  0  0
   44.3840   34.4970   41.4900 C   0  0  0  0  0  0  0  0  0  0  0  0
   43.0270   34.1570   41.4610 C   0  0  0  0  0  0  0  0  0  0  0  0
   42.7030   32.8070   41.5250 C   0  0  0  0  0  0  0  0  0  0  0  0
   41.5020   32.4360   41.5040 O   0  0  0  0  0  0  0  0  0  0  0  0
   43.6830   31.8940   41.6120 N   0  0  0  0  0  0  0  0  0  0  0  0
   44.9750   32.2350   41.6390 C   0  0  0  0  0  0  0  0  0  0  0  0
   45.9460   31.4500   41.7180 O   0  0  0  0  0  0  0  0  0  0  0  0
   44.5520   35.5460   41.4370 H   0  0  0  0  0  0  0  0  0  0  0  0
   43.4860   30.8750   41.6630 H   0  0  0  0  0  0  0  0  0  0  0  0
   41.9520   35.1780   41.3650 C   0  0  0  0  0  0  0  0  0  0  0  0
   42.3120   36.1150   41.8400 H   0  0  0  0  0  0  0  0  0  0  0  0
   41.6130   35.3810   40.3410 H   0  0  0  0  0  0  0  0  0  0  0  0
   41.1250   34.8300   42.0480 H   0  0  0  0  0  0  0  0  0  0  0  0
   45.2840   34.0190   45.9580 C   0  0  0  0  0  0  0  0  0  0  0  0
   45.7230   34.4990   44.7260 C   0  0  0  0  0  0  0  0  0  0  0  0
   46.7550   33.8350   44.0690 C   0  0  0  0  0  0  0  0  0  0  0  0
   47.2760   32.7510   44.6680 N   0  0  0  0  0  0  0  0  0  0  0  0
   46.8300   32.3060   45.8630 C   0  0  0  0  0  0  0  0  0  0  0  0
   45.8410   32.9390   46.4990 N   0  0  0  0  0  0  0  0  0  0  0  0
   44.4940   34.5420   46.4440 H   0  0  0  0  0  0  0  0  0  0  0  0
   45.3260   35.3610   44.2270 H   0  0  0  0  0  0  0  0  0  0  0  0
   48.6070   28.9190   47.6720 C   0  0  0  0  0  0  0  0  0  0  0  0
   48.3460   30.0370   48.4200 C   0  0  0  0  0  3  0  0  0  0  0  0
   47.7710   31.1110   47.7940 C   0  0  0  0  0  3  0  0  0  0  0  0
   47.4420   31.1200   46.4560 C   0  0  0  0  0  0  0  0  0  0  0  0
   47.7020   30.0000   45.7010 C   0  0  0  0  0  3  0  0  0  0  0  0
   48.2850   28.9060   46.3220 C   0  0  0  0  0  3  0  0  0  0  0  0
   48.2970   26.7770   48.9660 H   0  0  0  0  0  0  0  0  0  0  0  0
   49.3440   27.5690   48.5080 S   0  0  0  0  0  0  0  0  0  0  0  0
   50.2950   26.8210   47.6420 O   0  0  0  0  0  0  0  0  0  0  0  0
   50.0280   28.0440   49.7810 O   0  0  0  0  0  0  0  0  0  0  0  0
  1 27  1  0  0  0  0
  2  1  1  0  0  0  0
  2  7  1  0  0  0  0
  3  2  2  0  0  0  0
  4  5  2  0  0  0  0
  4  3  1  0  0  0  0
  5  6  1  0  0  0  0
  6  1  2  0  0  0  0
  8  3  1  0  0  0  0
  9  4  1  0  0  0  0
 10  5  1  0  0  0  0
 11  6  1  0  0  0  0
 11 17  1  0  0  0  0
 12 11  1  0  0  0  0
 13 12  2  0  0  0  0
 13 14  1  0  0  0  0
 14 16  1  0  0  0  0
 15 14  2  0  0  0  0
 16 17  1  0  0  0  0
 16 20  1  0  0  0  0
 17 18  2  0  0  0  0
 19 12  1  0  0  0  0
 21 13  1  0  0  0  0
 21 22  1  0  0  0  0
 21 24  1  0  0  0  0
 23 21  1  0  0  0  0
 25 31  1  0  0  0  0
 25 30  1  0  0  0  0
 26 25  2  0  0  0  0
 27 28  2  0  0  0  0
 27 26  1  0  0  0  0
 28 29  1  0  0  0  0
 29 36  1  0  0  0  0
 29 30  2  0  0  0  0
 32 26  1  0  0  0  0
 33 34  1  0  0  0  0
 33 40  1  0  0  0  0
 35 34  2  0  0  0  0
 36 35  1  0  0  0  0
 37 38  1  0  0  0  0
 37 36  2  0  0  0  0
 38 33  2  0  0  0  0
 40 39  1  0  0  0  0
 40 42  2  0  0  0  0
 41 40  2  0  0  0  0
M  END
>  <minimizedAffinity>
-6.21455288

>  <minimizedRMSD>
2.36678791

$$$$
