
 OpenBabel03232520483D

 42 45  0  0  0  0  0  0  0  0999 V2000
   47.2690   34.1550   42.8190 C   0  0  0  0  0  0  0  0  0  0  0  0
   48.5380   34.6400   42.8300 C   0  0  0  0  0  0  0  0  0  0  0  0
   49.1980   35.0450   41.6730 C   0  0  0  0  0  0  0  0  0  0  0  0
   48.5310   34.9510   40.4440 C   0  0  0  0  0  0  0  0  0  0  0  0
   47.2510   34.4630   40.4240 C   0  0  0  0  0  0  0  0  0  0  0  0
   46.6340   34.0720   41.6080 C   0  0  0  0  0  0  0  0  0  0  0  0
   49.1130   34.7390   43.7490 H   0  0  0  0  0  0  0  0  0  0  0  0
   50.2080   35.4270   41.7040 H   0  0  0  0  0  0  0  0  0  0  0  0
   49.0330   35.2640   39.5250 H   0  0  0  0  0  0  0  0  0  0  0  0
   46.7440   34.3960   39.4610 H   0  0  0  0  0  0  0  0  0  0  0  0
   45.3080   33.5720   41.5500 N   0  0  0  0  0  0  0  0  0  0  0  0
   44.4060   34.6030   41.4990 C   0  0  0  0  0  0  0  0  0  0  0  0
   43.0330   34.3400   41.4370 C   0  0  0  0  0  0  0  0  0  0  0  0
   42.6350   33.0080   41.4290 C   0  0  0  0  0  0  0  0  0  0  0  0
   41.4160   32.7050   41.3750 O   0  0  0  0  0  0  0  0  0  0  0  0
   43.5620   32.0390   41.4810 N   0  0  0  0  0  0  0  0  0  0  0  0
   44.8700   32.3070   41.5410 C   0  0  0  0  0  0  0  0  0  0  0  0
   45.7960   31.4670   41.5910 O   0  0  0  0  0  0  0  0  0  0  0  0
   44.6320   35.6430   41.5010 H   0  0  0  0  0  0  0  0  0  0  0  0
   43.3090   31.0310   41.4780 H   0  0  0  0  0  0  0  0  0  0  0  0
   42.0160   35.4220   41.3800 C   0  0  0  0  0  0  0  0  0  0  0  0
   42.4200   36.3130   41.9060 H   0  0  0  0  0  0  0  0  0  0  0  0
   41.7040   35.6940   40.3630 H   0  0  0  0  0  0  0  0  0  0  0  0
   41.1620   35.0870   42.0350 H   0  0  0  0  0  0  0  0  0  0  0  0
   45.2910   34.0710   46.0210 C   0  0  0  0  0  0  0  0  0  0  0  0
   45.8040   34.5590   44.8210 C   0  0  0  0  0  0  0  0  0  0  0  0
   46.6700   33.7600   44.0800 C   0  0  0  0  0  0  0  0  0  0  0  0
   46.9660   32.5450   44.5710 N   0  0  0  0  0  0  0  0  0  0  0  0
   46.4530   32.0960   45.7370 C   0  0  0  0  0  0  0  0  0  0  0  0
   45.6220   32.8580   46.4530 N   0  0  0  0  0  0  0  0  0  0  0  0
   44.6310   34.6990   46.5720 H   0  0  0  0  0  0  0  0  0  0  0  0
   45.5850   35.5240   44.4070 H   0  0  0  0  0  0  0  0  0  0  0  0
   47.5800   28.2770   47.1700 C   0  0  0  0  0  0  0  0  0  0  0  0
   48.2060   29.4000   47.6460 C   0  0  0  0  0  3  0  0  0  0  0  0
   47.8100   30.6160   47.1560 C   0  0  0  0  0  3  0  0  0  0  0  0
   46.8180   30.7640   46.2110 C   0  0  0  0  0  0  0  0  0  0  0  0
   46.1860   29.6400   45.7290 C   0  0  0  0  0  3  0  0  0  0  0  0
   46.5780   28.4010   46.2190 C   0  0  0  0  0  3  0  0  0  0  0  0
   47.0820   26.2830   48.6300 H   0  0  0  0  0  0  0  0  0  0  0  0
   48.1150   26.7440   47.8230 S   0  0  0  0  0  0  0  0  0  0  0  0
   48.4870   25.7770   46.7560 O   0  0  0  0  0  0  0  0  0  0  0  0
   49.2690   26.9550   48.7920 O   0  0  0  0  0  0  0  0  0  0  0  0
  1  2  1  0  0  0  0
  1 27  1  0  0  0  0
  2  7  1  0  0  0  0
  3  8  1  0  0  0  0
  3  2  2  0  0  0  0
  4  3  1  0  0  0  0
  5  4  2  0  0  0  0
  5  6  1  0  0  0  0
  6  1  2  0  0  0  0
  9  4  1  0  0  0  0
 10  5  1  0  0  0  0
 11  6  1  0  0  0  0
 12 19  1  0  0  0  0
 12 11  1  0  0  0  0
 13 12  2  0  0  0  0
 14 13  1  0  0  0  0
 14 16  1  0  0  0  0
 15 14  2  0  0  0  0
 16 17  1  0  0  0  0
 17 11  1  0  0  0  0
 17 18  2  0  0  0  0
 20 16  1  0  0  0  0
 21 13  1  0  0  0  0
 21 22  1  0  0  0  0
 21 24  1  0  0  0  0
 23 21  1  0  0  0  0
 25 30  1  0  0  0  0
 25 31  1  0  0  0  0
 26 25  2  0  0  0  0
 27 28  2  0  0  0  0
 27 26  1  0  0  0  0
 28 29  1  0  0  0  0
 29 36  1  0  0  0  0
 29 30  2  0  0  0  0
 32 26  1  0  0  0  0
 33 34  1  0  0  0  0
 33 40  1  0  0  0  0
 35 34  2  0  0  0  0
 36 35  1  0  0  0  0
 37 36  2  0  0  0  0
 37 38  1  0  0  0  0
 38 33  2  0  0  0  0
 40 39  1  0  0  0  0
 40 42  2  0  0  0  0
 41 40  2  0  0  0  0
M  END
>  <minimizedAffinity>
-5.91986084

>  <minimizedRMSD>
2.32988143

$$$$
