
 OpenBabel03232520583D

 38 40  0  0  1  0  0  0  0  0999 V2000
   45.3050   32.8690   47.5340 C   0  0  0  0  0  0  0  0  0  0  0  0
   45.8930   32.6280   46.3260 C   0  0  0  0  0  0  0  0  0  0  0  0
   46.2130   31.2850   46.0820 C   0  0  0  0  0  0  0  0  0  0  0  0
   45.9600   30.3030   46.9620 N   0  0  0  0  0  0  0  0  0  0  0  0
   45.3630   30.5930   48.1710 C   0  0  0  0  0  0  0  0  0  0  0  0
   45.0510   31.8560   48.4330 N   0  0  0  0  0  0  0  0  0  0  0  0
   45.1020   29.5710   49.1220 N   0  0  0  0  0  0  0  0  0  0  0  0
   45.0270   33.8720   47.8100 H   0  0  0  0  0  0  0  0  0  0  0  0
   45.9770   29.6980   49.7040 H   0  0  0  0  0  0  0  0  0  0  0  0
   44.1850   29.2610   48.7160 H   0  0  0  0  0  0  0  0  0  0  0  0
   46.1160   33.5980   45.3040 C   0  0  2  0  0  0  0  0  0  0  0  0
   44.9750   34.6910   45.5240 C   0  0  0  0  0  0  0  0  0  0  0  0
   44.7410   35.6150   44.4450 C   0  0  0  0  0  0  0  0  0  0  0  0
   45.5040   35.5360   43.2220 C   0  0  1  0  0  0  0  0  0  0  0  0
   46.5880   34.5270   43.1790 C   0  0  0  0  0  0  0  0  0  0  0  0
   46.0980   33.2900   43.9170 C   0  0  0  0  0  0  0  0  0  0  0  0
   46.9480   34.3020   45.6160 H   0  0  0  0  0  0  0  0  0  0  0  0
   44.2890   34.9360   46.3140 H   0  0  0  0  0  0  0  0  0  0  0  0
   44.0100   36.3740   44.4910 H   0  0  0  0  0  0  0  0  0  0  0  0
   45.9360   36.5310   42.9790 H   0  0  0  0  0  0  0  0  0  0  0  0
   47.4550   34.9120   43.7570 H   0  0  0  0  0  0  0  0  0  0  0  0
   46.9180   34.3360   42.1600 H   0  0  0  0  0  0  0  0  0  0  0  0
   44.9820   33.2490   43.5990 H   0  0  0  0  0  0  0  0  0  0  0  0
   46.5270   32.4890   43.3890 H   0  0  0  0  0  0  0  0  0  0  0  0
   44.5110   35.2590   42.0650 C   0  0  0  0  0  0  0  0  0  0  0  0
   43.4610   34.4480   42.4420 F   0  0  0  0  0  0  0  0  0  0  0  0
   43.9560   36.4900   41.7250 F   0  0  0  0  0  0  0  0  0  0  0  0
   45.1980   34.8090   40.9510 F   0  0  0  0  0  0  0  0  0  0  0  0
   48.0440   29.4650   42.6930 C   0  0  0  0  0  0  0  0  0  0  0  0
   48.8270   30.0650   43.6480 C   0  0  0  0  0  3  0  0  0  0  0  0
   48.2610   30.6330   44.7690 C   0  0  0  0  0  3  0  0  0  0  0  0
   46.8930   30.6210   44.9760 C   0  0  0  0  0  0  0  0  0  0  0  0
   46.1640   29.9850   43.9470 C   0  0  0  0  0  3  0  0  0  0  0  0
   46.6730   29.4020   42.8080 C   0  0  0  0  0  3  0  0  0  0  0  0
   47.9070   27.7760   40.7360 H   0  0  0  0  0  0  0  0  0  0  0  0
   48.7460   28.7290   41.2480 S   0  0  0  0  0  0  0  0  0  0  0  0
   48.9130   29.8220   40.2440 O   0  0  0  0  0  0  0  0  0  0  0  0
   50.0380   28.0610   41.5780 O   0  0  0  0  0  0  0  0  0  0  0  0
  1  8  1  0  0  0  0
  1  6  1  0  0  0  0
  2  1  2  0  0  0  0
  3  2  1  0  0  0  0
  3  4  2  0  0  0  0
  4  5  1  0  0  0  0
  5  6  2  0  0  0  0
  5  7  1  0  0  0  0
  7  9  1  0  0  0  0
 10  7  1  0  0  0  0
 11 12  1  0  0  0  0
 11 17  1  1  0  0  0
 11  2  1  0  0  0  0
 12 18  1  0  0  0  0
 13 19  1  0  0  0  0
 13 12  2  0  0  0  0
 14 20  1  6  0  0  0
 14 13  1  0  0  0  0
 15 14  1  0  0  0  0
 15 21  1  0  0  0  0
 15 16  1  0  0  0  0
 16 11  1  0  0  0  0
 22 15  1  0  0  0  0
 23 16  1  0  0  0  0
 24 16  1  0  0  0  0
 25 26  1  0  0  0  0
 25 14  1  0  0  0  0
 27 25  1  0  0  0  0
 28 25  1  0  0  0  0
 29 34  2  0  0  0  0
 29 30  1  0  0  0  0
 30 31  2  0  0  0  0
 31 32  1  0  0  0  0
 32  3  1  0  0  0  0
 33 32  2  0  0  0  0
 34 33  1  0  0  0  0
 35 36  1  0  0  0  0
 36 38  2  0  0  0  0
 36 29  1  0  0  0  0
 37 36  2  0  0  0  0
M  END
>  <minimizedAffinity>
-5.45366383

>  <minimizedRMSD>
0.179831162

$$$$
