
 OpenBabel03232520303D

 46 50  0  0  1  0  0  0  0  0999 V2000
   47.0350   34.5490   41.3250 C   0  0  0  0  0  0  0  0  0  0  0  0
   48.3180   34.9890   41.0290 C   0  0  0  0  0  0  0  0  0  0  0  0
   48.6100   34.7250   39.7540 N   0  0  0  0  0  0  0  0  0  0  0  0
   47.5350   34.1220   39.2220 C   0  0  0  0  0  0  0  0  0  0  0  0
   47.3090   33.6410   37.9330 C   0  0  0  0  0  0  0  0  0  0  0  0
   46.1130   33.0590   37.6370 C   0  0  0  0  0  0  0  0  0  0  0  0
   45.0680   32.9020   38.5430 C   0  0  0  0  0  0  0  0  0  0  0  0
   45.3350   33.3930   39.8110 C   0  0  0  0  0  0  0  0  0  0  0  0
   46.5130   33.9890   40.1780 C   0  0  0  0  0  0  0  0  0  0  0  0
   49.4900   34.9200   39.1940 H   0  0  0  0  0  0  0  0  0  0  0  0
   48.0710   33.7230   37.1630 H   0  0  0  0  0  0  0  0  0  0  0  0
   45.9450   32.6880   36.6330 H   0  0  0  0  0  0  0  0  0  0  0  0
   44.1280   32.4360   38.2840 H   0  0  0  0  0  0  0  0  0  0  0  0
   44.5790   33.3130   40.5800 H   0  0  0  0  0  0  0  0  0  0  0  0
   44.8020   35.8160   44.0330 C   0  0  0  0  0  0  0  0  0  0  0  0
   45.4760   35.7260   42.7990 C   0  0  0  0  0  0  0  0  0  0  0  0
   46.3340   34.6460   42.6040 C   0  0  0  0  0  0  0  0  0  0  0  0
   46.5020   33.7110   43.6030 N   0  0  0  0  0  0  0  0  0  0  0  0
   45.8190   33.8610   44.7680 C   0  0  0  0  0  0  0  0  0  0  0  0
   44.9850   34.8840   44.9940 N   0  0  0  0  0  0  0  0  0  0  0  0
   44.1300   36.6480   44.2050 H   0  0  0  0  0  0  0  0  0  0  0  0
   45.3560   36.4460   42.0120 H   0  0  0  0  0  0  0  0  0  0  0  0
   46.0330   33.0570   45.4840 H   0  0  0  0  0  0  0  0  0  0  0  0
   49.2090   35.6480   42.0020 C   0  0  0  0  0  0  0  0  0  0  0  0
   48.6810   36.2410   42.7700 H   0  0  0  0  0  0  0  0  0  0  0  0
   49.8640   36.3640   41.4540 H   0  0  0  0  0  0  0  0  0  0  0  0
   50.0950   34.6480   42.7060 C   0  0  0  0  0  0  0  0  0  0  0  0
   51.0540   35.1340   42.9910 H   0  0  0  0  0  0  0  0  0  0  0  0
   49.6010   34.3960   43.6680 H   0  0  0  0  0  0  0  0  0  0  0  0
   50.4370   33.4360   41.8820 C   0  0  1  0  0  0  0  0  0  0  0  0
   50.9810   32.2260   42.4800 C   0  0  0  0  0  0  0  0  0  0  0  0
   49.5220   32.2340   42.1800 C   0  0  2  0  0  0  0  0  0  0  0  0
   50.5840   33.6340   40.8040 H   0  0  0  0  0  0  0  0  0  0  0  0
   51.2950   32.3020   43.5400 H   0  0  0  0  0  0  0  0  0  0  0  0
   51.5990   31.5320   41.8830 H   0  0  0  0  0  0  0  0  0  0  0  0
   48.8540   32.2900   43.0670 H   0  0  0  0  0  0  0  0  0  0  0  0
   48.2320   29.9140   38.9330 C   0  0  0  0  0  0  0  0  0  0  0  0
   49.4730   30.5430   38.8410 C   0  0  0  0  0  0  0  0  0  0  0  0
   49.8700   31.2990   39.9260 C   0  0  0  0  0  0  0  0  0  0  0  0
   49.0520   31.4080   41.0340 C   0  0  0  0  0  0  0  0  0  0  0  0
   47.8220   30.7870   41.1260 C   0  0  0  0  0  0  0  0  0  0  0  0
   47.4070   30.0170   40.0340 C   0  0  0  0  0  0  0  0  0  0  0  0
   48.9800   28.3970   37.0560 H   0  0  0  0  0  0  0  0  0  0  0  0
   47.8220   28.9750   37.4930 S   0  0  0  0  0  0  0  0  0  0  0  0
   46.7680   27.9820   37.8060 O   0  0  0  0  0  0  0  0  0  0  0  0
   47.4070   29.9410   36.3950 O   0  0  0  0  0  0  0  0  0  0  0  0
  1 17  1  0  0  0  0
  2  1  2  0  0  0  0
  2 24  1  0  0  0  0
  3  2  1  0  0  0  0
  4  3  1  0  0  0  0
  4  9  1  0  0  0  0
  5  4  2  0  0  0  0
  6  5  1  0  0  0  0
  6  7  2  0  0  0  0
  7  8  1  0  0  0  0
  8  9  2  0  0  0  0
  8 14  1  0  0  0  0
  9  1  1  0  0  0  0
 10  3  1  0  0  0  0
 11  5  1  0  0  0  0
 12  6  1  0  0  0  0
 13  7  1  0  0  0  0
 15 21  1  0  0  0  0
 15 20  1  0  0  0  0
 16 15  2  0  0  0  0
 17 16  1  0  0  0  0
 17 18  2  0  0  0  0
 18 19  1  0  0  0  0
 19 20  2  0  0  0  0
 19 23  1  0  0  0  0
 22 16  1  0  0  0  0
 24 27  1  0  0  0  0
 24 25  1  0  0  0  0
 26 24  1  0  0  0  0
 27 28  1  0  0  0  0
 27 29  1  0  0  0  0
 30 33  1  6  0  0  0
 30 32  1  0  0  0  0
 30 31  1  0  0  0  0
 30 27  1  0  0  0  0
 31 34  1  0  0  0  0
 32 31  1  0  0  0  0
 32 36  1  1  0  0  0
 35 31  1  0  0  0  0
 37 42  1  0  0  0  0
 38 37  2  0  0  0  0
 38 39  1  0  0  0  0
 39 40  2  0  0  0  0
 40 41  1  0  0  0  0
 40 32  1  0  0  0  0
 42 41  2  0  0  0  0
 43 44  1  0  0  0  0
 44 45  2  0  0  0  0
 44 37  1  0  0  0  0
 46 44  2  0  0  0  0
M  END
>  <minimizedAffinity>
-5.67114258

>  <minimizedRMSD>
1.16080511

$$$$
