
 OpenBabel03232520573D

 38 40  0  0  1  0  0  0  0  0999 V2000
   45.3600   32.8700   47.5910 C   0  0  0  0  0  0  0  0  0  0  0  0
   45.8940   32.6090   46.3630 C   0  0  0  0  0  0  0  0  0  0  0  0
   46.1470   31.2540   46.1050 C   0  0  0  0  0  0  0  0  0  0  0  0
   45.8830   30.2810   46.9910 N   0  0  0  0  0  0  0  0  0  0  0  0
   45.3420   30.5910   48.2210 C   0  0  0  0  0  0  0  0  0  0  0  0
   45.0940   31.8660   48.4960 N   0  0  0  0  0  0  0  0  0  0  0  0
   45.0710   29.5780   49.1780 N   0  0  0  0  0  0  0  0  0  0  0  0
   45.1360   33.8830   47.8800 H   0  0  0  0  0  0  0  0  0  0  0  0
   45.9710   29.6650   49.7290 H   0  0  0  0  0  0  0  0  0  0  0  0
   44.1280   29.3090   48.8040 H   0  0  0  0  0  0  0  0  0  0  0  0
   46.1230   33.5720   45.3360 C   0  0  2  0  0  0  0  0  0  0  0  0
   44.9760   34.6630   45.5390 C   0  0  0  0  0  0  0  0  0  0  0  0
   44.7480   35.5790   44.4510 C   0  0  0  0  0  0  0  0  0  0  0  0
   45.5210   35.4930   43.2350 C   0  0  1  0  0  0  0  0  0  0  0  0
   46.6090   34.4870   43.2080 C   0  0  0  0  0  0  0  0  0  0  0  0
   46.1160   33.2540   43.9510 C   0  0  0  0  0  0  0  0  0  0  0  0
   46.9500   34.2800   45.6500 H   0  0  0  0  0  0  0  0  0  0  0  0
   44.2830   34.9110   46.3210 H   0  0  0  0  0  0  0  0  0  0  0  0
   44.0140   36.3350   44.4860 H   0  0  0  0  0  0  0  0  0  0  0  0
   45.9530   36.4880   42.9890 H   0  0  0  0  0  0  0  0  0  0  0  0
   47.4700   34.8790   43.7900 H   0  0  0  0  0  0  0  0  0  0  0  0
   46.9470   34.2900   42.1940 H   0  0  0  0  0  0  0  0  0  0  0  0
   45.0030   33.2070   43.6240 H   0  0  0  0  0  0  0  0  0  0  0  0
   46.5520   32.4500   43.4320 H   0  0  0  0  0  0  0  0  0  0  0  0
   44.5390   35.2040   42.0720 C   0  0  0  0  0  0  0  0  0  0  0  0
   43.5060   34.3680   42.4380 F   0  0  0  0  0  0  0  0  0  0  0  0
   43.9570   36.4270   41.7410 F   0  0  0  0  0  0  0  0  0  0  0  0
   45.2390   34.7800   40.9570 F   0  0  0  0  0  0  0  0  0  0  0  0
   48.0870   29.1280   42.9630 C   0  0  0  0  0  0  0  0  0  0  0  0
   46.7160   29.1350   43.0320 C   0  0  0  0  0  0  0  0  0  0  0  0
   46.0640   29.8410   44.0210 C   0  0  0  0  0  0  0  0  0  0  0  0
   46.7580   30.5660   44.9740 C   0  0  0  0  0  0  0  0  0  0  0  0
   48.1620   30.5040   44.8270 C   0  0  0  0  0  0  0  0  0  0  0  0
   48.8680   29.8190   43.8650 C   0  0  0  0  0  0  0  0  0  0  0  0
   48.9420   26.8900   41.9830 H   0  0  0  0  0  0  0  0  0  0  0  0
   48.9460   28.2310   41.7060 S   0  0  0  0  0  0  0  0  0  0  0  0
   48.2110   28.4670   40.4270 O   0  0  0  0  0  0  0  0  0  0  0  0
   50.3680   28.6710   41.6320 O   0  0  0  0  0  0  0  0  0  0  0  0
  1  8  1  0  0  0  0
  1  6  1  0  0  0  0
  2  1  2  0  0  0  0
  3  2  1  0  0  0  0
  3  4  2  0  0  0  0
  4  5  1  0  0  0  0
  5  6  2  0  0  0  0
  5  7  1  0  0  0  0
  7  9  1  0  0  0  0
 10  7  1  0  0  0  0
 11 12  1  0  0  0  0
 11 17  1  1  0  0  0
 11  2  1  0  0  0  0
 12 18  1  0  0  0  0
 13 19  1  0  0  0  0
 13 12  2  0  0  0  0
 14 20  1  6  0  0  0
 14 13  1  0  0  0  0
 15 14  1  0  0  0  0
 15 21  1  0  0  0  0
 15 16  1  0  0  0  0
 16 11  1  0  0  0  0
 22 15  1  0  0  0  0
 23 16  1  0  0  0  0
 24 16  1  0  0  0  0
 25 26  1  0  0  0  0
 25 14  1  0  0  0  0
 27 25  1  0  0  0  0
 28 25  1  0  0  0  0
 29 30  2  0  0  0  0
 29 34  1  0  0  0  0
 30 31  1  0  0  0  0
 31 32  2  0  0  0  0
 32  3  1  0  0  0  0
 33 32  1  0  0  0  0
 34 33  2  0  0  0  0
 36 35  1  0  0  0  0
 36 29  1  0  0  0  0
 37 36  2  0  0  0  0
 38 36  2  0  0  0  0
M  END
>  <minimizedAffinity>
-5.48417902

>  <minimizedRMSD>
0.981702268

$$$$
