
 OpenBabel03232515253D

 48 52  0  0  0  0  0  0  0  0999 V2000
   47.8840   30.9970   48.2140 C   0  0  0  0  0  0  0  0  0  0  0  0
   48.7450   31.4330   49.1740 C   0  0  0  0  0  0  0  0  0  0  0  0
   49.7180   30.6140   49.6820 C   0  0  0  0  0  0  0  0  0  0  0  0
   49.8210   29.3120   49.2000 C   0  0  0  0  0  0  0  0  0  0  0  0
   48.9650   28.8800   48.2450 C   0  0  0  0  0  0  0  0  0  0  0  0
   47.9860   29.7090   47.7360 C   0  0  0  0  0  0  0  0  0  0  0  0
   48.7110   32.4330   49.5840 H   0  0  0  0  0  0  0  0  0  0  0  0
   50.4120   30.9350   50.4440 H   0  0  0  0  0  0  0  0  0  0  0  0
   50.5890   28.6870   49.6110 H   0  0  0  0  0  0  0  0  0  0  0  0
   44.4580   36.0280   44.4630 C   0  0  0  0  0  0  0  0  0  0  0  0
   45.1460   35.8530   43.2620 C   0  0  0  0  0  0  0  0  0  0  0  0
   46.0640   34.8200   43.1470 C   0  0  0  0  0  0  0  0  0  0  0  0
   46.2640   34.0100   44.2140 N   0  0  0  0  0  0  0  0  0  0  0  0
   45.5800   34.2010   45.3770 C   0  0  0  0  0  0  0  0  0  0  0  0
   44.6720   35.2000   45.5280 N   0  0  0  0  0  0  0  0  0  0  0  0
   45.7780   33.3560   46.5100 N   0  0  0  0  0  0  0  0  0  0  0  0
   46.9220   32.6440   46.5460 C   0  0  0  0  0  0  0  0  0  0  0  0
   46.8790   31.9170   47.7210 C   0  0  0  0  0  0  0  0  0  0  0  0
   45.7240   32.2000   48.3610 N   0  0  0  0  0  0  0  0  0  0  0  0
   45.0500   33.0700   47.6360 C   0  0  0  0  0  0  0  0  0  0  0  0
   43.7380   36.8440   44.5400 H   0  0  0  0  0  0  0  0  0  0  0  0
   44.9850   36.5050   42.4070 H   0  0  0  0  0  0  0  0  0  0  0  0
   46.6380   34.6160   42.2570 H   0  0  0  0  0  0  0  0  0  0  0  0
   47.7680   32.5730   45.8670 H   0  0  0  0  0  0  0  0  0  0  0  0
   44.0870   33.5650   47.7660 H   0  0  0  0  0  0  0  0  0  0  0  0
   47.0890   29.2470   46.7330 N   0  0  0  0  0  0  0  0  0  0  0  0
   47.3250   29.1310   45.7250 H   0  0  0  0  0  0  0  0  0  0  0  0
   46.1790   29.0650   47.2450 H   0  0  0  0  0  0  0  0  0  0  0  0
   49.0600   27.5100   47.7190 C   0  0  0  0  0  0  0  0  0  0  0  0
   48.2550   26.5970   48.0770 O   0  0  0  0  0  0  0  0  0  0  0  0
   50.1240   27.1790   46.7390 C   0  0  0  0  0  0  0  0  0  0  0  0
   51.2540   26.4190   47.1560 C   0  0  0  0  0  0  0  0  0  0  0  0
   52.1990   26.2630   45.6130 S   0  0  0  0  0  0  0  0  0  0  0  0
   50.9140   27.2600   44.6270 C   0  0  0  0  0  0  0  0  0  0  0  0
   50.1360   27.4950   45.4760 N   0  0  0  0  0  0  0  0  0  0  0  0
   51.0300   27.5560   43.2480 N   0  0  0  0  0  0  0  0  0  0  0  0
   51.3440   28.4760   42.8180 H   0  0  0  0  0  0  0  0  0  0  0  0
   50.8170   26.8910   42.4840 H   0  0  0  0  0  0  0  0  0  0  0  0
   52.7650   24.8380   50.7810 C   0  0  0  0  0  0  0  0  0  0  0  0
   53.0290   26.1150   50.3720 C   0  0  0  0  0  0  0  0  0  0  0  0
   52.5320   26.6030   49.1790 C   0  0  0  0  0  0  0  0  0  0  0  0
   51.7510   25.8260   48.3530 C   0  0  0  0  0  0  0  0  0  0  0  0
   51.5300   24.5620   48.8280 C   0  0  0  0  0  0  0  0  0  0  0  0
   51.9930   24.0240   49.9970 C   0  0  0  0  0  0  0  0  0  0  0  0
   52.3830   23.5770   52.9510 H   0  0  0  0  0  0  0  0  0  0  0  0
   53.4000   24.2280   52.2930 S   0  0  0  0  0  0  0  0  0  0  0  0
   54.4780   23.2050   52.0680 O   0  0  0  0  0  0  0  0  0  0  0  0
   53.8810   25.3320   53.1970 O   0  0  0  0  0  0  0  0  0  0  0  0
  1  2  1  0  0  0  0
  2  7  1  0  0  0  0
  2  3  2  0  0  0  0
  3  8  1  0  0  0  0
  4  9  1  0  0  0  0
  4  3  1  0  0  0  0
  5  4  2  0  0  0  0
  6  1  2  0  0  0  0
  6  5  1  0  0  0  0
 10 21  1  0  0  0  0
 10 15  1  0  0  0  0
 11 10  2  0  0  0  0
 12 11  1  0  0  0  0
 12 13  2  0  0  0  0
 13 14  1  0  0  0  0
 14 15  2  0  0  0  0
 14 16  1  0  0  0  0
 16 17  1  0  0  0  0
 16 20  1  0  0  0  0
 17 18  2  0  0  0  0
 18  1  1  0  0  0  0
 18 19  1  0  0  0  0
 20 25  1  0  0  0  0
 20 19  2  0  0  0  0
 22 11  1  0  0  0  0
 23 12  1  0  0  0  0
 24 17  1  0  0  0  0
 26 28  1  0  0  0  0
 26  6  1  0  0  0  0
 27 26  1  0  0  0  0
 29 30  2  0  0  0  0
 29  5  1  0  0  0  0
 31 32  2  0  0  0  0
 31 29  1  0  0  0  0
 32 42  1  0  0  0  0
 33 32  1  0  0  0  0
 34 35  2  0  0  0  0
 34 33  1  0  0  0  0
 35 31  1  0  0  0  0
 36 34  1  0  0  0  0
 37 36  1  0  0  0  0
 38 36  1  0  0  0  0
 39 46  1  0  0  0  0
 40 39  1  0  0  0  0
 41 40  2  0  0  0  0
 42 43  2  0  0  0  0
 42 41  1  0  0  0  0
 43 44  1  0  0  0  0
 44 39  2  0  0  0  0
 46 45  1  0  0  0  0
 46 48  2  0  0  0  0
 47 46  2  0  0  0  0
M  END
>  <minimizedAffinity>
-5.93717527

>  <minimizedRMSD>
0.635383844

$$$$
