
 OpenBabel03232520483D

 30 32  0  0  1  0  0  0  0  0999 V2000
   46.1650   32.0150   45.5420 C   0  0  2  0  0  0  0  0  0  0  0  0
   47.1880   31.0760   44.9470 C   0  0  0  0  0  0  0  0  0  0  0  0
   47.9840   31.5720   43.8430 C   0  0  0  0  0  0  0  0  0  0  0  0
   47.7880   32.9320   43.3480 C   0  0  2  0  0  0  0  0  0  0  0  0
   46.6370   33.6800   43.8830 C   0  0  0  0  0  0  0  0  0  0  0  0
   46.5620   33.4480   45.3740 C   0  0  0  0  0  0  0  0  0  0  0  0
   45.2170   31.8390   44.9500 H   0  0  0  0  0  0  0  0  0  0  0  0
   47.4180   30.0720   45.2270 H   0  0  0  0  0  0  0  0  0  0  0  0
   48.7180   30.9180   43.4040 H   0  0  0  0  0  0  0  0  0  0  0  0
   48.7140   33.5020   43.6540 H   0  0  0  0  0  0  0  0  0  0  0  0
   46.7860   34.7530   43.6450 H   0  0  0  0  0  0  0  0  0  0  0  0
   45.6740   33.3030   43.4430 H   0  0  0  0  0  0  0  0  0  0  0  0
   45.7350   34.0590   45.7960 H   0  0  0  0  0  0  0  0  0  0  0  0
   47.5370   33.6850   45.8010 H   0  0  0  0  0  0  0  0  0  0  0  0
   45.3920   30.3080   47.1400 C   0  0  0  0  0  0  0  0  0  0  0  0
   45.8470   31.6070   46.9130 C   0  0  0  0  0  0  0  0  0  0  0  0
   45.9560   32.4700   48.0140 C   0  0  0  0  0  0  0  0  0  0  0  0
   45.6120   32.0040   49.2470 N   0  0  0  0  0  0  0  0  0  0  0  0
   45.1740   30.7470   49.4350 C   0  0  0  0  0  0  0  0  0  0  0  0
   45.0640   29.8980   48.3860 N   0  0  0  0  0  0  0  0  0  0  0  0
   45.2660   29.5540   46.3760 H   0  0  0  0  0  0  0  0  0  0  0  0
   46.2990   33.4640   47.8850 H   0  0  0  0  0  0  0  0  0  0  0  0
   44.9380   30.5170   50.4690 H   0  0  0  0  0  0  0  0  0  0  0  0
   47.8420   32.9150   41.8870 N   0  0  0  0  0  0  0  0  0  0  0  0
   46.5610   33.3710   41.3860 C   0  0  0  0  0  0  0  0  0  0  0  0
   46.5870   33.4750   39.8780 C   0  0  0  0  0  0  0  0  0  0  0  0
   47.5830   34.4130   39.4570 N   0  0  0  0  0  0  0  0  0  0  0  0
   48.1470   34.0600   38.6610 H   0  0  0  0  0  0  0  0  0  0  0  0
   48.3720   34.9280   40.5520 C   0  0  0  0  0  0  0  0  0  0  0  0
   48.8810   33.8420   41.4670 C   0  0  0  0  0  0  0  0  0  0  0  0
  1  7  1  6  0  0  0
  1 16  1  0  0  0  0
  2  8  1  0  0  0  0
  2  1  1  0  0  0  0
  3  2  2  0  0  0  0
  4 10  1  1  0  0  0
  4  3  1  0  0  0  0
  4  5  1  0  0  0  0
  5  6  1  0  0  0  0
  6  1  1  0  0  0  0
  6 13  1  0  0  0  0
  6 14  1  0  0  0  0
  9  3  1  0  0  0  0
 11  5  1  0  0  0  0
 12  5  1  0  0  0  0
 15 20  1  0  0  0  0
 16 15  2  0  0  0  0
 16 17  1  0  0  0  0
 17 18  2  0  0  0  0
 18 19  1  0  0  0  0
 19 23  1  0  0  0  0
 20 19  2  0  0  0  0
 21 15  1  0  0  0  0
 22 17  1  0  0  0  0
 24  4  1  0  0  0  0
 25 24  1  0  0  0  0
 26 25  1  0  0  0  0
 27 26  1  0  0  0  0
 27 29  1  0  0  0  0
 28 27  1  0  0  0  0
 29 30  1  0  0  0  0
 30 24  1  0  0  0  0
M  END
>  <minimizedAffinity>
-4.69655848

>  <minimizedRMSD>
4.14353275

$$$$
