
 OpenBabel03232520593D

 39 41  0  0  1  0  0  0  0  0999 V2000
   45.3380   32.9000   47.5100 C   0  0  0  0  0  0  0  0  0  0  0  0
   45.9030   32.6400   46.3050 C   0  0  0  0  0  0  0  0  0  0  0  0
   46.1880   31.2940   46.0680 C   0  0  0  0  0  0  0  0  0  0  0  0
   45.9300   30.3060   46.9600 N   0  0  0  0  0  0  0  0  0  0  0  0
   45.3530   30.6290   48.1790 C   0  0  0  0  0  0  0  0  0  0  0  0
   45.0740   31.9000   48.4220 N   0  0  0  0  0  0  0  0  0  0  0  0
   45.1080   29.6160   49.1450 N   0  0  0  0  0  0  0  0  0  0  0  0
   45.0800   33.9070   47.7980 H   0  0  0  0  0  0  0  0  0  0  0  0
   44.8800   28.6330   48.8490 H   0  0  0  0  0  0  0  0  0  0  0  0
   45.1700   29.9110   50.1590 H   0  0  0  0  0  0  0  0  0  0  0  0
   46.1550   33.5900   45.2770 C   0  0  2  0  0  0  0  0  0  0  0  0
   44.9490   34.6900   45.5050 C   0  0  0  0  0  0  0  0  0  0  0  0
   44.7250   35.6210   44.4360 C   0  0  0  0  0  0  0  0  0  0  0  0
   45.5320   35.5470   43.2130 C   0  0  1  0  0  0  0  0  0  0  0  0
   46.5880   34.5410   43.1670 C   0  0  0  0  0  0  0  0  0  0  0  0
   46.1300   33.3090   43.9130 C   0  0  0  0  0  0  0  0  0  0  0  0
   46.9780   34.2950   45.6150 H   0  0  0  0  0  0  0  0  0  0  0  0
   44.2720   34.8430   46.3370 H   0  0  0  0  0  0  0  0  0  0  0  0
   43.9590   36.3450   44.5460 H   0  0  0  0  0  0  0  0  0  0  0  0
   45.9600   36.5600   43.0270 H   0  0  0  0  0  0  0  0  0  0  0  0
   46.8540   34.3350   42.0960 H   0  0  0  0  0  0  0  0  0  0  0  0
   47.5070   34.8930   43.6880 H   0  0  0  0  0  0  0  0  0  0  0  0
   45.1450   33.0310   43.4850 H   0  0  0  0  0  0  0  0  0  0  0  0
   46.9440   32.6420   43.5660 H   0  0  0  0  0  0  0  0  0  0  0  0
   44.5220   35.2860   42.0560 C   0  0  0  0  0  0  0  0  0  0  0  0
   43.4570   34.4930   42.4490 F   0  0  0  0  0  0  0  0  0  0  0  0
   43.9890   36.5310   41.7200 F   0  0  0  0  0  0  0  0  0  0  0  0
   45.1970   34.8230   40.9450 F   0  0  0  0  0  0  0  0  0  0  0  0
   46.8350   30.5990   44.9690 C   0  0  0  0  0  0  0  0  0  0  0  0
   46.4920   29.8340   43.9010 C   0  0  0  0  0  0  0  0  0  0  0  0
   47.6790   29.4410   43.2550 C   0  0  0  0  0  0  0  0  0  0  0  0
   48.6680   29.9880   43.9610 N   0  0  0  0  0  0  0  0  0  0  0  0
   48.1990   30.6750   44.9760 N   0  0  0  0  0  0  0  0  0  0  0  0
   45.4440   29.6610   43.7320 H   0  0  0  0  0  0  0  0  0  0  0  0
   47.6370   28.8270   42.3820 H   0  0  0  0  0  0  0  0  0  0  0  0
   50.0810   29.8070   43.5990 C   0  0  0  0  0  0  0  0  0  0  0  0
   50.8090   29.4730   44.7090 F   0  0  0  0  0  0  0  0  0  0  0  0
   50.5720   30.8740   42.9020 F   0  0  0  0  0  0  0  0  0  0  0  0
   50.1600   28.7130   42.7250 F   0  0  0  0  0  0  0  0  0  0  0  0
  1  8  1  0  0  0  0
  1  6  1  0  0  0  0
  2  1  2  0  0  0  0
  3  2  1  0  0  0  0
  3  4  2  0  0  0  0
  4  5  1  0  0  0  0
  5  6  2  0  0  0  0
  5  7  1  0  0  0  0
  7 10  1  0  0  0  0
  9  7  1  0  0  0  0
 11 12  1  0  0  0  0
 11 17  1  1  0  0  0
 11  2  1  0  0  0  0
 12 18  1  0  0  0  0
 13 19  1  0  0  0  0
 13 12  2  0  0  0  0
 14 20  1  6  0  0  0
 14 13  1  0  0  0  0
 15 14  1  0  0  0  0
 15 22  1  0  0  0  0
 15 16  1  0  0  0  0
 16 11  1  0  0  0  0
 21 15  1  0  0  0  0
 23 16  1  0  0  0  0
 24 16  1  0  0  0  0
 25 26  1  0  0  0  0
 25 14  1  0  0  0  0
 27 25  1  0  0  0  0
 28 25  1  0  0  0  0
 29 33  2  0  0  0  0
 29  3  1  0  0  0  0
 30 29  1  0  0  0  0
 31 30  2  0  0  0  0
 31 32  1  0  0  0  0
 32 33  1  0  0  0  0
 34 30  1  0  0  0  0
 35 31  1  0  0  0  0
 36 32  1  0  0  0  0
 36 37  1  0  0  0  0
 38 36  1  0  0  0  0
 39 36  1  0  0  0  0
M  END
>  <minimizedAffinity>
-5.64319086

>  <minimizedRMSD>
0.254829139

$$$$
