
 OpenBabel03232520593D

 39 41  0  0  1  0  0  0  0  0999 V2000
   45.3410   32.9000   47.5140 C   0  0  0  0  0  0  0  0  0  0  0  0
   45.9040   32.6390   46.3080 C   0  0  0  0  0  0  0  0  0  0  0  0
   46.1860   31.2920   46.0710 C   0  0  0  0  0  0  0  0  0  0  0  0
   45.9280   30.3050   46.9640 N   0  0  0  0  0  0  0  0  0  0  0  0
   45.3540   30.6300   48.1830 C   0  0  0  0  0  0  0  0  0  0  0  0
   45.0770   31.9000   48.4270 N   0  0  0  0  0  0  0  0  0  0  0  0
   45.1080   29.6170   49.1500 N   0  0  0  0  0  0  0  0  0  0  0  0
   45.0860   33.9080   47.8020 H   0  0  0  0  0  0  0  0  0  0  0  0
   44.8780   28.6340   48.8540 H   0  0  0  0  0  0  0  0  0  0  0  0
   45.1720   29.9120   50.1640 H   0  0  0  0  0  0  0  0  0  0  0  0
   46.1570   33.5890   45.2800 C   0  0  2  0  0  0  0  0  0  0  0  0
   44.9490   34.6870   45.5060 C   0  0  0  0  0  0  0  0  0  0  0  0
   44.7260   35.6180   44.4360 C   0  0  0  0  0  0  0  0  0  0  0  0
   45.5330   35.5430   43.2140 C   0  0  1  0  0  0  0  0  0  0  0  0
   46.5900   34.5380   43.1690 C   0  0  0  0  0  0  0  0  0  0  0  0
   46.1320   33.3060   43.9160 C   0  0  0  0  0  0  0  0  0  0  0  0
   46.9780   34.2940   45.6180 H   0  0  0  0  0  0  0  0  0  0  0  0
   44.2720   34.8410   46.3370 H   0  0  0  0  0  0  0  0  0  0  0  0
   43.9590   36.3410   44.5440 H   0  0  0  0  0  0  0  0  0  0  0  0
   45.9610   36.5570   43.0280 H   0  0  0  0  0  0  0  0  0  0  0  0
   46.8570   34.3320   42.0990 H   0  0  0  0  0  0  0  0  0  0  0  0
   47.5090   34.8920   43.6910 H   0  0  0  0  0  0  0  0  0  0  0  0
   45.1490   33.0280   43.4870 H   0  0  0  0  0  0  0  0  0  0  0  0
   46.9480   32.6400   43.5700 H   0  0  0  0  0  0  0  0  0  0  0  0
   44.5250   35.2810   42.0560 C   0  0  0  0  0  0  0  0  0  0  0  0
   43.4640   34.4820   42.4470 F   0  0  0  0  0  0  0  0  0  0  0  0
   43.9870   36.5240   41.7230 F   0  0  0  0  0  0  0  0  0  0  0  0
   45.2020   34.8230   40.9440 F   0  0  0  0  0  0  0  0  0  0  0  0
   46.8310   30.5960   44.9700 C   0  0  0  0  0  0  0  0  0  0  0  0
   46.4840   29.8270   43.9070 C   0  0  0  0  0  0  0  0  0  0  0  0
   47.6700   29.4360   43.2560 C   0  0  0  0  0  0  0  0  0  0  0  0
   48.6600   29.9880   43.9570 N   0  0  0  0  0  0  0  0  0  0  0  0
   48.1940   30.6760   44.9720 N   0  0  0  0  0  0  0  0  0  0  0  0
   45.4370   29.6510   43.7420 H   0  0  0  0  0  0  0  0  0  0  0  0
   47.6260   28.8200   42.3850 H   0  0  0  0  0  0  0  0  0  0  0  0
   50.0720   29.8090   43.5880 C   0  0  0  0  0  0  0  0  0  0  0  0
   50.8060   29.4730   44.6950 F   0  0  0  0  0  0  0  0  0  0  0  0
   50.5590   30.8800   42.8940 F   0  0  0  0  0  0  0  0  0  0  0  0
   50.1500   28.7200   42.7110 F   0  0  0  0  0  0  0  0  0  0  0  0
  1  8  1  0  0  0  0
  1  6  1  0  0  0  0
  2  1  2  0  0  0  0
  3  2  1  0  0  0  0
  3  4  2  0  0  0  0
  4  5  1  0  0  0  0
  5  6  2  0  0  0  0
  5  7  1  0  0  0  0
  7 10  1  0  0  0  0
  9  7  1  0  0  0  0
 11 12  1  0  0  0  0
 11 17  1  1  0  0  0
 11  2  1  0  0  0  0
 12 18  1  0  0  0  0
 13 19  1  0  0  0  0
 13 12  2  0  0  0  0
 14 20  1  6  0  0  0
 14 13  1  0  0  0  0
 15 14  1  0  0  0  0
 15 22  1  0  0  0  0
 15 16  1  0  0  0  0
 16 11  1  0  0  0  0
 21 15  1  0  0  0  0
 23 16  1  0  0  0  0
 24 16  1  0  0  0  0
 25 26  1  0  0  0  0
 25 14  1  0  0  0  0
 27 25  1  0  0  0  0
 28 25  1  0  0  0  0
 29 33  2  0  0  0  0
 29  3  1  0  0  0  0
 30 29  1  0  0  0  0
 31 30  2  0  0  0  0
 31 32  1  0  0  0  0
 32 33  1  0  0  0  0
 34 30  1  0  0  0  0
 35 31  1  0  0  0  0
 36 32  1  0  0  0  0
 36 37  1  0  0  0  0
 38 36  1  0  0  0  0
 39 36  1  0  0  0  0
M  END
>  <minimizedAffinity>
-5.64953852

>  <minimizedRMSD>
0.376288414

$$$$
