
 OpenBabel03232519473D

 41 44  0  0  1  0  0  0  0  0999 V2000
   46.7660   33.9530   42.7820 N   0  0  0  0  0  0  0  0  0  0  0  0
   48.0770   34.4270   42.3550 C   0  0  0  0  0  0  0  0  0  0  0  0
   47.7670   34.8090   40.9270 C   0  0  0  0  0  0  0  0  0  0  0  0
   47.0530   33.5580   40.4570 C   0  0  0  0  0  0  0  0  0  0  0  0
   46.2170   33.1940   41.6470 C   0  0  2  0  0  0  0  0  0  0  0  0
   48.4050   35.2750   42.9770 H   0  0  0  0  0  0  0  0  0  0  0  0
   48.8100   33.6160   42.3500 H   0  0  0  0  0  0  0  0  0  0  0  0
   47.1000   35.6880   40.9300 H   0  0  0  0  0  0  0  0  0  0  0  0
   48.6860   35.0030   40.3240 H   0  0  0  0  0  0  0  0  0  0  0  0
   46.3440   33.8890   39.6640 H   0  0  0  0  0  0  0  0  0  0  0  0
   47.7770   32.8050   40.1380 H   0  0  0  0  0  0  0  0  0  0  0  0
   46.5050   32.1420   41.8780 H   0  0  0  0  0  0  0  0  0  0  0  0
   44.5800   35.3220   45.4540 C   0  0  0  0  0  0  0  0  0  0  0  0
   45.2000   35.1870   44.2040 C   0  0  0  0  0  0  0  0  0  0  0  0
   46.1110   34.1460   43.9980 C   0  0  0  0  0  0  0  0  0  0  0  0
   46.3410   33.3150   45.0500 N   0  0  0  0  0  0  0  0  0  0  0  0
   45.7420   33.4460   46.2560 C   0  0  0  0  0  0  0  0  0  0  0  0
   44.8620   34.4560   46.4430 N   0  0  0  0  0  0  0  0  0  0  0  0
   43.8740   36.1150   45.6390 H   0  0  0  0  0  0  0  0  0  0  0  0
   44.9900   35.8680   43.3930 H   0  0  0  0  0  0  0  0  0  0  0  0
   46.0410   32.5250   47.3120 N   0  0  0  0  0  0  0  0  0  0  0  0
   47.4230   32.1780   47.5520 C   0  0  0  0  0  0  0  0  0  0  0  0
   47.6610   31.6060   48.9170 C   0  0  0  0  0  0  0  0  0  0  0  0
   46.5820   30.6790   49.2890 N   0  0  0  0  0  0  0  0  0  0  0  0
   46.8310   30.3390   50.2470 H   0  0  0  0  0  0  0  0  0  0  0  0
   45.4160   31.5560   49.4770 C   0  0  0  0  0  0  0  0  0  0  0  0
   44.9770   31.9760   48.0930 C   0  0  0  0  0  0  0  0  0  0  0  0
   44.8120   33.3110   41.4890 N   0  0  0  0  0  0  0  0  0  0  0  0
   44.1430   34.2710   40.8420 C   0  0  0  0  0  0  0  0  0  0  0  0
   42.7600   34.2920   40.7490 C   0  0  0  0  0  0  0  0  0  0  0  0
   42.0280   33.2870   41.3430 C   0  0  0  0  0  0  0  0  0  0  0  0
   40.7440   33.2420   41.2970 O   0  0  0  0  0  0  0  0  0  0  0  0
   42.7050   32.3240   41.9930 N   0  0  0  0  0  0  0  0  0  0  0  0
   44.0320   32.3510   42.0530 C   0  0  0  0  0  0  0  0  0  0  0  0
   44.5780   31.3970   42.6900 O   0  0  0  0  0  0  0  0  0  0  0  0
   44.7400   35.0500   40.3820 H   0  0  0  0  0  0  0  0  0  0  0  0
   42.1390   31.5620   42.4440 H   0  0  0  0  0  0  0  0  0  0  0  0
   42.0390   35.3540   40.0370 C   0  0  0  0  0  0  0  0  0  0  0  0
   41.4120   35.8910   40.8060 H   0  0  0  0  0  0  0  0  0  0  0  0
   42.7090   36.1370   39.6390 H   0  0  0  0  0  0  0  0  0  0  0  0
   41.3180   34.9800   39.2900 H   0  0  0  0  0  0  0  0  0  0  0  0
  1 15  1  0  0  0  0
  2  1  1  0  0  0  0
  2  6  1  0  0  0  0
  3  8  1  0  0  0  0
  3  2  1  0  0  0  0
  4  3  1  0  0  0  0
  4  5  1  0  0  0  0
  5 12  1  1  0  0  0
  5  1  1  0  0  0  0
  7  2  1  0  0  0  0
  9  3  1  0  0  0  0
 10  4  1  0  0  0  0
 11  4  1  0  0  0  0
 13 19  1  0  0  0  0
 13 18  1  0  0  0  0
 14 13  2  0  0  0  0
 15 14  1  0  0  0  0
 15 16  2  0  0  0  0
 16 17  1  0  0  0  0
 17 18  2  0  0  0  0
 17 21  1  0  0  0  0
 20 14  1  0  0  0  0
 21 22  1  0  0  0  0
 21 27  1  0  0  0  0
 22 23  1  0  0  0  0
 23 24  1  0  0  0  0
 24 26  1  0  0  0  0
 24 25  1  0  0  0  0
 27 26  1  0  0  0  0
 28  5  1  0  0  0  0
 28 34  1  0  0  0  0
 29 28  1  0  0  0  0
 30 29  2  0  0  0  0
 30 31  1  0  0  0  0
 31 33  1  0  0  0  0
 32 31  2  0  0  0  0
 33 34  1  0  0  0  0
 33 37  1  0  0  0  0
 34 35  2  0  0  0  0
 36 29  1  0  0  0  0
 38 30  1  0  0  0  0
 38 39  1  0  0  0  0
 40 38  1  0  0  0  0
 41 38  1  0  0  0  0
M  END
>  <minimizedAffinity>
-7.26182556

>  <minimizedRMSD>
0.93922621

$$$$
