
 OpenBabel03232518563D

 44 47  0  0  1  0  0  0  0  0999 V2000
   46.7350   33.2540   45.0700 C   0  0  0  0  0  0  0  0  0  0  0  0
   47.1870   33.7410   45.9430 H   0  0  0  0  0  0  0  0  0  0  0  0
   47.5820   33.1110   44.3440 H   0  0  0  0  0  0  0  0  0  0  0  0
   45.7610   34.1140   44.3550 C   0  0  0  0  0  0  0  0  0  0  0  0
   45.0120   35.0040   45.0710 C   0  0  0  0  0  0  0  0  0  0  0  0
   44.1920   35.6660   44.1840 C   0  0  0  0  0  0  0  0  0  0  0  0
   44.4950   35.1320   42.9750 N   0  0  0  0  0  0  0  0  0  0  0  0
   45.4310   34.2020   43.0510 N   0  0  0  0  0  0  0  0  0  0  0  0
   44.9470   35.2720   46.1280 H   0  0  0  0  0  0  0  0  0  0  0  0
   43.4340   36.4450   44.2810 H   0  0  0  0  0  0  0  0  0  0  0  0
   44.4170   34.7110   40.6020 N   0  0  0  0  0  0  0  0  0  0  0  0
   43.2950   34.2700   39.8140 C   0  0  0  0  0  0  0  0  0  0  0  0
   42.2450   34.0170   40.9030 C   0  0  0  0  0  0  0  0  0  0  0  0
   42.3970   35.2790   41.7280 C   0  0  0  0  0  0  0  0  0  0  0  0
   43.8920   35.5040   41.6950 C   0  0  1  0  0  0  0  0  0  0  0  0
   45.0040   33.9120   40.9450 H   0  0  0  0  0  0  0  0  0  0  0  0
   43.5560   33.3090   39.3020 H   0  0  0  0  0  0  0  0  0  0  0  0
   43.0240   35.0660   39.1250 H   0  0  0  0  0  0  0  0  0  0  0  0
   41.2860   33.9610   40.3780 H   0  0  0  0  0  0  0  0  0  0  0  0
   42.5390   33.0960   41.4490 H   0  0  0  0  0  0  0  0  0  0  0  0
   41.8110   36.0820   41.2740 H   0  0  0  0  0  0  0  0  0  0  0  0
   42.0510   35.0220   42.7650 H   0  0  0  0  0  0  0  0  0  0  0  0
   44.0480   36.5980   41.5650 H   0  0  0  0  0  0  0  0  0  0  0  0
   46.1130   31.9290   45.3090 C   0  0  2  0  0  0  0  0  0  0  0  0
   45.1120   31.8310   44.8210 H   0  0  0  0  0  0  0  0  0  0  0  0
   45.8290   32.2520   48.9700 C   0  0  0  0  0  0  0  0  0  0  0  0
   45.3690   30.9240   49.3180 C   0  0  0  0  0  0  0  0  0  0  0  0
   45.1790   29.9600   48.2720 C   0  0  0  0  0  0  0  0  0  0  0  0
   45.4460   30.3570   46.9930 N   0  0  0  0  0  0  0  0  0  0  0  0
   45.8700   31.6000   46.7190 C   0  0  0  0  0  0  0  0  0  0  0  0
   46.0520   32.5120   47.6920 N   0  0  0  0  0  0  0  0  0  0  0  0
   45.9420   32.9100   49.8170 H   0  0  0  0  0  0  0  0  0  0  0  0
   45.1500   30.5710   50.3240 H   0  0  0  0  0  0  0  0  0  0  0  0
   44.8420   28.9810   48.5360 H   0  0  0  0  0  0  0  0  0  0  0  0
   46.9500   30.8140   44.6490 C   0  0  0  0  0  0  0  0  0  0  0  0
   47.7800   30.5040   45.3530 H   0  0  0  0  0  0  0  0  0  0  0  0
   46.3110   29.9570   44.3890 H   0  0  0  0  0  0  0  0  0  0  0  0
   47.6400   31.3200   43.4480 N   0  0  0  0  0  0  0  0  0  0  0  0
   48.9400   30.6640   43.3780 C   0  0  0  0  0  0  0  0  0  0  0  0
   49.3370   30.3580   41.9560 C   0  0  0  0  0  0  0  0  0  0  0  0
   48.5210   29.2720   41.4450 N   0  0  0  0  0  0  0  0  0  0  0  0
   48.5640   29.2320   40.4120 H   0  0  0  0  0  0  0  0  0  0  0  0
   47.1630   29.3990   41.9670 C   0  0  0  0  0  0  0  0  0  0  0  0
   46.9260   30.8760   42.2530 C   0  0  0  0  0  0  0  0  0  0  0  0
  1 24  1  0  0  0  0
  1  2  1  0  0  0  0
  3  1  1  0  0  0  0
  4  1  1  0  0  0  0
  4  5  1  0  0  0  0
  5  9  1  0  0  0  0
  6 10  1  0  0  0  0
  6  5  2  0  0  0  0
  7  8  1  0  0  0  0
  7  6  1  0  0  0  0
  8  4  2  0  0  0  0
 11 16  1  0  0  0  0
 11 15  1  0  0  0  0
 12 11  1  0  0  0  0
 12 13  1  0  0  0  0
 13 20  1  0  0  0  0
 13 14  1  0  0  0  0
 14 22  1  0  0  0  0
 15 23  1  6  0  0  0
 15 14  1  0  0  0  0
 15  7  1  0  0  0  0
 17 12  1  0  0  0  0
 18 12  1  0  0  0  0
 19 13  1  0  0  0  0
 21 14  1  0  0  0  0
 24 25  1  6  0  0  0
 24 30  1  0  0  0  0
 26 27  1  0  0  0  0
 26 32  1  0  0  0  0
 27 33  1  0  0  0  0
 28 34  1  0  0  0  0
 28 27  2  0  0  0  0
 29 28  1  0  0  0  0
 30 29  2  0  0  0  0
 30 31  1  0  0  0  0
 31 26  2  0  0  0  0
 35 24  1  0  0  0  0
 35 36  1  0  0  0  0
 37 35  1  0  0  0  0
 38 35  1  0  0  0  0
 39 38  1  0  0  0  0
 40 39  1  0  0  0  0
 41 40  1  0  0  0  0
 41 43  1  0  0  0  0
 42 41  1  0  0  0  0
 43 44  1  0  0  0  0
 44 38  1  0  0  0  0
M  END
>  <minimizedAffinity>
-5.07330179

>  <minimizedRMSD>
0.732010841

$$$$
