
 OpenBabel03232520543D

 35 37  0  0  1  0  0  0  0  0999 V2000
   46.0710   33.6400   45.3520 C   0  0  2  0  0  0  0  0  0  0  0  0
   44.9400   34.7010   45.5110 C   0  0  0  0  0  0  0  0  0  0  0  0
   44.7300   35.6020   44.4070 C   0  0  0  0  0  0  0  0  0  0  0  0
   45.5340   35.5090   43.1950 C   0  0  1  0  0  0  0  0  0  0  0  0
   46.6310   34.5330   43.2060 C   0  0  0  0  0  0  0  0  0  0  0  0
   46.2080   33.2980   43.9590 C   0  0  0  0  0  0  0  0  0  0  0  0
   46.9370   34.2870   45.7140 H   0  0  0  0  0  0  0  0  0  0  0  0
   44.2320   34.9390   46.2970 H   0  0  0  0  0  0  0  0  0  0  0  0
   43.9740   36.3500   44.4520 H   0  0  0  0  0  0  0  0  0  0  0  0
   45.9470   36.5240   42.9420 H   0  0  0  0  0  0  0  0  0  0  0  0
   47.6160   34.9190   43.5580 H   0  0  0  0  0  0  0  0  0  0  0  0
   46.8360   34.2060   42.1460 H   0  0  0  0  0  0  0  0  0  0  0  0
   46.9580   32.5530   43.6760 H   0  0  0  0  0  0  0  0  0  0  0  0
   45.2340   32.9930   43.5290 H   0  0  0  0  0  0  0  0  0  0  0  0
   45.3590   32.9250   47.5720 C   0  0  0  0  0  0  0  0  0  0  0  0
   45.8600   32.6320   46.3440 C   0  0  0  0  0  0  0  0  0  0  0  0
   46.1410   31.2840   46.0760 C   0  0  0  0  0  0  0  0  0  0  0  0
   45.9280   30.3350   46.9900 N   0  0  0  0  0  0  0  0  0  0  0  0
   45.4210   30.6550   48.2330 C   0  0  0  0  0  0  0  0  0  0  0  0
   45.1450   31.9280   48.5060 N   0  0  0  0  0  0  0  0  0  0  0  0
   45.2010   29.6340   49.2030 N   0  0  0  0  0  0  0  0  0  0  0  0
   45.1200   33.9110   47.8590 H   0  0  0  0  0  0  0  0  0  0  0  0
   45.9200   28.8590   49.2600 H   0  0  0  0  0  0  0  0  0  0  0  0
   44.3460   29.6760   49.8240 H   0  0  0  0  0  0  0  0  0  0  0  0
   46.5820   30.5570   44.9330 N   0  0  0  0  0  0  0  0  0  0  0  0
   45.7830   29.8980   43.8780 C   0  0  0  0  0  0  0  0  0  0  0  0
   46.7290   29.6710   42.7250 C   0  0  0  0  0  0  0  0  0  0  0  0
   47.6820   28.6240   43.1230 N   0  0  0  0  0  0  0  0  0  0  0  0
   47.0860   27.7500   43.1580 H   0  0  0  0  0  0  0  0  0  0  0  0
   48.2530   28.9390   44.3940 C   0  0  0  0  0  0  0  0  0  0  0  0
   48.0320   30.3950   44.7420 C   0  0  0  0  0  0  0  0  0  0  0  0
   44.5730   35.2050   42.0280 C   0  0  0  0  0  0  0  0  0  0  0  0
   43.5640   34.3250   42.3790 F   0  0  0  0  0  0  0  0  0  0  0  0
   43.9390   36.4050   41.7020 F   0  0  0  0  0  0  0  0  0  0  0  0
   45.2850   34.7940   40.9140 F   0  0  0  0  0  0  0  0  0  0  0  0
  1  2  1  0  0  0  0
  1  7  1  1  0  0  0
  1 16  1  0  0  0  0
  2  8  1  0  0  0  0
  3  9  1  0  0  0  0
  3  2  2  0  0  0  0
  4 10  1  6  0  0  0
  4  5  1  0  0  0  0
  4  3  1  0  0  0  0
  5 11  1  0  0  0  0
  5  6  1  0  0  0  0
  6  1  1  0  0  0  0
 12  5  1  0  0  0  0
 13  6  1  0  0  0  0
 14  6  1  0  0  0  0
 15 22  1  0  0  0  0
 15 20  1  0  0  0  0
 16 15  2  0  0  0  0
 17 16  1  0  0  0  0
 17 18  2  0  0  0  0
 18 19  1  0  0  0  0
 19 20  2  0  0  0  0
 19 21  1  0  0  0  0
 21 23  1  0  0  0  0
 21 24  1  0  0  0  0
 25 17  1  0  0  0  0
 26 25  1  0  0  0  0
 27 28  1  0  0  0  0
 27 26  1  0  0  0  0
 28 29  1  0  0  0  0
 28 30  1  0  0  0  0
 30 31  1  0  0  0  0
 31 25  1  0  0  0  0
 32 33  1  0  0  0  0
 32  4  1  0  0  0  0
 34 32  1  0  0  0  0
 35 32  1  0  0  0  0
M  END
>  <minimizedAffinity>
-5.64215088

>  <minimizedRMSD>
0.521540165

$$$$
