
 OpenBabel03232520593D

 39 41  0  0  1  0  0  0  0  0999 V2000
   45.3550   32.8870   47.5050 C   0  0  0  0  0  0  0  0  0  0  0  0
   45.9100   32.6310   46.2950 C   0  0  0  0  0  0  0  0  0  0  0  0
   46.1870   31.2850   46.0490 C   0  0  0  0  0  0  0  0  0  0  0  0
   45.9300   30.2930   46.9380 N   0  0  0  0  0  0  0  0  0  0  0  0
   45.3640   30.6130   48.1620 C   0  0  0  0  0  0  0  0  0  0  0  0
   45.0920   31.8840   48.4140 N   0  0  0  0  0  0  0  0  0  0  0  0
   45.1200   29.5960   49.1250 N   0  0  0  0  0  0  0  0  0  0  0  0
   45.1050   33.8940   47.8000 H   0  0  0  0  0  0  0  0  0  0  0  0
   44.8850   28.6160   48.8250 H   0  0  0  0  0  0  0  0  0  0  0  0
   45.1900   29.8860   50.1400 H   0  0  0  0  0  0  0  0  0  0  0  0
   46.1610   33.5850   45.2700 C   0  0  2  0  0  0  0  0  0  0  0  0
   44.9530   34.6820   45.5030 C   0  0  0  0  0  0  0  0  0  0  0  0
   44.7270   35.6170   44.4370 C   0  0  0  0  0  0  0  0  0  0  0  0
   45.5320   35.5480   43.2140 C   0  0  1  0  0  0  0  0  0  0  0  0
   46.5900   34.5440   43.1630 C   0  0  0  0  0  0  0  0  0  0  0  0
   46.1340   33.3090   43.9050 C   0  0  0  0  0  0  0  0  0  0  0  0
   46.9820   34.2900   45.6100 H   0  0  0  0  0  0  0  0  0  0  0  0
   44.2760   34.8310   46.3350 H   0  0  0  0  0  0  0  0  0  0  0  0
   43.9590   36.3390   44.5500 H   0  0  0  0  0  0  0  0  0  0  0  0
   45.9580   36.5630   43.0310 H   0  0  0  0  0  0  0  0  0  0  0  0
   46.8550   34.3430   42.0910 H   0  0  0  0  0  0  0  0  0  0  0  0
   47.5090   34.8960   43.6840 H   0  0  0  0  0  0  0  0  0  0  0  0
   45.1500   33.0310   43.4760 H   0  0  0  0  0  0  0  0  0  0  0  0
   46.9500   32.6440   43.5550 H   0  0  0  0  0  0  0  0  0  0  0  0
   44.5220   35.2900   42.0560 C   0  0  0  0  0  0  0  0  0  0  0  0
   43.4550   34.5000   42.4490 F   0  0  0  0  0  0  0  0  0  0  0  0
   43.9930   36.5360   41.7190 F   0  0  0  0  0  0  0  0  0  0  0  0
   45.1960   34.8240   40.9450 F   0  0  0  0  0  0  0  0  0  0  0  0
   46.8230   30.5920   44.9410 C   0  0  0  0  0  0  0  0  0  0  0  0
   46.4690   29.8270   43.8780 C   0  0  0  0  0  0  0  0  0  0  0  0
   47.6490   29.4380   43.2170 C   0  0  0  0  0  0  0  0  0  0  0  0
   48.6450   29.9880   43.9110 N   0  0  0  0  0  0  0  0  0  0  0  0
   48.1860   30.6730   44.9320 N   0  0  0  0  0  0  0  0  0  0  0  0
   45.4200   29.6490   43.7210 H   0  0  0  0  0  0  0  0  0  0  0  0
   47.5990   28.8240   42.3440 H   0  0  0  0  0  0  0  0  0  0  0  0
   50.0540   29.8120   43.5310 C   0  0  0  0  0  0  0  0  0  0  0  0
   50.1550   28.8950   42.5190 F   0  0  0  0  0  0  0  0  0  0  0  0
   50.8470   29.5480   44.6130 F   0  0  0  0  0  0  0  0  0  0  0  0
   50.5120   31.0310   43.0130 F   0  0  0  0  0  0  0  0  0  0  0  0
  1  8  1  0  0  0  0
  1  6  1  0  0  0  0
  2  1  2  0  0  0  0
  3  2  1  0  0  0  0
  3  4  2  0  0  0  0
  4  5  1  0  0  0  0
  5  6  2  0  0  0  0
  5  7  1  0  0  0  0
  7 10  1  0  0  0  0
  9  7  1  0  0  0  0
 11 12  1  0  0  0  0
 11 17  1  1  0  0  0
 11  2  1  0  0  0  0
 12 18  1  0  0  0  0
 13 19  1  0  0  0  0
 13 12  2  0  0  0  0
 14 20  1  6  0  0  0
 14 13  1  0  0  0  0
 15 14  1  0  0  0  0
 15 22  1  0  0  0  0
 15 16  1  0  0  0  0
 16 11  1  0  0  0  0
 21 15  1  0  0  0  0
 23 16  1  0  0  0  0
 24 16  1  0  0  0  0
 25 26  1  0  0  0  0
 25 14  1  0  0  0  0
 27 25  1  0  0  0  0
 28 25  1  0  0  0  0
 29  3  1  0  0  0  0
 30 29  1  0  0  0  0
 31 30  2  0  0  0  0
 31 32  1  0  0  0  0
 32 33  1  0  0  0  0
 33 29  2  0  0  0  0
 34 30  1  0  0  0  0
 35 31  1  0  0  0  0
 36 32  1  0  0  0  0
 36 38  1  0  0  0  0
 37 36  1  0  0  0  0
 39 36  1  0  0  0  0
M  END
>  <minimizedAffinity>
-5.67076445

>  <minimizedRMSD>
0.240304694

$$$$
