
 OpenBabel03232520313D

 40 43  0  0  1  0  0  0  0  0999 V2000
   46.9330   34.5100   41.3180 C   0  0  0  0  0  0  0  0  0  0  0  0
   48.2070   34.9450   40.9440 C   0  0  0  0  0  0  0  0  0  0  0  0
   48.4600   34.6430   39.6900 N   0  0  0  0  0  0  0  0  0  0  0  0
   47.3640   34.0050   39.2120 C   0  0  0  0  0  0  0  0  0  0  0  0
   47.1250   33.4800   37.9350 C   0  0  0  0  0  0  0  0  0  0  0  0
   45.9200   32.8800   37.7160 C   0  0  0  0  0  0  0  0  0  0  0  0
   44.9140   32.7480   38.6520 C   0  0  0  0  0  0  0  0  0  0  0  0
   45.2110   33.2830   39.8790 C   0  0  0  0  0  0  0  0  0  0  0  0
   46.3850   33.9010   40.1970 C   0  0  0  0  0  0  0  0  0  0  0  0
   49.3170   34.8250   39.1070 H   0  0  0  0  0  0  0  0  0  0  0  0
   47.8700   33.5460   37.1490 H   0  0  0  0  0  0  0  0  0  0  0  0
   45.7600   32.4780   36.7100 H   0  0  0  0  0  0  0  0  0  0  0  0
   43.9900   32.2600   38.4000 H   0  0  0  0  0  0  0  0  0  0  0  0
   44.4690   33.2190   40.6700 H   0  0  0  0  0  0  0  0  0  0  0  0
   44.7810   35.8510   44.0430 C   0  0  0  0  0  0  0  0  0  0  0  0
   45.4140   35.7370   42.7880 C   0  0  0  0  0  0  0  0  0  0  0  0
   46.2710   34.6440   42.6030 C   0  0  0  0  0  0  0  0  0  0  0  0
   46.4590   33.7480   43.6190 N   0  0  0  0  0  0  0  0  0  0  0  0
   45.8200   33.9130   44.8050 C   0  0  0  0  0  0  0  0  0  0  0  0
   44.9860   34.9560   45.0190 N   0  0  0  0  0  0  0  0  0  0  0  0
   44.1400   36.7280   44.0820 H   0  0  0  0  0  0  0  0  0  0  0  0
   45.2770   36.4340   41.9770 H   0  0  0  0  0  0  0  0  0  0  0  0
   45.9250   33.2480   45.6370 H   0  0  0  0  0  0  0  0  0  0  0  0
   49.1240   35.6540   41.8740 C   0  0  0  0  0  0  0  0  0  0  0  0
   48.5090   36.2770   42.5490 H   0  0  0  0  0  0  0  0  0  0  0  0
   49.7090   36.3770   41.2590 H   0  0  0  0  0  0  0  0  0  0  0  0
   49.9750   34.6940   42.6490 C   0  0  0  0  0  0  0  0  0  0  0  0
   50.8990   35.2470   42.9410 H   0  0  0  0  0  0  0  0  0  0  0  0
   49.4300   34.5110   43.6130 H   0  0  0  0  0  0  0  0  0  0  0  0
   50.2940   33.4200   41.9290 C   0  0  1  0  0  0  0  0  0  0  0  0
   51.0540   32.3170   42.5070 C   0  0  0  0  0  0  0  0  0  0  0  0
   49.5730   32.1860   42.5010 C   0  0  2  0  0  0  0  0  0  0  0  0
   50.3330   33.4920   40.8120 H   0  0  0  0  0  0  0  0  0  0  0  0
   51.5070   32.5070   43.5060 H   0  0  0  0  0  0  0  0  0  0  0  0
   51.6590   31.6660   41.8580 H   0  0  0  0  0  0  0  0  0  0  0  0
   49.0190   32.3030   43.4570 H   0  0  0  0  0  0  0  0  0  0  0  0
   49.0500   31.2600   41.6280 O   0  0  0  0  0  0  0  0  0  0  0  0
   47.9730   30.4540   41.9410 C   0  0  0  0  0  0  0  0  0  0  0  0
   48.2500   29.4370   42.2550 H   0  0  0  0  0  0  0  0  0  0  0  0
   46.7740   30.8180   41.8850 O   0  0  0  0  0  0  0  0  0  0  0  0
  1 17  1  0  0  0  0
  2  1  2  0  0  0  0
  2 24  1  0  0  0  0
  3  2  1  0  0  0  0
  4  3  1  0  0  0  0
  4  9  1  0  0  0  0
  5  4  2  0  0  0  0
  6  5  1  0  0  0  0
  6  7  2  0  0  0  0
  7  8  1  0  0  0  0
  8  9  2  0  0  0  0
  8 14  1  0  0  0  0
  9  1  1  0  0  0  0
 10  3  1  0  0  0  0
 11  5  1  0  0  0  0
 12  6  1  0  0  0  0
 13  7  1  0  0  0  0
 15 21  1  0  0  0  0
 15 20  1  0  0  0  0
 16 15  2  0  0  0  0
 17 16  1  0  0  0  0
 17 18  2  0  0  0  0
 18 19  1  0  0  0  0
 19 20  2  0  0  0  0
 19 23  1  0  0  0  0
 22 16  1  0  0  0  0
 24 25  1  0  0  0  0
 24 27  1  0  0  0  0
 26 24  1  0  0  0  0
 27 28  1  0  0  0  0
 27 29  1  0  0  0  0
 30 33  1  6  0  0  0
 30 32  1  0  0  0  0
 30 31  1  0  0  0  0
 30 27  1  0  0  0  0
 31 34  1  0  0  0  0
 32 31  1  0  0  0  0
 32 36  1  1  0  0  0
 35 31  1  0  0  0  0
 37 38  1  0  0  0  0
 37 32  1  0  0  0  0
 38 39  1  0  0  0  0
 40 38  2  0  0  0  0
M  END
>  <minimizedAffinity>
-5.36756134

>  <minimizedRMSD>
0.0934849679

$$$$
