
 OpenBabel03232519263D

 38 40  0  0  1  0  0  0  0  0999 V2000
   47.0840   34.2090   40.2140 C   0  0  1  0  0  0  0  0  0  0  0  0
   48.1000   34.1760   39.0590 C   0  0  0  0  0  0  0  0  0  0  0  0
   47.3720   33.6130   37.8680 C   0  0  0  0  0  0  0  0  0  0  0  0
   47.0430   32.1750   38.1170 C   0  0  0  0  0  0  0  0  0  0  0  0
   47.2350   31.7950   39.5550 C   0  0  0  0  0  0  0  0  0  0  0  0
   46.6780   32.8210   40.5410 C   0  0  2  0  0  0  0  0  0  0  0  0
   46.2280   34.8160   39.9440 H   0  0  0  0  0  0  0  0  0  0  0  0
   48.9510   33.5400   39.2960 H   0  0  0  0  0  0  0  0  0  0  0  0
   48.3850   35.2330   38.9150 H   0  0  0  0  0  0  0  0  0  0  0  0
   46.5320   34.2440   37.5300 H   0  0  0  0  0  0  0  0  0  0  0  0
   48.1120   33.6640   37.0230 H   0  0  0  0  0  0  0  0  0  0  0  0
   47.7630   31.5070   37.5520 H   0  0  0  0  0  0  0  0  0  0  0  0
   46.0540   31.9000   37.6950 H   0  0  0  0  0  0  0  0  0  0  0  0
   46.7430   30.8310   39.7230 H   0  0  0  0  0  0  0  0  0  0  0  0
   48.3190   31.6510   39.7370 H   0  0  0  0  0  0  0  0  0  0  0  0
   47.1860   32.5380   41.5090 H   0  0  0  0  0  0  0  0  0  0  0  0
   45.3040   32.5250   40.6770 N   0  0  0  0  0  0  0  0  0  0  0  0
   44.4010   33.5690   40.3460 C   0  0  0  0  0  0  0  0  0  0  0  0
   43.4120   33.9130   41.3900 C   0  0  0  0  0  0  0  0  0  0  0  0
   42.7450   32.6480   41.7520 N   0  0  0  0  0  0  0  0  0  0  0  0
   41.9530   32.8200   42.3820 H   0  0  0  0  0  0  0  0  0  0  0  0
   43.7390   31.8950   42.4550 C   0  0  0  0  0  0  0  0  0  0  0  0
   44.8620   31.5130   41.5230 C   0  0  0  0  0  0  0  0  0  0  0  0
   47.7960   34.8770   41.4150 C   0  0  0  0  0  0  0  0  0  0  0  0
   48.8900   34.7150   41.1730 H   0  0  0  0  0  0  0  0  0  0  0  0
   47.5750   35.9220   41.5170 H   0  0  0  0  0  0  0  0  0  0  0  0
   47.5160   33.9850   42.5980 C   0  0  0  0  0  0  0  0  0  0  0  0
   47.0820   32.9920   42.2660 H   0  0  0  0  0  0  0  0  0  0  0  0
   48.4270   33.8060   43.2210 H   0  0  0  0  0  0  0  0  0  0  0  0
   46.1250   33.8830   44.6010 C   0  0  0  0  0  0  0  0  0  0  0  0
   46.4980   34.5580   43.4260 C   0  0  0  0  0  0  0  0  0  0  0  0
   45.8650   35.7340   43.1060 C   0  0  0  0  0  0  0  0  0  0  0  0
   44.9050   36.2000   43.9400 N   0  0  0  0  0  0  0  0  0  0  0  0
   44.5440   35.5490   45.0750 C   0  0  0  0  0  0  0  0  0  0  0  0
   45.1600   34.3850   45.4020 N   0  0  0  0  0  0  0  0  0  0  0  0
   46.6230   32.9620   44.8450 H   0  0  0  0  0  0  0  0  0  0  0  0
   46.0050   36.3760   42.2560 H   0  0  0  0  0  0  0  0  0  0  0  0
   43.7860   35.9020   45.7480 H   0  0  0  0  0  0  0  0  0  0  0  0
  1  7  1  6  0  0  0
  1  6  1  0  0  0  0
  1 24  1  0  0  0  0
  2  8  1  0  0  0  0
  2  1  1  0  0  0  0
  3  4  1  0  0  0  0
  3  2  1  0  0  0  0
  4  5  1  0  0  0  0
  5 14  1  0  0  0  0
  5 15  1  0  0  0  0
  5  6  1  0  0  0  0
  6 17  1  0  0  0  0
  6 16  1  1  0  0  0
  9  2  1  0  0  0  0
 10  3  1  0  0  0  0
 11  3  1  0  0  0  0
 12  4  1  0  0  0  0
 13  4  1  0  0  0  0
 17 23  1  0  0  0  0
 18 17  1  0  0  0  0
 18 19  1  0  0  0  0
 19 20  1  0  0  0  0
 20 21  1  0  0  0  0
 20 22  1  0  0  0  0
 23 22  1  0  0  0  0
 24 26  1  0  0  0  0
 24 27  1  0  0  0  0
 25 24  1  0  0  0  0
 27 29  1  0  0  0  0
 27 31  1  0  0  0  0
 28 27  1  0  0  0  0
 30 36  1  0  0  0  0
 30 35  1  0  0  0  0
 31 30  2  0  0  0  0
 32 31  1  0  0  0  0
 32 33  2  0  0  0  0
 33 34  1  0  0  0  0
 34 35  2  0  0  0  0
 34 38  1  0  0  0  0
 37 32  1  0  0  0  0
M  END
>  <minimizedAffinity>
-4.74130678

>  <minimizedRMSD>
2.2075913

$$$$
