
 OpenBabel03232516273D

 36 39  0  0  0  0  0  0  0  0999 V2000
   44.0670   33.0010   40.9280 C   0  0  0  0  0  0  0  0  0  0  0  0
   47.0140   34.8690   42.0960 C   0  0  0  0  0  0  0  0  0  0  0  0
   47.3190   34.2580   43.3430 C   0  0  0  0  0  0  0  0  0  0  0  0
   46.4990   33.2050   43.7660 C   0  0  0  0  0  0  0  0  0  0  0  0
   45.4630   32.8330   42.9560 N   0  0  0  0  0  0  0  0  0  0  0  0
   45.2110   33.4450   41.7750 C   0  0  0  0  0  0  0  0  0  0  0  0
   45.9810   34.4540   41.3510 N   0  0  0  0  0  0  0  0  0  0  0  0
   47.6600   35.6940   41.7720 H   0  0  0  0  0  0  0  0  0  0  0  0
   48.1490   34.5890   43.9480 H   0  0  0  0  0  0  0  0  0  0  0  0
   46.6620   32.6950   44.6890 H   0  0  0  0  0  0  0  0  0  0  0  0
   44.2350   33.5820   39.5420 C   0  0  0  0  0  0  0  0  0  0  0  0
   45.3300   33.6200   39.3010 H   0  0  0  0  0  0  0  0  0  0  0  0
   43.7410   32.9130   38.8120 H   0  0  0  0  0  0  0  0  0  0  0  0
   43.8690   34.6200   39.4970 H   0  0  0  0  0  0  0  0  0  0  0  0
   42.7870   33.5670   41.4900 C   0  0  0  0  0  0  0  0  0  0  0  0
   42.9650   34.1030   42.4580 H   0  0  0  0  0  0  0  0  0  0  0  0
   42.2600   34.2540   40.8150 H   0  0  0  0  0  0  0  0  0  0  0  0
   42.0900   32.7400   41.7680 H   0  0  0  0  0  0  0  0  0  0  0  0
   44.0030   31.5160   40.8010 C   0  0  0  0  0  0  0  0  0  0  0  0
   44.8780   31.0860   41.3340 H   0  0  0  0  0  0  0  0  0  0  0  0
   44.0390   31.2730   39.7130 H   0  0  0  0  0  0  0  0  0  0  0  0
   42.8100   30.8830   41.3710 C   0  0  0  0  0  0  0  0  0  0  0  0
   41.5490   30.7590   40.9400 N   0  0  0  0  0  0  0  0  0  0  0  0
   40.8300   30.0890   41.8270 O   0  0  0  0  0  0  0  0  0  0  0  0
   41.6010   29.7680   42.8390 C   0  0  0  0  0  0  0  0  0  0  0  0
   42.8130   30.2500   42.5670 N   0  0  0  0  0  0  0  0  0  0  0  0
   41.1540   29.0220   44.0130 C   0  0  0  0  0  0  0  0  0  0  0  0
   40.1540   29.4350   44.8710 C   0  0  0  0  0  0  0  0  0  0  0  0
   40.0410   28.4800   45.8160 N   0  0  0  0  0  0  0  0  0  0  0  0
   40.9390   27.4870   45.5730 C   0  0  0  0  0  0  0  0  0  0  0  0
   41.1940   26.3270   46.2490 C   0  0  0  0  0  0  0  0  0  0  0  0
   42.1770   25.4460   45.8090 C   0  0  0  0  0  0  0  0  0  0  0  0
   42.9110   25.7580   44.6580 C   0  0  0  0  0  0  0  0  0  0  0  0
   42.6500   26.9380   43.9730 C   0  0  0  0  0  0  0  0  0  0  0  0
   41.6710   27.7970   44.4270 C   0  0  0  0  0  0  0  0  0  0  0  0
   39.3590   28.5000   46.6240 H   0  0  0  0  0  0  0  0  0  0  0  0
  1 15  1  0  0  0  0
  1  6  1  0  0  0  0
  2  3  1  0  0  0  0
  3  4  2  0  0  0  0
  3  9  1  0  0  0  0
  4 10  1  0  0  0  0
  5  4  1  0  0  0  0
  6  5  2  0  0  0  0
  7  6  1  0  0  0  0
  7  2  2  0  0  0  0
  8  2  1  0  0  0  0
 11  1  1  0  0  0  0
 12 11  1  0  0  0  0
 13 11  1  0  0  0  0
 14 11  1  0  0  0  0
 15 18  1  0  0  0  0
 15 16  1  0  0  0  0
 17 15  1  0  0  0  0
 19  1  1  0  0  0  0
 19 20  1  0  0  0  0
 19 22  1  0  0  0  0
 21 19  1  0  0  0  0
 22 26  1  0  0  0  0
 23 22  2  0  0  0  0
 23 24  1  0  0  0  0
 24 25  1  0  0  0  0
 25 27  1  0  0  0  0
 26 25  2  0  0  0  0
 27 35  1  0  0  0  0
 27 28  2  0  0  0  0
 28 29  1  0  0  0  0
 29 36  1  0  0  0  0
 30 29  1  0  0  0  0
 30 31  1  0  0  0  0
 32 31  2  0  0  0  0
 33 32  1  0  0  0  0
 34 35  1  0  0  0  0
 34 33  2  0  0  0  0
 35 30  2  0  0  0  0
M  END
>  <minimizedAffinity>
-4.23105192

>  <minimizedRMSD>
8.42825127

$$$$
