
 OpenBabel03232520473D

 42 46  0  0  0  0  0  0  0  0999 V2000
   46.4430   34.6700   42.1840 C   0  0  0  0  0  0  0  0  0  0  0  0
   47.7480   35.0430   42.0450 C   0  0  0  0  0  0  0  0  0  0  0  0
   48.4460   34.8570   40.8400 C   0  0  0  0  0  0  0  0  0  0  0  0
   47.8060   34.2780   39.7450 C   0  0  0  0  0  0  0  0  0  0  0  0
   46.4990   33.9070   39.8940 C   0  0  0  0  0  0  0  0  0  0  0  0
   45.8290   34.1020   41.0950 C   0  0  0  0  0  0  0  0  0  0  0  0
   48.2680   35.4960   42.8850 H   0  0  0  0  0  0  0  0  0  0  0  0
   49.4860   35.1900   40.8380 H   0  0  0  0  0  0  0  0  0  0  0  0
   48.3750   34.1490   38.8340 H   0  0  0  0  0  0  0  0  0  0  0  0
   46.0220   33.4600   39.0300 H   0  0  0  0  0  0  0  0  0  0  0  0
   44.4710   33.7000   41.1970 N   0  0  0  0  0  0  0  0  0  0  0  0
   43.6470   34.6600   40.6680 C   0  0  0  0  0  0  0  0  0  0  0  0
   42.2580   34.4720   40.6640 C   0  0  0  0  0  0  0  0  0  0  0  0
   41.7660   33.2920   41.2090 C   0  0  0  0  0  0  0  0  0  0  0  0
   40.5340   33.0630   41.2350 O   0  0  0  0  0  0  0  0  0  0  0  0
   42.6240   32.3900   41.7120 N   0  0  0  0  0  0  0  0  0  0  0  0
   43.9470   32.5800   41.7110 C   0  0  0  0  0  0  0  0  0  0  0  0
   44.8130   31.7960   42.1560 O   0  0  0  0  0  0  0  0  0  0  0  0
   43.9440   35.5830   40.2350 H   0  0  0  0  0  0  0  0  0  0  0  0
   42.3070   31.4990   42.1280 H   0  0  0  0  0  0  0  0  0  0  0  0
   41.3240   35.4830   40.1010 C   0  0  0  0  0  0  0  0  0  0  0  0
   41.7810   36.4670   40.2390 H   0  0  0  0  0  0  0  0  0  0  0  0
   40.3930   35.4380   40.7130 H   0  0  0  0  0  0  0  0  0  0  0  0
   41.0420   35.2660   39.0570 H   0  0  0  0  0  0  0  0  0  0  0  0
   44.4410   36.1110   45.0250 C   0  0  0  0  0  0  0  0  0  0  0  0
   45.0110   36.0100   43.7540 C   0  0  0  0  0  0  0  0  0  0  0  0
   45.7940   34.8970   43.4620 C   0  0  0  0  0  0  0  0  0  0  0  0
   45.9590   33.9790   44.4220 N   0  0  0  0  0  0  0  0  0  0  0  0
   45.3970   34.0950   45.6490 C   0  0  0  0  0  0  0  0  0  0  0  0
   44.6410   35.1600   45.9450 N   0  0  0  0  0  0  0  0  0  0  0  0
   43.8310   36.9710   45.2630 H   0  0  0  0  0  0  0  0  0  0  0  0
   44.8750   36.7520   42.9880 H   0  0  0  0  0  0  0  0  0  0  0  0
   45.6430   33.0320   46.6200 C   0  0  0  0  0  0  0  0  0  0  0  0
   45.1220   33.0150   47.8980 C   0  0  0  0  0  0  0  0  0  0  0  0
   45.5530   31.8880   48.5170 N   0  0  0  0  0  0  0  0  0  0  0  0
   46.3240   31.2310   47.6310 C   0  0  0  0  0  0  0  0  0  0  0  0
   47.0080   30.0360   47.7440 C   0  0  0  0  0  0  0  0  0  0  0  0
   47.7610   29.5090   46.7100 C   0  0  0  0  0  0  0  0  0  0  0  0
   47.8390   30.2060   45.4980 C   0  0  0  0  0  0  0  0  0  0  0  0
   47.1460   31.4140   45.3870 C   0  0  0  0  0  0  0  0  0  0  0  0
   46.4090   31.9070   46.4310 C   0  0  0  0  0  0  0  0  0  0  0  0
   45.2960   31.6410   49.4990 H   0  0  0  0  0  0  0  0  0  0  0  0
  1 27  1  0  0  0  0
  2  1  1  0  0  0  0
  2  7  1  0  0  0  0
  3  2  2  0  0  0  0
  4  5  2  0  0  0  0
  4  3  1  0  0  0  0
  5  6  1  0  0  0  0
  6 11  1  0  0  0  0
  6  1  2  0  0  0  0
  8  3  1  0  0  0  0
  9  4  1  0  0  0  0
 10  5  1  0  0  0  0
 11 17  1  0  0  0  0
 12 11  1  0  0  0  0
 13 12  2  0  0  0  0
 13 14  1  0  0  0  0
 14 15  2  0  0  0  0
 14 16  1  0  0  0  0
 16 20  1  0  0  0  0
 17 16  1  0  0  0  0
 17 18  2  0  0  0  0
 19 12  1  0  0  0  0
 21 22  1  0  0  0  0
 21 13  1  0  0  0  0
 21 23  1  0  0  0  0
 24 21  1  0  0  0  0
 25 31  1  0  0  0  0
 25 30  1  0  0  0  0
 26 25  2  0  0  0  0
 27 26  1  0  0  0  0
 27 28  2  0  0  0  0
 28 29  1  0  0  0  0
 29 30  2  0  0  0  0
 29 33  1  0  0  0  0
 32 26  1  0  0  0  0
 33 34  2  0  0  0  0
 34 35  1  0  0  0  0
 35 42  1  0  0  0  0
 36 37  1  0  0  0  0
 36 35  1  0  0  0  0
 38 37  2  0  0  0  0
 39 38  1  0  0  0  0
 40 39  2  0  0  0  0
 40 41  1  0  0  0  0
 41 33  1  0  0  0  0
 41 36  2  0  0  0  0
M  END
>  <minimizedAffinity>
-8.00243759

>  <minimizedRMSD>
0.263071775

$$$$
