
 OpenBabel03232519023D

 32 35  0  0  1  0  0  0  0  0999 V2000
   44.3870   35.2900   45.9540 C   0  0  0  0  0  0  0  0  0  0  0  0
   44.5420   36.0780   44.7930 C   0  0  0  0  0  0  0  0  0  0  0  0
   45.3710   35.5900   43.7970 C   0  0  0  0  0  0  0  0  0  0  0  0
   45.9830   34.3840   44.0020 N   0  0  0  0  0  0  0  0  0  0  0  0
   45.8150   33.6630   45.1120 C   0  0  0  0  0  0  0  0  0  0  0  0
   45.0240   34.1060   46.0870 N   0  0  0  0  0  0  0  0  0  0  0  0
   46.4920   32.4270   45.2210 N   0  0  0  0  0  0  0  0  0  0  0  0
   46.0520   31.5550   46.2960 C   0  0  0  0  0  0  0  0  0  0  0  0
   46.8890   30.3320   46.4820 C   0  0  0  0  0  0  0  0  0  0  0  0
   48.1320   30.4280   45.8590 O   0  0  0  0  0  0  0  0  0  0  0  0
   47.9000   30.6170   44.5130 C   0  0  0  0  0  0  0  0  0  0  0  0
   47.5540   32.0630   44.3190 C   0  0  1  0  0  0  0  0  0  0  0  0
   43.7270   35.7040   46.7170 H   0  0  0  0  0  0  0  0  0  0  0  0
   44.0580   37.0180   44.6430 H   0  0  0  0  0  0  0  0  0  0  0  0
   45.5750   36.0950   42.8580 H   0  0  0  0  0  0  0  0  0  0  0  0
   45.0340   31.1920   45.9940 H   0  0  0  0  0  0  0  0  0  0  0  0
   45.8960   32.1260   47.2210 H   0  0  0  0  0  0  0  0  0  0  0  0
   47.1150   30.2630   47.5820 H   0  0  0  0  0  0  0  0  0  0  0  0
   46.3660   29.3870   46.2280 H   0  0  0  0  0  0  0  0  0  0  0  0
   47.0310   29.9430   44.2600 H   0  0  0  0  0  0  0  0  0  0  0  0
   48.7400   30.2820   43.8740 H   0  0  0  0  0  0  0  0  0  0  0  0
   48.4500   32.6450   44.6660 H   0  0  0  0  0  0  0  0  0  0  0  0
   47.3240   32.4250   42.9100 C   0  0  0  0  0  0  0  0  0  0  0  0
   46.4970   31.8020   41.9960 C   0  0  0  0  0  0  0  0  0  0  0  0
   46.6070   32.4690   40.8330 N   0  0  0  0  0  0  0  0  0  0  0  0
   47.4720   33.4860   40.9910 C   0  0  0  0  0  0  0  0  0  0  0  0
   47.8430   34.3980   40.0230 C   0  0  0  0  0  0  0  0  0  0  0  0
   48.7480   35.3720   40.3960 C   0  0  0  0  0  0  0  0  0  0  0  0
   49.2580   35.4310   41.6730 C   0  0  0  0  0  0  0  0  0  0  0  0
   48.8610   34.5010   42.6090 C   0  0  0  0  0  0  0  0  0  0  0  0
   47.9590   33.5040   42.2950 C   0  0  0  0  0  0  0  0  0  0  0  0
   46.0450   32.1340   40.0180 H   0  0  0  0  0  0  0  0  0  0  0  0
  1  6  1  0  0  0  0
  1 13  1  0  0  0  0
  2  1  2  0  0  0  0
  3  4  2  0  0  0  0
  3  2  1  0  0  0  0
  4  5  1  0  0  0  0
  5  7  1  0  0  0  0
  5  6  2  0  0  0  0
  7  8  1  0  0  0  0
  8  9  1  0  0  0  0
  8 17  1  0  0  0  0
  9 18  1  0  0  0  0
 10  9  1  0  0  0  0
 11 10  1  0  0  0  0
 12 11  1  0  0  0  0
 12 22  1  1  0  0  0
 12  7  1  0  0  0  0
 14  2  1  0  0  0  0
 15  3  1  0  0  0  0
 16  8  1  0  0  0  0
 19  9  1  0  0  0  0
 20 11  1  0  0  0  0
 21 11  1  0  0  0  0
 23 12  1  0  0  0  0
 24 23  2  0  0  0  0
 25 26  1  0  0  0  0
 25 24  1  0  0  0  0
 26 31  1  0  0  0  0
 27 28  1  0  0  0  0
 27 26  2  0  0  0  0
 28 29  2  0  0  0  0
 29 30  1  0  0  0  0
 31 30  2  0  0  0  0
 31 23  1  0  0  0  0
 32 25  1  0  0  0  0
M  END
>  <minimizedAffinity>
-5.67879009

>  <minimizedRMSD>
2.5038867

$$$$
