
 OpenBabel03232515453D

 44 48  0  0  0  0  0  0  0  0999 V2000
   46.8190   33.2030   39.0520 C   0  0  0  0  0  0  0  0  0  0  0  0
   47.8800   33.9690   38.5710 C   0  0  0  0  0  0  0  0  0  0  0  0
   48.4560   34.8330   39.4810 C   0  0  0  0  0  0  0  0  0  0  0  0
   48.0790   34.9710   40.7300 N   0  0  0  0  0  0  0  0  0  0  0  0
   47.0460   34.2140   41.1700 C   0  0  0  0  0  0  0  0  0  0  0  0
   46.4100   33.3330   40.3570 N   0  0  0  0  0  0  0  0  0  0  0  0
   46.5780   34.3080   42.5170 N   0  0  0  0  0  0  0  0  0  0  0  0
   46.0610   35.5250   43.1120 C   0  0  0  0  0  0  0  0  0  0  0  0
   44.9590   35.0780   44.0570 C   0  0  0  0  0  0  0  0  0  0  0  0
   44.3090   33.8740   43.5970 N   0  0  0  0  0  0  0  0  0  0  0  0
   45.1480   32.7280   43.5360 C   0  0  0  0  0  0  0  0  0  0  0  0
   46.5860   33.1650   43.4150 C   0  0  0  0  0  0  0  0  0  0  0  0
   48.1920   33.8570   37.5440 H   0  0  0  0  0  0  0  0  0  0  0  0
   49.2860   35.4530   39.1570 H   0  0  0  0  0  0  0  0  0  0  0  0
   46.8220   36.0790   43.6970 H   0  0  0  0  0  0  0  0  0  0  0  0
   45.5950   36.1380   42.2980 H   0  0  0  0  0  0  0  0  0  0  0  0
   45.3750   34.8220   45.0650 H   0  0  0  0  0  0  0  0  0  0  0  0
   44.2230   35.8700   44.1760 H   0  0  0  0  0  0  0  0  0  0  0  0
   43.8220   33.9880   42.6860 H   0  0  0  0  0  0  0  0  0  0  0  0
   44.9500   32.1150   42.6100 H   0  0  0  0  0  0  0  0  0  0  0  0
   45.0730   32.0240   44.3790 H   0  0  0  0  0  0  0  0  0  0  0  0
   46.9140   33.4990   44.4330 H   0  0  0  0  0  0  0  0  0  0  0  0
   47.2640   32.3640   43.0750 H   0  0  0  0  0  0  0  0  0  0  0  0
   46.1570   32.2860   38.2080 O   0  0  0  0  0  0  0  0  0  0  0  0
   45.0650   32.7410   37.4460 C   0  0  0  0  0  0  0  0  0  0  0  0
   45.2780   33.2110   36.3200 O   0  0  0  0  0  0  0  0  0  0  0  0
   43.0590   31.3830   38.1630 C   0  0  0  0  0  0  0  0  0  0  0  0
   43.7460   32.6060   38.0920 C   0  0  0  0  0  0  0  0  0  0  0  0
   43.1890   33.7610   38.6460 C   0  0  0  0  0  0  0  0  0  0  0  0
   41.9660   33.6560   39.2480 N   0  0  0  0  0  0  0  0  0  0  0  0
   41.3370   32.4570   39.2950 C   0  0  0  0  0  0  0  0  0  0  0  0
   41.8640   31.3470   38.7690 N   0  0  0  0  0  0  0  0  0  0  0  0
   43.5790   30.5480   37.7040 H   0  0  0  0  0  0  0  0  0  0  0  0
   43.6440   34.7270   38.6350 H   0  0  0  0  0  0  0  0  0  0  0  0
   40.0270   32.3400   39.9410 C   0  0  0  0  0  0  0  0  0  0  0  0
   39.1380   33.3320   40.3070 C   0  0  0  0  0  0  0  0  0  0  0  0
   38.0390   32.8280   40.8760 N   0  0  0  0  0  0  0  0  0  0  0  0
   38.2000   31.4720   40.8880 C   0  0  0  0  0  0  0  0  0  0  0  0
   37.3390   30.5080   41.3700 C   0  0  0  0  0  0  0  0  0  0  0  0
   37.6850   29.1560   41.2930 C   0  0  0  0  0  0  0  0  0  0  0  0
   38.8890   28.8590   40.7250 C   0  0  0  0  0  0  0  0  0  0  0  0
   39.7750   29.7980   40.2320 C   0  0  0  0  0  0  0  0  0  0  0  0
   39.4160   31.1420   40.3180 C   0  0  0  0  0  0  0  0  0  0  0  0
   37.2260   33.3930   41.2330 H   0  0  0  0  0  0  0  0  0  0  0  0
  1  6  1  0  0  0  0
  2  1  2  0  0  0  0
  2  3  1  0  0  0  0
  3  4  2  0  0  0  0
  4  5  1  0  0  0  0
  5  7  1  0  0  0  0
  6  5  2  0  0  0  0
  7  8  1  0  0  0  0
  7 12  1  0  0  0  0
  8 15  1  0  0  0  0
  8  9  1  0  0  0  0
  9 18  1  0  0  0  0
  9 17  1  0  0  0  0
 10  9  1  0  0  0  0
 11 10  1  0  0  0  0
 11 21  1  0  0  0  0
 12 11  1  0  0  0  0
 12 22  1  0  0  0  0
 13  2  1  0  0  0  0
 14  3  1  0  0  0  0
 16  8  1  0  0  0  0
 19 10  1  0  0  0  0
 20 11  1  0  0  0  0
 23 12  1  0  0  0  0
 24  1  1  0  0  0  0
 25 28  1  0  0  0  0
 25 24  1  0  0  0  0
 26 25  2  0  0  0  0
 27 32  1  0  0  0  0
 28 27  2  0  0  0  0
 28 29  1  0  0  0  0
 29 30  2  0  0  0  0
 30 31  1  0  0  0  0
 31 35  1  0  0  0  0
 32 31  2  0  0  0  0
 33 27  1  0  0  0  0
 34 29  1  0  0  0  0
 35 36  2  0  0  0  0
 35 43  1  0  0  0  0
 36 37  1  0  0  0  0
 37 38  1  0  0  0  0
 37 44  1  0  0  0  0
 38 39  1  0  0  0  0
 40 39  2  0  0  0  0
 41 40  1  0  0  0  0
 42 43  1  0  0  0  0
 42 41  2  0  0  0  0
 43 38  2  0  0  0  0
M  END
>  <minimizedAffinity>
-6.37293577

>  <minimizedRMSD>
1.73169041

$$$$
