
 OpenBabel03232517403D

 26 29  0  0  0  0  0  0  0  0999 V2000
   45.3090   36.0670   43.2930 C   0  0  0  0  0  0  0  0  0  0  0  0
   46.1100   34.9350   43.1800 C   0  0  0  0  0  0  0  0  0  0  0  0
   46.1390   34.0130   44.2230 C   0  0  0  0  0  0  0  0  0  0  0  0
   45.3750   34.2500   45.3260 N   0  0  0  0  0  0  0  0  0  0  0  0
   44.6070   35.3480   45.4140 C   0  0  0  0  0  0  0  0  0  0  0  0
   44.5690   36.2480   44.4190 N   0  0  0  0  0  0  0  0  0  0  0  0
   45.2510   36.8130   42.5090 H   0  0  0  0  0  0  0  0  0  0  0  0
   43.9800   35.6060   46.2490 H   0  0  0  0  0  0  0  0  0  0  0  0
   46.9220   32.8000   44.1830 C   0  0  0  0  0  0  0  0  0  0  0  0
   47.9030   32.3090   43.3160 C   0  0  0  0  0  0  0  0  0  0  0  0
   48.3730   31.1230   43.7340 N   0  0  0  0  0  0  0  0  0  0  0  0
   47.7000   30.8350   44.8790 C   0  0  0  0  0  0  0  0  0  0  0  0
   47.8690   29.6860   45.6500 C   0  0  0  0  0  0  0  0  0  0  0  0
   47.0830   29.5450   46.8000 C   0  0  0  0  0  0  0  0  0  0  0  0
   46.2100   30.5690   47.0590 C   0  0  0  0  0  0  0  0  0  0  0  0
   46.0090   31.7270   46.3240 C   0  0  0  0  0  0  0  0  0  0  0  0
   46.8080   31.8390   45.1810 C   0  0  0  0  0  0  0  0  0  0  0  0
   49.1140   30.6000   43.2100 H   0  0  0  0  0  0  0  0  0  0  0  0
   46.8260   34.7800   41.9840 N   0  0  0  0  0  0  0  0  0  0  0  0
   48.0040   35.2660   41.7990 N   0  0  0  0  0  0  0  0  0  0  0  0
   48.4650   34.9660   40.5690 C   0  0  0  0  0  0  0  0  0  0  0  0
   47.4520   34.2280   39.9740 C   0  0  0  0  0  0  0  0  0  0  0  0
   46.4200   34.1240   40.8920 C   0  0  0  0  0  0  0  0  0  0  0  0
   49.4550   35.2860   40.2020 H   0  0  0  0  0  0  0  0  0  0  0  0
   47.5270   33.8360   38.9650 H   0  0  0  0  0  0  0  0  0  0  0  0
   45.4880   33.6080   40.7250 H   0  0  0  0  0  0  0  0  0  0  0  0
  1  6  1  0  0  0  0
  2  1  2  0  0  0  0
  2  3  1  0  0  0  0
  3  4  2  0  0  0  0
  4  5  1  0  0  0  0
  5  8  1  0  0  0  0
  6  5  2  0  0  0  0
  7  1  1  0  0  0  0
  9  3  1  0  0  0  0
  9 17  1  0  0  0  0
 10 11  1  0  0  0  0
 10  9  2  0  0  0  0
 11 12  1  0  0  0  0
 12 17  2  0  0  0  0
 12 13  1  0  0  0  0
 13 14  2  0  0  0  0
 14 15  1  0  0  0  0
 16 15  2  0  0  0  0
 17 16  1  0  0  0  0
 18 11  1  0  0  0  0
 19  2  1  0  0  0  0
 20 19  1  0  0  0  0
 21 20  2  0  0  0  0
 22 21  1  0  0  0  0
 22 23  2  0  0  0  0
 23 19  1  0  0  0  0
 24 21  1  0  0  0  0
 25 22  1  0  0  0  0
 26 23  1  0  0  0  0
M  END
>  <minimizedAffinity>
-5.47233772

>  <minimizedRMSD>
3.07369304

$$$$
