
 OpenBabel03232520583D

 38 41  0  0  1  0  0  0  0  0999 V2000
   45.6980   32.8400   47.6610 C   0  0  0  0  0  0  0  0  0  0  0  0
   45.8560   32.5430   46.3330 C   0  0  0  0  0  0  0  0  0  0  0  0
   45.7780   31.1980   45.9720 C   0  0  0  0  0  0  0  0  0  0  0  0
   45.5650   30.2640   46.8990 N   0  0  0  0  0  0  0  0  0  0  0  0
   45.4080   30.5620   48.2160 C   0  0  0  0  0  0  0  0  0  0  0  0
   45.4750   31.8380   48.5820 N   0  0  0  0  0  0  0  0  0  0  0  0
   45.1760   29.5230   49.1550 N   0  0  0  0  0  0  0  0  0  0  0  0
   45.7460   33.8370   48.0080 H   0  0  0  0  0  0  0  0  0  0  0  0
   44.2630   29.0660   48.9120 H   0  0  0  0  0  0  0  0  0  0  0  0
   45.8540   29.3260   49.9210 H   0  0  0  0  0  0  0  0  0  0  0  0
   46.0600   33.5890   45.3780 C   0  0  2  0  0  0  0  0  0  0  0  0
   44.9320   34.6520   45.5620 C   0  0  0  0  0  0  0  0  0  0  0  0
   44.7360   35.5790   44.4830 C   0  0  0  0  0  0  0  0  0  0  0  0
   45.5460   35.5190   43.2700 C   0  0  1  0  0  0  0  0  0  0  0  0
   46.6370   34.5410   43.2620 C   0  0  0  0  0  0  0  0  0  0  0  0
   46.2260   33.2920   43.9840 C   0  0  0  0  0  0  0  0  0  0  0  0
   46.8950   34.2540   45.7870 H   0  0  0  0  0  0  0  0  0  0  0  0
   44.2270   34.8590   46.3560 H   0  0  0  0  0  0  0  0  0  0  0  0
   43.9860   36.3260   44.5490 H   0  0  0  0  0  0  0  0  0  0  0  0
   45.9540   36.5440   43.0690 H   0  0  0  0  0  0  0  0  0  0  0  0
   47.5800   34.8960   43.7590 H   0  0  0  0  0  0  0  0  0  0  0  0
   46.9090   34.2760   42.2040 H   0  0  0  0  0  0  0  0  0  0  0  0
   47.0550   32.6070   43.7100 H   0  0  0  0  0  0  0  0  0  0  0  0
   45.3100   32.9230   43.5040 H   0  0  0  0  0  0  0  0  0  0  0  0
   44.5970   35.2430   42.0900 C   0  0  0  0  0  0  0  0  0  0  0  0
   43.5410   34.4170   42.4330 F   0  0  0  0  0  0  0  0  0  0  0  0
   44.0170   36.4720   41.7450 F   0  0  0  0  0  0  0  0  0  0  0  0
   45.2960   34.7960   40.9930 F   0  0  0  0  0  0  0  0  0  0  0  0
   45.8550   30.4950   44.6970 C   0  0  0  0  0  0  0  0  0  0  0  0
   44.9820   30.0170   43.6960 C   0  0  0  0  0  3  0  0  0  0  0  0
   45.6760   29.3470   42.7670 N   0  0  0  0  0  0  0  0  0  0  0  0
   46.9780   29.3150   43.0360 C   0  0  0  0  0  0  0  0  0  0  0  0
   48.0500   28.7690   42.4050 C   0  0  0  0  0  3  0  0  0  0  0  0
   49.3300   28.8970   42.9360 C   0  0  0  0  0  3  0  0  0  0  0  0
   49.4920   29.5880   44.1150 C   0  0  0  0  0  3  0  0  0  0  0  0
   48.3860   30.1280   44.7250 C   0  0  0  0  0  3  0  0  0  0  0  0
   47.0870   30.0160   44.2170 C   0  0  0  0  0  0  0  0  0  0  0  0
   45.1890   28.9190   41.9430 H   0  0  0  0  0  0  0  0  0  0  0  0
  1  8  1  0  0  0  0
  1  6  1  0  0  0  0
  2  1  2  0  0  0  0
  3  2  1  0  0  0  0
  3  4  2  0  0  0  0
  4  5  1  0  0  0  0
  5  6  2  0  0  0  0
  5  7  1  0  0  0  0
  7 10  1  0  0  0  0
  9  7  1  0  0  0  0
 11 12  1  0  0  0  0
 11 17  1  1  0  0  0
 11  2  1  0  0  0  0
 12 18  1  0  0  0  0
 13 19  1  0  0  0  0
 13 12  2  0  0  0  0
 14 20  1  6  0  0  0
 14 13  1  0  0  0  0
 15 14  1  0  0  0  0
 15 21  1  0  0  0  0
 15 16  1  0  0  0  0
 16 11  1  0  0  0  0
 22 15  1  0  0  0  0
 23 16  1  0  0  0  0
 24 16  1  0  0  0  0
 25 26  1  0  0  0  0
 25 14  1  0  0  0  0
 27 25  1  0  0  0  0
 28 25  1  0  0  0  0
 29  3  1  0  0  0  0
 30 29  2  0  0  0  0
 31 32  1  0  0  0  0
 31 30  1  0  0  0  0
 32 37  1  0  0  0  0
 33 34  1  0  0  0  0
 33 32  2  0  0  0  0
 34 35  2  0  0  0  0
 35 36  1  0  0  0  0
 37 29  1  0  0  0  0
 37 36  2  0  0  0  0
 38 31  1  0  0  0  0
M  END
>  <minimizedAffinity>
-5.75742912

>  <minimizedRMSD>
1.13633192

$$$$
