
 OpenBabel03232518533D

 35 38  0  0  0  0  0  0  0  0999 V2000
   46.8230   32.9970   43.0800 C   0  0  0  0  0  0  0  0  0  0  0  0
   46.6100   31.8290   42.6550 O   0  0  0  0  0  0  0  0  0  0  0  0
   44.8120   35.3910   45.0810 C   0  0  0  0  0  0  0  0  0  0  0  0
   45.4820   34.9080   43.9650 C   0  0  0  0  0  0  0  0  0  0  0  0
   46.0910   33.6740   44.0910 C   0  0  0  0  0  0  0  0  0  0  0  0
   46.0100   33.0030   45.2730 N   0  0  0  0  0  0  0  0  0  0  0  0
   45.3690   33.4740   46.3270 C   0  0  0  0  0  0  0  0  0  0  0  0
   44.7880   34.6500   46.2110 N   0  0  0  0  0  0  0  0  0  0  0  0
   44.3280   36.3480   45.0130 H   0  0  0  0  0  0  0  0  0  0  0  0
   45.5480   35.6580   42.7110 C   0  0  0  0  0  0  0  0  0  0  0  0
   44.8980   36.8800   42.9320 F   0  0  0  0  0  0  0  0  0  0  0  0
   44.7780   35.0630   41.7320 F   0  0  0  0  0  0  0  0  0  0  0  0
   46.8170   35.8700   42.2640 F   0  0  0  0  0  0  0  0  0  0  0  0
   45.2550   32.8440   47.5420 O   0  0  0  0  0  0  0  0  0  0  0  0
   46.3150   32.1280   48.1390 C   0  0  0  0  0  0  0  0  0  0  0  0
   47.5060   32.8490   48.0460 F   0  0  0  0  0  0  0  0  0  0  0  0
   46.4350   30.8500   47.6800 F   0  0  0  0  0  0  0  0  0  0  0  0
   46.0450   32.1110   49.5210 F   0  0  0  0  0  0  0  0  0  0  0  0
   47.8920   33.1850   42.2210 O   0  0  0  0  0  0  0  0  0  0  0  0
   47.8630   33.0670   40.8670 C   0  0  0  0  0  0  0  0  0  0  0  0
   46.7170   33.4480   39.9820 C   0  0  0  0  0  0  0  0  0  0  0  0
   47.3740   33.0170   38.3540 S   0  0  0  0  0  0  0  0  0  0  0  0
   49.0160   32.4190   39.0630 C   0  0  0  0  0  0  0  0  0  0  0  0
   48.9130   32.5770   40.2450 N   0  0  0  0  0  0  0  0  0  0  0  0
   45.6550   33.9080   40.1430 H   0  0  0  0  0  0  0  0  0  0  0  0
   50.0260   31.9130   38.1030 C   0  0  0  0  0  0  0  0  0  0  0  0
   49.8840   31.7310   36.7440 C   0  0  0  0  0  0  0  0  0  0  0  0
   51.1000   31.2520   36.3620 N   0  0  0  0  0  0  0  0  0  0  0  0
   51.9320   31.1480   37.4160 C   0  0  0  0  0  0  0  0  0  0  0  0
   53.2470   30.7150   37.5050 C   0  0  0  0  0  0  0  0  0  0  0  0
   53.8860   30.7050   38.7320 C   0  0  0  0  0  0  0  0  0  0  0  0
   53.2160   31.1240   39.8610 C   0  0  0  0  0  0  0  0  0  0  0  0
   51.8960   31.5560   39.7630 C   0  0  0  0  0  0  0  0  0  0  0  0
   51.2540   31.5720   38.5650 C   0  0  0  0  0  0  0  0  0  0  0  0
   51.3560   31.0010   35.3890 H   0  0  0  0  0  0  0  0  0  0  0  0
  1  5  1  0  0  0  0
  2  1  2  0  0  0  0
  3  8  1  0  0  0  0
  4  5  1  0  0  0  0
  4  3  2  0  0  0  0
  5  6  2  0  0  0  0
  6  7  1  0  0  0  0
  7 14  1  0  0  0  0
  8  7  2  0  0  0  0
  9  3  1  0  0  0  0
 10 11  1  0  0  0  0
 10  4  1  0  0  0  0
 12 10  1  0  0  0  0
 13 10  1  0  0  0  0
 14 15  1  0  0  0  0
 15 18  1  0  0  0  0
 16 15  1  0  0  0  0
 17 15  1  0  0  0  0
 19  1  1  0  0  0  0
 20 19  1  0  0  0  0
 21 25  1  0  0  0  0
 21 20  2  0  0  0  0
 22 23  1  0  0  0  0
 22 21  1  0  0  0  0
 23 24  2  0  0  0  0
 24 20  1  0  0  0  0
 26 34  1  0  0  0  0
 26 23  1  0  0  0  0
 27 26  2  0  0  0  0
 28 27  1  0  0  0  0
 28 29  1  0  0  0  0
 29 30  2  0  0  0  0
 29 34  1  0  0  0  0
 30 31  1  0  0  0  0
 31 32  2  0  0  0  0
 33 32  1  0  0  0  0
 34 33  2  0  0  0  0
 35 28  1  0  0  0  0
M  END
>  <minimizedAffinity>
-6.36486435

>  <minimizedRMSD>
1.64474297

$$$$
