
 OpenBabel03232514503D

 47 52  0  0  1  0  0  0  0  0999 V2000
   47.4620   29.5980   46.4470 C   0  0  0  0  0  0  0  0  0  0  0  0
   48.5790   29.7460   45.8370 N   0  0  0  0  0  0  0  0  0  0  0  0
   48.9350   28.6100   45.3100 O   0  0  0  0  0  0  0  0  0  0  0  0
   48.0870   27.6720   45.5410 C   0  0  0  0  0  0  0  0  0  0  0  0
   47.1510   28.2250   46.2440 N   0  0  0  0  0  0  0  0  0  0  0  0
   45.4900   32.6510   47.5630 C   0  0  0  0  0  0  0  0  0  0  0  0
   46.1880   31.8360   46.6220 C   0  0  0  0  0  0  0  0  0  0  0  0
   46.7750   30.6450   47.1310 C   0  0  0  0  0  0  0  0  0  0  0  0
   46.6720   30.3330   48.4070 N   0  0  0  0  0  0  0  0  0  0  0  0
   45.9970   31.1440   49.2720 C   0  0  0  0  0  0  0  0  0  0  0  0
   45.4080   32.3040   48.8360 N   0  0  0  0  0  0  0  0  0  0  0  0
   44.9950   33.5700   47.3340 H   0  0  0  0  0  0  0  0  0  0  0  0
   45.8720   30.9440   50.3500 H   0  0  0  0  0  0  0  0  0  0  0  0
   46.3860   32.3650   45.2570 C   0  0  2  0  0  0  0  0  0  0  0  0
   45.9560   33.7510   45.1640 C   0  0  0  0  0  0  0  0  0  0  0  0
   45.3280   34.2470   43.9330 C   0  0  0  0  0  0  0  0  0  0  0  0
   45.1560   33.3330   42.7670 C   0  0  0  0  0  0  0  0  0  0  0  0
   45.9590   32.1210   42.9040 C   0  0  0  0  0  0  0  0  0  0  0  0
   45.5360   31.4850   44.2780 C   0  0  0  0  0  0  0  0  0  0  0  0
   47.3790   32.0840   44.8830 H   0  0  0  0  0  0  0  0  0  0  0  0
   45.9630   34.6220   45.7880 H   0  0  0  0  0  0  0  0  0  0  0  0
   44.9840   35.2360   43.7790 H   0  0  0  0  0  0  0  0  0  0  0  0
   45.5260   33.8960   41.8740 H   0  0  0  0  0  0  0  0  0  0  0  0
   44.1050   33.0690   42.5600 H   0  0  0  0  0  0  0  0  0  0  0  0
   45.7360   31.4200   42.0810 H   0  0  0  0  0  0  0  0  0  0  0  0
   47.0470   32.2620   42.9550 H   0  0  0  0  0  0  0  0  0  0  0  0
   44.4800   31.6060   44.4330 H   0  0  0  0  0  0  0  0  0  0  0  0
   45.9660   30.5140   44.1230 H   0  0  0  0  0  0  0  0  0  0  0  0
   48.1960   26.2920   45.0870 C   0  0  0  0  0  0  0  0  0  0  0  0
   48.9560   25.9880   44.1000 O   0  0  0  0  0  0  0  0  0  0  0  0
   47.4190   25.2050   45.7790 C   0  0  1  0  0  0  0  0  0  0  0  0
   48.1020   23.9510   46.0640 C   0  0  0  0  0  0  0  0  0  0  0  0
   48.0030   24.9570   47.1860 C   0  0  2  0  0  0  0  0  0  0  0  0
   46.3280   25.3910   45.9350 H   0  0  0  0  0  0  0  0  0  0  0  0
   47.4320   23.0420   46.0860 H   0  0  0  0  0  0  0  0  0  0  0  0
   49.0950   23.7010   45.6940 H   0  0  0  0  0  0  0  0  0  0  0  0
   48.9480   25.4520   47.4490 H   0  0  0  0  0  0  0  0  0  0  0  0
   47.1260   24.6720   48.3130 C   0  0  0  0  0  0  0  0  0  0  0  0
   45.8070   25.0810   48.1590 C   0  0  0  0  0  0  0  0  0  0  0  0
   45.0980   24.7400   49.2600 N   0  0  0  0  0  0  0  0  0  0  0  0
   45.9190   24.1160   50.1350 C   0  0  0  0  0  0  0  0  0  0  0  0
   45.8310   23.5480   51.3930 C   0  0  0  0  0  0  0  0  0  0  0  0
   46.9540   22.9830   51.9930 C   0  0  0  0  0  0  0  0  0  0  0  0
   48.2010   22.9650   51.3640 C   0  0  0  0  0  0  0  0  0  0  0  0
   48.2990   23.5330   50.1010 C   0  0  0  0  0  0  0  0  0  0  0  0
   47.1610   24.0780   49.5500 C   0  0  0  0  0  0  0  0  0  0  0  0
   44.0940   24.8710   49.5230 H   0  0  0  0  0  0  0  0  0  0  0  0
  1  8  1  0  0  0  0
  2  1  2  0  0  0  0
  3  4  1  0  0  0  0
  3  2  1  0  0  0  0
  4  5  2  0  0  0  0
  5  1  1  0  0  0  0
  6 11  1  0  0  0  0
  7  8  1  0  0  0  0
  7  6  2  0  0  0  0
  8  9  2  0  0  0  0
  9 10  1  0  0  0  0
 10 13  1  0  0  0  0
 11 10  2  0  0  0  0
 12  6  1  0  0  0  0
 14 20  1  6  0  0  0
 14  7  1  0  0  0  0
 15 14  1  0  0  0  0
 15 21  1  0  0  0  0
 16 15  2  0  0  0  0
 17 18  1  0  0  0  0
 17 16  1  0  0  0  0
 18 26  1  0  0  0  0
 18 19  1  0  0  0  0
 19 27  1  0  0  0  0
 19 14  1  0  0  0  0
 22 16  1  0  0  0  0
 23 17  1  0  0  0  0
 24 17  1  0  0  0  0
 25 18  1  0  0  0  0
 28 19  1  0  0  0  0
 29  4  1  0  0  0  0
 29 31  1  0  0  0  0
 30 29  2  0  0  0  0
 31 34  1  6  0  0  0
 31 32  1  0  0  0  0
 31 33  1  0  0  0  0
 32 35  1  0  0  0  0
 32 33  1  0  0  0  0
 33 37  1  1  0  0  0
 33 38  1  0  0  0  0
 36 32  1  0  0  0  0
 38 46  1  0  0  0  0
 39 38  2  0  0  0  0
 39 40  1  0  0  0  0
 40 47  1  0  0  0  0
 40 41  1  0  0  0  0
 41 42  1  0  0  0  0
 42 43  2  0  0  0  0
 44 43  1  0  0  0  0
 45 44  2  0  0  0  0
 46 45  1  0  0  0  0
 46 41  2  0  0  0  0
M  END
>  <minimizedAffinity>
-5.07787609

>  <minimizedRMSD>
4.39918375

$$$$
