
 OpenBabel03232520123D

 41 45  0  0  1  0  0  0  0  0999 V2000
   49.2670   28.6720   48.8100 N   0  0  0  0  0  0  0  0  0  0  0  0
   49.1490   27.3200   48.3580 C   0  0  0  0  0  0  0  0  0  0  0  0
   50.4890   26.6910   48.0670 C   0  0  0  0  0  0  0  0  0  0  0  0
   51.5400   27.1460   49.0560 C   0  0  0  0  0  0  0  0  0  0  0  0
   50.9230   27.7460   50.3030 C   0  0  0  0  0  0  0  0  0  0  0  0
   50.2110   28.9910   49.8760 C   0  0  1  0  0  0  0  0  0  0  0  0
   48.5910   26.7190   49.0980 H   0  0  0  0  0  0  0  0  0  0  0  0
   48.5570   27.3380   47.4180 H   0  0  0  0  0  0  0  0  0  0  0  0
   50.7950   26.8620   47.0270 H   0  0  0  0  0  0  0  0  0  0  0  0
   50.3380   25.5810   48.1680 H   0  0  0  0  0  0  0  0  0  0  0  0
   52.2780   27.8420   48.5930 H   0  0  0  0  0  0  0  0  0  0  0  0
   52.1480   26.2480   49.3550 H   0  0  0  0  0  0  0  0  0  0  0  0
   50.2090   27.0040   50.6920 H   0  0  0  0  0  0  0  0  0  0  0  0
   51.7220   27.9500   51.0210 H   0  0  0  0  0  0  0  0  0  0  0  0
   49.5670   29.2980   50.7430 H   0  0  0  0  0  0  0  0  0  0  0  0
   51.1400   30.0610   49.4970 C   0  0  0  0  0  0  0  0  0  0  0  0
   51.8770   30.2780   48.3680 C   0  0  0  0  0  0  0  0  0  0  0  0
   52.5890   31.4290   48.5160 N   0  0  0  0  0  0  0  0  0  0  0  0
   52.3330   31.9630   49.7060 C   0  0  0  0  0  0  0  0  0  0  0  0
   52.8030   33.1150   50.3190 C   0  0  0  0  0  0  0  0  0  0  0  0
   52.3350   33.3990   51.5900 C   0  0  0  0  0  0  0  0  0  0  0  0
   51.4260   32.6030   52.2870 C   0  0  0  0  0  0  0  0  0  0  0  0
   51.0060   31.4810   51.6200 C   0  0  0  0  0  0  0  0  0  0  0  0
   51.4200   31.1230   50.3560 C   0  0  0  0  0  0  0  0  0  0  0  0
   53.2430   31.8320   47.7890 H   0  0  0  0  0  0  0  0  0  0  0  0
   47.3460   31.7730   47.0410 C   0  0  0  0  0  0  0  0  0  0  0  0
   47.4280   31.8690   48.4030 C   0  0  0  0  0  0  0  0  0  0  0  0
   48.0470   30.8930   49.1030 C   0  0  0  0  0  0  0  0  0  0  0  0
   48.5620   29.8450   48.3570 C   0  0  0  0  0  0  0  0  0  0  0  0
   48.1620   30.2590   46.6730 S   0  0  0  0  0  0  0  0  0  0  0  0
   46.9800   32.7470   48.8700 H   0  0  0  0  0  0  0  0  0  0  0  0
   48.1710   30.8600   50.1580 H   0  0  0  0  0  0  0  0  0  0  0  0
   45.1780   34.3180   45.5240 C   0  0  0  0  0  0  0  0  0  0  0  0
   45.6390   34.3260   44.1890 C   0  0  0  0  0  0  0  0  0  0  0  0
   46.6970   33.4450   43.8390 C   0  0  0  0  0  0  0  0  0  0  0  0
   47.2220   32.6300   44.8110 N   0  0  0  0  0  0  0  0  0  0  0  0
   46.7480   32.6620   46.0620 C   0  0  0  0  0  0  0  0  0  0  0  0
   45.7360   33.4930   46.4300 N   0  0  0  0  0  0  0  0  0  0  0  0
   44.3800   34.9850   45.7780 H   0  0  0  0  0  0  0  0  0  0  0  0
   45.2290   34.9660   43.4210 H   0  0  0  0  0  0  0  0  0  0  0  0
   47.1020   33.3930   42.8430 H   0  0  0  0  0  0  0  0  0  0  0  0
  1  6  1  0  0  0  0
  2  1  1  0  0  0  0
  2  7  1  0  0  0  0
  3 10  1  0  0  0  0
  3  2  1  0  0  0  0
  3  4  1  0  0  0  0
  4 12  1  0  0  0  0
  4  5  1  0  0  0  0
  5 13  1  0  0  0  0
  5 14  1  0  0  0  0
  6  5  1  0  0  0  0
  6 15  1  1  0  0  0
  8  2  1  0  0  0  0
  9  3  1  0  0  0  0
 11  4  1  0  0  0  0
 16  6  1  0  0  0  0
 16 24  1  0  0  0  0
 17 18  1  0  0  0  0
 17 16  2  0  0  0  0
 18 19  1  0  0  0  0
 19 20  2  0  0  0  0
 19 24  1  0  0  0  0
 20 21  1  0  0  0  0
 21 22  2  0  0  0  0
 23 22  1  0  0  0  0
 24 23  2  0  0  0  0
 25 18  1  0  0  0  0
 26 27  2  0  0  0  0
 27 31  1  0  0  0  0
 27 28  1  0  0  0  0
 28 32  1  0  0  0  0
 29  1  1  0  0  0  0
 29 28  2  0  0  0  0
 30 26  1  0  0  0  0
 30 29  1  0  0  0  0
 33 39  1  0  0  0  0
 33 38  1  0  0  0  0
 34 33  2  0  0  0  0
 35 34  1  0  0  0  0
 35 36  2  0  0  0  0
 36 37  1  0  0  0  0
 37 38  2  0  0  0  0
 37 26  1  0  0  0  0
 40 34  1  0  0  0  0
 41 35  1  0  0  0  0
M  END
>  <minimizedAffinity>
-5.30807161

>  <minimizedRMSD>
2.58498883

$$$$
