
 OpenBabel03232520583D

 38 41  0  0  1  0  0  0  0  0999 V2000
   45.2420   32.8520   47.4180 C   0  0  0  0  0  0  0  0  0  0  0  0
   45.8710   32.5300   46.2580 C   0  0  0  0  0  0  0  0  0  0  0  0
   46.2840   31.2030   46.0970 C   0  0  0  0  0  0  0  0  0  0  0  0
   46.0690   30.3080   47.0560 N   0  0  0  0  0  0  0  0  0  0  0  0
   45.4350   30.6570   48.2260 C   0  0  0  0  0  0  0  0  0  0  0  0
   45.0250   31.9170   48.3980 N   0  0  0  0  0  0  0  0  0  0  0  0
   45.2640   29.6880   49.2650 N   0  0  0  0  0  0  0  0  0  0  0  0
   44.8720   33.8140   47.6680 H   0  0  0  0  0  0  0  0  0  0  0  0
   45.9630   29.6100   50.0280 H   0  0  0  0  0  0  0  0  0  0  0  0
   44.4340   29.0540   49.2540 H   0  0  0  0  0  0  0  0  0  0  0  0
   46.1170   33.5250   45.2500 C   0  0  2  0  0  0  0  0  0  0  0  0
   45.0430   34.6390   45.4330 C   0  0  0  0  0  0  0  0  0  0  0  0
   44.8440   35.5390   44.3330 C   0  0  0  0  0  0  0  0  0  0  0  0
   45.5970   35.4160   43.1080 C   0  0  1  0  0  0  0  0  0  0  0  0
   46.6820   34.4180   43.1080 C   0  0  0  0  0  0  0  0  0  0  0  0
   46.2500   33.1870   43.8700 C   0  0  0  0  0  0  0  0  0  0  0  0
   46.9840   34.1580   45.6450 H   0  0  0  0  0  0  0  0  0  0  0  0
   44.3880   34.8830   46.2600 H   0  0  0  0  0  0  0  0  0  0  0  0
   44.1000   36.3200   44.4430 H   0  0  0  0  0  0  0  0  0  0  0  0
   46.0360   36.4070   42.8590 H   0  0  0  0  0  0  0  0  0  0  0  0
   46.9250   34.1490   42.0360 H   0  0  0  0  0  0  0  0  0  0  0  0
   47.6380   34.7680   43.5690 H   0  0  0  0  0  0  0  0  0  0  0  0
   45.3150   32.8400   43.4070 H   0  0  0  0  0  0  0  0  0  0  0  0
   47.0690   32.5230   43.5580 H   0  0  0  0  0  0  0  0  0  0  0  0
   44.6000   35.1170   41.9570 C   0  0  0  0  0  0  0  0  0  0  0  0
   43.6180   34.2460   42.3250 F   0  0  0  0  0  0  0  0  0  0  0  0
   43.9670   36.3350   41.6800 F   0  0  0  0  0  0  0  0  0  0  0  0
   45.2970   34.7470   40.8200 F   0  0  0  0  0  0  0  0  0  0  0  0
   46.9610   30.5060   45.0210 C   0  0  0  0  0  0  0  0  0  0  0  0
   48.3310   30.4570   44.6680 C   0  0  0  0  0  3  0  0  0  0  0  0
   48.7370   29.7760   43.5340 C   0  0  0  0  0  3  0  0  0  0  0  0
   47.8230   29.1380   42.7380 C   0  0  0  0  0  3  0  0  0  0  0  0
   46.4920   29.1410   43.0120 C   0  0  0  0  0  0  0  0  0  0  0  0
   45.5890   28.4850   42.2020 C   0  0  0  0  0  3  0  0  0  0  0  0
   44.2470   28.4950   42.5070 C   0  0  0  0  0  3  0  0  0  0  0  0
   43.7800   29.1550   43.6180 C   0  0  0  0  0  3  0  0  0  0  0  0
   44.7200   29.7930   44.3920 C   0  0  0  0  0  3  0  0  0  0  0  0
   46.0810   29.8310   44.1590 C   0  0  0  0  0  0  0  0  0  0  0  0
  1  8  1  0  0  0  0
  1  6  1  0  0  0  0
  2  1  2  0  0  0  0
  3  2  1  0  0  0  0
  3  4  2  0  0  0  0
  4  5  1  0  0  0  0
  5  6  2  0  0  0  0
  5  7  1  0  0  0  0
  7  9  1  0  0  0  0
 10  7  1  0  0  0  0
 11 12  1  0  0  0  0
 11 17  1  1  0  0  0
 11  2  1  0  0  0  0
 12 18  1  0  0  0  0
 13 19  1  0  0  0  0
 13 12  2  0  0  0  0
 14 20  1  6  0  0  0
 14 15  1  0  0  0  0
 14 13  1  0  0  0  0
 15 22  1  0  0  0  0
 15 16  1  0  0  0  0
 16 11  1  0  0  0  0
 21 15  1  0  0  0  0
 23 16  1  0  0  0  0
 24 16  1  0  0  0  0
 25 26  1  0  0  0  0
 25 14  1  0  0  0  0
 27 25  1  0  0  0  0
 28 25  1  0  0  0  0
 29  3  1  0  0  0  0
 30 29  1  0  0  0  0
 31 30  2  0  0  0  0
 32 33  2  0  0  0  0
 32 31  1  0  0  0  0
 33 38  1  0  0  0  0
 34 35  2  0  0  0  0
 34 33  1  0  0  0  0
 35 36  1  0  0  0  0
 36 37  2  0  0  0  0
 38 37  1  0  0  0  0
 38 29  2  0  0  0  0
M  END
>  <minimizedAffinity>
-5.75306273

>  <minimizedRMSD>
0.73369813

$$$$
