
 OpenBabel03232520583D

 38 41  0  0  1  0  0  0  0  0999 V2000
   45.2420   32.8530   47.4190 C   0  0  0  0  0  0  0  0  0  0  0  0
   45.8710   32.5310   46.2590 C   0  0  0  0  0  0  0  0  0  0  0  0
   46.2840   31.2030   46.0980 C   0  0  0  0  0  0  0  0  0  0  0  0
   46.0690   30.3090   47.0570 N   0  0  0  0  0  0  0  0  0  0  0  0
   45.4350   30.6570   48.2270 C   0  0  0  0  0  0  0  0  0  0  0  0
   45.0250   31.9180   48.3990 N   0  0  0  0  0  0  0  0  0  0  0  0
   45.2640   29.6880   49.2650 N   0  0  0  0  0  0  0  0  0  0  0  0
   44.8720   33.8150   47.6700 H   0  0  0  0  0  0  0  0  0  0  0  0
   45.9630   29.6110   50.0290 H   0  0  0  0  0  0  0  0  0  0  0  0
   44.4340   29.0550   49.2550 H   0  0  0  0  0  0  0  0  0  0  0  0
   46.1160   33.5260   45.2510 C   0  0  2  0  0  0  0  0  0  0  0  0
   45.0420   34.6400   45.4340 C   0  0  0  0  0  0  0  0  0  0  0  0
   44.8430   35.5390   44.3340 C   0  0  0  0  0  0  0  0  0  0  0  0
   45.5960   35.4170   43.1090 C   0  0  1  0  0  0  0  0  0  0  0  0
   46.6820   34.4190   43.1090 C   0  0  0  0  0  0  0  0  0  0  0  0
   46.2500   33.1880   43.8710 C   0  0  0  0  0  0  0  0  0  0  0  0
   46.9830   34.1600   45.6470 H   0  0  0  0  0  0  0  0  0  0  0  0
   44.3860   34.8840   46.2600 H   0  0  0  0  0  0  0  0  0  0  0  0
   44.0990   36.3200   44.4440 H   0  0  0  0  0  0  0  0  0  0  0  0
   46.0350   36.4080   42.8600 H   0  0  0  0  0  0  0  0  0  0  0  0
   46.9250   34.1500   42.0370 H   0  0  0  0  0  0  0  0  0  0  0  0
   47.6380   34.7690   43.5710 H   0  0  0  0  0  0  0  0  0  0  0  0
   45.3160   32.8410   43.4080 H   0  0  0  0  0  0  0  0  0  0  0  0
   47.0700   32.5240   43.5600 H   0  0  0  0  0  0  0  0  0  0  0  0
   44.6010   35.1170   41.9570 C   0  0  0  0  0  0  0  0  0  0  0  0
   43.6190   34.2460   42.3250 F   0  0  0  0  0  0  0  0  0  0  0  0
   43.9660   36.3350   41.6810 F   0  0  0  0  0  0  0  0  0  0  0  0
   45.2980   34.7480   40.8210 F   0  0  0  0  0  0  0  0  0  0  0  0
   46.9610   30.5070   45.0220 C   0  0  0  0  0  0  0  0  0  0  0  0
   48.3310   30.4600   44.6680 C   0  0  0  0  0  3  0  0  0  0  0  0
   48.7370   29.7780   43.5350 C   0  0  0  0  0  3  0  0  0  0  0  0
   47.8240   29.1390   42.7390 C   0  0  0  0  0  3  0  0  0  0  0  0
   46.4930   29.1410   43.0120 C   0  0  0  0  0  0  0  0  0  0  0  0
   45.5890   28.4860   42.2040 C   0  0  0  0  0  3  0  0  0  0  0  0
   44.2470   28.4950   42.5070 C   0  0  0  0  0  3  0  0  0  0  0  0
   43.7800   29.1550   43.6190 C   0  0  0  0  0  3  0  0  0  0  0  0
   44.7200   29.7930   44.3930 C   0  0  0  0  0  3  0  0  0  0  0  0
   46.0810   29.8320   44.1600 C   0  0  0  0  0  0  0  0  0  0  0  0
  1  8  1  0  0  0  0
  1  6  1  0  0  0  0
  2  1  2  0  0  0  0
  3  2  1  0  0  0  0
  3  4  2  0  0  0  0
  4  5  1  0  0  0  0
  5  6  2  0  0  0  0
  5  7  1  0  0  0  0
  7  9  1  0  0  0  0
 10  7  1  0  0  0  0
 11 12  1  0  0  0  0
 11 17  1  1  0  0  0
 11  2  1  0  0  0  0
 12 18  1  0  0  0  0
 13 19  1  0  0  0  0
 13 12  2  0  0  0  0
 14 20  1  6  0  0  0
 14 15  1  0  0  0  0
 14 13  1  0  0  0  0
 15 22  1  0  0  0  0
 15 16  1  0  0  0  0
 16 11  1  0  0  0  0
 21 15  1  0  0  0  0
 23 16  1  0  0  0  0
 24 16  1  0  0  0  0
 25 26  1  0  0  0  0
 25 14  1  0  0  0  0
 27 25  1  0  0  0  0
 28 25  1  0  0  0  0
 29  3  1  0  0  0  0
 30 29  1  0  0  0  0
 31 30  2  0  0  0  0
 32 33  2  0  0  0  0
 32 31  1  0  0  0  0
 33 38  1  0  0  0  0
 34 35  2  0  0  0  0
 34 33  1  0  0  0  0
 35 36  1  0  0  0  0
 36 37  2  0  0  0  0
 38 37  1  0  0  0  0
 38 29  2  0  0  0  0
M  END
>  <minimizedAffinity>
-5.75267172

>  <minimizedRMSD>
0.71592319

$$$$
