
 OpenBabel03232520173D

 35 38  0  0  0  0  0  0  0  0999 V2000
   47.4050   34.0380   42.3050 C   0  0  0  0  0  0  0  0  0  0  0  0
   48.2150   35.1680   41.7500 C   0  0  0  0  0  0  0  0  0  0  0  0
   49.5940   35.4340   42.3210 C   0  0  0  0  0  0  0  0  0  0  0  0
   50.3730   34.1780   42.3890 C   0  0  0  0  0  0  0  0  0  0  0  0
   49.5890   32.9180   42.4370 C   0  0  0  0  0  0  0  0  0  0  0  0
   48.2710   33.2180   43.0940 C   0  0  0  0  0  0  0  0  0  0  0  0
   48.4960   34.9440   40.6530 H   0  0  0  0  0  0  0  0  0  0  0  0
   47.7400   36.1470   41.7410 H   0  0  0  0  0  0  0  0  0  0  0  0
   49.4980   35.9080   43.3200 H   0  0  0  0  0  0  0  0  0  0  0  0
   50.0750   36.1410   41.6540 H   0  0  0  0  0  0  0  0  0  0  0  0
   51.0180   34.1910   43.3120 H   0  0  0  0  0  0  0  0  0  0  0  0
   51.1240   34.0850   41.5570 H   0  0  0  0  0  0  0  0  0  0  0  0
   50.0840   32.1360   43.0600 H   0  0  0  0  0  0  0  0  0  0  0  0
   49.5130   32.5130   41.4210 H   0  0  0  0  0  0  0  0  0  0  0  0
   48.6360   34.0110   43.8740 H   0  0  0  0  0  0  0  0  0  0  0  0
   47.9730   32.5250   43.8740 H   0  0  0  0  0  0  0  0  0  0  0  0
   46.5090   33.6680   41.2330 C   0  0  0  0  0  0  0  0  0  0  0  0
   45.2190   33.1390   41.4750 C   0  0  0  0  0  0  0  0  0  0  0  0
   44.3310   32.6780   40.5330 C   0  0  0  0  0  0  0  0  0  0  0  0
   44.6870   32.7110   39.2220 C   0  0  0  0  0  0  0  0  0  0  0  0
   45.9180   33.2040   38.8590 C   0  0  0  0  0  0  0  0  0  0  0  0
   46.2490   33.2500   37.5240 C   0  0  0  0  0  0  0  0  0  0  0  0
   47.4620   33.7610   37.1120 C   0  0  0  0  0  0  0  0  0  0  0  0
   48.3110   34.2190   38.1290 C   0  0  0  0  0  0  0  0  0  0  0  0
   47.9210   34.1440   39.4320 C   0  0  0  0  0  0  0  0  0  0  0  0
   46.7330   33.6440   39.8780 C   0  0  0  0  0  0  0  0  0  0  0  0
   45.1770   34.4650   45.2890 C   0  0  0  0  0  0  0  0  0  0  0  0
   44.4960   35.6520   44.9950 C   0  0  0  0  0  0  0  0  0  0  0  0
   44.8320   36.2960   43.7870 C   0  0  0  0  0  0  0  0  0  0  0  0
   45.7870   35.7290   42.9880 N   0  0  0  0  0  0  0  0  0  0  0  0
   46.4260   34.5680   43.3090 C   0  0  0  0  0  0  0  0  0  0  0  0
   46.0940   33.9650   44.4710 N   0  0  0  0  0  0  0  0  0  0  0  0
   44.9830   33.8960   46.2040 H   0  0  0  0  0  0  0  0  0  0  0  0
   43.7630   35.9980   45.7040 H   0  0  0  0  0  0  0  0  0  0  0  0
   44.3210   37.1970   43.5560 H   0  0  0  0  0  0  0  0  0  0  0  0
  1  6  1  0  0  0  0
  1 31  1  0  0  0  0
  2  1  1  0  0  0  0
  2  3  1  0  0  0  0
  3  4  1  0  0  0  0
  3  9  1  0  0  0  0
  4  5  1  0  0  0  0
  4 11  1  0  0  0  0
  5 13  1  0  0  0  0
  5  6  1  0  0  0  0
  6 15  1  0  0  0  0
  6 16  1  0  0  0  0
  7  2  1  0  0  0  0
  8  2  1  0  0  0  0
 10  3  1  0  0  0  0
 12  4  1  0  0  0  0
 14  5  1  0  0  0  0
 17 18  1  0  0  0  0
 17  1  1  0  0  0  0
 19 18  2  0  0  0  0
 20 19  1  0  0  0  0
 21 20  2  0  0  0  0
 21 26  1  0  0  0  0
 22 21  1  0  0  0  0
 23 22  2  0  0  0  0
 23 24  1  0  0  0  0
 24 25  2  0  0  0  0
 25 26  1  0  0  0  0
 26 17  2  0  0  0  0
 27 33  1  0  0  0  0
 28 27  1  0  0  0  0
 28 34  1  0  0  0  0
 29 28  2  0  0  0  0
 30 31  2  0  0  0  0
 30 29  1  0  0  0  0
 31 32  1  0  0  0  0
 32 27  2  0  0  0  0
 35 29  1  0  0  0  0
M  END
>  <minimizedAffinity>
-6.69185305

>  <minimizedRMSD>
0.241235301

$$$$
