
 OpenBabel03232520513D

 33 36  0  0  1  0  0  0  0  0999 V2000
   46.3670   33.5770   45.3350 C   0  0  2  0  0  0  0  0  0  0  0  0
   45.1350   34.4020   45.0330 C   0  0  0  0  0  0  0  0  0  0  0  0
   45.0920   35.1260   43.7680 C   0  0  0  0  0  0  0  0  0  0  0  0
   46.2250   35.0310   42.8250 C   0  0  1  0  0  0  0  0  0  0  0  0
   47.4060   34.3030   43.3050 C   0  0  0  0  0  0  0  0  0  0  0  0
   46.9930   33.0780   44.0730 C   0  0  0  0  0  0  0  0  0  0  0  0
   47.0570   34.3310   45.7970 H   0  0  0  0  0  0  0  0  0  0  0  0
   44.2350   34.5590   45.6110 H   0  0  0  0  0  0  0  0  0  0  0  0
   44.2300   35.7060   43.5520 H   0  0  0  0  0  0  0  0  0  0  0  0
   46.5060   36.1040   42.6480 H   0  0  0  0  0  0  0  0  0  0  0  0
   47.9660   34.9680   43.9930 H   0  0  0  0  0  0  0  0  0  0  0  0
   48.0550   33.9500   42.5000 H   0  0  0  0  0  0  0  0  0  0  0  0
   47.9630   32.5790   44.3600 H   0  0  0  0  0  0  0  0  0  0  0  0
   46.3550   32.4080   43.4880 H   0  0  0  0  0  0  0  0  0  0  0  0
   45.6370   34.4340   41.5720 C   0  0  0  0  0  0  0  0  0  0  0  0
   46.4410   33.6090   40.7840 C   0  0  0  0  0  3  0  0  0  0  0  0
   46.0670   32.9760   39.6170 C   0  0  0  0  0  3  0  0  0  0  0  0
   44.7720   33.1910   39.2010 C   0  0  0  0  0  3  0  0  0  0  0  0
   43.9370   33.9970   39.9410 C   0  0  0  0  0  0  0  0  0  0  0  0
   42.6360   34.2130   39.5210 C   0  0  0  0  0  3  0  0  0  0  0  0
   41.7630   35.0270   40.2500 C   0  0  0  0  0  3  0  0  0  0  0  0
   42.2440   35.6220   41.4210 C   0  0  0  0  0  3  0  0  0  0  0  0
   43.5370   35.4220   41.8610 C   0  0  0  0  0  3  0  0  0  0  0  0
   44.3530   34.6090   41.1030 C   0  0  0  0  0  0  0  0  0  0  0  0
   45.3290   32.8560   47.4650 C   0  0  0  0  0  0  0  0  0  0  0  0
   46.0090   32.4930   46.2870 C   0  0  0  0  0  0  0  0  0  0  0  0
   46.3310   31.1250   46.0680 C   0  0  0  0  0  0  0  0  0  0  0  0
   45.9590   30.2390   47.0160 N   0  0  0  0  0  0  0  0  0  0  0  0
   45.3050   30.6110   48.1440 C   0  0  0  0  0  0  0  0  0  0  0  0
   44.9950   31.9030   48.3630 N   0  0  0  0  0  0  0  0  0  0  0  0
   45.0520   33.8720   47.7020 H   0  0  0  0  0  0  0  0  0  0  0  0
   46.8430   30.8800   45.1710 H   0  0  0  0  0  0  0  0  0  0  0  0
   45.0580   29.8080   48.8350 H   0  0  0  0  0  0  0  0  0  0  0  0
  1  7  1  1  0  0  0
  1 26  1  0  0  0  0
  2  1  1  0  0  0  0
  2  8  1  0  0  0  0
  3  2  2  0  0  0  0
  4 10  1  6  0  0  0
  4  5  1  0  0  0  0
  4  3  1  0  0  0  0
  5 11  1  0  0  0  0
  5  6  1  0  0  0  0
  6 13  1  0  0  0  0
  6  1  1  0  0  0  0
  9  3  1  0  0  0  0
 12  5  1  0  0  0  0
 14  6  1  0  0  0  0
 15  4  1  0  0  0  0
 16 15  2  0  0  0  0
 17 16  1  0  0  0  0
 18 17  2  0  0  0  0
 18 19  1  0  0  0  0
 19 24  1  0  0  0  0
 20 19  2  0  0  0  0
 20 21  1  0  0  0  0
 21 22  2  0  0  0  0
 22 23  1  0  0  0  0
 24 15  1  0  0  0  0
 24 23  2  0  0  0  0
 25 31  1  0  0  0  0
 25 30  1  0  0  0  0
 26 25  2  0  0  0  0
 27 26  1  0  0  0  0
 27 28  2  0  0  0  0
 28 29  1  0  0  0  0
 29 30  2  0  0  0  0
 29 33  1  0  0  0  0
 32 27  1  0  0  0  0
M  END
>  <minimizedAffinity>
-6.38344193

>  <minimizedRMSD>
1.71072316

$$$$
