
 OpenBabel03232518523D

 35 38  0  0  0  0  0  0  0  0999 V2000
   47.7020   32.9770   43.5620 C   0  0  0  0  0  0  0  0  0  0  0  0
   47.8400   31.7340   43.3970 O   0  0  0  0  0  0  0  0  0  0  0  0
   44.9260   35.1580   44.7070 C   0  0  0  0  0  0  0  0  0  0  0  0
   45.8950   34.6730   43.8390 C   0  0  0  0  0  0  0  0  0  0  0  0
   46.6660   33.6210   44.2850 C   0  0  0  0  0  0  0  0  0  0  0  0
   46.4440   33.1170   45.5310 N   0  0  0  0  0  0  0  0  0  0  0  0
   45.5250   33.5770   46.3530 C   0  0  0  0  0  0  0  0  0  0  0  0
   44.7840   34.5880   45.9270 N   0  0  0  0  0  0  0  0  0  0  0  0
   44.2930   35.9890   44.3980 H   0  0  0  0  0  0  0  0  0  0  0  0
   46.1000   35.2470   42.5040 C   0  0  0  0  0  0  0  0  0  0  0  0
   45.1590   36.2740   42.3490 F   0  0  0  0  0  0  0  0  0  0  0  0
   45.7480   34.3460   41.5200 F   0  0  0  0  0  0  0  0  0  0  0  0
   47.3580   35.7230   42.2960 F   0  0  0  0  0  0  0  0  0  0  0  0
   45.2590   33.1090   47.6150 O   0  0  0  0  0  0  0  0  0  0  0  0
   46.0940   32.1980   48.2820 C   0  0  0  0  0  0  0  0  0  0  0  0
   47.4040   32.6530   48.3470 F   0  0  0  0  0  0  0  0  0  0  0  0
   45.9970   30.9320   47.7640 F   0  0  0  0  0  0  0  0  0  0  0  0
   45.6730   32.1890   49.6250 F   0  0  0  0  0  0  0  0  0  0  0  0
   48.8410   33.2670   42.8290 O   0  0  0  0  0  0  0  0  0  0  0  0
   49.1570   32.7590   41.6070 C   0  0  0  0  0  0  0  0  0  0  0  0
   48.2110   32.6020   40.4550 C   0  0  0  0  0  0  0  0  0  0  0  0
   49.3160   31.8810   39.2210 S   0  0  0  0  0  0  0  0  0  0  0  0
   50.8000   31.9000   40.3600 C   0  0  0  0  0  0  0  0  0  0  0  0
   50.3830   32.3620   41.3770 N   0  0  0  0  0  0  0  0  0  0  0  0
   47.0730   32.8380   40.2600 H   0  0  0  0  0  0  0  0  0  0  0  0
   52.0350   31.3640   39.7420 C   0  0  0  0  0  0  0  0  0  0  0  0
   52.4340   31.6700   38.4570 C   0  0  0  0  0  0  0  0  0  0  0  0
   53.5850   31.1760   37.8740 C   0  0  0  0  0  0  0  0  0  0  0  0
   54.3780   30.3300   38.6170 C   0  0  0  0  0  0  0  0  0  0  0  0
   54.0340   29.9860   39.9070 C   0  0  0  0  0  0  0  0  0  0  0  0
   54.8520   29.1370   40.6230 C   0  0  0  0  0  0  0  0  0  0  0  0
   54.4970   28.7920   41.9340 C   0  0  0  0  0  0  0  0  0  0  0  0
   53.3180   29.3440   42.4280 C   0  0  0  0  0  0  0  0  0  0  0  0
   52.5310   30.1820   41.6900 C   0  0  0  0  0  0  0  0  0  0  0  0
   52.8660   30.5310   40.4020 C   0  0  0  0  0  0  0  0  0  0  0  0
  1  5  1  0  0  0  0
  2  1  2  0  0  0  0
  3  8  1  0  0  0  0
  4  5  1  0  0  0  0
  4  3  2  0  0  0  0
  5  6  2  0  0  0  0
  6  7  1  0  0  0  0
  7 14  1  0  0  0  0
  8  7  2  0  0  0  0
  9  3  1  0  0  0  0
 10  4  1  0  0  0  0
 11 10  1  0  0  0  0
 12 10  1  0  0  0  0
 13 10  1  0  0  0  0
 14 15  1  0  0  0  0
 15 16  1  0  0  0  0
 15 18  1  0  0  0  0
 17 15  1  0  0  0  0
 19  1  1  0  0  0  0
 20 19  1  0  0  0  0
 21 20  2  0  0  0  0
 22 23  1  0  0  0  0
 22 21  1  0  0  0  0
 23 24  2  0  0  0  0
 24 20  1  0  0  0  0
 25 21  1  0  0  0  0
 26 23  1  0  0  0  0
 26 35  1  0  0  0  0
 27 26  2  0  0  0  0
 28 27  1  0  0  0  0
 28 29  2  0  0  0  0
 29 30  1  0  0  0  0
 30 35  2  0  0  0  0
 30 31  1  0  0  0  0
 31 32  2  0  0  0  0
 32 33  1  0  0  0  0
 34 33  2  0  0  0  0
 35 34  1  0  0  0  0
M  END
>  <minimizedAffinity>
-6.2627368

>  <minimizedRMSD>
0.685331941

$$$$
