
 OpenBabel03232520583D

 38 41  0  0  1  0  0  0  0  0999 V2000
   45.2040   32.7440   47.6010 C   0  0  0  0  0  0  0  0  0  0  0  0
   45.8150   32.4190   46.4330 C   0  0  0  0  0  0  0  0  0  0  0  0
   46.1510   31.0750   46.2340 C   0  0  0  0  0  0  0  0  0  0  0  0
   45.8830   30.1670   47.1680 N   0  0  0  0  0  0  0  0  0  0  0  0
   45.2690   30.5190   48.3470 C   0  0  0  0  0  0  0  0  0  0  0  0
   44.9310   31.7960   48.5550 N   0  0  0  0  0  0  0  0  0  0  0  0
   45.0400   29.5330   49.3580 N   0  0  0  0  0  0  0  0  0  0  0  0
   44.8890   33.7180   47.8780 H   0  0  0  0  0  0  0  0  0  0  0  0
   45.7320   29.3940   50.1190 H   0  0  0  0  0  0  0  0  0  0  0  0
   44.1750   28.9490   49.3300 H   0  0  0  0  0  0  0  0  0  0  0  0
   46.1190   33.4260   45.4530 C   0  0  2  0  0  0  0  0  0  0  0  0
   45.0440   34.5440   45.5950 C   0  0  0  0  0  0  0  0  0  0  0  0
   44.9090   35.4600   44.4990 C   0  0  0  0  0  0  0  0  0  0  0  0
   45.7240   35.3500   43.3130 C   0  0  1  0  0  0  0  0  0  0  0  0
   46.8020   34.3440   43.3570 C   0  0  0  0  0  0  0  0  0  0  0  0
   46.3240   33.1060   44.0770 C   0  0  0  0  0  0  0  0  0  0  0  0
   46.9680   34.0480   45.9020 H   0  0  0  0  0  0  0  0  0  0  0  0
   44.3470   34.7820   46.3890 H   0  0  0  0  0  0  0  0  0  0  0  0
   44.1650   36.2450   44.5800 H   0  0  0  0  0  0  0  0  0  0  0  0
   46.1820   36.3410   43.1020 H   0  0  0  0  0  0  0  0  0  0  0  0
   47.1000   34.0890   42.2950 H   0  0  0  0  0  0  0  0  0  0  0  0
   47.7350   34.6820   43.8730 H   0  0  0  0  0  0  0  0  0  0  0  0
   45.4120   32.7720   43.5610 H   0  0  0  0  0  0  0  0  0  0  0  0
   47.1540   32.4410   43.8000 H   0  0  0  0  0  0  0  0  0  0  0  0
   44.7880   35.0720   42.1070 C   0  0  0  0  0  0  0  0  0  0  0  0
   43.8030   34.1780   42.4010 F   0  0  0  0  0  0  0  0  0  0  0  0
   44.1510   36.2900   41.8370 F   0  0  0  0  0  0  0  0  0  0  0  0
   45.5440   34.7470   40.9950 F   0  0  0  0  0  0  0  0  0  0  0  0
   46.7900   30.3710   45.1400 C   0  0  0  0  0  0  0  0  0  0  0  0
   46.3410   30.1060   43.8230 C   0  0  0  0  0  0  0  0  0  0  0  0
   47.1060   29.3340   42.9660 C   0  0  0  0  0  0  0  0  0  0  0  0
   48.3070   28.8180   43.3750 C   0  0  0  0  0  0  0  0  0  0  0  0
   48.8020   29.0290   44.6230 C   0  0  0  0  0  0  0  0  0  0  0  0
   50.0170   28.5060   45.0140 C   0  0  0  0  0  0  0  0  0  0  0  0
   50.5010   28.7410   46.2800 C   0  0  0  0  0  0  0  0  0  0  0  0
   49.7890   29.4990   47.1790 C   0  0  0  0  0  0  0  0  0  0  0  0
   48.5840   29.9970   46.7410 C   0  0  0  0  0  0  0  0  0  0  0  0
   48.0270   29.8080   45.4910 C   0  0  0  0  0  0  0  0  0  0  0  0
  1  8  1  0  0  0  0
  1  6  1  0  0  0  0
  2  1  2  0  0  0  0
  3  2  1  0  0  0  0
  3  4  2  0  0  0  0
  4  5  1  0  0  0  0
  5  6  2  0  0  0  0
  5  7  1  0  0  0  0
  7  9  1  0  0  0  0
 10  7  1  0  0  0  0
 11 12  1  0  0  0  0
 11 17  1  1  0  0  0
 11  2  1  0  0  0  0
 12 18  1  0  0  0  0
 13 19  1  0  0  0  0
 13 12  2  0  0  0  0
 14 20  1  6  0  0  0
 14 15  1  0  0  0  0
 14 13  1  0  0  0  0
 15 22  1  0  0  0  0
 15 16  1  0  0  0  0
 16 11  1  0  0  0  0
 21 15  1  0  0  0  0
 23 16  1  0  0  0  0
 24 16  1  0  0  0  0
 25 26  1  0  0  0  0
 25 14  1  0  0  0  0
 27 25  1  0  0  0  0
 28 25  1  0  0  0  0
 29 38  1  0  0  0  0
 29  3  1  0  0  0  0
 30 29  2  0  0  0  0
 31 32  2  0  0  0  0
 31 30  1  0  0  0  0
 32 33  1  0  0  0  0
 33 34  2  0  0  0  0
 33 38  1  0  0  0  0
 34 35  1  0  0  0  0
 35 36  2  0  0  0  0
 37 36  1  0  0  0  0
 38 37  2  0  0  0  0
M  END
>  <minimizedAffinity>
-5.9732585

>  <minimizedRMSD>
0.868658602

$$$$
