
 OpenBabel03232517183D

 47 53  0  0  1  0  0  0  0  0999 V2000
   48.3510   30.5990   48.8350 N   0  0  0  0  0  0  0  0  0  0  0  0
   49.2600   30.8030   49.8440 C   0  0  0  0  0  0  0  0  0  0  0  0
   49.9680   29.6320   49.9970 C   0  0  0  0  0  0  0  0  0  0  0  0
   49.4790   28.7370   49.0800 N   0  0  0  0  0  0  0  0  0  0  0  0
   48.5070   29.3350   48.3910 C   0  0  0  0  0  0  0  0  0  0  0  0
   49.2510   31.7750   50.2970 H   0  0  0  0  0  0  0  0  0  0  0  0
   50.7410   29.6120   50.7610 H   0  0  0  0  0  0  0  0  0  0  0  0
   46.3240   32.7310   46.8650 C   0  0  0  0  0  0  0  0  0  0  0  0
   45.5040   32.6310   47.9710 C   0  0  0  0  0  0  0  0  0  0  0  0
   46.1910   31.8050   48.8420 C   0  0  0  0  0  0  0  0  0  0  0  0
   47.3700   31.4440   48.2500 C   0  0  0  0  0  0  0  0  0  0  0  0
   47.3680   32.0310   47.0930 O   0  0  0  0  0  0  0  0  0  0  0  0
   44.5550   33.1400   48.0150 H   0  0  0  0  0  0  0  0  0  0  0  0
   45.7720   31.5480   49.8140 H   0  0  0  0  0  0  0  0  0  0  0  0
   46.6440   34.0860   43.5900 C   0  0  0  0  0  0  0  0  0  0  0  0
   45.5150   34.7470   44.0510 C   0  0  0  0  0  0  0  0  0  0  0  0
   45.2580   34.3100   45.3490 C   0  0  0  0  0  0  0  0  0  0  0  0
   46.2310   33.4080   45.6320 N   0  0  0  0  0  0  0  0  0  0  0  0
   47.0600   33.2580   44.6090 N   0  0  0  0  0  0  0  0  0  0  0  0
   44.9060   35.4730   43.5430 H   0  0  0  0  0  0  0  0  0  0  0  0
   44.4480   34.6200   46.0120 H   0  0  0  0  0  0  0  0  0  0  0  0
   48.6840   35.4050   40.8310 C   0  0  0  0  0  0  0  0  0  0  0  0
   48.1330   34.7390   39.7280 C   0  0  0  0  0  0  0  0  0  0  0  0
   47.0700   33.8450   39.9390 C   0  0  0  0  0  0  0  0  0  0  0  0
   46.6110   33.6610   41.2280 N   0  0  0  0  0  0  0  0  0  0  0  0
   47.1780   34.3270   42.2440 C   0  0  0  0  0  0  0  0  0  0  0  0
   48.1840   35.1760   42.0660 N   0  0  0  0  0  0  0  0  0  0  0  0
   49.5080   36.1080   40.7340 H   0  0  0  0  0  0  0  0  0  0  0  0
   48.5210   34.9130   38.7500 H   0  0  0  0  0  0  0  0  0  0  0  0
   46.6130   33.3070   39.1150 H   0  0  0  0  0  0  0  0  0  0  0  0
   47.7440   28.6180   47.2970 C   0  0  1  0  0  0  0  0  0  0  0  0
   47.6300   27.0890   47.5060 C   0  0  0  0  0  0  0  0  0  0  0  0
   46.4360   28.0110   47.5900 C   0  0  2  0  0  0  0  0  0  0  0  0
   48.0470   28.9320   46.2970 H   0  0  0  0  0  0  0  0  0  0  0  0
   48.0760   26.6790   48.4140 H   0  0  0  0  0  0  0  0  0  0  0  0
   47.7950   26.4830   46.5800 H   0  0  0  0  0  0  0  0  0  0  0  0
   46.0400   28.1030   48.6140 H   0  0  0  0  0  0  0  0  0  0  0  0
   45.4960   27.8260   46.4560 C   0  0  0  0  0  0  0  0  0  0  0  0
   45.8430   28.4530   45.2530 C   0  0  0  0  0  0  0  0  0  0  0  0
   45.0690   28.3160   44.1060 C   0  0  0  0  0  0  0  0  0  0  0  0
   43.9230   27.5520   44.1140 C   0  0  0  0  0  0  0  0  0  0  0  0
   43.5690   26.9300   45.2900 C   0  0  0  0  0  0  0  0  0  0  0  0
   42.4150   26.1510   45.3800 C   0  0  0  0  0  0  0  0  0  0  0  0
   42.0240   25.5210   46.5670 C   0  0  0  0  0  0  0  0  0  0  0  0
   42.8420   25.6970   47.6870 C   0  0  0  0  0  0  0  0  0  0  0  0
   43.9770   26.4710   47.5740 C   0  0  0  0  0  0  0  0  0  0  0  0
   44.3460   27.0760   46.4160 C   0  0  0  0  0  0  0  0  0  0  0  0
  1  2  1  0  0  0  0
  2  3  2  0  0  0  0
  2  6  1  0  0  0  0
  3  7  1  0  0  0  0
  4  3  1  0  0  0  0
  5  1  1  0  0  0  0
  5  4  2  0  0  0  0
  8 12  1  0  0  0  0
  8  9  2  0  0  0  0
  9 13  1  0  0  0  0
  9 10  1  0  0  0  0
 10 14  1  0  0  0  0
 11  1  1  0  0  0  0
 11 10  2  0  0  0  0
 12 11  1  0  0  0  0
 15 16  1  0  0  0  0
 15 19  2  0  0  0  0
 16 17  2  0  0  0  0
 17 18  1  0  0  0  0
 17 21  1  0  0  0  0
 18  8  1  0  0  0  0
 19 18  1  0  0  0  0
 20 16  1  0  0  0  0
 22 27  1  0  0  0  0
 23 24  1  0  0  0  0
 23 22  2  0  0  0  0
 24 25  2  0  0  0  0
 25 26  1  0  0  0  0
 26 15  1  0  0  0  0
 27 26  2  0  0  0  0
 28 22  1  0  0  0  0
 29 23  1  0  0  0  0
 30 24  1  0  0  0  0
 31 34  1  6  0  0  0
 31 32  1  0  0  0  0
 31 33  1  0  0  0  0
 31  5  1  0  0  0  0
 32 33  1  0  0  0  0
 32 35  1  0  0  0  0
 33 37  1  1  0  0  0
 36 32  1  0  0  0  0
 38 33  1  0  0  0  0
 39 38  2  0  0  0  0
 40 41  2  0  0  0  0
 40 39  1  0  0  0  0
 41 42  1  0  0  0  0
 42 43  2  0  0  0  0
 42 47  1  0  0  0  0
 43 44  1  0  0  0  0
 44 45  2  0  0  0  0
 46 45  1  0  0  0  0
 47 38  1  0  0  0  0
 47 46  2  0  0  0  0
M  END
>  <minimizedAffinity>
-6.95075655

>  <minimizedRMSD>
0.82505393

$$$$
