
 OpenBabel03232520293D

 44 48  0  0  1  0  0  0  0  0999 V2000
   46.9550   34.5400   41.4140 C   0  0  0  0  0  0  0  0  0  0  0  0
   48.2500   34.9410   41.1010 C   0  0  0  0  0  0  0  0  0  0  0  0
   48.5330   34.6300   39.8360 N   0  0  0  0  0  0  0  0  0  0  0  0
   47.4430   34.0350   39.3280 C   0  0  0  0  0  0  0  0  0  0  0  0
   47.2140   33.5230   38.0540 C   0  0  0  0  0  0  0  0  0  0  0  0
   45.9960   32.9540   37.7700 C   0  0  0  0  0  0  0  0  0  0  0  0
   44.9640   32.8530   38.6770 C   0  0  0  0  0  0  0  0  0  0  0  0
   45.2420   33.3780   39.9280 C   0  0  0  0  0  0  0  0  0  0  0  0
   46.4280   33.9560   40.2770 C   0  0  0  0  0  0  0  0  0  0  0  0
   49.4250   34.7910   39.2770 H   0  0  0  0  0  0  0  0  0  0  0  0
   47.9850   33.5700   37.2910 H   0  0  0  0  0  0  0  0  0  0  0  0
   45.8630   32.5680   36.7640 H   0  0  0  0  0  0  0  0  0  0  0  0
   44.0160   32.3990   38.4200 H   0  0  0  0  0  0  0  0  0  0  0  0
   44.4620   33.3300   40.6970 H   0  0  0  0  0  0  0  0  0  0  0  0
   44.7700   35.9280   44.0960 C   0  0  0  0  0  0  0  0  0  0  0  0
   45.4280   35.8050   42.8530 C   0  0  0  0  0  0  0  0  0  0  0  0
   46.2630   34.6940   42.6860 C   0  0  0  0  0  0  0  0  0  0  0  0
   46.4100   33.7810   43.7100 N   0  0  0  0  0  0  0  0  0  0  0  0
   45.7410   33.9720   44.8770 C   0  0  0  0  0  0  0  0  0  0  0  0
   44.9320   35.0240   45.0770 N   0  0  0  0  0  0  0  0  0  0  0  0
   44.1090   36.7710   44.2830 H   0  0  0  0  0  0  0  0  0  0  0  0
   45.2650   36.5480   42.1100 H   0  0  0  0  0  0  0  0  0  0  0  0
   45.9570   33.1810   45.5750 H   0  0  0  0  0  0  0  0  0  0  0  0
   49.1600   35.6120   42.0540 C   0  0  0  0  0  0  0  0  0  0  0  0
   48.5820   36.0760   42.8750 H   0  0  0  0  0  0  0  0  0  0  0  0
   49.6750   36.4220   41.5230 H   0  0  0  0  0  0  0  0  0  0  0  0
   50.1370   34.6530   42.6530 C   0  0  0  0  0  0  0  0  0  0  0  0
   51.1490   35.1550   42.6130 H   0  0  0  0  0  0  0  0  0  0  0  0
   49.9740   34.4700   43.7390 H   0  0  0  0  0  0  0  0  0  0  0  0
   50.2880   33.3600   41.8970 C   0  0  1  0  0  0  0  0  0  0  0  0
   50.8870   32.1750   42.4810 C   0  0  0  0  0  0  0  0  0  0  0  0
   49.3980   32.2240   42.4260 C   0  0  2  0  0  0  0  0  0  0  0  0
   50.2450   33.4410   40.7980 H   0  0  0  0  0  0  0  0  0  0  0  0
   51.4480   31.4910   41.7930 H   0  0  0  0  0  0  0  0  0  0  0  0
   51.3370   32.1660   43.4910 H   0  0  0  0  0  0  0  0  0  0  0  0
   48.8610   32.3700   43.3740 H   0  0  0  0  0  0  0  0  0  0  0  0
   48.8070   31.2660   41.4460 C   0  0  0  0  0  0  0  0  0  0  0  0
   47.5370   30.7480   41.5930 C   0  0  0  0  0  0  0  0  0  0  0  0
   47.0300   29.8580   40.6520 C   0  0  0  0  0  0  0  0  0  0  0  0
   46.0230   29.4490   40.7690 H   0  0  0  0  0  0  0  0  0  0  0  0
   47.8020   29.4770   39.5490 C   0  0  0  0  0  0  0  0  0  0  0  0
   49.0740   29.9910   39.3980 C   0  0  0  0  0  0  0  0  0  0  0  0
   49.6840   29.7060   38.5500 H   0  0  0  0  0  0  0  0  0  0  0  0
   49.5570   30.8810   40.3540 C   0  0  0  0  0  0  0  0  0  0  0  0
  1 17  1  0  0  0  0
  2  1  2  0  0  0  0
  2 24  1  0  0  0  0
  3  2  1  0  0  0  0
  4  3  1  0  0  0  0
  4  9  1  0  0  0  0
  5  4  2  0  0  0  0
  6  5  1  0  0  0  0
  6  7  2  0  0  0  0
  7  8  1  0  0  0  0
  8  9  2  0  0  0  0
  8 14  1  0  0  0  0
  9  1  1  0  0  0  0
 10  3  1  0  0  0  0
 11  5  1  0  0  0  0
 12  6  1  0  0  0  0
 13  7  1  0  0  0  0
 15 21  1  0  0  0  0
 15 20  1  0  0  0  0
 16 15  2  0  0  0  0
 17 16  1  0  0  0  0
 17 18  2  0  0  0  0
 18 19  1  0  0  0  0
 19 20  2  0  0  0  0
 19 23  1  0  0  0  0
 22 16  1  0  0  0  0
 24 27  1  0  0  0  0
 24 25  1  0  0  0  0
 26 24  1  0  0  0  0
 27 29  1  0  0  0  0
 28 27  1  0  0  0  0
 30 33  1  6  0  0  0
 30 32  1  0  0  0  0
 30 31  1  0  0  0  0
 30 27  1  0  0  0  0
 31 35  1  0  0  0  0
 32 31  1  0  0  0  0
 32 36  1  1  0  0  0
 34 31  1  0  0  0  0
 37 38  1  0  0  0  0
 37 32  1  0  0  0  0
 39 40  1  0  0  0  0
 39 38  2  0  0  0  0
 41 39  1  0  0  0  0
 42 41  2  0  0  0  0
 42 44  1  0  0  0  0
 43 42  1  0  0  0  0
 44 37  2  0  0  0  0
M  END
>  <minimizedAffinity>
-5.83476782

>  <minimizedRMSD>
0.503028691

$$$$
