
 OpenBabel03232520573D

 36 38  0  0  1  0  0  0  0  0999 V2000
   46.0760   33.6110   45.2770 C   0  0  2  0  0  0  0  0  0  0  0  0
   44.9590   34.7290   45.5010 C   0  0  0  0  0  0  0  0  0  0  0  0
   44.7340   35.6490   44.4130 C   0  0  0  0  0  0  0  0  0  0  0  0
   45.4850   35.5360   43.1810 C   0  0  1  0  0  0  0  0  0  0  0  0
   46.5450   34.5050   43.1350 C   0  0  0  0  0  0  0  0  0  0  0  0
   46.0360   33.2880   43.8950 C   0  0  0  0  0  0  0  0  0  0  0  0
   46.9230   34.3010   45.5780 H   0  0  0  0  0  0  0  0  0  0  0  0
   44.2830   34.9930   46.3080 H   0  0  0  0  0  0  0  0  0  0  0  0
   44.0140   36.4210   44.4740 H   0  0  0  0  0  0  0  0  0  0  0  0
   45.9340   36.5270   42.9260 H   0  0  0  0  0  0  0  0  0  0  0  0
   46.7860   34.2720   42.0970 H   0  0  0  0  0  0  0  0  0  0  0  0
   47.4880   34.8280   43.6250 H   0  0  0  0  0  0  0  0  0  0  0  0
   44.9160   33.2710   43.5890 H   0  0  0  0  0  0  0  0  0  0  0  0
   46.4360   32.4690   43.3710 H   0  0  0  0  0  0  0  0  0  0  0  0
   45.3350   32.9480   47.5450 C   0  0  0  0  0  0  0  0  0  0  0  0
   45.8440   32.6570   46.3140 C   0  0  0  0  0  0  0  0  0  0  0  0
   46.0850   31.3000   46.0680 C   0  0  0  0  0  0  0  0  0  0  0  0
   45.8320   30.3430   46.9800 N   0  0  0  0  0  0  0  0  0  0  0  0
   45.3190   30.6850   48.2130 C   0  0  0  0  0  0  0  0  0  0  0  0
   45.0810   31.9660   48.4740 N   0  0  0  0  0  0  0  0  0  0  0  0
   45.0940   29.6830   49.2070 N   0  0  0  0  0  0  0  0  0  0  0  0
   45.1220   33.9560   47.8220 H   0  0  0  0  0  0  0  0  0  0  0  0
   46.0260   29.4810   49.6570 H   0  0  0  0  0  0  0  0  0  0  0  0
   44.0990   29.3970   49.2550 H   0  0  0  0  0  0  0  0  0  0  0  0
   46.6640   30.5830   44.9410 C   0  0  0  0  0  0  0  0  0  0  0  0
   48.0180   30.5220   44.6700 C   0  0  0  0  0  3  0  0  0  0  0  0
   48.5380   29.9180   43.5460 C   0  0  0  0  0  0  0  0  0  0  0  0
   49.6210   29.8960   43.3750 H   0  0  0  0  0  0  0  0  0  0  0  0
   47.6720   29.3430   42.6460 C   0  0  0  0  0  3  0  0  0  0  0  0
   46.3190   29.3440   42.8130 C   0  0  0  0  0  0  0  0  0  0  0  0
   45.5990   28.9110   42.1440 H   0  0  0  0  0  0  0  0  0  0  0  0
   45.8740   29.9650   43.9570 C   0  0  0  0  0  3  0  0  0  0  0  0
   44.4680   35.2710   42.0410 C   0  0  0  0  0  0  0  0  0  0  0  0
   43.4160   34.4760   42.4360 F   0  0  0  0  0  0  0  0  0  0  0  0
   43.9280   36.5080   41.7040 F   0  0  0  0  0  0  0  0  0  0  0  0
   45.1260   34.8020   40.9180 F   0  0  0  0  0  0  0  0  0  0  0  0
  1  2  1  0  0  0  0
  1  7  1  1  0  0  0
  1 16  1  0  0  0  0
  2  8  1  0  0  0  0
  3  9  1  0  0  0  0
  3  2  2  0  0  0  0
  4 10  1  6  0  0  0
  4  3  1  0  0  0  0
  5  4  1  0  0  0  0
  5 12  1  0  0  0  0
  5  6  1  0  0  0  0
  6  1  1  0  0  0  0
 11  5  1  0  0  0  0
 13  6  1  0  0  0  0
 14  6  1  0  0  0  0
 15 22  1  0  0  0  0
 15 20  1  0  0  0  0
 16 15  2  0  0  0  0
 17 16  1  0  0  0  0
 17 18  2  0  0  0  0
 18 19  1  0  0  0  0
 19 20  2  0  0  0  0
 19 21  1  0  0  0  0
 21 24  1  0  0  0  0
 21 23  1  0  0  0  0
 25 17  1  0  0  0  0
 26 25  1  0  0  0  0
 27 26  2  0  0  0  0
 28 27  1  0  0  0  0
 29 30  2  0  0  0  0
 29 27  1  0  0  0  0
 30 32  1  0  0  0  0
 31 30  1  0  0  0  0
 32 25  2  0  0  0  0
 33 34  1  0  0  0  0
 33  4  1  0  0  0  0
 35 33  1  0  0  0  0
 36 33  1  0  0  0  0
M  END
>  <minimizedAffinity>
-5.70152807

>  <minimizedRMSD>
0.3771213

$$$$
