
 OpenBabel03232519573D

 24 26  0  0  0  0  0  0  0  0999 V2000
   43.8520   34.2570   41.6040 N   0  0  0  0  0  0  0  0  0  0  0  0
   44.4400   33.9480   40.4700 C   0  0  0  0  0  0  0  0  0  0  0  0
   43.5080   34.0970   39.4320 C   0  0  0  0  0  0  0  0  0  0  0  0
   42.3460   34.5030   39.9780 N   0  0  0  0  0  0  0  0  0  0  0  0
   42.5550   34.6030   41.3080 C   0  0  0  0  0  0  0  0  0  0  0  0
   43.5420   33.9580   38.3730 H   0  0  0  0  0  0  0  0  0  0  0  0
   41.7890   34.9130   42.0160 H   0  0  0  0  0  0  0  0  0  0  0  0
   44.1670   35.5250   43.6180 C   0  0  0  0  0  0  0  0  0  0  0  0
   44.3490   34.2960   42.8960 C   0  0  0  0  0  0  0  0  0  0  0  0
   44.9990   33.2940   43.5630 C   0  0  0  0  0  0  0  0  0  0  0  0
   45.4420   33.4700   44.8320 N   0  0  0  0  0  0  0  0  0  0  0  0
   45.2440   34.6580   45.4750 C   0  0  0  0  0  0  0  0  0  0  0  0
   44.6110   35.6730   44.8670 N   0  0  0  0  0  0  0  0  0  0  0  0
   43.6590   36.3570   43.1430 H   0  0  0  0  0  0  0  0  0  0  0  0
   45.2060   32.3340   43.1920 H   0  0  0  0  0  0  0  0  0  0  0  0
   45.6000   34.7870   46.4840 H   0  0  0  0  0  0  0  0  0  0  0  0
   45.7490   33.5560   40.0160 C   0  0  0  0  0  0  0  0  0  0  0  0
   46.8360   34.3060   40.5100 C   0  0  0  0  0  0  0  0  0  0  0  0
   48.1960   34.1810   40.2080 C   0  0  0  0  0  0  0  0  0  0  0  0
   48.9170   34.8340   40.6720 H   0  0  0  0  0  0  0  0  0  0  0  0
   48.4870   33.1840   39.3050 C   0  0  0  0  0  0  0  0  0  0  0  0
   47.5050   32.3910   38.7580 C   0  0  0  0  0  0  0  0  0  0  0  0
   47.6890   31.6000   38.0460 H   0  0  0  0  0  0  0  0  0  0  0  0
   46.2050   32.6090   39.1310 C   0  0  0  0  0  0  0  0  0  0  0  0
  1  9  1  0  0  0  0
  2  1  1  0  0  0  0
  3  4  1  0  0  0  0
  3  2  2  0  0  0  0
  4  5  2  0  0  0  0
  5  1  1  0  0  0  0
  5  7  1  0  0  0  0
  6  3  1  0  0  0  0
  8 13  1  0  0  0  0
  9 10  1  0  0  0  0
  9  8  2  0  0  0  0
 10 11  2  0  0  0  0
 11 12  1  0  0  0  0
 12 16  1  0  0  0  0
 13 12  2  0  0  0  0
 14  8  1  0  0  0  0
 15 10  1  0  0  0  0
 17  2  1  0  0  0  0
 17 18  1  0  0  0  0
 19 18  2  0  0  0  0
 19 20  1  0  0  0  0
 21 19  1  0  0  0  0
 22 24  1  0  0  0  0
 22 21  2  0  0  0  0
 23 22  1  0  0  0  0
 24 17  2  0  0  0  0
M  END
>  <minimizedAffinity>
-4.0871911

>  <minimizedRMSD>
1.27291477

$$$$
