
 OpenBabel03232520473D

 40 43  0  0  0  0  0  0  0  0999 V2000
   46.5390   34.4620   42.4880 C   0  0  0  0  0  0  0  0  0  0  0  0
   47.8460   34.8280   42.3720 C   0  0  0  0  0  0  0  0  0  0  0  0
   48.5200   34.7970   41.1390 C   0  0  0  0  0  0  0  0  0  0  0  0
   47.8380   34.3810   39.9960 C   0  0  0  0  0  0  0  0  0  0  0  0
   46.5220   34.0150   40.1160 C   0  0  0  0  0  0  0  0  0  0  0  0
   45.8880   34.0580   41.3540 C   0  0  0  0  0  0  0  0  0  0  0  0
   48.4370   35.1590   43.2100 H   0  0  0  0  0  0  0  0  0  0  0  0
   49.5480   35.0830   41.0420 H   0  0  0  0  0  0  0  0  0  0  0  0
   48.3050   34.3360   39.0150 H   0  0  0  0  0  0  0  0  0  0  0  0
   45.9710   33.6880   39.2440 H   0  0  0  0  0  0  0  0  0  0  0  0
   44.5240   33.6700   41.4350 N   0  0  0  0  0  0  0  0  0  0  0  0
   43.7130   34.6790   40.9810 C   0  0  0  0  0  0  0  0  0  0  0  0
   42.3220   34.5110   40.9710 C   0  0  0  0  0  0  0  0  0  0  0  0
   41.8150   33.3020   41.4330 C   0  0  0  0  0  0  0  0  0  0  0  0
   40.5760   33.0940   41.4480 O   0  0  0  0  0  0  0  0  0  0  0  0
   42.6590   32.3440   41.8680 N   0  0  0  0  0  0  0  0  0  0  0  0
   43.9850   32.5220   41.8710 C   0  0  0  0  0  0  0  0  0  0  0  0
   44.8400   31.6980   42.2520 O   0  0  0  0  0  0  0  0  0  0  0  0
   44.0220   35.6250   40.6140 H   0  0  0  0  0  0  0  0  0  0  0  0
   42.2900   31.4530   42.2090 H   0  0  0  0  0  0  0  0  0  0  0  0
   41.4010   35.5750   40.4890 C   0  0  0  0  0  0  0  0  0  0  0  0
   40.4980   35.7020   41.1040 H   0  0  0  0  0  0  0  0  0  0  0  0
   41.0760   35.3420   39.4480 H   0  0  0  0  0  0  0  0  0  0  0  0
   42.0050   36.5180   40.3780 H   0  0  0  0  0  0  0  0  0  0  0  0
   44.4950   35.4390   45.4880 C   0  0  0  0  0  0  0  0  0  0  0  0
   45.0090   35.4900   44.1970 C   0  0  0  0  0  0  0  0  0  0  0  0
   45.9300   34.5260   43.7940 C   0  0  0  0  0  0  0  0  0  0  0  0
   46.2700   33.5910   44.6910 N   0  0  0  0  0  0  0  0  0  0  0  0
   45.7560   33.5570   45.9510 C   0  0  0  0  0  0  0  0  0  0  0  0
   44.8740   34.4790   46.3410 N   0  0  0  0  0  0  0  0  0  0  0  0
   43.7810   36.2210   45.7380 H   0  0  0  0  0  0  0  0  0  0  0  0
   44.7350   36.2430   43.4770 H   0  0  0  0  0  0  0  0  0  0  0  0
   46.1730   32.5040   46.8800 C   0  0  0  0  0  0  0  0  0  0  0  0
   47.3030   32.6980   47.6660 C   0  0  0  0  0  3  0  0  0  0  0  0
   47.7430   31.7470   48.5560 C   0  0  0  0  0  0  0  0  0  0  0  0
   48.6400   31.9360   49.1600 H   0  0  0  0  0  0  0  0  0  0  0  0
   47.0330   30.5690   48.6630 C   0  0  0  0  0  3  0  0  0  0  0  0
   45.9090   30.3650   47.8870 C   0  0  0  0  0  0  0  0  0  0  0  0
   45.3370   29.4450   47.9580 H   0  0  0  0  0  0  0  0  0  0  0  0
   45.4700   31.3390   46.9860 C   0  0  0  0  0  3  0  0  0  0  0  0
  1 27  1  0  0  0  0
  2  1  1  0  0  0  0
  2  7  1  0  0  0  0
  3  2  2  0  0  0  0
  4  5  2  0  0  0  0
  4  3  1  0  0  0  0
  5  6  1  0  0  0  0
  6 11  1  0  0  0  0
  6  1  2  0  0  0  0
  8  3  1  0  0  0  0
  9  4  1  0  0  0  0
 10  5  1  0  0  0  0
 11 17  1  0  0  0  0
 12 11  1  0  0  0  0
 13 12  2  0  0  0  0
 13 14  1  0  0  0  0
 14 15  2  0  0  0  0
 14 16  1  0  0  0  0
 16 17  1  0  0  0  0
 16 20  1  0  0  0  0
 17 18  2  0  0  0  0
 19 12  1  0  0  0  0
 21 13  1  0  0  0  0
 21 22  1  0  0  0  0
 23 21  1  0  0  0  0
 24 21  1  0  0  0  0
 25 31  1  0  0  0  0
 25 30  1  0  0  0  0
 26 25  2  0  0  0  0
 27 26  1  0  0  0  0
 27 28  2  0  0  0  0
 28 29  1  0  0  0  0
 29 30  2  0  0  0  0
 29 33  1  0  0  0  0
 32 26  1  0  0  0  0
 33 40  2  0  0  0  0
 33 34  1  0  0  0  0
 34 35  2  0  0  0  0
 35 37  1  0  0  0  0
 35 36  1  0  0  0  0
 38 39  1  0  0  0  0
 38 37  2  0  0  0  0
 40 38  1  0  0  0  0
M  END
>  <minimizedAffinity>
-7.37661076

>  <minimizedRMSD>
0.632338643

$$$$
