
 OpenBabel03232510343D

 44 47  0  0  0  0  0  0  0  0999 V2000
   47.9780   32.2340   43.6520 C   0  0  0  0  0  0  0  0  0  0  0  0
   47.6240   31.1500   44.4400 C   0  0  0  0  0  0  0  0  0  0  0  0
   46.4730   31.2490   45.2190 C   0  0  0  0  0  0  0  0  0  0  0  0
   45.7490   32.4400   45.1520 N   0  0  0  0  0  0  0  0  0  0  0  0
   46.1300   33.4680   44.3700 C   0  0  0  0  0  0  0  0  0  0  0  0
   47.2460   33.3640   43.6210 N   0  0  0  0  0  0  0  0  0  0  0  0
   48.8710   32.2070   43.0260 H   0  0  0  0  0  0  0  0  0  0  0  0
   48.2560   30.2930   44.3620 H   0  0  0  0  0  0  0  0  0  0  0  0
   46.0380   30.1950   46.0530 N   0  0  0  0  0  0  0  0  0  0  0  0
   44.8790   29.5690   45.9050 N   0  0  0  0  0  0  0  0  0  0  0  0
   44.7580   28.6180   46.8690 C   0  0  0  0  0  0  0  0  0  0  0  0
   45.9200   28.7050   47.6160 C   0  0  0  0  0  0  0  0  0  0  0  0
   46.7090   29.7060   47.0810 C   0  0  0  0  0  0  0  0  0  0  0  0
   43.9040   27.9510   46.9880 H   0  0  0  0  0  0  0  0  0  0  0  0
   46.0430   28.0310   48.4500 H   0  0  0  0  0  0  0  0  0  0  0  0
   47.9520   29.9610   47.7470 C   0  0  0  0  0  0  0  0  0  0  0  0
   49.1840   29.2850   47.6530 C   0  0  0  0  0  0  0  0  0  0  0  0
   50.2980   29.6530   48.3700 C   0  0  0  0  0  0  0  0  0  0  0  0
   51.1900   29.0380   48.1990 H   0  0  0  0  0  0  0  0  0  0  0  0
   50.2650   30.7220   49.2360 C   0  0  0  0  0  0  0  0  0  0  0  0
   49.1010   31.4370   49.3870 C   0  0  0  0  0  0  0  0  0  0  0  0
   49.0550   32.2670   50.0510 H   0  0  0  0  0  0  0  0  0  0  0  0
   48.0220   31.0180   48.6400 C   0  0  0  0  0  0  0  0  0  0  0  0
   45.3430   34.6790   44.3210 C   0  0  0  0  0  0  0  0  0  0  0  0
   44.7450   35.1710   45.2930 O   0  0  0  0  0  0  0  0  0  0  0  0
   45.1960   35.4040   43.1320 O   0  0  0  0  0  0  0  0  0  0  0  0
   44.1940   34.9750   42.2290 C   0  0  0  0  0  0  0  0  0  0  0  0
   43.5100   35.7630   41.3350 C   0  0  0  0  0  0  0  0  0  0  0  0
   42.5830   35.1520   40.5530 C   0  0  0  0  0  0  0  0  0  0  0  0
   42.3380   33.8220   40.6430 N   0  0  0  0  0  0  0  0  0  0  0  0
   43.0220   33.0580   41.5310 C   0  0  0  0  0  0  0  0  0  0  0  0
   43.9680   33.6450   42.3390 N   0  0  0  0  0  0  0  0  0  0  0  0
   43.7760   36.8110   41.3370 H   0  0  0  0  0  0  0  0  0  0  0  0
   42.0370   35.7620   39.8450 H   0  0  0  0  0  0  0  0  0  0  0  0
   42.7890   31.5840   41.6410 C   0  0  0  0  0  0  0  0  0  0  0  0
   42.8930   31.1720   40.6140 H   0  0  0  0  0  0  0  0  0  0  0  0
   43.7600   30.9210   42.5620 C   0  0  0  0  0  0  0  0  0  0  0  0
   44.4310   31.6940   43.0340 H   0  0  0  0  0  0  0  0  0  0  0  0
   44.3450   30.1180   42.1040 H   0  0  0  0  0  0  0  0  0  0  0  0
   43.2100   30.4710   43.4230 H   0  0  0  0  0  0  0  0  0  0  0  0
   41.3630   31.2820   42.0710 C   0  0  0  0  0  0  0  0  0  0  0  0
   41.1700   31.8130   43.0140 H   0  0  0  0  0  0  0  0  0  0  0  0
   40.6720   31.6410   41.2650 H   0  0  0  0  0  0  0  0  0  0  0  0
   41.2620   30.1970   42.1080 H   0  0  0  0  0  0  0  0  0  0  0  0
  1  2  1  0  0  0  0
  2  3  2  0  0  0  0
  3  9  1  0  0  0  0
  4  3  1  0  0  0  0
  5  4  2  0  0  0  0
  6  1  2  0  0  0  0
  6  5  1  0  0  0  0
  7  1  1  0  0  0  0
  8  2  1  0  0  0  0
  9 13  1  0  0  0  0
 10  9  1  0  0  0  0
 10 11  2  0  0  0  0
 11 14  1  0  0  0  0
 11 12  1  0  0  0  0
 12 15  1  0  0  0  0
 13 12  2  0  0  0  0
 13 16  1  0  0  0  0
 16 23  1  0  0  0  0
 17 16  2  0  0  0  0
 17 18  1  0  0  0  0
 18 20  2  0  0  0  0
 19 18  1  0  0  0  0
 20 21  1  0  0  0  0
 21 22  1  0  0  0  0
 23 21  2  0  0  0  0
 24  5  1  0  0  0  0
 24 25  2  0  0  0  0
 26 24  1  0  0  0  0
 27 32  1  0  0  0  0
 27 26  1  0  0  0  0
 28 33  1  0  0  0  0
 28 27  2  0  0  0  0
 29 30  2  0  0  0  0
 29 28  1  0  0  0  0
 30 31  1  0  0  0  0
 31 35  1  0  0  0  0
 31 32  2  0  0  0  0
 34 29  1  0  0  0  0
 35 41  1  0  0  0  0
 35 37  1  0  0  0  0
 36 35  1  0  0  0  0
 37 38  1  0  0  0  0
 37 40  1  0  0  0  0
 39 37  1  0  0  0  0
 41 44  1  0  0  0  0
 41 42  1  0  0  0  0
 43 41  1  0  0  0  0
M  END
>  <minimizedAffinity>
-5.44205379

>  <minimizedRMSD>
2.13807178

$$$$
