
 OpenBabel03232520173D

 33 35  0  0  0  0  0  0  0  0999 V2000
   47.5400   33.9970   42.3150 C   0  0  0  0  0  0  0  0  0  0  0  0
   48.3450   35.1200   41.7060 C   0  0  0  0  0  0  0  0  0  0  0  0
   49.7030   35.3400   42.2540 C   0  0  0  0  0  0  0  0  0  0  0  0
   50.4670   34.0610   42.4710 C   0  0  0  0  0  0  0  0  0  0  0  0
   49.6480   32.8120   42.2930 C   0  0  0  0  0  0  0  0  0  0  0  0
   48.3690   33.0340   43.0800 C   0  0  0  0  0  0  0  0  0  0  0  0
   47.7600   36.0760   41.8570 H   0  0  0  0  0  0  0  0  0  0  0  0
   48.4260   35.0550   40.5920 H   0  0  0  0  0  0  0  0  0  0  0  0
   50.2710   35.9420   41.5260 H   0  0  0  0  0  0  0  0  0  0  0  0
   49.6500   35.9730   43.1870 H   0  0  0  0  0  0  0  0  0  0  0  0
   51.3690   33.9890   41.8130 H   0  0  0  0  0  0  0  0  0  0  0  0
   50.8380   34.0650   43.5180 H   0  0  0  0  0  0  0  0  0  0  0  0
   50.2090   31.9850   42.7710 H   0  0  0  0  0  0  0  0  0  0  0  0
   49.4350   32.6440   41.2170 H   0  0  0  0  0  0  0  0  0  0  0  0
   48.6800   33.5190   44.0200 H   0  0  0  0  0  0  0  0  0  0  0  0
   47.8520   32.1210   43.3330 H   0  0  0  0  0  0  0  0  0  0  0  0
   45.2630   34.4490   45.2050 C   0  0  0  0  0  0  0  0  0  0  0  0
   44.5270   35.6040   44.8330 C   0  0  0  0  0  0  0  0  0  0  0  0
   44.8260   36.2080   43.5970 C   0  0  0  0  0  0  0  0  0  0  0  0
   45.8030   35.6450   42.8370 N   0  0  0  0  0  0  0  0  0  0  0  0
   46.4790   34.5580   43.2110 C   0  0  0  0  0  0  0  0  0  0  0  0
   46.2110   33.9580   44.3950 N   0  0  0  0  0  0  0  0  0  0  0  0
   45.0950   33.9310   46.1330 H   0  0  0  0  0  0  0  0  0  0  0  0
   43.7730   35.9790   45.4960 H   0  0  0  0  0  0  0  0  0  0  0  0
   44.2790   37.0890   43.2900 H   0  0  0  0  0  0  0  0  0  0  0  0
   46.7960   33.3880   41.1670 C   0  0  0  0  0  0  0  0  0  0  0  0
   45.9620   32.3260   41.4940 C   0  0  0  0  0  0  0  0  0  0  0  0
   45.2270   31.6870   40.5160 C   0  0  0  0  0  0  0  0  0  0  0  0
   44.5490   30.8570   40.6350 H   0  0  0  0  0  0  0  0  0  0  0  0
   45.3310   32.1200   39.2050 C   0  0  0  0  0  0  0  0  0  0  0  0
   46.1620   33.1850   38.8570 C   0  0  0  0  0  0  0  0  0  0  0  0
   46.2510   33.5300   37.8360 H   0  0  0  0  0  0  0  0  0  0  0  0
   46.8870   33.8030   39.8660 C   0  0  0  0  0  0  0  0  0  0  0  0
  1  6  1  0  0  0  0
  1 21  1  0  0  0  0
  2  7  1  0  0  0  0
  2  3  1  0  0  0  0
  2  1  1  0  0  0  0
  3  4  1  0  0  0  0
  3 10  1  0  0  0  0
  4 12  1  0  0  0  0
  5  4  1  0  0  0  0
  5 13  1  0  0  0  0
  5  6  1  0  0  0  0
  6 16  1  0  0  0  0
  6 15  1  0  0  0  0
  8  2  1  0  0  0  0
  9  3  1  0  0  0  0
 11  4  1  0  0  0  0
 14  5  1  0  0  0  0
 17 23  1  0  0  0  0
 18 17  1  0  0  0  0
 18 24  1  0  0  0  0
 19 18  2  0  0  0  0
 20 21  2  0  0  0  0
 20 19  1  0  0  0  0
 21 22  1  0  0  0  0
 22 17  2  0  0  0  0
 25 19  1  0  0  0  0
 26 27  1  0  0  0  0
 26  1  1  0  0  0  0
 28 29  1  0  0  0  0
 28 27  2  0  0  0  0
 30 28  1  0  0  0  0
 31 30  2  0  0  0  0
 31 33  1  0  0  0  0
 32 31  1  0  0  0  0
 33 26  2  0  0  0  0
M  END
>  <minimizedAffinity>
-5.38432884

>  <minimizedRMSD>
0.467685372

$$$$
