
 OpenBabel03232520583D

 36 38  0  0  1  0  0  0  0  0999 V2000
   46.0760   33.6110   45.2750 C   0  0  2  0  0  0  0  0  0  0  0  0
   44.9590   34.7290   45.4990 C   0  0  0  0  0  0  0  0  0  0  0  0
   44.7340   35.6490   44.4110 C   0  0  0  0  0  0  0  0  0  0  0  0
   45.4850   35.5360   43.1780 C   0  0  1  0  0  0  0  0  0  0  0  0
   46.5440   34.5030   43.1330 C   0  0  0  0  0  0  0  0  0  0  0  0
   46.0340   33.2870   43.8930 C   0  0  0  0  0  0  0  0  0  0  0  0
   46.9240   34.3000   45.5750 H   0  0  0  0  0  0  0  0  0  0  0  0
   44.2840   34.9950   46.3070 H   0  0  0  0  0  0  0  0  0  0  0  0
   44.0150   36.4220   44.4720 H   0  0  0  0  0  0  0  0  0  0  0  0
   45.9340   36.5250   42.9230 H   0  0  0  0  0  0  0  0  0  0  0  0
   46.7830   34.2700   42.0950 H   0  0  0  0  0  0  0  0  0  0  0  0
   47.4880   34.8260   43.6220 H   0  0  0  0  0  0  0  0  0  0  0  0
   44.9140   33.2710   43.5890 H   0  0  0  0  0  0  0  0  0  0  0  0
   46.4330   32.4680   43.3690 H   0  0  0  0  0  0  0  0  0  0  0  0
   45.3350   32.9490   47.5440 C   0  0  0  0  0  0  0  0  0  0  0  0
   45.8430   32.6570   46.3130 C   0  0  0  0  0  0  0  0  0  0  0  0
   46.0840   31.3000   46.0680 C   0  0  0  0  0  0  0  0  0  0  0  0
   45.8310   30.3440   46.9800 N   0  0  0  0  0  0  0  0  0  0  0  0
   45.3180   30.6860   48.2130 C   0  0  0  0  0  0  0  0  0  0  0  0
   45.0810   31.9680   48.4730 N   0  0  0  0  0  0  0  0  0  0  0  0
   45.0930   29.6850   49.2080 N   0  0  0  0  0  0  0  0  0  0  0  0
   45.1220   33.9570   47.8200 H   0  0  0  0  0  0  0  0  0  0  0  0
   46.0260   29.4840   49.6580 H   0  0  0  0  0  0  0  0  0  0  0  0
   44.0980   29.3990   49.2560 H   0  0  0  0  0  0  0  0  0  0  0  0
   46.6630   30.5820   44.9410 C   0  0  0  0  0  0  0  0  0  0  0  0
   48.0170   30.5220   44.6710 C   0  0  0  0  0  3  0  0  0  0  0  0
   48.5380   29.9160   43.5480 C   0  0  0  0  0  0  0  0  0  0  0  0
   49.6210   29.8940   43.3780 H   0  0  0  0  0  0  0  0  0  0  0  0
   47.6730   29.3410   42.6480 C   0  0  0  0  0  3  0  0  0  0  0  0
   46.3190   29.3410   42.8130 C   0  0  0  0  0  0  0  0  0  0  0  0
   45.5990   28.9090   42.1440 H   0  0  0  0  0  0  0  0  0  0  0  0
   45.8740   29.9650   43.9570 C   0  0  0  0  0  3  0  0  0  0  0  0
   44.4670   35.2710   42.0390 C   0  0  0  0  0  0  0  0  0  0  0  0
   43.4150   34.4740   42.4350 F   0  0  0  0  0  0  0  0  0  0  0  0
   43.9260   36.5080   41.7040 F   0  0  0  0  0  0  0  0  0  0  0  0
   45.1230   34.8020   40.9160 F   0  0  0  0  0  0  0  0  0  0  0  0
  1  2  1  0  0  0  0
  1  7  1  1  0  0  0
  1 16  1  0  0  0  0
  2  8  1  0  0  0  0
  3  9  1  0  0  0  0
  3  2  2  0  0  0  0
  4 10  1  6  0  0  0
  4  3  1  0  0  0  0
  5  4  1  0  0  0  0
  5 12  1  0  0  0  0
  5  6  1  0  0  0  0
  6  1  1  0  0  0  0
 11  5  1  0  0  0  0
 13  6  1  0  0  0  0
 14  6  1  0  0  0  0
 15 22  1  0  0  0  0
 15 20  1  0  0  0  0
 16 15  2  0  0  0  0
 17 16  1  0  0  0  0
 17 18  2  0  0  0  0
 18 19  1  0  0  0  0
 19 20  2  0  0  0  0
 19 21  1  0  0  0  0
 21 24  1  0  0  0  0
 21 23  1  0  0  0  0
 25 17  1  0  0  0  0
 26 25  1  0  0  0  0
 27 26  2  0  0  0  0
 28 27  1  0  0  0  0
 29 30  2  0  0  0  0
 29 27  1  0  0  0  0
 30 32  1  0  0  0  0
 31 30  1  0  0  0  0
 32 25  2  0  0  0  0
 33 34  1  0  0  0  0
 33  4  1  0  0  0  0
 35 33  1  0  0  0  0
 36 33  1  0  0  0  0
M  END
>  <minimizedAffinity>
-5.70061922

>  <minimizedRMSD>
0.434965879

$$$$
