
 OpenBabel03232515013D

 24 26  0  0  0  0  0  0  0  0999 V2000
   44.5110   35.8370   44.6680 C   0  0  0  0  0  0  0  0  0  0  0  0
   45.1940   35.6890   43.4520 C   0  0  0  0  0  0  0  0  0  0  0  0
   46.1140   34.6450   43.3250 C   0  0  0  0  0  0  0  0  0  0  0  0
   46.2960   33.8320   44.3870 N   0  0  0  0  0  0  0  0  0  0  0  0
   45.6240   33.9930   45.5540 C   0  0  0  0  0  0  0  0  0  0  0  0
   44.7330   34.9870   45.7080 N   0  0  0  0  0  0  0  0  0  0  0  0
   45.8080   33.1370   46.6860 N   0  0  0  0  0  0  0  0  0  0  0  0
   46.9700   32.4310   46.7060 C   0  0  0  0  0  0  0  0  0  0  0  0
   46.9340   31.6850   47.8710 C   0  0  0  0  0  0  0  0  0  0  0  0
   45.7910   31.9380   48.5210 N   0  0  0  0  0  0  0  0  0  0  0  0
   45.1010   32.8200   47.8070 C   0  0  0  0  0  0  0  0  0  0  0  0
   43.7990   36.6530   44.7510 H   0  0  0  0  0  0  0  0  0  0  0  0
   45.0340   36.3530   42.6120 H   0  0  0  0  0  0  0  0  0  0  0  0
   46.6790   34.4540   42.4430 H   0  0  0  0  0  0  0  0  0  0  0  0
   47.8210   32.3700   46.0260 H   0  0  0  0  0  0  0  0  0  0  0  0
   44.1380   33.3380   47.8930 H   0  0  0  0  0  0  0  0  0  0  0  0
   47.9570   30.7600   48.3460 C   0  0  0  0  0  0  0  0  0  0  0  0
   48.6560   31.0730   49.4950 C   0  0  0  0  0  0  0  0  0  0  0  0
   49.6330   30.2430   49.9940 C   0  0  0  0  0  0  0  0  0  0  0  0
   50.2320   30.4000   50.8810 H   0  0  0  0  0  0  0  0  0  0  0  0
   49.9010   29.0610   49.2970 C   0  0  0  0  0  0  0  0  0  0  0  0
   49.2000   28.7440   48.1410 C   0  0  0  0  0  0  0  0  0  0  0  0
   49.3640   27.8460   47.5650 H   0  0  0  0  0  0  0  0  0  0  0  0
   48.2200   29.5930   47.6560 C   0  0  0  0  0  0  0  0  0  0  0  0
  1 12  1  0  0  0  0
  1  6  1  0  0  0  0
  2  1  2  0  0  0  0
  3  2  1  0  0  0  0
  3  4  2  0  0  0  0
  4  5  1  0  0  0  0
  5  6  2  0  0  0  0
  5  7  1  0  0  0  0
  7  8  1  0  0  0  0
  7 11  1  0  0  0  0
  8  9  2  0  0  0  0
  9 17  1  0  0  0  0
  9 10  1  0  0  0  0
 11 16  1  0  0  0  0
 11 10  2  0  0  0  0
 13  2  1  0  0  0  0
 14  3  1  0  0  0  0
 15  8  1  0  0  0  0
 17 18  1  0  0  0  0
 18 19  2  0  0  0  0
 19 20  1  0  0  0  0
 21 19  1  0  0  0  0
 22 21  2  0  0  0  0
 23 22  1  0  0  0  0
 24 22  1  0  0  0  0
 24 17  2  0  0  0  0
M  END
>  <minimizedAffinity>
-5.57980442

>  <minimizedRMSD>
0.0918851569

$$$$
