
 OpenBabel03232515453D

 42 45  0  0  0  0  0  0  0  0999 V2000
   47.3800   32.6890   39.8390 C   0  0  0  0  0  0  0  0  0  0  0  0
   48.2290   33.5550   39.1440 C   0  0  0  0  0  0  0  0  0  0  0  0
   48.4930   34.7680   39.7440 C   0  0  0  0  0  0  0  0  0  0  0  0
   48.0040   35.1570   40.9100 N   0  0  0  0  0  0  0  0  0  0  0  0
   47.1800   34.2970   41.5680 C   0  0  0  0  0  0  0  0  0  0  0  0
   46.8640   33.0820   41.0550 N   0  0  0  0  0  0  0  0  0  0  0  0
   46.6140   34.6370   42.8230 N   0  0  0  0  0  0  0  0  0  0  0  0
   45.7540   35.7760   43.0470 C   0  0  0  0  0  0  0  0  0  0  0  0
   44.7440   35.3390   44.0910 C   0  0  0  0  0  0  0  0  0  0  0  0
   44.4790   33.9190   44.0130 N   0  0  0  0  0  0  0  0  0  0  0  0
   45.5860   33.0750   44.2820 C   0  0  0  0  0  0  0  0  0  0  0  0
   46.8660   33.8390   44.0130 C   0  0  0  0  0  0  0  0  0  0  0  0
   48.6410   33.2620   38.1920 H   0  0  0  0  0  0  0  0  0  0  0  0
   49.1460   35.4660   39.2350 H   0  0  0  0  0  0  0  0  0  0  0  0
   45.2600   36.1130   42.1180 H   0  0  0  0  0  0  0  0  0  0  0  0
   46.3870   36.6060   43.4200 H   0  0  0  0  0  0  0  0  0  0  0  0
   43.7970   35.8610   43.8770 H   0  0  0  0  0  0  0  0  0  0  0  0
   45.1860   35.5990   45.0830 H   0  0  0  0  0  0  0  0  0  0  0  0
   43.5890   33.6650   44.4490 H   0  0  0  0  0  0  0  0  0  0  0  0
   45.5680   32.2520   43.5260 H   0  0  0  0  0  0  0  0  0  0  0  0
   45.5570   32.6110   45.2890 H   0  0  0  0  0  0  0  0  0  0  0  0
   47.0140   34.5030   44.8900 H   0  0  0  0  0  0  0  0  0  0  0  0
   47.7400   33.1640   43.8750 H   0  0  0  0  0  0  0  0  0  0  0  0
   47.0450   31.4260   39.3200 O   0  0  0  0  0  0  0  0  0  0  0  0
   46.1680   31.3690   38.2170 C   0  0  0  0  0  0  0  0  0  0  0  0
   46.5950   30.9750   37.1230 O   0  0  0  0  0  0  0  0  0  0  0  0
   43.9100   31.0420   39.2880 C   0  0  0  0  0  0  0  0  0  0  0  0
   44.7890   31.8010   38.5000 C   0  0  0  0  0  0  0  0  0  0  0  0
   44.3710   33.0040   37.9560 C   0  0  0  0  0  0  0  0  0  0  0  0
   43.0940   33.4230   38.2070 N   0  0  0  0  0  0  0  0  0  0  0  0
   42.2670   32.6600   38.9760 C   0  0  0  0  0  0  0  0  0  0  0  0
   42.6700   31.5110   39.4950 N   0  0  0  0  0  0  0  0  0  0  0  0
   44.2900   30.1180   39.6830 H   0  0  0  0  0  0  0  0  0  0  0  0
   44.9920   33.6360   37.3430 H   0  0  0  0  0  0  0  0  0  0  0  0
   40.9040   33.1450   39.2210 C   0  0  0  0  0  0  0  0  0  0  0  0
   40.3170   33.0150   40.4620 C   0  0  0  0  0  0  0  0  0  0  0  0
   39.0420   33.4480   40.7640 C   0  0  0  0  0  0  0  0  0  0  0  0
   38.5840   33.3440   41.7390 H   0  0  0  0  0  0  0  0  0  0  0  0
   38.3820   34.0340   39.7040 C   0  0  0  0  0  0  0  0  0  0  0  0
   38.8870   34.2080   38.4340 C   0  0  0  0  0  0  0  0  0  0  0  0
   38.2930   34.6820   37.6610 H   0  0  0  0  0  0  0  0  0  0  0  0
   40.1870   33.7460   38.1950 C   0  0  0  0  0  0  0  0  0  0  0  0
  1  6  1  0  0  0  0
  2  3  1  0  0  0  0
  2  1  2  0  0  0  0
  3  4  2  0  0  0  0
  4  5  1  0  0  0  0
  5  7  1  0  0  0  0
  6  5  2  0  0  0  0
  7  8  1  0  0  0  0
  7 12  1  0  0  0  0
  8 16  1  0  0  0  0
  8  9  1  0  0  0  0
  9 18  1  0  0  0  0
 10  9  1  0  0  0  0
 10 11  1  0  0  0  0
 10 19  1  0  0  0  0
 11 21  1  0  0  0  0
 12 11  1  0  0  0  0
 12 22  1  0  0  0  0
 13  2  1  0  0  0  0
 14  3  1  0  0  0  0
 15  8  1  0  0  0  0
 17  9  1  0  0  0  0
 20 11  1  0  0  0  0
 23 12  1  0  0  0  0
 24  1  1  0  0  0  0
 25 28  1  0  0  0  0
 25 24  1  0  0  0  0
 26 25  2  0  0  0  0
 27 32  1  0  0  0  0
 27 33  1  0  0  0  0
 28 27  2  0  0  0  0
 29 30  2  0  0  0  0
 29 28  1  0  0  0  0
 30 31  1  0  0  0  0
 31 35  1  0  0  0  0
 31 32  2  0  0  0  0
 34 29  1  0  0  0  0
 35 36  1  0  0  0  0
 36 37  2  0  0  0  0
 37 38  1  0  0  0  0
 39 37  1  0  0  0  0
 40 39  2  0  0  0  0
 41 40  1  0  0  0  0
 42 40  1  0  0  0  0
 42 35  2  0  0  0  0
M  END
>  <minimizedAffinity>
-5.69460917

>  <minimizedRMSD>
0.644318044

$$$$
