
 OpenBabel03232517523D

 19 20  0  0  0  0  0  0  0  0999 V2000
   44.9810   35.0560   44.2880 C   0  0  0  0  0  0  0  0  0  0  0  0
   46.0660   34.6710   43.5040 C   0  0  0  0  0  0  0  0  0  0  0  0
   46.9850   33.7570   44.0280 C   0  0  0  0  0  0  0  0  0  0  0  0
   46.7610   33.2940   45.2870 N   0  0  0  0  0  0  0  0  0  0  0  0
   45.7080   33.6870   46.0080 C   0  0  0  0  0  0  0  0  0  0  0  0
   44.8140   34.5650   45.5170 N   0  0  0  0  0  0  0  0  0  0  0  0
   43.9860   35.9690   43.8740 N   0  0  0  0  0  0  0  0  0  0  0  0
   46.1650   35.0800   42.5360 H   0  0  0  0  0  0  0  0  0  0  0  0
   45.5790   33.2810   47.0110 H   0  0  0  0  0  0  0  0  0  0  0  0
   43.2630   35.3710   43.4160 H   0  0  0  0  0  0  0  0  0  0  0  0
   43.9420   37.0240   43.9830 H   0  0  0  0  0  0  0  0  0  0  0  0
   48.1380   33.3220   43.2510 C   0  0  0  0  0  0  0  0  0  0  0  0
   48.3650   32.0430   42.7900 C   0  0  0  0  0  0  0  0  0  0  0  0
   49.4920   31.7530   42.0640 C   0  0  0  0  0  0  0  0  0  0  0  0
   49.6200   30.7190   41.7230 H   0  0  0  0  0  0  0  0  0  0  0  0
   50.4530   32.6920   41.7520 C   0  0  0  0  0  0  0  0  0  0  0  0
   50.2390   33.9860   42.2110 C   0  0  0  0  0  0  0  0  0  0  0  0
   50.9510   34.7840   42.0060 H   0  0  0  0  0  0  0  0  0  0  0  0
   49.0990   34.2590   42.9380 C   0  0  0  0  0  0  0  0  0  0  0  0
  1  6  1  0  0  0  0
  2  3  1  0  0  0  0
  2  1  2  0  0  0  0
  3  4  2  0  0  0  0
  4  5  1  0  0  0  0
  5  9  1  0  0  0  0
  6  5  2  0  0  0  0
  7 11  1  0  0  0  0
  7  1  1  0  0  0  0
  8  2  1  0  0  0  0
 10  7  1  0  0  0  0
 12  3  1  0  0  0  0
 13 12  2  0  0  0  0
 14 13  1  0  0  0  0
 15 14  1  0  0  0  0
 16 14  2  0  0  0  0
 16 17  1  0  0  0  0
 17 19  2  0  0  0  0
 18 17  1  0  0  0  0
 19 12  1  0  0  0  0
M  END
>  <minimizedAffinity>
-4.57486057

>  <minimizedRMSD>
0.980862677

$$$$
