
 OpenBabel03232520393D

 18 19  0  0  0  0  0  0  0  0999 V2000
   46.4790   33.5560   39.6340 C   0  0  0  0  0  0  0  0  0  0  0  0
   47.7380   34.1390   39.3670 C   0  0  0  0  0  0  0  0  0  0  0  0
   48.3580   34.8980   40.3490 C   0  0  0  0  0  0  0  0  0  0  0  0
   47.7260   35.0600   41.5490 N   0  0  0  0  0  0  0  0  0  0  0  0
   46.5130   34.4840   41.7720 C   0  0  0  0  0  0  0  0  0  0  0  0
   45.9000   33.7440   40.8280 N   0  0  0  0  0  0  0  0  0  0  0  0
   46.0070   32.9660   38.8570 H   0  0  0  0  0  0  0  0  0  0  0  0
   49.3320   35.3590   40.1670 H   0  0  0  0  0  0  0  0  0  0  0  0
   45.9000   34.7070   43.0940 C   0  0  0  0  0  0  0  0  0  0  0  0
   45.1340   35.8390   43.2620 C   0  0  0  0  0  0  0  0  0  0  0  0
   44.5610   36.0380   44.5140 C   0  0  0  0  0  0  0  0  0  0  0  0
   43.9560   36.9350   44.6390 H   0  0  0  0  0  0  0  0  0  0  0  0
   44.7500   35.1420   45.5460 C   0  0  0  0  0  0  0  0  0  0  0  0
   45.5390   34.0140   45.3070 C   0  0  0  0  0  0  0  0  0  0  0  0
   45.6670   33.3290   46.1400 H   0  0  0  0  0  0  0  0  0  0  0  0
   46.1390   33.7650   44.0690 C   0  0  0  0  0  0  0  0  0  0  0  0
   48.5370   33.8970   37.7610 S   0  0  0  0  0  0  0  0  0  0  0  0
   47.6150   34.0150   36.7110 H   0  0  0  0  0  0  0  0  0  0  0  0
  1  6  1  0  0  0  0
  2  1  2  0  0  0  0
  2  3  1  0  0  0  0
  3  4  2  0  0  0  0
  4  5  1  0  0  0  0
  5  9  1  0  0  0  0
  6  5  2  0  0  0  0
  7  1  1  0  0  0  0
  8  3  1  0  0  0  0
  9 10  2  0  0  0  0
  9 16  1  0  0  0  0
 10 11  1  0  0  0  0
 11 12  1  0  0  0  0
 11 13  2  0  0  0  0
 14 13  1  0  0  0  0
 14 15  1  0  0  0  0
 16 14  2  0  0  0  0
 17  2  1  0  0  0  0
 18 17  1  0  0  0  0
M  END
>  <minimizedAffinity>
-4.50528669

>  <minimizedRMSD>
4.86882114

$$$$
