
 OpenBabel03232518223D

 49 52  0  0  1  0  0  0  0  0999 V2000
   42.5560   34.3430   39.1570 C   0  0  0  0  0  0  0  0  0  0  0  0
   44.8630   34.5950   42.0290 C   0  0  2  0  0  0  0  0  0  0  0  0
   43.4130   34.2660   41.5060 C   0  0  0  0  0  0  0  0  0  0  0  0
   43.7100   34.6170   40.0460 C   0  0  1  0  0  0  0  0  0  0  0  0
   44.9350   33.7810   39.8250 C   0  0  0  0  0  0  0  0  0  0  0  0
   45.6770   33.8010   41.1620 C   0  0  0  0  0  0  0  0  0  0  0  0
   44.9300   35.6870   41.7740 H   0  0  0  0  0  0  0  0  0  0  0  0
   42.8210   35.0410   42.0260 H   0  0  0  0  0  0  0  0  0  0  0  0
   43.1600   33.2380   41.6870 H   0  0  0  0  0  0  0  0  0  0  0  0
   43.9810   35.6740   40.0120 H   0  0  0  0  0  0  0  0  0  0  0  0
   44.7290   32.7250   39.5860 H   0  0  0  0  0  0  0  0  0  0  0  0
   45.5290   34.1830   39.0060 H   0  0  0  0  0  0  0  0  0  0  0  0
   45.9740   32.7990   41.4720 H   0  0  0  0  0  0  0  0  0  0  0  0
   46.6530   34.3340   40.9540 H   0  0  0  0  0  0  0  0  0  0  0  0
   44.4750   35.5050   44.2550 C   0  0  0  0  0  0  0  0  0  0  0  0
   44.9540   34.4610   43.4750 C   0  0  0  0  0  0  0  0  0  0  0  0
   45.5470   33.2910   44.0800 C   0  0  0  0  0  0  0  0  0  0  0  0
   45.6160   33.2560   45.4420 N   0  0  0  0  0  0  0  0  0  0  0  0
   45.1320   34.3090   46.2000 C   0  0  0  0  0  0  0  0  0  0  0  0
   44.5710   35.4130   45.6230 N   0  0  0  0  0  0  0  0  0  0  0  0
   44.0420   36.3590   43.7940 H   0  0  0  0  0  0  0  0  0  0  0  0
   45.9070   32.5040   43.4660 H   0  0  0  0  0  0  0  0  0  0  0  0
   45.2160   34.2190   47.2790 H   0  0  0  0  0  0  0  0  0  0  0  0
   42.3660   35.4280   38.1530 C   0  0  0  0  0  0  0  0  0  0  0  0
   41.9980   35.0200   37.1910 H   0  0  0  0  0  0  0  0  0  0  0  0
   41.7630   36.2900   38.5240 H   0  0  0  0  0  0  0  0  0  0  0  0
   43.3810   35.8540   37.9250 H   0  0  0  0  0  0  0  0  0  0  0  0
   42.9110   33.0890   38.3900 C   0  0  0  0  0  0  0  0  0  0  0  0
   42.7900   32.1690   38.9800 H   0  0  0  0  0  0  0  0  0  0  0  0
   42.1620   32.9970   37.5580 H   0  0  0  0  0  0  0  0  0  0  0  0
   43.8850   33.1650   37.8670 H   0  0  0  0  0  0  0  0  0  0  0  0
   41.3320   34.0420   39.9350 C   0  0  0  0  0  0  0  0  0  0  0  0
   41.4370   34.0050   41.0110 H   0  0  0  0  0  0  0  0  0  0  0  0
   40.8710   33.0430   39.6680 H   0  0  0  0  0  0  0  0  0  0  0  0
   40.2520   35.0440   39.6080 C   0  0  2  0  0  0  0  0  0  0  0  0
   39.1480   35.3640   40.5250 C   0  0  0  0  0  0  0  0  0  0  0  0
   38.8130   34.4780   39.4020 C   0  0  2  0  0  0  0  0  0  0  0  0
   40.5940   35.8440   38.9390 H   0  0  0  0  0  0  0  0  0  0  0  0
   39.2490   34.9940   41.5650 H   0  0  0  0  0  0  0  0  0  0  0  0
   38.7640   36.4250   40.5320 H   0  0  0  0  0  0  0  0  0  0  0  0
   38.3440   34.9840   38.5040 H   0  0  0  0  0  0  0  0  0  0  0  0
   38.5960   33.0320   39.5580 C   0  0  0  0  0  0  0  0  0  0  0  0
   38.6320   32.2220   38.4410 C   0  0  0  0  0  0  0  0  0  0  0  0
   38.4200   30.8480   38.5310 C   0  0  0  0  0  0  0  0  0  0  0  0
   38.4390   30.1740   37.6780 H   0  0  0  0  0  0  0  0  0  0  0  0
   38.1670   30.2510   39.7270 C   0  0  0  0  0  0  0  0  0  0  0  0
   38.1240   31.0250   40.8610 C   0  0  0  0  0  0  0  0  0  0  0  0
   37.9220   30.5770   41.8430 H   0  0  0  0  0  0  0  0  0  0  0  0
   38.3370   32.3830   40.7430 C   0  0  0  0  0  0  0  0  0  0  0  0
  1 32  1  0  0  0  0
  1  4  1  0  0  0  0
  2  7  1  6  0  0  0
  2 16  1  0  0  0  0
  3  9  1  0  0  0  0
  3  8  1  0  0  0  0
  3  2  1  0  0  0  0
  4 10  1  6  0  0  0
  4  3  1  0  0  0  0
  5  4  1  0  0  0  0
  5  6  1  0  0  0  0
  6 13  1  0  0  0  0
  6  2  1  0  0  0  0
 11  5  1  0  0  0  0
 12  5  1  0  0  0  0
 14  6  1  0  0  0  0
 15 20  1  0  0  0  0
 16 17  1  0  0  0  0
 16 15  2  0  0  0  0
 17 18  2  0  0  0  0
 18 19  1  0  0  0  0
 19 23  1  0  0  0  0
 20 19  2  0  0  0  0
 21 15  1  0  0  0  0
 22 17  1  0  0  0  0
 24 26  1  0  0  0  0
 24  1  1  0  0  0  0
 25 24  1  0  0  0  0
 27 24  1  0  0  0  0
 28 29  1  0  0  0  0
 28  1  1  0  0  0  0
 30 28  1  0  0  0  0
 31 28  1  0  0  0  0
 32 33  1  0  0  0  0
 34 32  1  0  0  0  0
 35 38  1  6  0  0  0
 35 32  1  0  0  0  0
 35 36  1  0  0  0  0
 36 40  1  0  0  0  0
 36 39  1  0  0  0  0
 37 41  1  6  0  0  0
 37 42  1  0  0  0  0
 37 35  1  0  0  0  0
 37 36  1  0  0  0  0
 42 49  1  0  0  0  0
 43 44  1  0  0  0  0
 43 42  2  0  0  0  0
 44 46  2  0  0  0  0
 45 44  1  0  0  0  0
 46 47  1  0  0  0  0
 47 48  1  0  0  0  0
 49 47  2  0  0  0  0
M  END
>  <minimizedAffinity>
-6.02946138

>  <minimizedRMSD>
1.34113479

$$$$
