
 OpenBabel03232520573D

 36 38  0  0  1  0  0  0  0  0999 V2000
   46.1150   33.5750   45.3350 C   0  0  2  0  0  0  0  0  0  0  0  0
   44.9680   34.6660   45.5400 C   0  0  0  0  0  0  0  0  0  0  0  0
   44.7460   35.5860   44.4510 C   0  0  0  0  0  0  0  0  0  0  0  0
   45.5260   35.4970   43.2350 C   0  0  1  0  0  0  0  0  0  0  0  0
   46.6090   34.4890   43.2080 C   0  0  0  0  0  0  0  0  0  0  0  0
   46.1110   33.2580   43.9510 C   0  0  0  0  0  0  0  0  0  0  0  0
   46.9390   34.2820   45.6580 H   0  0  0  0  0  0  0  0  0  0  0  0
   44.2690   34.9120   46.3340 H   0  0  0  0  0  0  0  0  0  0  0  0
   44.0080   36.3420   44.5000 H   0  0  0  0  0  0  0  0  0  0  0  0
   45.9580   36.4980   42.9950 H   0  0  0  0  0  0  0  0  0  0  0  0
   46.8770   34.2670   42.1750 H   0  0  0  0  0  0  0  0  0  0  0  0
   47.5340   34.8310   43.7200 H   0  0  0  0  0  0  0  0  0  0  0  0
   44.9980   33.2170   43.6220 H   0  0  0  0  0  0  0  0  0  0  0  0
   46.5400   32.4500   43.4320 H   0  0  0  0  0  0  0  0  0  0  0  0
   45.3800   32.8920   47.6000 C   0  0  0  0  0  0  0  0  0  0  0  0
   45.8810   32.6110   46.3640 C   0  0  0  0  0  0  0  0  0  0  0  0
   46.1140   31.2560   46.1020 C   0  0  0  0  0  0  0  0  0  0  0  0
   45.8590   30.2900   47.0040 N   0  0  0  0  0  0  0  0  0  0  0  0
   45.3540   30.6220   48.2430 C   0  0  0  0  0  0  0  0  0  0  0  0
   45.1250   31.9010   48.5190 N   0  0  0  0  0  0  0  0  0  0  0  0
   45.1280   29.6100   49.2280 N   0  0  0  0  0  0  0  0  0  0  0  0
   45.1730   33.8980   47.8880 H   0  0  0  0  0  0  0  0  0  0  0  0
   46.0610   29.3990   49.6710 H   0  0  0  0  0  0  0  0  0  0  0  0
   44.1310   29.3300   49.2770 H   0  0  0  0  0  0  0  0  0  0  0  0
   46.6840   30.5470   44.9650 C   0  0  0  0  0  0  0  0  0  0  0  0
   45.9450   29.8150   44.0560 C   0  0  0  0  0  3  0  0  0  0  0  0
   46.5130   29.0730   43.0420 C   0  0  0  0  0  0  0  0  0  0  0  0
   45.8820   28.5070   42.3440 H   0  0  0  0  0  0  0  0  0  0  0  0
   47.8820   29.0570   42.9240 C   0  0  0  0  0  3  0  0  0  0  0  0
   48.7090   29.7430   43.7650 C   0  0  0  0  0  0  0  0  0  0  0  0
   49.7810   29.7650   43.7180 H   0  0  0  0  0  0  0  0  0  0  0  0
   48.0700   30.4590   44.7520 C   0  0  0  0  0  3  0  0  0  0  0  0
   44.5400   35.2150   42.0720 C   0  0  0  0  0  0  0  0  0  0  0  0
   43.5090   34.3760   42.4360 F   0  0  0  0  0  0  0  0  0  0  0  0
   43.9620   36.4370   41.7450 F   0  0  0  0  0  0  0  0  0  0  0  0
   45.2330   34.7860   40.9550 F   0  0  0  0  0  0  0  0  0  0  0  0
  1  2  1  0  0  0  0
  1  7  1  1  0  0  0
  1 16  1  0  0  0  0
  2  8  1  0  0  0  0
  3  9  1  0  0  0  0
  3  2  2  0  0  0  0
  4 10  1  6  0  0  0
  4  3  1  0  0  0  0
  5  4  1  0  0  0  0
  5 12  1  0  0  0  0
  5  6  1  0  0  0  0
  6  1  1  0  0  0  0
 11  5  1  0  0  0  0
 13  6  1  0  0  0  0
 14  6  1  0  0  0  0
 15 22  1  0  0  0  0
 15 20  1  0  0  0  0
 16 15  2  0  0  0  0
 17 16  1  0  0  0  0
 17 18  2  0  0  0  0
 18 19  1  0  0  0  0
 19 20  2  0  0  0  0
 19 21  1  0  0  0  0
 21 24  1  0  0  0  0
 21 23  1  0  0  0  0
 25 17  1  0  0  0  0
 26 25  2  0  0  0  0
 27 26  1  0  0  0  0
 28 27  1  0  0  0  0
 29 27  2  0  0  0  0
 29 30  1  0  0  0  0
 30 32  2  0  0  0  0
 31 30  1  0  0  0  0
 32 25  1  0  0  0  0
 33 34  1  0  0  0  0
 33  4  1  0  0  0  0
 35 33  1  0  0  0  0
 36 33  1  0  0  0  0
M  END
>  <minimizedAffinity>
-5.70440006

>  <minimizedRMSD>
0.397077084

$$$$
