
 OpenBabel03232520483D

 40 43  0  0  0  0  0  0  0  0999 V2000
   46.4540   34.6340   42.2120 C   0  0  0  0  0  0  0  0  0  0  0  0
   47.7570   35.0060   42.0760 C   0  0  0  0  0  0  0  0  0  0  0  0
   48.4530   34.8500   40.8660 C   0  0  0  0  0  0  0  0  0  0  0  0
   47.7970   34.2990   39.7650 C   0  0  0  0  0  0  0  0  0  0  0  0
   46.4850   33.9270   39.9040 C   0  0  0  0  0  0  0  0  0  0  0  0
   45.8280   34.0960   41.1190 C   0  0  0  0  0  0  0  0  0  0  0  0
   48.3280   35.4370   42.8820 H   0  0  0  0  0  0  0  0  0  0  0  0
   49.4790   35.1410   40.7540 H   0  0  0  0  0  0  0  0  0  0  0  0
   48.2820   34.1540   38.8030 H   0  0  0  0  0  0  0  0  0  0  0  0
   45.9540   33.4960   39.0650 H   0  0  0  0  0  0  0  0  0  0  0  0
   44.4690   33.6970   41.2220 N   0  0  0  0  0  0  0  0  0  0  0  0
   43.6490   34.6580   40.6870 C   0  0  0  0  0  0  0  0  0  0  0  0
   42.2600   34.4710   40.6820 C   0  0  0  0  0  0  0  0  0  0  0  0
   41.7650   33.2940   41.2310 C   0  0  0  0  0  0  0  0  0  0  0  0
   40.5290   33.0700   41.2540 O   0  0  0  0  0  0  0  0  0  0  0  0
   42.6180   32.3820   41.7430 N   0  0  0  0  0  0  0  0  0  0  0  0
   43.9420   32.5790   41.7390 C   0  0  0  0  0  0  0  0  0  0  0  0
   44.8050   31.7970   42.1880 O   0  0  0  0  0  0  0  0  0  0  0  0
   43.9480   35.5780   40.2520 H   0  0  0  0  0  0  0  0  0  0  0  0
   42.2590   31.5150   42.1480 H   0  0  0  0  0  0  0  0  0  0  0  0
   41.3280   35.4830   40.1150 C   0  0  0  0  0  0  0  0  0  0  0  0
   40.4200   35.6440   40.7130 H   0  0  0  0  0  0  0  0  0  0  0  0
   41.0130   35.1670   39.0920 H   0  0  0  0  0  0  0  0  0  0  0  0
   41.9210   36.4220   39.9360 H   0  0  0  0  0  0  0  0  0  0  0  0
   44.4140   35.9580   45.0790 C   0  0  0  0  0  0  0  0  0  0  0  0
   44.9600   35.8820   43.8020 C   0  0  0  0  0  0  0  0  0  0  0  0
   45.8200   34.8320   43.4930 C   0  0  0  0  0  0  0  0  0  0  0  0
   46.0740   33.9420   44.4620 N   0  0  0  0  0  0  0  0  0  0  0  0
   45.5310   34.0330   45.7070 C   0  0  0  0  0  0  0  0  0  0  0  0
   44.7060   35.0380   46.0070 N   0  0  0  0  0  0  0  0  0  0  0  0
   43.7510   36.8020   45.2540 H   0  0  0  0  0  0  0  0  0  0  0  0
   44.7550   36.5980   43.0240 H   0  0  0  0  0  0  0  0  0  0  0  0
   45.8530   33.0240   46.7180 C   0  0  0  0  0  0  0  0  0  0  0  0
   46.9870   32.2360   46.5590 C   0  0  0  0  0  0  0  0  0  0  0  0
   47.3420   31.2750   47.4740 C   0  0  0  0  0  0  0  0  0  0  0  0
   48.2450   30.6730   47.3140 H   0  0  0  0  0  0  0  0  0  0  0  0
   46.5370   31.0930   48.5810 C   0  0  0  0  0  0  0  0  0  0  0  0
   45.4070   31.8690   48.7490 C   0  0  0  0  0  0  0  0  0  0  0  0
   44.7620   31.7410   49.6140 H   0  0  0  0  0  0  0  0  0  0  0  0
   45.0560   32.8450   47.8130 C   0  0  0  0  0  0  0  0  0  0  0  0
  1 27  1  0  0  0  0
  2  1  1  0  0  0  0
  2  7  1  0  0  0  0
  3  2  2  0  0  0  0
  4  5  2  0  0  0  0
  4  3  1  0  0  0  0
  5  6  1  0  0  0  0
  6 11  1  0  0  0  0
  6  1  2  0  0  0  0
  8  3  1  0  0  0  0
  9  4  1  0  0  0  0
 10  5  1  0  0  0  0
 11 17  1  0  0  0  0
 12 11  1  0  0  0  0
 13 12  2  0  0  0  0
 13 14  1  0  0  0  0
 14 15  2  0  0  0  0
 14 16  1  0  0  0  0
 16 20  1  0  0  0  0
 17 16  1  0  0  0  0
 17 18  2  0  0  0  0
 19 12  1  0  0  0  0
 21 13  1  0  0  0  0
 21 22  1  0  0  0  0
 23 21  1  0  0  0  0
 24 21  1  0  0  0  0
 25 31  1  0  0  0  0
 25 30  1  0  0  0  0
 26 25  2  0  0  0  0
 27 26  1  0  0  0  0
 27 28  2  0  0  0  0
 28 29  1  0  0  0  0
 29 30  2  0  0  0  0
 29 33  1  0  0  0  0
 32 26  1  0  0  0  0
 33 40  1  0  0  0  0
 34 33  2  0  0  0  0
 34 35  1  0  0  0  0
 35 37  2  0  0  0  0
 36 35  1  0  0  0  0
 37 38  1  0  0  0  0
 38 39  1  0  0  0  0
 40 38  2  0  0  0  0
M  END
>  <minimizedAffinity>
-7.92559433

>  <minimizedRMSD>
0.357936978

$$$$
