
 OpenBabel03232515403D

 28 30  0  0  0  0  0  0  0  0999 V2000
   46.5970   34.4690   41.2070 C   0  0  0  0  0  0  0  0  0  0  0  0
   47.0370   33.7610   40.1060 C   0  0  0  0  0  0  0  0  0  0  0  0
   46.0670   33.2330   39.2810 C   0  0  0  0  0  0  0  0  0  0  0  0
   44.7540   33.3580   39.4720 N   0  0  0  0  0  0  0  0  0  0  0  0
   44.3460   34.0550   40.5580 C   0  0  0  0  0  0  0  0  0  0  0  0
   45.2510   34.6100   41.4240 N   0  0  0  0  0  0  0  0  0  0  0  0
   48.0750   33.6370   39.9150 H   0  0  0  0  0  0  0  0  0  0  0  0
   46.3430   32.6630   38.3940 H   0  0  0  0  0  0  0  0  0  0  0  0
   42.9270   34.2450   40.8510 C   0  0  0  0  0  0  0  0  0  0  0  0
   42.1090   33.1370   40.9600 C   0  0  0  0  0  0  0  0  0  0  0  0
   40.7460   33.2830   41.2390 C   0  0  0  0  0  0  0  0  0  0  0  0
   40.0520   32.4470   41.3370 H   0  0  0  0  0  0  0  0  0  0  0  0
   40.2580   34.5720   41.3990 C   0  0  0  0  0  0  0  0  0  0  0  0
   41.0360   35.7180   41.3000 C   0  0  0  0  0  0  0  0  0  0  0  0
   40.6190   36.7040   41.4320 H   0  0  0  0  0  0  0  0  0  0  0  0
   42.3840   35.5080   41.0210 C   0  0  0  0  0  0  0  0  0  0  0  0
   47.5050   35.0520   42.1170 O   0  0  0  0  0  0  0  0  0  0  0  0
   48.3120   34.1790   42.9010 C   0  0  0  0  0  0  0  0  0  0  0  0
   49.5450   34.2450   42.8040 O   0  0  0  0  0  0  0  0  0  0  0  0
   46.6030   33.6860   44.7030 C   0  0  0  0  0  0  0  0  0  0  0  0
   47.5580   33.2550   43.7740 C   0  0  0  0  0  0  0  0  0  0  0  0
   47.8460   31.9010   43.6280 C   0  0  0  0  0  0  0  0  0  0  0  0
   47.1590   31.0160   44.4290 N   0  0  0  0  0  0  0  0  0  0  0  0
   46.2500   31.4640   45.3090 C   0  0  0  0  0  0  0  0  0  0  0  0
   45.9730   32.7720   45.4480 N   0  0  0  0  0  0  0  0  0  0  0  0
   46.4840   34.7700   44.7050 H   0  0  0  0  0  0  0  0  0  0  0  0
   48.5530   31.4750   42.9520 H   0  0  0  0  0  0  0  0  0  0  0  0
   45.6680   30.8440   45.9730 H   0  0  0  0  0  0  0  0  0  0  0  0
  1  6  1  0  0  0  0
  1 17  1  0  0  0  0
  2  1  2  0  0  0  0
  3  4  2  0  0  0  0
  3  2  1  0  0  0  0
  4  5  1  0  0  0  0
  5  9  1  0  0  0  0
  5  6  2  0  0  0  0
  7  2  1  0  0  0  0
  8  3  1  0  0  0  0
  9 10  2  0  0  0  0
  9 16  1  0  0  0  0
 10 11  1  0  0  0  0
 11 12  1  0  0  0  0
 11 13  2  0  0  0  0
 14 13  1  0  0  0  0
 14 15  1  0  0  0  0
 16 14  2  0  0  0  0
 17 18  1  0  0  0  0
 18 21  1  0  0  0  0
 19 18  2  0  0  0  0
 20 26  1  0  0  0  0
 20 25  1  0  0  0  0
 21 20  2  0  0  0  0
 22 21  1  0  0  0  0
 22 23  2  0  0  0  0
 23 24  1  0  0  0  0
 24 25  2  0  0  0  0
 24 28  1  0  0  0  0
 27 22  1  0  0  0  0
M  END
>  <minimizedAffinity>
-4.85838795

>  <minimizedRMSD>
6.8348031

$$$$
