
 OpenBabel03232520543D

 35 37  0  0  1  0  0  0  0  0999 V2000
   46.0750   33.6600   45.3400 C   0  0  2  0  0  0  0  0  0  0  0  0
   44.9030   34.6860   45.4690 C   0  0  0  0  0  0  0  0  0  0  0  0
   44.6900   35.5710   44.3570 C   0  0  0  0  0  0  0  0  0  0  0  0
   45.5210   35.4980   43.1640 C   0  0  1  0  0  0  0  0  0  0  0  0
   46.6430   34.5540   43.1960 C   0  0  0  0  0  0  0  0  0  0  0  0
   46.2660   33.3170   43.9570 C   0  0  0  0  0  0  0  0  0  0  0  0
   46.8830   34.3700   45.7260 H   0  0  0  0  0  0  0  0  0  0  0  0
   44.1680   34.9260   46.2040 H   0  0  0  0  0  0  0  0  0  0  0  0
   43.9230   36.3050   44.3410 H   0  0  0  0  0  0  0  0  0  0  0  0
   45.9120   36.5110   42.9380 H   0  0  0  0  0  0  0  0  0  0  0  0
   46.8420   34.2130   42.1420 H   0  0  0  0  0  0  0  0  0  0  0  0
   47.6190   34.9530   43.5560 H   0  0  0  0  0  0  0  0  0  0  0  0
   47.1140   32.6340   43.7320 H   0  0  0  0  0  0  0  0  0  0  0  0
   45.3620   32.8780   43.4970 H   0  0  0  0  0  0  0  0  0  0  0  0
   45.2640   32.9340   47.5190 C   0  0  0  0  0  0  0  0  0  0  0  0
   45.8810   32.6590   46.3420 C   0  0  0  0  0  0  0  0  0  0  0  0
   46.2980   31.3370   46.1340 C   0  0  0  0  0  0  0  0  0  0  0  0
   46.1020   30.3940   47.0540 N   0  0  0  0  0  0  0  0  0  0  0  0
   45.4740   30.6920   48.2450 C   0  0  0  0  0  0  0  0  0  0  0  0
   45.0660   31.9440   48.4610 N   0  0  0  0  0  0  0  0  0  0  0  0
   45.2770   29.6740   49.2240 N   0  0  0  0  0  0  0  0  0  0  0  0
   44.9290   33.9390   47.7140 H   0  0  0  0  0  0  0  0  0  0  0  0
   44.3050   29.3350   49.0780 H   0  0  0  0  0  0  0  0  0  0  0  0
   46.1220   29.5210   49.8250 H   0  0  0  0  0  0  0  0  0  0  0  0
   46.8770   30.6400   45.0320 N   0  0  0  0  0  0  0  0  0  0  0  0
   47.6120   29.3780   44.8730 C   0  0  0  0  0  0  0  0  0  0  0  0
   48.9840   29.6100   44.3010 C   0  0  0  0  0  0  0  0  0  0  0  0
   48.9320   30.3110   42.9620 C   0  0  0  0  0  0  0  0  0  0  0  0
   48.2780   29.6940   42.2790 H   0  0  0  0  0  0  0  0  0  0  0  0
   48.1810   31.6050   43.1990 C   0  0  0  0  0  0  0  0  0  0  0  0
   46.8170   31.2110   43.6810 C   0  0  0  0  0  0  0  0  0  0  0  0
   44.5990   35.1530   41.9780 C   0  0  0  0  0  0  0  0  0  0  0  0
   43.6060   34.2510   42.3180 F   0  0  0  0  0  0  0  0  0  0  0  0
   43.9380   36.3330   41.6230 F   0  0  0  0  0  0  0  0  0  0  0  0
   45.3320   34.7510   40.8860 F   0  0  0  0  0  0  0  0  0  0  0  0
  1  2  1  0  0  0  0
  1  7  1  1  0  0  0
  1 16  1  0  0  0  0
  2  8  1  0  0  0  0
  3  2  2  0  0  0  0
  4 10  1  6  0  0  0
  4  5  1  0  0  0  0
  4  3  1  0  0  0  0
  5 12  1  0  0  0  0
  5  6  1  0  0  0  0
  6  1  1  0  0  0  0
  9  3  1  0  0  0  0
 11  5  1  0  0  0  0
 13  6  1  0  0  0  0
 14  6  1  0  0  0  0
 15 22  1  0  0  0  0
 15 20  1  0  0  0  0
 16 15  2  0  0  0  0
 17 16  1  0  0  0  0
 17 18  2  0  0  0  0
 18 19  1  0  0  0  0
 19 20  2  0  0  0  0
 19 21  1  0  0  0  0
 21 24  1  0  0  0  0
 23 21  1  0  0  0  0
 25 17  1  0  0  0  0
 26 25  1  0  0  0  0
 27 26  1  0  0  0  0
 28 30  1  0  0  0  0
 28 27  1  0  0  0  0
 29 28  1  0  0  0  0
 30 31  1  0  0  0  0
 31 25  1  0  0  0  0
 32 33  1  0  0  0  0
 32  4  1  0  0  0  0
 34 32  1  0  0  0  0
 35 32  1  0  0  0  0
M  END
>  <minimizedAffinity>
-5.92496824

>  <minimizedRMSD>
0.137828901

$$$$
