
 OpenBabel03232519263D

 38 40  0  0  1  0  0  0  0  0999 V2000
   46.9030   34.2500   40.3940 C   0  0  1  0  0  0  0  0  0  0  0  0
   48.0120   33.9330   39.4090 C   0  0  0  0  0  0  0  0  0  0  0  0
   47.3320   33.5400   38.1100 C   0  0  0  0  0  0  0  0  0  0  0  0
   46.6150   32.2290   38.3010 C   0  0  0  0  0  0  0  0  0  0  0  0
   46.5340   31.8610   39.7540 C   0  0  0  0  0  0  0  0  0  0  0  0
   46.0990   33.0140   40.6510 C   0  0  2  0  0  0  0  0  0  0  0  0
   46.3480   35.0780   39.9510 H   0  0  0  0  0  0  0  0  0  0  0  0
   48.6410   34.8460   39.2520 H   0  0  0  0  0  0  0  0  0  0  0  0
   48.7060   33.1520   39.7430 H   0  0  0  0  0  0  0  0  0  0  0  0
   48.0980   33.3880   37.2990 H   0  0  0  0  0  0  0  0  0  0  0  0
   46.6580   34.3220   37.7670 H   0  0  0  0  0  0  0  0  0  0  0  0
   45.6200   32.2120   37.8470 H   0  0  0  0  0  0  0  0  0  0  0  0
   47.1820   31.3930   37.8110 H   0  0  0  0  0  0  0  0  0  0  0  0
   45.8780   31.0020   39.9200 H   0  0  0  0  0  0  0  0  0  0  0  0
   47.5600   31.5090   40.0560 H   0  0  0  0  0  0  0  0  0  0  0  0
   46.3810   32.6330   41.6550 H   0  0  0  0  0  0  0  0  0  0  0  0
   44.7140   33.1360   40.5320 N   0  0  0  0  0  0  0  0  0  0  0  0
   44.1400   34.1650   39.7760 C   0  0  0  0  0  0  0  0  0  0  0  0
   43.2650   35.0830   40.6260 C   0  0  0  0  0  0  0  0  0  0  0  0
   42.2730   34.3090   41.4350 C   0  0  0  0  0  0  0  0  0  0  0  0
   42.2840   34.5480   42.5190 H   0  0  0  0  0  0  0  0  0  0  0  0
   42.4350   32.8470   41.1640 C   0  0  0  0  0  0  0  0  0  0  0  0
   43.8630   32.3710   41.3580 C   0  0  0  0  0  0  0  0  0  0  0  0
   47.5040   34.8140   41.6930 C   0  0  0  0  0  0  0  0  0  0  0  0
   48.6320   34.8030   41.5080 H   0  0  0  0  0  0  0  0  0  0  0  0
   47.2750   35.8520   41.8610 H   0  0  0  0  0  0  0  0  0  0  0  0
   47.1920   33.8380   42.7840 C   0  0  0  0  0  0  0  0  0  0  0  0
   48.1290   33.5000   43.3200 H   0  0  0  0  0  0  0  0  0  0  0  0
   46.7220   32.8900   42.4640 H   0  0  0  0  0  0  0  0  0  0  0  0
   46.0930   33.7620   44.9610 C   0  0  0  0  0  0  0  0  0  0  0  0
   46.2610   34.4060   43.7230 C   0  0  0  0  0  0  0  0  0  0  0  0
   45.5330   35.5380   43.4440 C   0  0  0  0  0  0  0  0  0  0  0  0
   44.6690   35.9870   44.4000 N   0  0  0  0  0  0  0  0  0  0  0  0
   44.5040   35.3690   45.5960 C   0  0  0  0  0  0  0  0  0  0  0  0
   45.2210   34.2520   45.8720 N   0  0  0  0  0  0  0  0  0  0  0  0
   46.6690   32.8740   45.1690 H   0  0  0  0  0  0  0  0  0  0  0  0
   45.5410   36.1320   42.5480 H   0  0  0  0  0  0  0  0  0  0  0  0
   43.7930   35.7960   46.2980 H   0  0  0  0  0  0  0  0  0  0  0  0
  1  7  1  6  0  0  0
  1  6  1  0  0  0  0
  1 24  1  0  0  0  0
  2  9  1  0  0  0  0
  2  1  1  0  0  0  0
  3  4  1  0  0  0  0
  3  2  1  0  0  0  0
  4  5  1  0  0  0  0
  5 14  1  0  0  0  0
  5 15  1  0  0  0  0
  5  6  1  0  0  0  0
  6 16  1  1  0  0  0
  8  2  1  0  0  0  0
 10  3  1  0  0  0  0
 11  3  1  0  0  0  0
 12  4  1  0  0  0  0
 13  4  1  0  0  0  0
 17  6  1  0  0  0  0
 17 23  1  0  0  0  0
 18 17  1  0  0  0  0
 18 19  1  0  0  0  0
 19 20  1  0  0  0  0
 20 21  1  0  0  0  0
 22 23  1  0  0  0  0
 22 20  1  0  0  0  0
 24 26  1  0  0  0  0
 24 27  1  0  0  0  0
 25 24  1  0  0  0  0
 27 28  1  0  0  0  0
 27 31  1  0  0  0  0
 29 27  1  0  0  0  0
 30 36  1  0  0  0  0
 30 35  1  0  0  0  0
 31 30  2  0  0  0  0
 32 31  1  0  0  0  0
 32 33  2  0  0  0  0
 33 34  1  0  0  0  0
 34 35  2  0  0  0  0
 34 38  1  0  0  0  0
 37 32  1  0  0  0  0
M  END
>  <minimizedAffinity>
-4.63143826

>  <minimizedRMSD>
2.07585478

$$$$
