
 OpenBabel03232517053D

 32 33  0  0  1  0  0  0  0  0999 V2000
   43.8330   34.0970   40.8850 C   0  0  1  0  0  0  0  0  0  0  0  0
   43.4990   33.4900   41.7550 H   0  0  0  0  0  0  0  0  0  0  0  0
   42.8480   35.0380   40.4160 N   0  0  0  0  0  0  0  0  0  0  0  0
   41.6400   35.2510   41.1740 C   0  0  0  0  0  0  0  0  0  0  0  0
   41.1280   34.2700   41.8760 N   0  0  0  0  0  0  0  0  0  0  0  0
   40.8690   36.4520   41.2600 N   0  0  0  0  0  0  0  0  0  0  0  0
   41.5280   33.3210   41.9310 H   0  0  0  0  0  0  0  0  0  0  0  0
   42.8770   35.6300   39.5580 H   0  0  0  0  0  0  0  0  0  0  0  0
   41.1660   37.1340   41.9930 H   0  0  0  0  0  0  0  0  0  0  0  0
   40.0720   36.5950   40.6140 H   0  0  0  0  0  0  0  0  0  0  0  0
   44.0750   33.1140   39.8910 N   0  0  0  0  0  0  0  0  0  0  0  0
   43.8010   33.3460   38.5440 C   0  0  0  0  0  0  0  0  0  0  0  0
   43.1640   32.1350   37.8340 C   0  0  0  0  0  0  0  0  0  0  0  0
   42.0330   31.5690   38.6070 C   0  0  0  0  0  0  0  0  0  0  0  0
   41.0770   32.1120   38.4750 H   0  0  0  0  0  0  0  0  0  0  0  0
   42.3410   31.4030   40.0530 C   0  0  0  0  0  0  0  0  0  0  0  0
   43.7830   31.7620   40.3040 C   0  0  0  0  0  0  0  0  0  0  0  0
   45.0440   34.7940   41.4620 C   0  0  1  0  0  0  0  0  0  0  0  0
   45.0390   35.8340   41.1070 H   0  0  0  0  0  0  0  0  0  0  0  0
   45.0540   34.8030   42.9350 C   0  0  0  0  0  0  0  0  0  0  0  0
   45.5770   33.6950   43.5690 C   0  0  0  0  0  0  0  0  0  0  0  0
   45.5670   33.6340   44.9530 C   0  0  0  0  0  0  0  0  0  0  0  0
   45.0230   34.7140   45.6320 N   0  0  0  0  0  0  0  0  0  0  0  0
   44.5250   35.7760   44.9960 C   0  0  0  0  0  0  0  0  0  0  0  0
   44.5480   35.8040   43.6770 N   0  0  0  0  0  0  0  0  0  0  0  0
   46.0390   32.7750   43.2840 H   0  0  0  0  0  0  0  0  0  0  0  0
   45.9000   32.9080   45.6520 H   0  0  0  0  0  0  0  0  0  0  0  0
   44.1030   36.6160   45.5270 H   0  0  0  0  0  0  0  0  0  0  0  0
   46.3320   34.1990   40.9060 C   0  0  0  0  0  0  0  0  0  0  0  0
   46.6600   33.2910   41.4050 H   0  0  0  0  0  0  0  0  0  0  0  0
   46.3520   34.2240   39.8200 H   0  0  0  0  0  0  0  0  0  0  0  0
   47.1120   34.9650   41.2120 H   0  0  0  0  0  0  0  0  0  0  0  0
  1 18  1  0  0  0  0
  1  2  1  1  0  0  0
  3  1  1  0  0  0  0
  3  4  1  0  0  0  0
  4  6  1  0  0  0  0
  4  5  2  0  0  0  0
  5  7  1  0  0  0  0
  6  9  1  0  0  0  0
  8  3  1  0  0  0  0
 10  6  1  0  0  0  0
 11 17  1  0  0  0  0
 11  1  1  0  0  0  0
 12 11  1  0  0  0  0
 13 12  1  0  0  0  0
 13 14  1  0  0  0  0
 14 16  1  0  0  0  0
 15 14  1  0  0  0  0
 16 17  1  0  0  0  0
 18 19  1  6  0  0  0
 18 20  1  0  0  0  0
 20 21  2  0  0  0  0
 20 25  1  0  0  0  0
 21 22  1  0  0  0  0
 22 23  2  0  0  0  0
 22 27  1  0  0  0  0
 24 28  1  0  0  0  0
 24 23  1  0  0  0  0
 25 24  2  0  0  0  0
 26 21  1  0  0  0  0
 29 32  1  0  0  0  0
 29 30  1  0  0  0  0
 29 18  1  0  0  0  0
 31 29  1  0  0  0  0
M  END
>  <minimizedAffinity>
-4.61616707

>  <minimizedRMSD>
2.62599349

$$$$
