
 OpenBabel03232518543D

 35 37  0  0  0  0  0  0  0  0999 V2000
   47.1360   33.3300   43.3070 C   0  0  0  0  0  0  0  0  0  0  0  0
   48.3670   33.1690   43.4540 O   0  0  0  0  0  0  0  0  0  0  0  0
   44.6690   35.4990   45.0290 C   0  0  0  0  0  0  0  0  0  0  0  0
   45.5030   35.0820   44.0010 C   0  0  0  0  0  0  0  0  0  0  0  0
   46.2360   33.9190   44.2230 C   0  0  0  0  0  0  0  0  0  0  0  0
   46.1110   33.2580   45.4030 N   0  0  0  0  0  0  0  0  0  0  0  0
   45.3080   33.6730   46.3750 C   0  0  0  0  0  0  0  0  0  0  0  0
   44.6090   34.7730   46.1730 N   0  0  0  0  0  0  0  0  0  0  0  0
   44.0950   36.3960   44.8740 H   0  0  0  0  0  0  0  0  0  0  0  0
   45.6140   35.8210   42.7380 C   0  0  0  0  0  0  0  0  0  0  0  0
   45.0330   37.0750   42.9490 F   0  0  0  0  0  0  0  0  0  0  0  0
   44.8150   35.2630   41.7730 F   0  0  0  0  0  0  0  0  0  0  0  0
   46.8900   35.9500   42.3050 F   0  0  0  0  0  0  0  0  0  0  0  0
   45.1400   33.0460   47.5850 O   0  0  0  0  0  0  0  0  0  0  0  0
   46.1130   32.1980   48.1550 C   0  0  0  0  0  0  0  0  0  0  0  0
   47.3570   32.8120   48.1280 F   0  0  0  0  0  0  0  0  0  0  0  0
   46.1200   30.9330   47.6150 F   0  0  0  0  0  0  0  0  0  0  0  0
   45.8040   32.1270   49.5260 F   0  0  0  0  0  0  0  0  0  0  0  0
   47.1750   32.7500   42.0640 O   0  0  0  0  0  0  0  0  0  0  0  0
   48.0050   31.8210   41.5860 C   0  0  0  0  0  0  0  0  0  0  0  0
   47.8570   30.3790   41.8500 C   0  0  0  0  0  0  0  0  0  0  0  0
   49.2590   29.6890   40.9470 S   0  0  0  0  0  0  0  0  0  0  0  0
   49.8280   31.3980   40.3570 C   0  0  0  0  0  0  0  0  0  0  0  0
   49.0250   32.1130   40.8400 N   0  0  0  0  0  0  0  0  0  0  0  0
   47.1500   29.5760   42.4460 H   0  0  0  0  0  0  0  0  0  0  0  0
   51.0500   31.4820   39.4760 C   0  0  0  0  0  0  0  0  0  0  0  0
   52.3350   31.3510   39.8860 C   0  0  0  0  0  0  0  0  0  0  0  0
   52.9830   31.4740   38.7050 N   0  0  0  0  0  0  0  0  0  0  0  0
   52.1010   31.6630   37.7040 C   0  0  0  0  0  0  0  0  0  0  0  0
   50.8290   31.6730   38.1920 N   0  0  0  0  0  0  0  0  0  0  0  0
   52.6100   31.1940   40.9190 H   0  0  0  0  0  0  0  0  0  0  0  0
   52.4740   31.7790   36.6950 H   0  0  0  0  0  0  0  0  0  0  0  0
   49.7620   31.8800   37.2500 C   0  0  0  0  0  0  0  0  0  0  0  0
   48.8920   30.6430   37.2170 C   0  0  0  0  0  0  0  0  0  0  0  0
   49.0000   33.1630   37.4000 C   0  0  0  0  0  0  0  0  0  0  0  0
  1  2  2  0  0  0  0
  1  5  1  0  0  0  0
  3  8  1  0  0  0  0
  4  5  1  0  0  0  0
  4  3  2  0  0  0  0
  5  6  2  0  0  0  0
  6  7  1  0  0  0  0
  7 14  1  0  0  0  0
  8  7  2  0  0  0  0
  9  3  1  0  0  0  0
 10 11  1  0  0  0  0
 10  4  1  0  0  0  0
 12 10  1  0  0  0  0
 13 10  1  0  0  0  0
 14 15  1  0  0  0  0
 15 18  1  0  0  0  0
 16 15  1  0  0  0  0
 17 15  1  0  0  0  0
 19  1  1  0  0  0  0
 20 21  2  0  0  0  0
 20 19  1  0  0  0  0
 21 25  1  0  0  0  0
 22 21  1  0  0  0  0
 23 24  2  0  0  0  0
 23 22  1  0  0  0  0
 24 20  1  0  0  0  0
 26 27  2  0  0  0  0
 26 23  1  0  0  0  0
 27 31  1  0  0  0  0
 28 27  1  0  0  0  0
 29 30  1  0  0  0  0
 29 28  2  0  0  0  0
 30 26  1  0  0  0  0
 32 29  1  0  0  0  0
 33 35  1  0  0  0  0
 33 30  1  0  0  0  0
 34 33  1  0  0  0  0
M  END
>  <minimizedAffinity>
-5.83520365

>  <minimizedRMSD>
1.4174695

$$$$
