
 OpenBabel03232519533D

 23 25  0  0  0  0  0  0  0  0999 V2000
   45.4400   33.9950   41.6460 N   0  0  0  0  0  0  0  0  0  0  0  0
   46.5580   33.7440   41.0050 C   0  0  0  0  0  0  0  0  0  0  0  0
   46.2960   33.4730   39.6730 C   0  0  0  0  0  0  0  0  0  0  0  0
   44.9700   33.5670   39.5230 N   0  0  0  0  0  0  0  0  0  0  0  0
   44.4390   33.8860   40.7260 C   0  0  0  0  0  0  0  0  0  0  0  0
   46.9530   33.2270   38.8560 H   0  0  0  0  0  0  0  0  0  0  0  0
   43.3680   34.0210   40.8650 H   0  0  0  0  0  0  0  0  0  0  0  0
   44.7040   35.6210   43.2280 C   0  0  0  0  0  0  0  0  0  0  0  0
   45.2410   34.3190   42.9830 C   0  0  0  0  0  0  0  0  0  0  0  0
   45.4990   33.5410   44.0910 C   0  0  0  0  0  0  0  0  0  0  0  0
   45.2330   34.0490   45.3230 N   0  0  0  0  0  0  0  0  0  0  0  0
   44.7270   35.2760   45.5190 C   0  0  0  0  0  0  0  0  0  0  0  0
   44.4590   36.0760   44.4500 N   0  0  0  0  0  0  0  0  0  0  0  0
   44.4550   36.3380   42.4310 H   0  0  0  0  0  0  0  0  0  0  0  0
   45.9040   32.5570   43.9380 H   0  0  0  0  0  0  0  0  0  0  0  0
   44.6060   35.4400   46.5910 H   0  0  0  0  0  0  0  0  0  0  0  0
   47.9090   33.7000   41.4400 N   0  0  0  0  0  0  0  0  0  0  0  0
   48.5520   34.9960   41.5540 C   0  0  0  0  0  0  0  0  0  0  0  0
   49.6780   34.9890   42.5460 C   0  0  0  0  0  0  0  0  0  0  0  0
   50.5550   33.7930   42.2680 C   0  0  0  0  0  0  0  0  0  0  0  0
   50.8970   33.8040   41.2260 H   0  0  0  0  0  0  0  0  0  0  0  0
   49.7520   32.5540   42.6110 C   0  0  0  0  0  0  0  0  0  0  0  0
   48.5600   32.4170   41.7230 C   0  0  0  0  0  0  0  0  0  0  0  0
  1  9  1  0  0  0  0
  2 17  1  0  0  0  0
  2  1  1  0  0  0  0
  3  2  2  0  0  0  0
  4  3  1  0  0  0  0
  4  5  2  0  0  0  0
  5  7  1  0  0  0  0
  5  1  1  0  0  0  0
  6  3  1  0  0  0  0
  8 13  1  0  0  0  0
  9  8  2  0  0  0  0
  9 10  1  0  0  0  0
 10 11  2  0  0  0  0
 11 12  1  0  0  0  0
 12 16  1  0  0  0  0
 13 12  2  0  0  0  0
 14  8  1  0  0  0  0
 15 10  1  0  0  0  0
 17 18  1  0  0  0  0
 17 23  1  0  0  0  0
 18 19  1  0  0  0  0
 20 19  1  0  0  0  0
 20 22  1  0  0  0  0
 21 20  1  0  0  0  0
 23 22  1  0  0  0  0
M  END
>  <minimizedAffinity>
-4.70906639

>  <minimizedRMSD>
3.01186252

$$$$
