
 OpenBabel03232520593D

 38 40  0  0  1  0  0  0  0  0999 V2000
   45.3680   32.8930   47.5330 C   0  0  0  0  0  0  0  0  0  0  0  0
   45.9280   32.6290   46.3240 C   0  0  0  0  0  0  0  0  0  0  0  0
   46.1930   31.2770   46.0880 C   0  0  0  0  0  0  0  0  0  0  0  0
   45.9210   30.2890   46.9790 N   0  0  0  0  0  0  0  0  0  0  0  0
   45.3490   30.6090   48.2020 C   0  0  0  0  0  0  0  0  0  0  0  0
   45.0890   31.8890   48.4460 N   0  0  0  0  0  0  0  0  0  0  0  0
   45.0620   29.6030   49.1530 N   0  0  0  0  0  0  0  0  0  0  0  0
   45.1250   33.9040   47.8230 H   0  0  0  0  0  0  0  0  0  0  0  0
   45.3760   29.6510   50.1650 H   0  0  0  0  0  0  0  0  0  0  0  0
   44.5140   28.7500   48.8920 H   0  0  0  0  0  0  0  0  0  0  0  0
   46.1840   33.5750   45.2920 C   0  0  2  0  0  0  0  0  0  0  0  0
   44.9690   34.6680   45.5080 C   0  0  0  0  0  0  0  0  0  0  0  0
   44.7370   35.5880   44.4320 C   0  0  0  0  0  0  0  0  0  0  0  0
   45.5440   35.5120   43.2140 C   0  0  1  0  0  0  0  0  0  0  0  0
   46.6080   34.5080   43.1720 C   0  0  0  0  0  0  0  0  0  0  0  0
   46.1600   33.2810   43.9310 C   0  0  0  0  0  0  0  0  0  0  0  0
   47.0080   34.2790   45.6210 H   0  0  0  0  0  0  0  0  0  0  0  0
   44.2850   34.8290   46.3320 H   0  0  0  0  0  0  0  0  0  0  0  0
   43.9660   36.3080   44.5290 H   0  0  0  0  0  0  0  0  0  0  0  0
   45.9770   36.5120   42.9940 H   0  0  0  0  0  0  0  0  0  0  0  0
   46.7730   34.2550   42.0830 H   0  0  0  0  0  0  0  0  0  0  0  0
   47.6170   34.8310   43.5150 H   0  0  0  0  0  0  0  0  0  0  0  0
   45.2080   32.9330   43.4770 H   0  0  0  0  0  0  0  0  0  0  0  0
   47.0200   32.6320   43.6130 H   0  0  0  0  0  0  0  0  0  0  0  0
   44.5390   35.2300   42.0540 C   0  0  0  0  0  0  0  0  0  0  0  0
   43.5040   34.4000   42.4390 F   0  0  0  0  0  0  0  0  0  0  0  0
   43.9580   36.4560   41.7360 F   0  0  0  0  0  0  0  0  0  0  0  0
   45.2260   34.8030   40.9340 F   0  0  0  0  0  0  0  0  0  0  0  0
   46.8330   30.5790   44.9900 C   0  0  0  0  0  0  0  0  0  0  0  0
   46.4940   29.9110   43.8580 C   0  0  0  0  0  0  0  0  0  0  0  0
   47.6630   29.4340   43.2570 C   0  0  0  0  0  0  0  0  0  0  0  0
   48.6570   29.8360   44.0520 N   0  0  0  0  0  0  0  0  0  0  0  0
   48.1930   30.5110   45.0780 N   0  0  0  0  0  0  0  0  0  0  0  0
   45.4490   29.8530   43.6130 H   0  0  0  0  0  0  0  0  0  0  0  0
   47.6250   28.8680   42.3370 H   0  0  0  0  0  0  0  0  0  0  0  0
   50.0690   29.5320   43.7650 C   0  0  0  0  0  3  0  0  0  0  0  0
   50.1640   28.4400   42.7310 C   0  0  0  0  0  1  0  0  0  0  0  0
   50.7080   28.9730   45.0420 C   0  0  0  0  0  1  0  0  0  0  0  0
  1  8  1  0  0  0  0
  1  6  1  0  0  0  0
  2  1  2  0  0  0  0
  3  2  1  0  0  0  0
  3  4  2  0  0  0  0
  4  5  1  0  0  0  0
  5  6  2  0  0  0  0
  5  7  1  0  0  0  0
  7  9  1  0  0  0  0
 10  7  1  0  0  0  0
 11 12  1  0  0  0  0
 11 17  1  1  0  0  0
 11  2  1  0  0  0  0
 12 18  1  0  0  0  0
 13 19  1  0  0  0  0
 13 12  2  0  0  0  0
 14 20  1  6  0  0  0
 14 13  1  0  0  0  0
 15 14  1  0  0  0  0
 15 22  1  0  0  0  0
 15 16  1  0  0  0  0
 16 11  1  0  0  0  0
 21 15  1  0  0  0  0
 23 16  1  0  0  0  0
 24 16  1  0  0  0  0
 25 26  1  0  0  0  0
 25 14  1  0  0  0  0
 27 25  1  0  0  0  0
 28 25  1  0  0  0  0
 29 33  2  0  0  0  0
 29  3  1  0  0  0  0
 30 29  1  0  0  0  0
 31 30  2  0  0  0  0
 31 32  1  0  0  0  0
 32 33  1  0  0  0  0
 34 30  1  0  0  0  0
 35 31  1  0  0  0  0
 36 32  1  0  0  0  0
 36 38  1  0  0  0  0
 37 36  1  0  0  0  0
M  END
>  <minimizedAffinity>
-5.54795551

>  <minimizedRMSD>
0.174016625

$$$$
