
 OpenBabel03232517033D

 25 26  0  0  1  0  0  0  0  0999 V2000
   44.4740   34.9280   42.3920 C   0  0  1  0  0  0  0  0  0  0  0  0
   44.0980   33.8890   42.5770 H   0  0  0  0  0  0  0  0  0  0  0  0
   45.8090   34.7340   41.7600 C   0  0  0  0  0  0  0  0  0  0  0  0
   46.9160   35.2060   42.4990 C   0  0  0  0  0  0  0  0  0  0  0  0
   48.1960   35.0480   41.9650 C   0  0  0  0  0  0  0  0  0  0  0  0
   48.2920   34.4320   40.7350 N   0  0  0  0  0  0  0  0  0  0  0  0
   47.2220   33.9960   40.0660 C   0  0  0  0  0  0  0  0  0  0  0  0
   45.9860   34.1450   40.5720 N   0  0  0  0  0  0  0  0  0  0  0  0
   46.9460   35.6870   43.4450 H   0  0  0  0  0  0  0  0  0  0  0  0
   49.1060   35.3680   42.4350 H   0  0  0  0  0  0  0  0  0  0  0  0
   47.2550   33.5170   39.1180 H   0  0  0  0  0  0  0  0  0  0  0  0
   44.5580   35.5720   43.7540 C   0  0  0  0  0  0  0  0  0  0  0  0
   45.5310   35.4750   44.2300 H   0  0  0  0  0  0  0  0  0  0  0  0
   44.3560   36.6710   43.6650 H   0  0  0  0  0  0  0  0  0  0  0  0
   43.7260   35.1810   44.3720 H   0  0  0  0  0  0  0  0  0  0  0  0
   43.5550   35.7220   41.4770 C   0  0  0  0  0  0  0  0  0  0  0  0
   43.2920   36.7060   41.8520 H   0  0  0  0  0  0  0  0  0  0  0  0
   44.0790   35.8220   40.4880 H   0  0  0  0  0  0  0  0  0  0  0  0
   42.4000   34.8790   41.2330 N   0  0  0  0  0  0  0  0  0  0  0  0
   42.3440   34.3040   39.9330 C   0  0  0  0  0  0  0  0  0  0  0  0
   40.9490   33.9500   39.4960 C   0  0  0  0  0  0  0  0  0  0  0  0
   40.1330   35.2180   39.3920 C   0  0  0  0  0  0  0  0  0  0  0  0
   40.4840   35.7740   38.4840 H   0  0  0  0  0  0  0  0  0  0  0  0
   40.3280   36.0760   40.5980 C   0  0  0  0  0  0  0  0  0  0  0  0
   41.1610   35.4210   41.6770 C   0  0  0  0  0  0  0  0  0  0  0  0
  1  2  1  1  0  0  0
  1 12  1  0  0  0  0
  3  1  1  0  0  0  0
  3  4  1  0  0  0  0
  4  9  1  0  0  0  0
  5 10  1  0  0  0  0
  5  4  2  0  0  0  0
  6  5  1  0  0  0  0
  7  8  1  0  0  0  0
  7  6  2  0  0  0  0
  8  3  2  0  0  0  0
 11  7  1  0  0  0  0
 12 13  1  0  0  0  0
 12 15  1  0  0  0  0
 14 12  1  0  0  0  0
 16 17  1  0  0  0  0
 16  1  1  0  0  0  0
 18 16  1  0  0  0  0
 19 16  1  0  0  0  0
 19 25  1  0  0  0  0
 20 19  1  0  0  0  0
 21 20  1  0  0  0  0
 22 21  1  0  0  0  0
 22 24  1  0  0  0  0
 23 22  1  0  0  0  0
 24 25  1  0  0  0  0
M  END
>  <minimizedAffinity>
-4.64389086

>  <minimizedRMSD>
3.45038581

$$$$
