
 OpenBabel03232520583D

 39 41  0  0  1  0  0  0  0  0999 V2000
   45.4380   32.8590   47.5050 C   0  0  0  0  0  0  0  0  0  0  0  0
   45.9250   32.6040   46.2650 C   0  0  0  0  0  0  0  0  0  0  0  0
   46.1260   31.2530   45.9790 C   0  0  0  0  0  0  0  0  0  0  0  0
   45.8620   30.2530   46.8580 N   0  0  0  0  0  0  0  0  0  0  0  0
   45.3660   30.5680   48.1130 C   0  0  0  0  0  0  0  0  0  0  0  0
   45.1690   31.8450   48.4040 N   0  0  0  0  0  0  0  0  0  0  0  0
   45.1150   29.5380   49.0590 N   0  0  0  0  0  0  0  0  0  0  0  0
   45.2500   33.8700   47.8320 H   0  0  0  0  0  0  0  0  0  0  0  0
   44.2100   29.5260   49.6000 H   0  0  0  0  0  0  0  0  0  0  0  0
   45.8240   28.7730   49.2370 H   0  0  0  0  0  0  0  0  0  0  0  0
   46.1730   33.5680   45.2470 C   0  0  2  0  0  0  0  0  0  0  0  0
   44.9680   34.6610   45.4930 C   0  0  0  0  0  0  0  0  0  0  0  0
   44.7350   35.6050   44.4350 C   0  0  0  0  0  0  0  0  0  0  0  0
   45.5330   35.5450   43.2070 C   0  0  1  0  0  0  0  0  0  0  0  0
   46.5910   34.5440   43.1460 C   0  0  0  0  0  0  0  0  0  0  0  0
   46.1420   33.3010   43.8800 C   0  0  0  0  0  0  0  0  0  0  0  0
   46.9900   34.2760   45.5880 H   0  0  0  0  0  0  0  0  0  0  0  0
   44.2920   34.8100   46.3260 H   0  0  0  0  0  0  0  0  0  0  0  0
   43.9680   36.3260   44.5560 H   0  0  0  0  0  0  0  0  0  0  0  0
   45.9570   36.5530   43.0120 H   0  0  0  0  0  0  0  0  0  0  0  0
   46.8300   34.3440   42.0630 H   0  0  0  0  0  0  0  0  0  0  0  0
   47.5510   34.8520   43.6000 H   0  0  0  0  0  0  0  0  0  0  0  0
   46.9950   32.6570   43.5390 H   0  0  0  0  0  0  0  0  0  0  0  0
   45.1870   32.9200   43.4540 H   0  0  0  0  0  0  0  0  0  0  0  0
   44.5140   35.2920   42.0560 C   0  0  0  0  0  0  0  0  0  0  0  0
   43.4480   34.5010   42.4490 F   0  0  0  0  0  0  0  0  0  0  0  0
   43.9820   36.5350   41.7240 F   0  0  0  0  0  0  0  0  0  0  0  0
   45.1820   34.8280   40.9400 F   0  0  0  0  0  0  0  0  0  0  0  0
   46.6800   30.5590   44.8290 C   0  0  0  0  0  0  0  0  0  0  0  0
   46.2510   29.8410   43.7590 C   0  0  0  0  0  0  0  0  0  0  0  0
   47.3820   29.4130   43.0430 C   0  0  0  0  0  0  0  0  0  0  0  0
   48.4290   29.8910   43.7130 N   0  0  0  0  0  0  0  0  0  0  0  0
   48.0440   30.5690   44.7690 N   0  0  0  0  0  0  0  0  0  0  0  0
   45.1820   29.7270   43.6420 H   0  0  0  0  0  0  0  0  0  0  0  0
   47.2590   28.8330   42.1630 H   0  0  0  0  0  0  0  0  0  0  0  0
   49.8140   29.6550   43.2750 C   0  0  0  0  0  0  0  0  0  0  0  0
   50.3390   30.9710   42.6970 C   0  0  0  0  0  1  0  0  0  0  0  0
   49.8760   28.6450   42.1750 C   0  0  0  0  0  1  0  0  0  0  0  0
   50.6090   29.3180   44.4950 C   0  0  0  0  0  1  0  0  0  0  0  0
  1  8  1  0  0  0  0
  1  6  1  0  0  0  0
  2  1  2  0  0  0  0
  3  2  1  0  0  0  0
  3  4  2  0  0  0  0
  4  5  1  0  0  0  0
  5  6  2  0  0  0  0
  5  7  1  0  0  0  0
  7 10  1  0  0  0  0
  7  9  1  0  0  0  0
 11 12  1  0  0  0  0
 11 17  1  1  0  0  0
 11  2  1  0  0  0  0
 12 18  1  0  0  0  0
 13 19  1  0  0  0  0
 13 12  2  0  0  0  0
 14 20  1  6  0  0  0
 14 13  1  0  0  0  0
 15 14  1  0  0  0  0
 15 22  1  0  0  0  0
 15 16  1  0  0  0  0
 16 11  1  0  0  0  0
 21 15  1  0  0  0  0
 23 16  1  0  0  0  0
 24 16  1  0  0  0  0
 25 26  1  0  0  0  0
 25 14  1  0  0  0  0
 27 25  1  0  0  0  0
 28 25  1  0  0  0  0
 29  3  1  0  0  0  0
 30 29  1  0  0  0  0
 31 32  1  0  0  0  0
 31 30  2  0  0  0  0
 32 33  1  0  0  0  0
 33 29  2  0  0  0  0
 34 30  1  0  0  0  0
 35 31  1  0  0  0  0
 36 32  1  0  0  0  0
 36 39  1  0  0  0  0
 37 36  1  0  0  0  0
 38 36  1  0  0  0  0
M  END
>  <minimizedAffinity>
-5.68653631

>  <minimizedRMSD>
0.38097626

$$$$
