
 OpenBabel03232520423D

 40 43  0  0  1  0  0  0  0  0999 V2000
   38.4100   31.7030   39.8300 N   0  0  0  0  0  0  0  0  0  0  0  0
   38.4440   32.9000   39.0240 C   0  0  0  0  0  0  0  0  0  0  0  0
   38.7260   34.1190   39.8870 C   0  0  0  0  0  0  0  0  0  0  0  0
   40.0720   33.9210   40.5320 C   0  0  1  0  0  0  0  0  0  0  0  0
   40.6690   32.5610   40.2960 C   0  0  0  0  0  0  0  0  0  0  0  0
   39.6530   31.4660   40.5290 C   0  0  1  0  0  0  0  0  0  0  0  0
   38.0990   30.9050   39.2550 H   0  0  0  0  0  0  0  0  0  0  0  0
   37.4480   32.9810   38.5510 H   0  0  0  0  0  0  0  0  0  0  0  0
   39.2750   32.8510   38.2890 H   0  0  0  0  0  0  0  0  0  0  0  0
   37.8980   34.2720   40.6310 H   0  0  0  0  0  0  0  0  0  0  0  0
   38.6800   35.0220   39.2420 H   0  0  0  0  0  0  0  0  0  0  0  0
   39.9040   34.0060   41.6260 H   0  0  0  0  0  0  0  0  0  0  0  0
   41.0370   32.4600   39.2660 H   0  0  0  0  0  0  0  0  0  0  0  0
   41.4880   32.4120   41.0000 H   0  0  0  0  0  0  0  0  0  0  0  0
   40.0960   30.5530   40.0320 H   0  0  0  0  0  0  0  0  0  0  0  0
   39.4740   31.1100   41.9020 N   0  0  0  0  0  0  0  0  0  0  0  0
   40.7620   31.0240   42.5480 C   0  0  0  0  0  0  0  0  0  0  0  0
   40.8730   29.6500   43.2230 C   0  0  0  0  0  0  0  0  0  0  0  0
   40.8910   28.7110   42.1960 O   0  0  0  0  0  0  0  0  0  0  0  0
   39.6910   28.6970   41.5210 C   0  0  0  0  0  0  0  0  0  0  0  0
   38.7810   29.8350   41.9170 C   0  0  0  0  0  0  0  0  0  0  0  0
   41.1660   35.2190   39.9660 S   0  0  0  0  0  0  0  0  0  0  0  0
   43.3880   35.5390   41.6090 C   0  0  0  0  0  0  0  0  0  0  0  0
   42.8630   34.9150   40.4800 C   0  0  0  0  0  0  0  0  0  0  0  0
   43.6760   34.0690   39.7830 C   0  0  0  0  0  0  0  0  0  0  0  0
   44.9600   33.8420   40.1780 N   0  0  0  0  0  0  0  0  0  0  0  0
   45.4420   34.4680   41.2860 C   0  0  0  0  0  0  0  0  0  0  0  0
   44.6620   35.3130   42.0020 N   0  0  0  0  0  0  0  0  0  0  0  0
   42.7550   36.2110   42.1700 H   0  0  0  0  0  0  0  0  0  0  0  0
   43.3590   33.5440   38.8950 H   0  0  0  0  0  0  0  0  0  0  0  0
   46.7990   34.2810   41.7790 C   0  0  0  0  0  0  0  0  0  0  0  0
   47.7690   35.1870   41.5110 C   0  0  0  0  0  0  0  0  0  0  0  0
   49.0740   35.0340   41.9670 C   0  0  0  0  0  0  0  0  0  0  0  0
   49.4120   33.9320   42.7200 C   0  0  0  0  0  0  0  0  0  0  0  0
   48.3990   33.0110   42.9840 C   0  0  0  0  0  0  0  0  0  0  0  0
   47.1580   33.2120   42.5160 N   0  0  0  0  0  0  0  0  0  0  0  0
   47.5290   36.0640   40.9210 H   0  0  0  0  0  0  0  0  0  0  0  0
   49.8650   35.7460   41.7650 H   0  0  0  0  0  0  0  0  0  0  0  0
   50.4060   33.7370   43.1140 H   0  0  0  0  0  0  0  0  0  0  0  0
   48.5780   32.1100   43.5710 H   0  0  0  0  0  0  0  0  0  0  0  0
  1  6  1  0  0  0  0
  2  1  1  0  0  0  0
  2  3  1  0  0  0  0
  3  4  1  0  0  0  0
  3 10  1  0  0  0  0
  4 12  1  1  0  0  0
  5  6  1  0  0  0  0
  5  4  1  0  0  0  0
  5 14  1  0  0  0  0
  6 15  1  6  0  0  0
  6 16  1  0  0  0  0
  7  1  1  0  0  0  0
  8  2  1  0  0  0  0
  9  2  1  0  0  0  0
 11  3  1  0  0  0  0
 13  5  1  0  0  0  0
 16 21  1  0  0  0  0
 16 17  1  0  0  0  0
 17 18  1  0  0  0  0
 19 18  1  0  0  0  0
 20 21  1  0  0  0  0
 20 19  1  0  0  0  0
 22 24  1  0  0  0  0
 22  4  1  0  0  0  0
 23 28  1  0  0  0  0
 23 29  1  0  0  0  0
 24 23  2  0  0  0  0
 25 26  2  0  0  0  0
 25 24  1  0  0  0  0
 26 27  1  0  0  0  0
 27 31  1  0  0  0  0
 27 28  2  0  0  0  0
 30 25  1  0  0  0  0
 31 36  1  0  0  0  0
 32 31  2  0  0  0  0
 32 33  1  0  0  0  0
 33 34  2  0  0  0  0
 34 35  1  0  0  0  0
 34 39  1  0  0  0  0
 35 40  1  0  0  0  0
 36 35  2  0  0  0  0
 37 32  1  0  0  0  0
 38 33  1  0  0  0  0
M  END
>  <minimizedAffinity>
-5.74218607

>  <minimizedRMSD>
3.1312077

$$$$
