
 OpenBabel03232520593D

 39 41  0  0  1  0  0  0  0  0999 V2000
   45.6010   32.8570   47.4370 C   0  0  0  0  0  0  0  0  0  0  0  0
   45.9630   32.5770   46.1600 C   0  0  0  0  0  0  0  0  0  0  0  0
   46.0350   31.2160   45.8550 C   0  0  0  0  0  0  0  0  0  0  0  0
   45.7680   30.2320   46.7500 N   0  0  0  0  0  0  0  0  0  0  0  0
   45.4030   30.5730   48.0420 C   0  0  0  0  0  0  0  0  0  0  0  0
   45.3290   31.8590   48.3520 N   0  0  0  0  0  0  0  0  0  0  0  0
   45.1520   29.5570   49.0040 N   0  0  0  0  0  0  0  0  0  0  0  0
   45.5190   33.8760   47.7810 H   0  0  0  0  0  0  0  0  0  0  0  0
   44.2960   29.6100   49.6170 H   0  0  0  0  0  0  0  0  0  0  0  0
   45.8120   28.7380   49.1200 H   0  0  0  0  0  0  0  0  0  0  0  0
   46.2010   33.5280   45.1270 C   0  0  2  0  0  0  0  0  0  0  0  0
   45.0080   34.6330   45.3830 C   0  0  0  0  0  0  0  0  0  0  0  0
   44.7640   35.5670   44.3190 C   0  0  0  0  0  0  0  0  0  0  0  0
   45.5390   35.4870   43.0780 C   0  0  1  0  0  0  0  0  0  0  0  0
   46.5880   34.4780   43.0090 C   0  0  0  0  0  0  0  0  0  0  0  0
   46.1430   33.2470   43.7640 C   0  0  0  0  0  0  0  0  0  0  0  0
   47.0280   34.2330   45.4460 H   0  0  0  0  0  0  0  0  0  0  0  0
   44.3480   34.7960   46.2250 H   0  0  0  0  0  0  0  0  0  0  0  0
   44.0040   36.2950   44.4450 H   0  0  0  0  0  0  0  0  0  0  0  0
   45.9670   36.4900   42.8640 H   0  0  0  0  0  0  0  0  0  0  0  0
   46.8060   34.2640   41.9240 H   0  0  0  0  0  0  0  0  0  0  0  0
   47.5580   34.7840   43.4420 H   0  0  0  0  0  0  0  0  0  0  0  0
   46.9850   32.5920   43.4150 H   0  0  0  0  0  0  0  0  0  0  0  0
   45.1780   32.8680   43.3590 H   0  0  0  0  0  0  0  0  0  0  0  0
   44.4980   35.2300   41.9470 C   0  0  0  0  0  0  0  0  0  0  0  0
   43.4620   34.4050   42.3510 F   0  0  0  0  0  0  0  0  0  0  0  0
   43.9260   36.4650   41.6520 F   0  0  0  0  0  0  0  0  0  0  0  0
   45.1490   34.8040   40.8060 F   0  0  0  0  0  0  0  0  0  0  0  0
   46.4380   30.4920   44.6620 C   0  0  0  0  0  0  0  0  0  0  0  0
   45.8690   29.9070   43.5760 C   0  0  0  0  0  0  0  0  0  0  0  0
   46.8960   29.3280   42.8090 C   0  0  0  0  0  0  0  0  0  0  0  0
   48.0240   29.5920   43.4670 N   0  0  0  0  0  0  0  0  0  0  0  0
   47.7830   30.2760   44.5610 N   0  0  0  0  0  0  0  0  0  0  0  0
   44.7940   29.9780   43.4860 H   0  0  0  0  0  0  0  0  0  0  0  0
   46.6570   28.8170   41.9110 H   0  0  0  0  0  0  0  0  0  0  0  0
   49.3380   29.1470   42.9780 C   0  0  0  0  0  0  0  0  0  0  0  0
   49.3880   29.4340   41.4770 C   0  0  0  0  0  1  0  0  0  0  0  0
   49.5130   27.6710   43.1410 C   0  0  0  0  0  1  0  0  0  0  0  0
   50.3680   29.9880   43.6600 C   0  0  0  0  0  1  0  0  0  0  0  0
  1  8  1  0  0  0  0
  1  6  1  0  0  0  0
  2  1  2  0  0  0  0
  3  2  1  0  0  0  0
  3  4  2  0  0  0  0
  4  5  1  0  0  0  0
  5  6  2  0  0  0  0
  5  7  1  0  0  0  0
  7 10  1  0  0  0  0
  7  9  1  0  0  0  0
 11 12  1  0  0  0  0
 11 17  1  1  0  0  0
 11  2  1  0  0  0  0
 12 18  1  0  0  0  0
 13 19  1  0  0  0  0
 13 12  2  0  0  0  0
 14 20  1  6  0  0  0
 14 13  1  0  0  0  0
 15 14  1  0  0  0  0
 15 22  1  0  0  0  0
 15 16  1  0  0  0  0
 16 11  1  0  0  0  0
 21 15  1  0  0  0  0
 23 16  1  0  0  0  0
 24 16  1  0  0  0  0
 25 26  1  0  0  0  0
 25 14  1  0  0  0  0
 27 25  1  0  0  0  0
 28 25  1  0  0  0  0
 29  3  1  0  0  0  0
 30 29  1  0  0  0  0
 31 32  1  0  0  0  0
 31 30  2  0  0  0  0
 32 33  1  0  0  0  0
 33 29  2  0  0  0  0
 34 30  1  0  0  0  0
 35 31  1  0  0  0  0
 36 38  1  0  0  0  0
 36 32  1  0  0  0  0
 36 39  1  0  0  0  0
 37 36  1  0  0  0  0
M  END
>  <minimizedAffinity>
-5.42058325

>  <minimizedRMSD>
0.489203572

$$$$
