
 OpenBabel03232520593D

 39 41  0  0  1  0  0  0  0  0999 V2000
   45.4080   32.8960   47.5570 C   0  0  0  0  0  0  0  0  0  0  0  0
   45.9230   32.6220   46.3330 C   0  0  0  0  0  0  0  0  0  0  0  0
   46.1470   31.2670   46.0810 C   0  0  0  0  0  0  0  0  0  0  0  0
   45.8780   30.2830   46.9760 N   0  0  0  0  0  0  0  0  0  0  0  0
   45.3530   30.6180   48.2130 C   0  0  0  0  0  0  0  0  0  0  0  0
   45.1320   31.8990   48.4730 N   0  0  0  0  0  0  0  0  0  0  0  0
   45.0950   29.6060   49.1770 N   0  0  0  0  0  0  0  0  0  0  0  0
   45.2000   33.9120   47.8580 H   0  0  0  0  0  0  0  0  0  0  0  0
   44.1800   29.5940   49.7000 H   0  0  0  0  0  0  0  0  0  0  0  0
   45.8100   28.8550   49.3860 H   0  0  0  0  0  0  0  0  0  0  0  0
   46.1800   33.5660   45.2990 C   0  0  2  0  0  0  0  0  0  0  0  0
   44.9690   34.6610   45.5110 C   0  0  0  0  0  0  0  0  0  0  0  0
   44.7450   35.5830   44.4330 C   0  0  0  0  0  0  0  0  0  0  0  0
   45.5560   35.5010   43.2150 C   0  0  1  0  0  0  0  0  0  0  0  0
   46.6170   34.5020   43.1840 C   0  0  0  0  0  0  0  0  0  0  0  0
   46.1630   33.2730   43.9370 C   0  0  0  0  0  0  0  0  0  0  0  0
   46.9910   34.2830   45.6350 H   0  0  0  0  0  0  0  0  0  0  0  0
   44.2840   34.8240   46.3340 H   0  0  0  0  0  0  0  0  0  0  0  0
   43.9760   36.3040   44.5320 H   0  0  0  0  0  0  0  0  0  0  0  0
   45.9800   36.5060   43.0040 H   0  0  0  0  0  0  0  0  0  0  0  0
   46.8680   34.2820   42.1070 H   0  0  0  0  0  0  0  0  0  0  0  0
   47.5710   34.8220   43.6420 H   0  0  0  0  0  0  0  0  0  0  0  0
   47.0210   32.6240   43.6180 H   0  0  0  0  0  0  0  0  0  0  0  0
   45.2140   32.8810   43.5080 H   0  0  0  0  0  0  0  0  0  0  0  0
   44.5500   35.2240   42.0580 C   0  0  0  0  0  0  0  0  0  0  0  0
   43.5160   34.3850   42.4380 F   0  0  0  0  0  0  0  0  0  0  0  0
   43.9680   36.4490   41.7420 F   0  0  0  0  0  0  0  0  0  0  0  0
   45.2380   34.8030   40.9370 F   0  0  0  0  0  0  0  0  0  0  0  0
   46.7330   30.5550   44.9580 C   0  0  0  0  0  0  0  0  0  0  0  0
   46.3360   29.9210   43.8250 C   0  0  0  0  0  0  0  0  0  0  0  0
   47.4810   29.4000   43.1960 C   0  0  0  0  0  0  0  0  0  0  0  0
   48.5030   29.7440   43.9780 N   0  0  0  0  0  0  0  0  0  0  0  0
   48.0910   30.4240   45.0210 N   0  0  0  0  0  0  0  0  0  0  0  0
   45.2770   29.9230   43.6070 H   0  0  0  0  0  0  0  0  0  0  0  0
   47.3830   28.8640   42.2860 H   0  0  0  0  0  0  0  0  0  0  0  0
   49.8920   29.3780   43.6570 C   0  0  0  0  0  0  0  0  0  0  0  0
   50.6100   29.1120   44.9810 C   0  0  0  0  0  1  0  0  0  0  0  0
   50.6160   30.5050   42.9930 C   0  0  0  0  0  1  0  0  0  0  0  0
   49.8410   28.1050   42.8740 C   0  0  0  0  0  1  0  0  0  0  0  0
  1  8  1  0  0  0  0
  1  6  1  0  0  0  0
  2  1  2  0  0  0  0
  3  2  1  0  0  0  0
  3  4  2  0  0  0  0
  4  5  1  0  0  0  0
  5  6  2  0  0  0  0
  5  7  1  0  0  0  0
  7 10  1  0  0  0  0
  7  9  1  0  0  0  0
 11 12  1  0  0  0  0
 11 17  1  1  0  0  0
 11  2  1  0  0  0  0
 12 18  1  0  0  0  0
 13 19  1  0  0  0  0
 13 12  2  0  0  0  0
 14 20  1  6  0  0  0
 14 13  1  0  0  0  0
 15 14  1  0  0  0  0
 15 22  1  0  0  0  0
 15 16  1  0  0  0  0
 16 11  1  0  0  0  0
 21 15  1  0  0  0  0
 23 16  1  0  0  0  0
 24 16  1  0  0  0  0
 25 26  1  0  0  0  0
 25 14  1  0  0  0  0
 27 25  1  0  0  0  0
 28 25  1  0  0  0  0
 29 33  2  0  0  0  0
 29  3  1  0  0  0  0
 30 29  1  0  0  0  0
 31 30  2  0  0  0  0
 31 32  1  0  0  0  0
 32 33  1  0  0  0  0
 34 30  1  0  0  0  0
 35 31  1  0  0  0  0
 36 32  1  0  0  0  0
 36 37  1  0  0  0  0
 38 36  1  0  0  0  0
 39 36  1  0  0  0  0
M  END
>  <minimizedAffinity>
-5.69086027

>  <minimizedRMSD>
0.260805786

$$$$
