
 OpenBabel03232520593D

 39 41  0  0  1  0  0  0  0  0999 V2000
   45.4310   32.8630   47.5140 C   0  0  0  0  0  0  0  0  0  0  0  0
   45.9250   32.6080   46.2760 C   0  0  0  0  0  0  0  0  0  0  0  0
   46.1330   31.2560   45.9940 C   0  0  0  0  0  0  0  0  0  0  0  0
   45.8680   30.2580   46.8730 N   0  0  0  0  0  0  0  0  0  0  0  0
   45.3640   30.5730   48.1250 C   0  0  0  0  0  0  0  0  0  0  0  0
   45.1600   31.8500   48.4130 N   0  0  0  0  0  0  0  0  0  0  0  0
   45.1120   29.5440   49.0720 N   0  0  0  0  0  0  0  0  0  0  0  0
   45.2370   33.8740   47.8380 H   0  0  0  0  0  0  0  0  0  0  0  0
   44.2040   29.5300   49.6080 H   0  0  0  0  0  0  0  0  0  0  0  0
   45.8230   28.7820   49.2550 H   0  0  0  0  0  0  0  0  0  0  0  0
   46.1750   33.5710   45.2580 C   0  0  2  0  0  0  0  0  0  0  0  0
   44.9650   34.6600   45.4960 C   0  0  0  0  0  0  0  0  0  0  0  0
   44.7340   35.6010   44.4350 C   0  0  0  0  0  0  0  0  0  0  0  0
   45.5390   35.5410   43.2110 C   0  0  1  0  0  0  0  0  0  0  0  0
   46.6000   34.5440   43.1580 C   0  0  0  0  0  0  0  0  0  0  0  0
   46.1520   33.3010   43.8910 C   0  0  0  0  0  0  0  0  0  0  0  0
   46.9870   34.2830   45.6020 H   0  0  0  0  0  0  0  0  0  0  0  0
   44.2840   34.8080   46.3240 H   0  0  0  0  0  0  0  0  0  0  0  0
   43.9640   36.3190   44.5500 H   0  0  0  0  0  0  0  0  0  0  0  0
   45.9600   36.5500   43.0160 H   0  0  0  0  0  0  0  0  0  0  0  0
   46.8460   34.3430   42.0760 H   0  0  0  0  0  0  0  0  0  0  0  0
   47.5570   34.8570   43.6160 H   0  0  0  0  0  0  0  0  0  0  0  0
   47.0100   32.6600   43.5560 H   0  0  0  0  0  0  0  0  0  0  0  0
   45.2010   32.9150   43.4610 H   0  0  0  0  0  0  0  0  0  0  0  0
   44.5260   35.2830   42.0550 C   0  0  0  0  0  0  0  0  0  0  0  0
   43.4660   34.4800   42.4410 F   0  0  0  0  0  0  0  0  0  0  0  0
   43.9840   36.5210   41.7250 F   0  0  0  0  0  0  0  0  0  0  0  0
   45.2040   34.8290   40.9400 F   0  0  0  0  0  0  0  0  0  0  0  0
   46.6960   30.5620   44.8490 C   0  0  0  0  0  0  0  0  0  0  0  0
   46.2730   29.8650   43.7630 C   0  0  0  0  0  0  0  0  0  0  0  0
   47.4110   29.4200   43.0650 C   0  0  0  0  0  0  0  0  0  0  0  0
   48.4530   29.8700   43.7610 N   0  0  0  0  0  0  0  0  0  0  0  0
   48.0610   30.5450   44.8160 N   0  0  0  0  0  0  0  0  0  0  0  0
   45.2050   29.7730   43.6240 H   0  0  0  0  0  0  0  0  0  0  0  0
   47.2940   28.8510   42.1780 H   0  0  0  0  0  0  0  0  0  0  0  0
   49.8410   29.6100   43.3480 C   0  0  0  0  0  0  0  0  0  0  0  0
   50.6270   29.2340   44.6050 C   0  0  0  0  0  1  0  0  0  0  0  0
   50.4860   30.8370   42.7870 C   0  0  0  0  0  1  0  0  0  0  0  0
   49.8130   28.4300   42.4300 C   0  0  0  0  0  1  0  0  0  0  0  0
  1  8  1  0  0  0  0
  1  6  1  0  0  0  0
  2  1  2  0  0  0  0
  3  2  1  0  0  0  0
  3  4  2  0  0  0  0
  4  5  1  0  0  0  0
  5  6  2  0  0  0  0
  5  7  1  0  0  0  0
  7 10  1  0  0  0  0
  7  9  1  0  0  0  0
 11 12  1  0  0  0  0
 11 17  1  1  0  0  0
 11  2  1  0  0  0  0
 12 18  1  0  0  0  0
 13 19  1  0  0  0  0
 13 12  2  0  0  0  0
 14 20  1  6  0  0  0
 14 13  1  0  0  0  0
 15 14  1  0  0  0  0
 15 22  1  0  0  0  0
 15 16  1  0  0  0  0
 16 11  1  0  0  0  0
 21 15  1  0  0  0  0
 23 16  1  0  0  0  0
 24 16  1  0  0  0  0
 25 26  1  0  0  0  0
 25 14  1  0  0  0  0
 27 25  1  0  0  0  0
 28 25  1  0  0  0  0
 29  3  1  0  0  0  0
 30 29  1  0  0  0  0
 31 32  1  0  0  0  0
 31 30  2  0  0  0  0
 32 33  1  0  0  0  0
 33 29  2  0  0  0  0
 34 30  1  0  0  0  0
 35 31  1  0  0  0  0
 36 32  1  0  0  0  0
 36 37  1  0  0  0  0
 38 36  1  0  0  0  0
 39 36  1  0  0  0  0
M  END
>  <minimizedAffinity>
-5.68360901

>  <minimizedRMSD>
0.0993017107

$$$$
