
 OpenBabel03232519203D

 37 40  0  0  1  0  0  0  0  0999 V2000
   46.9260   30.4150   47.9010 N   0  0  0  0  0  0  0  0  0  0  0  0
   46.8140   30.8350   49.3020 C   0  0  0  0  0  0  0  0  0  0  0  0
   45.6630   31.7990   49.2330 C   0  0  0  0  0  0  0  0  0  0  0  0
   44.6760   31.1120   48.3380 C   0  0  0  0  0  0  0  0  0  0  0  0
   45.6320   30.3380   47.3880 C   0  0  2  0  0  0  0  0  0  0  0  0
   47.5960   31.0760   47.5010 H   0  0  0  0  0  0  0  0  0  0  0  0
   47.7150   31.3530   49.6510 H   0  0  0  0  0  0  0  0  0  0  0  0
   46.5110   29.9720   49.9380 H   0  0  0  0  0  0  0  0  0  0  0  0
   45.9800   32.7310   48.7220 H   0  0  0  0  0  0  0  0  0  0  0  0
   45.2230   32.0140   50.2230 H   0  0  0  0  0  0  0  0  0  0  0  0
   44.0930   31.8060   47.7110 H   0  0  0  0  0  0  0  0  0  0  0  0
   44.0790   30.4530   48.9620 H   0  0  0  0  0  0  0  0  0  0  0  0
   45.0590   28.9490   47.3810 C   0  0  0  0  0  0  0  0  0  0  0  0
   45.0810   27.7940   48.1340 C   0  0  0  0  0  0  0  0  0  0  0  0
   44.2910   26.8630   47.5210 C   0  0  0  0  0  0  0  0  0  0  0  0
   43.7880   27.4360   46.4020 N   0  0  0  0  0  0  0  0  0  0  0  0
   44.2540   28.6880   46.3250 N   0  0  0  0  0  0  0  0  0  0  0  0
   45.7040   27.8660   49.0330 H   0  0  0  0  0  0  0  0  0  0  0  0
   44.2030   25.8990   47.9900 H   0  0  0  0  0  0  0  0  0  0  0  0
   43.1520   26.9030   45.7720 H   0  0  0  0  0  0  0  0  0  0  0  0
   45.5750   30.7260   46.0790 O   0  0  0  0  0  0  0  0  0  0  0  0
   46.5970   31.4740   45.3970 C   0  0  0  0  0  0  0  0  0  0  0  0
   47.7290   30.9900   45.2880 O   0  0  0  0  0  0  0  0  0  0  0  0
   45.1000   34.7930   45.1550 C   0  0  0  0  0  0  0  0  0  0  0  0
   45.3910   35.1790   43.8250 C   0  0  0  0  0  0  0  0  0  0  0  0
   46.1020   34.2940   43.0360 C   0  0  0  0  0  0  0  0  0  0  0  0
   46.4820   33.0990   43.5840 N   0  0  0  0  0  0  0  0  0  0  0  0
   46.1650   32.7900   44.8830 C   0  0  0  0  0  0  0  0  0  0  0  0
   45.4900   33.6220   45.6460 N   0  0  0  0  0  0  0  0  0  0  0  0
   44.5400   35.4810   45.7910 H   0  0  0  0  0  0  0  0  0  0  0  0
   45.0820   36.1120   43.4310 H   0  0  0  0  0  0  0  0  0  0  0  0
   46.4700   34.5370   41.6890 N   0  0  0  0  0  0  0  0  0  0  0  0
   47.7280   35.1010   41.2600 C   0  0  0  0  0  0  0  0  0  0  0  0
   48.3060   34.2150   40.1490 C   0  0  0  0  0  0  0  0  0  0  0  0
   47.3820   34.1200   39.1370 O   0  0  0  0  0  0  0  0  0  0  0  0
   46.3210   33.3300   39.6360 C   0  0  0  0  0  0  0  0  0  0  0  0
   45.5720   34.2260   40.5970 C   0  0  0  0  0  0  0  0  0  0  0  0
  1  2  1  0  0  0  0
  2  7  1  0  0  0  0
  2  8  1  0  0  0  0
  3  2  1  0  0  0  0
  3 10  1  0  0  0  0
  4 12  1  0  0  0  0
  4  3  1  0  0  0  0
  5 21  1  6  0  0  0
  5  1  1  0  0  0  0
  5  4  1  0  0  0  0
  6  1  1  0  0  0  0
  9  3  1  0  0  0  0
 11  4  1  0  0  0  0
 13  5  1  0  0  0  0
 13 14  1  0  0  0  0
 14 18  1  0  0  0  0
 15 19  1  0  0  0  0
 15 14  2  0  0  0  0
 16 15  1  0  0  0  0
 17 16  1  0  0  0  0
 17 13  2  0  0  0  0
 20 16  1  0  0  0  0
 22 21  1  0  0  0  0
 23 22  2  0  0  0  0
 24 29  1  0  0  0  0
 24 30  1  0  0  0  0
 25 24  2  0  0  0  0
 26 27  2  0  0  0  0
 26 25  1  0  0  0  0
 27 28  1  0  0  0  0
 28 22  1  0  0  0  0
 28 29  2  0  0  0  0
 31 25  1  0  0  0  0
 32 26  1  0  0  0  0
 33 32  1  0  0  0  0
 34 33  1  0  0  0  0
 35 36  1  0  0  0  0
 35 34  1  0  0  0  0
 36 37  1  0  0  0  0
 37 32  1  0  0  0  0
M  END
>  <minimizedAffinity>
-5.15603447

>  <minimizedRMSD>
1.22766602

$$$$
