
 OpenBabel03232520003D

 19 20  0  0  1  0  0  0  0  0999 V2000
   47.8530   34.6910   42.3230 C   0  0  0  0  0  0  0  0  0  0  0  0
   47.0680   34.4440   41.2080 C   0  0  0  0  0  0  0  0  0  0  0  0
   45.8630   33.7750   41.4130 C   0  0  0  0  0  0  0  0  0  0  0  0
   45.5200   33.4030   42.6900 N   0  0  0  0  0  0  0  0  0  0  0  0
   46.3320   33.6770   43.7270 C   0  0  0  0  0  0  0  0  0  0  0  0
   47.5000   34.3190   43.5630 N   0  0  0  0  0  0  0  0  0  0  0  0
   47.3210   34.7290   40.2000 H   0  0  0  0  0  0  0  0  0  0  0  0
   45.1690   33.5270   40.6210 H   0  0  0  0  0  0  0  0  0  0  0  0
   49.1320   35.3980   42.1260 C   0  0  0  0  0  0  0  0  0  0  0  0
   49.2460   36.1880   41.1430 O   0  0  0  0  0  0  0  0  0  0  0  0
   50.1750   35.1900   43.0070 O   0  0  0  0  0  0  0  0  0  0  0  0
   51.1340   35.3430   42.6920 H   0  0  0  0  0  0  0  0  0  0  0  0
   45.9350   33.2150   45.4100 S   0  0  0  0  0  0  0  0  0  0  0  0
   45.3350   29.9300   46.4280 H   0  0  0  0  0  0  0  0  0  0  0  0
   45.2790   30.7010   45.6990 N   0  0  0  0  0  0  0  0  0  0  0  0
   45.3420   30.1060   44.3690 C   0  0  0  0  0  0  0  0  0  0  0  0
   46.7970   29.6620   44.3710 C   0  0  0  0  0  0  0  0  0  0  0  0
   47.4430   30.9960   44.7610 C   0  0  0  0  0  0  0  0  0  0  0  0
   46.4670   31.5240   45.7800 C   0  0  1  0  0  0  0  0  0  0  0  0
  1  6  1  0  0  0  0
  2  3  1  0  0  0  0
  2  1  2  0  0  0  0
  3  4  2  0  0  0  0
  4  5  1  0  0  0  0
  5 13  1  0  0  0  0
  6  5  2  0  0  0  0
  7  2  1  0  0  0  0
  8  3  1  0  0  0  0
  9  1  1  0  0  0  0
  9 11  1  0  0  0  0
 10  9  2  0  0  0  0
 12 11  1  0  0  0  0
 15 19  1  0  0  0  0
 15 14  1  0  0  0  0
 16 17  1  0  0  0  0
 16 15  1  0  0  0  0
 17 18  1  0  0  0  0
 18 19  1  0  0  0  0
 19 13  1  6  0  0  0
M  END
>  <minimizedAffinity>
-4.20277309

>  <minimizedRMSD>
1.95255518

$$$$
