
 OpenBabel03232520593D

 41 44  0  0  1  0  0  0  0  0999 V2000
   45.5640   32.8510   47.5060 C   0  0  0  0  0  0  0  0  0  0  0  0
   45.9840   32.6090   46.2380 C   0  0  0  0  0  0  0  0  0  0  0  0
   46.1250   31.2560   45.9200 C   0  0  0  0  0  0  0  0  0  0  0  0
   45.8670   30.2450   46.7880 N   0  0  0  0  0  0  0  0  0  0  0  0
   45.4410   30.5450   48.0730 C   0  0  0  0  0  0  0  0  0  0  0  0
   45.3010   31.8260   48.3970 N   0  0  0  0  0  0  0  0  0  0  0  0
   45.1810   29.5140   49.0100 N   0  0  0  0  0  0  0  0  0  0  0  0
   45.4270   33.8610   47.8600 H   0  0  0  0  0  0  0  0  0  0  0  0
   45.9840   28.8170   48.9940 H   0  0  0  0  0  0  0  0  0  0  0  0
   44.3930   29.3600   49.6460 H   0  0  0  0  0  0  0  0  0  0  0  0
   46.2110   33.5850   45.2270 C   0  0  2  0  0  0  0  0  0  0  0  0
   44.9770   34.6460   45.4800 C   0  0  0  0  0  0  0  0  0  0  0  0
   44.7220   35.5890   44.4270 C   0  0  0  0  0  0  0  0  0  0  0  0
   45.5230   35.5590   43.2010 C   0  0  1  0  0  0  0  0  0  0  0  0
   46.6060   34.5800   43.1320 C   0  0  0  0  0  0  0  0  0  0  0  0
   46.1840   33.3240   43.8580 C   0  0  0  0  0  0  0  0  0  0  0  0
   47.0110   34.3080   45.5710 H   0  0  0  0  0  0  0  0  0  0  0  0
   44.2980   34.7670   46.3160 H   0  0  0  0  0  0  0  0  0  0  0  0
   43.9390   36.2920   44.5510 H   0  0  0  0  0  0  0  0  0  0  0  0
   45.9290   36.5810   43.0240 H   0  0  0  0  0  0  0  0  0  0  0  0
   46.7900   34.3660   42.0370 H   0  0  0  0  0  0  0  0  0  0  0  0
   47.6020   34.9190   43.5050 H   0  0  0  0  0  0  0  0  0  0  0  0
   47.0530   32.7000   43.5170 H   0  0  0  0  0  0  0  0  0  0  0  0
   45.2380   32.9740   43.3920 H   0  0  0  0  0  0  0  0  0  0  0  0
   44.5170   35.2920   42.0440 C   0  0  0  0  0  0  0  0  0  0  0  0
   43.4550   34.4930   42.4350 F   0  0  0  0  0  0  0  0  0  0  0  0
   43.9720   36.5280   41.7060 F   0  0  0  0  0  0  0  0  0  0  0  0
   45.1980   34.8330   40.9330 F   0  0  0  0  0  0  0  0  0  0  0  0
   46.6050   30.5670   44.7340 C   0  0  0  0  0  0  0  0  0  0  0  0
   46.1090   29.9870   43.6120 C   0  0  0  0  0  0  0  0  0  0  0  0
   47.1820   29.4540   42.8850 C   0  0  0  0  0  0  0  0  0  0  0  0
   48.2730   29.7380   43.5980 N   0  0  0  0  0  0  0  0  0  0  0  0
   47.9580   30.3930   44.6920 N   0  0  0  0  0  0  0  0  0  0  0  0
   45.0420   30.0240   43.4680 H   0  0  0  0  0  0  0  0  0  0  0  0
   47.0130   28.9450   41.9520 H   0  0  0  0  0  0  0  0  0  0  0  0
   50.3750   29.6480   41.2660 H   0  0  0  0  0  0  0  0  0  0  0  0
   50.0050   30.1870   42.0640 N   0  0  0  0  0  0  0  0  0  0  0  0
   50.9490   31.1390   42.6160 C   0  0  0  0  0  2  0  0  0  0  0  0
   51.7430   30.2510   43.5640 C   0  0  0  0  0  2  0  0  0  0  0  0
   50.6400   29.4760   44.2520 C   0  0  0  0  0  2  0  0  0  0  0  0
   49.6240   29.3440   43.1690 C   0  0  1  0  0  3  0  0  0  0  0  0
  1  8  1  0  0  0  0
  1  6  1  0  0  0  0
  2  1  2  0  0  0  0
  3  2  1  0  0  0  0
  3  4  2  0  0  0  0
  4  5  1  0  0  0  0
  5  6  2  0  0  0  0
  5  7  1  0  0  0  0
  7 10  1  0  0  0  0
  9  7  1  0  0  0  0
 11 12  1  0  0  0  0
 11 17  1  1  0  0  0
 11  2  1  0  0  0  0
 12 18  1  0  0  0  0
 13 19  1  0  0  0  0
 13 12  2  0  0  0  0
 14 20  1  6  0  0  0
 14 13  1  0  0  0  0
 15 14  1  0  0  0  0
 15 22  1  0  0  0  0
 15 16  1  0  0  0  0
 16 11  1  0  0  0  0
 21 15  1  0  0  0  0
 23 16  1  0  0  0  0
 24 16  1  0  0  0  0
 25 26  1  0  0  0  0
 25 14  1  0  0  0  0
 27 25  1  0  0  0  0
 28 25  1  0  0  0  0
 29  3  1  0  0  0  0
 30 29  1  0  0  0  0
 31 32  1  0  0  0  0
 31 30  2  0  0  0  0
 32 33  1  0  0  0  0
 33 29  2  0  0  0  0
 34 30  1  0  0  0  0
 35 31  1  0  0  0  0
 36 37  1  0  0  0  0
 37 38  1  0  0  0  0
 37 41  1  0  0  0  0
 38 39  1  0  0  0  0
 39 40  1  0  0  0  0
 41 32  1  1  0  0  0
 41 40  1  0  0  0  0
M  END
>  <minimizedAffinity>
-5.80358076

>  <minimizedRMSD>
0.28956157

$$$$
