
 OpenBabel03232520583D

 41 44  0  0  1  0  0  0  0  0999 V2000
   45.5720   32.8970   47.4520 C   0  0  0  0  0  0  0  0  0  0  0  0
   45.9820   32.6430   46.1840 C   0  0  0  0  0  0  0  0  0  0  0  0
   46.1240   31.2870   45.8780 C   0  0  0  0  0  0  0  0  0  0  0  0
   45.8760   30.2840   46.7590 N   0  0  0  0  0  0  0  0  0  0  0  0
   45.4590   30.5970   48.0430 C   0  0  0  0  0  0  0  0  0  0  0  0
   45.3180   31.8800   48.3560 N   0  0  0  0  0  0  0  0  0  0  0  0
   45.2080   29.5740   48.9930 N   0  0  0  0  0  0  0  0  0  0  0  0
   45.4350   33.9100   47.7960 H   0  0  0  0  0  0  0  0  0  0  0  0
   46.0130   28.8790   48.9780 H   0  0  0  0  0  0  0  0  0  0  0  0
   44.4260   29.4260   49.6360 H   0  0  0  0  0  0  0  0  0  0  0  0
   46.1990   33.6090   45.1610 C   0  0  2  0  0  0  0  0  0  0  0  0
   44.9740   34.6780   45.4220 C   0  0  0  0  0  0  0  0  0  0  0  0
   44.7080   35.6140   44.3660 C   0  0  0  0  0  0  0  0  0  0  0  0
   45.4910   35.5690   43.1280 C   0  0  1  0  0  0  0  0  0  0  0  0
   46.5680   34.5840   43.0520 C   0  0  0  0  0  0  0  0  0  0  0  0
   46.1500   33.3360   43.7940 C   0  0  0  0  0  0  0  0  0  0  0  0
   47.0070   34.3310   45.4860 H   0  0  0  0  0  0  0  0  0  0  0  0
   44.3080   34.8100   46.2670 H   0  0  0  0  0  0  0  0  0  0  0  0
   43.9300   36.3210   44.4950 H   0  0  0  0  0  0  0  0  0  0  0  0
   45.8990   36.5870   42.9360 H   0  0  0  0  0  0  0  0  0  0  0  0
   46.7350   34.3600   41.9560 H   0  0  0  0  0  0  0  0  0  0  0  0
   47.5710   34.9210   43.4070 H   0  0  0  0  0  0  0  0  0  0  0  0
   47.0110   32.7060   43.4470 H   0  0  0  0  0  0  0  0  0  0  0  0
   45.1970   32.9870   43.3460 H   0  0  0  0  0  0  0  0  0  0  0  0
   44.4670   35.2970   41.9880 C   0  0  0  0  0  0  0  0  0  0  0  0
   43.4120   34.4990   42.3990 F   0  0  0  0  0  0  0  0  0  0  0  0
   43.9140   36.5310   41.6550 F   0  0  0  0  0  0  0  0  0  0  0  0
   45.1300   34.8340   40.8680 F   0  0  0  0  0  0  0  0  0  0  0  0
   46.5980   30.5880   44.6960 C   0  0  0  0  0  0  0  0  0  0  0  0
   46.0940   29.9880   43.5880 C   0  0  0  0  0  0  0  0  0  0  0  0
   47.1630   29.4560   42.8550 C   0  0  0  0  0  0  0  0  0  0  0  0
   48.2600   29.7590   43.5520 N   0  0  0  0  0  0  0  0  0  0  0  0
   47.9510   30.4260   44.6400 N   0  0  0  0  0  0  0  0  0  0  0  0
   45.0250   30.0130   43.4550 H   0  0  0  0  0  0  0  0  0  0  0  0
   46.9890   28.9320   41.9310 H   0  0  0  0  0  0  0  0  0  0  0  0
   50.3480   29.6900   41.2050 H   0  0  0  0  0  0  0  0  0  0  0  0
   49.9800   30.2230   42.0090 N   0  0  0  0  0  0  0  0  0  0  0  0
   50.9250   31.1750   42.5610 C   0  0  0  0  0  2  0  0  0  0  0  0
   51.7280   30.2840   43.4990 C   0  0  0  0  0  2  0  0  0  0  0  0
   50.6320   29.5010   44.1890 C   0  0  0  0  0  2  0  0  0  0  0  0
   49.6090   29.3720   43.1120 C   0  0  1  0  0  3  0  0  0  0  0  0
  1  8  1  0  0  0  0
  1  6  1  0  0  0  0
  2  1  2  0  0  0  0
  3  2  1  0  0  0  0
  3  4  2  0  0  0  0
  4  5  1  0  0  0  0
  5  6  2  0  0  0  0
  5  7  1  0  0  0  0
  7 10  1  0  0  0  0
  9  7  1  0  0  0  0
 11 12  1  0  0  0  0
 11 17  1  1  0  0  0
 11  2  1  0  0  0  0
 12 18  1  0  0  0  0
 13 19  1  0  0  0  0
 13 12  2  0  0  0  0
 14 20  1  6  0  0  0
 14 13  1  0  0  0  0
 15 14  1  0  0  0  0
 15 22  1  0  0  0  0
 15 16  1  0  0  0  0
 16 11  1  0  0  0  0
 21 15  1  0  0  0  0
 23 16  1  0  0  0  0
 24 16  1  0  0  0  0
 25 26  1  0  0  0  0
 25 14  1  0  0  0  0
 27 25  1  0  0  0  0
 28 25  1  0  0  0  0
 29  3  1  0  0  0  0
 30 29  1  0  0  0  0
 31 32  1  0  0  0  0
 31 30  2  0  0  0  0
 32 33  1  0  0  0  0
 33 29  2  0  0  0  0
 34 30  1  0  0  0  0
 35 31  1  0  0  0  0
 36 37  1  0  0  0  0
 37 38  1  0  0  0  0
 37 41  1  0  0  0  0
 38 39  1  0  0  0  0
 39 40  1  0  0  0  0
 41 32  1  1  0  0  0
 41 40  1  0  0  0  0
M  END
>  <minimizedAffinity>
-5.8022089

>  <minimizedRMSD>
0.473863274

$$$$
