
 OpenBabel03232520593D

 41 44  0  0  1  0  0  0  0  0999 V2000
   45.5720   32.8950   47.4520 C   0  0  0  0  0  0  0  0  0  0  0  0
   45.9820   32.6410   46.1840 C   0  0  0  0  0  0  0  0  0  0  0  0
   46.1240   31.2860   45.8780 C   0  0  0  0  0  0  0  0  0  0  0  0
   45.8760   30.2830   46.7580 N   0  0  0  0  0  0  0  0  0  0  0  0
   45.4590   30.5940   48.0420 C   0  0  0  0  0  0  0  0  0  0  0  0
   45.3190   31.8780   48.3550 N   0  0  0  0  0  0  0  0  0  0  0  0
   45.2080   29.5710   48.9910 N   0  0  0  0  0  0  0  0  0  0  0  0
   45.4350   33.9080   47.7970 H   0  0  0  0  0  0  0  0  0  0  0  0
   46.0130   28.8760   48.9760 H   0  0  0  0  0  0  0  0  0  0  0  0
   44.4260   29.4230   49.6350 H   0  0  0  0  0  0  0  0  0  0  0  0
   46.1990   33.6080   45.1610 C   0  0  2  0  0  0  0  0  0  0  0  0
   44.9740   34.6770   45.4230 C   0  0  0  0  0  0  0  0  0  0  0  0
   44.7080   35.6130   44.3670 C   0  0  0  0  0  0  0  0  0  0  0  0
   45.4910   35.5690   43.1300 C   0  0  1  0  0  0  0  0  0  0  0  0
   46.5680   34.5840   43.0530 C   0  0  0  0  0  0  0  0  0  0  0  0
   46.1500   33.3360   43.7950 C   0  0  0  0  0  0  0  0  0  0  0  0
   47.0070   34.3300   45.4870 H   0  0  0  0  0  0  0  0  0  0  0  0
   44.3080   34.8090   46.2690 H   0  0  0  0  0  0  0  0  0  0  0  0
   43.9300   36.3200   44.4970 H   0  0  0  0  0  0  0  0  0  0  0  0
   45.8990   36.5870   42.9380 H   0  0  0  0  0  0  0  0  0  0  0  0
   46.7350   34.3600   41.9570 H   0  0  0  0  0  0  0  0  0  0  0  0
   47.5710   34.9210   43.4080 H   0  0  0  0  0  0  0  0  0  0  0  0
   47.0110   32.7060   43.4470 H   0  0  0  0  0  0  0  0  0  0  0  0
   45.1970   32.9870   43.3460 H   0  0  0  0  0  0  0  0  0  0  0  0
   44.4670   35.2980   41.9900 C   0  0  0  0  0  0  0  0  0  0  0  0
   43.4120   34.5000   42.4000 F   0  0  0  0  0  0  0  0  0  0  0  0
   43.9150   36.5320   41.6560 F   0  0  0  0  0  0  0  0  0  0  0  0
   45.1300   34.8340   40.8700 F   0  0  0  0  0  0  0  0  0  0  0  0
   46.5970   30.5870   44.6950 C   0  0  0  0  0  0  0  0  0  0  0  0
   46.0930   29.9870   43.5870 C   0  0  0  0  0  0  0  0  0  0  0  0
   47.1620   29.4560   42.8530 C   0  0  0  0  0  0  0  0  0  0  0  0
   48.2590   29.7590   43.5490 N   0  0  0  0  0  0  0  0  0  0  0  0
   47.9510   30.4260   44.6380 N   0  0  0  0  0  0  0  0  0  0  0  0
   45.0240   30.0110   43.4550 H   0  0  0  0  0  0  0  0  0  0  0  0
   46.9870   28.9320   41.9290 H   0  0  0  0  0  0  0  0  0  0  0  0
   50.3460   29.6900   41.2010 H   0  0  0  0  0  0  0  0  0  0  0  0
   49.9780   30.2230   42.0050 N   0  0  0  0  0  0  0  0  0  0  0  0
   50.9220   31.1770   42.5550 C   0  0  0  0  0  2  0  0  0  0  0  0
   51.7260   30.2870   43.4930 C   0  0  0  0  0  2  0  0  0  0  0  0
   50.6310   29.5030   44.1840 C   0  0  0  0  0  2  0  0  0  0  0  0
   49.6080   29.3730   43.1080 C   0  0  1  0  0  3  0  0  0  0  0  0
  1  8  1  0  0  0  0
  1  6  1  0  0  0  0
  2  1  2  0  0  0  0
  3  2  1  0  0  0  0
  3  4  2  0  0  0  0
  4  5  1  0  0  0  0
  5  6  2  0  0  0  0
  5  7  1  0  0  0  0
  7 10  1  0  0  0  0
  9  7  1  0  0  0  0
 11 12  1  0  0  0  0
 11 17  1  1  0  0  0
 11  2  1  0  0  0  0
 12 18  1  0  0  0  0
 13 19  1  0  0  0  0
 13 12  2  0  0  0  0
 14 20  1  6  0  0  0
 14 13  1  0  0  0  0
 15 14  1  0  0  0  0
 15 22  1  0  0  0  0
 15 16  1  0  0  0  0
 16 11  1  0  0  0  0
 21 15  1  0  0  0  0
 23 16  1  0  0  0  0
 24 16  1  0  0  0  0
 25 26  1  0  0  0  0
 25 14  1  0  0  0  0
 27 25  1  0  0  0  0
 28 25  1  0  0  0  0
 29  3  1  0  0  0  0
 30 29  1  0  0  0  0
 31 32  1  0  0  0  0
 31 30  2  0  0  0  0
 32 33  1  0  0  0  0
 33 29  2  0  0  0  0
 34 30  1  0  0  0  0
 35 31  1  0  0  0  0
 36 37  1  0  0  0  0
 37 38  1  0  0  0  0
 37 41  1  0  0  0  0
 38 39  1  0  0  0  0
 39 40  1  0  0  0  0
 41 32  1  1  0  0  0
 41 40  1  0  0  0  0
M  END
>  <minimizedAffinity>
-5.80172443

>  <minimizedRMSD>
0.589785039

$$$$
