
 OpenBabel03232519473D

 40 43  0  0  1  0  0  0  0  0999 V2000
   46.4410   33.8580   42.2890 N   0  0  0  0  0  0  0  0  0  0  0  0
   47.7560   34.1680   41.7410 C   0  0  0  0  0  0  0  0  0  0  0  0
   47.3850   34.4260   40.2980 C   0  0  0  0  0  0  0  0  0  0  0  0
   46.5470   33.1990   40.0100 C   0  0  0  0  0  0  0  0  0  0  0  0
   45.7600   33.0440   41.2720 C   0  0  2  0  0  0  0  0  0  0  0  0
   48.1980   35.0580   42.2220 H   0  0  0  0  0  0  0  0  0  0  0  0
   48.3810   33.2750   41.7940 H   0  0  0  0  0  0  0  0  0  0  0  0
   46.7840   35.3300   40.1650 H   0  0  0  0  0  0  0  0  0  0  0  0
   48.2980   34.4050   39.6730 H   0  0  0  0  0  0  0  0  0  0  0  0
   47.1960   32.3540   39.7460 H   0  0  0  0  0  0  0  0  0  0  0  0
   45.8580   33.4930   39.1670 H   0  0  0  0  0  0  0  0  0  0  0  0
   45.9750   31.9940   41.6080 H   0  0  0  0  0  0  0  0  0  0  0  0
   44.5930   35.6850   44.9460 C   0  0  0  0  0  0  0  0  0  0  0  0
   45.1190   35.3820   43.6790 C   0  0  0  0  0  0  0  0  0  0  0  0
   45.8870   34.2250   43.5130 C   0  0  0  0  0  0  0  0  0  0  0  0
   46.0710   33.4590   44.6210 N   0  0  0  0  0  0  0  0  0  0  0  0
   45.5670   33.7480   45.8380 C   0  0  0  0  0  0  0  0  0  0  0  0
   44.8300   34.8640   45.9840 N   0  0  0  0  0  0  0  0  0  0  0  0
   44.0130   36.5970   44.9880 H   0  0  0  0  0  0  0  0  0  0  0  0
   44.9700   35.9930   42.8000 H   0  0  0  0  0  0  0  0  0  0  0  0
   45.8240   32.8830   46.9070 N   0  0  0  0  0  0  0  0  0  0  0  0
   44.9450   32.6640   48.0400 C   0  0  0  0  0  0  0  0  0  0  0  0
   45.7030   31.7080   48.9320 C   0  0  0  0  0  0  0  0  0  0  0  0
   47.1460   32.0820   48.5800 C   0  0  0  0  0  0  0  0  0  0  0  0
   47.0290   32.0570   47.0500 C   0  0  0  0  0  0  0  0  0  0  0  0
   46.7980   31.0290   46.7690 H   0  0  0  0  0  0  0  0  0  0  0  0
   44.3630   33.2600   41.1870 N   0  0  0  0  0  0  0  0  0  0  0  0
   43.7360   34.2100   40.4870 C   0  0  0  0  0  0  0  0  0  0  0  0
   42.3550   34.3420   40.4660 C   0  0  0  0  0  0  0  0  0  0  0  0
   41.5740   33.4630   41.1970 C   0  0  0  0  0  0  0  0  0  0  0  0
   40.2970   33.5290   41.2200 O   0  0  0  0  0  0  0  0  0  0  0  0
   42.2120   32.5150   41.8960 N   0  0  0  0  0  0  0  0  0  0  0  0
   43.5420   32.4300   41.8820 C   0  0  0  0  0  0  0  0  0  0  0  0
   44.0490   31.4940   42.5800 O   0  0  0  0  0  0  0  0  0  0  0  0
   44.3640   34.8940   39.9160 H   0  0  0  0  0  0  0  0  0  0  0  0
   41.6280   31.8500   42.4480 H   0  0  0  0  0  0  0  0  0  0  0  0
   41.6760   35.3950   39.6880 C   0  0  0  0  0  0  0  0  0  0  0  0
   42.3400   36.2350   39.4050 H   0  0  0  0  0  0  0  0  0  0  0  0
   41.2130   34.9970   38.7530 H   0  0  0  0  0  0  0  0  0  0  0  0
   40.8470   35.7910   40.2960 H   0  0  0  0  0  0  0  0  0  0  0  0
  1 15  1  0  0  0  0
  2  7  1  0  0  0  0
  2  6  1  0  0  0  0
  2  1  1  0  0  0  0
  3  2  1  0  0  0  0
  4  3  1  0  0  0  0
  4  5  1  0  0  0  0
  5 12  1  1  0  0  0
  5  1  1  0  0  0  0
  8  3  1  0  0  0  0
  9  3  1  0  0  0  0
 10  4  1  0  0  0  0
 11  4  1  0  0  0  0
 13 19  1  0  0  0  0
 13 18  1  0  0  0  0
 14 13  2  0  0  0  0
 15 14  1  0  0  0  0
 15 16  2  0  0  0  0
 16 17  1  0  0  0  0
 17 18  2  0  0  0  0
 17 21  1  0  0  0  0
 20 14  1  0  0  0  0
 21 25  1  0  0  0  0
 21 22  1  0  0  0  0
 22 23  1  0  0  0  0
 24 23  1  0  0  0  0
 25 24  1  0  0  0  0
 26 25  1  0  0  0  0
 27  5  1  0  0  0  0
 27 33  1  0  0  0  0
 28 27  1  0  0  0  0
 29 28  2  0  0  0  0
 29 30  1  0  0  0  0
 30 31  2  0  0  0  0
 30 32  1  0  0  0  0
 32 36  1  0  0  0  0
 33 32  1  0  0  0  0
 33 34  2  0  0  0  0
 35 28  1  0  0  0  0
 37 40  1  0  0  0  0
 37 29  1  0  0  0  0
 38 37  1  0  0  0  0
 39 37  1  0  0  0  0
M  END
>  <minimizedAffinity>
-6.89659071

>  <minimizedRMSD>
0.444561839

$$$$
