
 OpenBabel03232520593D

 41 44  0  0  1  0  0  0  0  0999 V2000
   45.3660   32.8820   47.5380 C   0  0  0  0  0  0  0  0  0  0  0  0
   45.9260   32.6180   46.3310 C   0  0  0  0  0  0  0  0  0  0  0  0
   46.1950   31.2680   46.0970 C   0  0  0  0  0  0  0  0  0  0  0  0
   45.9250   30.2790   46.9860 N   0  0  0  0  0  0  0  0  0  0  0  0
   45.3520   30.6010   48.2070 C   0  0  0  0  0  0  0  0  0  0  0  0
   45.0890   31.8800   48.4510 N   0  0  0  0  0  0  0  0  0  0  0  0
   45.0740   29.5940   49.1650 N   0  0  0  0  0  0  0  0  0  0  0  0
   45.1220   33.8940   47.8260 H   0  0  0  0  0  0  0  0  0  0  0  0
   45.9230   28.9600   49.2620 H   0  0  0  0  0  0  0  0  0  0  0  0
   44.2410   29.4090   49.7300 H   0  0  0  0  0  0  0  0  0  0  0  0
   46.1820   33.5640   45.2980 C   0  0  2  0  0  0  0  0  0  0  0  0
   44.9700   34.6580   45.5150 C   0  0  0  0  0  0  0  0  0  0  0  0
   44.7440   35.5810   44.4380 C   0  0  0  0  0  0  0  0  0  0  0  0
   45.5530   35.5030   43.2200 C   0  0  1  0  0  0  0  0  0  0  0  0
   46.6140   34.4990   43.1830 C   0  0  0  0  0  0  0  0  0  0  0  0
   46.1590   33.2700   43.9350 C   0  0  0  0  0  0  0  0  0  0  0  0
   46.9950   34.2770   45.6300 H   0  0  0  0  0  0  0  0  0  0  0  0
   44.2880   34.8150   46.3430 H   0  0  0  0  0  0  0  0  0  0  0  0
   43.9760   36.3030   44.5390 H   0  0  0  0  0  0  0  0  0  0  0  0
   45.9830   36.5110   43.0210 H   0  0  0  0  0  0  0  0  0  0  0  0
   46.8010   34.2540   42.0950 H   0  0  0  0  0  0  0  0  0  0  0  0
   47.6150   34.8240   43.5550 H   0  0  0  0  0  0  0  0  0  0  0  0
   47.0160   32.6200   43.6170 H   0  0  0  0  0  0  0  0  0  0  0  0
   45.2090   32.9310   43.4710 H   0  0  0  0  0  0  0  0  0  0  0  0
   44.5500   35.2310   42.0620 C   0  0  0  0  0  0  0  0  0  0  0  0
   43.5090   34.4000   42.4430 F   0  0  0  0  0  0  0  0  0  0  0  0
   43.9730   36.4580   41.7450 F   0  0  0  0  0  0  0  0  0  0  0  0
   45.2380   34.8050   40.9410 F   0  0  0  0  0  0  0  0  0  0  0  0
   46.8390   30.5670   44.9990 C   0  0  0  0  0  0  0  0  0  0  0  0
   46.5000   29.9050   43.8640 C   0  0  0  0  0  0  0  0  0  0  0  0
   47.6750   29.4230   43.2720 C   0  0  0  0  0  0  0  0  0  0  0  0
   48.6660   29.8160   44.0740 N   0  0  0  0  0  0  0  0  0  0  0  0
   48.1980   30.4910   45.0980 N   0  0  0  0  0  0  0  0  0  0  0  0
   45.4530   29.8570   43.6140 H   0  0  0  0  0  0  0  0  0  0  0  0
   47.6370   28.8630   42.3540 H   0  0  0  0  0  0  0  0  0  0  0  0
   51.5970   29.6590   45.1960 H   0  0  0  0  0  0  0  0  0  0  0  0
   50.7100   29.1550   45.0470 N   0  0  0  0  0  0  0  0  0  0  0  0
   50.8540   27.7120   45.0120 C   0  0  0  0  0  2  0  0  0  0  0  0
   51.2410   27.4910   43.5560 C   0  0  0  0  0  2  0  0  0  0  0  0
   50.2480   28.3790   42.8380 C   0  0  0  0  0  2  0  0  0  0  0  0
   50.0780   29.5040   43.7990 C   0  0  1  0  0  3  0  0  0  0  0  0
  1  8  1  0  0  0  0
  1  6  1  0  0  0  0
  2  1  2  0  0  0  0
  3  2  1  0  0  0  0
  3  4  2  0  0  0  0
  4  5  1  0  0  0  0
  5  6  2  0  0  0  0
  5  7  1  0  0  0  0
  7  9  1  0  0  0  0
  7 10  1  0  0  0  0
 11 12  1  0  0  0  0
 11 17  1  1  0  0  0
 11  2  1  0  0  0  0
 12 18  1  0  0  0  0
 13 19  1  0  0  0  0
 13 12  2  0  0  0  0
 14 20  1  6  0  0  0
 14 13  1  0  0  0  0
 15 14  1  0  0  0  0
 15 22  1  0  0  0  0
 15 16  1  0  0  0  0
 16 11  1  0  0  0  0
 21 15  1  0  0  0  0
 23 16  1  0  0  0  0
 24 16  1  0  0  0  0
 25 26  1  0  0  0  0
 25 14  1  0  0  0  0
 27 25  1  0  0  0  0
 28 25  1  0  0  0  0
 29 33  2  0  0  0  0
 29  3  1  0  0  0  0
 30 29  1  0  0  0  0
 31 30  2  0  0  0  0
 31 32  1  0  0  0  0
 32 33  1  0  0  0  0
 34 30  1  0  0  0  0
 35 31  1  0  0  0  0
 37 36  1  0  0  0  0
 38 37  1  0  0  0  0
 39 38  1  0  0  0  0
 40 39  1  0  0  0  0
 41 40  1  6  0  0  0
 41 32  1  0  0  0  0
 41 37  1  0  0  0  0
M  END
>  <minimizedAffinity>
-5.58962965

>  <minimizedRMSD>
0.798166633

$$$$
