
 OpenBabel03232519543D

 22 24  0  0  0  0  0  0  0  0999 V2000
   45.5100   33.9250   41.5150 N   0  0  0  0  0  0  0  0  0  0  0  0
   46.6120   33.9430   40.7990 C   0  0  0  0  0  0  0  0  0  0  0  0
   46.3470   33.5410   39.4980 C   0  0  0  0  0  0  0  0  0  0  0  0
   45.0360   33.2770   39.4450 N   0  0  0  0  0  0  0  0  0  0  0  0
   44.5250   33.5110   40.6770 C   0  0  0  0  0  0  0  0  0  0  0  0
   47.0030   33.4360   38.6450 H   0  0  0  0  0  0  0  0  0  0  0  0
   43.4620   33.3700   40.9040 H   0  0  0  0  0  0  0  0  0  0  0  0
   44.6870   35.5060   43.0930 C   0  0  0  0  0  0  0  0  0  0  0  0
   45.3200   34.2580   42.8500 C   0  0  0  0  0  0  0  0  0  0  0  0
   45.6720   33.5340   43.9680 C   0  0  0  0  0  0  0  0  0  0  0  0
   45.4040   34.0310   45.2020 N   0  0  0  0  0  0  0  0  0  0  0  0
   44.8030   35.2170   45.3890 C   0  0  0  0  0  0  0  0  0  0  0  0
   44.4450   35.9540   44.3200 N   0  0  0  0  0  0  0  0  0  0  0  0
   44.3360   36.2200   42.3340 H   0  0  0  0  0  0  0  0  0  0  0  0
   46.1540   32.5850   43.8050 H   0  0  0  0  0  0  0  0  0  0  0  0
   44.6880   35.4140   46.4430 H   0  0  0  0  0  0  0  0  0  0  0  0
   47.9490   34.2770   41.1370 N   0  0  0  0  0  0  0  0  0  0  0  0
   49.0170   33.2890   41.3230 C   0  0  0  0  0  0  0  0  0  0  0  0
   49.5070   33.7260   42.7090 C   0  0  0  0  0  0  0  0  0  0  0  0
   49.6960   35.2010   42.4770 C   0  0  0  0  0  0  0  0  0  0  0  0
   48.6570   35.4930   41.4070 C   0  0  0  0  0  0  0  0  0  0  0  0
   49.1870   35.8920   40.5270 H   0  0  0  0  0  0  0  0  0  0  0  0
  1  9  1  0  0  0  0
  2 17  1  0  0  0  0
  2  1  1  0  0  0  0
  3  2  2  0  0  0  0
  4  3  1  0  0  0  0
  4  5  2  0  0  0  0
  5  7  1  0  0  0  0
  5  1  1  0  0  0  0
  6  3  1  0  0  0  0
  8 13  1  0  0  0  0
  9  8  2  0  0  0  0
  9 10  1  0  0  0  0
 10 11  2  0  0  0  0
 11 12  1  0  0  0  0
 12 16  1  0  0  0  0
 13 12  2  0  0  0  0
 14  8  1  0  0  0  0
 15 10  1  0  0  0  0
 17 18  1  0  0  0  0
 17 21  1  0  0  0  0
 18 19  1  0  0  0  0
 20 19  1  0  0  0  0
 21 20  1  0  0  0  0
 22 21  1  0  0  0  0
M  END
>  <minimizedAffinity>
-4.62138319

>  <minimizedRMSD>
3.34655452

$$$$
