
 OpenBabel03232520593D

 41 44  0  0  1  0  0  0  0  0999 V2000
   45.3650   32.8880   47.5370 C   0  0  0  0  0  0  0  0  0  0  0  0
   45.9250   32.6230   46.3300 C   0  0  0  0  0  0  0  0  0  0  0  0
   46.1930   31.2720   46.0960 C   0  0  0  0  0  0  0  0  0  0  0  0
   45.9230   30.2830   46.9870 N   0  0  0  0  0  0  0  0  0  0  0  0
   45.3510   30.6070   48.2070 C   0  0  0  0  0  0  0  0  0  0  0  0
   45.0890   31.8860   48.4510 N   0  0  0  0  0  0  0  0  0  0  0  0
   45.0740   29.6010   49.1670 N   0  0  0  0  0  0  0  0  0  0  0  0
   45.1220   33.8990   47.8240 H   0  0  0  0  0  0  0  0  0  0  0  0
   45.9220   28.9670   49.2640 H   0  0  0  0  0  0  0  0  0  0  0  0
   44.2400   29.4160   49.7310 H   0  0  0  0  0  0  0  0  0  0  0  0
   46.1810   33.5670   45.2960 C   0  0  2  0  0  0  0  0  0  0  0  0
   44.9690   34.6620   45.5130 C   0  0  0  0  0  0  0  0  0  0  0  0
   44.7430   35.5840   44.4350 C   0  0  0  0  0  0  0  0  0  0  0  0
   45.5520   35.5050   43.2160 C   0  0  1  0  0  0  0  0  0  0  0  0
   46.6130   34.5010   43.1800 C   0  0  0  0  0  0  0  0  0  0  0  0
   46.1570   33.2730   43.9340 C   0  0  0  0  0  0  0  0  0  0  0  0
   46.9940   34.2810   45.6280 H   0  0  0  0  0  0  0  0  0  0  0  0
   44.2870   34.8190   46.3400 H   0  0  0  0  0  0  0  0  0  0  0  0
   43.9750   36.3060   44.5360 H   0  0  0  0  0  0  0  0  0  0  0  0
   45.9820   36.5120   43.0160 H   0  0  0  0  0  0  0  0  0  0  0  0
   46.8000   34.2550   42.0920 H   0  0  0  0  0  0  0  0  0  0  0  0
   47.6140   34.8270   43.5520 H   0  0  0  0  0  0  0  0  0  0  0  0
   47.0150   32.6220   43.6160 H   0  0  0  0  0  0  0  0  0  0  0  0
   45.2080   32.9330   43.4700 H   0  0  0  0  0  0  0  0  0  0  0  0
   44.5480   35.2320   42.0590 C   0  0  0  0  0  0  0  0  0  0  0  0
   43.5080   34.4010   42.4410 F   0  0  0  0  0  0  0  0  0  0  0  0
   43.9710   36.4590   41.7420 F   0  0  0  0  0  0  0  0  0  0  0  0
   45.2360   34.8060   40.9380 F   0  0  0  0  0  0  0  0  0  0  0  0
   46.8370   30.5700   44.9990 C   0  0  0  0  0  0  0  0  0  0  0  0
   46.4980   29.9070   43.8650 C   0  0  0  0  0  0  0  0  0  0  0  0
   47.6720   29.4240   43.2730 C   0  0  0  0  0  0  0  0  0  0  0  0
   48.6630   29.8180   44.0740 N   0  0  0  0  0  0  0  0  0  0  0  0
   48.1960   30.4940   45.0970 N   0  0  0  0  0  0  0  0  0  0  0  0
   45.4510   29.8590   43.6150 H   0  0  0  0  0  0  0  0  0  0  0  0
   47.6340   28.8640   42.3540 H   0  0  0  0  0  0  0  0  0  0  0  0
   51.5960   29.6600   45.1940 H   0  0  0  0  0  0  0  0  0  0  0  0
   50.7070   29.1560   45.0460 N   0  0  0  0  0  0  0  0  0  0  0  0
   50.8510   27.7130   45.0100 C   0  0  0  0  0  2  0  0  0  0  0  0
   51.2370   27.4920   43.5540 C   0  0  0  0  0  2  0  0  0  0  0  0
   50.2450   28.3810   42.8360 C   0  0  0  0  0  2  0  0  0  0  0  0
   50.0750   29.5060   43.7990 C   0  0  1  0  0  3  0  0  0  0  0  0
  1  8  1  0  0  0  0
  1  6  1  0  0  0  0
  2  1  2  0  0  0  0
  3  2  1  0  0  0  0
  3  4  2  0  0  0  0
  4  5  1  0  0  0  0
  5  6  2  0  0  0  0
  5  7  1  0  0  0  0
  7  9  1  0  0  0  0
  7 10  1  0  0  0  0
 11 12  1  0  0  0  0
 11 17  1  1  0  0  0
 11  2  1  0  0  0  0
 12 18  1  0  0  0  0
 13 19  1  0  0  0  0
 13 12  2  0  0  0  0
 14 20  1  6  0  0  0
 14 13  1  0  0  0  0
 15 14  1  0  0  0  0
 15 22  1  0  0  0  0
 15 16  1  0  0  0  0
 16 11  1  0  0  0  0
 21 15  1  0  0  0  0
 23 16  1  0  0  0  0
 24 16  1  0  0  0  0
 25 26  1  0  0  0  0
 25 14  1  0  0  0  0
 27 25  1  0  0  0  0
 28 25  1  0  0  0  0
 29 33  2  0  0  0  0
 29  3  1  0  0  0  0
 30 29  1  0  0  0  0
 31 30  2  0  0  0  0
 31 32  1  0  0  0  0
 32 33  1  0  0  0  0
 34 30  1  0  0  0  0
 35 31  1  0  0  0  0
 37 36  1  0  0  0  0
 38 37  1  0  0  0  0
 39 38  1  0  0  0  0
 40 39  1  0  0  0  0
 41 40  1  6  0  0  0
 41 32  1  0  0  0  0
 41 37  1  0  0  0  0
M  END
>  <minimizedAffinity>
-5.58900261

>  <minimizedRMSD>
0.650547683

$$$$
