
 OpenBabel03232520413D

 40 43  0  0  1  0  0  0  0  0999 V2000
   38.0470   32.8310   40.9370 N   0  0  0  0  0  0  0  0  0  0  0  0
   38.3320   33.6590   39.8160 C   0  0  0  0  0  0  0  0  0  0  0  0
   39.4950   34.5980   40.0470 C   0  0  0  0  0  0  0  0  0  0  0  0
   40.6930   33.7780   40.4420 C   0  0  1  0  0  0  0  0  0  0  0  0
   40.4150   32.3090   40.5660 C   0  0  0  0  0  0  0  0  0  0  0  0
   39.1810   32.0880   41.4270 C   0  0  2  0  0  0  0  0  0  0  0  0
   37.2040   32.2740   40.7410 H   0  0  0  0  0  0  0  0  0  0  0  0
   37.4410   34.3290   39.6790 H   0  0  0  0  0  0  0  0  0  0  0  0
   38.5260   33.1400   38.8660 H   0  0  0  0  0  0  0  0  0  0  0  0
   39.6260   35.1660   39.1010 H   0  0  0  0  0  0  0  0  0  0  0  0
   39.1810   35.3420   40.7970 H   0  0  0  0  0  0  0  0  0  0  0  0
   40.9470   34.1110   41.4700 H   0  0  0  0  0  0  0  0  0  0  0  0
   40.1660   31.9250   39.5660 H   0  0  0  0  0  0  0  0  0  0  0  0
   41.2600   31.8260   41.0580 H   0  0  0  0  0  0  0  0  0  0  0  0
   39.4170   32.4450   42.4610 H   0  0  0  0  0  0  0  0  0  0  0  0
   38.8440   30.7040   41.5440 N   0  0  2  0  0  0  0  0  0  0  0  0
   39.6620   29.8370   40.7500 C   0  0  0  0  0  0  0  0  0  0  0  0
   38.7970   29.0640   39.8090 C   0  0  0  0  0  0  0  0  0  0  0  0
   37.4250   29.6960   39.9090 C   0  0  0  0  0  0  0  0  0  0  0  0
   37.4660   30.4180   41.2170 C   0  0  0  0  0  0  0  0  0  0  0  0
   37.0480   29.7830   42.0170 H   0  0  0  0  0  0  0  0  0  0  0  0
   41.9630   34.0850   39.2130 S   0  0  0  0  0  0  0  0  0  0  0  0
   44.6500   33.4210   39.4290 C   0  0  0  0  0  0  0  0  0  0  0  0
   43.5930   34.1740   39.9510 C   0  0  0  0  0  0  0  0  0  0  0  0
   43.8420   34.9720   41.0310 C   0  0  0  0  0  0  0  0  0  0  0  0
   45.0910   35.0230   41.5750 N   0  0  0  0  0  0  0  0  0  0  0  0
   46.0950   34.2860   41.0540 C   0  0  0  0  0  0  0  0  0  0  0  0
   45.8730   33.4870   39.9820 N   0  0  0  0  0  0  0  0  0  0  0  0
   44.4560   32.7870   38.5730 H   0  0  0  0  0  0  0  0  0  0  0  0
   43.0740   35.5810   41.4870 H   0  0  0  0  0  0  0  0  0  0  0  0
   47.4490   34.2910   41.5810 C   0  0  0  0  0  0  0  0  0  0  0  0
   48.0330   33.1590   42.0410 C   0  0  0  0  0  0  0  0  0  0  0  0
   49.3310   33.1590   42.5470 C   0  0  0  0  0  0  0  0  0  0  0  0
   50.0630   34.3380   42.5890 C   0  0  0  0  0  0  0  0  0  0  0  0
   49.4400   35.4710   42.1140 C   0  0  0  0  0  0  0  0  0  0  0  0
   48.1840   35.4320   41.6320 N   0  0  0  0  0  0  0  0  0  0  0  0
   47.4540   32.2510   42.0030 H   0  0  0  0  0  0  0  0  0  0  0  0
   49.6930   32.2000   42.8850 H   0  0  0  0  0  0  0  0  0  0  0  0
   51.0690   34.3090   42.9870 H   0  0  0  0  0  0  0  0  0  0  0  0
   49.9770   36.4110   42.1300 H   0  0  0  0  0  0  0  0  0  0  0  0
  1  6  1  0  0  0  0
  2  3  1  0  0  0  0
  2  1  1  0  0  0  0
  3  4  1  0  0  0  0
  3 11  1  0  0  0  0
  4  5  1  0  0  0  0
  4 12  1  1  0  0  0
  5 14  1  0  0  0  0
  5  6  1  0  0  0  0
  6 16  1  0  0  0  0
  6 15  1  1  0  0  0
  7  1  1  0  0  0  0
  8  2  1  0  0  0  0
  9  2  1  0  0  0  0
 10  3  1  0  0  0  0
 13  5  1  0  0  0  0
 16 17  1  6  0  0  0
 18 19  1  0  0  0  0
 18 17  1  0  0  0  0
 19 20  1  0  0  0  0
 20 16  1  0  0  0  0
 20 21  1  0  0  0  0
 22 24  1  0  0  0  0
 22  4  1  0  0  0  0
 23 24  2  0  0  0  0
 23 28  1  0  0  0  0
 24 25  1  0  0  0  0
 25 30  1  0  0  0  0
 25 26  2  0  0  0  0
 27 26  1  0  0  0  0
 27 31  1  0  0  0  0
 28 27  2  0  0  0  0
 29 23  1  0  0  0  0
 31 36  2  0  0  0  0
 31 32  1  0  0  0  0
 32 33  2  0  0  0  0
 33 34  1  0  0  0  0
 33 38  1  0  0  0  0
 34 39  1  0  0  0  0
 35 40  1  0  0  0  0
 35 34  2  0  0  0  0
 36 35  1  0  0  0  0
 37 32  1  0  0  0  0
M  END
>  <minimizedAffinity>
-6.24520636

>  <minimizedRMSD>
3.95215225

$$$$
