
 OpenBabel03232518363D

 44 47  0  0  1  0  0  0  0  0999 V2000
   44.0310   34.8310   41.2790 C   0  0  0  0  0  0  0  0  0  0  0  0
   45.2660   34.3860   40.8290 C   0  0  0  0  0  0  0  0  0  0  0  0
   46.3800   34.6540   41.6400 C   0  0  0  0  0  0  0  0  0  0  0  0
   46.1940   35.3350   42.8220 N   0  0  0  0  0  0  0  0  0  0  0  0
   44.9460   35.7510   43.2180 C   0  0  0  0  0  0  0  0  0  0  0  0
   43.8860   35.4880   42.4320 N   0  0  0  0  0  0  0  0  0  0  0  0
   45.4070   33.8630   39.9190 H   0  0  0  0  0  0  0  0  0  0  0  0
   44.8690   36.2810   44.1600 H   0  0  0  0  0  0  0  0  0  0  0  0
   47.7580   34.2100   41.2710 C   0  0  0  0  0  0  0  0  0  0  0  0
   48.7390   35.3850   41.4170 C   0  0  0  0  0  0  0  0  0  0  0  0
   49.7380   35.1750   42.4920 C   0  0  0  0  0  0  0  0  0  0  0  0
   50.4870   33.8750   42.3910 C   0  0  0  0  0  0  0  0  0  0  0  0
   49.6870   32.8250   41.6590 C   0  0  0  0  0  0  0  0  0  0  0  0
   48.2340   33.0270   42.0280 C   0  0  0  0  0  0  0  0  0  0  0  0
   47.6970   33.9560   40.1860 H   0  0  0  0  0  0  0  0  0  0  0  0
   49.1960   35.6060   40.4310 H   0  0  0  0  0  0  0  0  0  0  0  0
   48.1460   36.2890   41.6700 H   0  0  0  0  0  0  0  0  0  0  0  0
   50.4230   36.0200   42.4900 H   0  0  0  0  0  0  0  0  0  0  0  0
   49.2010   35.1700   43.4590 H   0  0  0  0  0  0  0  0  0  0  0  0
   51.4110   34.0510   41.7720 H   0  0  0  0  0  0  0  0  0  0  0  0
   50.8200   33.5830   43.3900 H   0  0  0  0  0  0  0  0  0  0  0  0
   50.0720   31.8460   41.9740 H   0  0  0  0  0  0  0  0  0  0  0  0
   49.8080   33.0100   40.5750 H   0  0  0  0  0  0  0  0  0  0  0  0
   48.1060   33.1250   43.1190 H   0  0  0  0  0  0  0  0  0  0  0  0
   47.7000   32.1190   41.7060 H   0  0  0  0  0  0  0  0  0  0  0  0
   42.8130   34.5870   40.4670 C   0  0  1  0  0  0  0  0  0  0  0  0
   43.0820   34.0200   39.1160 C   0  0  0  0  0  0  0  0  0  0  0  0
   42.2870   32.7250   39.0200 C   0  0  0  0  0  0  0  0  0  0  0  0
   42.1760   32.3260   40.4710 C   0  0  0  0  0  0  0  0  0  0  0  0
   41.9090   33.5800   41.1890 C   0  0  2  0  0  0  0  0  0  0  0  0
   42.3060   35.5980   40.4520 H   0  0  0  0  0  0  0  0  0  0  0  0
   42.9220   34.6990   38.2680 H   0  0  0  0  0  0  0  0  0  0  0  0
   44.1580   33.7010   39.0350 H   0  0  0  0  0  0  0  0  0  0  0  0
   41.3480   32.8330   38.4880 H   0  0  0  0  0  0  0  0  0  0  0  0
   42.8670   31.9480   38.4580 H   0  0  0  0  0  0  0  0  0  0  0  0
   43.1620   31.9160   40.7800 H   0  0  0  0  0  0  0  0  0  0  0  0
   41.4500   31.5210   40.5980 H   0  0  0  0  0  0  0  0  0  0  0  0
   42.3110   33.4490   42.2380 H   0  0  0  0  0  0  0  0  0  0  0  0
   40.6000   34.0620   41.2910 N   0  0  2  0  0  0  0  0  0  0  0  0
   39.5610   33.1100   41.3570 C   0  0  0  0  0  0  0  0  0  0  0  0
   38.5770   33.4240   40.2420 C   0  0  0  0  0  0  0  0  0  0  0  0
   38.9700   34.7980   39.7420 C   0  0  0  0  0  0  0  0  0  0  0  0
   40.1920   35.1990   40.5790 C   0  0  0  0  0  0  0  0  0  0  0  0
   39.8380   35.9750   41.3090 H   0  0  0  0  0  0  0  0  0  0  0  0
  1  6  1  0  0  0  0
  2  1  2  0  0  0  0
  2  3  1  0  0  0  0
  3  4  2  0  0  0  0
  4  5  1  0  0  0  0
  5  8  1  0  0  0  0
  6  5  2  0  0  0  0
  7  2  1  0  0  0  0
  9 10  1  0  0  0  0
  9  3  1  0  0  0  0
  9 14  1  0  0  0  0
 10 17  1  0  0  0  0
 10 11  1  0  0  0  0
 11 19  1  0  0  0  0
 12 11  1  0  0  0  0
 12 21  1  0  0  0  0
 13 22  1  0  0  0  0
 13 14  1  0  0  0  0
 13 12  1  0  0  0  0
 14 24  1  0  0  0  0
 15  9  1  0  0  0  0
 16 10  1  0  0  0  0
 18 11  1  0  0  0  0
 20 12  1  0  0  0  0
 23 13  1  0  0  0  0
 25 14  1  0  0  0  0
 26 31  1  6  0  0  0
 26 30  1  0  0  0  0
 26  1  1  0  0  0  0
 27 26  1  0  0  0  0
 28 27  1  0  0  0  0
 28 29  1  0  0  0  0
 29 37  1  0  0  0  0
 29 36  1  0  0  0  0
 29 30  1  0  0  0  0
 30 39  1  0  0  0  0
 30 38  1  1  0  0  0
 32 27  1  0  0  0  0
 33 27  1  0  0  0  0
 34 28  1  0  0  0  0
 35 28  1  0  0  0  0
 39 40  1  6  0  0  0
 41 40  1  0  0  0  0
 42 41  1  0  0  0  0
 42 43  1  0  0  0  0
 43 39  1  0  0  0  0
 43 44  1  0  0  0  0
M  END
>  <minimizedAffinity>
-6.83582497

>  <minimizedRMSD>
1.77070069

$$$$
