
 OpenBabel03232520593D

 41 44  0  0  1  0  0  0  0  0999 V2000
   45.3640   32.8860   47.5360 C   0  0  0  0  0  0  0  0  0  0  0  0
   45.9240   32.6220   46.3290 C   0  0  0  0  0  0  0  0  0  0  0  0
   46.1930   31.2710   46.0950 C   0  0  0  0  0  0  0  0  0  0  0  0
   45.9230   30.2820   46.9840 N   0  0  0  0  0  0  0  0  0  0  0  0
   45.3510   30.6050   48.2050 C   0  0  0  0  0  0  0  0  0  0  0  0
   45.0880   31.8840   48.4490 N   0  0  0  0  0  0  0  0  0  0  0  0
   45.0730   29.5980   49.1640 N   0  0  0  0  0  0  0  0  0  0  0  0
   45.1200   33.8970   47.8230 H   0  0  0  0  0  0  0  0  0  0  0  0
   45.9220   28.9650   49.2610 H   0  0  0  0  0  0  0  0  0  0  0  0
   44.2390   29.4130   49.7280 H   0  0  0  0  0  0  0  0  0  0  0  0
   46.1800   33.5670   45.2960 C   0  0  2  0  0  0  0  0  0  0  0  0
   44.9690   34.6620   45.5130 C   0  0  0  0  0  0  0  0  0  0  0  0
   44.7430   35.5850   44.4360 C   0  0  0  0  0  0  0  0  0  0  0  0
   45.5510   35.5060   43.2170 C   0  0  1  0  0  0  0  0  0  0  0  0
   46.6120   34.5020   43.1800 C   0  0  0  0  0  0  0  0  0  0  0  0
   46.1560   33.2740   43.9330 C   0  0  0  0  0  0  0  0  0  0  0  0
   46.9940   34.2800   45.6270 H   0  0  0  0  0  0  0  0  0  0  0  0
   44.2870   34.8190   46.3410 H   0  0  0  0  0  0  0  0  0  0  0  0
   43.9750   36.3080   44.5370 H   0  0  0  0  0  0  0  0  0  0  0  0
   45.9820   36.5140   43.0180 H   0  0  0  0  0  0  0  0  0  0  0  0
   46.7980   34.2570   42.0920 H   0  0  0  0  0  0  0  0  0  0  0  0
   47.6130   34.8270   43.5520 H   0  0  0  0  0  0  0  0  0  0  0  0
   47.0130   32.6220   43.6140 H   0  0  0  0  0  0  0  0  0  0  0  0
   45.2060   32.9340   43.4690 H   0  0  0  0  0  0  0  0  0  0  0  0
   44.5470   35.2340   42.0600 C   0  0  0  0  0  0  0  0  0  0  0  0
   43.5050   34.4060   42.4420 F   0  0  0  0  0  0  0  0  0  0  0  0
   43.9730   36.4620   41.7410 F   0  0  0  0  0  0  0  0  0  0  0  0
   45.2350   34.8060   40.9400 F   0  0  0  0  0  0  0  0  0  0  0  0
   46.8370   30.5700   44.9970 C   0  0  0  0  0  0  0  0  0  0  0  0
   46.4990   29.9080   43.8620 C   0  0  0  0  0  0  0  0  0  0  0  0
   47.6730   29.4260   43.2700 C   0  0  0  0  0  0  0  0  0  0  0  0
   48.6640   29.8180   44.0730 N   0  0  0  0  0  0  0  0  0  0  0  0
   48.1960   30.4940   45.0960 N   0  0  0  0  0  0  0  0  0  0  0  0
   45.4520   29.8610   43.6120 H   0  0  0  0  0  0  0  0  0  0  0  0
   47.6360   28.8660   42.3520 H   0  0  0  0  0  0  0  0  0  0  0  0
   51.5960   29.6600   45.1940 H   0  0  0  0  0  0  0  0  0  0  0  0
   50.7080   29.1560   45.0450 N   0  0  0  0  0  0  0  0  0  0  0  0
   50.8510   27.7130   45.0100 C   0  0  0  0  0  2  0  0  0  0  0  0
   51.2380   27.4920   43.5540 C   0  0  0  0  0  2  0  0  0  0  0  0
   50.2450   28.3810   42.8360 C   0  0  0  0  0  2  0  0  0  0  0  0
   50.0760   29.5060   43.7980 C   0  0  1  0  0  3  0  0  0  0  0  0
  1  8  1  0  0  0  0
  1  6  1  0  0  0  0
  2  1  2  0  0  0  0
  3  2  1  0  0  0  0
  3  4  2  0  0  0  0
  4  5  1  0  0  0  0
  5  6  2  0  0  0  0
  5  7  1  0  0  0  0
  7  9  1  0  0  0  0
  7 10  1  0  0  0  0
 11 12  1  0  0  0  0
 11 17  1  1  0  0  0
 11  2  1  0  0  0  0
 12 18  1  0  0  0  0
 13 19  1  0  0  0  0
 13 12  2  0  0  0  0
 14 20  1  6  0  0  0
 14 13  1  0  0  0  0
 15 14  1  0  0  0  0
 15 22  1  0  0  0  0
 15 16  1  0  0  0  0
 16 11  1  0  0  0  0
 21 15  1  0  0  0  0
 23 16  1  0  0  0  0
 24 16  1  0  0  0  0
 25 26  1  0  0  0  0
 25 14  1  0  0  0  0
 27 25  1  0  0  0  0
 28 25  1  0  0  0  0
 29 33  2  0  0  0  0
 29  3  1  0  0  0  0
 30 29  1  0  0  0  0
 31 30  2  0  0  0  0
 31 32  1  0  0  0  0
 32 33  1  0  0  0  0
 34 30  1  0  0  0  0
 35 31  1  0  0  0  0
 37 36  1  0  0  0  0
 38 37  1  0  0  0  0
 39 38  1  0  0  0  0
 40 39  1  0  0  0  0
 41 40  1  6  0  0  0
 41 32  1  0  0  0  0
 41 37  1  0  0  0  0
M  END
>  <minimizedAffinity>
-5.59048891

>  <minimizedRMSD>
0.206369787

$$$$
