
 OpenBabel03232520593D

 41 44  0  0  1  0  0  0  0  0999 V2000
   45.3880   32.8580   47.4950 C   0  0  0  0  0  0  0  0  0  0  0  0
   45.9240   32.6120   46.2730 C   0  0  0  0  0  0  0  0  0  0  0  0
   46.1750   31.2640   46.0080 C   0  0  0  0  0  0  0  0  0  0  0  0
   45.9100   30.2600   46.8830 N   0  0  0  0  0  0  0  0  0  0  0  0
   45.3620   30.5640   48.1190 C   0  0  0  0  0  0  0  0  0  0  0  0
   45.1170   31.8410   48.3930 N   0  0  0  0  0  0  0  0  0  0  0  0
   45.0900   29.5420   49.0630 N   0  0  0  0  0  0  0  0  0  0  0  0
   45.1600   33.8660   47.8060 H   0  0  0  0  0  0  0  0  0  0  0  0
   45.9340   28.8980   49.1330 H   0  0  0  0  0  0  0  0  0  0  0  0
   44.2650   29.3540   49.6380 H   0  0  0  0  0  0  0  0  0  0  0  0
   46.1720   33.5750   45.2550 C   0  0  2  0  0  0  0  0  0  0  0  0
   44.9630   34.6660   45.5000 C   0  0  0  0  0  0  0  0  0  0  0  0
   44.7280   35.6070   44.4400 C   0  0  0  0  0  0  0  0  0  0  0  0
   45.5280   35.5490   43.2140 C   0  0  1  0  0  0  0  0  0  0  0  0
   46.5890   34.5460   43.1520 C   0  0  0  0  0  0  0  0  0  0  0  0
   46.1390   33.3050   43.8870 C   0  0  0  0  0  0  0  0  0  0  0  0
   46.9890   34.2830   45.5930 H   0  0  0  0  0  0  0  0  0  0  0  0
   44.2870   34.8080   46.3350 H   0  0  0  0  0  0  0  0  0  0  0  0
   43.9610   36.3270   44.5590 H   0  0  0  0  0  0  0  0  0  0  0  0
   45.9560   36.5600   43.0290 H   0  0  0  0  0  0  0  0  0  0  0  0
   46.7670   34.3200   42.0590 H   0  0  0  0  0  0  0  0  0  0  0  0
   47.5930   34.8650   43.5220 H   0  0  0  0  0  0  0  0  0  0  0  0
   46.9940   32.6600   43.5510 H   0  0  0  0  0  0  0  0  0  0  0  0
   45.1860   32.9730   43.4250 H   0  0  0  0  0  0  0  0  0  0  0  0
   44.5160   35.2960   42.0600 C   0  0  0  0  0  0  0  0  0  0  0  0
   43.4430   34.5140   42.4530 F   0  0  0  0  0  0  0  0  0  0  0  0
   43.9880   36.5400   41.7210 F   0  0  0  0  0  0  0  0  0  0  0  0
   45.1880   34.8250   40.9470 F   0  0  0  0  0  0  0  0  0  0  0  0
   46.7930   30.5790   44.8860 C   0  0  0  0  0  0  0  0  0  0  0  0
   46.4310   29.8230   43.8190 C   0  0  0  0  0  0  0  0  0  0  0  0
   47.5950   29.4390   43.1400 C   0  0  0  0  0  0  0  0  0  0  0  0
   48.6030   29.9800   43.8250 N   0  0  0  0  0  0  0  0  0  0  0  0
   48.1550   30.6560   44.8580 N   0  0  0  0  0  0  0  0  0  0  0  0
   45.3780   29.6480   43.6720 H   0  0  0  0  0  0  0  0  0  0  0  0
   47.5380   28.8300   42.2540 H   0  0  0  0  0  0  0  0  0  0  0  0
   51.6060   29.8880   44.7450 H   0  0  0  0  0  0  0  0  0  0  0  0
   50.7440   29.3450   44.5820 N   0  0  0  0  0  0  0  0  0  0  0  0
   50.9770   27.9340   44.3450 C   0  0  0  0  0  2  0  0  0  0  0  0
   51.2800   27.9320   42.8520 C   0  0  0  0  0  2  0  0  0  0  0  0
   50.1880   28.8330   42.3180 C   0  0  0  0  0  2  0  0  0  0  0  0
   50.0100   29.8090   43.4310 C   0  0  1  0  0  3  0  0  0  0  0  0
  1  8  1  0  0  0  0
  1  6  1  0  0  0  0
  2  1  2  0  0  0  0
  3  2  1  0  0  0  0
  3  4  2  0  0  0  0
  4  5  1  0  0  0  0
  5  6  2  0  0  0  0
  5  7  1  0  0  0  0
  7  9  1  0  0  0  0
  7 10  1  0  0  0  0
 11 12  1  0  0  0  0
 11 17  1  1  0  0  0
 11  2  1  0  0  0  0
 12 18  1  0  0  0  0
 13 19  1  0  0  0  0
 13 12  2  0  0  0  0
 14 20  1  6  0  0  0
 14 13  1  0  0  0  0
 15 14  1  0  0  0  0
 15 22  1  0  0  0  0
 15 16  1  0  0  0  0
 16 11  1  0  0  0  0
 21 15  1  0  0  0  0
 23 16  1  0  0  0  0
 24 16  1  0  0  0  0
 25 26  1  0  0  0  0
 25 14  1  0  0  0  0
 27 25  1  0  0  0  0
 28 25  1  0  0  0  0
 29  3  1  0  0  0  0
 30 29  1  0  0  0  0
 31 30  2  0  0  0  0
 31 32  1  0  0  0  0
 32 33  1  0  0  0  0
 33 29  2  0  0  0  0
 34 30  1  0  0  0  0
 35 31  1  0  0  0  0
 37 36  1  0  0  0  0
 38 37  1  0  0  0  0
 39 38  1  0  0  0  0
 40 39  1  0  0  0  0
 41 40  1  6  0  0  0
 41 32  1  0  0  0  0
 41 37  1  0  0  0  0
M  END
>  <minimizedAffinity>
-5.59130669

>  <minimizedRMSD>
0.166728318

$$$$
