
 OpenBabel03232520593D

 41 44  0  0  1  0  0  0  0  0999 V2000
   45.3640   32.8570   47.4860 C   0  0  0  0  0  0  0  0  0  0  0  0
   45.9210   32.6160   46.2720 C   0  0  0  0  0  0  0  0  0  0  0  0
   46.1960   31.2710   46.0140 C   0  0  0  0  0  0  0  0  0  0  0  0
   45.9350   30.2660   46.8880 N   0  0  0  0  0  0  0  0  0  0  0  0
   45.3650   30.5650   48.1160 C   0  0  0  0  0  0  0  0  0  0  0  0
   45.0970   31.8380   48.3830 N   0  0  0  0  0  0  0  0  0  0  0  0
   45.0970   29.5410   49.0590 N   0  0  0  0  0  0  0  0  0  0  0  0
   45.1160   33.8620   47.7910 H   0  0  0  0  0  0  0  0  0  0  0  0
   45.9490   28.9100   49.1420 H   0  0  0  0  0  0  0  0  0  0  0  0
   44.2660   29.3420   49.6230 H   0  0  0  0  0  0  0  0  0  0  0  0
   46.1680   33.5800   45.2540 C   0  0  2  0  0  0  0  0  0  0  0  0
   44.9590   34.6710   45.5020 C   0  0  0  0  0  0  0  0  0  0  0  0
   44.7230   35.6130   44.4440 C   0  0  0  0  0  0  0  0  0  0  0  0
   45.5220   35.5570   43.2170 C   0  0  1  0  0  0  0  0  0  0  0  0
   46.5820   34.5530   43.1520 C   0  0  0  0  0  0  0  0  0  0  0  0
   46.1330   33.3120   43.8870 C   0  0  0  0  0  0  0  0  0  0  0  0
   46.9850   34.2870   45.5920 H   0  0  0  0  0  0  0  0  0  0  0  0
   44.2840   34.8130   46.3380 H   0  0  0  0  0  0  0  0  0  0  0  0
   43.9560   36.3330   44.5650 H   0  0  0  0  0  0  0  0  0  0  0  0
   45.9500   36.5680   43.0320 H   0  0  0  0  0  0  0  0  0  0  0  0
   46.7590   34.3280   42.0580 H   0  0  0  0  0  0  0  0  0  0  0  0
   47.5860   34.8720   43.5210 H   0  0  0  0  0  0  0  0  0  0  0  0
   46.9870   32.6670   43.5490 H   0  0  0  0  0  0  0  0  0  0  0  0
   45.1790   32.9800   43.4250 H   0  0  0  0  0  0  0  0  0  0  0  0
   44.5080   35.3050   42.0630 C   0  0  0  0  0  0  0  0  0  0  0  0
   43.4360   34.5210   42.4570 F   0  0  0  0  0  0  0  0  0  0  0  0
   43.9780   36.5490   41.7280 F   0  0  0  0  0  0  0  0  0  0  0  0
   45.1790   34.8370   40.9490 F   0  0  0  0  0  0  0  0  0  0  0  0
   46.8400   30.5930   44.9030 C   0  0  0  0  0  0  0  0  0  0  0  0
   46.5050   29.8160   43.8410 C   0  0  0  0  0  0  0  0  0  0  0  0
   47.6830   29.4590   43.1720 C   0  0  0  0  0  0  0  0  0  0  0  0
   48.6720   30.0350   43.8580 N   0  0  0  0  0  0  0  0  0  0  0  0
   48.1990   30.7080   44.8810 N   0  0  0  0  0  0  0  0  0  0  0  0
   45.4580   29.6100   43.6900 H   0  0  0  0  0  0  0  0  0  0  0  0
   47.6490   28.8390   42.2930 H   0  0  0  0  0  0  0  0  0  0  0  0
   51.6580   29.8410   44.8160 H   0  0  0  0  0  0  0  0  0  0  0  0
   50.7980   29.3200   44.5830 N   0  0  0  0  0  0  0  0  0  0  0  0
   51.0330   27.9380   44.2080 C   0  0  0  0  0  2  0  0  0  0  0  0
   51.3610   28.0870   42.7290 C   0  0  0  0  0  2  0  0  0  0  0  0
   50.2800   29.0420   42.2700 C   0  0  0  0  0  2  0  0  0  0  0  0
   50.0850   29.9000   43.4730 C   0  0  1  0  0  3  0  0  0  0  0  0
  1  8  1  0  0  0  0
  1  6  1  0  0  0  0
  2  1  2  0  0  0  0
  3  2  1  0  0  0  0
  3  4  2  0  0  0  0
  4  5  1  0  0  0  0
  5  6  2  0  0  0  0
  5  7  1  0  0  0  0
  7  9  1  0  0  0  0
  7 10  1  0  0  0  0
 11 12  1  0  0  0  0
 11 17  1  1  0  0  0
 11  2  1  0  0  0  0
 12 18  1  0  0  0  0
 13 19  1  0  0  0  0
 13 12  2  0  0  0  0
 14 20  1  6  0  0  0
 14 13  1  0  0  0  0
 15 14  1  0  0  0  0
 15 22  1  0  0  0  0
 15 16  1  0  0  0  0
 16 11  1  0  0  0  0
 21 15  1  0  0  0  0
 23 16  1  0  0  0  0
 24 16  1  0  0  0  0
 25 26  1  0  0  0  0
 25 14  1  0  0  0  0
 27 25  1  0  0  0  0
 28 25  1  0  0  0  0
 29  3  1  0  0  0  0
 30 29  1  0  0  0  0
 31 30  2  0  0  0  0
 31 32  1  0  0  0  0
 32 33  1  0  0  0  0
 33 29  2  0  0  0  0
 34 30  1  0  0  0  0
 35 31  1  0  0  0  0
 37 36  1  0  0  0  0
 38 37  1  0  0  0  0
 39 38  1  0  0  0  0
 40 39  1  0  0  0  0
 41 40  1  6  0  0  0
 41 32  1  0  0  0  0
 41 37  1  0  0  0  0
M  END
>  <minimizedAffinity>
-5.58259058

>  <minimizedRMSD>
0.267427623

$$$$
