
 OpenBabel03232520593D

 41 44  0  0  1  0  0  0  0  0999 V2000
   45.4950   32.9140   47.3460 C   0  0  0  0  0  0  0  0  0  0  0  0
   45.9750   32.6910   46.0960 C   0  0  0  0  0  0  0  0  0  0  0  0
   46.2170   31.3480   45.7960 C   0  0  0  0  0  0  0  0  0  0  0  0
   45.9980   30.3290   46.6640 N   0  0  0  0  0  0  0  0  0  0  0  0
   45.5070   30.6090   47.9300 C   0  0  0  0  0  0  0  0  0  0  0  0
   45.2710   31.8800   48.2370 N   0  0  0  0  0  0  0  0  0  0  0  0
   45.2840   29.5700   48.8680 N   0  0  0  0  0  0  0  0  0  0  0  0
   45.2780   33.9150   47.6850 H   0  0  0  0  0  0  0  0  0  0  0  0
   46.1330   28.9280   48.8870 H   0  0  0  0  0  0  0  0  0  0  0  0
   44.4870   29.3690   49.4780 H   0  0  0  0  0  0  0  0  0  0  0  0
   46.1710   33.6720   45.0830 C   0  0  2  0  0  0  0  0  0  0  0  0
   44.9500   34.7360   45.3840 C   0  0  0  0  0  0  0  0  0  0  0  0
   44.6630   35.6870   44.3460 C   0  0  0  0  0  0  0  0  0  0  0  0
   45.4220   35.6620   43.0940 C   0  0  1  0  0  0  0  0  0  0  0  0
   46.4980   34.6800   42.9820 C   0  0  0  0  0  0  0  0  0  0  0  0
   46.0970   33.4200   43.7140 C   0  0  0  0  0  0  0  0  0  0  0  0
   46.9840   34.3910   45.4040 H   0  0  0  0  0  0  0  0  0  0  0  0
   44.3000   34.8550   46.2430 H   0  0  0  0  0  0  0  0  0  0  0  0
   43.8860   36.3910   44.5010 H   0  0  0  0  0  0  0  0  0  0  0  0
   45.8250   36.6830   42.9090 H   0  0  0  0  0  0  0  0  0  0  0  0
   46.6450   34.4720   41.8810 H   0  0  0  0  0  0  0  0  0  0  0  0
   47.5080   35.0130   43.3230 H   0  0  0  0  0  0  0  0  0  0  0  0
   46.9520   32.7960   43.3410 H   0  0  0  0  0  0  0  0  0  0  0  0
   45.1350   33.0770   43.2780 H   0  0  0  0  0  0  0  0  0  0  0  0
   44.3770   35.4050   41.9700 C   0  0  0  0  0  0  0  0  0  0  0  0
   43.2940   34.6610   42.4080 F   0  0  0  0  0  0  0  0  0  0  0  0
   43.8730   36.6530   41.6100 F   0  0  0  0  0  0  0  0  0  0  0  0
   45.0100   34.8880   40.8550 F   0  0  0  0  0  0  0  0  0  0  0  0
   46.7840   30.6850   44.6340 C   0  0  0  0  0  0  0  0  0  0  0  0
   46.4520   29.7220   43.7380 C   0  0  0  0  0  0  0  0  0  0  0  0
   47.5340   29.5440   42.8660 C   0  0  0  0  0  0  0  0  0  0  0  0
   48.4670   30.4060   43.2740 N   0  0  0  0  0  0  0  0  0  0  0  0
   48.0470   31.0890   44.3140 N   0  0  0  0  0  0  0  0  0  0  0  0
   45.4750   29.2760   43.8320 H   0  0  0  0  0  0  0  0  0  0  0  0
   47.4840   28.8210   42.0700 H   0  0  0  0  0  0  0  0  0  0  0  0
   50.3410   29.4470   40.9420 H   0  0  0  0  0  0  0  0  0  0  0  0
   49.6180   30.1220   41.2370 N   0  0  0  0  0  0  0  0  0  0  0  0
   49.6160   31.3520   40.4670 C   0  0  0  0  0  2  0  0  0  0  0  0
   50.6850   32.1550   41.1950 C   0  0  0  0  0  2  0  0  0  0  0  0
   50.3110   31.9210   42.6430 C   0  0  0  0  0  2  0  0  0  0  0  0
   49.7730   30.5310   42.6100 C   0  0  1  0  0  3  0  0  0  0  0  0
  1  8  1  0  0  0  0
  1  6  1  0  0  0  0
  2  1  2  0  0  0  0
  3  2  1  0  0  0  0
  3  4  2  0  0  0  0
  4  5  1  0  0  0  0
  5  6  2  0  0  0  0
  5  7  1  0  0  0  0
  7  9  1  0  0  0  0
  7 10  1  0  0  0  0
 11 12  1  0  0  0  0
 11 17  1  1  0  0  0
 11  2  1  0  0  0  0
 12 18  1  0  0  0  0
 13 19  1  0  0  0  0
 13 12  2  0  0  0  0
 14 20  1  6  0  0  0
 14 13  1  0  0  0  0
 15 14  1  0  0  0  0
 15 22  1  0  0  0  0
 15 16  1  0  0  0  0
 16 11  1  0  0  0  0
 21 15  1  0  0  0  0
 23 16  1  0  0  0  0
 24 16  1  0  0  0  0
 25 26  1  0  0  0  0
 25 14  1  0  0  0  0
 27 25  1  0  0  0  0
 28 25  1  0  0  0  0
 29  3  1  0  0  0  0
 30 34  1  0  0  0  0
 30 29  1  0  0  0  0
 31 32  1  0  0  0  0
 31 30  2  0  0  0  0
 32 33  1  0  0  0  0
 33 29  2  0  0  0  0
 35 31  1  0  0  0  0
 36 37  1  0  0  0  0
 37 41  1  0  0  0  0
 38 39  1  0  0  0  0
 38 37  1  0  0  0  0
 39 40  1  0  0  0  0
 41 40  1  6  0  0  0
 41 32  1  0  0  0  0
M  END
>  <minimizedAffinity>
-5.83795118

>  <minimizedRMSD>
0.785238743

$$$$
