
 OpenBabel03232520553D

 34 36  0  0  1  0  0  0  0  0999 V2000
   46.1060   33.7900   45.2450 C   0  0  2  0  0  0  0  0  0  0  0  0
   44.9730   34.8550   45.4300 C   0  0  0  0  0  0  0  0  0  0  0  0
   44.7040   35.7130   44.3070 C   0  0  0  0  0  0  0  0  0  0  0  0
   45.4380   35.5830   43.0570 C   0  0  1  0  0  0  0  0  0  0  0  0
   46.5370   34.6200   43.0430 C   0  0  0  0  0  0  0  0  0  0  0  0
   46.2000   33.4110   43.8650 C   0  0  0  0  0  0  0  0  0  0  0  0
   46.9490   34.4930   45.5670 H   0  0  0  0  0  0  0  0  0  0  0  0
   44.3170   35.0950   46.2590 H   0  0  0  0  0  0  0  0  0  0  0  0
   43.9470   36.4500   44.3810 H   0  0  0  0  0  0  0  0  0  0  0  0
   45.8210   36.5930   42.7540 H   0  0  0  0  0  0  0  0  0  0  0  0
   47.4640   35.0870   43.4400 H   0  0  0  0  0  0  0  0  0  0  0  0
   46.6880   34.2730   41.9810 H   0  0  0  0  0  0  0  0  0  0  0  0
   45.2680   32.9700   43.4720 H   0  0  0  0  0  0  0  0  0  0  0  0
   47.0320   32.7210   43.5990 H   0  0  0  0  0  0  0  0  0  0  0  0
   45.1210   33.0180   47.3300 C   0  0  0  0  0  0  0  0  0  0  0  0
   45.9650   32.8140   46.2810 C   0  0  0  0  0  0  0  0  0  0  0  0
   46.6480   31.6040   46.2540 C   0  0  0  0  0  0  0  0  0  0  0  0
   46.4950   30.6840   47.2050 N   0  0  0  0  0  0  0  0  0  0  0  0
   45.6370   30.9070   48.2630 C   0  0  0  0  0  0  0  0  0  0  0  0
   44.9650   32.0600   48.3120 N   0  0  0  0  0  0  0  0  0  0  0  0
   45.4870   29.9190   49.2770 N   0  0  0  0  0  0  0  0  0  0  0  0
   44.5560   33.9060   47.4400 H   0  0  0  0  0  0  0  0  0  0  0  0
   45.0010   29.1000   48.8500 H   0  0  0  0  0  0  0  0  0  0  0  0
   45.8800   30.1970   50.2190 H   0  0  0  0  0  0  0  0  0  0  0  0
   47.5210   31.0120   45.2990 N   0  0  0  0  0  0  0  0  0  0  0  0
   47.9620   31.2360   43.9040 C   0  0  0  0  0  0  0  0  0  0  0  0
   47.6630   29.9060   43.2220 C   0  0  0  0  0  0  0  0  0  0  0  0
   48.1570   28.9630   44.3020 C   0  0  0  0  0  0  0  0  0  0  0  0
   48.3280   29.8000   45.5120 C   0  0  0  0  0  0  0  0  0  0  0  0
   49.3700   30.0280   45.7740 H   0  0  0  0  0  0  0  0  0  0  0  0
   44.4190   35.2260   41.9570 C   0  0  0  0  0  0  0  0  0  0  0  0
   43.4370   34.3560   42.3970 F   0  0  0  0  0  0  0  0  0  0  0  0
   43.7570   36.4100   41.6190 F   0  0  0  0  0  0  0  0  0  0  0  0
   45.0610   34.7760   40.8260 F   0  0  0  0  0  0  0  0  0  0  0  0
  1  2  1  0  0  0  0
  1  7  1  1  0  0  0
  1 16  1  0  0  0  0
  2  8  1  0  0  0  0
  3  9  1  0  0  0  0
  3  2  2  0  0  0  0
  4 10  1  6  0  0  0
  4  3  1  0  0  0  0
  5  4  1  0  0  0  0
  5 11  1  0  0  0  0
  5  6  1  0  0  0  0
  6  1  1  0  0  0  0
 12  5  1  0  0  0  0
 13  6  1  0  0  0  0
 14  6  1  0  0  0  0
 15 22  1  0  0  0  0
 15 20  1  0  0  0  0
 16 15  2  0  0  0  0
 17 16  1  0  0  0  0
 17 18  2  0  0  0  0
 18 19  1  0  0  0  0
 19 20  2  0  0  0  0
 19 21  1  0  0  0  0
 21 24  1  0  0  0  0
 23 21  1  0  0  0  0
 25 29  1  0  0  0  0
 25 17  1  0  0  0  0
 26 25  1  0  0  0  0
 27 26  1  0  0  0  0
 27 28  1  0  0  0  0
 28 29  1  0  0  0  0
 29 30  1  0  0  0  0
 31 32  1  0  0  0  0
 31  4  1  0  0  0  0
 33 31  1  0  0  0  0
 34 31  1  0  0  0  0
M  END
>  <minimizedAffinity>
-5.68286562

>  <minimizedRMSD>
0.78679961

$$$$
