
 OpenBabel03232520583D

 41 44  0  0  1  0  0  0  0  0999 V2000
   45.4840   32.9320   47.4430 C   0  0  0  0  0  0  0  0  0  0  0  0
   45.9440   32.6600   46.1960 C   0  0  0  0  0  0  0  0  0  0  0  0
   46.1320   31.3020   45.9280 C   0  0  0  0  0  0  0  0  0  0  0  0
   45.8800   30.3130   46.8230 N   0  0  0  0  0  0  0  0  0  0  0  0
   45.4110   30.6440   48.0860 C   0  0  0  0  0  0  0  0  0  0  0  0
   45.2260   31.9300   48.3620 N   0  0  0  0  0  0  0  0  0  0  0  0
   45.1550   29.6380   49.0500 N   0  0  0  0  0  0  0  0  0  0  0  0
   45.3090   33.9490   47.7580 H   0  0  0  0  0  0  0  0  0  0  0  0
   45.9780   28.9640   49.0800 H   0  0  0  0  0  0  0  0  0  0  0  0
   44.3560   29.4830   49.6710 H   0  0  0  0  0  0  0  0  0  0  0  0
   46.1700   33.6070   45.1570 C   0  0  2  0  0  0  0  0  0  0  0  0
   44.9720   34.7070   45.4180 C   0  0  0  0  0  0  0  0  0  0  0  0
   44.7140   35.6340   44.3520 C   0  0  0  0  0  0  0  0  0  0  0  0
   45.4820   35.5560   43.1070 C   0  0  1  0  0  0  0  0  0  0  0  0
   46.5360   34.5470   43.0310 C   0  0  0  0  0  0  0  0  0  0  0  0
   46.1000   33.3180   43.7960 C   0  0  0  0  0  0  0  0  0  0  0  0
   46.9980   34.3160   45.4650 H   0  0  0  0  0  0  0  0  0  0  0  0
   44.3180   34.8640   46.2680 H   0  0  0  0  0  0  0  0  0  0  0  0
   43.9530   36.3590   44.4800 H   0  0  0  0  0  0  0  0  0  0  0  0
   45.9100   36.5620   42.8960 H   0  0  0  0  0  0  0  0  0  0  0  0
   46.6860   34.3040   41.9370 H   0  0  0  0  0  0  0  0  0  0  0  0
   47.5510   34.8660   43.3710 H   0  0  0  0  0  0  0  0  0  0  0  0
   46.9430   32.6640   43.4470 H   0  0  0  0  0  0  0  0  0  0  0  0
   45.1340   32.9840   43.3620 H   0  0  0  0  0  0  0  0  0  0  0  0
   44.4400   35.2910   41.9820 C   0  0  0  0  0  0  0  0  0  0  0  0
   43.3890   34.4950   42.4060 F   0  0  0  0  0  0  0  0  0  0  0  0
   43.8870   36.5280   41.6610 F   0  0  0  0  0  0  0  0  0  0  0  0
   45.0840   34.8300   40.8500 F   0  0  0  0  0  0  0  0  0  0  0  0
   46.6630   30.5880   44.7790 C   0  0  0  0  0  0  0  0  0  0  0  0
   46.2240   29.7880   43.7750 C   0  0  0  0  0  0  0  0  0  0  0  0
   47.3310   29.4010   43.0080 C   0  0  0  0  0  0  0  0  0  0  0  0
   48.3840   29.9850   43.5830 N   0  0  0  0  0  0  0  0  0  0  0  0
   48.0150   30.6890   44.6280 N   0  0  0  0  0  0  0  0  0  0  0  0
   45.1660   29.5890   43.7280 H   0  0  0  0  0  0  0  0  0  0  0  0
   47.2090   28.7600   42.1530 H   0  0  0  0  0  0  0  0  0  0  0  0
   50.3550   28.3010   41.8080 H   0  0  0  0  0  0  0  0  0  0  0  0
   49.6870   29.0860   41.8360 N   0  0  0  0  0  0  0  0  0  0  0  0
   49.8930   30.0690   40.7890 C   0  0  0  0  0  2  0  0  0  0  0  0
   50.9710   30.9440   41.4160 C   0  0  0  0  0  2  0  0  0  0  0  0
   50.4360   31.1270   42.8210 C   0  0  0  0  0  2  0  0  0  0  0  0
   49.7540   29.8250   43.0710 C   0  0  1  0  0  3  0  0  0  0  0  0
  1  8  1  0  0  0  0
  1  6  1  0  0  0  0
  2  1  2  0  0  0  0
  3  2  1  0  0  0  0
  3  4  2  0  0  0  0
  4  5  1  0  0  0  0
  5  6  2  0  0  0  0
  5  7  1  0  0  0  0
  7  9  1  0  0  0  0
  7 10  1  0  0  0  0
 11 12  1  0  0  0  0
 11 17  1  1  0  0  0
 11  2  1  0  0  0  0
 12 18  1  0  0  0  0
 13 19  1  0  0  0  0
 13 12  2  0  0  0  0
 14 20  1  6  0  0  0
 14 13  1  0  0  0  0
 15 14  1  0  0  0  0
 15 22  1  0  0  0  0
 15 16  1  0  0  0  0
 16 11  1  0  0  0  0
 21 15  1  0  0  0  0
 23 16  1  0  0  0  0
 24 16  1  0  0  0  0
 25 26  1  0  0  0  0
 25 14  1  0  0  0  0
 27 25  1  0  0  0  0
 28 25  1  0  0  0  0
 29  3  1  0  0  0  0
 30 29  1  0  0  0  0
 31 32  1  0  0  0  0
 31 30  2  0  0  0  0
 32 33  1  0  0  0  0
 33 29  2  0  0  0  0
 34 30  1  0  0  0  0
 35 31  1  0  0  0  0
 36 37  1  0  0  0  0
 37 41  1  0  0  0  0
 38 39  1  0  0  0  0
 38 37  1  0  0  0  0
 39 40  1  0  0  0  0
 41 40  1  6  0  0  0
 41 32  1  0  0  0  0
M  END
>  <minimizedAffinity>
-5.69965839

>  <minimizedRMSD>
0.349236786

$$$$
