
 OpenBabel03232518033D

 48 49  0  0  1  0  0  0  0  0999 V2000
   49.8220   33.0350   41.4520 O   0  0  0  0  0  0  0  0  0  0  0  0
   50.1170   31.7990   40.9260 C   0  0  1  0  0  0  0  0  0  0  0  0
   51.0420   31.6130   39.8260 C   0  0  0  0  0  0  0  0  0  0  0  0
   51.5660   31.3420   41.1890 C   0  0  2  0  0  0  0  0  0  0  0  0
   49.3990   30.9440   41.1280 H   0  0  0  0  0  0  0  0  0  0  0  0
   51.4310   32.5650   39.3690 H   0  0  0  0  0  0  0  0  0  0  0  0
   50.9380   30.8360   39.0500 H   0  0  0  0  0  0  0  0  0  0  0  0
   52.2710   32.0550   41.6550 H   0  0  0  0  0  0  0  0  0  0  0  0
   51.7270   29.9240   41.6540 C   0  0  1  0  0  0  0  0  0  0  0  0
   50.8520   29.6420   42.2440 H   0  0  0  0  0  0  0  0  0  0  0  0
   51.9520   28.9260   40.5420 C   0  0  0  0  0  0  0  0  0  0  0  0
   51.3680   28.0110   40.7630 H   0  0  0  0  0  0  0  0  0  0  0  0
   51.5020   29.3590   39.6210 H   0  0  0  0  0  0  0  0  0  0  0  0
   53.0070   28.7350   40.3300 H   0  0  0  0  0  0  0  0  0  0  0  0
   52.9480   29.8100   42.5560 C   0  0  0  0  0  0  0  0  0  0  0  0
   53.7910   30.4230   42.2020 H   0  0  0  0  0  0  0  0  0  0  0  0
   53.2690   28.7580   42.7000 H   0  0  0  0  0  0  0  0  0  0  0  0
   52.4960   30.2570   43.8840 N   0  0  0  0  0  0  0  0  0  0  0  0
   53.3930   30.1250   45.0090 C   0  0  0  0  0  0  0  0  0  0  0  0
   54.6610   30.1860   44.7310 N   0  0  0  0  0  0  0  0  0  0  0  0
   52.8830   29.9390   46.3450 N   0  0  0  0  0  0  0  0  0  0  0  0
   51.5390   30.6770   44.0830 H   0  0  0  0  0  0  0  0  0  0  0  0
   55.3330   30.0940   45.5270 H   0  0  0  0  0  0  0  0  0  0  0  0
   52.5600   30.5290   47.1440 H   0  0  0  0  0  0  0  0  0  0  0  0
   52.8550   28.8910   46.4950 H   0  0  0  0  0  0  0  0  0  0  0  0
   48.3990   32.9760   41.5650 C   0  0  0  0  0  0  0  0  0  0  0  0
   48.0130   32.3470   40.6990 H   0  0  0  0  0  0  0  0  0  0  0  0
   48.1240   32.5850   42.5050 H   0  0  0  0  0  0  0  0  0  0  0  0
   47.9740   34.3830   41.2100 C   0  0  0  0  0  0  0  0  0  0  0  0
   44.2020   34.8220   41.3550 C   0  0  0  0  0  0  0  0  0  0  0  0
   45.4420   34.4090   40.8530 C   0  0  0  0  0  0  0  0  0  0  0  0
   46.6020   34.7170   41.5590 C   0  0  0  0  0  0  0  0  0  0  0  0
   46.4670   35.4220   42.7300 N   0  0  0  0  0  0  0  0  0  0  0  0
   45.2220   35.8050   43.1810 C   0  0  0  0  0  0  0  0  0  0  0  0
   44.1190   35.5110   42.5090 N   0  0  0  0  0  0  0  0  0  0  0  0
   45.5980   33.8540   39.9380 H   0  0  0  0  0  0  0  0  0  0  0  0
   45.2040   36.3620   44.1190 H   0  0  0  0  0  0  0  0  0  0  0  0
   43.0380   34.4510   40.5570 C   0  0  0  0  0  0  0  0  0  0  0  0
   42.4520   35.1160   39.7330 O   0  0  0  0  0  0  0  0  0  0  0  0
   42.7410   33.4370   40.8100 H   0  0  0  0  0  0  0  0  0  0  0  0
   48.9070   35.4430   41.6160 C   0  0  0  0  0  0  0  0  0  0  0  0
   49.7140   35.6580   40.8710 H   0  0  0  0  0  0  0  0  0  0  0  0
   49.3860   35.1690   42.5960 H   0  0  0  0  0  0  0  0  0  0  0  0
   48.3590   36.3930   41.8030 H   0  0  0  0  0  0  0  0  0  0  0  0
   48.0480   34.3650   39.6590 C   0  0  0  0  0  0  0  0  0  0  0  0
   49.1140   34.3780   39.3890 H   0  0  0  0  0  0  0  0  0  0  0  0
   47.5550   35.2870   39.3120 H   0  0  0  0  0  0  0  0  0  0  0  0
   47.5160   33.4850   39.2520 H   0  0  0  0  0  0  0  0  0  0  0  0
  1 26  1  0  0  0  0
  2  5  1  1  0  0  0
  2  4  1  0  0  0  0
  2  1  1  0  0  0  0
  3  2  1  0  0  0  0
  3  4  1  0  0  0  0
  4  9  1  0  0  0  0
  4  8  1  1  0  0  0
  6  3  1  0  0  0  0
  7  3  1  0  0  0  0
  9 10  1  1  0  0  0
  9 15  1  0  0  0  0
 11 12  1  0  0  0  0
 11  9  1  0  0  0  0
 13 11  1  0  0  0  0
 14 11  1  0  0  0  0
 15 17  1  0  0  0  0
 15 18  1  0  0  0  0
 16 15  1  0  0  0  0
 18 22  1  0  0  0  0
 18 19  1  0  0  0  0
 19 21  1  0  0  0  0
 20 19  2  0  0  0  0
 20 23  1  0  0  0  0
 21 25  1  0  0  0  0
 21 24  1  0  0  0  0
 26 28  1  0  0  0  0
 27 26  1  0  0  0  0
 29 32  1  0  0  0  0
 29 26  1  0  0  0  0
 29 41  1  0  0  0  0
 30 35  1  0  0  0  0
 31 30  2  0  0  0  0
 31 32  1  0  0  0  0
 32 33  2  0  0  0  0
 33 34  1  0  0  0  0
 34 37  1  0  0  0  0
 35 34  2  0  0  0  0
 36 31  1  0  0  0  0
 38 40  1  0  0  0  0
 38 30  1  0  0  0  0
 39 38  2  0  0  0  0
 41 44  1  0  0  0  0
 41 43  1  0  0  0  0
 42 41  1  0  0  0  0
 45 29  1  0  0  0  0
 46 45  1  0  0  0  0
 47 45  1  0  0  0  0
 48 45  1  0  0  0  0
M  END
>  <minimizedAffinity>
-4.44555378

>  <minimizedRMSD>
1.84771633

$$$$
