
 OpenBabel03232520593D

 40 43  0  0  1  0  0  0  0  0999 V2000
   45.3510   32.9040   47.5110 C   0  0  0  0  0  0  0  0  0  0  0  0
   45.9130   32.6450   46.3010 C   0  0  0  0  0  0  0  0  0  0  0  0
   46.1870   31.2950   46.0650 C   0  0  0  0  0  0  0  0  0  0  0  0
   45.9220   30.3060   46.9560 N   0  0  0  0  0  0  0  0  0  0  0  0
   45.3490   30.6190   48.1760 C   0  0  0  0  0  0  0  0  0  0  0  0
   45.0800   31.9020   48.4220 N   0  0  0  0  0  0  0  0  0  0  0  0
   45.0720   29.6120   49.1300 N   0  0  0  0  0  0  0  0  0  0  0  0
   45.1030   33.9140   47.7970 H   0  0  0  0  0  0  0  0  0  0  0  0
   44.1130   29.3510   49.3980 H   0  0  0  0  0  0  0  0  0  0  0  0
   45.8230   29.0700   49.6230 H   0  0  0  0  0  0  0  0  0  0  0  0
   46.1570   33.5950   45.2700 C   0  0  2  0  0  0  0  0  0  0  0  0
   44.9480   34.6910   45.5030 C   0  0  0  0  0  0  0  0  0  0  0  0
   44.7210   35.6180   44.4310 C   0  0  0  0  0  0  0  0  0  0  0  0
   45.5190   35.5440   43.2050 C   0  0  1  0  0  0  0  0  0  0  0  0
   46.5760   34.5390   43.1580 C   0  0  0  0  0  0  0  0  0  0  0  0
   46.1200   33.3070   43.9070 C   0  0  0  0  0  0  0  0  0  0  0  0
   46.9530   34.3270   45.6030 H   0  0  0  0  0  0  0  0  0  0  0  0
   44.2760   34.8400   46.3390 H   0  0  0  0  0  0  0  0  0  0  0  0
   43.9570   36.3390   44.5400 H   0  0  0  0  0  0  0  0  0  0  0  0
   45.9520   36.5470   43.0070 H   0  0  0  0  0  0  0  0  0  0  0  0
   47.4830   34.9370   43.6980 H   0  0  0  0  0  0  0  0  0  0  0  0
   46.8460   34.3440   42.0980 H   0  0  0  0  0  0  0  0  0  0  0  0
   46.9670   32.6510   43.5730 H   0  0  0  0  0  0  0  0  0  0  0  0
   45.1610   32.9830   43.4530 H   0  0  0  0  0  0  0  0  0  0  0  0
   44.5030   35.2830   42.0550 C   0  0  0  0  0  0  0  0  0  0  0  0
   43.4430   34.4850   42.4530 F   0  0  0  0  0  0  0  0  0  0  0  0
   43.9630   36.5220   41.7240 F   0  0  0  0  0  0  0  0  0  0  0  0
   45.1750   34.8240   40.9390 F   0  0  0  0  0  0  0  0  0  0  0  0
   46.8390   30.6020   44.9690 C   0  0  0  0  0  0  0  0  0  0  0  0
   46.5130   29.8180   43.9080 C   0  0  0  0  0  0  0  0  0  0  0  0
   47.6940   29.4480   43.2530 C   0  0  0  0  0  0  0  0  0  0  0  0
   48.6740   30.0240   43.9490 N   0  0  0  0  0  0  0  0  0  0  0  0
   48.1990   30.7070   44.9620 N   0  0  0  0  0  0  0  0  0  0  0  0
   45.4600   29.6200   43.7490 H   0  0  0  0  0  0  0  0  0  0  0  0
   47.6570   28.8190   42.3760 H   0  0  0  0  0  0  0  0  0  0  0  0
   50.0770   29.8640   43.5640 C   0  0  0  0  0  0  0  0  0  0  0  0
   51.1510   29.3870   44.1380 C   0  0  0  0  0  3  0  0  0  0  0  0
   52.3460   29.3910   43.4710 C   0  0  0  0  0  3  0  0  0  0  0  0
   52.3360   29.9170   42.1910 C   0  0  0  0  0  3  0  0  0  0  0  0
   50.5150   30.4130   41.9850 S   0  0  0  0  0  0  0  0  0  0  0  0
  1  8  1  0  0  0  0
  1  6  1  0  0  0  0
  2  1  2  0  0  0  0
  3  2  1  0  0  0  0
  3  4  2  0  0  0  0
  4  5  1  0  0  0  0
  5  6  2  0  0  0  0
  5  7  1  0  0  0  0
  7  9  1  0  0  0  0
  7 10  1  0  0  0  0
 11 12  1  0  0  0  0
 11 17  1  1  0  0  0
 11  2  1  0  0  0  0
 12 18  1  0  0  0  0
 13 19  1  0  0  0  0
 13 12  2  0  0  0  0
 14 20  1  6  0  0  0
 14 13  1  0  0  0  0
 15 14  1  0  0  0  0
 15 21  1  0  0  0  0
 15 16  1  0  0  0  0
 16 11  1  0  0  0  0
 22 15  1  0  0  0  0
 23 16  1  0  0  0  0
 24 16  1  0  0  0  0
 25 26  1  0  0  0  0
 25 14  1  0  0  0  0
 27 25  1  0  0  0  0
 28 25  1  0  0  0  0
 29  3  1  0  0  0  0
 30 29  1  0  0  0  0
 31 30  2  0  0  0  0
 31 32  1  0  0  0  0
 32 33  1  0  0  0  0
 33 29  2  0  0  0  0
 34 30  1  0  0  0  0
 35 31  1  0  0  0  0
 36 32  1  0  0  0  0
 36 37  2  0  0  0  0
 38 37  1  0  0  0  0
 39 38  2  0  0  0  0
 40 39  1  0  0  0  0
 40 36  1  0  0  0  0
M  END
>  <minimizedAffinity>
-5.75031471

>  <minimizedRMSD>
0.211659715

$$$$
