
 OpenBabel03232520363D

 18 18  0  0  0  0  0  0  0  0999 V2000
   44.3550   35.6950   44.2780 C   0  0  0  0  0  0  0  0  0  0  0  0
   44.5260   34.8610   43.1560 C   0  0  0  0  0  0  0  0  0  0  0  0
   45.0940   33.6070   43.3230 C   0  0  0  0  0  0  0  0  0  0  0  0
   45.4760   33.2170   44.5930 N   0  0  0  0  0  0  0  0  0  0  0  0
   45.2890   34.0550   45.6330 C   0  0  0  0  0  0  0  0  0  0  0  0
   44.7450   35.2570   45.4820 N   0  0  0  0  0  0  0  0  0  0  0  0
   43.9100   36.6730   44.1400 H   0  0  0  0  0  0  0  0  0  0  0  0
   45.2490   32.9260   42.5010 H   0  0  0  0  0  0  0  0  0  0  0  0
   45.6790   33.6710   46.9650 N   0  0  0  0  0  0  0  0  0  0  0  0
   45.6740   32.3150   47.4020 C   0  0  0  0  0  0  0  0  0  0  0  0
   45.3400   31.4580   46.4970 N   0  0  0  0  0  0  0  0  0  0  0  0
   46.0160   31.9670   48.7370 N   0  0  0  0  0  0  0  0  0  0  0  0
   45.9790   34.4280   47.6400 H   0  0  0  0  0  0  0  0  0  0  0  0
   45.2750   30.4380   46.6060 H   0  0  0  0  0  0  0  0  0  0  0  0
   45.2870   31.4660   49.3170 H   0  0  0  0  0  0  0  0  0  0  0  0
   46.9960   32.2960   48.9040 H   0  0  0  0  0  0  0  0  0  0  0  0
   44.0160   35.4000   41.5060 S   0  0  0  0  0  0  0  0  0  0  0  0
   42.9250   36.2560   41.7140 H   0  0  0  0  0  0  0  0  0  0  0  0
  1  6  1  0  0  0  0
  2  3  1  0  0  0  0
  2  1  2  0  0  0  0
  3  4  2  0  0  0  0
  4  5  1  0  0  0  0
  5  9  1  0  0  0  0
  6  5  2  0  0  0  0
  7  1  1  0  0  0  0
  8  3  1  0  0  0  0
  9 10  1  0  0  0  0
  9 13  1  0  0  0  0
 10 12  1  0  0  0  0
 11 14  1  0  0  0  0
 11 10  2  0  0  0  0
 12 16  1  0  0  0  0
 12 15  1  0  0  0  0
 17 18  1  0  0  0  0
 17  2  1  0  0  0  0
M  END
>  <minimizedAffinity>
-4.22352982

>  <minimizedRMSD>
0.149021536

$$$$
