
 OpenBabel03232520593D

 40 43  0  0  1  0  0  0  0  0999 V2000
   45.3510   32.9020   47.5110 C   0  0  0  0  0  0  0  0  0  0  0  0
   45.9130   32.6440   46.3010 C   0  0  0  0  0  0  0  0  0  0  0  0
   46.1880   31.2930   46.0640 C   0  0  0  0  0  0  0  0  0  0  0  0
   45.9220   30.3040   46.9540 N   0  0  0  0  0  0  0  0  0  0  0  0
   45.3490   30.6170   48.1750 C   0  0  0  0  0  0  0  0  0  0  0  0
   45.0800   31.9000   48.4210 N   0  0  0  0  0  0  0  0  0  0  0  0
   45.0720   29.6090   49.1280 N   0  0  0  0  0  0  0  0  0  0  0  0
   45.1030   33.9120   47.7970 H   0  0  0  0  0  0  0  0  0  0  0  0
   44.1120   29.3480   49.3950 H   0  0  0  0  0  0  0  0  0  0  0  0
   45.8220   29.0670   49.6210 H   0  0  0  0  0  0  0  0  0  0  0  0
   46.1580   33.5940   45.2700 C   0  0  2  0  0  0  0  0  0  0  0  0
   44.9490   34.6900   45.5030 C   0  0  0  0  0  0  0  0  0  0  0  0
   44.7220   35.6180   44.4320 C   0  0  0  0  0  0  0  0  0  0  0  0
   45.5210   35.5450   43.2060 C   0  0  1  0  0  0  0  0  0  0  0  0
   46.5770   34.5390   43.1590 C   0  0  0  0  0  0  0  0  0  0  0  0
   46.1210   33.3070   43.9070 C   0  0  0  0  0  0  0  0  0  0  0  0
   46.9540   34.3260   45.6040 H   0  0  0  0  0  0  0  0  0  0  0  0
   44.2760   34.8380   46.3390 H   0  0  0  0  0  0  0  0  0  0  0  0
   43.9580   36.3390   44.5410 H   0  0  0  0  0  0  0  0  0  0  0  0
   45.9540   36.5470   43.0090 H   0  0  0  0  0  0  0  0  0  0  0  0
   47.4840   34.9370   43.6990 H   0  0  0  0  0  0  0  0  0  0  0  0
   46.8480   34.3440   42.0990 H   0  0  0  0  0  0  0  0  0  0  0  0
   46.9680   32.6510   43.5730 H   0  0  0  0  0  0  0  0  0  0  0  0
   45.1620   32.9840   43.4530 H   0  0  0  0  0  0  0  0  0  0  0  0
   44.5040   35.2840   42.0560 C   0  0  0  0  0  0  0  0  0  0  0  0
   43.4430   34.4870   42.4530 F   0  0  0  0  0  0  0  0  0  0  0  0
   43.9660   36.5240   41.7240 F   0  0  0  0  0  0  0  0  0  0  0  0
   45.1760   34.8250   40.9400 F   0  0  0  0  0  0  0  0  0  0  0  0
   46.8390   30.6020   44.9680 C   0  0  0  0  0  0  0  0  0  0  0  0
   46.5140   29.8180   43.9070 C   0  0  0  0  0  0  0  0  0  0  0  0
   47.6950   29.4480   43.2510 C   0  0  0  0  0  0  0  0  0  0  0  0
   48.6740   30.0230   43.9470 N   0  0  0  0  0  0  0  0  0  0  0  0
   48.1990   30.7060   44.9610 N   0  0  0  0  0  0  0  0  0  0  0  0
   45.4600   29.6200   43.7460 H   0  0  0  0  0  0  0  0  0  0  0  0
   47.6570   28.8200   42.3740 H   0  0  0  0  0  0  0  0  0  0  0  0
   50.0770   29.8640   43.5630 C   0  0  0  0  0  0  0  0  0  0  0  0
   51.1510   29.3860   44.1360 C   0  0  0  0  0  3  0  0  0  0  0  0
   52.3470   29.3900   43.4700 C   0  0  0  0  0  3  0  0  0  0  0  0
   52.3370   29.9180   42.1890 C   0  0  0  0  0  3  0  0  0  0  0  0
   50.5160   30.4130   41.9840 S   0  0  0  0  0  0  0  0  0  0  0  0
  1  8  1  0  0  0  0
  1  6  1  0  0  0  0
  2  1  2  0  0  0  0
  3  2  1  0  0  0  0
  3  4  2  0  0  0  0
  4  5  1  0  0  0  0
  5  6  2  0  0  0  0
  5  7  1  0  0  0  0
  7  9  1  0  0  0  0
  7 10  1  0  0  0  0
 11 12  1  0  0  0  0
 11 17  1  1  0  0  0
 11  2  1  0  0  0  0
 12 18  1  0  0  0  0
 13 19  1  0  0  0  0
 13 12  2  0  0  0  0
 14 20  1  6  0  0  0
 14 13  1  0  0  0  0
 15 14  1  0  0  0  0
 15 21  1  0  0  0  0
 15 16  1  0  0  0  0
 16 11  1  0  0  0  0
 22 15  1  0  0  0  0
 23 16  1  0  0  0  0
 24 16  1  0  0  0  0
 25 26  1  0  0  0  0
 25 14  1  0  0  0  0
 27 25  1  0  0  0  0
 28 25  1  0  0  0  0
 29  3  1  0  0  0  0
 30 29  1  0  0  0  0
 31 30  2  0  0  0  0
 31 32  1  0  0  0  0
 32 33  1  0  0  0  0
 33 29  2  0  0  0  0
 34 30  1  0  0  0  0
 35 31  1  0  0  0  0
 36 32  1  0  0  0  0
 36 37  2  0  0  0  0
 38 37  1  0  0  0  0
 39 38  2  0  0  0  0
 40 39  1  0  0  0  0
 40 36  1  0  0  0  0
M  END
>  <minimizedAffinity>
-5.74744463

>  <minimizedRMSD>
0.342029095

$$$$
