
 OpenBabel03232520593D

 40 43  0  0  1  0  0  0  0  0999 V2000
   45.3470   32.8960   47.5130 C   0  0  0  0  0  0  0  0  0  0  0  0
   45.9140   32.6380   46.3060 C   0  0  0  0  0  0  0  0  0  0  0  0
   46.1930   31.2880   46.0710 C   0  0  0  0  0  0  0  0  0  0  0  0
   45.9260   30.2990   46.9610 N   0  0  0  0  0  0  0  0  0  0  0  0
   45.3470   30.6120   48.1790 C   0  0  0  0  0  0  0  0  0  0  0  0
   45.0740   31.8940   48.4230 N   0  0  0  0  0  0  0  0  0  0  0  0
   45.0680   29.6040   49.1320 N   0  0  0  0  0  0  0  0  0  0  0  0
   45.0950   33.9060   47.7970 H   0  0  0  0  0  0  0  0  0  0  0  0
   44.1080   29.3410   49.3960 H   0  0  0  0  0  0  0  0  0  0  0  0
   45.8180   29.0640   49.6290 H   0  0  0  0  0  0  0  0  0  0  0  0
   46.1610   33.5880   45.2750 C   0  0  2  0  0  0  0  0  0  0  0  0
   44.9530   34.6850   45.5060 C   0  0  0  0  0  0  0  0  0  0  0  0
   44.7280   35.6130   44.4340 C   0  0  0  0  0  0  0  0  0  0  0  0
   45.5280   35.5380   43.2100 C   0  0  1  0  0  0  0  0  0  0  0  0
   46.5830   34.5320   43.1640 C   0  0  0  0  0  0  0  0  0  0  0  0
   46.1260   33.3000   43.9120 C   0  0  0  0  0  0  0  0  0  0  0  0
   46.9570   34.3190   45.6100 H   0  0  0  0  0  0  0  0  0  0  0  0
   44.2790   34.8340   46.3410 H   0  0  0  0  0  0  0  0  0  0  0  0
   43.9640   36.3340   44.5420 H   0  0  0  0  0  0  0  0  0  0  0  0
   45.9620   36.5410   43.0130 H   0  0  0  0  0  0  0  0  0  0  0  0
   47.4900   34.9300   43.7060 H   0  0  0  0  0  0  0  0  0  0  0  0
   46.8560   34.3370   42.1050 H   0  0  0  0  0  0  0  0  0  0  0  0
   46.9730   32.6440   43.5790 H   0  0  0  0  0  0  0  0  0  0  0  0
   45.1670   32.9770   43.4560 H   0  0  0  0  0  0  0  0  0  0  0  0
   44.5130   35.2780   42.0580 C   0  0  0  0  0  0  0  0  0  0  0  0
   43.4530   34.4780   42.4530 F   0  0  0  0  0  0  0  0  0  0  0  0
   43.9730   36.5170   41.7280 F   0  0  0  0  0  0  0  0  0  0  0  0
   45.1870   34.8220   40.9420 F   0  0  0  0  0  0  0  0  0  0  0  0
   46.8500   30.5970   44.9780 C   0  0  0  0  0  0  0  0  0  0  0  0
   46.5310   29.8160   43.9140 C   0  0  0  0  0  0  0  0  0  0  0  0
   47.7150   29.4440   43.2660 C   0  0  0  0  0  0  0  0  0  0  0  0
   48.6910   30.0160   43.9700 N   0  0  0  0  0  0  0  0  0  0  0  0
   48.2100   30.6980   44.9810 N   0  0  0  0  0  0  0  0  0  0  0  0
   45.4780   29.6200   43.7460 H   0  0  0  0  0  0  0  0  0  0  0  0
   47.6830   28.8170   42.3870 H   0  0  0  0  0  0  0  0  0  0  0  0
   50.0960   29.8540   43.5950 C   0  0  0  0  0  0  0  0  0  0  0  0
   50.8400   30.2280   42.5850 C   0  0  0  0  0  3  0  0  0  0  0  0
   52.1660   29.8960   42.5490 C   0  0  0  0  0  3  0  0  0  0  0  0
   52.6490   29.1620   43.6200 C   0  0  0  0  0  3  0  0  0  0  0  0
   51.0940   28.9680   44.6930 S   0  0  0  0  0  0  0  0  0  0  0  0
  1  8  1  0  0  0  0
  1  6  1  0  0  0  0
  2  1  2  0  0  0  0
  3  2  1  0  0  0  0
  3  4  2  0  0  0  0
  4  5  1  0  0  0  0
  5  6  2  0  0  0  0
  5  7  1  0  0  0  0
  7  9  1  0  0  0  0
  7 10  1  0  0  0  0
 11 12  1  0  0  0  0
 11 17  1  1  0  0  0
 11  2  1  0  0  0  0
 12 18  1  0  0  0  0
 13 19  1  0  0  0  0
 13 12  2  0  0  0  0
 14 20  1  6  0  0  0
 14 13  1  0  0  0  0
 15 14  1  0  0  0  0
 15 21  1  0  0  0  0
 15 16  1  0  0  0  0
 16 11  1  0  0  0  0
 22 15  1  0  0  0  0
 23 16  1  0  0  0  0
 24 16  1  0  0  0  0
 25 26  1  0  0  0  0
 25 14  1  0  0  0  0
 27 25  1  0  0  0  0
 28 25  1  0  0  0  0
 29 33  2  0  0  0  0
 29  3  1  0  0  0  0
 30 29  1  0  0  0  0
 31 30  2  0  0  0  0
 31 32  1  0  0  0  0
 32 33  1  0  0  0  0
 34 30  1  0  0  0  0
 35 31  1  0  0  0  0
 36 32  1  0  0  0  0
 36 40  1  0  0  0  0
 37 36  2  0  0  0  0
 38 37  1  0  0  0  0
 38 39  2  0  0  0  0
 39 40  1  0  0  0  0
M  END
>  <minimizedAffinity>
-5.72036648

>  <minimizedRMSD>
0.22281161

$$$$
