
 OpenBabel03232520003D

 18 19  0  0  0  0  0  0  0  0999 V2000
   47.7850   34.8040   42.2880 C   0  0  0  0  0  0  0  0  0  0  0  0
   47.0560   34.4370   41.1470 C   0  0  0  0  0  0  0  0  0  0  0  0
   45.7990   33.8620   41.3330 C   0  0  0  0  0  0  0  0  0  0  0  0
   45.3490   33.6880   42.6100 N   0  0  0  0  0  0  0  0  0  0  0  0
   46.0920   34.0610   43.6730 C   0  0  0  0  0  0  0  0  0  0  0  0
   47.3020   34.6150   43.5180 N   0  0  0  0  0  0  0  0  0  0  0  0
   47.4690   34.6010   40.1470 H   0  0  0  0  0  0  0  0  0  0  0  0
   45.2200   33.5710   40.4670 H   0  0  0  0  0  0  0  0  0  0  0  0
   49.1040   35.4100   42.1010 C   0  0  0  0  0  0  0  0  0  0  0  0
   49.2790   36.1770   41.0990 O   0  0  0  0  0  0  0  0  0  0  0  0
   50.1150   35.1440   42.9970 O   0  0  0  0  0  0  0  0  0  0  0  0
   50.8950   35.8070   43.0800 H   0  0  0  0  0  0  0  0  0  0  0  0
   45.5410   33.8570   45.3460 S   0  0  0  0  0  0  0  0  0  0  0  0
   46.4430   32.6290   46.2000 C   0  0  0  0  0  0  0  0  0  0  0  0
   46.9520   32.5360   47.4530 C   0  0  0  0  0  0  0  0  0  0  0  0
   47.6240   31.4060   47.8190 C   0  0  0  0  0  0  0  0  0  0  0  0
   47.7680   30.3850   46.9000 C   0  0  0  0  0  0  0  0  0  0  0  0
   46.9020   31.0270   45.3930 S   0  0  0  0  0  0  0  0  0  0  0  0
  1  6  1  0  0  0  0
  2  3  1  0  0  0  0
  2  1  2  0  0  0  0
  3  4  2  0  0  0  0
  4  5  1  0  0  0  0
  5 13  1  0  0  0  0
  6  5  2  0  0  0  0
  7  2  1  0  0  0  0
  8  3  1  0  0  0  0
  9  1  1  0  0  0  0
  9 11  1  0  0  0  0
 10  9  2  0  0  0  0
 11 12  1  0  0  0  0
 13 14  1  0  0  0  0
 14 15  2  0  0  0  0
 15 16  1  0  0  0  0
 17 16  2  0  0  0  0
 18 14  1  0  0  0  0
 18 17  1  0  0  0  0
M  END
>  <minimizedAffinity>
-4.48288584

>  <minimizedRMSD>
1.36692226

$$$$
