
 OpenBabel03232520133D

 33 34  0  0  0  0  0  0  0  0999 V2000
   47.4120   33.9810   42.4390 C   0  0  0  0  0  0  0  0  0  0  0  0
   48.1450   35.1480   41.8040 C   0  0  0  0  0  0  0  0  0  0  0  0
   49.5320   35.3700   42.2610 C   0  0  0  0  0  0  0  0  0  0  0  0
   50.3400   34.1180   42.4060 C   0  0  0  0  0  0  0  0  0  0  0  0
   49.5420   32.8510   42.2110 C   0  0  0  0  0  0  0  0  0  0  0  0
   48.2930   32.9750   43.0700 C   0  0  0  0  0  0  0  0  0  0  0  0
   48.1630   35.0050   40.7050 H   0  0  0  0  0  0  0  0  0  0  0  0
   47.5490   36.0710   42.0300 H   0  0  0  0  0  0  0  0  0  0  0  0
   50.0450   36.0020   41.5130 H   0  0  0  0  0  0  0  0  0  0  0  0
   49.4930   35.9730   43.2020 H   0  0  0  0  0  0  0  0  0  0  0  0
   51.2730   34.1240   41.7960 H   0  0  0  0  0  0  0  0  0  0  0  0
   50.7010   34.0800   43.4620 H   0  0  0  0  0  0  0  0  0  0  0  0
   49.2260   32.8620   41.1420 H   0  0  0  0  0  0  0  0  0  0  0  0
   50.1710   32.0010   42.4760 H   0  0  0  0  0  0  0  0  0  0  0  0
   48.5520   33.1820   44.1260 H   0  0  0  0  0  0  0  0  0  0  0  0
   47.7960   31.9880   43.0610 H   0  0  0  0  0  0  0  0  0  0  0  0
   45.3540   34.2510   45.5110 C   0  0  0  0  0  0  0  0  0  0  0  0
   44.5730   35.4060   45.2410 C   0  0  0  0  0  0  0  0  0  0  0  0
   44.7650   36.0770   44.0160 C   0  0  0  0  0  0  0  0  0  0  0  0
   45.7030   35.5750   43.1440 N   0  0  0  0  0  0  0  0  0  0  0  0
   46.4170   34.4850   43.4400 C   0  0  0  0  0  0  0  0  0  0  0  0
   46.2560   33.8130   44.6130 N   0  0  0  0  0  0  0  0  0  0  0  0
   45.2490   33.7090   46.4170 H   0  0  0  0  0  0  0  0  0  0  0  0
   43.8720   35.7170   45.9770 H   0  0  0  0  0  0  0  0  0  0  0  0
   44.1740   36.9380   43.8300 H   0  0  0  0  0  0  0  0  0  0  0  0
   46.6260   33.3200   41.3920 N   0  0  0  0  0  0  0  0  0  0  0  0
   46.5920   33.7990   40.0380 C   0  0  0  0  0  0  0  0  0  0  0  0
   47.6720   34.3690   39.6070 N   0  0  0  0  0  0  0  0  0  0  0  0
   45.4090   33.6410   39.2310 N   0  0  0  0  0  0  0  0  0  0  0  0
   46.0500   32.4530   41.6110 H   0  0  0  0  0  0  0  0  0  0  0  0
   47.7870   34.7590   38.6530 H   0  0  0  0  0  0  0  0  0  0  0  0
   45.4380   32.6000   39.0320 H   0  0  0  0  0  0  0  0  0  0  0  0
   44.5800   34.1070   38.7860 H   0  0  0  0  0  0  0  0  0  0  0  0
  1  6  1  0  0  0  0
  1 21  1  0  0  0  0
  2  8  1  0  0  0  0
  2  3  1  0  0  0  0
  2  1  1  0  0  0  0
  3  4  1  0  0  0  0
  3 10  1  0  0  0  0
  4 12  1  0  0  0  0
  5  4  1  0  0  0  0
  5 14  1  0  0  0  0
  5  6  1  0  0  0  0
  6 15  1  0  0  0  0
  7  2  1  0  0  0  0
  9  3  1  0  0  0  0
 11  4  1  0  0  0  0
 13  5  1  0  0  0  0
 16  6  1  0  0  0  0
 17 23  1  0  0  0  0
 18 17  1  0  0  0  0
 18 24  1  0  0  0  0
 19 18  2  0  0  0  0
 20 21  2  0  0  0  0
 20 19  1  0  0  0  0
 21 22  1  0  0  0  0
 22 17  2  0  0  0  0
 25 19  1  0  0  0  0
 26 30  1  0  0  0  0
 26  1  1  0  0  0  0
 27 26  1  0  0  0  0
 28 27  2  0  0  0  0
 29 27  1  0  0  0  0
 31 28  1  0  0  0  0
 32 29  1  0  0  0  0
 33 29  1  0  0  0  0
M  END
>  <minimizedAffinity>
-5.53992653

>  <minimizedRMSD>
0.182367578

$$$$
