
 OpenBabel03232520593D

 40 43  0  0  1  0  0  0  0  0999 V2000
   45.3540   32.8900   47.5080 C   0  0  0  0  0  0  0  0  0  0  0  0
   45.9170   32.6330   46.2980 C   0  0  0  0  0  0  0  0  0  0  0  0
   46.1910   31.2830   46.0600 C   0  0  0  0  0  0  0  0  0  0  0  0
   45.9250   30.2920   46.9480 N   0  0  0  0  0  0  0  0  0  0  0  0
   45.3500   30.6040   48.1680 C   0  0  0  0  0  0  0  0  0  0  0  0
   45.0810   31.8860   48.4160 N   0  0  0  0  0  0  0  0  0  0  0  0
   45.0720   29.5940   49.1200 N   0  0  0  0  0  0  0  0  0  0  0  0
   45.1060   33.8990   47.7960 H   0  0  0  0  0  0  0  0  0  0  0  0
   44.1120   29.3330   49.3860 H   0  0  0  0  0  0  0  0  0  0  0  0
   45.8220   29.0510   49.6130 H   0  0  0  0  0  0  0  0  0  0  0  0
   46.1630   33.5840   45.2690 C   0  0  2  0  0  0  0  0  0  0  0  0
   44.9550   34.6820   45.5040 C   0  0  0  0  0  0  0  0  0  0  0  0
   44.7300   35.6120   44.4340 C   0  0  0  0  0  0  0  0  0  0  0  0
   45.5280   35.5400   43.2080 C   0  0  1  0  0  0  0  0  0  0  0  0
   46.5830   34.5330   43.1590 C   0  0  0  0  0  0  0  0  0  0  0  0
   46.1260   33.3000   43.9060 C   0  0  0  0  0  0  0  0  0  0  0  0
   46.9590   34.3150   45.6040 H   0  0  0  0  0  0  0  0  0  0  0  0
   44.2830   34.8300   46.3400 H   0  0  0  0  0  0  0  0  0  0  0  0
   43.9670   36.3340   44.5440 H   0  0  0  0  0  0  0  0  0  0  0  0
   45.9620   36.5420   43.0130 H   0  0  0  0  0  0  0  0  0  0  0  0
   47.4900   34.9290   43.7000 H   0  0  0  0  0  0  0  0  0  0  0  0
   46.8530   34.3400   42.0990 H   0  0  0  0  0  0  0  0  0  0  0  0
   46.9720   32.6440   43.5700 H   0  0  0  0  0  0  0  0  0  0  0  0
   45.1660   32.9780   43.4500 H   0  0  0  0  0  0  0  0  0  0  0  0
   44.5110   35.2820   42.0580 C   0  0  0  0  0  0  0  0  0  0  0  0
   43.4480   34.4880   42.4540 F   0  0  0  0  0  0  0  0  0  0  0  0
   43.9760   36.5230   41.7260 F   0  0  0  0  0  0  0  0  0  0  0  0
   45.1830   34.8220   40.9410 F   0  0  0  0  0  0  0  0  0  0  0  0
   46.8440   30.5930   44.9630 C   0  0  0  0  0  0  0  0  0  0  0  0
   46.5190   29.8140   43.8980 C   0  0  0  0  0  0  0  0  0  0  0  0
   47.7010   29.4420   43.2450 C   0  0  0  0  0  0  0  0  0  0  0  0
   48.6800   30.0110   43.9460 N   0  0  0  0  0  0  0  0  0  0  0  0
   48.2040   30.6920   44.9610 N   0  0  0  0  0  0  0  0  0  0  0  0
   45.4650   29.6200   43.7340 H   0  0  0  0  0  0  0  0  0  0  0  0
   47.6640   28.8170   42.3650 H   0  0  0  0  0  0  0  0  0  0  0  0
   50.0840   29.8470   43.5660 C   0  0  0  0  0  0  0  0  0  0  0  0
   51.1700   29.4370   44.1700 C   0  0  0  0  0  3  0  0  0  0  0  0
   52.3610   29.4100   43.4970 C   0  0  0  0  0  3  0  0  0  0  0  0
   52.3360   29.8320   42.1790 C   0  0  0  0  0  3  0  0  0  0  0  0
   50.5030   30.2770   41.9460 S   0  0  0  0  0  0  0  0  0  0  0  0
  1  8  1  0  0  0  0
  1  6  1  0  0  0  0
  2  1  2  0  0  0  0
  3  2  1  0  0  0  0
  3  4  2  0  0  0  0
  4  5  1  0  0  0  0
  5  6  2  0  0  0  0
  5  7  1  0  0  0  0
  7  9  1  0  0  0  0
  7 10  1  0  0  0  0
 11 12  1  0  0  0  0
 11 17  1  1  0  0  0
 11  2  1  0  0  0  0
 12 18  1  0  0  0  0
 13 19  1  0  0  0  0
 13 12  2  0  0  0  0
 14 20  1  6  0  0  0
 14 13  1  0  0  0  0
 15 14  1  0  0  0  0
 15 21  1  0  0  0  0
 15 16  1  0  0  0  0
 16 11  1  0  0  0  0
 22 15  1  0  0  0  0
 23 16  1  0  0  0  0
 24 16  1  0  0  0  0
 25 26  1  0  0  0  0
 25 14  1  0  0  0  0
 27 25  1  0  0  0  0
 28 25  1  0  0  0  0
 29  3  1  0  0  0  0
 30 29  1  0  0  0  0
 31 30  2  0  0  0  0
 31 32  1  0  0  0  0
 32 33  1  0  0  0  0
 33 29  2  0  0  0  0
 34 30  1  0  0  0  0
 35 31  1  0  0  0  0
 36 32  1  0  0  0  0
 36 37  2  0  0  0  0
 38 37  1  0  0  0  0
 39 38  2  0  0  0  0
 40 39  1  0  0  0  0
 40 36  1  0  0  0  0
M  END
>  <minimizedAffinity>
-5.74465036

>  <minimizedRMSD>
0.350384116

$$$$
