
 OpenBabel03232520593D

 42 45  0  0  1  0  0  0  0  0999 V2000
   45.3310   32.9080   47.5050 C   0  0  0  0  0  0  0  0  0  0  0  0
   45.8970   32.6480   46.3000 C   0  0  0  0  0  0  0  0  0  0  0  0
   46.1810   31.3010   46.0660 C   0  0  0  0  0  0  0  0  0  0  0  0
   45.9190   30.3110   46.9560 N   0  0  0  0  0  0  0  0  0  0  0  0
   45.3390   30.6370   48.1740 C   0  0  0  0  0  0  0  0  0  0  0  0
   45.0620   31.9070   48.4150 N   0  0  0  0  0  0  0  0  0  0  0  0
   45.0890   29.6220   49.1380 N   0  0  0  0  0  0  0  0  0  0  0  0
   45.0760   33.9170   47.7880 H   0  0  0  0  0  0  0  0  0  0  0  0
   44.1310   29.4370   49.5500 H   0  0  0  0  0  0  0  0  0  0  0  0
   45.8580   29.0050   49.4840 H   0  0  0  0  0  0  0  0  0  0  0  0
   46.1490   33.5950   45.2670 C   0  0  2  0  0  0  0  0  0  0  0  0
   44.9440   34.6970   45.4980 C   0  0  0  0  0  0  0  0  0  0  0  0
   44.7220   35.6310   44.4280 C   0  0  0  0  0  0  0  0  0  0  0  0
   45.5210   35.5500   43.2020 C   0  0  1  0  0  0  0  0  0  0  0  0
   46.5680   34.5410   43.1550 C   0  0  0  0  0  0  0  0  0  0  0  0
   46.1140   33.3090   43.9050 C   0  0  0  0  0  0  0  0  0  0  0  0
   46.9240   34.3480   45.6060 H   0  0  0  0  0  0  0  0  0  0  0  0
   44.2670   34.8490   46.3270 H   0  0  0  0  0  0  0  0  0  0  0  0
   43.9600   36.3550   44.5400 H   0  0  0  0  0  0  0  0  0  0  0  0
   45.9510   36.5530   43.0010 H   0  0  0  0  0  0  0  0  0  0  0  0
   47.5520   34.8830   43.5610 H   0  0  0  0  0  0  0  0  0  0  0  0
   46.7950   34.3230   42.0690 H   0  0  0  0  0  0  0  0  0  0  0  0
   46.9570   32.6530   43.5660 H   0  0  0  0  0  0  0  0  0  0  0  0
   45.1550   32.9720   43.4570 H   0  0  0  0  0  0  0  0  0  0  0  0
   44.5000   35.2870   42.0540 C   0  0  0  0  0  0  0  0  0  0  0  0
   43.4380   34.4920   42.4520 F   0  0  0  0  0  0  0  0  0  0  0  0
   43.9620   36.5280   41.7210 F   0  0  0  0  0  0  0  0  0  0  0  0
   45.1650   34.8240   40.9360 F   0  0  0  0  0  0  0  0  0  0  0  0
   46.8380   30.6070   44.9710 C   0  0  0  0  0  0  0  0  0  0  0  0
   46.5080   29.8190   43.9160 C   0  0  0  0  0  0  0  0  0  0  0  0
   47.6920   29.4480   43.2650 C   0  0  0  0  0  0  0  0  0  0  0  0
   48.6750   30.0270   43.9540 N   0  0  0  0  0  0  0  0  0  0  0  0
   48.1990   30.7150   44.9640 N   0  0  0  0  0  0  0  0  0  0  0  0
   45.4640   29.6160   43.7540 H   0  0  0  0  0  0  0  0  0  0  0  0
   47.6660   28.8230   42.4010 H   0  0  0  0  0  0  0  0  0  0  0  0
   50.0650   29.8830   43.5940 C   0  0  0  0  0  0  0  0  0  0  0  0
   50.5580   30.3950   42.4150 C   0  0  0  0  0  3  0  0  0  0  0  0
   51.8780   30.2820   42.0310 C   0  0  0  0  0  3  0  0  0  0  0  0
   52.7120   29.6330   42.8660 N   0  0  0  0  0  0  0  0  0  0  0  0
   52.2300   29.1270   44.0290 C   0  0  0  0  0  0  0  0  0  0  0  0
   52.9710   28.6330   44.6140 H   0  0  0  0  0  0  0  0  0  0  0  0
   50.9330   29.2400   44.4040 N   0  0  0  0  0  0  0  0  0  0  0  0
  1  8  1  0  0  0  0
  1  6  1  0  0  0  0
  2  1  2  0  0  0  0
  3  2  1  0  0  0  0
  3  4  2  0  0  0  0
  4  5  1  0  0  0  0
  5  6  2  0  0  0  0
  5  7  1  0  0  0  0
  7 10  1  0  0  0  0
  7  9  1  0  0  0  0
 11 12  1  0  0  0  0
 11 17  1  1  0  0  0
 11  2  1  0  0  0  0
 12 18  1  0  0  0  0
 13 19  1  0  0  0  0
 13 12  2  0  0  0  0
 14 20  1  6  0  0  0
 14 13  1  0  0  0  0
 15 14  1  0  0  0  0
 15 21  1  0  0  0  0
 15 16  1  0  0  0  0
 16 11  1  0  0  0  0
 22 15  1  0  0  0  0
 23 16  1  0  0  0  0
 24 16  1  0  0  0  0
 25 26  1  0  0  0  0
 25 14  1  0  0  0  0
 27 25  1  0  0  0  0
 28 25  1  0  0  0  0
 29  3  1  0  0  0  0
 30 29  1  0  0  0  0
 31 30  2  0  0  0  0
 31 32  1  0  0  0  0
 32 33  1  0  0  0  0
 33 29  2  0  0  0  0
 34 30  1  0  0  0  0
 35 31  1  0  0  0  0
 36 32  1  0  0  0  0
 36 42  1  0  0  0  0
 37 36  2  0  0  0  0
 38 37  1  0  0  0  0
 38 39  2  0  0  0  0
 39 40  1  0  0  0  0
 40 42  2  0  0  0  0
 40 41  1  0  0  0  0
M  END
>  <minimizedAffinity>
-5.81675482

>  <minimizedRMSD>
0.516360283

$$$$
