
 OpenBabel03232520493D

 27 28  0  0  1  0  0  0  0  0999 V2000
   45.8990   33.6940   45.5210 C   0  0  2  0  0  0  0  0  0  0  0  0
   44.8730   34.7530   45.8590 C   0  0  0  0  0  0  0  0  0  0  0  0
   44.5190   35.7070   44.8180 C   0  0  0  0  0  0  0  0  0  0  0  0
   45.1480   35.6100   43.5120 C   0  0  1  0  0  0  0  0  0  0  0  0
   46.2120   34.6100   43.3390 C   0  0  0  0  0  0  0  0  0  0  0  0
   45.7880   33.3350   44.0700 C   0  0  0  0  0  0  0  0  0  0  0  0
   46.9000   34.1970   45.6670 H   0  0  0  0  0  0  0  0  0  0  0  0
   44.3150   34.9640   46.7560 H   0  0  0  0  0  0  0  0  0  0  0  0
   43.8060   36.4610   45.0200 H   0  0  0  0  0  0  0  0  0  0  0  0
   45.5960   36.6220   43.2880 H   0  0  0  0  0  0  0  0  0  0  0  0
   47.1330   34.9640   43.8430 H   0  0  0  0  0  0  0  0  0  0  0  0
   46.3860   34.4120   42.2720 H   0  0  0  0  0  0  0  0  0  0  0  0
   44.7160   33.1470   43.8250 H   0  0  0  0  0  0  0  0  0  0  0  0
   46.3670   32.4750   43.7630 H   0  0  0  0  0  0  0  0  0  0  0  0
   45.2560   32.8040   47.7430 C   0  0  0  0  0  0  0  0  0  0  0  0
   45.7640   32.5780   46.4640 C   0  0  0  0  0  0  0  0  0  0  0  0
   46.1430   31.2710   46.1330 C   0  0  0  0  0  0  0  0  0  0  0  0
   46.0020   30.2870   47.0600 N   0  0  0  0  0  0  0  0  0  0  0  0
   45.5050   30.5380   48.2960 C   0  0  0  0  0  0  0  0  0  0  0  0
   45.1360   31.7900   48.6310 N   0  0  0  0  0  0  0  0  0  0  0  0
   44.9360   33.7760   48.0960 H   0  0  0  0  0  0  0  0  0  0  0  0
   46.5440   31.0100   45.1670 H   0  0  0  0  0  0  0  0  0  0  0  0
   45.4390   29.6800   48.9530 H   0  0  0  0  0  0  0  0  0  0  0  0
   44.0420   35.4340   42.5050 C   0  0  0  0  0  0  0  0  0  0  0  0
   44.2740   35.1890   41.2760 O   0  0  0  0  0  0  0  0  0  0  0  0
   42.7050   35.5310   42.8600 O   0  0  0  0  0  0  0  0  0  0  0  0
   42.0450   35.9750   42.2380 H   0  0  0  0  0  0  0  0  0  0  0  0
  1  7  1  1  0  0  0
  1  2  1  0  0  0  0
  1 16  1  0  0  0  0
  2  8  1  0  0  0  0
  3  9  1  0  0  0  0
  3  2  2  0  0  0  0
  4 10  1  6  0  0  0
  4  3  1  0  0  0  0
  5  4  1  0  0  0  0
  5 11  1  0  0  0  0
  5  6  1  0  0  0  0
  6  1  1  0  0  0  0
 12  5  1  0  0  0  0
 13  6  1  0  0  0  0
 14  6  1  0  0  0  0
 15 21  1  0  0  0  0
 15 20  1  0  0  0  0
 16 15  2  0  0  0  0
 17 16  1  0  0  0  0
 17 18  2  0  0  0  0
 18 19  1  0  0  0  0
 19 20  2  0  0  0  0
 19 23  1  0  0  0  0
 22 17  1  0  0  0  0
 24 26  1  0  0  0  0
 24  4  1  0  0  0  0
 25 24  2  0  0  0  0
 27 26  1  0  0  0  0
M  END
>  <minimizedAffinity>
-5.16333866

>  <minimizedRMSD>
0.564530373

$$$$
