
 OpenBabel03232517563D

 25 25  0  0  0  0  0  0  0  0999 V2000
   48.5000   34.4570   41.4450 C   0  0  0  0  0  0  0  0  0  0  0  0
   45.7570   34.6040   44.0610 C   0  0  0  0  0  0  0  0  0  0  0  0
   46.5270   34.9580   42.9380 C   0  0  0  0  0  0  0  0  0  0  0  0
   47.6350   34.1720   42.5990 C   0  0  0  0  0  0  0  0  0  0  0  0
   47.9030   33.1030   43.3830 N   0  0  0  0  0  0  0  0  0  0  0  0
   47.1530   32.7760   44.4600 C   0  0  0  0  0  0  0  0  0  0  0  0
   46.0830   33.5320   44.7910 N   0  0  0  0  0  0  0  0  0  0  0  0
   46.2840   35.8020   42.3490 H   0  0  0  0  0  0  0  0  0  0  0  0
   47.3660   31.9210   45.0890 H   0  0  0  0  0  0  0  0  0  0  0  0
   44.5950   35.3940   44.4520 C   0  0  0  0  0  0  0  0  0  0  0  0
   44.4560   35.8220   45.6270 O   0  0  0  0  0  0  0  0  0  0  0  0
   43.5690   35.7380   43.6130 O   0  0  0  0  0  0  0  0  0  0  0  0
   42.9350   36.5190   43.8060 H   0  0  0  0  0  0  0  0  0  0  0  0
   49.7170   33.5420   41.5210 C   0  0  0  0  0  0  0  0  0  0  0  0
   50.2820   33.6810   40.5760 H   0  0  0  0  0  0  0  0  0  0  0  0
   50.3340   33.9460   42.3510 H   0  0  0  0  0  0  0  0  0  0  0  0
   49.4420   32.4870   41.6710 H   0  0  0  0  0  0  0  0  0  0  0  0
   49.0560   35.8690   41.5960 C   0  0  0  0  0  0  0  0  0  0  0  0
   49.8450   36.0330   40.8400 H   0  0  0  0  0  0  0  0  0  0  0  0
   48.3130   36.6530   41.4660 H   0  0  0  0  0  0  0  0  0  0  0  0
   49.5740   35.9460   42.5820 H   0  0  0  0  0  0  0  0  0  0  0  0
   47.8330   34.3820   40.1140 C   0  0  0  0  0  0  0  0  0  0  0  0
   47.7260   33.3060   39.8080 H   0  0  0  0  0  0  0  0  0  0  0  0
   46.8100   34.7710   40.1930 H   0  0  0  0  0  0  0  0  0  0  0  0
   48.3950   34.9800   39.3800 H   0  0  0  0  0  0  0  0  0  0  0  0
  1 14  1  0  0  0  0
  1 18  1  0  0  0  0
  1  4  1  0  0  0  0
  2 10  1  0  0  0  0
  2  7  1  0  0  0  0
  3  2  2  0  0  0  0
  4  3  1  0  0  0  0
  4  5  2  0  0  0  0
  5  6  1  0  0  0  0
  6  7  2  0  0  0  0
  6  9  1  0  0  0  0
  8  3  1  0  0  0  0
 10 11  2  0  0  0  0
 12 13  1  0  0  0  0
 12 10  1  0  0  0  0
 14 17  1  0  0  0  0
 14 16  1  0  0  0  0
 15 14  1  0  0  0  0
 18 21  1  0  0  0  0
 19 18  1  0  0  0  0
 20 18  1  0  0  0  0
 22 24  1  0  0  0  0
 22  1  1  0  0  0  0
 23 22  1  0  0  0  0
 25 22  1  0  0  0  0
M  END
>  <minimizedAffinity>
-4.87827682

>  <minimizedRMSD>
2.25450516

$$$$
