
 OpenBabel03232520593D

 42 45  0  0  1  0  0  0  0  0999 V2000
   45.3360   32.9060   47.5000 C   0  0  0  0  0  0  0  0  0  0  0  0
   45.8970   32.6460   46.2930 C   0  0  0  0  0  0  0  0  0  0  0  0
   46.1790   31.2990   46.0570 C   0  0  0  0  0  0  0  0  0  0  0  0
   45.9190   30.3080   46.9470 N   0  0  0  0  0  0  0  0  0  0  0  0
   45.3420   30.6340   48.1670 C   0  0  0  0  0  0  0  0  0  0  0  0
   45.0680   31.9040   48.4100 N   0  0  0  0  0  0  0  0  0  0  0  0
   45.0930   29.6190   49.1300 N   0  0  0  0  0  0  0  0  0  0  0  0
   45.0820   33.9150   47.7840 H   0  0  0  0  0  0  0  0  0  0  0  0
   44.1360   29.4340   49.5450 H   0  0  0  0  0  0  0  0  0  0  0  0
   45.8630   29.0000   49.4740 H   0  0  0  0  0  0  0  0  0  0  0  0
   46.1480   33.5930   45.2590 C   0  0  2  0  0  0  0  0  0  0  0  0
   44.9450   34.6960   45.4950 C   0  0  0  0  0  0  0  0  0  0  0  0
   44.7220   35.6320   44.4260 C   0  0  0  0  0  0  0  0  0  0  0  0
   45.5160   35.5500   43.1980 C   0  0  1  0  0  0  0  0  0  0  0  0
   46.5630   34.5400   43.1470 C   0  0  0  0  0  0  0  0  0  0  0  0
   46.1090   33.3080   43.8970 C   0  0  0  0  0  0  0  0  0  0  0  0
   46.9250   34.3450   45.5970 H   0  0  0  0  0  0  0  0  0  0  0  0
   44.2710   34.8490   46.3250 H   0  0  0  0  0  0  0  0  0  0  0  0
   43.9600   36.3570   44.5410 H   0  0  0  0  0  0  0  0  0  0  0  0
   45.9470   36.5530   42.9970 H   0  0  0  0  0  0  0  0  0  0  0  0
   47.5480   34.8800   43.5510 H   0  0  0  0  0  0  0  0  0  0  0  0
   46.7860   34.3230   42.0600 H   0  0  0  0  0  0  0  0  0  0  0  0
   46.9500   32.6510   43.5550 H   0  0  0  0  0  0  0  0  0  0  0  0
   45.1470   32.9730   43.4520 H   0  0  0  0  0  0  0  0  0  0  0  0
   44.4920   35.2900   42.0520 C   0  0  0  0  0  0  0  0  0  0  0  0
   43.4300   34.4960   42.4530 F   0  0  0  0  0  0  0  0  0  0  0  0
   43.9550   36.5320   41.7220 F   0  0  0  0  0  0  0  0  0  0  0  0
   45.1530   34.8260   40.9320 F   0  0  0  0  0  0  0  0  0  0  0  0
   46.8320   30.6040   44.9590 C   0  0  0  0  0  0  0  0  0  0  0  0
   46.4990   29.8070   43.9120 C   0  0  0  0  0  0  0  0  0  0  0  0
   47.6800   29.4440   43.2510 C   0  0  0  0  0  0  0  0  0  0  0  0
   48.6650   30.0360   43.9270 N   0  0  0  0  0  0  0  0  0  0  0  0
   48.1910   30.7250   44.9380 N   0  0  0  0  0  0  0  0  0  0  0  0
   45.4560   29.5930   43.7620 H   0  0  0  0  0  0  0  0  0  0  0  0
   47.6520   28.8140   42.3910 H   0  0  0  0  0  0  0  0  0  0  0  0
   50.0520   29.9040   43.5540 C   0  0  0  0  0  0  0  0  0  0  0  0
   50.9540   29.2490   44.3630 C   0  0  0  0  0  3  0  0  0  0  0  0
   52.2890   29.0990   44.0450 C   0  0  0  0  0  3  0  0  0  0  0  0
   52.7110   29.6260   42.8800 N   0  0  0  0  0  0  0  0  0  0  0  0
   51.8250   30.2720   42.0810 C   0  0  0  0  0  0  0  0  0  0  0  0
   52.2610   30.6500   41.1850 H   0  0  0  0  0  0  0  0  0  0  0  0
   50.5150   30.4180   42.3940 N   0  0  0  0  0  0  0  0  0  0  0  0
  1  8  1  0  0  0  0
  1  6  1  0  0  0  0
  2  1  2  0  0  0  0
  3  2  1  0  0  0  0
  3  4  2  0  0  0  0
  4  5  1  0  0  0  0
  5  6  2  0  0  0  0
  5  7  1  0  0  0  0
  7 10  1  0  0  0  0
  7  9  1  0  0  0  0
 11 12  1  0  0  0  0
 11 17  1  1  0  0  0
 11  2  1  0  0  0  0
 12 18  1  0  0  0  0
 13 19  1  0  0  0  0
 13 12  2  0  0  0  0
 14 20  1  6  0  0  0
 14 13  1  0  0  0  0
 15 14  1  0  0  0  0
 15 21  1  0  0  0  0
 15 16  1  0  0  0  0
 16 11  1  0  0  0  0
 22 15  1  0  0  0  0
 23 16  1  0  0  0  0
 24 16  1  0  0  0  0
 25 26  1  0  0  0  0
 25 14  1  0  0  0  0
 27 25  1  0  0  0  0
 28 25  1  0  0  0  0
 29  3  1  0  0  0  0
 30 29  1  0  0  0  0
 31 30  2  0  0  0  0
 31 32  1  0  0  0  0
 32 33  1  0  0  0  0
 33 29  2  0  0  0  0
 34 30  1  0  0  0  0
 35 31  1  0  0  0  0
 36 32  1  0  0  0  0
 36 37  1  0  0  0  0
 38 37  2  0  0  0  0
 39 38  1  0  0  0  0
 40 42  1  0  0  0  0
 40 39  2  0  0  0  0
 41 40  1  0  0  0  0
 42 36  2  0  0  0  0
M  END
>  <minimizedAffinity>
-5.81805515

>  <minimizedRMSD>
0.547416151

$$$$
