
 OpenBabel03232519143D

 30 31  0  0  1  0  0  0  0  0999 V2000
   45.4460   34.6460   43.9770 C   0  0  0  0  0  0  0  0  0  0  0  0
   46.4660   34.3500   43.0400 C   0  0  0  0  0  0  0  0  0  0  0  0
   47.4640   33.4050   43.3550 C   0  0  0  0  0  0  0  0  0  0  0  0
   47.3730   32.8240   44.5760 N   0  0  0  0  0  0  0  0  0  0  0  0
   46.4170   33.1130   45.4320 C   0  0  0  0  0  0  0  0  0  0  0  0
   45.4400   34.0200   45.1590 N   0  0  0  0  0  0  0  0  0  0  0  0
   46.5250   34.8200   42.0730 H   0  0  0  0  0  0  0  0  0  0  0  0
   48.2460   33.1630   42.6670 H   0  0  0  0  0  0  0  0  0  0  0  0
   46.3090   32.4760   46.7650 C   0  0  0  0  0  0  0  0  0  0  0  0
   47.3560   31.6000   47.1380 C   0  0  0  0  0  0  0  0  0  0  0  0
   46.7590   31.0680   48.8180 S   0  0  0  0  0  0  0  0  0  0  0  0
   45.2270   32.1330   48.6770 C   0  0  0  0  0  0  0  0  0  0  0  0
   45.3620   32.5930   47.6720 N   0  0  0  0  0  0  0  0  0  0  0  0
   48.2190   31.3000   46.6680 H   0  0  0  0  0  0  0  0  0  0  0  0
   44.2050   32.4560   49.2930 H   0  0  0  0  0  0  0  0  0  0  0  0
   44.4330   35.6340   43.6010 C   0  0  1  0  0  0  0  0  0  0  0  0
   43.7030   35.7320   44.4370 H   0  0  0  0  0  0  0  0  0  0  0  0
   45.0650   37.0160   43.4790 C   0  0  0  0  0  0  0  0  0  0  0  0
   45.9240   37.0370   44.1880 H   0  0  0  0  0  0  0  0  0  0  0  0
   44.3960   37.8300   43.7770 H   0  0  0  0  0  0  0  0  0  0  0  0
   45.4470   37.2020   42.4450 H   0  0  0  0  0  0  0  0  0  0  0  0
   43.7310   35.3140   42.3240 C   0  0  0  0  0  0  0  0  0  0  0  0
   43.9370   34.2290   42.1140 H   0  0  0  0  0  0  0  0  0  0  0  0
   44.2240   35.8460   41.4790 H   0  0  0  0  0  0  0  0  0  0  0  0
   42.3170   35.4710   42.3880 N   0  0  0  0  0  0  0  0  0  0  0  0
   41.9280   36.0400   43.1330 H   0  0  0  0  0  0  0  0  0  0  0  0
   41.5910   35.2590   41.2060 C   0  0  0  0  0  0  0  0  0  0  0  0
   40.9100   33.8910   41.3170 C   0  0  0  0  0  0  0  0  0  0  0  0
   42.5470   35.1530   40.0190 C   0  0  0  0  0  0  0  0  0  0  0  0
   40.5490   36.2660   40.8760 C   0  0  0  0  0  0  0  0  0  0  0  0
  1  6  1  0  0  0  0
  2  3  1  0  0  0  0
  2  1  2  0  0  0  0
  3  4  2  0  0  0  0
  4  5  1  0  0  0  0
  5  9  1  0  0  0  0
  6  5  2  0  0  0  0
  7  2  1  0  0  0  0
  8  3  1  0  0  0  0
  9 10  2  0  0  0  0
  9 13  1  0  0  0  0
 10 11  1  0  0  0  0
 12 11  1  0  0  0  0
 12 15  1  0  0  0  0
 13 12  2  0  0  0  0
 14 10  1  0  0  0  0
 16  1  1  0  0  0  0
 16 17  1  1  0  0  0
 18 16  1  0  0  0  0
 18 20  1  0  0  0  0
 18 19  1  0  0  0  0
 21 18  1  0  0  0  0
 22 25  1  0  0  0  0
 22 16  1  0  0  0  0
 23 22  1  0  0  0  0
 24 22  1  0  0  0  0
 25 26  1  0  0  0  0
 27 28  1  0  0  0  0
 27 25  1  0  0  0  0
 29 27  1  0  0  0  0
 30 27  1  0  0  0  0
M  END
>  <minimizedAffinity>
-5.39320564

>  <minimizedRMSD>
0.888847947

$$$$
