
 OpenBabel03232520263D

 40 43  0  0  1  0  0  0  0  0999 V2000
   46.9470   34.5140   41.3100 C   0  0  0  0  0  0  0  0  0  0  0  0
   48.2160   34.9620   40.9640 C   0  0  0  0  0  0  0  0  0  0  0  0
   48.4730   34.6580   39.7040 N   0  0  0  0  0  0  0  0  0  0  0  0
   47.3850   34.0130   39.2150 C   0  0  0  0  0  0  0  0  0  0  0  0
   47.1380   33.4840   37.9520 C   0  0  0  0  0  0  0  0  0  0  0  0
   45.9480   32.8800   37.7180 C   0  0  0  0  0  0  0  0  0  0  0  0
   44.9330   32.7390   38.6480 C   0  0  0  0  0  0  0  0  0  0  0  0
   45.2210   33.2790   39.8880 C   0  0  0  0  0  0  0  0  0  0  0  0
   46.4040   33.9050   40.1990 C   0  0  0  0  0  0  0  0  0  0  0  0
   49.3310   34.8410   39.1120 H   0  0  0  0  0  0  0  0  0  0  0  0
   47.8890   33.5560   37.1620 H   0  0  0  0  0  0  0  0  0  0  0  0
   45.7670   32.4690   36.7180 H   0  0  0  0  0  0  0  0  0  0  0  0
   43.9880   32.2670   38.4860 H   0  0  0  0  0  0  0  0  0  0  0  0
   44.5050   33.2300   40.6990 H   0  0  0  0  0  0  0  0  0  0  0  0
   44.7810   35.8600   44.0510 C   0  0  0  0  0  0  0  0  0  0  0  0
   45.4250   35.7430   42.8000 C   0  0  0  0  0  0  0  0  0  0  0  0
   46.2740   34.6450   42.6050 C   0  0  0  0  0  0  0  0  0  0  0  0
   46.4490   33.7410   43.6130 N   0  0  0  0  0  0  0  0  0  0  0  0
   45.8010   33.9100   44.7940 C   0  0  0  0  0  0  0  0  0  0  0  0
   44.9830   34.9380   45.0290 N   0  0  0  0  0  0  0  0  0  0  0  0
   44.1210   36.6920   44.2350 H   0  0  0  0  0  0  0  0  0  0  0  0
   45.2430   36.4850   42.0570 H   0  0  0  0  0  0  0  0  0  0  0  0
   46.0610   33.0920   45.4820 H   0  0  0  0  0  0  0  0  0  0  0  0
   49.1080   35.6670   41.8980 C   0  0  0  0  0  0  0  0  0  0  0  0
   49.7230   36.4540   41.3890 H   0  0  0  0  0  0  0  0  0  0  0  0
   48.4890   36.2240   42.6480 H   0  0  0  0  0  0  0  0  0  0  0  0
   50.0090   34.7120   42.6390 C   0  0  0  0  0  0  0  0  0  0  0  0
   50.9760   35.2480   42.8110 H   0  0  0  0  0  0  0  0  0  0  0  0
   49.6110   34.5260   43.6720 H   0  0  0  0  0  0  0  0  0  0  0  0
   50.2890   33.4370   41.9170 C   0  0  1  0  0  0  0  0  0  0  0  0
   51.0170   32.3090   42.4940 C   0  0  0  0  0  0  0  0  0  0  0  0
   49.5430   32.2090   42.5120 C   0  0  2  0  0  0  0  0  0  0  0  0
   50.2450   33.5150   40.8110 H   0  0  0  0  0  0  0  0  0  0  0  0
   51.6300   31.6960   41.7910 H   0  0  0  0  0  0  0  0  0  0  0  0
   51.5730   32.4890   43.4470 H   0  0  0  0  0  0  0  0  0  0  0  0
   49.0110   32.3490   43.4610 H   0  0  0  0  0  0  0  0  0  0  0  0
   48.9700   31.2450   41.5260 C   0  0  0  0  0  0  0  0  0  0  0  0
   48.0240   30.4560   41.7900 O   0  0  0  0  0  0  0  0  0  0  0  0
   49.5250   31.2250   40.2330 O   0  0  0  0  0  0  0  0  0  0  0  0
   49.3990   30.3300   39.7410 H   0  0  0  0  0  0  0  0  0  0  0  0
  1 17  1  0  0  0  0
  2  1  2  0  0  0  0
  2 24  1  0  0  0  0
  3  2  1  0  0  0  0
  4  3  1  0  0  0  0
  4  9  1  0  0  0  0
  5  4  2  0  0  0  0
  6  5  1  0  0  0  0
  6  7  2  0  0  0  0
  7  8  1  0  0  0  0
  8  9  2  0  0  0  0
  8 14  1  0  0  0  0
  9  1  1  0  0  0  0
 10  3  1  0  0  0  0
 11  5  1  0  0  0  0
 12  6  1  0  0  0  0
 13  7  1  0  0  0  0
 15 21  1  0  0  0  0
 15 20  1  0  0  0  0
 16 15  2  0  0  0  0
 17 16  1  0  0  0  0
 17 18  2  0  0  0  0
 18 19  1  0  0  0  0
 19 20  2  0  0  0  0
 19 23  1  0  0  0  0
 22 16  1  0  0  0  0
 24 27  1  0  0  0  0
 24 26  1  0  0  0  0
 25 24  1  0  0  0  0
 27 28  1  0  0  0  0
 27 29  1  0  0  0  0
 30 33  1  6  0  0  0
 30 31  1  0  0  0  0
 30 32  1  0  0  0  0
 30 27  1  0  0  0  0
 31 32  1  0  0  0  0
 31 35  1  0  0  0  0
 32 36  1  1  0  0  0
 34 31  1  0  0  0  0
 37 38  2  0  0  0  0
 37 32  1  0  0  0  0
 39 37  1  0  0  0  0
 40 39  1  0  0  0  0
M  END
>  <minimizedAffinity>
-5.68330479

>  <minimizedRMSD>
0.113275386

$$$$
