
 OpenBabel03232520593D

 42 45  0  0  1  0  0  0  0  0999 V2000
   45.3380   32.9020   47.5020 C   0  0  0  0  0  0  0  0  0  0  0  0
   45.8990   32.6440   46.2950 C   0  0  0  0  0  0  0  0  0  0  0  0
   46.1810   31.2970   46.0570 C   0  0  0  0  0  0  0  0  0  0  0  0
   45.9200   30.3060   46.9450 N   0  0  0  0  0  0  0  0  0  0  0  0
   45.3430   30.6290   48.1650 C   0  0  0  0  0  0  0  0  0  0  0  0
   45.0690   31.8990   48.4100 N   0  0  0  0  0  0  0  0  0  0  0  0
   45.0940   29.6130   49.1270 N   0  0  0  0  0  0  0  0  0  0  0  0
   45.0840   33.9110   47.7870 H   0  0  0  0  0  0  0  0  0  0  0  0
   44.1370   29.4280   49.5420 H   0  0  0  0  0  0  0  0  0  0  0  0
   45.8630   28.9930   49.4700 H   0  0  0  0  0  0  0  0  0  0  0  0
   46.1500   33.5930   45.2630 C   0  0  2  0  0  0  0  0  0  0  0  0
   44.9450   34.6940   45.4970 C   0  0  0  0  0  0  0  0  0  0  0  0
   44.7220   35.6300   44.4290 C   0  0  0  0  0  0  0  0  0  0  0  0
   45.5190   35.5520   43.2030 C   0  0  1  0  0  0  0  0  0  0  0  0
   46.5670   34.5430   43.1520 C   0  0  0  0  0  0  0  0  0  0  0  0
   46.1140   33.3100   43.9000 C   0  0  0  0  0  0  0  0  0  0  0  0
   46.9260   34.3450   45.6030 H   0  0  0  0  0  0  0  0  0  0  0  0
   44.2700   34.8450   46.3270 H   0  0  0  0  0  0  0  0  0  0  0  0
   43.9600   36.3540   44.5430 H   0  0  0  0  0  0  0  0  0  0  0  0
   45.9490   36.5560   43.0030 H   0  0  0  0  0  0  0  0  0  0  0  0
   47.5520   34.8840   43.5580 H   0  0  0  0  0  0  0  0  0  0  0  0
   46.7930   34.3280   42.0660 H   0  0  0  0  0  0  0  0  0  0  0  0
   46.9570   32.6540   43.5590 H   0  0  0  0  0  0  0  0  0  0  0  0
   45.1540   32.9740   43.4530 H   0  0  0  0  0  0  0  0  0  0  0  0
   44.4980   35.2910   42.0550 C   0  0  0  0  0  0  0  0  0  0  0  0
   43.4330   34.5000   42.4540 F   0  0  0  0  0  0  0  0  0  0  0  0
   43.9630   36.5330   41.7210 F   0  0  0  0  0  0  0  0  0  0  0  0
   45.1610   34.8240   40.9370 F   0  0  0  0  0  0  0  0  0  0  0  0
   46.8340   30.6040   44.9580 C   0  0  0  0  0  0  0  0  0  0  0  0
   46.5010   29.8100   43.9090 C   0  0  0  0  0  0  0  0  0  0  0  0
   47.6810   29.4460   43.2480 C   0  0  0  0  0  0  0  0  0  0  0  0
   48.6660   30.0360   43.9260 N   0  0  0  0  0  0  0  0  0  0  0  0
   48.1930   30.7240   44.9370 N   0  0  0  0  0  0  0  0  0  0  0  0
   45.4570   29.5970   43.7570 H   0  0  0  0  0  0  0  0  0  0  0  0
   47.6530   28.8180   42.3860 H   0  0  0  0  0  0  0  0  0  0  0  0
   50.0540   29.9030   43.5530 C   0  0  0  0  0  0  0  0  0  0  0  0
   50.9550   29.2470   44.3630 C   0  0  0  0  0  3  0  0  0  0  0  0
   52.2890   29.0960   44.0460 C   0  0  0  0  0  3  0  0  0  0  0  0
   52.7130   29.6250   42.8820 N   0  0  0  0  0  0  0  0  0  0  0  0
   51.8280   30.2710   42.0820 C   0  0  0  0  0  0  0  0  0  0  0  0
   52.2650   30.6510   41.1880 H   0  0  0  0  0  0  0  0  0  0  0  0
   50.5190   30.4180   42.3960 N   0  0  0  0  0  0  0  0  0  0  0  0
  1  8  1  0  0  0  0
  1  6  1  0  0  0  0
  2  1  2  0  0  0  0
  3  2  1  0  0  0  0
  3  4  2  0  0  0  0
  4  5  1  0  0  0  0
  5  6  2  0  0  0  0
  5  7  1  0  0  0  0
  7 10  1  0  0  0  0
  7  9  1  0  0  0  0
 11 12  1  0  0  0  0
 11 17  1  1  0  0  0
 11  2  1  0  0  0  0
 12 18  1  0  0  0  0
 13 19  1  0  0  0  0
 13 12  2  0  0  0  0
 14 20  1  6  0  0  0
 14 13  1  0  0  0  0
 15 14  1  0  0  0  0
 15 21  1  0  0  0  0
 15 16  1  0  0  0  0
 16 11  1  0  0  0  0
 22 15  1  0  0  0  0
 23 16  1  0  0  0  0
 24 16  1  0  0  0  0
 25 26  1  0  0  0  0
 25 14  1  0  0  0  0
 27 25  1  0  0  0  0
 28 25  1  0  0  0  0
 29  3  1  0  0  0  0
 30 29  1  0  0  0  0
 31 30  2  0  0  0  0
 31 32  1  0  0  0  0
 32 33  1  0  0  0  0
 33 29  2  0  0  0  0
 34 30  1  0  0  0  0
 35 31  1  0  0  0  0
 36 32  1  0  0  0  0
 36 37  1  0  0  0  0
 38 37  2  0  0  0  0
 39 38  1  0  0  0  0
 40 42  1  0  0  0  0
 40 39  2  0  0  0  0
 41 40  1  0  0  0  0
 42 36  2  0  0  0  0
M  END
>  <minimizedAffinity>
-5.81679106

>  <minimizedRMSD>
0.234494478

$$$$
