
 OpenBabel03232520113D

 35 37  0  0  1  0  0  0  0  0999 V2000
   48.0360   30.1940   48.2700 N   0  0  0  0  0  0  0  0  0  0  0  0
   48.3090   28.8650   47.8180 C   0  0  0  0  0  0  0  0  0  0  0  0
   49.7840   28.5720   47.7400 C   0  0  0  0  0  0  0  0  0  0  0  0
   50.5460   29.2300   48.8620 C   0  0  0  0  0  0  0  0  0  0  0  0
   49.6360   29.6470   49.9990 C   0  0  0  0  0  0  0  0  0  0  0  0
   48.7120   30.6860   49.4660 C   0  0  1  0  0  0  0  0  0  0  0  0
   47.7870   28.1710   48.5230 H   0  0  0  0  0  0  0  0  0  0  0  0
   47.9000   28.6870   46.8000 H   0  0  0  0  0  0  0  0  0  0  0  0
   49.9420   27.4720   47.6970 H   0  0  0  0  0  0  0  0  0  0  0  0
   50.1670   29.0190   46.8010 H   0  0  0  0  0  0  0  0  0  0  0  0
   51.1290   30.1110   48.5420 H   0  0  0  0  0  0  0  0  0  0  0  0
   51.2640   28.4520   49.2550 H   0  0  0  0  0  0  0  0  0  0  0  0
   49.0750   28.7940   50.4090 H   0  0  0  0  0  0  0  0  0  0  0  0
   50.2880   30.0930   50.7810 H   0  0  0  0  0  0  0  0  0  0  0  0
   47.9050   30.8490   50.2290 H   0  0  0  0  0  0  0  0  0  0  0  0
   45.8460   32.9590   46.2680 C   0  0  0  0  0  0  0  0  0  0  0  0
   45.3850   32.6860   47.5280 C   0  0  0  0  0  0  0  0  0  0  0  0
   46.0400   31.7810   48.2810 C   0  0  0  0  0  0  0  0  0  0  0  0
   47.1520   31.1840   47.7110 C   0  0  0  0  0  0  0  0  0  0  0  0
   47.2730   31.9110   46.0910 S   0  0  0  0  0  0  0  0  0  0  0  0
   44.5030   33.2220   47.8580 H   0  0  0  0  0  0  0  0  0  0  0  0
   45.7690   31.4870   49.2850 H   0  0  0  0  0  0  0  0  0  0  0  0
   44.4120   35.9320   44.6660 C   0  0  0  0  0  0  0  0  0  0  0  0
   44.4490   35.5640   43.2990 C   0  0  0  0  0  0  0  0  0  0  0  0
   44.9730   34.2880   42.9600 C   0  0  0  0  0  0  0  0  0  0  0  0
   45.4170   33.4750   43.9700 N   0  0  0  0  0  0  0  0  0  0  0  0
   45.3610   33.8660   45.2480 C   0  0  0  0  0  0  0  0  0  0  0  0
   44.8640   35.0820   45.6040 N   0  0  0  0  0  0  0  0  0  0  0  0
   44.0200   36.8920   44.9440 H   0  0  0  0  0  0  0  0  0  0  0  0
   44.0910   36.2320   42.5390 H   0  0  0  0  0  0  0  0  0  0  0  0
   45.0200   33.9680   41.9350 H   0  0  0  0  0  0  0  0  0  0  0  0
   49.3640   31.9870   49.2410 C   0  0  0  0  0  0  0  0  0  0  0  0
   50.6010   32.1390   49.4270 O   0  0  0  0  0  0  0  0  0  0  0  0
   48.5390   33.0220   48.8180 O   0  0  0  0  0  0  0  0  0  0  0  0
   48.9460   33.8830   48.4600 H   0  0  0  0  0  0  0  0  0  0  0  0
  1  6  1  0  0  0  0
  2  1  1  0  0  0  0
  2  7  1  0  0  0  0
  3  2  1  0  0  0  0
  3  4  1  0  0  0  0
  4 12  1  0  0  0  0
  4  5  1  0  0  0  0
  5 13  1  0  0  0  0
  5 14  1  0  0  0  0
  6  5  1  0  0  0  0
  6 15  1  1  0  0  0
  8  2  1  0  0  0  0
  9  3  1  0  0  0  0
 10  3  1  0  0  0  0
 11  4  1  0  0  0  0
 16 17  2  0  0  0  0
 17 21  1  0  0  0  0
 17 18  1  0  0  0  0
 18 22  1  0  0  0  0
 19  1  1  0  0  0  0
 19 18  2  0  0  0  0
 20 16  1  0  0  0  0
 20 19  1  0  0  0  0
 23 29  1  0  0  0  0
 23 28  1  0  0  0  0
 24 23  2  0  0  0  0
 25 24  1  0  0  0  0
 25 26  2  0  0  0  0
 26 27  1  0  0  0  0
 27 28  2  0  0  0  0
 27 16  1  0  0  0  0
 30 24  1  0  0  0  0
 31 25  1  0  0  0  0
 32 33  2  0  0  0  0
 32  6  1  0  0  0  0
 34 32  1  0  0  0  0
 35 34  1  0  0  0  0
M  END
>  <minimizedAffinity>
-4.45202589

>  <minimizedRMSD>
0.444869608

$$$$
