
 OpenBabel03232518103D

 33 35  0  0  0  0  0  0  0  0999 V2000
   46.3600   30.7240   46.0220 C   0  0  0  0  0  0  0  0  0  0  0  0
   45.7970   31.3120   47.1670 C   0  0  0  0  0  0  0  0  0  0  0  0
   45.1140   30.2900   47.7940 C   0  0  0  0  0  0  0  0  0  0  0  0
   45.2550   29.1590   47.0750 N   0  0  0  0  0  0  0  0  0  0  0  0
   46.0050   29.4050   46.0040 N   0  0  0  0  0  0  0  0  0  0  0  0
   45.9920   32.3440   47.3120 H   0  0  0  0  0  0  0  0  0  0  0  0
   44.5920   30.5180   48.7170 H   0  0  0  0  0  0  0  0  0  0  0  0
   44.6560   27.9310   47.4840 C   0  0  0  0  0  0  0  0  0  0  0  0
   44.0160   26.9790   46.5290 C   0  0  0  0  0  0  0  0  0  0  0  0
   43.4720   25.6510   47.7280 S   0  0  0  0  0  0  0  0  0  0  0  0
   44.1850   26.6100   49.1960 C   0  0  0  0  0  0  0  0  0  0  0  0
   44.6290   27.5540   48.7580 N   0  0  0  0  0  0  0  0  0  0  0  0
   43.9950   27.2000   45.5200 H   0  0  0  0  0  0  0  0  0  0  0  0
   43.9670   25.8650   50.5020 C   0  0  0  0  0  0  0  0  0  0  0  0
   42.9860   26.0750   51.2230 O   0  0  0  0  0  0  0  0  0  0  0  0
   44.9410   24.9540   50.8020 O   0  0  0  0  0  0  0  0  0  0  0  0
   44.9210   24.3890   51.6400 H   0  0  0  0  0  0  0  0  0  0  0  0
   47.3780   31.2550   44.6680 S   0  0  0  0  0  0  0  0  0  0  0  0
   47.2520   34.7400   42.6460 C   0  0  0  0  0  0  0  0  0  0  0  0
   47.7180   33.5240   43.1470 C   0  0  0  0  0  0  0  0  0  0  0  0
   46.8930   32.7910   43.9830 C   0  0  0  0  0  0  0  0  0  0  0  0
   45.6700   33.2960   44.2750 N   0  0  0  0  0  0  0  0  0  0  0  0
   45.2530   34.4810   43.7710 C   0  0  0  0  0  0  0  0  0  0  0  0
   46.0400   35.1780   42.9720 N   0  0  0  0  0  0  0  0  0  0  0  0
   48.7010   33.0980   42.9240 H   0  0  0  0  0  0  0  0  0  0  0  0
   44.2830   34.9130   43.9830 H   0  0  0  0  0  0  0  0  0  0  0  0
   48.2490   35.4130   41.7610 C   0  0  0  0  0  0  0  0  0  0  0  0
   48.1050   35.0270   40.7480 H   0  0  0  0  0  0  0  0  0  0  0  0
   48.0320   36.4980   41.8020 H   0  0  0  0  0  0  0  0  0  0  0  0
   49.6440   35.2100   42.2910 C   0  0  0  0  0  0  0  0  0  0  0  0
   50.2630   36.0310   41.8600 H   0  0  0  0  0  0  0  0  0  0  0  0
   50.1080   34.2660   41.9890 H   0  0  0  0  0  0  0  0  0  0  0  0
   49.6470   35.3530   43.3870 H   0  0  0  0  0  0  0  0  0  0  0  0
  1  2  1  0  0  0  0
  2  6  1  0  0  0  0
  2  3  2  0  0  0  0
  3  7  1  0  0  0  0
  4  8  1  0  0  0  0
  4  3  1  0  0  0  0
  5  1  2  0  0  0  0
  5  4  1  0  0  0  0
  8 12  1  0  0  0  0
  9  8  2  0  0  0  0
  9 10  1  0  0  0  0
 10 11  1  0  0  0  0
 11 14  1  0  0  0  0
 12 11  2  0  0  0  0
 13  9  1  0  0  0  0
 14 16  1  0  0  0  0
 14 15  2  0  0  0  0
 16 17  1  0  0  0  0
 18  1  1  0  0  0  0
 19 24  2  0  0  0  0
 19 20  1  0  0  0  0
 20 21  2  0  0  0  0
 21 22  1  0  0  0  0
 21 18  1  0  0  0  0
 23 26  1  0  0  0  0
 23 22  2  0  0  0  0
 24 23  1  0  0  0  0
 25 20  1  0  0  0  0
 27 29  1  0  0  0  0
 27 30  1  0  0  0  0
 27 19  1  0  0  0  0
 28 27  1  0  0  0  0
 30 33  1  0  0  0  0
 31 30  1  0  0  0  0
 32 30  1  0  0  0  0
M  END
>  <minimizedAffinity>
-5.25873184

>  <minimizedRMSD>
0.475224346

$$$$
