
 OpenBabel03232521003D

 42 45  0  0  1  0  0  0  0  0999 V2000
   45.3370   32.9060   47.5020 C   0  0  0  0  0  0  0  0  0  0  0  0
   45.8980   32.6470   46.2950 C   0  0  0  0  0  0  0  0  0  0  0  0
   46.1800   31.2990   46.0590 C   0  0  0  0  0  0  0  0  0  0  0  0
   45.9190   30.3090   46.9490 N   0  0  0  0  0  0  0  0  0  0  0  0
   45.3430   30.6340   48.1690 C   0  0  0  0  0  0  0  0  0  0  0  0
   45.0690   31.9040   48.4120 N   0  0  0  0  0  0  0  0  0  0  0  0
   45.0940   29.6190   49.1320 N   0  0  0  0  0  0  0  0  0  0  0  0
   45.0840   33.9150   47.7860 H   0  0  0  0  0  0  0  0  0  0  0  0
   44.1370   29.4350   49.5470 H   0  0  0  0  0  0  0  0  0  0  0  0
   45.8630   29.0000   49.4750 H   0  0  0  0  0  0  0  0  0  0  0  0
   46.1490   33.5930   45.2620 C   0  0  2  0  0  0  0  0  0  0  0  0
   44.9450   34.6960   45.4960 C   0  0  0  0  0  0  0  0  0  0  0  0
   44.7220   35.6310   44.4280 C   0  0  0  0  0  0  0  0  0  0  0  0
   45.5170   35.5500   43.2000 C   0  0  1  0  0  0  0  0  0  0  0  0
   46.5650   34.5410   43.1500 C   0  0  0  0  0  0  0  0  0  0  0  0
   46.1110   33.3090   43.8990 C   0  0  0  0  0  0  0  0  0  0  0  0
   46.9250   34.3460   45.6000 H   0  0  0  0  0  0  0  0  0  0  0  0
   44.2700   34.8480   46.3260 H   0  0  0  0  0  0  0  0  0  0  0  0
   43.9600   36.3550   44.5410 H   0  0  0  0  0  0  0  0  0  0  0  0
   45.9480   36.5540   42.9990 H   0  0  0  0  0  0  0  0  0  0  0  0
   47.5500   34.8820   43.5550 H   0  0  0  0  0  0  0  0  0  0  0  0
   46.7890   34.3240   42.0630 H   0  0  0  0  0  0  0  0  0  0  0  0
   46.9530   32.6520   43.5580 H   0  0  0  0  0  0  0  0  0  0  0  0
   45.1500   32.9730   43.4540 H   0  0  0  0  0  0  0  0  0  0  0  0
   44.4940   35.2880   42.0530 C   0  0  0  0  0  0  0  0  0  0  0  0
   43.4330   34.4940   42.4530 F   0  0  0  0  0  0  0  0  0  0  0  0
   43.9550   36.5300   41.7230 F   0  0  0  0  0  0  0  0  0  0  0  0
   45.1570   34.8260   40.9330 F   0  0  0  0  0  0  0  0  0  0  0  0
   46.8320   30.6040   44.9610 C   0  0  0  0  0  0  0  0  0  0  0  0
   46.4980   29.8080   43.9140 C   0  0  0  0  0  0  0  0  0  0  0  0
   47.6790   29.4440   43.2520 C   0  0  0  0  0  0  0  0  0  0  0  0
   48.6640   30.0360   43.9290 N   0  0  0  0  0  0  0  0  0  0  0  0
   48.1910   30.7250   44.9390 N   0  0  0  0  0  0  0  0  0  0  0  0
   45.4550   29.5950   43.7640 H   0  0  0  0  0  0  0  0  0  0  0  0
   47.6500   28.8140   42.3920 H   0  0  0  0  0  0  0  0  0  0  0  0
   50.0510   29.9030   43.5550 C   0  0  0  0  0  0  0  0  0  0  0  0
   50.9540   29.2480   44.3640 C   0  0  0  0  0  3  0  0  0  0  0  0
   52.2880   29.0990   44.0470 C   0  0  0  0  0  3  0  0  0  0  0  0
   52.7100   29.6250   42.8810 N   0  0  0  0  0  0  0  0  0  0  0  0
   51.8240   30.2710   42.0820 C   0  0  0  0  0  0  0  0  0  0  0  0
   52.2600   30.6490   41.1870 H   0  0  0  0  0  0  0  0  0  0  0  0
   50.5150   30.4170   42.3960 N   0  0  0  0  0  0  0  0  0  0  0  0
  1  8  1  0  0  0  0
  1  6  1  0  0  0  0
  2  1  2  0  0  0  0
  3  2  1  0  0  0  0
  3  4  2  0  0  0  0
  4  5  1  0  0  0  0
  5  6  2  0  0  0  0
  5  7  1  0  0  0  0
  7 10  1  0  0  0  0
  7  9  1  0  0  0  0
 11 12  1  0  0  0  0
 11 17  1  1  0  0  0
 11  2  1  0  0  0  0
 12 18  1  0  0  0  0
 13 19  1  0  0  0  0
 13 12  2  0  0  0  0
 14 20  1  6  0  0  0
 14 13  1  0  0  0  0
 15 14  1  0  0  0  0
 15 21  1  0  0  0  0
 15 16  1  0  0  0  0
 16 11  1  0  0  0  0
 22 15  1  0  0  0  0
 23 16  1  0  0  0  0
 24 16  1  0  0  0  0
 25 26  1  0  0  0  0
 25 14  1  0  0  0  0
 27 25  1  0  0  0  0
 28 25  1  0  0  0  0
 29  3  1  0  0  0  0
 30 29  1  0  0  0  0
 31 30  2  0  0  0  0
 31 32  1  0  0  0  0
 32 33  1  0  0  0  0
 33 29  2  0  0  0  0
 34 30  1  0  0  0  0
 35 31  1  0  0  0  0
 36 32  1  0  0  0  0
 36 37  1  0  0  0  0
 38 37  2  0  0  0  0
 39 38  1  0  0  0  0
 40 42  1  0  0  0  0
 40 39  2  0  0  0  0
 41 40  1  0  0  0  0
 42 36  2  0  0  0  0
M  END
>  <minimizedAffinity>
-5.81911516

>  <minimizedRMSD>
0.273266256

$$$$
