
 OpenBabel03232519583D

 27 29  0  0  1  0  0  0  0  0999 V2000
   45.8710   34.0290   42.2710 N   0  0  0  0  0  0  0  0  0  0  0  0
   46.8490   34.5690   41.5910 C   0  0  0  0  0  0  0  0  0  0  0  0
   46.8100   34.0950   40.2760 C   0  0  0  0  0  0  0  0  0  0  0  0
   45.7720   33.2540   40.2030 N   0  0  0  0  0  0  0  0  0  0  0  0
   45.1900   33.2060   41.4190 C   0  0  0  0  0  0  0  0  0  0  0  0
   47.3760   34.2340   39.3700 H   0  0  0  0  0  0  0  0  0  0  0  0
   44.3180   32.6100   41.6840 H   0  0  0  0  0  0  0  0  0  0  0  0
   44.7850   35.3870   43.8960 C   0  0  0  0  0  0  0  0  0  0  0  0
   45.5300   34.2100   43.6100 C   0  0  0  0  0  0  0  0  0  0  0  0
   45.8340   33.3800   44.6810 C   0  0  0  0  0  0  0  0  0  0  0  0
   45.4190   33.7210   45.9160 N   0  0  0  0  0  0  0  0  0  0  0  0
   44.7110   34.8500   46.1500 C   0  0  0  0  0  0  0  0  0  0  0  0
   44.3990   35.6720   45.1490 N   0  0  0  0  0  0  0  0  0  0  0  0
   44.4760   36.1230   43.1690 H   0  0  0  0  0  0  0  0  0  0  0  0
   46.3920   32.5160   44.4030 H   0  0  0  0  0  0  0  0  0  0  0  0
   44.3990   35.0820   47.1610 H   0  0  0  0  0  0  0  0  0  0  0  0
   47.9200   35.5490   41.9310 C   0  0  2  0  0  0  0  0  0  0  0  0
   49.0810   35.6950   40.9720 C   0  0  0  0  0  0  0  0  0  0  0  0
   49.3030   35.0140   42.2720 C   0  0  2  0  0  0  0  0  0  0  0  0
   47.6270   36.3440   42.6270 H   0  0  0  0  0  0  0  0  0  0  0  0
   49.4160   36.7500   40.8990 H   0  0  0  0  0  0  0  0  0  0  0  0
   49.0620   35.1960   40.0050 H   0  0  0  0  0  0  0  0  0  0  0  0
   49.9380   35.5480   43.0090 H   0  0  0  0  0  0  0  0  0  0  0  0
   49.3410   33.5610   42.4190 C   0  0  0  0  0  0  0  0  0  0  0  0
   50.2080   33.0170   41.6560 O   0  0  0  0  0  0  0  0  0  0  0  0
   48.8500   32.4360   43.0310 O   0  0  0  0  0  0  0  0  0  0  0  0
   48.1940   31.8610   42.5110 H   0  0  0  0  0  0  0  0  0  0  0  0
  1  9  1  0  0  0  0
  2 17  1  0  0  0  0
  2  1  1  0  0  0  0
  3  2  2  0  0  0  0
  4  3  1  0  0  0  0
  4  5  2  0  0  0  0
  5  7  1  0  0  0  0
  5  1  1  0  0  0  0
  6  3  1  0  0  0  0
  8 13  1  0  0  0  0
  9  8  2  0  0  0  0
  9 10  1  0  0  0  0
 10 11  2  0  0  0  0
 11 12  1  0  0  0  0
 12 16  1  0  0  0  0
 13 12  2  0  0  0  0
 14  8  1  0  0  0  0
 15 10  1  0  0  0  0
 17 19  1  0  0  0  0
 17 20  1  1  0  0  0
 18 17  1  0  0  0  0
 18 19  1  0  0  0  0
 19 24  1  0  0  0  0
 19 23  1  1  0  0  0
 21 18  1  0  0  0  0
 22 18  1  0  0  0  0
 24 26  1  0  0  0  0
 25 24  2  0  0  0  0
 27 26  1  0  0  0  0
M  END
>  <minimizedAffinity>
-4.6260643

>  <minimizedRMSD>
0.489715755

$$$$
