
 OpenBabel03232520593D

 42 45  0  0  1  0  0  0  0  0999 V2000
   45.3320   32.9140   47.4960 C   0  0  0  0  0  0  0  0  0  0  0  0
   45.8930   32.6510   46.2890 C   0  0  0  0  0  0  0  0  0  0  0  0
   46.1750   31.3030   46.0570 C   0  0  0  0  0  0  0  0  0  0  0  0
   45.9150   30.3150   46.9500 N   0  0  0  0  0  0  0  0  0  0  0  0
   45.3380   30.6440   48.1690 C   0  0  0  0  0  0  0  0  0  0  0  0
   45.0640   31.9140   48.4080 N   0  0  0  0  0  0  0  0  0  0  0  0
   45.0900   29.6310   49.1340 N   0  0  0  0  0  0  0  0  0  0  0  0
   45.0790   33.9240   47.7770 H   0  0  0  0  0  0  0  0  0  0  0  0
   44.1330   29.4480   49.5510 H   0  0  0  0  0  0  0  0  0  0  0  0
   45.8600   29.0130   49.4800 H   0  0  0  0  0  0  0  0  0  0  0  0
   46.1430   33.5950   45.2530 C   0  0  2  0  0  0  0  0  0  0  0  0
   44.9440   34.7020   45.4900 C   0  0  0  0  0  0  0  0  0  0  0  0
   44.7200   35.6360   44.4200 C   0  0  0  0  0  0  0  0  0  0  0  0
   45.5110   35.5500   43.1900 C   0  0  1  0  0  0  0  0  0  0  0  0
   46.5550   34.5370   43.1380 C   0  0  0  0  0  0  0  0  0  0  0  0
   46.1000   33.3080   43.8920 C   0  0  0  0  0  0  0  0  0  0  0  0
   46.9230   34.3460   45.5870 H   0  0  0  0  0  0  0  0  0  0  0  0
   44.2720   34.8580   46.3220 H   0  0  0  0  0  0  0  0  0  0  0  0
   43.9610   36.3630   44.5350 H   0  0  0  0  0  0  0  0  0  0  0  0
   45.9440   36.5520   42.9850 H   0  0  0  0  0  0  0  0  0  0  0  0
   47.5420   34.8760   43.5390 H   0  0  0  0  0  0  0  0  0  0  0  0
   46.7750   34.3170   42.0510 H   0  0  0  0  0  0  0  0  0  0  0  0
   46.9390   32.6480   43.5490 H   0  0  0  0  0  0  0  0  0  0  0  0
   45.1370   32.9740   43.4500 H   0  0  0  0  0  0  0  0  0  0  0  0
   44.4830   35.2900   42.0470 C   0  0  0  0  0  0  0  0  0  0  0  0
   43.4220   34.4980   42.4510 F   0  0  0  0  0  0  0  0  0  0  0  0
   43.9460   36.5320   41.7180 F   0  0  0  0  0  0  0  0  0  0  0  0
   45.1410   34.8250   40.9250 F   0  0  0  0  0  0  0  0  0  0  0  0
   46.8270   30.6060   44.9600 C   0  0  0  0  0  0  0  0  0  0  0  0
   46.4940   29.8050   43.9160 C   0  0  0  0  0  0  0  0  0  0  0  0
   47.6750   29.4410   43.2550 C   0  0  0  0  0  0  0  0  0  0  0  0
   48.6600   30.0360   43.9290 N   0  0  0  0  0  0  0  0  0  0  0  0
   48.1860   30.7280   44.9370 N   0  0  0  0  0  0  0  0  0  0  0  0
   45.4510   29.5900   43.7680 H   0  0  0  0  0  0  0  0  0  0  0  0
   47.6460   28.8080   42.3970 H   0  0  0  0  0  0  0  0  0  0  0  0
   50.0470   29.9040   43.5540 C   0  0  0  0  0  0  0  0  0  0  0  0
   50.9500   29.2500   44.3630 C   0  0  0  0  0  3  0  0  0  0  0  0
   52.2840   29.1010   44.0440 C   0  0  0  0  0  3  0  0  0  0  0  0
   52.7050   29.6290   42.8800 N   0  0  0  0  0  0  0  0  0  0  0  0
   51.8180   30.2730   42.0800 C   0  0  0  0  0  0  0  0  0  0  0  0
   52.2530   30.6520   41.1850 H   0  0  0  0  0  0  0  0  0  0  0  0
   50.5080   30.4180   42.3960 N   0  0  0  0  0  0  0  0  0  0  0  0
  1  8  1  0  0  0  0
  1  6  1  0  0  0  0
  2  1  2  0  0  0  0
  3  2  1  0  0  0  0
  3  4  2  0  0  0  0
  4  5  1  0  0  0  0
  5  6  2  0  0  0  0
  5  7  1  0  0  0  0
  7 10  1  0  0  0  0
  7  9  1  0  0  0  0
 11 12  1  0  0  0  0
 11 17  1  1  0  0  0
 11  2  1  0  0  0  0
 12 18  1  0  0  0  0
 13 19  1  0  0  0  0
 13 12  2  0  0  0  0
 14 20  1  6  0  0  0
 14 13  1  0  0  0  0
 15 14  1  0  0  0  0
 15 21  1  0  0  0  0
 15 16  1  0  0  0  0
 16 11  1  0  0  0  0
 22 15  1  0  0  0  0
 23 16  1  0  0  0  0
 24 16  1  0  0  0  0
 25 26  1  0  0  0  0
 25 14  1  0  0  0  0
 27 25  1  0  0  0  0
 28 25  1  0  0  0  0
 29  3  1  0  0  0  0
 30 29  1  0  0  0  0
 31 30  2  0  0  0  0
 31 32  1  0  0  0  0
 32 33  1  0  0  0  0
 33 29  2  0  0  0  0
 34 30  1  0  0  0  0
 35 31  1  0  0  0  0
 36 32  1  0  0  0  0
 36 37  1  0  0  0  0
 38 37  2  0  0  0  0
 39 38  1  0  0  0  0
 40 42  1  0  0  0  0
 40 39  2  0  0  0  0
 41 40  1  0  0  0  0
 42 36  2  0  0  0  0
M  END
>  <minimizedAffinity>
-5.81835651

>  <minimizedRMSD>
0.526313245

$$$$
