
 OpenBabel03232521003D

 42 45  0  0  1  0  0  0  0  0999 V2000
   45.3370   32.9020   47.5020 C   0  0  0  0  0  0  0  0  0  0  0  0
   45.8990   32.6430   46.2950 C   0  0  0  0  0  0  0  0  0  0  0  0
   46.1810   31.2960   46.0580 C   0  0  0  0  0  0  0  0  0  0  0  0
   45.9190   30.3050   46.9460 N   0  0  0  0  0  0  0  0  0  0  0  0
   45.3420   30.6290   48.1660 C   0  0  0  0  0  0  0  0  0  0  0  0
   45.0690   31.8990   48.4110 N   0  0  0  0  0  0  0  0  0  0  0  0
   45.0930   29.6120   49.1280 N   0  0  0  0  0  0  0  0  0  0  0  0
   45.0840   33.9110   47.7870 H   0  0  0  0  0  0  0  0  0  0  0  0
   44.1360   29.4280   49.5430 H   0  0  0  0  0  0  0  0  0  0  0  0
   45.8620   28.9930   49.4710 H   0  0  0  0  0  0  0  0  0  0  0  0
   46.1500   33.5920   45.2630 C   0  0  2  0  0  0  0  0  0  0  0  0
   44.9460   34.6930   45.4970 C   0  0  0  0  0  0  0  0  0  0  0  0
   44.7240   35.6300   44.4300 C   0  0  0  0  0  0  0  0  0  0  0  0
   45.5200   35.5500   43.2030 C   0  0  1  0  0  0  0  0  0  0  0  0
   46.5680   34.5410   43.1520 C   0  0  0  0  0  0  0  0  0  0  0  0
   46.1140   33.3080   43.9000 C   0  0  0  0  0  0  0  0  0  0  0  0
   46.9260   34.3440   45.6030 H   0  0  0  0  0  0  0  0  0  0  0  0
   44.2700   34.8440   46.3270 H   0  0  0  0  0  0  0  0  0  0  0  0
   43.9610   36.3540   44.5440 H   0  0  0  0  0  0  0  0  0  0  0  0
   45.9510   36.5540   43.0030 H   0  0  0  0  0  0  0  0  0  0  0  0
   47.5520   34.8820   43.5580 H   0  0  0  0  0  0  0  0  0  0  0  0
   46.7930   34.3250   42.0660 H   0  0  0  0  0  0  0  0  0  0  0  0
   46.9570   32.6520   43.5590 H   0  0  0  0  0  0  0  0  0  0  0  0
   45.1540   32.9720   43.4540 H   0  0  0  0  0  0  0  0  0  0  0  0
   44.4980   35.2900   42.0550 C   0  0  0  0  0  0  0  0  0  0  0  0
   43.4350   34.4970   42.4530 F   0  0  0  0  0  0  0  0  0  0  0  0
   43.9620   36.5320   41.7240 F   0  0  0  0  0  0  0  0  0  0  0  0
   45.1620   34.8260   40.9360 F   0  0  0  0  0  0  0  0  0  0  0  0
   46.8340   30.6030   44.9590 C   0  0  0  0  0  0  0  0  0  0  0  0
   46.5010   29.8080   43.9110 C   0  0  0  0  0  0  0  0  0  0  0  0
   47.6820   29.4440   43.2500 C   0  0  0  0  0  0  0  0  0  0  0  0
   48.6660   30.0350   43.9280 N   0  0  0  0  0  0  0  0  0  0  0  0
   48.1930   30.7230   44.9390 N   0  0  0  0  0  0  0  0  0  0  0  0
   45.4570   29.5950   43.7590 H   0  0  0  0  0  0  0  0  0  0  0  0
   47.6530   28.8160   42.3880 H   0  0  0  0  0  0  0  0  0  0  0  0
   50.0540   29.9020   43.5550 C   0  0  0  0  0  0  0  0  0  0  0  0
   50.9560   29.2470   44.3650 C   0  0  0  0  0  3  0  0  0  0  0  0
   52.2900   29.0970   44.0460 C   0  0  0  0  0  3  0  0  0  0  0  0
   52.7130   29.6250   42.8820 N   0  0  0  0  0  0  0  0  0  0  0  0
   51.8260   30.2710   42.0830 C   0  0  0  0  0  0  0  0  0  0  0  0
   52.2640   30.6500   41.1880 H   0  0  0  0  0  0  0  0  0  0  0  0
   50.5180   30.4170   42.3970 N   0  0  0  0  0  0  0  0  0  0  0  0
  1  8  1  0  0  0  0
  1  6  1  0  0  0  0
  2  1  2  0  0  0  0
  3  2  1  0  0  0  0
  3  4  2  0  0  0  0
  4  5  1  0  0  0  0
  5  6  2  0  0  0  0
  5  7  1  0  0  0  0
  7 10  1  0  0  0  0
  7  9  1  0  0  0  0
 11 12  1  0  0  0  0
 11 17  1  1  0  0  0
 11  2  1  0  0  0  0
 12 18  1  0  0  0  0
 13 19  1  0  0  0  0
 13 12  2  0  0  0  0
 14 20  1  6  0  0  0
 14 13  1  0  0  0  0
 15 14  1  0  0  0  0
 15 21  1  0  0  0  0
 15 16  1  0  0  0  0
 16 11  1  0  0  0  0
 22 15  1  0  0  0  0
 23 16  1  0  0  0  0
 24 16  1  0  0  0  0
 25 26  1  0  0  0  0
 25 14  1  0  0  0  0
 27 25  1  0  0  0  0
 28 25  1  0  0  0  0
 29  3  1  0  0  0  0
 30 29  1  0  0  0  0
 31 30  2  0  0  0  0
 31 32  1  0  0  0  0
 32 33  1  0  0  0  0
 33 29  2  0  0  0  0
 34 30  1  0  0  0  0
 35 31  1  0  0  0  0
 36 32  1  0  0  0  0
 36 37  1  0  0  0  0
 38 37  2  0  0  0  0
 39 38  1  0  0  0  0
 40 42  1  0  0  0  0
 40 39  2  0  0  0  0
 41 40  1  0  0  0  0
 42 36  2  0  0  0  0
M  END
>  <minimizedAffinity>
-5.81722021

>  <minimizedRMSD>
0.610414386

$$$$
