
 OpenBabel03232517123D

 34 37  0  0  0  0  0  0  0  0999 V2000
   46.3360   32.7590   46.8990 C   0  0  0  0  0  0  0  0  0  0  0  0
   45.4890   32.5760   47.9710 C   0  0  0  0  0  0  0  0  0  0  0  0
   46.2250   31.8390   48.8790 C   0  0  0  0  0  0  0  0  0  0  0  0
   47.4830   31.6010   48.3350 C   0  0  0  0  0  0  0  0  0  0  0  0
   47.4660   32.1780   47.1640 O   0  0  0  0  0  0  0  0  0  0  0  0
   44.4980   32.9820   47.9510 H   0  0  0  0  0  0  0  0  0  0  0  0
   45.7840   31.5560   49.8290 H   0  0  0  0  0  0  0  0  0  0  0  0
   46.6760   34.0460   43.5840 C   0  0  0  0  0  0  0  0  0  0  0  0
   45.5290   34.6970   44.0400 C   0  0  0  0  0  0  0  0  0  0  0  0
   45.2680   34.2830   45.3490 C   0  0  0  0  0  0  0  0  0  0  0  0
   46.2560   33.4010   45.6460 N   0  0  0  0  0  0  0  0  0  0  0  0
   47.0870   33.2520   44.6230 N   0  0  0  0  0  0  0  0  0  0  0  0
   44.8940   35.4140   43.5310 H   0  0  0  0  0  0  0  0  0  0  0  0
   44.4520   34.6000   45.9850 H   0  0  0  0  0  0  0  0  0  0  0  0
   48.6770   35.3790   40.8180 C   0  0  0  0  0  0  0  0  0  0  0  0
   48.1140   34.6980   39.7210 C   0  0  0  0  0  0  0  0  0  0  0  0
   47.0570   33.7920   39.9420 C   0  0  0  0  0  0  0  0  0  0  0  0
   46.6190   33.6110   41.2260 N   0  0  0  0  0  0  0  0  0  0  0  0
   47.1880   34.2850   42.2480 C   0  0  0  0  0  0  0  0  0  0  0  0
   48.2070   35.1670   42.0860 N   0  0  0  0  0  0  0  0  0  0  0  0
   49.4790   36.0590   40.6030 H   0  0  0  0  0  0  0  0  0  0  0  0
   48.5080   34.8870   38.7230 H   0  0  0  0  0  0  0  0  0  0  0  0
   46.6390   33.2830   39.1070 H   0  0  0  0  0  0  0  0  0  0  0  0
   48.5050   30.8760   48.9850 N   0  0  0  0  0  0  0  0  0  0  0  0
   49.3820   31.1850   49.9810 C   0  0  0  0  0  0  0  0  0  0  0  0
   50.1620   30.0990   50.2330 C   0  0  0  0  0  0  0  0  0  0  0  0
   49.7560   29.1360   49.3930 N   0  0  0  0  0  0  0  0  0  0  0  0
   48.7480   29.6080   48.6310 C   0  0  0  0  0  0  0  0  0  0  0  0
   49.3760   32.1800   50.4370 H   0  0  0  0  0  0  0  0  0  0  0  0
   50.9460   30.0790   50.9850 H   0  0  0  0  0  0  0  0  0  0  0  0
   48.2190   28.6530   47.6660 C   0  0  0  0  0  0  0  0  0  0  0  0
   48.3890   28.5390   46.4260 O   0  0  0  0  0  0  0  0  0  0  0  0
   47.3640   27.6080   47.9250 O   0  0  0  0  0  0  0  0  0  0  0  0
   46.4380   27.4800   47.5350 H   0  0  0  0  0  0  0  0  0  0  0  0
  1  5  1  0  0  0  0
  1  2  2  0  0  0  0
  2  3  1  0  0  0  0
  3  7  1  0  0  0  0
  4  3  2  0  0  0  0
  4 24  1  0  0  0  0
  5  4  1  0  0  0  0
  6  2  1  0  0  0  0
  8  9  1  0  0  0  0
  8 12  2  0  0  0  0
  9 10  2  0  0  0  0
 10 11  1  0  0  0  0
 10 14  1  0  0  0  0
 11  1  1  0  0  0  0
 12 11  1  0  0  0  0
 13  9  1  0  0  0  0
 15 20  1  0  0  0  0
 16 17  1  0  0  0  0
 16 15  2  0  0  0  0
 17 18  2  0  0  0  0
 18 19  1  0  0  0  0
 19  8  1  0  0  0  0
 20 19  2  0  0  0  0
 21 15  1  0  0  0  0
 22 16  1  0  0  0  0
 23 17  1  0  0  0  0
 24 25  1  0  0  0  0
 25 26  2  0  0  0  0
 25 29  1  0  0  0  0
 26 30  1  0  0  0  0
 27 26  1  0  0  0  0
 28 24  1  0  0  0  0
 28 27  2  0  0  0  0
 31 33  1  0  0  0  0
 31 28  1  0  0  0  0
 32 31  2  0  0  0  0
 34 33  1  0  0  0  0
M  END
>  <minimizedAffinity>
-5.86833048

>  <minimizedRMSD>
1.06168687

$$$$
