
 OpenBabel03232520033D

 28 30  0  0  0  0  0  0  0  0999 V2000
   46.2730   30.4530   49.1380 N   0  0  0  0  0  0  0  0  0  0  0  0
   45.4300   31.4780   49.4480 C   0  0  0  0  0  0  0  0  0  0  0  0
   45.3230   32.2930   48.3730 N   0  0  0  0  0  0  0  0  0  0  0  0
   46.1160   31.7360   47.4220 C   0  0  0  0  0  0  0  0  0  0  0  0
   46.3210   32.2260   46.1460 C   0  0  0  0  0  0  0  0  0  0  0  0
   47.1570   31.5140   45.3480 N   0  0  0  0  0  0  0  0  0  0  0  0
   47.7610   30.3820   45.7750 C   0  0  0  0  0  0  0  0  0  0  0  0
   47.5290   29.9480   47.0230 N   0  0  0  0  0  0  0  0  0  0  0  0
   46.7240   30.5880   47.8670 C   0  0  0  0  0  0  0  0  0  0  0  0
   46.5840   29.6350   49.7410 H   0  0  0  0  0  0  0  0  0  0  0  0
   44.9520   31.5670   50.4200 H   0  0  0  0  0  0  0  0  0  0  0  0
   48.6560   29.6340   44.8960 C   0  0  0  0  0  0  0  0  0  0  0  0
   48.9470   28.4410   45.1640 O   0  0  0  0  0  0  0  0  0  0  0  0
   49.1870   30.2370   43.7640 O   0  0  0  0  0  0  0  0  0  0  0  0
   50.0230   29.8780   43.2950 H   0  0  0  0  0  0  0  0  0  0  0  0
   45.6380   33.6670   45.4040 S   0  0  0  0  0  0  0  0  0  0  0  0
   47.8060   34.7410   42.3360 C   0  0  0  0  0  0  0  0  0  0  0  0
   47.0970   34.3660   41.1950 C   0  0  0  0  0  0  0  0  0  0  0  0
   45.8660   33.7380   41.3960 C   0  0  0  0  0  0  0  0  0  0  0  0
   45.4360   33.5330   42.6770 N   0  0  0  0  0  0  0  0  0  0  0  0
   46.1690   33.9200   43.7390 C   0  0  0  0  0  0  0  0  0  0  0  0
   47.3440   34.5190   43.5560 N   0  0  0  0  0  0  0  0  0  0  0  0
   47.4150   34.5160   40.1700 H   0  0  0  0  0  0  0  0  0  0  0  0
   45.2610   33.4200   40.5500 H   0  0  0  0  0  0  0  0  0  0  0  0
   49.0990   35.4000   42.1280 C   0  0  0  0  0  0  0  0  0  0  0  0
   49.2670   36.1770   41.1640 O   0  0  0  0  0  0  0  0  0  0  0  0
   50.1260   35.1450   43.0150 O   0  0  0  0  0  0  0  0  0  0  0  0
   51.0440   35.5700   42.8730 H   0  0  0  0  0  0  0  0  0  0  0  0
  1  2  1  0  0  0  0
  1 10  1  0  0  0  0
  2 11  1  0  0  0  0
  3  2  2  0  0  0  0
  4  9  1  0  0  0  0
  4  3  1  0  0  0  0
  5  4  2  0  0  0  0
  6  7  2  0  0  0  0
  6  5  1  0  0  0  0
  7  8  1  0  0  0  0
  8  9  2  0  0  0  0
  9  1  1  0  0  0  0
 12 13  2  0  0  0  0
 12  7  1  0  0  0  0
 14 12  1  0  0  0  0
 15 14  1  0  0  0  0
 16  5  1  0  0  0  0
 17 22  1  0  0  0  0
 18 19  1  0  0  0  0
 18 17  2  0  0  0  0
 19 20  2  0  0  0  0
 20 21  1  0  0  0  0
 21 16  1  0  0  0  0
 22 21  2  0  0  0  0
 23 18  1  0  0  0  0
 24 19  1  0  0  0  0
 25 17  1  0  0  0  0
 25 27  1  0  0  0  0
 26 25  2  0  0  0  0
 28 27  1  0  0  0  0
M  END
>  <minimizedAffinity>
-5.59705019

>  <minimizedRMSD>
0.189329848

$$$$
