
 OpenBabel03232520523D

 30 31  0  0  1  0  0  0  0  0999 V2000
   46.0780   34.2190   44.3390 C   0  0  2  0  0  0  0  0  0  0  0  0
   44.8580   35.1130   44.4210 C   0  0  0  0  0  0  0  0  0  0  0  0
   44.3700   35.6670   43.1940 C   0  0  0  0  0  0  0  0  0  0  0  0
   45.0200   35.3800   41.9220 C   0  0  1  0  0  0  0  0  0  0  0  0
   46.2640   34.5860   41.9750 C   0  0  0  0  0  0  0  0  0  0  0  0
   46.1520   33.5260   43.0280 C   0  0  0  0  0  0  0  0  0  0  0  0
   46.9470   34.9370   44.4020 H   0  0  0  0  0  0  0  0  0  0  0  0
   44.2110   35.4680   45.2130 H   0  0  0  0  0  0  0  0  0  0  0  0
   43.5270   36.3020   43.1380 H   0  0  0  0  0  0  0  0  0  0  0  0
   45.2490   36.3610   41.4390 H   0  0  0  0  0  0  0  0  0  0  0  0
   47.1550   35.2030   42.2060 H   0  0  0  0  0  0  0  0  0  0  0  0
   46.4410   34.1330   40.9780 H   0  0  0  0  0  0  0  0  0  0  0  0
   45.3640   32.7950   42.8440 H   0  0  0  0  0  0  0  0  0  0  0  0
   47.1090   32.9610   43.0130 H   0  0  0  0  0  0  0  0  0  0  0  0
   45.3140   33.6290   46.5940 C   0  0  0  0  0  0  0  0  0  0  0  0
   46.1530   33.3810   45.5250 C   0  0  0  0  0  0  0  0  0  0  0  0
   47.0530   32.3240   45.6550 C   0  0  0  0  0  0  0  0  0  0  0  0
   47.0840   31.5820   46.7960 N   0  0  0  0  0  0  0  0  0  0  0  0
   46.2420   31.8550   47.8310 C   0  0  0  0  0  0  0  0  0  0  0  0
   45.3580   32.8830   47.7190 N   0  0  0  0  0  0  0  0  0  0  0  0
   44.5690   34.4060   46.6500 H   0  0  0  0  0  0  0  0  0  0  0  0
   47.7330   32.0850   44.8490 H   0  0  0  0  0  0  0  0  0  0  0  0
   46.2660   31.0690   49.0590 C   0  0  0  0  0  0  0  0  0  0  0  0
   45.2350   30.6660   49.6440 O   0  0  0  0  0  0  0  0  0  0  0  0
   47.5110   30.7490   49.6080 O   0  0  0  0  0  0  0  0  0  0  0  0
   47.6180   30.6810   50.6310 H   0  0  0  0  0  0  0  0  0  0  0  0
   43.9960   34.7080   41.0020 C   0  0  0  0  0  0  0  0  0  0  0  0
   43.0650   33.9620   41.6900 F   0  0  0  0  0  0  0  0  0  0  0  0
   43.2870   35.7260   40.3580 F   0  0  0  0  0  0  0  0  0  0  0  0
   44.6580   33.9850   40.0250 F   0  0  0  0  0  0  0  0  0  0  0  0
  1  7  1  1  0  0  0
  1  2  1  0  0  0  0
  1 16  1  0  0  0  0
  2  8  1  0  0  0  0
  3  2  2  0  0  0  0
  4 10  1  6  0  0  0
  4  5  1  0  0  0  0
  4  3  1  0  0  0  0
  5 11  1  0  0  0  0
  5  6  1  0  0  0  0
  6  1  1  0  0  0  0
  9  3  1  0  0  0  0
 12  5  1  0  0  0  0
 13  6  1  0  0  0  0
 14  6  1  0  0  0  0
 15 21  1  0  0  0  0
 15 20  1  0  0  0  0
 16 17  1  0  0  0  0
 16 15  2  0  0  0  0
 17 18  2  0  0  0  0
 18 19  1  0  0  0  0
 19 23  1  0  0  0  0
 20 19  2  0  0  0  0
 22 17  1  0  0  0  0
 23 25  1  0  0  0  0
 23 24  2  0  0  0  0
 25 26  1  0  0  0  0
 27 28  1  0  0  0  0
 27  4  1  0  0  0  0
 29 27  1  0  0  0  0
 30 27  1  0  0  0  0
M  END
>  <minimizedAffinity>
-5.532516

>  <minimizedRMSD>
1.37754202

$$$$
