
 OpenBabel03232520223D

 27 29  0  0  0  0  0  0  0  0999 V2000
   47.1160   34.5160   41.3730 C   0  0  0  0  0  0  0  0  0  0  0  0
   48.3870   34.9580   41.0780 C   0  0  0  0  0  0  0  0  0  0  0  0
   48.7000   34.6430   39.8180 N   0  0  0  0  0  0  0  0  0  0  0  0
   47.6410   34.0000   39.2920 C   0  0  0  0  0  0  0  0  0  0  0  0
   47.4500   33.4670   38.0280 C   0  0  0  0  0  0  0  0  0  0  0  0
   46.2580   32.8550   37.7490 C   0  0  0  0  0  0  0  0  0  0  0  0
   45.1980   32.7200   38.6460 C   0  0  0  0  0  0  0  0  0  0  0  0
   45.4570   33.2740   39.8870 C   0  0  0  0  0  0  0  0  0  0  0  0
   46.6140   33.8980   40.2440 C   0  0  0  0  0  0  0  0  0  0  0  0
   49.5940   34.8340   39.2800 H   0  0  0  0  0  0  0  0  0  0  0  0
   48.2200   33.5200   37.2500 H   0  0  0  0  0  0  0  0  0  0  0  0
   46.1220   32.4400   36.7500 H   0  0  0  0  0  0  0  0  0  0  0  0
   44.2730   32.2290   38.3810 H   0  0  0  0  0  0  0  0  0  0  0  0
   44.6660   33.2030   40.6400 H   0  0  0  0  0  0  0  0  0  0  0  0
   44.8270   35.8420   44.0150 C   0  0  0  0  0  0  0  0  0  0  0  0
   45.5120   35.7120   42.7960 C   0  0  0  0  0  0  0  0  0  0  0  0
   46.4010   34.6590   42.6350 C   0  0  0  0  0  0  0  0  0  0  0  0
   46.5800   33.7780   43.6810 N   0  0  0  0  0  0  0  0  0  0  0  0
   45.8960   33.9430   44.8400 C   0  0  0  0  0  0  0  0  0  0  0  0
   45.0260   34.9600   45.0170 N   0  0  0  0  0  0  0  0  0  0  0  0
   44.1330   36.6520   44.1590 H   0  0  0  0  0  0  0  0  0  0  0  0
   45.3270   36.4400   42.0110 H   0  0  0  0  0  0  0  0  0  0  0  0
   46.1700   33.1640   45.5220 H   0  0  0  0  0  0  0  0  0  0  0  0
   49.2650   35.6650   42.0030 C   0  0  0  0  0  0  0  0  0  0  0  0
   49.4700   36.9000   41.8840 O   0  0  0  0  0  0  0  0  0  0  0  0
   49.9170   35.0510   43.0480 O   0  0  0  0  0  0  0  0  0  0  0  0
   49.9880   35.4740   43.9850 H   0  0  0  0  0  0  0  0  0  0  0  0
  1 17  1  0  0  0  0
  2  1  2  0  0  0  0
  2 24  1  0  0  0  0
  3  2  1  0  0  0  0
  4  3  1  0  0  0  0
  4  9  1  0  0  0  0
  5  4  2  0  0  0  0
  6  5  1  0  0  0  0
  6  7  2  0  0  0  0
  7  8  1  0  0  0  0
  8  9  2  0  0  0  0
  8 14  1  0  0  0  0
  9  1  1  0  0  0  0
 10  3  1  0  0  0  0
 11  5  1  0  0  0  0
 12  6  1  0  0  0  0
 13  7  1  0  0  0  0
 15 21  1  0  0  0  0
 15 20  1  0  0  0  0
 16 15  2  0  0  0  0
 17 16  1  0  0  0  0
 17 18  2  0  0  0  0
 18 19  1  0  0  0  0
 19 20  2  0  0  0  0
 19 23  1  0  0  0  0
 22 16  1  0  0  0  0
 24 26  1  0  0  0  0
 25 24  2  0  0  0  0
 26 27  1  0  0  0  0
M  END
>  <minimizedAffinity>
-5.83674288

>  <minimizedRMSD>
0.813708663

$$$$
