
 OpenBabel03232520583D

 42 45  0  0  1  0  0  0  0  0999 V2000
   45.3320   32.9060   47.5070 C   0  0  0  0  0  0  0  0  0  0  0  0
   45.8980   32.6470   46.3020 C   0  0  0  0  0  0  0  0  0  0  0  0
   46.1820   31.2990   46.0670 C   0  0  0  0  0  0  0  0  0  0  0  0
   45.9200   30.3090   46.9560 N   0  0  0  0  0  0  0  0  0  0  0  0
   45.3390   30.6340   48.1740 C   0  0  0  0  0  0  0  0  0  0  0  0
   45.0630   31.9030   48.4160 N   0  0  0  0  0  0  0  0  0  0  0  0
   45.0890   29.6180   49.1360 N   0  0  0  0  0  0  0  0  0  0  0  0
   45.0770   33.9150   47.7900 H   0  0  0  0  0  0  0  0  0  0  0  0
   44.1310   29.4330   49.5490 H   0  0  0  0  0  0  0  0  0  0  0  0
   45.8580   29.0010   49.4830 H   0  0  0  0  0  0  0  0  0  0  0  0
   46.1500   33.5940   45.2690 C   0  0  2  0  0  0  0  0  0  0  0  0
   44.9440   34.6950   45.4990 C   0  0  0  0  0  0  0  0  0  0  0  0
   44.7230   35.6300   44.4300 C   0  0  0  0  0  0  0  0  0  0  0  0
   45.5230   35.5500   43.2050 C   0  0  1  0  0  0  0  0  0  0  0  0
   46.5710   34.5420   43.1580 C   0  0  0  0  0  0  0  0  0  0  0  0
   46.1170   33.3090   43.9060 C   0  0  0  0  0  0  0  0  0  0  0  0
   46.9250   34.3470   45.6090 H   0  0  0  0  0  0  0  0  0  0  0  0
   44.2670   34.8460   46.3280 H   0  0  0  0  0  0  0  0  0  0  0  0
   43.9600   36.3530   44.5420 H   0  0  0  0  0  0  0  0  0  0  0  0
   45.9520   36.5530   43.0050 H   0  0  0  0  0  0  0  0  0  0  0  0
   47.5550   34.8840   43.5650 H   0  0  0  0  0  0  0  0  0  0  0  0
   46.7990   34.3240   42.0720 H   0  0  0  0  0  0  0  0  0  0  0  0
   46.9610   32.6530   43.5680 H   0  0  0  0  0  0  0  0  0  0  0  0
   45.1580   32.9720   43.4580 H   0  0  0  0  0  0  0  0  0  0  0  0
   44.5030   35.2870   42.0550 C   0  0  0  0  0  0  0  0  0  0  0  0
   43.4400   34.4930   42.4520 F   0  0  0  0  0  0  0  0  0  0  0  0
   43.9660   36.5280   41.7220 F   0  0  0  0  0  0  0  0  0  0  0  0
   45.1690   34.8230   40.9380 F   0  0  0  0  0  0  0  0  0  0  0  0
   46.8390   30.6060   44.9710 C   0  0  0  0  0  0  0  0  0  0  0  0
   46.5090   29.8190   43.9150 C   0  0  0  0  0  0  0  0  0  0  0  0
   47.6930   29.4480   43.2640 C   0  0  0  0  0  0  0  0  0  0  0  0
   48.6770   30.0260   43.9540 N   0  0  0  0  0  0  0  0  0  0  0  0
   48.2000   30.7130   44.9640 N   0  0  0  0  0  0  0  0  0  0  0  0
   45.4650   29.6170   43.7530 H   0  0  0  0  0  0  0  0  0  0  0  0
   47.6670   28.8240   42.3990 H   0  0  0  0  0  0  0  0  0  0  0  0
   50.0660   29.8820   43.5940 C   0  0  0  0  0  0  0  0  0  0  0  0
   50.5600   30.3960   42.4150 C   0  0  0  0  0  3  0  0  0  0  0  0
   51.8800   30.2810   42.0320 C   0  0  0  0  0  3  0  0  0  0  0  0
   52.7140   29.6320   42.8660 N   0  0  0  0  0  0  0  0  0  0  0  0
   52.2300   29.1250   44.0290 C   0  0  0  0  0  0  0  0  0  0  0  0
   52.9710   28.6310   44.6140 H   0  0  0  0  0  0  0  0  0  0  0  0
   50.9340   29.2380   44.4030 N   0  0  0  0  0  0  0  0  0  0  0  0
  1  8  1  0  0  0  0
  1  6  1  0  0  0  0
  2  1  2  0  0  0  0
  3  2  1  0  0  0  0
  3  4  2  0  0  0  0
  4  5  1  0  0  0  0
  5  6  2  0  0  0  0
  5  7  1  0  0  0  0
  7 10  1  0  0  0  0
  7  9  1  0  0  0  0
 11 12  1  0  0  0  0
 11 17  1  1  0  0  0
 11  2  1  0  0  0  0
 12 18  1  0  0  0  0
 13 19  1  0  0  0  0
 13 12  2  0  0  0  0
 14 20  1  6  0  0  0
 14 13  1  0  0  0  0
 15 14  1  0  0  0  0
 15 21  1  0  0  0  0
 15 16  1  0  0  0  0
 16 11  1  0  0  0  0
 22 15  1  0  0  0  0
 23 16  1  0  0  0  0
 24 16  1  0  0  0  0
 25 26  1  0  0  0  0
 25 14  1  0  0  0  0
 27 25  1  0  0  0  0
 28 25  1  0  0  0  0
 29  3  1  0  0  0  0
 30 29  1  0  0  0  0
 31 30  2  0  0  0  0
 31 32  1  0  0  0  0
 32 33  1  0  0  0  0
 33 29  2  0  0  0  0
 34 30  1  0  0  0  0
 35 31  1  0  0  0  0
 36 32  1  0  0  0  0
 36 42  1  0  0  0  0
 37 36  2  0  0  0  0
 38 37  1  0  0  0  0
 38 39  2  0  0  0  0
 39 40  1  0  0  0  0
 40 42  2  0  0  0  0
 40 41  1  0  0  0  0
M  END
>  <minimizedAffinity>
-5.81744003

>  <minimizedRMSD>
0.425434977

$$$$
