
 OpenBabel03232521003D

 42 45  0  0  1  0  0  0  0  0999 V2000
   45.3590   32.9200   47.5220 C   0  0  0  0  0  0  0  0  0  0  0  0
   45.9110   32.6570   46.3120 C   0  0  0  0  0  0  0  0  0  0  0  0
   46.1770   31.3070   46.0730 C   0  0  0  0  0  0  0  0  0  0  0  0
   45.9120   30.3180   46.9640 N   0  0  0  0  0  0  0  0  0  0  0  0
   45.3460   30.6360   48.1880 C   0  0  0  0  0  0  0  0  0  0  0  0
   45.0860   31.9180   48.4330 N   0  0  0  0  0  0  0  0  0  0  0  0
   45.0740   29.6320   49.1460 N   0  0  0  0  0  0  0  0  0  0  0  0
   45.1170   33.9300   47.8100 H   0  0  0  0  0  0  0  0  0  0  0  0
   46.0200   29.2510   49.4200 H   0  0  0  0  0  0  0  0  0  0  0  0
   44.1830   29.2890   49.5400 H   0  0  0  0  0  0  0  0  0  0  0  0
   46.1610   33.6020   45.2770 C   0  0  2  0  0  0  0  0  0  0  0  0
   44.9440   34.6930   45.4970 C   0  0  0  0  0  0  0  0  0  0  0  0
   44.7190   35.6220   44.4250 C   0  0  0  0  0  0  0  0  0  0  0  0
   45.5240   35.5460   43.2030 C   0  0  1  0  0  0  0  0  0  0  0  0
   46.5840   34.5460   43.1650 C   0  0  0  0  0  0  0  0  0  0  0  0
   46.1360   33.3120   43.9150 C   0  0  0  0  0  0  0  0  0  0  0  0
   46.9270   34.3620   45.6100 H   0  0  0  0  0  0  0  0  0  0  0  0
   44.2610   34.8410   46.3240 H   0  0  0  0  0  0  0  0  0  0  0  0
   43.9490   36.3410   44.5300 H   0  0  0  0  0  0  0  0  0  0  0  0
   45.9400   36.5610   42.9980 H   0  0  0  0  0  0  0  0  0  0  0  0
   47.4700   34.9310   43.7290 H   0  0  0  0  0  0  0  0  0  0  0  0
   46.8800   34.3530   42.1160 H   0  0  0  0  0  0  0  0  0  0  0  0
   46.9890   32.6610   43.5860 H   0  0  0  0  0  0  0  0  0  0  0  0
   45.2180   32.8700   43.4770 H   0  0  0  0  0  0  0  0  0  0  0  0
   44.5130   35.2700   42.0500 C   0  0  0  0  0  0  0  0  0  0  0  0
   43.4650   34.4550   42.4380 F   0  0  0  0  0  0  0  0  0  0  0  0
   43.9470   36.4990   41.7210 F   0  0  0  0  0  0  0  0  0  0  0  0
   45.1960   34.8240   40.9320 F   0  0  0  0  0  0  0  0  0  0  0  0
   46.8140   30.6070   44.9690 C   0  0  0  0  0  0  0  0  0  0  0  0
   46.4660   29.8380   43.9060 C   0  0  0  0  0  0  0  0  0  0  0  0
   47.6380   29.4450   43.2520 C   0  0  0  0  0  0  0  0  0  0  0  0
   48.6400   29.9920   43.9430 N   0  0  0  0  0  0  0  0  0  0  0  0
   48.1740   30.6820   44.9590 N   0  0  0  0  0  0  0  0  0  0  0  0
   45.4130   29.6630   43.7470 H   0  0  0  0  0  0  0  0  0  0  0  0
   47.5740   28.8140   42.3630 H   0  0  0  0  0  0  0  0  0  0  0  0
   50.0020   29.8030   43.5610 C   0  0  0  0  0  0  0  0  0  0  0  0
   50.4060   30.5640   42.4680 C   0  0  0  0  0  3  0  0  0  0  0  0
   51.6790   30.5300   41.9390 C   0  0  0  0  0  3  0  0  0  0  0  0
   52.6190   29.7000   42.5150 C   0  0  0  0  0  0  0  0  0  0  0  0
   53.6380   29.6140   42.1620 H   0  0  0  0  0  0  0  0  0  0  0  0
   52.1690   28.9650   43.5970 C   0  0  0  0  0  3  0  0  0  0  0  0
   50.9280   28.9960   44.1150 N   0  0  0  0  0  0  0  0  0  0  0  0
  1  8  1  0  0  0  0
  1  6  1  0  0  0  0
  2  1  2  0  0  0  0
  3  2  1  0  0  0  0
  3  4  2  0  0  0  0
  4  5  1  0  0  0  0
  5  6  2  0  0  0  0
  5  7  1  0  0  0  0
  7  9  1  0  0  0  0
  7 10  1  0  0  0  0
 11 12  1  0  0  0  0
 11 17  1  1  0  0  0
 11  2  1  0  0  0  0
 12 18  1  0  0  0  0
 13 19  1  0  0  0  0
 13 12  2  0  0  0  0
 14 20  1  6  0  0  0
 14 13  1  0  0  0  0
 15 14  1  0  0  0  0
 15 21  1  0  0  0  0
 15 16  1  0  0  0  0
 16 11  1  0  0  0  0
 22 15  1  0  0  0  0
 23 16  1  0  0  0  0
 24 16  1  0  0  0  0
 25 26  1  0  0  0  0
 25 14  1  0  0  0  0
 27 25  1  0  0  0  0
 28 25  1  0  0  0  0
 29  3  1  0  0  0  0
 30 29  1  0  0  0  0
 31 30  2  0  0  0  0
 31 32  1  0  0  0  0
 32 33  1  0  0  0  0
 33 29  2  0  0  0  0
 34 30  1  0  0  0  0
 35 31  1  0  0  0  0
 36 32  1  0  0  0  0
 36 42  1  0  0  0  0
 37 36  2  0  0  0  0
 38 37  1  0  0  0  0
 38 39  2  0  0  0  0
 39 41  1  0  0  0  0
 40 39  1  0  0  0  0
 41 42  2  0  0  0  0
M  END
>  <minimizedAffinity>
-5.85078764

>  <minimizedRMSD>
0.17636469

$$$$
