
 OpenBabel03232519193D

 27 28  0  0  1  0  0  0  0  0999 V2000
   45.0650   31.0500   46.9040 N   0  0  0  0  0  0  0  0  0  0  0  0
   45.0170   29.6310   47.2530 C   0  0  0  0  0  0  0  0  0  0  0  0
   46.4790   29.3120   47.4460 C   0  0  0  0  0  0  0  0  0  0  0  0
   47.0430   30.4990   48.1570 C   0  0  0  0  0  0  0  0  0  0  0  0
   46.1270   31.6240   47.6100 C   0  0  2  0  0  0  0  0  0  0  0  0
   44.1290   31.5060   47.0720 H   0  0  0  0  0  0  0  0  0  0  0  0
   44.6710   29.1010   46.3540 H   0  0  0  0  0  0  0  0  0  0  0  0
   44.3970   29.4460   48.1480 H   0  0  0  0  0  0  0  0  0  0  0  0
   46.6340   28.3610   47.9950 H   0  0  0  0  0  0  0  0  0  0  0  0
   46.9470   29.2340   46.4420 H   0  0  0  0  0  0  0  0  0  0  0  0
   48.0970   30.7060   47.9320 H   0  0  0  0  0  0  0  0  0  0  0  0
   46.8840   30.3260   49.2340 H   0  0  0  0  0  0  0  0  0  0  0  0
   45.7940   32.2940   48.9370 C   0  0  0  0  0  0  0  0  0  0  0  0
   46.0930   33.3150   48.9350 H   0  0  0  0  0  0  0  0  0  0  0  0
   45.2510   31.5060   49.7180 O   0  0  0  0  0  0  0  0  0  0  0  0
   46.7520   32.6150   46.8880 O   0  0  0  0  0  0  0  0  0  0  0  0
   46.7260   32.6830   45.4540 C   0  0  0  0  0  0  0  0  0  0  0  0
   47.2150   31.7480   44.7940 O   0  0  0  0  0  0  0  0  0  0  0  0
   44.5490   35.5640   44.9500 C   0  0  0  0  0  0  0  0  0  0  0  0
   44.8810   36.0160   43.6830 C   0  0  0  0  0  0  0  0  0  0  0  0
   45.8830   35.3420   42.9840 C   0  0  0  0  0  0  0  0  0  0  0  0
   46.4740   34.2690   43.6060 N   0  0  0  0  0  0  0  0  0  0  0  0
   46.1000   33.8710   44.8610 C   0  0  0  0  0  0  0  0  0  0  0  0
   45.1500   34.5130   45.5200 N   0  0  0  0  0  0  0  0  0  0  0  0
   43.7680   36.0810   45.5090 H   0  0  0  0  0  0  0  0  0  0  0  0
   44.3830   36.8640   43.2440 H   0  0  0  0  0  0  0  0  0  0  0  0
   46.1900   35.6410   41.9970 H   0  0  0  0  0  0  0  0  0  0  0  0
  1  6  1  0  0  0  0
  1  2  1  0  0  0  0
  1  5  1  0  0  0  0
  2  3  1  0  0  0  0
  2  8  1  0  0  0  0
  3  9  1  0  0  0  0
  3  4  1  0  0  0  0
  4 12  1  0  0  0  0
  5 16  1  6  0  0  0
  5  4  1  0  0  0  0
  5 13  1  0  0  0  0
  7  2  1  0  0  0  0
 10  3  1  0  0  0  0
 11  4  1  0  0  0  0
 13 15  2  0  0  0  0
 14 13  1  0  0  0  0
 17 16  1  0  0  0  0
 18 17  2  0  0  0  0
 19 25  1  0  0  0  0
 19 24  1  0  0  0  0
 20 19  2  0  0  0  0
 21 22  2  0  0  0  0
 21 20  1  0  0  0  0
 22 23  1  0  0  0  0
 23 17  1  0  0  0  0
 23 24  2  0  0  0  0
 26 20  1  0  0  0  0
 27 21  1  0  0  0  0
M  END
>  <minimizedAffinity>
-4.71785688

>  <minimizedRMSD>
1.54486454

$$$$
