
 OpenBabel03232520593D

 42 45  0  0  1  0  0  0  0  0999 V2000
   45.4040   32.9410   47.5140 C   0  0  0  0  0  0  0  0  0  0  0  0
   45.9050   32.6680   46.2850 C   0  0  0  0  0  0  0  0  0  0  0  0
   46.1220   31.3110   46.0320 C   0  0  0  0  0  0  0  0  0  0  0  0
   45.8580   30.3260   46.9280 N   0  0  0  0  0  0  0  0  0  0  0  0
   45.3460   30.6550   48.1720 C   0  0  0  0  0  0  0  0  0  0  0  0
   45.1330   31.9430   48.4310 N   0  0  0  0  0  0  0  0  0  0  0  0
   45.0770   29.6550   49.1350 N   0  0  0  0  0  0  0  0  0  0  0  0
   45.2020   33.9570   47.8150 H   0  0  0  0  0  0  0  0  0  0  0  0
   46.0200   29.2450   49.3750 H   0  0  0  0  0  0  0  0  0  0  0  0
   44.1900   29.3370   49.5590 H   0  0  0  0  0  0  0  0  0  0  0  0
   46.1470   33.6100   45.2450 C   0  0  2  0  0  0  0  0  0  0  0  0
   44.9400   34.7080   45.4800 C   0  0  0  0  0  0  0  0  0  0  0  0
   44.7070   35.6370   44.4090 C   0  0  0  0  0  0  0  0  0  0  0  0
   45.4950   35.5540   43.1770 C   0  0  1  0  0  0  0  0  0  0  0  0
   46.5480   34.5480   43.1270 C   0  0  0  0  0  0  0  0  0  0  0  0
   46.1030   33.3180   43.8840 C   0  0  0  0  0  0  0  0  0  0  0  0
   46.9220   34.3660   45.5670 H   0  0  0  0  0  0  0  0  0  0  0  0
   44.2690   34.8610   46.3150 H   0  0  0  0  0  0  0  0  0  0  0  0
   43.9420   36.3600   44.5240 H   0  0  0  0  0  0  0  0  0  0  0  0
   45.9140   36.5660   42.9660 H   0  0  0  0  0  0  0  0  0  0  0  0
   47.4440   34.9290   43.6790 H   0  0  0  0  0  0  0  0  0  0  0  0
   46.8300   34.3520   42.0740 H   0  0  0  0  0  0  0  0  0  0  0  0
   46.9480   32.6620   43.5450 H   0  0  0  0  0  0  0  0  0  0  0  0
   45.1760   32.8810   43.4590 H   0  0  0  0  0  0  0  0  0  0  0  0
   44.4680   35.2830   42.0380 C   0  0  0  0  0  0  0  0  0  0  0  0
   43.4190   34.4760   42.4410 F   0  0  0  0  0  0  0  0  0  0  0  0
   43.9060   36.5150   41.7130 F   0  0  0  0  0  0  0  0  0  0  0  0
   45.1330   34.8300   40.9130 F   0  0  0  0  0  0  0  0  0  0  0  0
   46.6990   30.5980   44.9040 C   0  0  0  0  0  0  0  0  0  0  0  0
   46.2990   29.7900   43.8890 C   0  0  0  0  0  0  0  0  0  0  0  0
   47.4320   29.4110   43.1630 C   0  0  0  0  0  0  0  0  0  0  0  0
   48.4640   30.0040   43.7650 N   0  0  0  0  0  0  0  0  0  0  0  0
   48.0520   30.7090   44.7940 N   0  0  0  0  0  0  0  0  0  0  0  0
   45.2430   29.5820   43.8100 H   0  0  0  0  0  0  0  0  0  0  0  0
   47.3230   28.7530   42.2980 H   0  0  0  0  0  0  0  0  0  0  0  0
   49.8000   29.8410   43.2920 C   0  0  0  0  0  0  0  0  0  0  0  0
   50.2690   30.8960   42.5130 C   0  0  0  0  0  3  0  0  0  0  0  0
   51.5320   30.9360   41.9580 C   0  0  0  0  0  3  0  0  0  0  0  0
   52.3910   29.8790   42.1780 C   0  0  0  0  0  0  0  0  0  0  0  0
   53.3960   29.8320   41.7790 H   0  0  0  0  0  0  0  0  0  0  0  0
   51.8790   28.8570   42.9560 C   0  0  0  0  0  3  0  0  0  0  0  0
   50.6480   28.8150   43.4990 N   0  0  0  0  0  0  0  0  0  0  0  0
  1  8  1  0  0  0  0
  1  6  1  0  0  0  0
  2  1  2  0  0  0  0
  3  2  1  0  0  0  0
  3  4  2  0  0  0  0
  4  5  1  0  0  0  0
  5  6  2  0  0  0  0
  5  7  1  0  0  0  0
  7  9  1  0  0  0  0
  7 10  1  0  0  0  0
 11 12  1  0  0  0  0
 11 17  1  1  0  0  0
 11  2  1  0  0  0  0
 12 18  1  0  0  0  0
 13 19  1  0  0  0  0
 13 12  2  0  0  0  0
 14 20  1  6  0  0  0
 14 13  1  0  0  0  0
 15 14  1  0  0  0  0
 15 21  1  0  0  0  0
 15 16  1  0  0  0  0
 16 11  1  0  0  0  0
 22 15  1  0  0  0  0
 23 16  1  0  0  0  0
 24 16  1  0  0  0  0
 25 26  1  0  0  0  0
 25 14  1  0  0  0  0
 27 25  1  0  0  0  0
 28 25  1  0  0  0  0
 29  3  1  0  0  0  0
 30 29  1  0  0  0  0
 31 32  1  0  0  0  0
 31 30  2  0  0  0  0
 32 33  1  0  0  0  0
 33 29  2  0  0  0  0
 34 30  1  0  0  0  0
 35 31  1  0  0  0  0
 36 42  1  0  0  0  0
 36 32  1  0  0  0  0
 37 36  2  0  0  0  0
 38 39  2  0  0  0  0
 38 37  1  0  0  0  0
 39 41  1  0  0  0  0
 40 39  1  0  0  0  0
 41 42  2  0  0  0  0
M  END
>  <minimizedAffinity>
-5.87991238

>  <minimizedRMSD>
0.387339056

$$$$
