
 OpenBabel03232520183D

 35 37  0  0  0  0  0  0  0  0999 V2000
   47.5560   34.1740   42.1670 C   0  0  0  0  0  0  0  0  0  0  0  0
   48.4790   35.3080   41.7730 C   0  0  0  0  0  0  0  0  0  0  0  0
   49.8130   35.3020   42.4060 C   0  0  0  0  0  0  0  0  0  0  0  0
   50.4740   33.9600   42.4780 C   0  0  0  0  0  0  0  0  0  0  0  0
   49.5860   32.8210   42.0740 C   0  0  0  0  0  0  0  0  0  0  0  0
   48.2540   33.0050   42.7980 C   0  0  0  0  0  0  0  0  0  0  0  0
   48.5990   35.3520   40.6700 H   0  0  0  0  0  0  0  0  0  0  0  0
   47.9600   36.2610   42.0400 H   0  0  0  0  0  0  0  0  0  0  0  0
   49.7590   35.8230   43.3850 H   0  0  0  0  0  0  0  0  0  0  0  0
   50.4780   35.9440   41.7710 H   0  0  0  0  0  0  0  0  0  0  0  0
   50.7260   33.7750   43.5600 H   0  0  0  0  0  0  0  0  0  0  0  0
   51.4550   33.9140   41.9570 H   0  0  0  0  0  0  0  0  0  0  0  0
   50.0630   31.8810   42.4420 H   0  0  0  0  0  0  0  0  0  0  0  0
   49.4630   32.7170   40.9900 H   0  0  0  0  0  0  0  0  0  0  0  0
   47.6360   32.0990   42.6670 H   0  0  0  0  0  0  0  0  0  0  0  0
   48.5140   33.1540   43.8700 H   0  0  0  0  0  0  0  0  0  0  0  0
   45.2800   34.4140   45.0760 C   0  0  0  0  0  0  0  0  0  0  0  0
   44.5620   35.5950   44.8070 C   0  0  0  0  0  0  0  0  0  0  0  0
   44.8660   36.2850   43.6490 C   0  0  0  0  0  0  0  0  0  0  0  0
   45.8360   35.7870   42.8400 N   0  0  0  0  0  0  0  0  0  0  0  0
   46.5190   34.6450   43.1150 C   0  0  0  0  0  0  0  0  0  0  0  0
   46.2200   33.9680   44.2530 N   0  0  0  0  0  0  0  0  0  0  0  0
   45.0850   33.8350   45.9660 H   0  0  0  0  0  0  0  0  0  0  0  0
   43.8110   35.9500   45.4680 H   0  0  0  0  0  0  0  0  0  0  0  0
   44.3680   37.1950   43.3670 H   0  0  0  0  0  0  0  0  0  0  0  0
   46.8990   33.6590   40.9140 C   0  0  0  0  0  0  0  0  0  0  0  0
   45.7650   32.9590   40.5700 C   0  0  0  0  0  0  0  0  0  0  0  0
   45.5420   32.6940   39.2760 C   0  0  0  0  0  0  0  0  0  0  0  0
   46.3990   33.0970   38.3190 C   0  0  0  0  0  0  0  0  0  0  0  0
   47.6980   33.9610   39.3180 S   0  0  0  0  0  0  0  0  0  0  0  0
   45.1420   32.6810   41.4080 H   0  0  0  0  0  0  0  0  0  0  0  0
   44.6690   32.1470   38.9380 H   0  0  0  0  0  0  0  0  0  0  0  0
   46.4950   33.0030   36.8670 C   0  0  0  0  0  0  0  0  0  0  0  0
   47.5130   32.9420   36.5730 H   0  0  0  0  0  0  0  0  0  0  0  0
   45.4540   33.0050   36.1970 O   0  0  0  0  0  0  0  0  0  0  0  0
  1  6  1  0  0  0  0
  1 21  1  0  0  0  0
  2  8  1  0  0  0  0
  2  1  1  0  0  0  0
  2  3  1  0  0  0  0
  3  4  1  0  0  0  0
  3  9  1  0  0  0  0
  4 11  1  0  0  0  0
  5 13  1  0  0  0  0
  5  4  1  0  0  0  0
  5  6  1  0  0  0  0
  6 16  1  0  0  0  0
  7  2  1  0  0  0  0
 10  3  1  0  0  0  0
 12  4  1  0  0  0  0
 14  5  1  0  0  0  0
 15  6  1  0  0  0  0
 17 23  1  0  0  0  0
 18 17  1  0  0  0  0
 18 24  1  0  0  0  0
 19 18  2  0  0  0  0
 20 21  2  0  0  0  0
 20 19  1  0  0  0  0
 21 22  1  0  0  0  0
 22 17  2  0  0  0  0
 25 19  1  0  0  0  0
 26  1  1  0  0  0  0
 27 26  2  0  0  0  0
 27 31  1  0  0  0  0
 28 27  1  0  0  0  0
 29 28  2  0  0  0  0
 29 30  1  0  0  0  0
 30 26  1  0  0  0  0
 32 28  1  0  0  0  0
 33 29  1  0  0  0  0
 34 33  1  0  0  0  0
 35 33  2  0  0  0  0
M  END
>  <minimizedAffinity>
-5.50013399

>  <minimizedRMSD>
0.152839765

$$$$
