
 OpenBabel03232521003D

 42 45  0  0  1  0  0  0  0  0999 V2000
   45.3690   32.9260   47.5200 C   0  0  0  0  0  0  0  0  0  0  0  0
   45.9060   32.6560   46.3050 C   0  0  0  0  0  0  0  0  0  0  0  0
   46.1540   31.3020   46.0640 C   0  0  0  0  0  0  0  0  0  0  0  0
   45.8880   30.3170   46.9590 N   0  0  0  0  0  0  0  0  0  0  0  0
   45.3390   30.6420   48.1890 C   0  0  0  0  0  0  0  0  0  0  0  0
   45.0960   31.9270   48.4350 N   0  0  0  0  0  0  0  0  0  0  0  0
   45.0660   29.6420   49.1500 N   0  0  0  0  0  0  0  0  0  0  0  0
   45.1410   33.9390   47.8100 H   0  0  0  0  0  0  0  0  0  0  0  0
   46.0110   29.2510   49.4150 H   0  0  0  0  0  0  0  0  0  0  0  0
   44.1750   29.3100   49.5550 H   0  0  0  0  0  0  0  0  0  0  0  0
   46.1550   33.5970   45.2660 C   0  0  2  0  0  0  0  0  0  0  0  0
   44.9480   34.6980   45.4940 C   0  0  0  0  0  0  0  0  0  0  0  0
   44.7220   35.6270   44.4220 C   0  0  0  0  0  0  0  0  0  0  0  0
   45.5170   35.5420   43.1940 C   0  0  1  0  0  0  0  0  0  0  0  0
   46.5690   34.5340   43.1500 C   0  0  0  0  0  0  0  0  0  0  0  0
   46.1170   33.3050   43.9050 C   0  0  0  0  0  0  0  0  0  0  0  0
   46.9300   34.3520   45.5920 H   0  0  0  0  0  0  0  0  0  0  0  0
   44.2730   34.8520   46.3250 H   0  0  0  0  0  0  0  0  0  0  0  0
   43.9580   36.3510   44.5320 H   0  0  0  0  0  0  0  0  0  0  0  0
   45.9390   36.5530   42.9840 H   0  0  0  0  0  0  0  0  0  0  0  0
   47.4620   34.9130   43.7060 H   0  0  0  0  0  0  0  0  0  0  0  0
   46.8550   34.3370   42.0980 H   0  0  0  0  0  0  0  0  0  0  0  0
   46.9630   32.6470   43.5700 H   0  0  0  0  0  0  0  0  0  0  0  0
   45.1920   32.8690   43.4750 H   0  0  0  0  0  0  0  0  0  0  0  0
   44.4950   35.2720   42.0490 C   0  0  0  0  0  0  0  0  0  0  0  0
   43.4420   34.4680   42.4480 F   0  0  0  0  0  0  0  0  0  0  0  0
   43.9390   36.5050   41.7200 F   0  0  0  0  0  0  0  0  0  0  0  0
   45.1650   34.8160   40.9280 F   0  0  0  0  0  0  0  0  0  0  0  0
   46.7720   30.5950   44.9540 C   0  0  0  0  0  0  0  0  0  0  0  0
   46.4060   29.8100   43.9090 C   0  0  0  0  0  0  0  0  0  0  0  0
   47.5660   29.4190   43.2330 C   0  0  0  0  0  0  0  0  0  0  0  0
   48.5790   29.9830   43.8930 N   0  0  0  0  0  0  0  0  0  0  0  0
   48.1310   30.6810   44.9110 N   0  0  0  0  0  0  0  0  0  0  0  0
   45.3520   29.6240   43.7760 H   0  0  0  0  0  0  0  0  0  0  0  0
   47.4870   28.7770   42.3530 H   0  0  0  0  0  0  0  0  0  0  0  0
   49.9330   29.8000   43.4820 C   0  0  0  0  0  0  0  0  0  0  0  0
   50.3520   30.6670   42.4750 C   0  0  0  0  0  3  0  0  0  0  0  0
   51.6210   30.6560   41.9360 C   0  0  0  0  0  3  0  0  0  0  0  0
   52.5410   29.7430   42.4100 C   0  0  0  0  0  0  0  0  0  0  0  0
   53.5560   29.6700   42.0420 H   0  0  0  0  0  0  0  0  0  0  0  0
   52.0770   28.9060   43.4080 C   0  0  0  0  0  3  0  0  0  0  0  0
   50.8400   28.9140   43.9360 N   0  0  0  0  0  0  0  0  0  0  0  0
  1  8  1  0  0  0  0
  1  6  1  0  0  0  0
  2  1  2  0  0  0  0
  3  2  1  0  0  0  0
  3  4  2  0  0  0  0
  4  5  1  0  0  0  0
  5  6  2  0  0  0  0
  5  7  1  0  0  0  0
  7  9  1  0  0  0  0
  7 10  1  0  0  0  0
 11 12  1  0  0  0  0
 11 17  1  1  0  0  0
 11  2  1  0  0  0  0
 12 18  1  0  0  0  0
 13 19  1  0  0  0  0
 13 12  2  0  0  0  0
 14 20  1  6  0  0  0
 14 13  1  0  0  0  0
 15 14  1  0  0  0  0
 15 21  1  0  0  0  0
 15 16  1  0  0  0  0
 16 11  1  0  0  0  0
 22 15  1  0  0  0  0
 23 16  1  0  0  0  0
 24 16  1  0  0  0  0
 25 26  1  0  0  0  0
 25 14  1  0  0  0  0
 27 25  1  0  0  0  0
 28 25  1  0  0  0  0
 29  3  1  0  0  0  0
 30 29  1  0  0  0  0
 31 32  1  0  0  0  0
 31 30  2  0  0  0  0
 32 33  1  0  0  0  0
 33 29  2  0  0  0  0
 34 30  1  0  0  0  0
 35 31  1  0  0  0  0
 36 32  1  0  0  0  0
 36 42  1  0  0  0  0
 37 36  2  0  0  0  0
 38 39  2  0  0  0  0
 38 37  1  0  0  0  0
 39 41  1  0  0  0  0
 40 39  1  0  0  0  0
 41 42  2  0  0  0  0
M  END
>  <minimizedAffinity>
-5.85795164

>  <minimizedRMSD>
0.604391873

$$$$
