
 OpenBabel03232519423D

 41 43  0  0  0  0  0  0  0  0999 V2000
   46.5320   34.4450   41.9630 N   0  0  0  0  0  0  0  0  0  0  0  0
   47.6790   35.2030   41.8540 C   0  0  0  0  0  0  0  0  0  0  0  0
   48.4240   35.2090   40.7050 C   0  0  0  0  0  0  0  0  0  0  0  0
   47.9790   34.4170   39.6430 C   0  0  0  0  0  0  0  0  0  0  0  0
   48.6340   34.4080   38.5860 O   0  0  0  0  0  0  0  0  0  0  0  0
   46.8540   33.6990   39.8120 N   0  0  0  0  0  0  0  0  0  0  0  0
   46.1460   33.7150   40.9480 C   0  0  0  0  0  0  0  0  0  0  0  0
   45.1250   33.0990   41.1590 O   0  0  0  0  0  0  0  0  0  0  0  0
   48.0800   35.8370   42.6350 H   0  0  0  0  0  0  0  0  0  0  0  0
   49.3270   35.7850   40.5720 H   0  0  0  0  0  0  0  0  0  0  0  0
   46.3670   32.8740   38.7760 C   0  0  0  0  0  0  0  0  0  0  0  0
   45.4490   33.2760   37.8350 C   0  0  0  0  0  0  0  0  0  0  0  0
   45.0150   32.4190   36.8540 C   0  0  0  0  0  0  0  0  0  0  0  0
   45.4940   31.1280   36.7900 C   0  0  0  0  0  0  0  0  0  0  0  0
   46.4010   30.7480   37.7270 C   0  0  0  0  0  0  0  0  0  0  0  0
   46.8820   31.5780   38.7530 C   0  0  0  0  0  0  0  0  0  0  0  0
   45.0680   34.2960   37.8820 H   0  0  0  0  0  0  0  0  0  0  0  0
   44.2890   32.7130   36.0980 H   0  0  0  0  0  0  0  0  0  0  0  0
   45.1510   30.4540   36.0150 H   0  0  0  0  0  0  0  0  0  0  0  0
   46.7580   29.7110   37.6410 H   0  0  0  0  0  0  0  0  0  0  0  0
   47.8770   31.0640   39.7330 C   0  0  0  0  0  0  0  0  0  0  0  0
   48.0200   29.9790   39.4250 H   0  0  0  0  0  0  0  0  0  0  0  0
   49.2030   31.7360   39.7010 C   0  0  0  0  0  0  0  0  0  0  0  0
   49.9120   30.8470   39.9650 H   0  0  0  0  0  0  0  0  0  0  0  0
   49.6520   31.9350   38.7390 H   0  0  0  0  0  0  0  0  0  0  0  0
   49.5150   32.3110   40.5870 H   0  0  0  0  0  0  0  0  0  0  0  0
   47.3960   31.0860   41.1480 C   0  0  0  0  0  0  0  0  0  0  0  0
   47.9020   30.1410   41.5980 H   0  0  0  0  0  0  0  0  0  0  0  0
   46.3820   30.7950   41.3410 H   0  0  0  0  0  0  0  0  0  0  0  0
   47.9170   31.7810   41.8300 H   0  0  0  0  0  0  0  0  0  0  0  0
   44.5250   35.8590   44.7370 C   0  0  0  0  0  0  0  0  0  0  0  0
   45.1080   35.7010   43.4490 C   0  0  0  0  0  0  0  0  0  0  0  0
   45.9420   34.6110   43.2590 C   0  0  0  0  0  0  0  0  0  0  0  0
   46.1720   33.7460   44.2920 N   0  0  0  0  0  0  0  0  0  0  0  0
   45.5940   33.9400   45.4990 C   0  0  0  0  0  0  0  0  0  0  0  0
   44.7830   34.9780   45.7250 N   0  0  0  0  0  0  0  0  0  0  0  0
   43.8620   36.7140   44.9110 H   0  0  0  0  0  0  0  0  0  0  0  0
   44.8760   36.4220   42.7040 H   0  0  0  0  0  0  0  0  0  0  0  0
   45.8670   32.9890   46.5750 C   0  0  0  0  0  0  0  0  0  0  0  0
   46.6790   32.2900   46.5100 H   0  0  0  0  0  0  0  0  0  0  0  0
   45.0750   33.0610   47.5750 O   0  0  0  0  0  0  0  0  0  0  0  0
  1 33  1  0  0  0  0
  2  1  1  0  0  0  0
  2  9  1  0  0  0  0
  3  2  2  0  0  0  0
  4  6  1  0  0  0  0
  4  3  1  0  0  0  0
  5  4  2  0  0  0  0
  6  7  1  0  0  0  0
  7  8  2  0  0  0  0
  7  1  1  0  0  0  0
 10  3  1  0  0  0  0
 11  6  1  0  0  0  0
 12 17  1  0  0  0  0
 12 11  2  0  0  0  0
 13 12  1  0  0  0  0
 14 13  2  0  0  0  0
 14 15  1  0  0  0  0
 15 16  2  0  0  0  0
 16 11  1  0  0  0  0
 16 21  1  0  0  0  0
 18 13  1  0  0  0  0
 19 14  1  0  0  0  0
 20 15  1  0  0  0  0
 21 27  1  0  0  0  0
 22 21  1  0  0  0  0
 23 21  1  0  0  0  0
 23 24  1  0  0  0  0
 23 26  1  0  0  0  0
 25 23  1  0  0  0  0
 27 29  1  0  0  0  0
 27 28  1  0  0  0  0
 27 30  1  0  0  0  0
 31 37  1  0  0  0  0
 31 36  1  0  0  0  0
 32 31  2  0  0  0  0
 33 32  1  0  0  0  0
 33 34  2  0  0  0  0
 34 35  1  0  0  0  0
 35 36  2  0  0  0  0
 35 39  1  0  0  0  0
 38 32  1  0  0  0  0
 39 41  2  0  0  0  0
 40 39  1  0  0  0  0
M  END
>  <minimizedAffinity>
-5.54065895

>  <minimizedRMSD>
0.09373229

$$$$
