
 OpenBabel03232518143D

 25 26  0  0  1  0  0  0  0  0999 V2000
   43.7120   35.0900   41.3540 C   0  0  2  0  0  0  0  0  0  0  0  0
   42.1650   35.1900   41.3430 C   0  0  0  0  0  0  0  0  0  0  0  0
   42.0100   35.4740   39.8350 C   0  0  1  0  0  0  0  0  0  0  0  0
   42.8760   34.3650   39.2680 C   0  0  0  0  0  0  0  0  0  0  0  0
   43.9240   34.0620   40.3360 C   0  0  0  0  0  0  0  0  0  0  0  0
   44.0320   36.0930   41.0210 H   0  0  0  0  0  0  0  0  0  0  0  0
   41.6990   34.2460   41.6390 H   0  0  0  0  0  0  0  0  0  0  0  0
   41.8450   36.0870   41.8730 H   0  0  0  0  0  0  0  0  0  0  0  0
   42.4870   36.4310   39.6260 H   0  0  0  0  0  0  0  0  0  0  0  0
   42.2330   33.5050   39.0510 H   0  0  0  0  0  0  0  0  0  0  0  0
   43.4370   34.6890   38.3700 H   0  0  0  0  0  0  0  0  0  0  0  0
   44.9420   33.9540   39.9180 H   0  0  0  0  0  0  0  0  0  0  0  0
   43.6400   33.0650   40.7700 H   0  0  0  0  0  0  0  0  0  0  0  0
   44.1700   35.8700   43.6320 C   0  0  0  0  0  0  0  0  0  0  0  0
   44.2520   34.8200   42.6890 C   0  0  0  0  0  0  0  0  0  0  0  0
   44.8600   33.5820   43.0570 C   0  0  0  0  0  0  0  0  0  0  0  0
   45.3420   33.4740   44.3230 N   0  0  0  0  0  0  0  0  0  0  0  0
   45.2500   34.5030   45.2110 C   0  0  0  0  0  0  0  0  0  0  0  0
   44.6720   35.6900   44.8770 N   0  0  0  0  0  0  0  0  0  0  0  0
   43.7230   36.8010   43.3880 H   0  0  0  0  0  0  0  0  0  0  0  0
   44.9040   32.8040   42.3090 H   0  0  0  0  0  0  0  0  0  0  0  0
   45.6620   34.3130   46.1890 H   0  0  0  0  0  0  0  0  0  0  0  0
   40.5950   35.3770   39.4160 C   0  0  0  0  0  0  0  0  0  0  0  0
   40.3910   35.0800   38.4070 H   0  0  0  0  0  0  0  0  0  0  0  0
   39.7300   35.6370   40.2340 O   0  0  0  0  0  0  0  0  0  0  0  0
  1  6  1  6  0  0  0
  1 15  1  0  0  0  0
  2  1  1  0  0  0  0
  2  7  1  0  0  0  0
  2  8  1  0  0  0  0
  3  9  1  6  0  0  0
  3  2  1  0  0  0  0
  4  3  1  0  0  0  0
  4  5  1  0  0  0  0
  5 13  1  0  0  0  0
  5  1  1  0  0  0  0
 10  4  1  0  0  0  0
 11  4  1  0  0  0  0
 12  5  1  0  0  0  0
 14 19  1  0  0  0  0
 15 16  1  0  0  0  0
 15 14  2  0  0  0  0
 16 17  2  0  0  0  0
 17 18  1  0  0  0  0
 18 22  1  0  0  0  0
 19 18  2  0  0  0  0
 20 14  1  0  0  0  0
 21 16  1  0  0  0  0
 23  3  1  0  0  0  0
 23 25  2  0  0  0  0
 24 23  1  0  0  0  0
M  END
>  <minimizedAffinity>
-4.01643944

>  <minimizedRMSD>
0.479887098

$$$$
