
 OpenBabel03232520593D

 42 45  0  0  1  0  0  0  0  0999 V2000
   45.3490   32.8850   47.4980 C   0  0  0  0  0  0  0  0  0  0  0  0
   45.9130   32.6340   46.2910 C   0  0  0  0  0  0  0  0  0  0  0  0
   46.1950   31.2880   46.0480 C   0  0  0  0  0  0  0  0  0  0  0  0
   45.9330   30.2910   46.9310 N   0  0  0  0  0  0  0  0  0  0  0  0
   45.3550   30.5960   48.1520 C   0  0  0  0  0  0  0  0  0  0  0  0
   45.0790   31.8740   48.4020 N   0  0  0  0  0  0  0  0  0  0  0  0
   45.0850   29.5840   49.1020 N   0  0  0  0  0  0  0  0  0  0  0  0
   45.0940   33.8900   47.7900 H   0  0  0  0  0  0  0  0  0  0  0  0
   46.0320   29.2120   49.3820 H   0  0  0  0  0  0  0  0  0  0  0  0
   44.1940   29.2310   49.4870 H   0  0  0  0  0  0  0  0  0  0  0  0
   46.1620   33.5870   45.2630 C   0  0  2  0  0  0  0  0  0  0  0  0
   44.9500   34.6800   45.4990 C   0  0  0  0  0  0  0  0  0  0  0  0
   44.7230   35.6190   44.4360 C   0  0  0  0  0  0  0  0  0  0  0  0
   45.5220   35.5510   43.2100 C   0  0  1  0  0  0  0  0  0  0  0  0
   46.5790   34.5480   43.1590 C   0  0  0  0  0  0  0  0  0  0  0  0
   46.1300   33.3090   43.8990 C   0  0  0  0  0  0  0  0  0  0  0  0
   46.9320   34.3410   45.6000 H   0  0  0  0  0  0  0  0  0  0  0  0
   44.2710   34.8230   46.3300 H   0  0  0  0  0  0  0  0  0  0  0  0
   43.9560   36.3400   44.5510 H   0  0  0  0  0  0  0  0  0  0  0  0
   45.9410   36.5660   43.0120 H   0  0  0  0  0  0  0  0  0  0  0  0
   47.4690   34.9250   43.7220 H   0  0  0  0  0  0  0  0  0  0  0  0
   46.8700   34.3630   42.1060 H   0  0  0  0  0  0  0  0  0  0  0  0
   46.9800   32.6580   43.5610 H   0  0  0  0  0  0  0  0  0  0  0  0
   45.2080   32.8740   43.4620 H   0  0  0  0  0  0  0  0  0  0  0  0
   44.5050   35.2890   42.0580 C   0  0  0  0  0  0  0  0  0  0  0  0
   43.4440   34.4930   42.4510 F   0  0  0  0  0  0  0  0  0  0  0  0
   43.9610   36.5260   41.7260 F   0  0  0  0  0  0  0  0  0  0  0  0
   45.1790   34.8260   40.9420 F   0  0  0  0  0  0  0  0  0  0  0  0
   46.8490   30.6010   44.9450 C   0  0  0  0  0  0  0  0  0  0  0  0
   46.5200   29.8070   43.8930 C   0  0  0  0  0  0  0  0  0  0  0  0
   47.7010   29.4520   43.2330 C   0  0  0  0  0  0  0  0  0  0  0  0
   48.6870   30.0440   43.9080 N   0  0  0  0  0  0  0  0  0  0  0  0
   48.2040   30.7270   44.9210 N   0  0  0  0  0  0  0  0  0  0  0  0
   45.4740   29.5910   43.7460 H   0  0  0  0  0  0  0  0  0  0  0  0
   47.6520   28.8090   42.3510 H   0  0  0  0  0  0  0  0  0  0  0  0
   50.0520   29.9020   43.5150 C   0  0  0  0  0  0  0  0  0  0  0  0
   50.8660   29.2970   44.4680 C   0  0  0  0  0  3  0  0  0  0  0  0
   52.2140   29.0650   44.2870 C   0  0  0  0  0  3  0  0  0  0  0  0
   52.8050   29.4500   43.1010 C   0  0  0  0  0  0  0  0  0  0  0  0
   53.8540   29.3060   42.8800 H   0  0  0  0  0  0  0  0  0  0  0  0
   51.9540   30.0480   42.1880 C   0  0  0  0  0  3  0  0  0  0  0  0
   50.6390   30.2740   42.3620 N   0  0  0  0  0  0  0  0  0  0  0  0
  1  8  1  0  0  0  0
  1  6  1  0  0  0  0
  2  1  2  0  0  0  0
  3  2  1  0  0  0  0
  3  4  2  0  0  0  0
  4  5  1  0  0  0  0
  5  6  2  0  0  0  0
  5  7  1  0  0  0  0
  7  9  1  0  0  0  0
  7 10  1  0  0  0  0
 11 12  1  0  0  0  0
 11 17  1  1  0  0  0
 11  2  1  0  0  0  0
 12 18  1  0  0  0  0
 13 19  1  0  0  0  0
 13 12  2  0  0  0  0
 14 20  1  6  0  0  0
 14 13  1  0  0  0  0
 15 14  1  0  0  0  0
 15 21  1  0  0  0  0
 15 16  1  0  0  0  0
 16 11  1  0  0  0  0
 22 15  1  0  0  0  0
 23 16  1  0  0  0  0
 24 16  1  0  0  0  0
 25 26  1  0  0  0  0
 25 14  1  0  0  0  0
 27 25  1  0  0  0  0
 28 25  1  0  0  0  0
 29  3  1  0  0  0  0
 30 29  1  0  0  0  0
 31 30  2  0  0  0  0
 31 32  1  0  0  0  0
 32 33  1  0  0  0  0
 33 29  2  0  0  0  0
 34 30  1  0  0  0  0
 35 31  1  0  0  0  0
 36 32  1  0  0  0  0
 36 37  1  0  0  0  0
 38 37  2  0  0  0  0
 39 38  1  0  0  0  0
 40 39  1  0  0  0  0
 41 42  1  0  0  0  0
 41 39  2  0  0  0  0
 42 36  2  0  0  0  0
M  END
>  <minimizedAffinity>
-5.83836031

>  <minimizedRMSD>
0.253393024

$$$$
