
 OpenBabel03232520403D

 26 28  0  0  0  0  0  0  0  0999 V2000
   44.0000   35.6890   42.9030 C   0  0  0  0  0  0  0  0  0  0  0  0
   43.2210   35.2070   41.8410 C   0  0  0  0  0  0  0  0  0  0  0  0
   43.8300   34.4580   40.8420 C   0  0  0  0  0  0  0  0  0  0  0  0
   45.1770   34.2030   40.9120 N   0  0  0  0  0  0  0  0  0  0  0  0
   45.8930   34.6890   41.9590 C   0  0  0  0  0  0  0  0  0  0  0  0
   45.3080   35.4120   42.9240 N   0  0  0  0  0  0  0  0  0  0  0  0
   43.4870   36.2680   43.6600 H   0  0  0  0  0  0  0  0  0  0  0  0
   43.2410   34.0800   40.0170 H   0  0  0  0  0  0  0  0  0  0  0  0
   47.3300   34.4570   42.0970 C   0  0  0  0  0  0  0  0  0  0  0  0
   48.2140   35.4890   41.9430 C   0  0  0  0  0  0  0  0  0  0  0  0
   49.5860   35.3380   42.0600 C   0  0  0  0  0  0  0  0  0  0  0  0
   50.1020   34.0940   42.3450 C   0  0  0  0  0  0  0  0  0  0  0  0
   49.1870   33.0610   42.4960 C   0  0  0  0  0  0  0  0  0  0  0  0
   47.8570   33.2520   42.3740 N   0  0  0  0  0  0  0  0  0  0  0  0
   47.9030   36.5180   41.7150 H   0  0  0  0  0  0  0  0  0  0  0  0
   50.2980   36.1320   41.9440 H   0  0  0  0  0  0  0  0  0  0  0  0
   51.1560   33.8250   42.4660 H   0  0  0  0  0  0  0  0  0  0  0  0
   49.4380   32.0310   42.7210 H   0  0  0  0  0  0  0  0  0  0  0  0
   41.4380   35.5220   41.7120 S   0  0  0  0  0  0  0  0  0  0  0  0
   40.8580   35.2390   40.0580 C   0  0  0  0  0  0  0  0  0  0  0  0
   39.6700   34.5150   40.0020 C   0  0  0  0  0  0  0  0  0  0  0  0
   39.0600   34.1930   38.8180 C   0  0  0  0  0  0  0  0  0  0  0  0
   39.6580   34.6100   37.6310 C   0  0  0  0  0  0  0  0  0  0  0  0
   39.1930   34.3660   36.6840 H   0  0  0  0  0  0  0  0  0  0  0  0
   40.8420   35.3290   37.7250 C   0  0  0  0  0  0  0  0  0  0  0  0
   41.4160   35.6290   38.9040 N   0  0  0  0  0  0  0  0  0  0  0  0
  1  6  1  0  0  0  0
  1  7  1  0  0  0  0
  2  1  2  0  0  0  0
  3  4  2  0  0  0  0
  3  2  1  0  0  0  0
  4  5  1  0  0  0  0
  5  9  1  0  0  0  0
  5  6  2  0  0  0  0
  8  3  1  0  0  0  0
  9 14  1  0  0  0  0
 10 11  1  0  0  0  0
 10  9  2  0  0  0  0
 11 12  2  0  0  0  0
 12 17  1  0  0  0  0
 12 13  1  0  0  0  0
 13 18  1  0  0  0  0
 14 13  2  0  0  0  0
 15 10  1  0  0  0  0
 16 11  1  0  0  0  0
 19  2  1  0  0  0  0
 20 19  1  0  0  0  0
 21 20  1  0  0  0  0
 22 21  2  0  0  0  0
 23 25  2  0  0  0  0
 23 22  1  0  0  0  0
 24 23  1  0  0  0  0
 25 26  1  0  0  0  0
 26 20  2  0  0  0  0
M  END
>  <minimizedAffinity>
-5.79587078

>  <minimizedRMSD>
2.02748418

$$$$
