
 OpenBabel03232521003D

 42 45  0  0  1  0  0  0  0  0999 V2000
   45.3460   32.9290   47.4690 C   0  0  0  0  0  0  0  0  0  0  0  0
   45.9020   32.6750   46.2600 C   0  0  0  0  0  0  0  0  0  0  0  0
   46.1870   31.3280   46.0200 C   0  0  0  0  0  0  0  0  0  0  0  0
   45.9340   30.3350   46.9100 N   0  0  0  0  0  0  0  0  0  0  0  0
   45.3630   30.6440   48.1340 C   0  0  0  0  0  0  0  0  0  0  0  0
   45.0860   31.9220   48.3800 N   0  0  0  0  0  0  0  0  0  0  0  0
   45.1040   29.6350   49.0900 N   0  0  0  0  0  0  0  0  0  0  0  0
   45.0890   33.9350   47.7590 H   0  0  0  0  0  0  0  0  0  0  0  0
   46.0540   29.2670   49.3650 H   0  0  0  0  0  0  0  0  0  0  0  0
   44.2170   29.2800   49.4840 H   0  0  0  0  0  0  0  0  0  0  0  0
   46.1410   33.6240   45.2260 C   0  0  2  0  0  0  0  0  0  0  0  0
   44.9330   34.7200   45.4710 C   0  0  0  0  0  0  0  0  0  0  0  0
   44.6950   35.6550   44.4080 C   0  0  0  0  0  0  0  0  0  0  0  0
   45.4800   35.5820   43.1730 C   0  0  1  0  0  0  0  0  0  0  0  0
   46.5340   34.5770   43.1130 C   0  0  0  0  0  0  0  0  0  0  0  0
   46.0920   33.3410   43.8630 C   0  0  0  0  0  0  0  0  0  0  0  0
   46.9160   34.3780   45.5510 H   0  0  0  0  0  0  0  0  0  0  0  0
   44.2640   34.8660   46.3090 H   0  0  0  0  0  0  0  0  0  0  0  0
   43.9300   36.3770   44.5290 H   0  0  0  0  0  0  0  0  0  0  0  0
   45.8980   36.5950   42.9670 H   0  0  0  0  0  0  0  0  0  0  0  0
   47.4310   34.9540   43.6650 H   0  0  0  0  0  0  0  0  0  0  0  0
   46.8130   34.3880   42.0580 H   0  0  0  0  0  0  0  0  0  0  0  0
   46.9370   32.6880   43.5170 H   0  0  0  0  0  0  0  0  0  0  0  0
   45.1650   32.9060   43.4380 H   0  0  0  0  0  0  0  0  0  0  0  0
   44.4500   35.3170   42.0340 C   0  0  0  0  0  0  0  0  0  0  0  0
   43.3870   34.5310   42.4440 F   0  0  0  0  0  0  0  0  0  0  0  0
   43.9100   36.5550   41.6970 F   0  0  0  0  0  0  0  0  0  0  0  0
   45.1090   34.8420   40.9150 F   0  0  0  0  0  0  0  0  0  0  0  0
   46.8350   30.6380   44.9160 C   0  0  0  0  0  0  0  0  0  0  0  0
   46.5040   29.8180   43.8850 C   0  0  0  0  0  0  0  0  0  0  0  0
   47.6800   29.4810   43.2060 C   0  0  0  0  0  0  0  0  0  0  0  0
   48.6650   30.1090   43.8510 N   0  0  0  0  0  0  0  0  0  0  0  0
   48.1860   30.7970   44.8620 N   0  0  0  0  0  0  0  0  0  0  0  0
   45.4610   29.5740   43.7630 H   0  0  0  0  0  0  0  0  0  0  0  0
   47.6290   28.8220   42.3360 H   0  0  0  0  0  0  0  0  0  0  0  0
   50.0240   29.9940   43.4320 C   0  0  0  0  0  0  0  0  0  0  0  0
   50.8460   29.3110   44.3240 C   0  0  0  0  0  3  0  0  0  0  0  0
   52.1900   29.0900   44.1100 C   0  0  0  0  0  3  0  0  0  0  0  0
   52.7690   29.5660   42.9510 C   0  0  0  0  0  0  0  0  0  0  0  0
   53.8160   29.4350   42.7080 H   0  0  0  0  0  0  0  0  0  0  0  0
   51.9110   30.2370   42.0980 C   0  0  0  0  0  3  0  0  0  0  0  0
   50.6000   30.4530   42.3050 N   0  0  0  0  0  0  0  0  0  0  0  0
  1  8  1  0  0  0  0
  1  6  1  0  0  0  0
  2  1  2  0  0  0  0
  3  2  1  0  0  0  0
  3  4  2  0  0  0  0
  4  5  1  0  0  0  0
  5  6  2  0  0  0  0
  5  7  1  0  0  0  0
  7  9  1  0  0  0  0
  7 10  1  0  0  0  0
 11 12  1  0  0  0  0
 11 17  1  1  0  0  0
 11  2  1  0  0  0  0
 12 18  1  0  0  0  0
 13 19  1  0  0  0  0
 13 12  2  0  0  0  0
 14 20  1  6  0  0  0
 14 13  1  0  0  0  0
 15 14  1  0  0  0  0
 15 21  1  0  0  0  0
 15 16  1  0  0  0  0
 16 11  1  0  0  0  0
 22 15  1  0  0  0  0
 23 16  1  0  0  0  0
 24 16  1  0  0  0  0
 25 26  1  0  0  0  0
 25 14  1  0  0  0  0
 27 25  1  0  0  0  0
 28 25  1  0  0  0  0
 29  3  1  0  0  0  0
 30 29  1  0  0  0  0
 31 32  1  0  0  0  0
 31 30  2  0  0  0  0
 32 33  1  0  0  0  0
 33 29  2  0  0  0  0
 34 30  1  0  0  0  0
 35 31  1  0  0  0  0
 36 32  1  0  0  0  0
 36 37  1  0  0  0  0
 38 37  2  0  0  0  0
 39 38  1  0  0  0  0
 40 39  1  0  0  0  0
 41 42  1  0  0  0  0
 41 39  2  0  0  0  0
 42 36  2  0  0  0  0
M  END
>  <minimizedAffinity>
-5.85965681

>  <minimizedRMSD>
0.439726979

$$$$
