
 OpenBabel03232520263D

 39 42  0  0  1  0  0  0  0  0999 V2000
   46.9300   34.5010   41.2810 C   0  0  0  0  0  0  0  0  0  0  0  0
   48.2020   34.9380   40.9190 C   0  0  0  0  0  0  0  0  0  0  0  0
   48.4460   34.6350   39.6570 N   0  0  0  0  0  0  0  0  0  0  0  0
   47.3620   34.0050   39.1740 C   0  0  0  0  0  0  0  0  0  0  0  0
   47.1070   33.4820   37.9050 C   0  0  0  0  0  0  0  0  0  0  0  0
   45.9090   32.8840   37.6770 C   0  0  0  0  0  0  0  0  0  0  0  0
   44.8980   32.7490   38.6200 C   0  0  0  0  0  0  0  0  0  0  0  0
   45.2000   33.2840   39.8590 C   0  0  0  0  0  0  0  0  0  0  0  0
   46.3840   33.9010   40.1680 C   0  0  0  0  0  0  0  0  0  0  0  0
   49.3200   34.8310   39.0850 H   0  0  0  0  0  0  0  0  0  0  0  0
   47.8710   33.5650   37.1350 H   0  0  0  0  0  0  0  0  0  0  0  0
   45.7020   32.4730   36.6890 H   0  0  0  0  0  0  0  0  0  0  0  0
   43.9420   32.2640   38.4080 H   0  0  0  0  0  0  0  0  0  0  0  0
   44.4820   33.2340   40.6680 H   0  0  0  0  0  0  0  0  0  0  0  0
   44.8000   35.8400   44.0380 C   0  0  0  0  0  0  0  0  0  0  0  0
   45.4300   35.7260   42.7840 C   0  0  0  0  0  0  0  0  0  0  0  0
   46.2720   34.6340   42.5730 C   0  0  0  0  0  0  0  0  0  0  0  0
   46.4580   33.7200   43.5810 N   0  0  0  0  0  0  0  0  0  0  0  0
   45.8170   33.8910   44.7750 C   0  0  0  0  0  0  0  0  0  0  0  0
   44.9990   34.9320   45.0060 N   0  0  0  0  0  0  0  0  0  0  0  0
   44.1330   36.6780   44.2430 H   0  0  0  0  0  0  0  0  0  0  0  0
   45.2380   36.4800   42.0360 H   0  0  0  0  0  0  0  0  0  0  0  0
   46.0160   33.1340   45.5070 H   0  0  0  0  0  0  0  0  0  0  0  0
   49.1140   35.6420   41.8590 C   0  0  0  0  0  0  0  0  0  0  0  0
   48.5210   36.2470   42.5940 H   0  0  0  0  0  0  0  0  0  0  0  0
   49.7180   36.3450   41.2410 H   0  0  0  0  0  0  0  0  0  0  0  0
   49.9850   34.6830   42.6060 C   0  0  0  0  0  0  0  0  0  0  0  0
   50.9720   35.1790   42.7480 H   0  0  0  0  0  0  0  0  0  0  0  0
   49.5870   34.5240   43.6460 H   0  0  0  0  0  0  0  0  0  0  0  0
   50.2270   33.3770   41.9060 C   0  0  1  0  0  0  0  0  0  0  0  0
   51.0180   32.2940   42.4890 C   0  0  0  0  0  0  0  0  0  0  0  0
   49.5520   32.1650   42.5840 C   0  0  2  0  0  0  0  0  0  0  0  0
   50.1010   33.3830   40.8040 H   0  0  0  0  0  0  0  0  0  0  0  0
   51.6030   32.5470   43.4180 H   0  0  0  0  0  0  0  0  0  0  0  0
   51.5840   31.6200   41.8280 H   0  0  0  0  0  0  0  0  0  0  0  0
   49.0820   32.3430   43.5730 H   0  0  0  0  0  0  0  0  0  0  0  0
   48.9490   31.1400   41.6960 C   0  0  0  0  0  0  0  0  0  0  0  0
   48.4010   30.3040   42.1660 H   0  0  0  0  0  0  0  0  0  0  0  0
   49.0410   31.1930   40.4600 O   0  0  0  0  0  0  0  0  0  0  0  0
  1 17  1  0  0  0  0
  2  1  2  0  0  0  0
  2 24  1  0  0  0  0
  3  2  1  0  0  0  0
  4  3  1  0  0  0  0
  4  9  1  0  0  0  0
  5  4  2  0  0  0  0
  6  5  1  0  0  0  0
  6  7  2  0  0  0  0
  7  8  1  0  0  0  0
  8  9  2  0  0  0  0
  8 14  1  0  0  0  0
  9  1  1  0  0  0  0
 10  3  1  0  0  0  0
 11  5  1  0  0  0  0
 12  6  1  0  0  0  0
 13  7  1  0  0  0  0
 15 21  1  0  0  0  0
 15 20  1  0  0  0  0
 16 15  2  0  0  0  0
 17 16  1  0  0  0  0
 17 18  2  0  0  0  0
 18 19  1  0  0  0  0
 19 20  2  0  0  0  0
 19 23  1  0  0  0  0
 22 16  1  0  0  0  0
 24 25  1  0  0  0  0
 24 27  1  0  0  0  0
 26 24  1  0  0  0  0
 27 28  1  0  0  0  0
 27 29  1  0  0  0  0
 30 33  1  6  0  0  0
 30 31  1  0  0  0  0
 30 32  1  0  0  0  0
 30 27  1  0  0  0  0
 31 32  1  0  0  0  0
 31 34  1  0  0  0  0
 32 36  1  1  0  0  0
 35 31  1  0  0  0  0
 37 38  1  0  0  0  0
 37 32  1  0  0  0  0
 39 37  2  0  0  0  0
M  END
>  <minimizedAffinity>
-5.57406616

>  <minimizedRMSD>
0.0874149129

$$$$
