
 OpenBabel03232521003D

 42 45  0  0  1  0  0  0  0  0999 V2000
   45.3700   32.9250   47.5210 C   0  0  0  0  0  0  0  0  0  0  0  0
   45.9060   32.6550   46.3060 C   0  0  0  0  0  0  0  0  0  0  0  0
   46.1550   31.3010   46.0650 C   0  0  0  0  0  0  0  0  0  0  0  0
   45.8880   30.3160   46.9590 N   0  0  0  0  0  0  0  0  0  0  0  0
   45.3390   30.6410   48.1890 C   0  0  0  0  0  0  0  0  0  0  0  0
   45.0960   31.9260   48.4360 N   0  0  0  0  0  0  0  0  0  0  0  0
   45.0660   29.6400   49.1510 N   0  0  0  0  0  0  0  0  0  0  0  0
   45.1420   33.9380   47.8120 H   0  0  0  0  0  0  0  0  0  0  0  0
   46.0110   29.2500   49.4150 H   0  0  0  0  0  0  0  0  0  0  0  0
   44.1750   29.3080   49.5550 H   0  0  0  0  0  0  0  0  0  0  0  0
   46.1560   33.5970   45.2670 C   0  0  2  0  0  0  0  0  0  0  0  0
   44.9490   34.6970   45.4950 C   0  0  0  0  0  0  0  0  0  0  0  0
   44.7230   35.6260   44.4230 C   0  0  0  0  0  0  0  0  0  0  0  0
   45.5180   35.5420   43.1950 C   0  0  1  0  0  0  0  0  0  0  0  0
   46.5700   34.5340   43.1510 C   0  0  0  0  0  0  0  0  0  0  0  0
   46.1180   33.3040   43.9060 C   0  0  0  0  0  0  0  0  0  0  0  0
   46.9300   34.3510   45.5930 H   0  0  0  0  0  0  0  0  0  0  0  0
   44.2730   34.8510   46.3260 H   0  0  0  0  0  0  0  0  0  0  0  0
   43.9580   36.3500   44.5330 H   0  0  0  0  0  0  0  0  0  0  0  0
   45.9400   36.5530   42.9860 H   0  0  0  0  0  0  0  0  0  0  0  0
   47.4630   34.9130   43.7080 H   0  0  0  0  0  0  0  0  0  0  0  0
   46.8570   34.3370   42.1000 H   0  0  0  0  0  0  0  0  0  0  0  0
   46.9640   32.6470   43.5720 H   0  0  0  0  0  0  0  0  0  0  0  0
   45.1940   32.8690   43.4760 H   0  0  0  0  0  0  0  0  0  0  0  0
   44.4970   35.2720   42.0500 C   0  0  0  0  0  0  0  0  0  0  0  0
   43.4440   34.4670   42.4480 F   0  0  0  0  0  0  0  0  0  0  0  0
   43.9400   36.5040   41.7210 F   0  0  0  0  0  0  0  0  0  0  0  0
   45.1670   34.8160   40.9290 F   0  0  0  0  0  0  0  0  0  0  0  0
   46.7730   30.5940   44.9550 C   0  0  0  0  0  0  0  0  0  0  0  0
   46.4070   29.8090   43.9090 C   0  0  0  0  0  0  0  0  0  0  0  0
   47.5670   29.4190   43.2330 C   0  0  0  0  0  0  0  0  0  0  0  0
   48.5790   29.9820   43.8940 N   0  0  0  0  0  0  0  0  0  0  0  0
   48.1310   30.6800   44.9120 N   0  0  0  0  0  0  0  0  0  0  0  0
   45.3520   29.6230   43.7770 H   0  0  0  0  0  0  0  0  0  0  0  0
   47.4880   28.7760   42.3530 H   0  0  0  0  0  0  0  0  0  0  0  0
   49.9340   29.8000   43.4830 C   0  0  0  0  0  0  0  0  0  0  0  0
   50.3520   30.6660   42.4760 C   0  0  0  0  0  3  0  0  0  0  0  0
   51.6210   30.6560   41.9370 C   0  0  0  0  0  3  0  0  0  0  0  0
   52.5410   29.7430   42.4100 C   0  0  0  0  0  0  0  0  0  0  0  0
   53.5570   29.6700   42.0430 H   0  0  0  0  0  0  0  0  0  0  0  0
   52.0780   28.9060   43.4100 C   0  0  0  0  0  3  0  0  0  0  0  0
   50.8400   28.9140   43.9370 N   0  0  0  0  0  0  0  0  0  0  0  0
  1  8  1  0  0  0  0
  1  6  1  0  0  0  0
  2  1  2  0  0  0  0
  3  2  1  0  0  0  0
  3  4  2  0  0  0  0
  4  5  1  0  0  0  0
  5  6  2  0  0  0  0
  5  7  1  0  0  0  0
  7  9  1  0  0  0  0
  7 10  1  0  0  0  0
 11 12  1  0  0  0  0
 11 17  1  1  0  0  0
 11  2  1  0  0  0  0
 12 18  1  0  0  0  0
 13 19  1  0  0  0  0
 13 12  2  0  0  0  0
 14 20  1  6  0  0  0
 14 13  1  0  0  0  0
 15 14  1  0  0  0  0
 15 21  1  0  0  0  0
 15 16  1  0  0  0  0
 16 11  1  0  0  0  0
 22 15  1  0  0  0  0
 23 16  1  0  0  0  0
 24 16  1  0  0  0  0
 25 26  1  0  0  0  0
 25 14  1  0  0  0  0
 27 25  1  0  0  0  0
 28 25  1  0  0  0  0
 29  3  1  0  0  0  0
 30 29  1  0  0  0  0
 31 32  1  0  0  0  0
 31 30  2  0  0  0  0
 32 33  1  0  0  0  0
 33 29  2  0  0  0  0
 34 30  1  0  0  0  0
 35 31  1  0  0  0  0
 36 32  1  0  0  0  0
 36 42  1  0  0  0  0
 37 36  2  0  0  0  0
 38 39  2  0  0  0  0
 38 37  1  0  0  0  0
 39 41  1  0  0  0  0
 40 39  1  0  0  0  0
 41 42  2  0  0  0  0
M  END
>  <minimizedAffinity>
-5.85551596

>  <minimizedRMSD>
0.666269004

$$$$
