
 OpenBabel03232520083D

 19 20  0  0  0  0  0  0  0  0999 V2000
   45.8170   33.2500   46.4560 C   0  0  0  0  0  0  0  0  0  0  0  0
   45.1150   33.0590   47.6280 C   0  0  0  0  0  0  0  0  0  0  0  0
   45.5390   32.1290   48.5160 C   0  0  0  0  0  0  0  0  0  0  0  0
   46.6840   31.4190   48.1610 C   0  0  0  0  0  0  0  0  0  0  0  0
   47.1450   32.0810   46.5720 S   0  0  0  0  0  0  0  0  0  0  0  0
   44.2290   33.6740   47.8010 H   0  0  0  0  0  0  0  0  0  0  0  0
   45.0890   31.8920   49.4400 H   0  0  0  0  0  0  0  0  0  0  0  0
   44.4650   36.0230   44.4710 C   0  0  0  0  0  0  0  0  0  0  0  0
   45.1640   35.8430   43.2410 C   0  0  0  0  0  0  0  0  0  0  0  0
   46.0820   34.7660   43.1390 C   0  0  0  0  0  0  0  0  0  0  0  0
   46.2460   33.9570   44.2290 N   0  0  0  0  0  0  0  0  0  0  0  0
   45.5600   34.1720   45.3700 C   0  0  0  0  0  0  0  0  0  0  0  0
   44.6790   35.1850   45.5020 N   0  0  0  0  0  0  0  0  0  0  0  0
   43.7690   36.8410   44.5480 H   0  0  0  0  0  0  0  0  0  0  0  0
   45.0010   36.5120   42.3990 H   0  0  0  0  0  0  0  0  0  0  0  0
   46.6250   34.6010   42.2280 H   0  0  0  0  0  0  0  0  0  0  0  0
   47.4130   30.3620   48.8590 C   0  0  0  0  0  0  0  0  0  0  0  0
   47.0170   29.3720   48.7270 H   0  0  0  0  0  0  0  0  0  0  0  0
   48.4120   30.7110   49.5300 O   0  0  0  0  0  0  0  0  0  0  0  0
  1  5  1  0  0  0  0
  1  2  2  0  0  0  0
  2  6  1  0  0  0  0
  2  3  1  0  0  0  0
  3  7  1  0  0  0  0
  4  3  2  0  0  0  0
  4 17  1  0  0  0  0
  5  4  1  0  0  0  0
  8 14  1  0  0  0  0
  8 13  1  0  0  0  0
  9  8  2  0  0  0  0
 10  9  1  0  0  0  0
 10 11  2  0  0  0  0
 11 12  1  0  0  0  0
 12 13  2  0  0  0  0
 12  1  1  0  0  0  0
 15  9  1  0  0  0  0
 16 10  1  0  0  0  0
 17 19  2  0  0  0  0
 18 17  1  0  0  0  0
M  END
>  <minimizedAffinity>
-4.21146202

>  <minimizedRMSD>
0.420991689

$$$$
