
 OpenBabel03232519543D

 19 20  0  0  0  0  0  0  0  0999 V2000
   44.2610   33.9310   41.4800 N   0  0  0  0  0  0  0  0  0  0  0  0
   45.0230   33.7410   40.4320 C   0  0  0  0  0  0  0  0  0  0  0  0
   44.3090   33.5340   39.2740 C   0  0  0  0  0  0  0  0  0  0  0  0
   43.0490   33.6030   39.6420 N   0  0  0  0  0  0  0  0  0  0  0  0
   43.0190   33.8420   40.9720 C   0  0  0  0  0  0  0  0  0  0  0  0
   44.6260   33.3500   38.2570 H   0  0  0  0  0  0  0  0  0  0  0  0
   42.0620   33.9360   41.4890 H   0  0  0  0  0  0  0  0  0  0  0  0
   44.2500   35.4770   43.2970 C   0  0  0  0  0  0  0  0  0  0  0  0
   44.5660   34.1690   42.8120 C   0  0  0  0  0  0  0  0  0  0  0  0
   45.1460   33.2450   43.6930 C   0  0  0  0  0  0  0  0  0  0  0  0
   45.3810   33.6410   44.9740 N   0  0  0  0  0  0  0  0  0  0  0  0
   45.0650   34.8970   45.4000 C   0  0  0  0  0  0  0  0  0  0  0  0
   44.5000   35.8170   44.5650 N   0  0  0  0  0  0  0  0  0  0  0  0
   43.8050   36.2460   42.6940 H   0  0  0  0  0  0  0  0  0  0  0  0
   45.3800   32.2600   43.3270 H   0  0  0  0  0  0  0  0  0  0  0  0
   45.2850   35.1300   46.4350 H   0  0  0  0  0  0  0  0  0  0  0  0
   46.4660   33.7330   40.3610 C   0  0  0  0  0  0  0  0  0  0  0  0
   47.4610   33.4210   40.1790 H   0  0  0  0  0  0  0  0  0  0  0  0
   47.2780   34.6260   40.7090 O   0  0  0  0  0  0  0  0  0  0  0  0
  1  9  1  0  0  0  0
  2  1  1  0  0  0  0
  3  4  1  0  0  0  0
  3  2  2  0  0  0  0
  4  5  2  0  0  0  0
  5  1  1  0  0  0  0
  5  7  1  0  0  0  0
  6  3  1  0  0  0  0
  8 13  1  0  0  0  0
  9  8  2  0  0  0  0
  9 10  1  0  0  0  0
 10 11  2  0  0  0  0
 11 12  1  0  0  0  0
 12 16  1  0  0  0  0
 13 12  2  0  0  0  0
 14  8  1  0  0  0  0
 15 10  1  0  0  0  0
 17  2  1  0  0  0  0
 17 19  2  0  0  0  0
 18 17  1  0  0  0  0
M  END
>  <minimizedAffinity>
-3.27505255

>  <minimizedRMSD>
1.25933158

$$$$
