
 OpenBabel03232521003D

 42 45  0  0  1  0  0  0  0  0999 V2000
   45.3580   32.9210   47.5210 C   0  0  0  0  0  0  0  0  0  0  0  0
   45.9100   32.6580   46.3110 C   0  0  0  0  0  0  0  0  0  0  0  0
   46.1770   31.3080   46.0730 C   0  0  0  0  0  0  0  0  0  0  0  0
   45.9120   30.3180   46.9630 N   0  0  0  0  0  0  0  0  0  0  0  0
   45.3460   30.6360   48.1880 C   0  0  0  0  0  0  0  0  0  0  0  0
   45.0850   31.9180   48.4330 N   0  0  0  0  0  0  0  0  0  0  0  0
   45.0730   29.6320   49.1450 N   0  0  0  0  0  0  0  0  0  0  0  0
   45.1150   33.9310   47.8100 H   0  0  0  0  0  0  0  0  0  0  0  0
   46.0190   29.2520   49.4200 H   0  0  0  0  0  0  0  0  0  0  0  0
   44.1820   29.2900   49.5390 H   0  0  0  0  0  0  0  0  0  0  0  0
   46.1600   33.6030   45.2760 C   0  0  2  0  0  0  0  0  0  0  0  0
   44.9440   34.6940   45.4970 C   0  0  0  0  0  0  0  0  0  0  0  0
   44.7190   35.6230   44.4250 C   0  0  0  0  0  0  0  0  0  0  0  0
   45.5240   35.5470   43.2030 C   0  0  1  0  0  0  0  0  0  0  0  0
   46.5830   34.5470   43.1650 C   0  0  0  0  0  0  0  0  0  0  0  0
   46.1350   33.3130   43.9150 C   0  0  0  0  0  0  0  0  0  0  0  0
   46.9270   34.3630   45.6090 H   0  0  0  0  0  0  0  0  0  0  0  0
   44.2610   34.8420   46.3240 H   0  0  0  0  0  0  0  0  0  0  0  0
   43.9480   36.3420   44.5300 H   0  0  0  0  0  0  0  0  0  0  0  0
   45.9400   36.5620   42.9980 H   0  0  0  0  0  0  0  0  0  0  0  0
   47.4700   34.9320   43.7290 H   0  0  0  0  0  0  0  0  0  0  0  0
   46.8790   34.3540   42.1160 H   0  0  0  0  0  0  0  0  0  0  0  0
   46.9880   32.6620   43.5850 H   0  0  0  0  0  0  0  0  0  0  0  0
   45.2170   32.8710   43.4770 H   0  0  0  0  0  0  0  0  0  0  0  0
   44.5120   35.2720   42.0500 C   0  0  0  0  0  0  0  0  0  0  0  0
   43.4630   34.4580   42.4390 F   0  0  0  0  0  0  0  0  0  0  0  0
   43.9490   36.5010   41.7190 F   0  0  0  0  0  0  0  0  0  0  0  0
   45.1950   34.8220   40.9330 F   0  0  0  0  0  0  0  0  0  0  0  0
   46.8150   30.6080   44.9690 C   0  0  0  0  0  0  0  0  0  0  0  0
   46.4670   29.8390   43.9050 C   0  0  0  0  0  0  0  0  0  0  0  0
   47.6390   29.4460   43.2520 C   0  0  0  0  0  0  0  0  0  0  0  0
   48.6400   29.9930   43.9430 N   0  0  0  0  0  0  0  0  0  0  0  0
   48.1740   30.6830   44.9590 N   0  0  0  0  0  0  0  0  0  0  0  0
   45.4140   29.6640   43.7460 H   0  0  0  0  0  0  0  0  0  0  0  0
   47.5750   28.8150   42.3630 H   0  0  0  0  0  0  0  0  0  0  0  0
   50.0020   29.8040   43.5620 C   0  0  0  0  0  0  0  0  0  0  0  0
   50.4060   30.5630   42.4680 C   0  0  0  0  0  3  0  0  0  0  0  0
   51.6800   30.5290   41.9400 C   0  0  0  0  0  3  0  0  0  0  0  0
   52.6190   29.7000   42.5160 C   0  0  0  0  0  0  0  0  0  0  0  0
   53.6390   29.6150   42.1630 H   0  0  0  0  0  0  0  0  0  0  0  0
   52.1710   28.9680   43.6000 C   0  0  0  0  0  3  0  0  0  0  0  0
   50.9290   28.9990   44.1160 N   0  0  0  0  0  0  0  0  0  0  0  0
  1  8  1  0  0  0  0
  1  6  1  0  0  0  0
  2  1  2  0  0  0  0
  3  2  1  0  0  0  0
  3  4  2  0  0  0  0
  4  5  1  0  0  0  0
  5  6  2  0  0  0  0
  5  7  1  0  0  0  0
  7  9  1  0  0  0  0
  7 10  1  0  0  0  0
 11 12  1  0  0  0  0
 11 17  1  1  0  0  0
 11  2  1  0  0  0  0
 12 18  1  0  0  0  0
 13 19  1  0  0  0  0
 13 12  2  0  0  0  0
 14 20  1  6  0  0  0
 14 13  1  0  0  0  0
 15 14  1  0  0  0  0
 15 21  1  0  0  0  0
 15 16  1  0  0  0  0
 16 11  1  0  0  0  0
 22 15  1  0  0  0  0
 23 16  1  0  0  0  0
 24 16  1  0  0  0  0
 25 26  1  0  0  0  0
 25 14  1  0  0  0  0
 27 25  1  0  0  0  0
 28 25  1  0  0  0  0
 29  3  1  0  0  0  0
 30 29  1  0  0  0  0
 31 30  2  0  0  0  0
 31 32  1  0  0  0  0
 32 33  1  0  0  0  0
 33 29  2  0  0  0  0
 34 30  1  0  0  0  0
 35 31  1  0  0  0  0
 36 32  1  0  0  0  0
 36 42  1  0  0  0  0
 37 36  2  0  0  0  0
 38 37  1  0  0  0  0
 38 39  2  0  0  0  0
 39 41  1  0  0  0  0
 40 39  1  0  0  0  0
 41 42  2  0  0  0  0
M  END
>  <minimizedAffinity>
-5.84976816

>  <minimizedRMSD>
0.540855527

$$$$
