
 OpenBabel03232519323D

 49 52  0  0  1  0  0  0  0  0999 V2000
   47.2100   34.3110   40.2740 C   0  0  1  0  0  0  0  0  0  0  0  0
   48.3600   34.4030   39.2610 C   0  0  0  0  0  0  0  0  0  0  0  0
   47.7480   33.9720   37.9290 C   0  0  0  0  0  0  0  0  0  0  0  0
   47.4440   32.5070   37.9910 C   0  0  0  0  0  0  0  0  0  0  0  0
   47.5000   32.0100   39.4020 C   0  0  0  0  0  0  0  0  0  0  0  0
   46.7380   32.9450   40.3690 C   0  0  2  0  0  0  0  0  0  0  0  0
   46.5480   35.1160   39.9700 H   0  0  0  0  0  0  0  0  0  0  0  0
   49.1970   33.7680   39.5760 H   0  0  0  0  0  0  0  0  0  0  0  0
   48.6730   35.4610   39.2350 H   0  0  0  0  0  0  0  0  0  0  0  0
   46.9100   34.6270   37.7000 H   0  0  0  0  0  0  0  0  0  0  0  0
   48.5090   34.1790   37.1200 H   0  0  0  0  0  0  0  0  0  0  0  0
   46.5490   32.2150   37.4170 H   0  0  0  0  0  0  0  0  0  0  0  0
   48.2780   31.9730   37.4720 H   0  0  0  0  0  0  0  0  0  0  0  0
   46.9380   31.0460   39.4220 H   0  0  0  0  0  0  0  0  0  0  0  0
   48.5440   31.8440   39.7150 H   0  0  0  0  0  0  0  0  0  0  0  0
   47.0220   32.3410   41.2590 H   0  0  0  0  0  0  0  0  0  0  0  0
   47.7190   34.7930   41.6500 C   0  0  0  0  0  0  0  0  0  0  0  0
   48.8430   34.7110   41.5680 H   0  0  0  0  0  0  0  0  0  0  0  0
   47.5270   35.8550   41.8190 H   0  0  0  0  0  0  0  0  0  0  0  0
   47.2570   33.8170   42.6390 C   0  0  0  0  0  0  0  0  0  0  0  0
   48.0900   33.3010   43.1780 H   0  0  0  0  0  0  0  0  0  0  0  0
   46.5530   33.0050   42.3210 H   0  0  0  0  0  0  0  0  0  0  0  0
   46.1840   33.7310   44.7950 C   0  0  0  0  0  0  0  0  0  0  0  0
   46.3470   34.4090   43.5880 C   0  0  0  0  0  0  0  0  0  0  0  0
   45.6500   35.5300   43.3030 C   0  0  0  0  0  0  0  0  0  0  0  0
   44.7730   35.9870   44.2360 N   0  0  0  0  0  0  0  0  0  0  0  0
   44.5920   35.3490   45.4200 C   0  0  0  0  0  0  0  0  0  0  0  0
   45.2950   34.2250   45.6980 N   0  0  0  0  0  0  0  0  0  0  0  0
   46.7320   32.8430   45.0290 H   0  0  0  0  0  0  0  0  0  0  0  0
   45.6740   36.1380   42.4240 H   0  0  0  0  0  0  0  0  0  0  0  0
   43.8790   35.7620   46.1190 H   0  0  0  0  0  0  0  0  0  0  0  0
   45.3190   32.8010   39.9070 C   0  0  0  0  0  0  0  0  0  0  0  0
   45.1650   32.6420   38.8380 H   0  0  0  0  0  0  0  0  0  0  0  0
   44.9030   31.8990   40.4010 H   0  0  0  0  0  0  0  0  0  0  0  0
   44.4820   34.0310   40.2480 C   0  0  0  0  0  0  0  0  0  0  0  0
   44.2470   34.2060   41.2690 H   0  0  0  0  0  0  0  0  0  0  0  0
   44.8470   34.9130   39.6480 H   0  0  0  0  0  0  0  0  0  0  0  0
   43.1910   33.7690   39.5710 N   0  0  0  0  0  0  0  0  0  0  0  0
   42.8850   32.8930   38.5980 C   0  0  0  0  0  0  0  0  0  0  0  0
   41.5790   33.0220   38.3080 N   0  0  0  0  0  0  0  0  0  0  0  0
   41.0220   33.9600   39.0700 C   0  0  0  0  0  0  0  0  0  0  0  0
   39.7680   34.5310   39.2400 C   0  0  0  0  0  0  0  0  0  0  0  0
   39.5650   35.5020   40.1480 N   0  0  0  0  0  0  0  0  0  0  0  0
   40.5910   35.9400   40.9130 C   0  0  0  0  0  0  0  0  0  0  0  0
   41.8160   35.4020   40.7660 N   0  0  0  0  0  0  0  0  0  0  0  0
   42.0390   34.4370   39.8710 C   0  0  0  0  0  0  0  0  0  0  0  0
   38.7360   34.0110   38.3920 N   0  0  0  0  0  0  0  0  0  0  0  0
   38.1210   34.7110   37.8970 H   0  0  0  0  0  0  0  0  0  0  0  0
   38.5070   33.0260   38.1950 H   0  0  0  0  0  0  0  0  0  0  0  0
  1  7  1  6  0  0  0
  1  6  1  0  0  0  0
  1 17  1  0  0  0  0
  2  8  1  0  0  0  0
  2  1  1  0  0  0  0
  3  4  1  0  0  0  0
  3  2  1  0  0  0  0
  4  5  1  0  0  0  0
  5 14  1  0  0  0  0
  5 15  1  0  0  0  0
  5  6  1  0  0  0  0
  6 16  1  1  0  0  0
  9  2  1  0  0  0  0
 10  3  1  0  0  0  0
 11  3  1  0  0  0  0
 12  4  1  0  0  0  0
 13  4  1  0  0  0  0
 17 19  1  0  0  0  0
 17 20  1  0  0  0  0
 18 17  1  0  0  0  0
 20 21  1  0  0  0  0
 20 24  1  0  0  0  0
 22 20  1  0  0  0  0
 23 29  1  0  0  0  0
 23 28  1  0  0  0  0
 24 23  2  0  0  0  0
 25 24  1  0  0  0  0
 25 26  2  0  0  0  0
 26 27  1  0  0  0  0
 27 28  2  0  0  0  0
 27 31  1  0  0  0  0
 30 25  1  0  0  0  0
 32 35  1  0  0  0  0
 32  6  1  0  0  0  0
 32 34  1  0  0  0  0
 33 32  1  0  0  0  0
 35 36  1  0  0  0  0
 37 35  1  0  0  0  0
 38 46  1  0  0  0  0
 38 35  1  0  0  0  0
 39 38  1  0  0  0  0
 40 39  2  0  0  0  0
 40 41  1  0  0  0  0
 41 42  2  0  0  0  0
 41 46  1  0  0  0  0
 42 43  1  0  0  0  0
 43 44  2  0  0  0  0
 45 44  1  0  0  0  0
 46 45  2  0  0  0  0
 47 42  1  0  0  0  0
 48 47  1  0  0  0  0
 49 47  1  0  0  0  0
M  END
>  <minimizedAffinity>
-5.86349154

>  <minimizedRMSD>
1.4057132

$$$$
