
 OpenBabel03232519273D

 34 35  0  0  1  0  0  0  0  0999 V2000
   47.6140   34.3390   40.1650 C   0  0  1  0  0  0  0  0  0  0  0  0
   48.6260   34.9290   39.1960 C   0  0  0  0  0  0  0  0  0  0  0  0
   48.2670   34.3600   37.8250 C   0  0  0  0  0  0  0  0  0  0  0  0
   48.6490   32.8910   37.8210 C   0  0  0  0  0  0  0  0  0  0  0  0
   48.8700   32.3600   39.2140 C   0  0  0  0  0  0  0  0  0  0  0  0
   47.8200   32.8480   40.2070 C   0  0  2  0  0  0  0  0  0  0  0  0
   46.6090   34.6290   39.7990 H   0  0  0  0  0  0  0  0  0  0  0  0
   49.6390   34.5490   39.4370 H   0  0  0  0  0  0  0  0  0  0  0  0
   48.5720   36.0360   39.1890 H   0  0  0  0  0  0  0  0  0  0  0  0
   47.1750   34.4150   37.7250 H   0  0  0  0  0  0  0  0  0  0  0  0
   48.8020   34.9060   37.0210 H   0  0  0  0  0  0  0  0  0  0  0  0
   47.9950   32.2740   37.1920 H   0  0  0  0  0  0  0  0  0  0  0  0
   49.6660   32.8460   37.3290 H   0  0  0  0  0  0  0  0  0  0  0  0
   49.8970   32.5300   39.5960 H   0  0  0  0  0  0  0  0  0  0  0  0
   48.7480   31.2550   39.1550 H   0  0  0  0  0  0  0  0  0  0  0  0
   48.1770   32.4590   41.1750 H   0  0  0  0  0  0  0  0  0  0  0  0
   47.7970   34.9420   41.5680 C   0  0  0  0  0  0  0  0  0  0  0  0
   48.8870   35.1170   41.7570 H   0  0  0  0  0  0  0  0  0  0  0  0
   47.3260   35.9080   41.6200 H   0  0  0  0  0  0  0  0  0  0  0  0
   47.2950   33.8810   42.5220 C   0  0  0  0  0  0  0  0  0  0  0  0
   48.1560   33.4110   43.0850 H   0  0  0  0  0  0  0  0  0  0  0  0
   46.7290   33.0570   41.9870 H   0  0  0  0  0  0  0  0  0  0  0  0
   46.1500   33.8340   44.6800 C   0  0  0  0  0  0  0  0  0  0  0  0
   46.3570   34.4560   43.4360 C   0  0  0  0  0  0  0  0  0  0  0  0
   45.6440   35.5860   43.1310 C   0  0  0  0  0  0  0  0  0  0  0  0
   44.7550   36.0550   44.0660 N   0  0  0  0  0  0  0  0  0  0  0  0
   44.5670   35.4420   45.2610 C   0  0  0  0  0  0  0  0  0  0  0  0
   45.2690   34.3260   45.5680 N   0  0  0  0  0  0  0  0  0  0  0  0
   46.7200   32.9440   44.9070 H   0  0  0  0  0  0  0  0  0  0  0  0
   45.6760   36.1720   42.2290 H   0  0  0  0  0  0  0  0  0  0  0  0
   43.8450   35.8960   45.9190 H   0  0  0  0  0  0  0  0  0  0  0  0
   46.5520   32.2020   39.7370 C   0  0  0  0  0  0  0  0  0  0  0  0
   46.5670   31.1330   39.6760 H   0  0  0  0  0  0  0  0  0  0  0  0
   45.4020   32.4130   39.3620 O   0  0  0  0  0  0  0  0  0  0  0  0
  1  7  1  6  0  0  0
  1  6  1  0  0  0  0
  1 17  1  0  0  0  0
  2  8  1  0  0  0  0
  2  1  1  0  0  0  0
  3  2  1  0  0  0  0
  4  3  1  0  0  0  0
  4  5  1  0  0  0  0
  5 14  1  0  0  0  0
  5  6  1  0  0  0  0
  6 16  1  1  0  0  0
  9  2  1  0  0  0  0
 10  3  1  0  0  0  0
 11  3  1  0  0  0  0
 12  4  1  0  0  0  0
 13  4  1  0  0  0  0
 15  5  1  0  0  0  0
 17 19  1  0  0  0  0
 17 18  1  0  0  0  0
 17 20  1  0  0  0  0
 20 21  1  0  0  0  0
 20 24  1  0  0  0  0
 22 20  1  0  0  0  0
 23 29  1  0  0  0  0
 23 28  1  0  0  0  0
 24 23  2  0  0  0  0
 25 24  1  0  0  0  0
 25 26  2  0  0  0  0
 26 27  1  0  0  0  0
 27 28  2  0  0  0  0
 27 31  1  0  0  0  0
 30 25  1  0  0  0  0
 32  6  1  0  0  0  0
 33 32  1  0  0  0  0
 34 32  2  0  0  0  0
M  END
>  <minimizedAffinity>
-4.16338158

>  <minimizedRMSD>
0.150493756

$$$$
