
 OpenBabel03232520593D

 42 45  0  0  1  0  0  0  0  0999 V2000
   45.3590   32.9210   47.5210 C   0  0  0  0  0  0  0  0  0  0  0  0
   45.9110   32.6590   46.3110 C   0  0  0  0  0  0  0  0  0  0  0  0
   46.1760   31.3080   46.0720 C   0  0  0  0  0  0  0  0  0  0  0  0
   45.9110   30.3190   46.9630 N   0  0  0  0  0  0  0  0  0  0  0  0
   45.3460   30.6370   48.1870 C   0  0  0  0  0  0  0  0  0  0  0  0
   45.0870   31.9180   48.4330 N   0  0  0  0  0  0  0  0  0  0  0  0
   45.0740   29.6330   49.1450 N   0  0  0  0  0  0  0  0  0  0  0  0
   45.1170   33.9310   47.8100 H   0  0  0  0  0  0  0  0  0  0  0  0
   46.0200   29.2520   49.4190 H   0  0  0  0  0  0  0  0  0  0  0  0
   44.1830   29.2900   49.5400 H   0  0  0  0  0  0  0  0  0  0  0  0
   46.1610   33.6040   45.2760 C   0  0  2  0  0  0  0  0  0  0  0  0
   44.9440   34.6950   45.4970 C   0  0  0  0  0  0  0  0  0  0  0  0
   44.7190   35.6240   44.4240 C   0  0  0  0  0  0  0  0  0  0  0  0
   45.5230   35.5470   43.2030 C   0  0  1  0  0  0  0  0  0  0  0  0
   46.5830   34.5480   43.1650 C   0  0  0  0  0  0  0  0  0  0  0  0
   46.1350   33.3130   43.9140 C   0  0  0  0  0  0  0  0  0  0  0  0
   46.9270   34.3630   45.6090 H   0  0  0  0  0  0  0  0  0  0  0  0
   44.2610   34.8420   46.3230 H   0  0  0  0  0  0  0  0  0  0  0  0
   43.9480   36.3420   44.5300 H   0  0  0  0  0  0  0  0  0  0  0  0
   45.9390   36.5620   42.9980 H   0  0  0  0  0  0  0  0  0  0  0  0
   47.4700   34.9320   43.7280 H   0  0  0  0  0  0  0  0  0  0  0  0
   46.8790   34.3540   42.1150 H   0  0  0  0  0  0  0  0  0  0  0  0
   46.9880   32.6630   43.5850 H   0  0  0  0  0  0  0  0  0  0  0  0
   45.2170   32.8720   43.4770 H   0  0  0  0  0  0  0  0  0  0  0  0
   44.5120   35.2720   42.0490 C   0  0  0  0  0  0  0  0  0  0  0  0
   43.4620   34.4590   42.4390 F   0  0  0  0  0  0  0  0  0  0  0  0
   43.9490   36.5010   41.7180 F   0  0  0  0  0  0  0  0  0  0  0  0
   45.1940   34.8220   40.9330 F   0  0  0  0  0  0  0  0  0  0  0  0
   46.8130   30.6090   44.9670 C   0  0  0  0  0  0  0  0  0  0  0  0
   46.4640   29.8390   43.9040 C   0  0  0  0  0  0  0  0  0  0  0  0
   47.6360   29.4460   43.2500 C   0  0  0  0  0  0  0  0  0  0  0  0
   48.6380   29.9930   43.9400 N   0  0  0  0  0  0  0  0  0  0  0  0
   48.1720   30.6820   44.9570 N   0  0  0  0  0  0  0  0  0  0  0  0
   45.4110   29.6650   43.7450 H   0  0  0  0  0  0  0  0  0  0  0  0
   47.5710   28.8150   42.3610 H   0  0  0  0  0  0  0  0  0  0  0  0
   49.9990   29.8030   43.5580 C   0  0  0  0  0  0  0  0  0  0  0  0
   50.4050   30.5710   42.4700 C   0  0  0  0  0  3  0  0  0  0  0  0
   51.6790   30.5370   41.9420 C   0  0  0  0  0  3  0  0  0  0  0  0
   52.6170   29.7010   42.5120 C   0  0  0  0  0  0  0  0  0  0  0  0
   53.6360   29.6150   42.1600 H   0  0  0  0  0  0  0  0  0  0  0  0
   52.1640   28.9590   43.5900 C   0  0  0  0  0  3  0  0  0  0  0  0
   50.9240   28.9900   44.1070 N   0  0  0  0  0  0  0  0  0  0  0  0
  1  8  1  0  0  0  0
  1  6  1  0  0  0  0
  2  1  2  0  0  0  0
  3  2  1  0  0  0  0
  3  4  2  0  0  0  0
  4  5  1  0  0  0  0
  5  6  2  0  0  0  0
  5  7  1  0  0  0  0
  7  9  1  0  0  0  0
  7 10  1  0  0  0  0
 11 12  1  0  0  0  0
 11 17  1  1  0  0  0
 11  2  1  0  0  0  0
 12 18  1  0  0  0  0
 13 19  1  0  0  0  0
 13 12  2  0  0  0  0
 14 20  1  6  0  0  0
 14 13  1  0  0  0  0
 15 14  1  0  0  0  0
 15 21  1  0  0  0  0
 15 16  1  0  0  0  0
 16 11  1  0  0  0  0
 22 15  1  0  0  0  0
 23 16  1  0  0  0  0
 24 16  1  0  0  0  0
 25 26  1  0  0  0  0
 25 14  1  0  0  0  0
 27 25  1  0  0  0  0
 28 25  1  0  0  0  0
 29  3  1  0  0  0  0
 30 29  1  0  0  0  0
 31 30  2  0  0  0  0
 31 32  1  0  0  0  0
 32 33  1  0  0  0  0
 33 29  2  0  0  0  0
 34 30  1  0  0  0  0
 35 31  1  0  0  0  0
 36 32  1  0  0  0  0
 36 42  1  0  0  0  0
 37 36  2  0  0  0  0
 38 37  1  0  0  0  0
 38 39  2  0  0  0  0
 39 41  1  0  0  0  0
 40 39  1  0  0  0  0
 41 42  2  0  0  0  0
M  END
>  <minimizedAffinity>
-5.85319376

>  <minimizedRMSD>
0.343820393

$$$$
