
     RDKit          3D

 37 39  0  0  1  0  0  0  0  0999 V2000
   44.9040   32.9500   41.1890 Br  0  0  0  0  0  0  0  0  0  0  0  0
   46.5160   33.9540   40.9530 C   0  0  0  0  0  0  0  0  0  0  0  0
   46.9460   34.7710   41.9550 C   0  0  0  0  0  0  0  0  0  0  0  0
   48.1220   35.5270   41.8070 C   0  0  0  0  0  0  0  0  0  0  0  0
   48.8110   35.4080   40.6220 C   0  0  0  0  0  0  0  0  0  0  0  0
   48.3390   34.5720   39.6430 C   0  0  0  0  0  0  0  0  0  0  0  0
   47.2140   33.8410   39.7680 C   0  0  0  0  0  0  0  0  0  0  0  0
   46.8100   32.9900   38.6920 N   0  0  0  0  0  0  0  0  0  0  0  0
   46.1260   33.3810   37.4580 C   0  0  0  0  0  0  0  0  0  0  0  0
   45.1820   32.3020   36.9820 C   0  0  0  0  0  0  0  0  0  0  0  0
   45.8910   31.0860   36.6300 N   0  0  0  0  0  0  0  0  0  0  0  0
   47.2020   31.1400   37.2480 C   0  0  0  0  0  0  0  0  0  0  0  0
   47.0490   31.5560   38.7190 C   0  0  1  0  0  0  0  0  0  0  0  0
   48.3280   31.1570   39.3880 C   0  0  0  0  0  0  0  0  0  0  0  0
   49.3030   32.0190   38.8930 F   0  0  0  0  0  0  0  0  0  0  0  0
   48.2090   31.5260   40.7370 F   0  0  0  0  0  0  0  0  0  0  0  0
   48.6610   29.8520   39.2110 F   0  0  0  0  0  0  0  0  0  0  0  0
   45.6620   34.0320   45.2910 C   0  0  0  0  0  0  0  0  0  0  0  0
   44.7070   35.0650   45.5170 C   0  0  0  0  0  0  0  0  0  0  0  0
   44.5380   35.9910   44.4970 C   0  0  0  0  0  0  0  0  0  0  0  0
   45.2670   35.8780   43.3660 N   0  0  0  0  0  0  0  0  0  0  0  0
   46.1790   34.8630   43.1880 C   0  0  0  0  0  0  0  0  0  0  0  0
   46.3560   33.9580   44.1640 N   0  0  0  0  0  0  0  0  0  0  0  0
   48.4784   36.1896   42.6095 H   0  0  0  0  0  0  0  0  0  0  0  0
   49.7361   35.9808   40.4608 H   0  0  0  0  0  0  0  0  0  0  0  0
   48.9092   34.4939   38.7056 H   0  0  0  0  0  0  0  0  0  0  0  0
   45.5525   34.3012   37.6435 H   0  0  0  0  0  0  0  0  0  0  0  0
   46.8856   33.5430   36.6790 H   0  0  0  0  0  0  0  0  0  0  0  0
   44.4644   32.0766   37.7846 H   0  0  0  0  0  0  0  0  0  0  0  0
   44.6654   32.6702   36.0834 H   0  0  0  0  0  0  0  0  0  0  0  0
   45.3736   30.2660   36.9777 H   0  0  0  0  0  0  0  0  0  0  0  0
   47.6759   30.1489   37.1931 H   0  0  0  0  0  0  0  0  0  0  0  0
   47.8302   31.8723   36.7198 H   0  0  0  0  0  0  0  0  0  0  0  0
   46.2230   31.0861   39.2729 H   0  0  0  0  0  0  0  0  0  0  0  0
   45.8278   33.2758   46.0725 H   0  0  0  0  0  0  0  0  0  0  0  0
   44.1324   35.1256   46.4530 H   0  0  0  0  0  0  0  0  0  0  0  0
   43.8146   36.8120   44.6093 H   0  0  0  0  0  0  0  0  0  0  0  0
  2  1  1  0
  2  3  2  0
  3 22  1  0
  4  3  1  0
  5  4  2  0
  6  7  2  0
  6  5  1  0
  7  2  1  0
  8 13  1  0
  8  7  1  0
  9  8  1  0
 10  9  1  0
 11 10  1  0
 11 12  1  0
 12 13  1  0
 13 14  1  0
 14 16  1  0
 15 14  1  0
 17 14  1  0
 18 19  2  0
 20 19  1  0
 21 20  2  0
 22 21  1  0
 22 23  2  0
 23 18  1  0
  4 24  1  0
  5 25  1  0
  6 26  1  0
  9 27  1  0
  9 28  1  0
 10 29  1  0
 10 30  1  0
 11 31  1  0
 12 32  1  0
 12 33  1  0
 13 34  1  1
 18 35  1  0
 19 36  1  0
 20 37  1  0
M  ISO  8  24  14  25  14  26  14  27  13  28  13  29  13  30  13  31   5
M  ISO  6  32  13  33  13  34  13  35  14  36  14  37  14
M  END
>  <minimizedAffinity>  (1) 
-5.46970606

>  <minimizedRMSD>  (1) 
0.505626559

$$$$
