
     RDKit          3D

 40 43  0  0  0  0  0  0  0  0999 V2000
   47.7850   32.2060   48.3740 C   0  0  0  0  0  0  0  0  0  0  0  0
   47.6020   30.8200   48.3260 C   0  0  0  0  0  0  0  0  0  0  0  0
   46.8470   30.3220   47.3020 C   0  0  0  0  0  0  0  0  0  0  0  0
   46.3240   31.1780   46.3980 N   0  0  0  0  0  0  0  0  0  0  0  0
   46.4920   32.4820   46.4330 C   0  0  0  0  0  0  0  0  0  0  0  0
   47.2330   32.9780   47.4410 N   0  0  0  0  0  0  0  0  0  0  0  0
   46.6000   28.9430   47.1630 N   0  0  0  0  0  0  0  0  0  0  0  0
   45.2600   28.4770   46.8490 C   0  0  0  0  0  0  0  0  0  0  0  0
   44.8100   27.6160   48.0120 C   0  0  0  0  0  0  0  0  0  0  0  0
   45.7750   26.5800   48.3000 N   0  0  0  0  0  0  0  0  0  0  0  0
   46.8570   26.5700   47.3410 C   0  0  0  0  0  0  0  0  0  0  0  0
   47.6020   27.9070   47.3090 C   0  0  0  0  0  0  0  0  0  0  0  0
   46.0190   33.5560   45.5490 C   0  0  0  0  0  0  0  0  0  0  0  0
   45.0290   34.4120   45.8510 N   0  0  0  0  0  0  0  0  0  0  0  0
   44.5730   35.3930   45.0850 C   0  0  0  0  0  0  0  0  0  0  0  0
   45.1290   35.5920   43.8630 N   0  0  0  0  0  0  0  0  0  0  0  0
   46.1290   34.8100   43.4280 C   0  0  0  0  0  0  0  0  0  0  0  0
   46.6880   35.0190   42.1880 C   0  0  0  0  0  0  0  0  0  0  0  0
   47.7100   34.2300   41.7330 C   0  0  0  0  0  0  0  0  0  0  0  0
   48.1560   33.2160   42.5670 C   0  0  0  0  0  0  0  0  0  0  0  0
   47.5710   33.0430   43.7950 C   0  0  0  0  0  0  0  0  0  0  0  0
   46.5400   33.8110   44.2970 C   0  0  0  0  0  0  0  0  0  0  0  0
   48.2070   30.0280   49.3100 N   0  0  0  0  0  0  0  0  0  0  0  0
   48.3830   32.6562   49.1800 H   0  0  0  0  0  0  0  0  0  0  0  0
   44.5805   29.3334   46.7271 H   0  0  0  0  0  0  0  0  0  0  0  0
   45.2519   27.9052   45.9093 H   0  0  0  0  0  0  0  0  0  0  0  0
   44.6886   28.2506   48.9022 H   0  0  0  0  0  0  0  0  0  0  0  0
   43.8564   27.1383   47.7429 H   0  0  0  0  0  0  0  0  0  0  0  0
   46.1646   26.7397   49.2400 H   0  0  0  0  0  0  0  0  0  0  0  0
   47.5659   25.7740   47.6126 H   0  0  0  0  0  0  0  0  0  0  0  0
   46.4277   26.3943   46.3436 H   0  0  0  0  0  0  0  0  0  0  0  0
   48.2986   27.9317   46.4580 H   0  0  0  0  0  0  0  0  0  0  0  0
   48.1888   28.0531   48.2279 H   0  0  0  0  0  0  0  0  0  0  0  0
   43.7538   36.0380   45.4355 H   0  0  0  0  0  0  0  0  0  0  0  0
   46.3078   35.8325   41.5527 H   0  0  0  0  0  0  0  0  0  0  0  0
   48.1605   34.3942   40.7430 H   0  0  0  0  0  0  0  0  0  0  0  0
   48.9740   32.5545   42.2455 H   0  0  0  0  0  0  0  0  0  0  0  0
   47.9529   32.2293   44.4290 H   0  0  0  0  0  0  0  0  0  0  0  0
   48.0858   29.0053   49.2943 H   0  0  0  0  0  0  0  0  0  0  0  0
   48.7731   30.4683   50.0493 H   0  0  0  0  0  0  0  0  0  0  0  0
  2  1  2  0
  2 23  1  0
  3  2  1  0
  4  5  1  0
  4  3  2  0
  5  6  2  0
  6  1  1  0
  7  3  1  0
  7 12  1  0
  8  7  1  0
  8  9  1  0
  9 10  1  0
 11 10  1  0
 12 11  1  0
 13 14  2  0
 13  5  1  0
 15 14  1  0
 16 15  2  0
 17 16  1  0
 17 22  2  0
 18 17  1  0
 19 18  2  0
 19 20  1  0
 20 21  2  0
 21 22  1  0
 22 13  1  0
  1 24  1  0
  8 25  1  0
  8 26  1  0
  9 27  1  0
  9 28  1  0
 10 29  1  0
 11 30  1  0
 11 31  1  0
 12 32  1  0
 12 33  1  0
 15 34  1  0
 18 35  1  0
 19 36  1  0
 20 37  1  0
 21 38  1  0
 23 39  1  0
 23 40  1  0
M  ISO  8  24  14  25  13  26  13  27  13  28  13  29   5  30  13  31  13
M  ISO  7  32  13  33  13  34  14  35  14  36  14  37  14  38  14
M  END
>  <minimizedAffinity>  (1) 
-6.65669823

>  <minimizedRMSD>  (1) 
0.576041162

$$$$
