
     RDKit          3D

 35 38  0  0  0  0  0  0  0  0999 V2000
   47.3370   32.2990   47.9590 C   0  0  0  0  0  0  0  0  0  0  0  0
   46.7960   31.0120   48.0490 C   0  0  0  0  0  0  0  0  0  0  0  0
   45.8700   30.6560   47.1080 C   0  0  0  0  0  0  0  0  0  0  0  0
   45.5360   31.5580   46.1570 N   0  0  0  0  0  0  0  0  0  0  0  0
   46.0400   32.7680   46.0660 C   0  0  0  0  0  0  0  0  0  0  0  0
   46.9360   33.1030   46.9830 N   0  0  0  0  0  0  0  0  0  0  0  0
   45.8010   33.8550   45.1110 C   0  0  0  0  0  0  0  0  0  0  0  0
   44.8700   34.8100   45.2570 N   0  0  0  0  0  0  0  0  0  0  0  0
   44.6190   35.8110   44.4260 C   0  0  0  0  0  0  0  0  0  0  0  0
   45.3570   35.9250   43.2910 N   0  0  0  0  0  0  0  0  0  0  0  0
   46.3270   35.0350   43.0170 C   0  0  0  0  0  0  0  0  0  0  0  0
   47.0720   35.1610   41.8570 C   0  0  0  0  0  0  0  0  0  0  0  0
   48.0670   34.2570   41.5620 C   0  0  0  0  0  0  0  0  0  0  0  0
   48.2850   33.2370   42.4600 C   0  0  0  0  0  0  0  0  0  0  0  0
   47.5170   33.1540   43.5990 C   0  0  0  0  0  0  0  0  0  0  0  0
   46.5060   34.0360   43.9420 C   0  0  0  0  0  0  0  0  0  0  0  0
   45.1950   29.3730   47.0310 C   0  0  0  0  0  0  0  0  0  0  0  0
   44.3400   28.9210   46.0610 C   0  0  0  0  0  0  0  0  0  0  0  0
   43.7160   27.6980   46.0160 C   0  0  0  0  0  0  0  0  0  0  0  0
   43.9460   26.8070   47.0300 C   0  0  0  0  0  0  0  0  0  0  0  0
   44.8020   27.2510   48.0080 C   0  0  0  0  0  0  0  0  0  0  0  0
   45.3700   28.4460   47.9870 N   0  0  0  0  0  0  0  0  0  0  0  0
   47.2370   30.1640   49.0710 N   0  0  0  0  0  0  0  0  0  0  0  0
   48.0860   32.6402   48.6888 H   0  0  0  0  0  0  0  0  0  0  0  0
   43.8254   36.5385   44.6516 H   0  0  0  0  0  0  0  0  0  0  0  0
   46.8669   35.9910   41.1649 H   0  0  0  0  0  0  0  0  0  0  0  0
   48.6654   34.3463   40.6433 H   0  0  0  0  0  0  0  0  0  0  0  0
   49.0702   32.4909   42.2680 H   0  0  0  0  0  0  0  0  0  0  0  0
   47.7220   32.3231   44.2901 H   0  0  0  0  0  0  0  0  0  0  0  0
   44.1308   29.6105   45.2298 H   0  0  0  0  0  0  0  0  0  0  0  0
   43.0457   27.4399   45.1829 H   0  0  0  0  0  0  0  0  0  0  0  0
   43.4804   25.8108   47.0591 H   0  0  0  0  0  0  0  0  0  0  0  0
   45.0265   26.5801   48.8503 H   0  0  0  0  0  0  0  0  0  0  0  0
   46.8505   29.2128   49.1537 H   0  0  0  0  0  0  0  0  0  0  0  0
   47.9481   30.4910   49.7406 H   0  0  0  0  0  0  0  0  0  0  0  0
  1  2  2  0
  2 23  1  0
  3  2  1  0
  4  3  2  0
  5  4  1  0
  5  6  2  0
  6  1  1  0
  7  8  2  0
  7  5  1  0
  9  8  1  0
 10  9  2  0
 11 10  1  0
 11 16  2  0
 12 11  1  0
 13 12  2  0
 13 14  1  0
 14 15  2  0
 15 16  1  0
 16  7  1  0
 17  3  1  0
 17 22  1  0
 18 17  2  0
 19 18  1  0
 19 20  2  0
 20 21  1  0
 22 21  2  0
  1 24  1  0
  9 25  1  0
 12 26  1  0
 13 27  1  0
 14 28  1  0
 15 29  1  0
 18 30  1  0
 19 31  1  0
 20 32  1  0
 21 33  1  0
 23 34  1  0
 23 35  1  0
M  ISO  8  24  14  25  14  26  14  27  14  28  14  29  14  30  14  31  14
M  ISO  2  32  14  33  14
M  END
>  <minimizedAffinity>  (1) 
-6.46583939

>  <minimizedRMSD>  (1) 
0.575007319

$$$$
