
     RDKit          3D

 37 40  0  0  0  0  0  0  0  0999 V2000
   47.6270   32.4640   48.3720 C   0  0  0  0  0  0  0  0  0  0  0  0
   47.3120   31.0970   48.4740 C   0  0  0  0  0  0  0  0  0  0  0  0
   46.4790   30.5700   47.5010 C   0  0  0  0  0  0  0  0  0  0  0  0
   46.0220   31.3680   46.5300 N   0  0  0  0  0  0  0  0  0  0  0  0
   46.3200   32.6640   46.4310 C   0  0  0  0  0  0  0  0  0  0  0  0
   47.1330   33.1820   47.3800 N   0  0  0  0  0  0  0  0  0  0  0  0
   45.9330   33.6850   45.4610 C   0  0  0  0  0  0  0  0  0  0  0  0
   44.9440   34.5950   45.6670 N   0  0  0  0  0  0  0  0  0  0  0  0
   44.5680   35.5470   44.8070 C   0  0  0  0  0  0  0  0  0  0  0  0
   45.1920   35.6610   43.6080 N   0  0  0  0  0  0  0  0  0  0  0  0
   46.1930   34.8170   43.2840 C   0  0  0  0  0  0  0  0  0  0  0  0
   46.8180   34.9300   42.0770 C   0  0  0  0  0  0  0  0  0  0  0  0
   47.8480   34.0730   41.7120 C   0  0  0  0  0  0  0  0  0  0  0  0
   48.2020   33.1110   42.6180 C   0  0  0  0  0  0  0  0  0  0  0  0
   47.5480   33.0280   43.8260 C   0  0  0  0  0  0  0  0  0  0  0  0
   46.5190   33.8630   44.2300 C   0  0  0  0  0  0  0  0  0  0  0  0
   46.9360   28.3190   46.7290 C   0  0  0  0  0  0  0  0  0  0  0  0
   46.0910   29.1630   47.4540 C   0  0  0  0  0  0  0  0  0  0  0  0
   44.9610   28.5650   47.9880 C   0  0  0  0  0  0  0  0  0  0  0  0
   44.7320   27.2230   47.7850 C   0  0  0  0  0  0  0  0  0  0  0  0
   45.5860   26.4110   47.0650 C   0  0  0  0  0  0  0  0  0  0  0  0
   46.7280   26.9730   46.5150 C   0  0  0  0  0  0  0  0  0  0  0  0
   49.1880   29.2280   45.6950 N   0  0  0  0  0  0  0  0  0  0  0  0
   48.1820   28.8210   46.1450 C   0  0  0  0  0  0  0  0  0  0  0  0
   47.8670   30.3460   49.5160 N   0  0  0  0  0  0  0  0  0  0  0  0
   48.2843   32.9346   49.1180 H   0  0  0  0  0  0  0  0  0  0  0  0
   43.7534   36.2372   45.0715 H   0  0  0  0  0  0  0  0  0  0  0  0
   46.4993   35.7169   41.3776 H   0  0  0  0  0  0  0  0  0  0  0  0
   48.3553   34.1634   40.7402 H   0  0  0  0  0  0  0  0  0  0  0  0
   49.0100   32.4033   42.3807 H   0  0  0  0  0  0  0  0  0  0  0  0
   47.8663   32.2391   44.5234 H   0  0  0  0  0  0  0  0  0  0  0  0
   44.2471   29.1625   48.5740 H   0  0  0  0  0  0  0  0  0  0  0  0
   43.8248   26.7756   48.2172 H   0  0  0  0  0  0  0  0  0  0  0  0
   45.3651   25.3418   46.9308 H   0  0  0  0  0  0  0  0  0  0  0  0
   47.4391   26.3695   45.9317 H   0  0  0  0  0  0  0  0  0  0  0  0
   47.6454   29.3439   49.6034 H   0  0  0  0  0  0  0  0  0  0  0  0
   48.4972   30.7952   50.1957 H   0  0  0  0  0  0  0  0  0  0  0  0
  1  2  2  0
  2 25  1  0
  3  2  1  0
  4  3  2  0
  5  4  1  0
  5  6  2  0
  6  1  1  0
  7  8  2  0
  7  5  1  0
  9  8  1  0
 10  9  2  0
 11 10  1  0
 11 16  2  0
 12 11  1  0
 13 12  2  0
 13 14  1  0
 14 15  2  0
 15 16  1  0
 16  7  1  0
 17 18  2  0
 18  3  1  0
 18 19  1  0
 20 19  2  0
 21 20  1  0
 22 17  1  0
 22 21  2  0
 23 24  3  0
 24 17  1  0
  1 26  1  0
  9 27  1  0
 12 28  1  0
 13 29  1  0
 14 30  1  0
 15 31  1  0
 19 32  1  0
 20 33  1  0
 21 34  1  0
 22 35  1  0
 25 36  1  0
 25 37  1  0
M  ISO  8  26  14  27  14  28  14  29  14  30  14  31  14  32  14  33  14
M  ISO  2  34  14  35  14
M  END
>  <minimizedAffinity>  (1) 
-6.16104555

>  <minimizedRMSD>  (1) 
1.24969792

$$$$
