
     RDKit          3D

 28 30  0  0  0  0  0  0  0  0999 V2000
   45.8910   33.7190   45.4070 C   0  0  0  0  0  0  0  0  0  0  0  0
   44.9210   34.6290   45.6560 N   0  0  0  0  0  0  0  0  0  0  0  0
   44.5430   35.6160   44.8510 C   0  0  0  0  0  0  0  0  0  0  0  0
   45.1600   35.7580   43.6600 N   0  0  0  0  0  0  0  0  0  0  0  0
   46.1430   34.9170   43.2890 C   0  0  0  0  0  0  0  0  0  0  0  0
   46.7680   35.0750   42.0640 C   0  0  0  0  0  0  0  0  0  0  0  0
   47.7770   34.2230   41.6710 C   0  0  0  0  0  0  0  0  0  0  0  0
   48.1310   33.2160   42.5420 C   0  0  0  0  0  0  0  0  0  0  0  0
   47.4780   33.1000   43.7530 C   0  0  0  0  0  0  0  0  0  0  0  0
   46.4770   33.9220   44.1810 C   0  0  0  0  0  0  0  0  0  0  0  0
   47.6680   32.3090   48.1840 C   0  0  0  0  0  0  0  0  0  0  0  0
   47.2880   30.9860   48.2960 C   0  0  0  0  0  0  0  0  0  0  0  0
   46.3770   30.5460   47.3780 C   0  0  0  0  0  0  0  0  0  0  0  0
   45.8980   31.3770   46.4340 N   0  0  0  0  0  0  0  0  0  0  0  0
   46.2700   32.6450   46.3360 C   0  0  0  0  0  0  0  0  0  0  0  0
   47.1680   33.0830   47.2390 N   0  0  0  0  0  0  0  0  0  0  0  0
   45.9110   29.2260   47.3820 N   0  0  0  0  0  0  0  0  0  0  0  0
   47.8200   30.1590   49.3010 N   0  0  0  0  0  0  0  0  0  0  0  0
   43.7403   36.3058   45.1507 H   0  0  0  0  0  0  0  0  0  0  0  0
   46.4552   35.8910   41.3959 H   0  0  0  0  0  0  0  0  0  0  0  0
   48.2801   34.3421   40.7001 H   0  0  0  0  0  0  0  0  0  0  0  0
   48.9294   32.5083   42.2742 H   0  0  0  0  0  0  0  0  0  0  0  0
   47.7880   32.2841   44.4224 H   0  0  0  0  0  0  0  0  0  0  0  0
   48.3989   32.7242   48.8935 H   0  0  0  0  0  0  0  0  0  0  0  0
   45.2238   28.9203   46.6782 H   0  0  0  0  0  0  0  0  0  0  0  0
   46.2553   28.5605   48.0887 H   0  0  0  0  0  0  0  0  0  0  0  0
   47.5240   29.1747   49.3682 H   0  0  0  0  0  0  0  0  0  0  0  0
   48.5057   30.5375   49.9700 H   0  0  0  0  0  0  0  0  0  0  0  0
  1  2  2  0
  1 15  1  0
  3  2  1  0
  4  3  2  0
  5  4  1  0
  5 10  2  0
  6  5  1  0
  7  6  2  0
  7  8  1  0
  8  9  2  0
  9 10  1  0
 10  1  1  0
 11 12  2  0
 12 18  1  0
 13 17  1  0
 13 12  1  0
 14 13  2  0
 15 14  1  0
 15 16  2  0
 16 11  1  0
  3 19  1  0
  6 20  1  0
  7 21  1  0
  8 22  1  0
  9 23  1  0
 11 24  1  0
 17 25  1  0
 17 26  1  0
 18 27  1  0
 18 28  1  0
M  ISO  6  19  14  20  14  21  14  22  14  23  14  24  14
M  END
>  <minimizedAffinity>  (1) 
-5.73699284

>  <minimizedRMSD>  (1) 
0.0162912458

$$$$
