
     RDKit          3D

 39 42  0  0  0  0  0  0  0  0999 V2000
   47.3460   32.1850   47.8720 C   0  0  0  0  0  0  0  0  0  0  0  0
   46.8140   30.9050   47.9220 C   0  0  0  0  0  0  0  0  0  0  0  0
   45.8840   30.5860   46.9670 C   0  0  0  0  0  0  0  0  0  0  0  0
   45.5310   31.4870   46.0510 N   0  0  0  0  0  0  0  0  0  0  0  0
   46.0340   32.7030   45.9980 C   0  0  0  0  0  0  0  0  0  0  0  0
   46.9460   33.0320   46.9270 N   0  0  0  0  0  0  0  0  0  0  0  0
   45.3010   29.3290   46.9570 N   0  0  0  0  0  0  0  0  0  0  0  0
   44.1500   28.9500   46.1030 C   0  0  0  0  0  0  0  0  0  0  0  0
   44.0570   27.4460   46.2010 C   0  0  0  0  0  0  0  0  0  0  0  0
   44.6010   27.1870   47.5820 C   0  0  0  0  0  0  0  0  0  0  0  0
   45.6820   28.1930   47.7390 C   0  0  0  0  0  0  0  0  0  0  0  0
   45.7850   33.8350   45.0680 C   0  0  0  0  0  0  0  0  0  0  0  0
   44.8750   34.7990   45.2900 N   0  0  0  0  0  0  0  0  0  0  0  0
   44.6350   35.8160   44.4780 C   0  0  0  0  0  0  0  0  0  0  0  0
   45.3330   35.9420   43.3250 N   0  0  0  0  0  0  0  0  0  0  0  0
   46.2650   35.0450   42.9930 C   0  0  0  0  0  0  0  0  0  0  0  0
   46.9700   35.1820   41.8150 C   0  0  0  0  0  0  0  0  0  0  0  0
   47.9300   34.2680   41.4630 C   0  0  0  0  0  0  0  0  0  0  0  0
   48.1640   33.2110   42.3280 C   0  0  0  0  0  0  0  0  0  0  0  0
   47.4370   33.1190   43.4880 C   0  0  0  0  0  0  0  0  0  0  0  0
   46.4650   34.0160   43.8780 C   0  0  0  0  0  0  0  0  0  0  0  0
   47.7170   32.0330   44.3200 O   0  0  0  0  0  0  0  0  0  0  0  0
   47.2550   30.0270   48.9170 N   0  0  0  0  0  0  0  0  0  0  0  0
   48.0969   32.4992   48.6119 H   0  0  0  0  0  0  0  0  0  0  0  0
   44.3254   29.2578   45.0616 H   0  0  0  0  0  0  0  0  0  0  0  0
   43.2202   29.4397   46.4281 H   0  0  0  0  0  0  0  0  0  0  0  0
   43.0156   27.1034   46.1111 H   0  0  0  0  0  0  0  0  0  0  0  0
   44.5993   26.9156   45.4044 H   0  0  0  0  0  0  0  0  0  0  0  0
   43.8198   27.3310   48.3429 H   0  0  0  0  0  0  0  0  0  0  0  0
   44.9622   26.1556   47.7073 H   0  0  0  0  0  0  0  0  0  0  0  0
   46.6362   27.7845   47.3749 H   0  0  0  0  0  0  0  0  0  0  0  0
   45.8182   28.4668   48.7956 H   0  0  0  0  0  0  0  0  0  0  0  0
   43.8678   36.5595   44.7401 H   0  0  0  0  0  0  0  0  0  0  0  0
   46.7599   36.0334   41.1510 H   0  0  0  0  0  0  0  0  0  0  0  0
   48.4955   34.3706   40.5251 H   0  0  0  0  0  0  0  0  0  0  0  0
   48.9246   32.4537   42.0872 H   0  0  0  0  0  0  0  0  0  0  0  0
   47.2211   31.9193   45.1693 H   0  0  0  0  0  0  0  0  0  0  0  0
   46.8708   29.0728   48.9690 H   0  0  0  0  0  0  0  0  0  0  0  0
   47.9641   30.3345   49.5979 H   0  0  0  0  0  0  0  0  0  0  0  0
  1  2  2  0
  2 23  1  0
  3  2  1  0
  4  3  2  0
  5  4  1  0
  5  6  2  0
  6  1  1  0
  7  3  1  0
  7 11  1  0
  8  9  1  0
  8  7  1  0
  9 10  1  0
 10 11  1  0
 12 13  2  0
 12  5  1  0
 14 13  1  0
 15 14  2  0
 16 15  1  0
 16 21  2  0
 17 16  1  0
 18 17  2  0
 18 19  1  0
 19 20  2  0
 20 21  1  0
 20 22  1  0
 21 12  1  0
  1 24  1  0
  8 25  1  0
  8 26  1  0
  9 27  1  0
  9 28  1  0
 10 29  1  0
 10 30  1  0
 11 31  1  0
 11 32  1  0
 14 33  1  0
 17 34  1  0
 18 35  1  0
 19 36  1  0
 22 37  1  0
 23 38  1  0
 23 39  1  0
M  ISO  8  24  14  25  13  26  13  27  13  28  13  29  13  30  13  31  13
M  ISO  6  32  13  33  14  34  14  35  14  36  14  37   3
M  END
>  <minimizedAffinity>  (1) 
-6.47731066

>  <minimizedRMSD>  (1) 
0.130102217

$$$$
