
     RDKit          3D

 48 52  0  0  0  0  0  0  0  0999 V2000
   45.7010   33.6830   45.2280 C   0  0  0  0  0  0  0  0  0  0  0  0
   44.9420   34.7190   45.6770 N   0  0  0  0  0  0  0  0  0  0  0  0
   44.6390   35.8070   44.9710 C   0  0  0  0  0  0  0  0  0  0  0  0
   45.1050   35.9290   43.7050 N   0  0  0  0  0  0  0  0  0  0  0  0
   45.8720   34.9580   43.1540 C   0  0  0  0  0  0  0  0  0  0  0  0
   46.3270   35.1080   41.8760 C   0  0  0  0  0  0  0  0  0  0  0  0
   47.1050   34.1300   41.3050 C   0  0  0  0  0  0  0  0  0  0  0  0
   47.4000   33.0090   42.0700 C   0  0  0  0  0  0  0  0  0  0  0  0
   46.9030   32.9270   43.3580 C   0  0  0  0  0  0  0  0  0  0  0  0
   46.1330   33.8760   43.9490 C   0  0  0  0  0  0  0  0  0  0  0  0
   47.5010   31.8220   47.7320 C   0  0  0  0  0  0  0  0  0  0  0  0
   46.9360   30.5590   47.7750 C   0  0  0  0  0  0  0  0  0  0  0  0
   45.8970   30.3330   46.9360 C   0  0  0  0  0  0  0  0  0  0  0  0
   45.4630   31.2950   46.1130 N   0  0  0  0  0  0  0  0  0  0  0  0
   46.0020   32.5160   46.0560 C   0  0  0  0  0  0  0  0  0  0  0  0
   47.0300   32.7420   46.8950 N   0  0  0  0  0  0  0  0  0  0  0  0
   45.2420   29.1070   46.9190 N   0  0  0  0  0  0  0  0  0  0  0  0
   43.9780   28.8200   46.2110 C   0  0  0  0  0  0  0  0  0  0  0  0
   43.8080   27.3310   46.2640 C   0  0  0  0  0  0  0  0  0  0  0  0
   44.5410   26.9520   47.5240 C   0  0  0  0  0  0  0  0  0  0  0  0
   45.6750   27.9160   47.5880 C   0  0  0  0  0  0  0  0  0  0  0  0
   47.5060   29.5870   48.5850 N   0  0  0  0  0  0  0  0  0  0  0  0
   44.9460   30.9460   42.4660 Cl  0  0  0  0  0  0  0  0  0  0  0  0
   46.4430   30.6420   43.3640 C   0  0  0  0  0  0  0  0  0  0  0  0
   47.3630   31.6220   43.8110 C   0  0  0  0  0  0  0  0  0  0  0  0
   48.4650   31.1390   44.4930 C   0  0  0  0  0  0  0  0  0  0  0  0
   48.6770   29.8030   44.7330 C   0  0  0  0  0  0  0  0  0  0  0  0
   47.7800   28.8550   44.2950 C   0  0  0  0  0  0  0  0  0  0  0  0
   46.6630   29.2810   43.6100 C   0  0  0  0  0  0  0  0  0  0  0  0
   45.5730   28.0160   43.0870 Cl  0  0  0  0  0  0  0  0  0  0  0  0
   44.0161   36.5992   45.4120 H   0  0  0  0  0  0  0  0  0  0  0  0
   46.0709   36.0116   41.3033 H   0  0  0  0  0  0  0  0  0  0  0  0
   47.4816   34.2315   40.2765 H   0  0  0  0  0  0  0  0  0  0  0  0
   48.0194   32.1988   41.6578 H   0  0  0  0  0  0  0  0  0  0  0  0
   48.3447   32.0662   48.3942 H   0  0  0  0  0  0  0  0  0  0  0  0
   44.0377   29.1616   45.1671 H   0  0  0  0  0  0  0  0  0  0  0  0
   43.1274   29.3410   46.6746 H   0  0  0  0  0  0  0  0  0  0  0  0
   42.7447   27.0563   46.3271 H   0  0  0  0  0  0  0  0  0  0  0  0
   44.1902   26.8185   45.3688 H   0  0  0  0  0  0  0  0  0  0  0  0
   43.8879   27.0583   48.4028 H   0  0  0  0  0  0  0  0  0  0  0  0
   44.8769   25.9045   47.5185 H   0  0  0  0  0  0  0  0  0  0  0  0
   46.5576   27.4970   47.0826 H   0  0  0  0  0  0  0  0  0  0  0  0
   45.9557   28.1277   48.6303 H   0  0  0  0  0  0  0  0  0  0  0  0
   47.0943   28.6437   48.6251 H   0  0  0  0  0  0  0  0  0  0  0  0
   48.3408   29.8089   49.1461 H   0  0  0  0  0  0  0  0  0  0  0  0
   49.2089   31.8606   44.8617 H   0  0  0  0  0  0  0  0  0  0  0  0
   49.5757   29.4865   45.2826 H   0  0  0  0  0  0  0  0  0  0  0  0
   47.9506   27.7854   44.4869 H   0  0  0  0  0  0  0  0  0  0  0  0
  1  2  2  0
  1 15  1  0
  3  2  1  0
  4  3  2  0
  5  4  1  0
  5 10  2  0
  6  5  1  0
  7  6  2  0
  7  8  1  0
  8  9  2  0
  9 25  1  0
  9 10  1  0
 10  1  1  0
 11 12  2  0
 12 22  1  0
 13 12  1  0
 14 13  2  0
 15 14  1  0
 15 16  2  0
 16 11  1  0
 17 13  1  0
 17 21  1  0
 18 19  1  0
 18 17  1  0
 19 20  1  0
 20 21  1  0
 23 24  1  0
 24 29  2  0
 24 25  1  0
 25 26  2  0
 26 27  1  0
 28 27  2  0
 29 28  1  0
 30 29  1  0
  3 31  1  0
  6 32  1  0
  7 33  1  0
  8 34  1  0
 11 35  1  0
 18 36  1  0
 18 37  1  0
 19 38  1  0
 19 39  1  0
 20 40  1  0
 20 41  1  0
 21 42  1  0
 21 43  1  0
 22 44  1  0
 22 45  1  0
 26 46  1  0
 27 47  1  0
 28 48  1  0
M  ISO  8  31  14  32  14  33  14  34  14  35  14  36  13  37  13  38  13
M  ISO  8  39  13  40  13  41  13  42  13  43  13  46  14  47  14  48  14
M  END
>  <minimizedAffinity>  (1) 
-6.14419174

>  <minimizedRMSD>  (1) 
0.709827423

$$$$
