
     RDKit          3D

 44 47  0  0  0  0  0  0  0  0999 V2000
   47.4530   32.0810   47.8470 C   0  0  0  0  0  0  0  0  0  0  0  0
   46.9230   30.7980   47.8880 C   0  0  0  0  0  0  0  0  0  0  0  0
   45.9530   30.5130   46.9810 C   0  0  0  0  0  0  0  0  0  0  0  0
   45.5480   31.4440   46.0960 N   0  0  0  0  0  0  0  0  0  0  0  0
   46.0500   32.6600   46.0510 C   0  0  0  0  0  0  0  0  0  0  0  0
   47.0090   32.9620   46.9430 N   0  0  0  0  0  0  0  0  0  0  0  0
   45.3460   29.2670   46.9620 N   0  0  0  0  0  0  0  0  0  0  0  0
   44.1420   28.9210   46.1730 C   0  0  0  0  0  0  0  0  0  0  0  0
   43.9950   27.4310   46.2870 C   0  0  0  0  0  0  0  0  0  0  0  0
   44.7130   27.0880   47.5460 C   0  0  0  0  0  0  0  0  0  0  0  0
   45.7700   28.1140   47.7010 C   0  0  0  0  0  0  0  0  0  0  0  0
   45.7680   33.8110   45.1630 C   0  0  0  0  0  0  0  0  0  0  0  0
   44.8660   34.7650   45.4470 N   0  0  0  0  0  0  0  0  0  0  0  0
   44.5990   35.8080   44.6650 C   0  0  0  0  0  0  0  0  0  0  0  0
   45.2480   35.9680   43.4990 N   0  0  0  0  0  0  0  0  0  0  0  0
   46.1770   35.0810   43.0980 C   0  0  0  0  0  0  0  0  0  0  0  0
   46.8390   35.2450   41.9080 C   0  0  0  0  0  0  0  0  0  0  0  0
   47.7790   34.3500   41.4960 C   0  0  0  0  0  0  0  0  0  0  0  0
   48.0440   33.2700   42.3190 C   0  0  0  0  0  0  0  0  0  0  0  0
   47.3620   33.1390   43.5050 C   0  0  0  0  0  0  0  0  0  0  0  0
   46.4060   34.0200   43.9580 C   0  0  0  0  0  0  0  0  0  0  0  0
   47.6580   32.0340   44.3070 O   0  0  0  0  0  0  0  0  0  0  0  0
   49.6650   30.8560   43.1060 O   0  0  0  0  0  0  0  0  0  0  0  0
   48.2630   30.5760   43.6450 P   0  0  0  0  0  0  0  0  0  0  0  0
   48.3140   29.4250   44.8880 O   0  0  0  0  0  0  0  0  0  0  0  0
   47.3310   30.0390   42.3470 O   0  0  0  0  0  0  0  0  0  0  0  0
   47.4360   29.8900   48.8040 N   0  0  0  0  0  0  0  0  0  0  0  0
   48.2390   32.3734   48.5588 H   0  0  0  0  0  0  0  0  0  0  0  0
   44.2757   29.2137   45.1211 H   0  0  0  0  0  0  0  0  0  0  0  0
   43.2494   29.4463   46.5435 H   0  0  0  0  0  0  0  0  0  0  0  0
   42.9342   27.1476   46.3533 H   0  0  0  0  0  0  0  0  0  0  0  0
   44.3999   26.8997   45.4131 H   0  0  0  0  0  0  0  0  0  0  0  0
   44.0219   27.1180   48.4013 H   0  0  0  0  0  0  0  0  0  0  0  0
   45.1365   26.0736   47.5067 H   0  0  0  0  0  0  0  0  0  0  0  0
   46.7231   27.7381   47.3006 H   0  0  0  0  0  0  0  0  0  0  0  0
   45.9240   28.3621   48.7615 H   0  0  0  0  0  0  0  0  0  0  0  0
   43.8424   36.5439   44.9748 H   0  0  0  0  0  0  0  0  0  0  0  0
   46.6066   36.1145   41.2755 H   0  0  0  0  0  0  0  0  0  0  0  0
   48.3095   34.4813   40.5414 H   0  0  0  0  0  0  0  0  0  0  0  0
   48.7951   32.5216   42.0263 H   0  0  0  0  0  0  0  0  0  0  0  0
   48.2936   29.8848   45.7645 H   0  0  0  0  0  0  0  0  0  0  0  0
   46.5258   29.5751   42.6885 H   0  0  0  0  0  0  0  0  0  0  0  0
   47.0559   28.9338   48.8494 H   0  0  0  0  0  0  0  0  0  0  0  0
   48.1968   30.1724   49.4383 H   0  0  0  0  0  0  0  0  0  0  0  0
  1  2  2  0
  2 27  1  0
  3  2  1  0
  4  3  2  0
  5  4  1  0
  5  6  2  0
  6  1  1  0
  7  3  1  0
  7 11  1  0
  8  9  1  0
  8  7  1  0
  9 10  1  0
 10 11  1  0
 12 13  2  0
 12  5  1  0
 14 13  1  0
 15 14  2  0
 16 15  1  0
 16 21  2  0
 17 16  1  0
 18 17  2  0
 18 19  1  0
 19 20  2  0
 20 21  1  0
 20 22  1  0
 21 12  1  0
 23 24  2  0
 24 22  1  0
 24 25  1  0
 26 24  1  0
  1 28  1  0
  8 29  1  0
  8 30  1  0
  9 31  1  0
  9 32  1  0
 10 33  1  0
 10 34  1  0
 11 35  1  0
 11 36  1  0
 14 37  1  0
 17 38  1  0
 18 39  1  0
 19 40  1  0
 25 41  1  0
 26 42  1  0
 27 43  1  0
 27 44  1  0
M  ISO  8  28  14  29  13  30  13  31  13  32  13  33  13  34  13  35  13
M  ISO  7  36  13  37  14  38  14  39  14  40  14  41   3  42   3
M  END
>  <minimizedAffinity>  (1) 
-6.19826269

>  <minimizedRMSD>  (1) 
0.301727444

$$$$
