
     RDKit          3D

 41 44  0  0  0  0  0  0  0  0999 V2000
   47.3700   32.0570   47.8710 C   0  0  0  0  0  0  0  0  0  0  0  0
   46.8870   30.7710   47.9010 C   0  0  0  0  0  0  0  0  0  0  0  0
   45.9450   30.4620   46.9790 C   0  0  0  0  0  0  0  0  0  0  0  0
   45.5440   31.3770   46.0940 N   0  0  0  0  0  0  0  0  0  0  0  0
   46.0190   32.6350   46.0400 C   0  0  0  0  0  0  0  0  0  0  0  0
   46.9410   32.9120   46.9870 N   0  0  0  0  0  0  0  0  0  0  0  0
   45.3290   29.2200   46.9390 N   0  0  0  0  0  0  0  0  0  0  0  0
   44.1140   28.8760   46.2020 C   0  0  0  0  0  0  0  0  0  0  0  0
   43.9860   27.3760   46.2780 C   0  0  0  0  0  0  0  0  0  0  0  0
   44.7100   27.0280   47.5390 C   0  0  0  0  0  0  0  0  0  0  0  0
   45.7890   28.0440   47.6570 C   0  0  0  0  0  0  0  0  0  0  0  0
   45.7480   33.7860   45.2200 C   0  0  0  0  0  0  0  0  0  0  0  0
   44.9040   34.7610   45.6270 N   0  0  0  0  0  0  0  0  0  0  0  0
   44.5600   35.8340   44.9050 C   0  0  0  0  0  0  0  0  0  0  0  0
   45.0820   35.9800   43.6610 N   0  0  0  0  0  0  0  0  0  0  0  0
   45.9240   35.0670   43.1760 C   0  0  0  0  0  0  0  0  0  0  0  0
   46.3650   35.1850   41.8780 C   0  0  0  0  0  0  0  0  0  0  0  0
   47.1500   34.1970   41.3350 C   0  0  0  0  0  0  0  0  0  0  0  0
   47.4740   33.1090   42.1370 C   0  0  0  0  0  0  0  0  0  0  0  0
   47.0230   33.0390   43.4110 C   0  0  0  0  0  0  0  0  0  0  0  0
   46.2420   33.9880   43.9670 C   0  0  0  0  0  0  0  0  0  0  0  0
   47.5800   31.8020   44.0030 C   0  0  0  0  0  0  0  0  0  0  0  0
   48.0010   30.8360   43.1730 F   0  0  0  0  0  0  0  0  0  0  0  0
   47.9390   31.8780   45.3060 F   0  0  0  0  0  0  0  0  0  0  0  0
   46.5150   30.9460   44.4150 F   0  0  0  0  0  0  0  0  0  0  0  0
   47.4660   29.8180   48.7440 N   0  0  0  0  0  0  0  0  0  0  0  0
   48.1292   32.3687   48.6034 H   0  0  0  0  0  0  0  0  0  0  0  0
   44.1996   29.1987   45.1539 H   0  0  0  0  0  0  0  0  0  0  0  0
   43.2317   29.3755   46.6286 H   0  0  0  0  0  0  0  0  0  0  0  0
   42.9299   27.0738   46.3347 H   0  0  0  0  0  0  0  0  0  0  0  0
   44.3954   26.8655   45.3938 H   0  0  0  0  0  0  0  0  0  0  0  0
   44.0308   27.0835   48.4025 H   0  0  0  0  0  0  0  0  0  0  0  0
   45.1087   26.0030   47.5168 H   0  0  0  0  0  0  0  0  0  0  0  0
   46.7189   27.6645   47.2084 H   0  0  0  0  0  0  0  0  0  0  0  0
   46.0005   28.2789   48.7106 H   0  0  0  0  0  0  0  0  0  0  0  0
   43.8665   36.5842   45.3127 H   0  0  0  0  0  0  0  0  0  0  0  0
   46.0905   36.0655   41.2785 H   0  0  0  0  0  0  0  0  0  0  0  0
   47.5108   34.2648   40.2981 H   0  0  0  0  0  0  0  0  0  0  0  0
   48.1008   32.3000   41.7337 H   0  0  0  0  0  0  0  0  0  0  0  0
   47.0993   28.8556   48.7619 H   0  0  0  0  0  0  0  0  0  0  0  0
   48.2593   30.0782   49.3473 H   0  0  0  0  0  0  0  0  0  0  0  0
  1  2  2  0
  2 26  1  0
  3  2  1  0
  4  3  2  0
  5  4  1  0
  5  6  2  0
  6  1  1  0
  7  3  1  0
  7 11  1  0
  8  9  1  0
  8  7  1  0
  9 10  1  0
 10 11  1  0
 12 13  2  0
 12  5  1  0
 14 13  1  0
 15 14  2  0
 16 15  1  0
 16 21  2  0
 17 16  1  0
 18 17  2  0
 18 19  1  0
 19 20  2  0
 20 21  1  0
 20 22  1  0
 21 12  1  0
 22 25  1  0
 22 24  1  0
 23 22  1  0
  1 27  1  0
  8 28  1  0
  8 29  1  0
  9 30  1  0
  9 31  1  0
 10 32  1  0
 10 33  1  0
 11 34  1  0
 11 35  1  0
 14 36  1  0
 17 37  1  0
 18 38  1  0
 19 39  1  0
 26 40  1  0
 26 41  1  0
M  ISO  8  27  14  28  13  29  13  30  13  31  13  32  13  33  13  34  13
M  ISO  5  35  13  36  14  37  14  38  14  39  14
M  END
>  <minimizedAffinity>  (1) 
-6.34901428

>  <minimizedRMSD>  (1) 
0.577029705

$$$$
