
     RDKit          3D

 40 43  0  0  0  0  0  0  0  0999 V2000
   47.4500   32.0670   47.8610 C   0  0  0  0  0  0  0  0  0  0  0  0
   46.9250   30.7830   47.9030 C   0  0  0  0  0  0  0  0  0  0  0  0
   45.9480   30.4930   46.9960 C   0  0  0  0  0  0  0  0  0  0  0  0
   45.5400   31.4190   46.1190 N   0  0  0  0  0  0  0  0  0  0  0  0
   46.0410   32.6470   46.0710 C   0  0  0  0  0  0  0  0  0  0  0  0
   47.0000   32.9460   46.9610 N   0  0  0  0  0  0  0  0  0  0  0  0
   45.3490   29.2430   46.9760 N   0  0  0  0  0  0  0  0  0  0  0  0
   44.1420   28.8980   46.1900 C   0  0  0  0  0  0  0  0  0  0  0  0
   44.0210   27.3970   46.2760 C   0  0  0  0  0  0  0  0  0  0  0  0
   44.6670   27.0920   47.6030 C   0  0  0  0  0  0  0  0  0  0  0  0
   45.7740   28.0790   47.7010 C   0  0  0  0  0  0  0  0  0  0  0  0
   45.7580   33.8000   45.1820 C   0  0  0  0  0  0  0  0  0  0  0  0
   44.8800   34.7720   45.4860 N   0  0  0  0  0  0  0  0  0  0  0  0
   44.6060   35.8170   44.7150 C   0  0  0  0  0  0  0  0  0  0  0  0
   45.2310   35.9580   43.5200 N   0  0  0  0  0  0  0  0  0  0  0  0
   46.1230   35.0550   43.1080 C   0  0  0  0  0  0  0  0  0  0  0  0
   46.7650   35.1920   41.8890 C   0  0  0  0  0  0  0  0  0  0  0  0
   47.6820   34.2730   41.4550 C   0  0  0  0  0  0  0  0  0  0  0  0
   47.9450   33.1990   42.2800 C   0  0  0  0  0  0  0  0  0  0  0  0
   47.2790   33.1000   43.4930 C   0  0  0  0  0  0  0  0  0  0  0  0
   46.3640   33.9920   43.9570 C   0  0  0  0  0  0  0  0  0  0  0  0
   47.6700   31.9310   44.2040 N   0  0  0  0  0  0  0  0  0  0  0  0
   47.4580   29.8670   48.7920 N   0  0  0  0  0  0  0  0  0  0  0  0
   48.2379   32.3615   48.5698 H   0  0  0  0  0  0  0  0  0  0  0  0
   44.2612   29.2148   45.1434 H   0  0  0  0  0  0  0  0  0  0  0  0
   43.2446   29.4028   46.5772 H   0  0  0  0  0  0  0  0  0  0  0  0
   42.9671   27.0821   46.2654 H   0  0  0  0  0  0  0  0  0  0  0  0
   44.4878   26.8707   45.4303 H   0  0  0  0  0  0  0  0  0  0  0  0
   43.9501   27.2258   48.4265 H   0  0  0  0  0  0  0  0  0  0  0  0
   45.0200   26.0525   47.6724 H   0  0  0  0  0  0  0  0  0  0  0  0
   46.6909   27.6670   47.2542 H   0  0  0  0  0  0  0  0  0  0  0  0
   45.9966   28.3236   48.7501 H   0  0  0  0  0  0  0  0  0  0  0  0
   43.8728   36.5677   45.0450 H   0  0  0  0  0  0  0  0  0  0  0  0
   46.5327   36.0598   41.2543 H   0  0  0  0  0  0  0  0  0  0  0  0
   48.1896   34.3865   40.4858 H   0  0  0  0  0  0  0  0  0  0  0  0
   48.6733   32.4312   41.9799 H   0  0  0  0  0  0  0  0  0  0  0  0
   47.2562   31.7256   45.1246 H   0  0  0  0  0  0  0  0  0  0  0  0
   48.3668   31.2903   43.7981 H   0  0  0  0  0  0  0  0  0  0  0  0
   47.0789   28.9102   48.8348 H   0  0  0  0  0  0  0  0  0  0  0  0
   48.2339   30.1417   49.4112 H   0  0  0  0  0  0  0  0  0  0  0  0
  1  2  2  0
  2 23  1  0
  3  2  1  0
  4  3  2  0
  5  4  1  0
  5  6  2  0
  6  1  1  0
  7  3  1  0
  7 11  1  0
  8  9  1  0
  8  7  1  0
  9 10  1  0
 10 11  1  0
 12 13  2  0
 12  5  1  0
 14 13  1  0
 15 14  2  0
 16 15  1  0
 16 21  2  0
 17 16  1  0
 18 17  2  0
 18 19  1  0
 19 20  2  0
 20 21  1  0
 20 22  1  0
 21 12  1  0
  1 24  1  0
  8 25  1  0
  8 26  1  0
  9 27  1  0
  9 28  1  0
 10 29  1  0
 10 30  1  0
 11 31  1  0
 11 32  1  0
 14 33  1  0
 17 34  1  0
 18 35  1  0
 19 36  1  0
 22 37  1  0
 22 38  1  0
 23 39  1  0
 23 40  1  0
M  ISO  8  24  14  25  13  26  13  27  13  28  13  29  13  30  13  31  13
M  ISO  5  32  13  33  14  34  14  35  14  36  14
M  END
>  <minimizedAffinity>  (1) 
-6.45377207

>  <minimizedRMSD>  (1) 
0.250913531

$$$$
