
     RDKit          3D

 47 51  0  0  0  0  0  0  0  0999 V2000
   45.7820   33.8300   45.0760 C   0  0  0  0  0  0  0  0  0  0  0  0
   44.8600   34.7710   45.2870 N   0  0  0  0  0  0  0  0  0  0  0  0
   44.6220   35.8060   44.4920 C   0  0  0  0  0  0  0  0  0  0  0  0
   45.3450   35.9690   43.3620 N   0  0  0  0  0  0  0  0  0  0  0  0
   46.3020   35.1000   43.0290 C   0  0  0  0  0  0  0  0  0  0  0  0
   47.0530   35.2540   41.8800 C   0  0  0  0  0  0  0  0  0  0  0  0
   48.0300   34.3760   41.5390 C   0  0  0  0  0  0  0  0  0  0  0  0
   48.2540   33.3130   42.3850 C   0  0  0  0  0  0  0  0  0  0  0  0
   47.4890   33.1810   43.5270 C   0  0  0  0  0  0  0  0  0  0  0  0
   46.4980   34.0390   43.9060 C   0  0  0  0  0  0  0  0  0  0  0  0
   47.3570   32.1230   47.8520 C   0  0  0  0  0  0  0  0  0  0  0  0
   46.8340   30.8250   47.8600 C   0  0  0  0  0  0  0  0  0  0  0  0
   45.9010   30.5330   46.8980 C   0  0  0  0  0  0  0  0  0  0  0  0
   45.5410   31.4590   46.0160 N   0  0  0  0  0  0  0  0  0  0  0  0
   46.0230   32.6860   45.9850 C   0  0  0  0  0  0  0  0  0  0  0  0
   46.9410   33.0020   46.9260 N   0  0  0  0  0  0  0  0  0  0  0  0
   45.3300   29.2810   46.8720 N   0  0  0  0  0  0  0  0  0  0  0  0
   44.1900   28.9030   45.9890 C   0  0  0  0  0  0  0  0  0  0  0  0
   44.0760   27.4140   46.0750 C   0  0  0  0  0  0  0  0  0  0  0  0
   44.6410   27.1040   47.4160 C   0  0  0  0  0  0  0  0  0  0  0  0
   45.6890   28.1380   47.6560 C   0  0  0  0  0  0  0  0  0  0  0  0
   47.3310   29.9450   48.7800 N   0  0  0  0  0  0  0  0  0  0  0  0
   49.3060   32.3700   42.0160 C   0  0  0  0  0  0  0  0  0  0  0  0
   50.6470   32.5920   41.9520 C   0  0  0  0  0  0  0  0  0  0  0  0
   51.2990   31.4480   41.5630 C   0  0  0  0  0  0  0  0  0  0  0  0
   50.3340   30.5340   41.3940 N   0  0  0  0  0  0  0  0  0  0  0  0
   49.1720   31.0670   41.6570 N   0  0  0  0  0  0  0  0  0  0  0  0
   47.8500   32.0210   44.2720 N   0  0  0  0  0  0  0  0  0  0  0  0
   43.8367   36.5310   44.7524 H   0  0  0  0  0  0  0  0  0  0  0  0
   46.8534   36.1130   41.2225 H   0  0  0  0  0  0  0  0  0  0  0  0
   48.6210   34.5086   40.6208 H   0  0  0  0  0  0  0  0  0  0  0  0
   48.1054   32.4218   48.6008 H   0  0  0  0  0  0  0  0  0  0  0  0
   44.3912   29.2114   44.9525 H   0  0  0  0  0  0  0  0  0  0  0  0
   43.2580   29.3965   46.3018 H   0  0  0  0  0  0  0  0  0  0  0  0
   43.0256   27.0947   46.0066 H   0  0  0  0  0  0  0  0  0  0  0  0
   44.5977   26.8946   45.2577 H   0  0  0  0  0  0  0  0  0  0  0  0
   43.8580   27.1643   48.1863 H   0  0  0  0  0  0  0  0  0  0  0  0
   45.0551   26.0858   47.4588 H   0  0  0  0  0  0  0  0  0  0  0  0
   46.6734   27.7589   47.3441 H   0  0  0  0  0  0  0  0  0  0  0  0
   45.7519   28.3957   48.7235 H   0  0  0  0  0  0  0  0  0  0  0  0
   46.9712   28.9806   48.8169 H   0  0  0  0  0  0  0  0  0  0  0  0
   48.0653   30.2462   49.4365 H   0  0  0  0  0  0  0  0  0  0  0  0
   51.1379   33.5498   42.1792 H   0  0  0  0  0  0  0  0  0  0  0  0
   52.3811   31.3112   41.4207 H   0  0  0  0  0  0  0  0  0  0  0  0
   50.4861   29.5584   41.1009 H   0  0  0  0  0  0  0  0  0  0  0  0
   47.3586   31.7990   45.1496 H   0  0  0  0  0  0  0  0  0  0  0  0
   48.6023   31.4046   43.9328 H   0  0  0  0  0  0  0  0  0  0  0  0
  1  2  2  0
  1 15  1  0
  3  2  1  0
  4  3  2  0
  5  4  1  0
  5 10  2  0
  6  5  1  0
  7  6  2  0
  7  8  1  0
  8  9  2  0
  9 10  1  0
  9 28  1  0
 10  1  1  0
 11 12  2  0
 12 22  1  0
 13 12  1  0
 14 13  2  0
 15 14  1  0
 15 16  2  0
 16 11  1  0
 17 13  1  0
 17 21  1  0
 18 19  1  0
 18 17  1  0
 19 20  1  0
 20 21  1  0
 23  8  1  0
 24 23  1  0
 25 24  2  0
 26 25  1  0
 26 27  1  0
 27 23  2  0
  3 29  1  0
  6 30  1  0
  7 31  1  0
 11 32  1  0
 18 33  1  0
 18 34  1  0
 19 35  1  0
 19 36  1  0
 20 37  1  0
 20 38  1  0
 21 39  1  0
 21 40  1  0
 22 41  1  0
 22 42  1  0
 24 43  1  0
 25 44  1  0
 26 45  1  0
 28 46  1  0
 28 47  1  0
M  ISO  8  29  14  30  14  31  14  32  14  33  13  34  13  35  13  36  13
M  ISO  7  37  13  38  13  39  13  40  13  43  14  44  14  45   9
M  END
>  <minimizedAffinity>  (1) 
-6.92575026

>  <minimizedRMSD>  (1) 
0.408218861

$$$$
