
     RDKit          3D

 44 47  0  0  0  0  0  0  0  0999 V2000
   47.4470   32.0670   47.8510 C   0  0  0  0  0  0  0  0  0  0  0  0
   46.9050   30.7780   47.8850 C   0  0  0  0  0  0  0  0  0  0  0  0
   45.9270   30.4990   46.9820 C   0  0  0  0  0  0  0  0  0  0  0  0
   45.5280   31.4370   46.1130 N   0  0  0  0  0  0  0  0  0  0  0  0
   46.0250   32.6550   46.0610 C   0  0  0  0  0  0  0  0  0  0  0  0
   46.9980   32.9580   46.9530 N   0  0  0  0  0  0  0  0  0  0  0  0
   45.3380   29.2560   46.9700 N   0  0  0  0  0  0  0  0  0  0  0  0
   44.1620   28.8920   46.1310 C   0  0  0  0  0  0  0  0  0  0  0  0
   44.0350   27.3970   46.2230 C   0  0  0  0  0  0  0  0  0  0  0  0
   44.6460   27.0890   47.5460 C   0  0  0  0  0  0  0  0  0  0  0  0
   45.7180   28.1110   47.7280 C   0  0  0  0  0  0  0  0  0  0  0  0
   45.7530   33.8080   45.1680 C   0  0  0  0  0  0  0  0  0  0  0  0
   44.8670   34.7700   45.4420 N   0  0  0  0  0  0  0  0  0  0  0  0
   44.6070   35.8180   44.6700 C   0  0  0  0  0  0  0  0  0  0  0  0
   45.2630   35.9710   43.4980 N   0  0  0  0  0  0  0  0  0  0  0  0
   46.1790   35.0710   43.1070 C   0  0  0  0  0  0  0  0  0  0  0  0
   46.8480   35.2280   41.9140 C   0  0  0  0  0  0  0  0  0  0  0  0
   47.7810   34.3210   41.5020 C   0  0  0  0  0  0  0  0  0  0  0  0
   48.0360   33.2370   42.3220 C   0  0  0  0  0  0  0  0  0  0  0  0
   47.3280   33.1340   43.5160 C   0  0  0  0  0  0  0  0  0  0  0  0
   46.3990   34.0070   43.9580 C   0  0  0  0  0  0  0  0  0  0  0  0
   50.4140   32.5070   41.9280 C   0  0  0  0  0  0  0  0  0  0  0  0
   50.9060   33.5540   42.4280 O   0  0  0  0  0  0  0  0  0  0  0  0
   49.0050   32.3240   41.8630 N   0  0  0  0  0  0  0  0  0  0  0  0
   47.7190   31.9550   44.2340 N   0  0  0  0  0  0  0  0  0  0  0  0
   47.4330   29.8940   48.7840 N   0  0  0  0  0  0  0  0  0  0  0  0
   48.2399   32.3501   48.5590 H   0  0  0  0  0  0  0  0  0  0  0  0
   44.3274   29.1981   45.0875 H   0  0  0  0  0  0  0  0  0  0  0  0
   43.2479   29.3963   46.4776 H   0  0  0  0  0  0  0  0  0  0  0  0
   42.9799   27.0874   46.1932 H   0  0  0  0  0  0  0  0  0  0  0  0
   44.5195   26.8689   45.3885 H   0  0  0  0  0  0  0  0  0  0  0  0
   43.8955   27.1703   48.3460 H   0  0  0  0  0  0  0  0  0  0  0  0
   45.0432   26.0640   47.5874 H   0  0  0  0  0  0  0  0  0  0  0  0
   46.6789   27.7190   47.3634 H   0  0  0  0  0  0  0  0  0  0  0  0
   45.8383   28.3673   48.7909 H   0  0  0  0  0  0  0  0  0  0  0  0
   43.8588   36.5609   44.9835 H   0  0  0  0  0  0  0  0  0  0  0  0
   46.6266   36.1002   41.2814 H   0  0  0  0  0  0  0  0  0  0  0  0
   48.3133   34.4482   40.5478 H   0  0  0  0  0  0  0  0  0  0  0  0
   51.0822   31.7254   41.5372 H   0  0  0  0  0  0  0  0  0  0  0  0
   48.6636   31.4473   41.4437 H   0  0  0  0  0  0  0  0  0  0  0  0
   47.2835   31.7365   45.1414 H   0  0  0  0  0  0  0  0  0  0  0  0
   48.4352   31.3271   43.8420 H   0  0  0  0  0  0  0  0  0  0  0  0
   47.0625   28.9347   48.8413 H   0  0  0  0  0  0  0  0  0  0  0  0
   48.2014   30.1872   49.4041 H   0  0  0  0  0  0  0  0  0  0  0  0
  1  2  2  0
  2 26  1  0
  3  2  1  0
  4  3  2  0
  5  4  1  0
  5  6  2  0
  6  1  1  0
  7  3  1  0
  7 11  1  0
  8  9  1  0
  8  7  1  0
  9 10  1  0
 10 11  1  0
 12 13  2  0
 12  5  1  0
 14 13  1  0
 15 14  2  0
 16 15  1  0
 16 21  2  0
 17 16  1  0
 18 17  2  0
 18 19  1  0
 19 20  2  0
 20 21  1  0
 20 25  1  0
 21 12  1  0
 22 23  2  0
 24 22  1  0
 24 19  1  0
  1 27  1  0
  8 28  1  0
  8 29  1  0
  9 30  1  0
  9 31  1  0
 10 32  1  0
 10 33  1  0
 11 34  1  0
 11 35  1  0
 14 36  1  0
 17 37  1  0
 18 38  1  0
 22 39  1  0
 24 40  1  0
 25 41  1  0
 25 42  1  0
 26 43  1  0
 26 44  1  0
M  ISO  8  27  14  28  13  29  13  30  13  31  13  32  13  33  13  34  13
M  ISO  5  35  13  36  14  37  14  38  14  39   6
M  END
>  <minimizedAffinity>  (1) 
-6.83967876

>  <minimizedRMSD>  (1) 
0.114789963

$$$$
