
     RDKit          3D

 34 36  0  0  0  0  0  0  0  0999 V2000
   45.1390   34.7940   42.4570 Cl  0  0  0  0  0  0  0  0  0  0  0  0
   45.3500   34.1030   40.8560 C   0  0  0  0  0  0  0  0  0  0  0  0
   46.5770   33.8880   40.3400 C   0  0  0  0  0  0  0  0  0  0  0  0
   46.6300   33.3370   39.0680 C   0  0  0  0  0  0  0  0  0  0  0  0
   45.4990   33.0280   38.3720 C   0  0  0  0  0  0  0  0  0  0  0  0
   44.2590   33.2530   38.9090 C   0  0  0  0  0  0  0  0  0  0  0  0
   44.2040   33.7950   40.1630 C   0  0  0  0  0  0  0  0  0  0  0  0
   49.4900   35.7820   41.8450 C   0  0  0  0  0  0  0  0  0  0  0  0
   48.3650   35.4730   41.0730 C   0  0  0  0  0  0  0  0  0  0  0  0
   47.7480   34.2360   41.1320 C   0  0  0  0  0  0  0  0  0  0  0  0
   48.2980   33.3290   41.9910 N   0  0  0  0  0  0  0  0  0  0  0  0
   49.3810   33.6280   42.7330 C   0  0  0  0  0  0  0  0  0  0  0  0
   49.9720   34.8400   42.6630 N   0  0  0  0  0  0  0  0  0  0  0  0
   47.9150   33.0970   38.4920 N   0  0  0  0  0  0  0  0  0  0  0  0
   48.7830   31.9940   38.7230 C   0  0  0  0  0  0  0  0  0  0  0  0
   49.5220   31.4870   37.5340 C   0  0  0  0  0  0  0  0  0  0  0  0
   49.6900   32.3980   36.4560 N   0  0  0  0  0  0  0  0  0  0  0  0
   48.5880   33.3160   36.2420 C   0  0  0  0  0  0  0  0  0  0  0  0
   48.4430   34.0660   37.5530 C   0  0  0  0  0  0  0  0  0  0  0  0
   45.5834   32.5921   37.3656 H   0  0  0  0  0  0  0  0  0  0  0  0
   43.3426   33.0070   38.3526 H   0  0  0  0  0  0  0  0  0  0  0  0
   43.2248   33.9880   40.6255 H   0  0  0  0  0  0  0  0  0  0  0  0
   49.9649   36.7721   41.7810 H   0  0  0  0  0  0  0  0  0  0  0  0
   47.9575   36.2388   40.3967 H   0  0  0  0  0  0  0  0  0  0  0  0
   49.7939   32.8673   43.4119 H   0  0  0  0  0  0  0  0  0  0  0  0
   49.5248   32.3008   39.4751 H   0  0  0  0  0  0  0  0  0  0  0  0
   48.1333   31.1666   39.0444 H   0  0  0  0  0  0  0  0  0  0  0  0
   50.5230   31.1778   37.8694 H   0  0  0  0  0  0  0  0  0  0  0  0
   48.9027   30.6715   37.1322 H   0  0  0  0  0  0  0  0  0  0  0  0
   50.5369   32.9549   36.6392 H   0  0  0  0  0  0  0  0  0  0  0  0
   48.8179   34.0118   35.4217 H   0  0  0  0  0  0  0  0  0  0  0  0
   47.6624   32.7926   35.9603 H   0  0  0  0  0  0  0  0  0  0  0  0
   49.4201   34.4394   37.8933 H   0  0  0  0  0  0  0  0  0  0  0  0
   47.7845   34.9415   37.4537 H   0  0  0  0  0  0  0  0  0  0  0  0
  2  1  1  0
  3  2  2  0
  3 10  1  0
  4  3  1  0
  5  6  1  0
  5  4  2  0
  6  7  2  0
  7  2  1  0
  8 13  2  0
  9 10  2  0
  9  8  1  0
 10 11  1  0
 11 12  2  0
 13 12  1  0
 14 15  1  0
 14  4  1  0
 16 15  1  0
 17 16  1  0
 18 17  1  0
 18 19  1  0
 19 14  1  0
  5 20  1  0
  6 21  1  0
  7 22  1  0
  8 23  1  0
  9 24  1  0
 12 25  1  0
 15 26  1  0
 15 27  1  0
 16 28  1  0
 16 29  1  0
 17 30  1  0
 18 31  1  0
 18 32  1  0
 19 33  1  0
 19 34  1  0
M  ISO  8  20  14  21  14  22  14  23  14  24  14  25  14  26  13  27  13
M  ISO  7  28  13  29  13  30   5  31  13  32  13  33  13  34  13
M  END
>  <minimizedAffinity>  (1) 
-4.77519751

>  <minimizedRMSD>  (1) 
5.28643894

$$$$
