
     RDKit          3D

 21 22  0  0  0  0  0  0  0  0999 V2000
   44.0830   33.3100   41.0510 Cl  0  0  0  0  0  0  0  0  0  0  0  0
   45.7280   33.8100   40.7400 C   0  0  0  0  0  0  0  0  0  0  0  0
   46.4740   34.4470   41.6840 C   0  0  0  0  0  0  0  0  0  0  0  0
   47.7550   34.7920   41.3290 C   0  0  0  0  0  0  0  0  0  0  0  0
   48.2660   34.5180   40.0970 C   0  0  0  0  0  0  0  0  0  0  0  0
   47.5260   33.8810   39.1470 C   0  0  0  0  0  0  0  0  0  0  0  0
   46.2380   33.5280   39.4930 C   0  0  0  0  0  0  0  0  0  0  0  0
   44.5210   36.0780   44.4910 C   0  0  0  0  0  0  0  0  0  0  0  0
   45.0900   35.8410   43.2320 C   0  0  0  0  0  0  0  0  0  0  0  0
   45.8760   34.7130   42.9800 C   0  0  0  0  0  0  0  0  0  0  0  0
   46.0510   33.8640   44.0340 N   0  0  0  0  0  0  0  0  0  0  0  0
   45.4980   34.1070   45.2380 C   0  0  0  0  0  0  0  0  0  0  0  0
   44.7410   35.2020   45.4640 N   0  0  0  0  0  0  0  0  0  0  0  0
   48.5320   35.4490   42.2890 O   0  0  0  0  0  0  0  0  0  0  0  0
   49.2985   34.8174   39.8638 H   0  0  0  0  0  0  0  0  0  0  0  0
   47.9362   33.6586   38.1509 H   0  0  0  0  0  0  0  0  0  0  0  0
   45.6054   33.0103   38.7569 H   0  0  0  0  0  0  0  0  0  0  0  0
   43.9048   36.9716   44.6691 H   0  0  0  0  0  0  0  0  0  0  0  0
   44.9132   36.5622   42.4205 H   0  0  0  0  0  0  0  0  0  0  0  0
   45.6676   33.3946   46.0588 H   0  0  0  0  0  0  0  0  0  0  0  0
   49.4611   35.7160   42.0756 H   0  0  0  0  0  0  0  0  0  0  0  0
  2  1  1  0
  2  3  2  0
  3 10  1  0
  4  3  1  0
  4 14  1  0
  5  4  2  0
  6  7  2  0
  6  5  1  0
  7  2  1  0
  8 13  2  0
  9  8  1  0
 10  9  2  0
 10 11  1  0
 11 12  2  0
 12 13  1  0
  5 15  1  0
  6 16  1  0
  7 17  1  0
  8 18  1  0
  9 19  1  0
 12 20  1  0
 14 21  1  0
M  ISO  7  15  14  16  14  17  14  18  14  19  14  20  14  21   3
M  END
>  <minimizedAffinity>  (1) 
-4.65796471

>  <minimizedRMSD>  (1) 
0.64537847

$$$$
