
     RDKit          3D

 46 49  0  0  1  0  0  0  0  0999 V2000
   47.9170   33.0700   40.9480 C   0  0  0  0  0  0  0  0  0  0  0  0
   48.6320   34.2710   40.9550 C   0  0  0  0  0  0  0  0  0  0  0  0
   48.6320   34.8770   39.7200 C   0  0  0  0  0  0  0  0  0  0  0  0
   48.0340   34.4360   38.5730 C   0  0  0  0  0  0  0  0  0  0  0  0
   47.3500   33.2330   38.6740 C   0  0  0  0  0  0  0  0  0  0  0  0
   47.3230   32.6040   39.8610 N   0  0  0  0  0  0  0  0  0  0  0  0
   45.6460   32.3440   45.5150 Cl  0  0  0  0  0  0  0  0  0  0  0  0
   46.8250   31.9870   44.2810 C   0  0  0  0  0  0  0  0  0  0  0  0
   46.8700   32.6940   43.1170 C   0  0  0  0  0  0  0  0  0  0  0  0
   47.8440   32.3200   42.2220 C   0  0  0  0  0  0  0  0  0  0  0  0
   48.7240   31.3210   42.4370 C   0  0  0  0  0  0  0  0  0  0  0  0
   48.6710   30.6100   43.6190 C   0  0  0  0  0  0  0  0  0  0  0  0
   47.7120   30.9570   44.5330 C   0  0  0  0  0  0  0  0  0  0  0  0
   43.8150   34.6500   42.0420 C   0  0  0  0  0  0  0  0  0  0  0  0
   44.7150   33.6010   42.2290 C   0  0  0  0  0  0  0  0  0  0  0  0
   45.9160   33.7630   42.9080 C   0  0  0  0  0  0  0  0  0  0  0  0
   46.1460   35.0160   43.3730 N   0  0  0  0  0  0  0  0  0  0  0  0
   45.2850   36.0290   43.1960 C   0  0  0  0  0  0  0  0  0  0  0  0
   44.1270   35.8550   42.5390 N   0  0  0  0  0  0  0  0  0  0  0  0
   45.1850   33.0200   37.4570 C   0  0  2  0  0  0  0  0  0  0  0  0
   46.6730   32.6970   37.4490 C   0  0  2  0  0  0  0  0  0  0  0  0
   46.8540   31.2990   37.3480 O   0  0  0  0  0  0  0  0  0  0  0  0
   46.5070   31.0120   36.0070 C   0  0  0  0  0  0  0  0  0  0  0  0
   45.0450   31.2810   35.7710 C   0  0  1  0  0  0  0  0  0  0  0  0
   44.4170   31.7750   37.0650 C   0  0  2  0  0  0  0  0  0  0  0  0
   44.8730   34.0440   36.5910 O   0  0  0  0  0  0  0  0  0  0  0  0
   44.8480   32.3010   34.8360 O   0  0  0  0  0  0  0  0  0  0  0  0
   43.0830   32.0500   36.8580 O   0  0  0  0  0  0  0  0  0  0  0  0
   49.1349   34.6827   41.8425 H   0  0  0  0  0  0  0  0  0  0  0  0
   49.1779   35.8292   39.6471 H   0  0  0  0  0  0  0  0  0  0  0  0
   48.0913   34.9989   37.6297 H   0  0  0  0  0  0  0  0  0  0  0  0
   49.4788   31.0744   41.6758 H   0  0  0  0  0  0  0  0  0  0  0  0
   49.3767   29.7906   43.8204 H   0  0  0  0  0  0  0  0  0  0  0  0
   47.6464   30.4071   45.4834 H   0  0  0  0  0  0  0  0  0  0  0  0
   42.8713   34.4920   41.4994 H   0  0  0  0  0  0  0  0  0  0  0  0
   44.4647   32.6093   41.8241 H   0  0  0  0  0  0  0  0  0  0  0  0
   45.5326   37.0228   43.5973 H   0  0  0  0  0  0  0  0  0  0  0  0
   44.9089   33.3494   38.4696 H   0  0  0  0  0  0  0  0  0  0  0  0
   47.1343   33.1838   36.5771 H   0  0  0  0  0  0  0  0  0  0  0  0
   47.1046   31.6455   35.3350 H   0  0  0  0  0  0  0  0  0  0  0  0
   46.7098   29.9495   35.8069 H   0  0  0  0  0  0  0  0  0  0  0  0
   44.5982   30.3435   35.4085 H   0  0  0  0  0  0  0  0  0  0  0  0
   44.4690   31.0229   37.8661 H   0  0  0  0  0  0  0  0  0  0  0  0
   44.6271   34.8510   37.1091 H   0  0  0  0  0  0  0  0  0  0  0  0
   44.6831   33.1549   35.3090 H   0  0  0  0  0  0  0  0  0  0  0  0
   42.6261   32.1442   37.7312 H   0  0  0  0  0  0  0  0  0  0  0  0
  1  2  2  0
  1 10  1  0
  3  2  1  0
  4  5  1  0
  4  3  2  0
  5  6  2  0
  6  1  1  0
  8 13  2  0
  8  7  1  0
  9  8  1  0
 10 11  1  0
 10  9  2  0
 11 12  2  0
 12 13  1  0
 14 15  2  0
 14 19  1  0
 15 16  1  0
 16  9  1  0
 16 17  2  0
 18 17  1  0
 19 18  2  0
 20 26  1  0
 21 20  1  0
 21  5  1  0
 22 21  1  0
 23 22  1  0
 24 27  1  0
 24 23  1  0
 24 25  1  0
 25 28  1  0
 25 20  1  0
  2 29  1  0
  3 30  1  0
  4 31  1  0
 11 32  1  0
 12 33  1  0
 13 34  1  0
 14 35  1  0
 15 36  1  0
 18 37  1  0
 20 38  1  1
 21 39  1  6
 23 40  1  0
 23 41  1  0
 24 42  1  6
 25 43  1  1
 26 44  1  0
 27 45  1  0
 28 46  1  0
M  ISO  8  29  14  30  14  31  14  32  14  33  14  34  14  35  14  36  14
M  ISO  8  37  14  38  13  39  13  40  13  41  13  42  13  43  13  44   3
M  ISO  2  45   3  46   3
M  END
>  <minimizedAffinity>  (1) 
-5.8846941

>  <minimizedRMSD>  (1) 
6.4535861

$$$$
