
     RDKit          3D

 38 40  0  0  0  0  0  0  0  0999 V2000
   46.2400   32.0190   47.3030 C   0  0  0  0  0  0  0  0  0  0  0  0
   45.3840   32.3720   48.3380 C   0  0  0  0  0  0  0  0  0  0  0  0
   44.8510   31.4830   49.2290 C   0  0  0  0  0  0  0  0  0  0  0  0
   45.1890   30.1610   49.0780 C   0  0  0  0  0  0  0  0  0  0  0  0
   46.0510   29.7930   48.0420 C   0  0  0  0  0  0  0  0  0  0  0  0
   46.5890   30.7120   47.1430 C   0  0  0  0  0  0  0  0  0  0  0  0
   47.4210   29.8390   46.3790 N   0  0  0  0  0  0  0  0  0  0  0  0
   48.7330   29.5340   46.8620 C   0  0  0  0  0  0  0  0  0  0  0  0
   49.4940   29.1190   45.6350 C   0  0  0  0  0  0  0  0  0  0  0  0
   48.5110   28.8690   44.5360 C   0  0  0  0  0  0  0  0  0  0  0  0
   47.1660   29.1010   45.1290 C   0  0  0  0  0  0  0  0  0  0  0  0
   46.8360   32.8790   46.2700 C   0  0  0  0  0  0  0  0  0  0  0  0
   46.2030   32.6910   44.9260 C   0  0  0  0  0  0  0  0  0  0  0  0
   44.5250   35.9790   44.7680 C   0  0  0  0  0  0  0  0  0  0  0  0
   44.9310   36.4540   43.5040 C   0  0  0  0  0  0  0  0  0  0  0  0
   45.7670   35.6380   42.7630 C   0  0  0  0  0  0  0  0  0  0  0  0
   46.1500   34.4600   43.2610 N   0  0  0  0  0  0  0  0  0  0  0  0
   45.7290   34.0500   44.4870 C   0  0  0  0  0  0  0  0  0  0  0  0
   44.9340   34.7830   45.2330 N   0  0  0  0  0  0  0  0  0  0  0  0
   45.1182   33.4338   48.4477 H   0  0  0  0  0  0  0  0  0  0  0  0
   44.1785   31.8134   50.0344 H   0  0  0  0  0  0  0  0  0  0  0  0
   44.7863   29.4012   49.7640 H   0  0  0  0  0  0  0  0  0  0  0  0
   46.3167   28.7314   47.9310 H   0  0  0  0  0  0  0  0  0  0  0  0
   49.1932   30.4194   47.3249 H   0  0  0  0  0  0  0  0  0  0  0  0
   48.7245   28.7518   47.6354 H   0  0  0  0  0  0  0  0  0  0  0  0
   50.1876   29.9197   45.3388 H   0  0  0  0  0  0  0  0  0  0  0  0
   50.0748   28.2074   45.8391 H   0  0  0  0  0  0  0  0  0  0  0  0
   48.5962   27.8334   44.1751 H   0  0  0  0  0  0  0  0  0  0  0  0
   48.6917   29.5299   43.6754 H   0  0  0  0  0  0  0  0  0  0  0  0
   46.5414   29.6981   44.4483 H   0  0  0  0  0  0  0  0  0  0  0  0
   46.6261   28.1595   45.3084 H   0  0  0  0  0  0  0  0  0  0  0  0
   46.7136   33.9294   46.5729 H   0  0  0  0  0  0  0  0  0  0  0  0
   47.8969   32.6029   46.1792 H   0  0  0  0  0  0  0  0  0  0  0  0
   46.9389   32.2952   44.2107 H   0  0  0  0  0  0  0  0  0  0  0  0
   45.3702   31.9739   44.9737 H   0  0  0  0  0  0  0  0  0  0  0  0
   43.8600   36.5985   45.3876 H   0  0  0  0  0  0  0  0  0  0  0  0
   44.5975   37.4308   43.1237 H   0  0  0  0  0  0  0  0  0  0  0  0
   46.1141   35.9579   41.7694 H   0  0  0  0  0  0  0  0  0  0  0  0
  1  2  2  0
  2  3  1  0
  4  3  2  0
  5  4  1  0
  6  1  1  0
  6  5  2  0
  7  8  1  0
  7  6  1  0
  9  8  1  0
 10 11  1  0
 10  9  1  0
 11  7  1  0
 12  1  1  0
 13 12  1  0
 14 19  2  0
 15 14  1  0
 16 17  1  0
 16 15  2  0
 17 18  2  0
 18 13  1  0
 18 19  1  0
  2 20  1  0
  3 21  1  0
  4 22  1  0
  5 23  1  0
  8 24  1  0
  8 25  1  0
  9 26  1  0
  9 27  1  0
 10 28  1  0
 10 29  1  0
 11 30  1  0
 11 31  1  0
 12 32  1  0
 12 33  1  0
 13 34  1  0
 13 35  1  0
 14 36  1  0
 15 37  1  0
 16 38  1  0
M  ISO  8  20  14  21  14  22  14  23  14  24  13  25  13  26  13  27  13
M  ISO  8  28  13  29  13  30  13  31  13  32   8  33   8  34   8  35   8
M  ISO  3  36  14  37  14  38  14
M  END
>  <minimizedAffinity>  (1) 
-4.81504107

>  <minimizedRMSD>  (1) 
1.15174305

$$$$
