
     RDKit          3D

 38 41  0  0  0  0  0  0  0  0999 V2000
   41.1510   35.5030   42.0850 Cl  0  0  0  0  0  0  0  0  0  0  0  0
   41.7460   34.7590   40.6130 C   0  0  0  0  0  0  0  0  0  0  0  0
   43.0220   34.3090   40.5120 C   0  0  0  0  0  0  0  0  0  0  0  0
   43.3790   33.7420   39.3080 C   0  0  0  0  0  0  0  0  0  0  0  0
   42.5300   33.6260   38.2670 C   0  0  0  0  0  0  0  0  0  0  0  0
   41.2360   34.0820   38.3690 C   0  0  0  0  0  0  0  0  0  0  0  0
   40.8590   34.6480   39.5560 C   0  0  0  0  0  0  0  0  0  0  0  0
   45.3750   35.7390   43.1120 C   0  0  0  0  0  0  0  0  0  0  0  0
   44.5270   35.6260   42.0070 C   0  0  0  0  0  0  0  0  0  0  0  0
   43.9040   34.4510   41.6500 C   0  0  0  0  0  0  0  0  0  0  0  0
   44.1760   33.3830   42.4640 N   0  0  0  0  0  0  0  0  0  0  0  0
   44.9930   33.4860   43.5310 C   0  0  0  0  0  0  0  0  0  0  0  0
   45.5910   34.6500   43.8590 N   0  0  0  0  0  0  0  0  0  0  0  0
   44.7590   33.2460   39.1740 C   0  0  0  0  0  0  0  0  0  0  0  0
   44.9810   32.2650   38.1980 C   0  0  0  0  0  0  0  0  0  0  0  0
   46.2990   31.8680   38.1490 C   0  0  0  0  0  0  0  0  0  0  0  0
   47.3250   32.3280   38.9260 C   0  0  0  0  0  0  0  0  0  0  0  0
   47.0010   33.3000   39.8630 C   0  0  0  0  0  0  0  0  0  0  0  0
   45.7310   33.7080   39.9360 N   0  0  0  0  0  0  0  0  0  0  0  0
   47.9680   33.9050   40.7740 C   0  0  0  0  0  0  0  0  0  0  0  0
   48.2790   35.2480   40.7740 C   0  0  0  0  0  0  0  0  0  0  0  0
   49.1950   35.8190   41.6390 C   0  0  0  0  0  0  0  0  0  0  0  0
   49.8350   35.0250   42.5480 C   0  0  0  0  0  0  0  0  0  0  0  0
   49.5180   33.6830   42.5400 C   0  0  0  0  0  0  0  0  0  0  0  0
   48.6350   33.1750   41.6970 N   0  0  0  0  0  0  0  0  0  0  0  0
   42.8742   33.1638   37.3301 H   0  0  0  0  0  0  0  0  0  0  0  0
   40.5317   33.9948   37.5285 H   0  0  0  0  0  0  0  0  0  0  0  0
   39.8312   35.0221   39.6728 H   0  0  0  0  0  0  0  0  0  0  0  0
   45.8525   36.6981   43.3612 H   0  0  0  0  0  0  0  0  0  0  0  0
   44.3483   36.5202   41.3918 H   0  0  0  0  0  0  0  0  0  0  0  0
   45.1773   32.5966   44.1514 H   0  0  0  0  0  0  0  0  0  0  0  0
   44.1934   31.8589   37.5462 H   0  0  0  0  0  0  0  0  0  0  0  0
   46.5530   31.0985   37.4051 H   0  0  0  0  0  0  0  0  0  0  0  0
   48.3516   31.9488   38.8150 H   0  0  0  0  0  0  0  0  0  0  0  0
   47.7719   35.9001   40.0476 H   0  0  0  0  0  0  0  0  0  0  0  0
   49.4053   36.8978   41.5955 H   0  0  0  0  0  0  0  0  0  0  0  0
   50.5702   35.4377   43.2546 H   0  0  0  0  0  0  0  0  0  0  0  0
   50.0154   33.0139   43.2576 H   0  0  0  0  0  0  0  0  0  0  0  0
  2  1  1  0
  3  2  2  0
  3 10  1  0
  4  3  1  0
  5  6  1  0
  5  4  2  0
  6  7  2  0
  7  2  1  0
  8 13  2  0
  9  8  1  0
 10  9  2  0
 10 11  1  0
 11 12  2  0
 12 13  1  0
 14  4  1  0
 14 19  1  0
 15 14  2  0
 16 15  1  0
 16 17  2  0
 17 18  1  0
 18 19  2  0
 18 20  1  0
 20 21  2  0
 20 25  1  0
 21 22  1  0
 22 23  2  0
 24 23  1  0
 25 24  2  0
  5 26  1  0
  6 27  1  0
  7 28  1  0
  8 29  1  0
  9 30  1  0
 12 31  1  0
 15 32  1  0
 16 33  1  0
 17 34  1  0
 21 35  1  0
 22 36  1  0
 23 37  1  0
 24 38  1  0
M  ISO  8  26  14  27  14  28  14  29  14  30  14  31  14  32  14  33  14
M  ISO  5  34  14  35  14  36  14  37  14  38  14
M  END
>  <minimizedAffinity>  (1) 
-6.32225752

>  <minimizedRMSD>  (1) 
3.68320489

$$$$
