
     RDKit          3D

 33 35  0  0  0  0  0  0  0  0999 V2000
   41.4150   34.6710   41.5390 Cl  0  0  0  0  0  0  0  0  0  0  0  0
   42.5800   34.0310   40.4070 C   0  0  0  0  0  0  0  0  0  0  0  0
   43.8990   33.9250   40.7110 C   0  0  0  0  0  0  0  0  0  0  0  0
   44.7130   33.4090   39.7450 C   0  0  0  0  0  0  0  0  0  0  0  0
   44.2670   33.0080   38.5200 C   0  0  0  0  0  0  0  0  0  0  0  0
   42.9340   33.1150   38.2140 C   0  0  0  0  0  0  0  0  0  0  0  0
   42.0920   33.6330   39.1730 C   0  0  0  0  0  0  0  0  0  0  0  0
   46.1450   33.2860   40.0540 C   0  0  0  0  0  0  0  0  0  0  0  0
   46.6760   32.0030   40.1330 C   0  0  0  0  0  0  0  0  0  0  0  0
   48.0160   31.9810   40.4260 C   0  0  0  0  0  0  0  0  0  0  0  0
   48.8140   33.0610   40.6300 C   0  0  0  0  0  0  0  0  0  0  0  0
   48.2040   34.3210   40.5320 C   0  0  0  0  0  0  0  0  0  0  0  0
   46.8960   34.3610   40.2480 N   0  0  0  0  0  0  0  0  0  0  0  0
   49.6130   35.7050   42.0000 C   0  0  0  0  0  0  0  0  0  0  0  0
   49.5520   34.8920   42.9430 O   0  0  0  0  0  0  0  0  0  0  0  0
   48.9650   35.5150   40.7300 N   0  0  0  0  0  0  0  0  0  0  0  0
   44.8700   36.0710   43.6740 C   0  0  0  0  0  0  0  0  0  0  0  0
   44.4430   35.6800   42.4110 C   0  0  0  0  0  0  0  0  0  0  0  0
   44.3410   34.3610   42.0240 C   0  0  0  0  0  0  0  0  0  0  0  0
   44.6940   33.4500   42.9820 N   0  0  0  0  0  0  0  0  0  0  0  0
   45.1090   33.8300   44.2090 C   0  0  0  0  0  0  0  0  0  0  0  0
   45.1980   35.1160   44.5580 N   0  0  0  0  0  0  0  0  0  0  0  0
   44.9727   32.6008   37.7810 H   0  0  0  0  0  0  0  0  0  0  0  0
   42.5497   32.7971   37.2336 H   0  0  0  0  0  0  0  0  0  0  0  0
   41.0181   33.7320   38.9563 H   0  0  0  0  0  0  0  0  0  0  0  0
   46.0786   31.0929   39.9756 H   0  0  0  0  0  0  0  0  0  0  0  0
   48.4907   30.9917   40.5033 H   0  0  0  0  0  0  0  0  0  0  0  0
   49.8842   32.9534   40.8604 H   0  0  0  0  0  0  0  0  0  0  0  0
   50.1985   36.6244   42.1483 H   0  0  0  0  0  0  0  0  0  0  0  0
   49.0470   36.2200   39.9835 H   0  0  0  0  0  0  0  0  0  0  0  0
   44.9375   37.1356   43.9424 H   0  0  0  0  0  0  0  0  0  0  0  0
   44.1733   36.4609   41.6847 H   0  0  0  0  0  0  0  0  0  0  0  0
   45.3819   33.0576   44.9431 H   0  0  0  0  0  0  0  0  0  0  0  0
  2  3  2  0
  2  1  1  0
  3 19  1  0
  4  8  1  0
  4  3  1  0
  5  4  2  0
  6  5  1  0
  6  7  2  0
  7  2  1  0
  8  9  2  0
  8 13  1  0
  9 10  1  0
 10 11  2  0
 12 11  1  0
 12 16  1  0
 13 12  2  0
 14 15  2  0
 16 14  1  0
 17 22  2  0
 18 17  1  0
 19 18  2  0
 19 20  1  0
 20 21  2  0
 21 22  1  0
  5 23  1  0
  6 24  1  0
  7 25  1  0
  9 26  1  0
 10 27  1  0
 11 28  1  0
 14 29  1  0
 16 30  1  0
 17 31  1  0
 18 32  1  0
 21 33  1  0
M  ISO  8  23  14  24  14  25  14  26  14  27  14  28  14  29   6  31  14
M  ISO  2  32  14  33  14
M  END
>  <minimizedAffinity>  (1) 
-5.54546356

>  <minimizedRMSD>  (1) 
2.00149512

$$$$
