
     RDKit          3D

 35 37  0  0  0  0  0  0  0  0999 V2000
   41.4200   35.0940   41.7330 Cl  0  0  0  0  0  0  0  0  0  0  0  0
   42.5270   34.4160   40.5510 C   0  0  0  0  0  0  0  0  0  0  0  0
   43.8330   34.1940   40.8600 C   0  0  0  0  0  0  0  0  0  0  0  0
   44.5950   33.6630   39.8530 C   0  0  0  0  0  0  0  0  0  0  0  0
   44.1270   33.3600   38.6190 C   0  0  0  0  0  0  0  0  0  0  0  0
   42.8030   33.5910   38.3230 C   0  0  0  0  0  0  0  0  0  0  0  0
   42.0120   34.1220   39.3040 C   0  0  0  0  0  0  0  0  0  0  0  0
   44.9170   36.1060   43.9320 C   0  0  0  0  0  0  0  0  0  0  0  0
   44.4510   35.8100   42.6510 C   0  0  0  0  0  0  0  0  0  0  0  0
   44.3130   34.5240   42.1840 C   0  0  0  0  0  0  0  0  0  0  0  0
   44.6610   33.5380   43.0630 N   0  0  0  0  0  0  0  0  0  0  0  0
   45.1090   33.8190   44.2970 C   0  0  0  0  0  0  0  0  0  0  0  0
   45.2390   35.0700   44.7390 N   0  0  0  0  0  0  0  0  0  0  0  0
   46.0230   33.4050   40.1460 C   0  0  0  0  0  0  0  0  0  0  0  0
   46.4880   32.1020   40.0110 C   0  0  0  0  0  0  0  0  0  0  0  0
   47.8150   31.9670   40.3030 C   0  0  0  0  0  0  0  0  0  0  0  0
   48.6620   32.9570   40.6920 C   0  0  0  0  0  0  0  0  0  0  0  0
   48.1270   34.2450   40.8070 C   0  0  0  0  0  0  0  0  0  0  0  0
   46.8250   34.3920   40.5230 N   0  0  0  0  0  0  0  0  0  0  0  0
   48.8420   35.4660   41.2070 C   0  0  0  0  0  0  0  0  0  0  0  0
   49.7320   35.2870   42.4090 C   0  0  0  0  0  0  0  0  0  0  0  0
   44.7990   32.9331   37.8600 H   0  0  0  0  0  0  0  0  0  0  0  0
   42.3941   33.3560   37.3292 H   0  0  0  0  0  0  0  0  0  0  0  0
   40.9496   34.3178   39.0966 H   0  0  0  0  0  0  0  0  0  0  0  0
   45.0190   37.1465   44.2739 H   0  0  0  0  0  0  0  0  0  0  0  0
   44.1818   36.6427   41.9845 H   0  0  0  0  0  0  0  0  0  0  0  0
   45.3780   32.9885   44.9663 H   0  0  0  0  0  0  0  0  0  0  0  0
   45.8496   31.2621   39.6995 H   0  0  0  0  0  0  0  0  0  0  0  0
   48.2412   30.9568   40.2148 H   0  0  0  0  0  0  0  0  0  0  0  0
   49.7216   32.7543   40.9069 H   0  0  0  0  0  0  0  0  0  0  0  0
   49.4640   35.7956   40.3617 H   0  0  0  0  0  0  0  0  0  0  0  0
   48.0776   36.2071   41.4836 H   0  0  0  0  0  0  0  0  0  0  0  0
   49.1373   35.4066   43.3266 H   0  0  0  0  0  0  0  0  0  0  0  0
   50.1772   34.2813   42.3891 H   0  0  0  0  0  0  0  0  0  0  0  0
   50.5314   36.0424   42.3891 H   0  0  0  0  0  0  0  0  0  0  0  0
  2  3  2  0
  2  1  1  0
  3 10  1  0
  4 14  1  0
  4  3  1  0
  5  4  2  0
  6  5  1  0
  6  7  2  0
  7  2  1  0
  8 13  2  0
  9  8  1  0
 10  9  2  0
 10 11  1  0
 11 12  2  0
 12 13  1  0
 14 19  1  0
 15 14  2  0
 15 16  1  0
 16 17  2  0
 17 18  1  0
 18 20  1  0
 19 18  2  0
 20 21  1  0
  5 22  1  0
  6 23  1  0
  7 24  1  0
  8 25  1  0
  9 26  1  0
 12 27  1  0
 15 28  1  0
 16 29  1  0
 17 30  1  0
 20 31  1  0
 20 32  1  0
 21 33  1  0
 21 34  1  0
 21 35  1  0
M  ISO  8  22  14  23  14  24  14  25  14  26  14  27  14  28  14  29  14
M  ISO  6  30  14  31   8  32   8  33   8  34   8  35   8
M  END
>  <minimizedAffinity>  (1) 
-5.34868526

>  <minimizedRMSD>  (1) 
2.04993558

$$$$
