
     RDKit          3D

 27 29  0  0  0  0  0  0  0  0999 V2000
   46.9220   34.8770   42.7400 C   0  0  0  0  0  0  0  0  0  0  0  0
   47.2710   33.7510   43.4920 C   0  0  0  0  0  0  0  0  0  0  0  0
   46.4090   33.3650   44.5180 C   0  0  0  0  0  0  0  0  0  0  0  0
   45.2840   34.0760   44.7480 N   0  0  0  0  0  0  0  0  0  0  0  0
   44.9710   35.1610   44.0030 C   0  0  0  0  0  0  0  0  0  0  0  0
   45.7900   35.5660   42.9960 N   0  0  0  0  0  0  0  0  0  0  0  0
   46.8050   32.2150   45.2560 N   0  0  0  0  0  0  0  0  0  0  0  0
   47.4540   31.1510   44.7500 C   0  0  0  0  0  0  0  0  0  0  0  0
   47.6600   30.2530   45.7600 N   0  0  0  0  0  0  0  0  0  0  0  0
   47.1290   30.7960   46.8620 C   0  0  0  0  0  0  0  0  0  0  0  0
   47.0610   30.3090   48.1710 C   0  0  0  0  0  0  0  0  0  0  0  0
   46.4510   31.0970   49.0930 N   0  0  0  0  0  0  0  0  0  0  0  0
   45.9280   32.2970   48.7840 C   0  0  0  0  0  0  0  0  0  0  0  0
   45.9740   32.8080   47.5190 N   0  0  0  0  0  0  0  0  0  0  0  0
   46.5790   32.0470   46.5640 C   0  0  0  0  0  0  0  0  0  0  0  0
   48.4460   33.1050   43.1630 O   0  0  0  0  0  0  0  0  0  0  0  0
   50.9220   33.0450   42.2670 O   0  0  0  0  0  0  0  0  0  0  0  0
   49.7260   33.9210   42.3900 P   0  0  0  0  0  0  0  0  0  0  0  0
   49.2890   34.4000   40.8180 O   0  0  0  0  0  0  0  0  0  0  0  0
   50.1430   35.3190   43.2570 O   0  0  0  0  0  0  0  0  0  0  0  0
   47.5823   35.2074   41.9246 H   0  0  0  0  0  0  0  0  0  0  0  0
   44.0471   35.7197   44.2135 H   0  0  0  0  0  0  0  0  0  0  0  0
   47.7657   31.0250   43.7026 H   0  0  0  0  0  0  0  0  0  0  0  0
   47.4833   29.3301   48.4419 H   0  0  0  0  0  0  0  0  0  0  0  0
   45.4467   32.8869   49.5779 H   0  0  0  0  0  0  0  0  0  0  0  0
   48.6226   35.1304   40.8688 H   0  0  0  0  0  0  0  0  0  0  0  0
   50.0878   35.1339   44.2280 H   0  0  0  0  0  0  0  0  0  0  0  0
  1  6  2  0
  1  2  1  0
  2  3  2  0
  3  4  1  0
  3  7  1  0
  5  4  2  0
  6  5  1  0
  7 15  1  0
  8  7  1  0
  8  9  2  0
  9 10  1  0
 10 11  2  0
 11 12  1  0
 13 12  2  0
 14 13  1  0
 15 10  1  0
 15 14  2  0
 16  2  1  0
 17 18  2  0
 18 16  1  0
 18 20  1  0
 19 18  1  0
  1 21  1  0
  5 22  1  0
  8 23  1  0
 11 24  1  0
 13 25  1  0
 19 26  1  0
 20 27  1  0
M  ISO  7  21  14  22  14  23  14  24  14  25  14  26   3  27   3
M  END
>  <minimizedAffinity>  (1) 
-5.9528141

>  <minimizedRMSD>  (1) 
1.02492714

$$$$
