
     RDKit          3D

 19 19  0  0  0  0  0  0  0  0999 V2000
   46.3380   35.2140   42.5830 C   0  0  0  0  0  0  0  0  0  0  0  0
   46.8660   34.1200   43.2680 C   0  0  0  0  0  0  0  0  0  0  0  0
   46.3330   33.7940   44.5250 C   0  0  0  0  0  0  0  0  0  0  0  0
   45.3360   34.5710   44.9940 N   0  0  0  0  0  0  0  0  0  0  0  0
   44.8410   35.6210   44.3180 C   0  0  0  0  0  0  0  0  0  0  0  0
   45.3390   35.9460   43.1130 N   0  0  0  0  0  0  0  0  0  0  0  0
   46.9080   32.6270   45.2380 C   0  0  0  0  0  0  0  0  0  0  0  0
   47.8970   33.4140   42.6520 O   0  0  0  0  0  0  0  0  0  0  0  0
   50.3870   33.2120   41.8180 O   0  0  0  0  0  0  0  0  0  0  0  0
   49.3250   34.2160   42.1480 P   0  0  0  0  0  0  0  0  0  0  0  0
   49.0400   35.1190   40.7410 O   0  0  0  0  0  0  0  0  0  0  0  0
   49.8940   35.2260   43.3660 O   0  0  0  0  0  0  0  0  0  0  0  0
   46.7429   35.4829   41.5962 H   0  0  0  0  0  0  0  0  0  0  0  0
   44.0249   36.2170   44.7525 H   0  0  0  0  0  0  0  0  0  0  0  0
   46.8298   32.7857   46.3237 H   0  0  0  0  0  0  0  0  0  0  0  0
   46.3546   31.7181   44.9595 H   0  0  0  0  0  0  0  0  0  0  0  0
   47.9659   32.5120   44.9595 H   0  0  0  0  0  0  0  0  0  0  0  0
   48.7515   36.0331   40.9884 H   0  0  0  0  0  0  0  0  0  0  0  0
   49.6738   34.8352   44.2485 H   0  0  0  0  0  0  0  0  0  0  0  0
  1  6  2  0
  1  2  1  0
  2  3  2  0
  3  4  1  0
  3  7  1  0
  5  4  2  0
  6  5  1  0
  8  2  1  0
  9 10  2  0
 10  8  1  0
 10 12  1  0
 11 10  1  0
  1 13  1  0
  5 14  1  0
  7 15  1  0
  7 16  1  0
  7 17  1  0
 11 18  1  0
 12 19  1  0
M  ISO  7  13  14  14  14  15   8  16   8  17   8  18   3  19   3
M  END
>  <minimizedAffinity>  (1) 
-4.41098928

>  <minimizedRMSD>  (1) 
0.0220193602

$$$$
