
     RDKit          3D

 20 20  0  0  0  0  0  0  0  0999 V2000
   46.1830   35.1110   42.5130 C   0  0  0  0  0  0  0  0  0  0  0  0
   46.8510   34.1370   43.2780 C   0  0  0  0  0  0  0  0  0  0  0  0
   46.4370   33.9580   44.6020 C   0  0  0  0  0  0  0  0  0  0  0  0
   45.4270   34.7210   45.0740 N   0  0  0  0  0  0  0  0  0  0  0  0
   44.8100   35.6400   44.3180 C   0  0  0  0  0  0  0  0  0  0  0  0
   45.1810   35.8420   43.0400 N   0  0  0  0  0  0  0  0  0  0  0  0
   46.4270   32.6600   46.5520 C   0  0  0  0  0  0  0  0  0  0  0  0
   45.3620   33.3580   46.6420 O   0  0  0  0  0  0  0  0  0  0  0  0
   47.1390   32.9640   45.3390 N   0  0  0  0  0  0  0  0  0  0  0  0
   47.8660   33.4370   42.6550 O   0  0  0  0  0  0  0  0  0  0  0  0
   50.3560   33.2020   41.8130 O   0  0  0  0  0  0  0  0  0  0  0  0
   49.3110   34.2050   42.1580 P   0  0  0  0  0  0  0  0  0  0  0  0
   49.0170   35.1440   40.7590 O   0  0  0  0  0  0  0  0  0  0  0  0
   49.8970   35.2240   43.3700 O   0  0  0  0  0  0  0  0  0  0  0  0
   46.4835   35.2784   41.4682 H   0  0  0  0  0  0  0  0  0  0  0  0
   43.9910   36.2360   44.7470 H   0  0  0  0  0  0  0  0  0  0  0  0
   46.7562   31.9249   47.3011 H   0  0  0  0  0  0  0  0  0  0  0  0
   48.0250   32.5270   45.0477 H   0  0  0  0  0  0  0  0  0  0  0  0
   48.7322   36.0538   41.0260 H   0  0  0  0  0  0  0  0  0  0  0  0
   49.6775   34.8423   44.2567 H   0  0  0  0  0  0  0  0  0  0  0  0
  1  6  2  0
  1  2  1  0
  2  3  2  0
  3  4  1  0
  3  9  1  0
  5  4  2  0
  6  5  1  0
  7  8  2  0
  9  7  1  0
 10  2  1  0
 11 12  2  0
 12 10  1  0
 12 14  1  0
 13 12  1  0
  1 15  1  0
  5 16  1  0
  7 17  1  0
  9 18  1  0
 13 19  1  0
 14 20  1  0
M  ISO  5  15  14  16  14  17   6  19   3  20   3
M  END
>  <minimizedAffinity>  (1) 
-4.80335331

>  <minimizedRMSD>  (1) 
0.447634608

$$$$
