
     RDKit          3D

 40 42  0  0  1  0  0  0  0  0999 V2000
   44.5000   35.0980   44.1480 C   0  0  0  0  0  0  0  0  0  0  0  0
   45.1140   35.1990   42.8900 C   0  0  0  0  0  0  0  0  0  0  0  0
   46.3650   34.6330   42.7180 C   0  0  0  0  0  0  0  0  0  0  0  0
   46.9210   34.0100   43.7860 N   0  0  0  0  0  0  0  0  0  0  0  0
   46.3200   33.9220   44.9810 C   0  0  0  0  0  0  0  0  0  0  0  0
   45.1050   34.4680   45.1650 N   0  0  0  0  0  0  0  0  0  0  0  0
   46.7050   33.5960   40.4890 C   0  0  2  0  0  0  0  0  0  0  0  0
   47.0380   34.8170   41.4090 C   0  0  2  0  0  0  0  0  0  0  0  0
   48.5120   34.7130   41.4750 C   0  0  0  0  0  0  0  0  0  0  0  0
   48.9310   33.6460   40.6770 O   0  0  0  0  0  0  0  0  0  0  0  0
   47.9860   33.6340   39.6510 C   0  0  0  0  0  0  0  0  0  0  0  0
   45.6040   33.8760   39.6790 O   0  0  0  0  0  0  0  0  0  0  0  0
   44.4060   35.8710   41.8850 O   0  0  0  0  0  0  0  0  0  0  0  0
   41.8070   35.8750   41.6250 O   0  0  0  0  0  0  0  0  0  0  0  0
   43.0410   35.2060   41.1370 P   0  0  1  0  0  0  0  0  0  0  0  0
   43.1090   35.4000   39.4550 O   0  0  0  0  0  0  0  0  0  0  0  0
   42.9670   33.5400   41.5000 O   0  0  0  0  0  0  0  0  0  0  0  0
   40.9740   32.4420   41.0510 C   0  0  1  0  0  0  0  0  0  0  0  0
   42.3450   32.8280   40.4980 C   0  0  2  0  0  0  0  0  0  0  0  0
   43.0800   31.5150   40.3330 C   0  0  0  0  0  0  0  0  0  0  0  0
   42.1430   30.4990   40.4780 O   0  0  0  0  0  0  0  0  0  0  0  0
   41.1460   30.9650   41.3350 C   0  0  0  0  0  0  0  0  0  0  0  0
   40.6770   33.1050   42.2380 O   0  0  0  0  0  0  0  0  0  0  0  0
   43.5059   35.5431   44.3020 H   0  0  0  0  0  0  0  0  0  0  0  0
   46.8209   33.4029   45.8114 H   0  0  0  0  0  0  0  0  0  0  0  0
   46.4605   32.6510   40.9962 H   0  0  0  0  0  0  0  0  0  0  0  0
   46.7030   35.8066   41.0647 H   0  0  0  0  0  0  0  0  0  0  0  0
   48.9639   35.6466   41.1087 H   0  0  0  0  0  0  0  0  0  0  0  0
   48.8253   34.5429   42.5156 H   0  0  0  0  0  0  0  0  0  0  0  0
   48.0851   32.7441   39.0120 H   0  0  0  0  0  0  0  0  0  0  0  0
   48.0560   34.4702   38.9397 H   0  0  0  0  0  0  0  0  0  0  0  0
   44.8184   34.0758   40.2474 H   0  0  0  0  0  0  0  0  0  0  0  0
   43.4287   36.3121   39.2407 H   0  0  0  0  0  0  0  0  0  0  0  0
   40.1585   32.6942   40.3571 H   0  0  0  0  0  0  0  0  0  0  0  0
   42.3070   33.4041   39.5617 H   0  0  0  0  0  0  0  0  0  0  0  0
   43.8605   31.4206   41.1024 H   0  0  0  0  0  0  0  0  0  0  0  0
   43.5660   31.4605   39.3477 H   0  0  0  0  0  0  0  0  0  0  0  0
   41.4469   30.8141   42.3822 H   0  0  0  0  0  0  0  0  0  0  0  0
   40.2034   30.4215   41.1734 H   0  0  0  0  0  0  0  0  0  0  0  0
   40.9320   32.5357   43.0067 H   0  0  0  0  0  0  0  0  0  0  0  0
  1  6  2  0
  2  1  1  0
  3  2  2  0
  3  4  1  0
  4  5  2  0
  5  6  1  0
  7  8  1  0
  8  9  1  0
  8  3  1  0
 10  9  1  0
 11  7  1  0
 11 10  1  0
 12  7  1  0
 13  2  1  0
 15 17  1  0
 15 14  2  0
 15 13  1  0
 16 15  1  0
 18 22  1  0
 18 23  1  0
 19 18  1  0
 19 17  1  0
 20 21  1  0
 20 19  1  0
 21 22  1  0
  1 24  1  0
  5 25  1  0
  7 26  1  1
  8 27  1  6
  9 28  1  0
  9 29  1  0
 11 30  1  0
 11 31  1  0
 12 32  1  0
 16 33  1  0
 18 34  1  6
 19 35  1  6
 20 36  1  0
 20 37  1  0
 22 38  1  0
 22 39  1  0
 23 40  1  0
M  ISO  8  24  14  25  14  26  13  27  13  28  13  29  13  30  13  31  13
M  ISO  8  32   3  33   3  34  13  35  13  36  13  37  13  38  13  39  13
M  ISO  1  40   3
M  END
>  <minimizedAffinity>  (1) 
-4.98211575

>  <minimizedRMSD>  (1) 
6.65951824

$$$$
