
     RDKit          3D

 25 26  0  0  0  0  0  0  0  0999 V2000
   44.4740   35.9230   44.8050 C   0  0  0  0  0  0  0  0  0  0  0  0
   45.1910   35.8450   43.6000 C   0  0  0  0  0  0  0  0  0  0  0  0
   46.1060   34.7800   43.4540 C   0  0  0  0  0  0  0  0  0  0  0  0
   46.2320   33.8990   44.4940 N   0  0  0  0  0  0  0  0  0  0  0  0
   45.5170   34.0140   45.6420 C   0  0  0  0  0  0  0  0  0  0  0  0
   44.6400   35.0320   45.7860 N   0  0  0  0  0  0  0  0  0  0  0  0
   46.8910   34.5960   42.2780 N   0  0  0  0  0  0  0  0  0  0  0  0
   48.3380   34.7050   42.3150 C   0  0  0  0  0  0  0  0  0  0  0  0
   48.7050   35.4700   41.0360 C   0  0  0  0  0  0  0  0  0  0  0  0
   48.3400   34.6890   39.8110 C   0  0  0  0  0  0  0  0  0  0  0  0
   47.0780   33.9080   39.9230 C   0  0  0  0  0  0  0  0  0  0  0  0
   46.1840   34.2990   41.0570 C   0  0  0  0  0  0  0  0  0  0  0  0
   43.7539   36.7427   44.9451 H   0  0  0  0  0  0  0  0  0  0  0  0
   45.0451   36.5858   42.8001 H   0  0  0  0  0  0  0  0  0  0  0  0
   45.6509   33.2816   46.4518 H   0  0  0  0  0  0  0  0  0  0  0  0
   48.6622   35.2620   43.2065 H   0  0  0  0  0  0  0  0  0  0  0  0
   48.8279   33.7214   42.3662 H   0  0  0  0  0  0  0  0  0  0  0  0
   48.1649   36.4282   41.0242 H   0  0  0  0  0  0  0  0  0  0  0  0
   49.7924   35.6360   41.0307 H   0  0  0  0  0  0  0  0  0  0  0  0
   49.1591   33.9871   39.5958 H   0  0  0  0  0  0  0  0  0  0  0  0
   48.1788   35.4257   39.0102 H   0  0  0  0  0  0  0  0  0  0  0  0
   46.5150   34.0354   38.9866 H   0  0  0  0  0  0  0  0  0  0  0  0
   47.3795   32.8681   40.1173 H   0  0  0  0  0  0  0  0  0  0  0  0
   45.6158   35.1924   40.7588 H   0  0  0  0  0  0  0  0  0  0  0  0
   45.5331   33.4369   41.2646 H   0  0  0  0  0  0  0  0  0  0  0  0
  1  6  2  0
  2  1  1  0
  3  2  2  0
  3  4  1  0
  4  5  2  0
  5  6  1  0
  7  8  1  0
  7  3  1  0
  9  8  1  0
 10 11  1  0
 10  9  1  0
 11 12  1  0
 12  7  1  0
  1 13  1  0
  2 14  1  0
  5 15  1  0
  8 16  1  0
  8 17  1  0
  9 18  1  0
  9 19  1  0
 10 20  1  0
 10 21  1  0
 11 22  1  0
 11 23  1  0
 12 24  1  0
 12 25  1  0
M  ISO  8  13  14  14  14  15  14  16  13  17  13  18  13  19  13  20  13
M  ISO  5  21  13  22  13  23  13  24  13  25  13
M  END
>  <minimizedAffinity>  (1) 
-4.69760752

>  <minimizedRMSD>  (1) 
0.675276279

$$$$
