
     RDKit          3D

 32 34  0  0  1  0  0  0  0  0999 V2000
   46.8190   34.5640   42.2990 N   0  0  0  0  0  0  0  0  0  0  0  0
   48.2650   34.6370   42.3120 C   0  0  0  0  0  0  0  0  0  0  0  0
   48.6610   35.4000   41.0540 C   0  0  0  0  0  0  0  0  0  0  0  0
   48.2560   34.6720   39.8200 C   0  0  0  0  0  0  0  0  0  0  0  0
   47.0020   33.8880   39.9370 C   0  0  0  0  0  0  0  0  0  0  0  0
   46.1200   34.2560   41.0890 C   0  0  1  0  0  0  0  0  0  0  0  0
   44.4620   35.9740   44.8250 C   0  0  0  0  0  0  0  0  0  0  0  0
   45.1640   35.8730   43.6070 C   0  0  0  0  0  0  0  0  0  0  0  0
   46.0460   34.7920   43.4720 C   0  0  0  0  0  0  0  0  0  0  0  0
   46.1680   33.9140   44.5250 N   0  0  0  0  0  0  0  0  0  0  0  0
   45.4680   34.0630   45.6740 C   0  0  0  0  0  0  0  0  0  0  0  0
   44.6130   35.0980   45.8200 N   0  0  0  0  0  0  0  0  0  0  0  0
   45.1730   33.1100   41.2800 C   0  0  0  0  0  0  0  0  0  0  0  0
   45.4400   31.7840   41.4780 C   0  0  0  0  0  0  0  0  0  0  0  0
   44.2470   31.1030   41.6030 C   0  0  0  0  0  0  0  0  0  0  0  0
   43.2800   32.0240   41.4810 N   0  0  0  0  0  0  0  0  0  0  0  0
   43.8320   33.2070   41.2900 N   0  0  0  0  0  0  0  0  0  0  0  0
   48.6122   35.1721   43.2082 H   0  0  0  0  0  0  0  0  0  0  0  0
   48.7178   33.6347   42.3333 H   0  0  0  0  0  0  0  0  0  0  0  0
   48.1705   36.3846   41.0646 H   0  0  0  0  0  0  0  0  0  0  0  0
   49.7559   35.5060   41.0467 H   0  0  0  0  0  0  0  0  0  0  0  0
   49.0673   33.9797   39.5506 H   0  0  0  0  0  0  0  0  0  0  0  0
   48.0670   35.4418   39.0573 H   0  0  0  0  0  0  0  0  0  0  0  0
   46.4262   34.0285   39.0103 H   0  0  0  0  0  0  0  0  0  0  0  0
   47.3107   32.8468   40.1121 H   0  0  0  0  0  0  0  0  0  0  0  0
   45.5949   35.1924   40.8495 H   0  0  0  0  0  0  0  0  0  0  0  0
   43.7602   36.8101   44.9610 H   0  0  0  0  0  0  0  0  0  0  0  0
   45.0262   36.6080   42.8003 H   0  0  0  0  0  0  0  0  0  0  0  0
   45.5961   33.3384   46.4917 H   0  0  0  0  0  0  0  0  0  0  0  0
   46.4423   31.3337   41.5293 H   0  0  0  0  0  0  0  0  0  0  0  0
   44.1155   30.0236   41.7690 H   0  0  0  0  0  0  0  0  0  0  0  0
   42.2681   31.8377   41.5288 H   0  0  0  0  0  0  0  0  0  0  0  0
  1  2  1  0
  1  9  1  0
  3  2  1  0
  4  5  1  0
  4  3  1  0
  5  6  1  0
  6 13  1  0
  6  1  1  0
  7 12  2  0
  8  7  1  0
  9  8  2  0
  9 10  1  0
 10 11  2  0
 11 12  1  0
 13 17  2  0
 13 14  1  0
 14 15  2  0
 16 15  1  0
 17 16  1  0
  2 18  1  0
  2 19  1  0
  3 20  1  0
  3 21  1  0
  4 22  1  0
  4 23  1  0
  5 24  1  0
  5 25  1  0
  6 26  1  6
  7 27  1  0
  8 28  1  0
 11 29  1  0
 14 30  1  0
 15 31  1  0
 16 32  1  0
M  ISO  8  18  13  19  13  20  13  21  13  22  13  23  13  24  13  25  13
M  ISO  7  26  13  27  14  28  14  29  14  30  14  31  14  32   9
M  END
>  <minimizedAffinity>  (1) 
-4.99245882

>  <minimizedRMSD>  (1) 
0.175884426

$$$$
