
     RDKit          3D

 27 28  0  0  1  0  0  0  0  0999 V2000
   46.8970   34.6030   42.2390 N   0  0  0  0  0  0  0  0  0  0  0  0
   48.3340   34.7560   42.2660 C   0  0  0  0  0  0  0  0  0  0  0  0
   48.6760   35.5030   40.9720 C   0  0  0  0  0  0  0  0  0  0  0  0
   48.3260   34.6940   39.7630 C   0  0  0  0  0  0  0  0  0  0  0  0
   47.1180   33.8430   39.9230 C   0  0  0  0  0  0  0  0  0  0  0  0
   46.2040   34.2400   41.0410 C   0  0  1  0  0  0  0  0  0  0  0  0
   44.5030   35.9970   44.7570 C   0  0  0  0  0  0  0  0  0  0  0  0
   45.2310   35.8920   43.5650 C   0  0  0  0  0  0  0  0  0  0  0  0
   46.1080   34.8080   43.4080 C   0  0  0  0  0  0  0  0  0  0  0  0
   46.2000   33.9060   44.4420 N   0  0  0  0  0  0  0  0  0  0  0  0
   45.4690   34.0470   45.5890 C   0  0  0  0  0  0  0  0  0  0  0  0
   44.6240   35.1020   45.7290 N   0  0  0  0  0  0  0  0  0  0  0  0
   45.3240   33.1330   41.3520 N   0  0  0  0  0  0  0  0  0  0  0  0
   48.6444   35.3412   43.1442 H   0  0  0  0  0  0  0  0  0  0  0  0
   48.8521   33.7881   42.3344 H   0  0  0  0  0  0  0  0  0  0  0  0
   48.1131   36.4477   40.9452 H   0  0  0  0  0  0  0  0  0  0  0  0
   49.7595   35.6923   40.9588 H   0  0  0  0  0  0  0  0  0  0  0  0
   49.1788   34.0403   39.5277 H   0  0  0  0  0  0  0  0  0  0  0  0
   48.1011   35.4109   38.9596 H   0  0  0  0  0  0  0  0  0  0  0  0
   46.5458   33.8838   38.9844 H   0  0  0  0  0  0  0  0  0  0  0  0
   47.4839   32.8355   40.1699 H   0  0  0  0  0  0  0  0  0  0  0  0
   45.6494   35.1239   40.6929 H   0  0  0  0  0  0  0  0  0  0  0  0
   43.8132   36.8433   44.8907 H   0  0  0  0  0  0  0  0  0  0  0  0
   45.1177   36.6430   42.7693 H   0  0  0  0  0  0  0  0  0  0  0  0
   45.5649   33.3073   46.3975 H   0  0  0  0  0  0  0  0  0  0  0  0
   45.2451   33.0338   42.3742 H   0  0  0  0  0  0  0  0  0  0  0  0
   44.3921   33.3122   40.9515 H   0  0  0  0  0  0  0  0  0  0  0  0
  1  2  1  0
  1  9  1  0
  3  2  1  0
  4  5  1  0
  4  3  1  0
  5  6  1  0
  6 13  1  0
  6  1  1  0
  7 12  2  0
  8  7  1  0
  9  8  2  0
  9 10  1  0
 10 11  2  0
 11 12  1  0
  2 14  1  0
  2 15  1  0
  3 16  1  0
  3 17  1  0
  4 18  1  0
  4 19  1  0
  5 20  1  0
  5 21  1  0
  6 22  1  6
  7 23  1  0
  8 24  1  0
 11 25  1  0
 13 26  1  0
 13 27  1  0
M  ISO  8  14  13  15  13  16  13  17  13  18  13  19  13  20  13  21  13
M  ISO  6  22  13  23  14  24  14  25  14  26   5  27   5
M  END
>  <minimizedAffinity>  (1) 
-4.82155704

>  <minimizedRMSD>  (1) 
0.0727727488

$$$$
