
     RDKit          3D

 40 43  0  0  1  0  0  0  0  0999 V2000
   46.6290   34.4650   42.2630 N   0  0  0  0  0  0  0  0  0  0  0  0
   48.0550   34.1640   42.3090 C   0  0  0  0  0  0  0  0  0  0  0  0
   48.6390   34.9100   41.1130 C   0  0  0  0  0  0  0  0  0  0  0  0
   48.1040   34.3430   39.8330 C   0  0  0  0  0  0  0  0  0  0  0  0
   46.6660   33.9680   39.8690 C   0  0  0  0  0  0  0  0  0  0  0  0
   45.8930   34.4900   41.0290 C   0  0  1  0  0  0  0  0  0  0  0  0
   44.4620   36.1190   44.8250 C   0  0  0  0  0  0  0  0  0  0  0  0
   45.1330   35.9200   43.6130 C   0  0  0  0  0  0  0  0  0  0  0  0
   45.9130   34.7470   43.4620 C   0  0  0  0  0  0  0  0  0  0  0  0
   45.9610   33.8830   44.5110 N   0  0  0  0  0  0  0  0  0  0  0  0
   45.2900   34.1230   45.6690 C   0  0  0  0  0  0  0  0  0  0  0  0
   44.5460   35.2370   45.8150 N   0  0  0  0  0  0  0  0  0  0  0  0
   44.7510   33.6850   41.1850 O   0  0  0  0  0  0  0  0  0  0  0  0
   43.8180   33.4320   40.2130 C   0  0  0  0  0  0  0  0  0  0  0  0
   43.8780   32.5710   39.1840 N   0  0  0  0  0  0  0  0  0  0  0  0
   42.8830   32.4330   38.3090 C   0  0  0  0  0  0  0  0  0  0  0  0
   41.7470   33.1690   38.4250 N   0  0  0  0  0  0  0  0  0  0  0  0
   41.6220   34.0470   39.4290 C   0  0  0  0  0  0  0  0  0  0  0  0
   40.4720   34.7940   39.5470 C   0  0  0  0  0  0  0  0  0  0  0  0
   40.3040   35.7050   40.5620 C   0  0  0  0  0  0  0  0  0  0  0  0
   41.3100   35.8600   41.4660 C   0  0  0  0  0  0  0  0  0  0  0  0
   42.4580   35.1070   41.3380 C   0  0  0  0  0  0  0  0  0  0  0  0
   42.6620   34.1810   40.3290 C   0  0  0  0  0  0  0  0  0  0  0  0
   48.4991   34.5258   43.2481 H   0  0  0  0  0  0  0  0  0  0  0  0
   48.2570   33.0835   42.2686 H   0  0  0  0  0  0  0  0  0  0  0  0
   48.3662   35.9735   41.1805 H   0  0  0  0  0  0  0  0  0  0  0  0
   49.7334   34.7997   41.1228 H   0  0  0  0  0  0  0  0  0  0  0  0
   48.6862   33.4424   39.5882 H   0  0  0  0  0  0  0  0  0  0  0  0
   48.1972   35.1390   39.0795 H   0  0  0  0  0  0  0  0  0  0  0  0
   46.1945   34.3470   38.9503 H   0  0  0  0  0  0  0  0  0  0  0  0
   46.6435   32.8721   39.9617 H   0  0  0  0  0  0  0  0  0  0  0  0
   45.6481   35.5411   40.8163 H   0  0  0  0  0  0  0  0  0  0  0  0
   43.8524   37.0245   44.9607 H   0  0  0  0  0  0  0  0  0  0  0  0
   45.0567   36.6555   42.7986 H   0  0  0  0  0  0  0  0  0  0  0  0
   45.3552   33.4000   46.4955 H   0  0  0  0  0  0  0  0  0  0  0  0
   42.9825   31.7142   37.4823 H   0  0  0  0  0  0  0  0  0  0  0  0
   39.6668   34.6583   38.8100 H   0  0  0  0  0  0  0  0  0  0  0  0
   39.3789   36.2948   40.6421 H   0  0  0  0  0  0  0  0  0  0  0  0
   41.2079   36.5798   42.2915 H   0  0  0  0  0  0  0  0  0  0  0  0
   43.2574   35.2501   42.0799 H   0  0  0  0  0  0  0  0  0  0  0  0
  1  2  1  0
  1  9  1  0
  3  2  1  0
  4  5  1  0
  4  3  1  0
  5  6  1  0
  6 13  1  0
  6  1  1  0
  7 12  2  0
  8  7  1  0
  9  8  2  0
  9 10  1  0
 10 11  2  0
 11 12  1  0
 14 23  1  0
 14 13  1  0
 15 14  2  0
 16 17  2  0
 16 15  1  0
 17 18  1  0
 18 19  1  0
 18 23  2  0
 19 20  2  0
 20 21  1  0
 22 21  2  0
 23 22  1  0
  2 24  1  0
  2 25  1  0
  3 26  1  0
  3 27  1  0
  4 28  1  0
  4 29  1  0
  5 30  1  0
  5 31  1  0
  6 32  1  6
  7 33  1  0
  8 34  1  0
 11 35  1  0
 16 36  1  0
 19 37  1  0
 20 38  1  0
 21 39  1  0
 22 40  1  0
M  ISO  8  24  13  25  13  26  13  27  13  28  13  29  13  30  13  31  13
M  ISO  8  32  13  33  14  34  14  35  14  36  14  37  14  38  14  39  14
M  ISO  1  40  14
M  END
>  <minimizedAffinity>  (1) 
-6.52040768

>  <minimizedRMSD>  (1) 
1.54799402

$$$$
