
     RDKit          3D

 36 38  0  0  1  0  0  0  0  0999 V2000
   46.7370   34.5410   42.2630 N   0  0  0  0  0  0  0  0  0  0  0  0
   48.1940   34.5340   42.2850 C   0  0  0  0  0  0  0  0  0  0  0  0
   48.5710   35.3060   41.0020 C   0  0  0  0  0  0  0  0  0  0  0  0
   48.1720   34.4970   39.8100 C   0  0  0  0  0  0  0  0  0  0  0  0
   46.8170   33.8820   39.9100 C   0  0  0  0  0  0  0  0  0  0  0  0
   45.9660   34.3380   41.0600 C   0  0  1  0  0  0  0  0  0  0  0  0
   44.4620   36.0060   44.8510 C   0  0  0  0  0  0  0  0  0  0  0  0
   45.1400   35.8780   43.6320 C   0  0  0  0  0  0  0  0  0  0  0  0
   46.0000   34.7590   43.4740 C   0  0  0  0  0  0  0  0  0  0  0  0
   46.1140   33.8800   44.5150 N   0  0  0  0  0  0  0  0  0  0  0  0
   45.4370   34.0500   45.6720 C   0  0  0  0  0  0  0  0  0  0  0  0
   44.6080   35.1210   45.8320 N   0  0  0  0  0  0  0  0  0  0  0  0
   45.0180   33.3610   41.3020 O   0  0  0  0  0  0  0  0  0  0  0  0
   41.8040   32.0700   42.0610 N   0  0  0  0  0  0  0  0  0  0  0  0
   43.1490   32.2730   41.9270 C   0  0  0  0  0  0  0  0  0  0  0  0
   43.6580   33.4190   41.2940 C   0  0  0  0  0  0  0  0  0  0  0  0
   42.7140   34.3100   40.8250 C   0  0  0  0  0  0  0  0  0  0  0  0
   43.2600   35.3000   40.2760 O   0  0  0  0  0  0  0  0  0  0  0  0
   41.4040   34.0600   40.9840 N   0  0  0  0  0  0  0  0  0  0  0  0
   40.9420   32.9710   41.5840 C   0  0  0  0  0  0  0  0  0  0  0  0
   39.6880   32.8440   41.6750 O   0  0  0  0  0  0  0  0  0  0  0  0
   48.5773   35.0458   43.1801 H   0  0  0  0  0  0  0  0  0  0  0  0
   48.6196   33.5203   42.3188 H   0  0  0  0  0  0  0  0  0  0  0  0
   48.0445   36.2717   40.9849 H   0  0  0  0  0  0  0  0  0  0  0  0
   49.6562   35.4850   40.9823 H   0  0  0  0  0  0  0  0  0  0  0  0
   48.9078   33.6897   39.6799 H   0  0  0  0  0  0  0  0  0  0  0  0
   48.1408   35.1896   38.9560 H   0  0  0  0  0  0  0  0  0  0  0  0
   46.2753   34.1102   38.9802 H   0  0  0  0  0  0  0  0  0  0  0  0
   46.9920   32.8094   40.0800 H   0  0  0  0  0  0  0  0  0  0  0  0
   45.5063   35.3005   40.7914 H   0  0  0  0  0  0  0  0  0  0  0  0
   43.7895   36.8635   45.0008 H   0  0  0  0  0  0  0  0  0  0  0  0
   45.0111   36.6167   42.8272 H   0  0  0  0  0  0  0  0  0  0  0  0
   45.5550   33.3218   46.4879 H   0  0  0  0  0  0  0  0  0  0  0  0
   41.4554   31.2218   42.5300 H   0  0  0  0  0  0  0  0  0  0  0  0
   43.8484   31.5223   42.3237 H   0  0  0  0  0  0  0  0  0  0  0  0
   40.7261   34.7463   40.6230 H   0  0  0  0  0  0  0  0  0  0  0  0
  1  2  1  0
  1  9  1  0
  3  2  1  0
  4  5  1  0
  4  3  1  0
  5  6  1  0
  6 13  1  0
  6  1  1  0
  7 12  2  0
  8  7  1  0
  9  8  2  0
  9 10  1  0
 10 11  2  0
 11 12  1  0
 15 14  1  0
 16 13  1  0
 16 15  2  0
 17 19  1  0
 17 16  1  0
 18 17  2  0
 19 20  1  0
 20 21  2  0
 20 14  1  0
  2 22  1  0
  2 23  1  0
  3 24  1  0
  3 25  1  0
  4 26  1  0
  4 27  1  0
  5 28  1  0
  5 29  1  0
  6 30  1  6
  7 31  1  0
  8 32  1  0
 11 33  1  0
 14 34  1  0
 15 35  1  0
 19 36  1  0
M  ISO  8  22  13  23  13  24  13  25  13  26  13  27  13  28  13  29  13
M  ISO  7  30  13  31  14  32  14  33  14  34   9  35  14  36   9
M  END
>  <minimizedAffinity>  (1) 
-6.19591856

>  <minimizedRMSD>  (1) 
0.585469186

$$$$
