
     RDKit          3D

 39 41  0  0  1  0  0  0  0  0999 V2000
   46.8830   34.6390   42.2930 N   0  0  0  0  0  0  0  0  0  0  0  0
   48.3300   34.6940   42.3600 C   0  0  0  0  0  0  0  0  0  0  0  0
   48.7440   35.4780   41.1040 C   0  0  0  0  0  0  0  0  0  0  0  0
   48.3910   34.6990   39.8690 C   0  0  0  0  0  0  0  0  0  0  0  0
   47.0740   34.0020   39.9340 C   0  0  0  0  0  0  0  0  0  0  0  0
   46.1820   34.4270   41.0700 C   0  0  1  0  0  0  0  0  0  0  0  0
   44.4830   35.9450   44.8410 C   0  0  0  0  0  0  0  0  0  0  0  0
   45.2060   35.8760   43.6360 C   0  0  0  0  0  0  0  0  0  0  0  0
   46.1070   34.8000   43.4700 C   0  0  0  0  0  0  0  0  0  0  0  0
   46.2040   33.9090   44.5000 N   0  0  0  0  0  0  0  0  0  0  0  0
   45.4920   34.0140   45.6370 C   0  0  0  0  0  0  0  0  0  0  0  0
   44.6310   35.0390   45.7990 N   0  0  0  0  0  0  0  0  0  0  0  0
   45.2430   33.3930   41.2380 O   0  0  0  0  0  0  0  0  0  0  0  0
   43.7210   35.0150   40.3990 N   0  0  0  0  0  0  0  0  0  0  0  0
   44.0360   33.6360   40.6110 C   0  0  2  0  0  0  0  0  0  0  0  0
   42.8770   32.9130   41.2090 C   0  0  0  0  0  0  0  0  0  0  0  0
   41.7340   33.3050   40.5000 O   0  0  0  0  0  0  0  0  0  0  0  0
   41.3920   34.5560   41.0310 C   0  0  0  0  0  0  0  0  0  0  0  0
   42.5870   35.4620   41.1510 C   0  0  0  0  0  0  0  0  0  0  0  0
   48.6575   35.2173   43.2705 H   0  0  0  0  0  0  0  0  0  0  0  0
   48.7853   33.6934   42.3975 H   0  0  0  0  0  0  0  0  0  0  0  0
   48.2174   36.4436   41.0879 H   0  0  0  0  0  0  0  0  0  0  0  0
   49.8311   35.6446   41.1259 H   0  0  0  0  0  0  0  0  0  0  0  0
   49.1725   33.9426   39.7046 H   0  0  0  0  0  0  0  0  0  0  0  0
   48.3195   35.4281   39.0485 H   0  0  0  0  0  0  0  0  0  0  0  0
   46.5402   34.1936   38.9915 H   0  0  0  0  0  0  0  0  0  0  0  0
   47.2983   32.9383   40.1020 H   0  0  0  0  0  0  0  0  0  0  0  0
   45.7184   35.3932   40.8221 H   0  0  0  0  0  0  0  0  0  0  0  0
   43.7752   36.7732   44.9931 H   0  0  0  0  0  0  0  0  0  0  0  0
   45.0744   36.6339   42.8497 H   0  0  0  0  0  0  0  0  0  0  0  0
   45.6122   33.2646   46.4332 H   0  0  0  0  0  0  0  0  0  0  0  0
   44.5370   35.5817   40.6709 H   0  0  0  0  0  0  0  0  0  0  0  0
   44.2110   33.2075   39.6131 H   0  0  0  0  0  0  0  0  0  0  0  0
   43.0228   31.8265   41.1180 H   0  0  0  0  0  0  0  0  0  0  0  0
   42.7756   33.1538   42.2775 H   0  0  0  0  0  0  0  0  0  0  0  0
   40.6506   35.0312   40.3718 H   0  0  0  0  0  0  0  0  0  0  0  0
   40.9829   34.3971   42.0397 H   0  0  0  0  0  0  0  0  0  0  0  0
   42.8738   35.5213   42.2113 H   0  0  0  0  0  0  0  0  0  0  0  0
   42.2934   36.4403   40.7427 H   0  0  0  0  0  0  0  0  0  0  0  0
  1  2  1  0
  1  9  1  0
  3  2  1  0
  4  5  1  0
  4  3  1  0
  5  6  1  0
  6 13  1  0
  6  1  1  0
  7 12  2  0
  8  7  1  0
  9  8  2  0
  9 10  1  0
 10 11  2  0
 11 12  1  0
 14 15  1  0
 14 19  1  0
 15 16  1  0
 15 13  1  0
 17 18  1  0
 17 16  1  0
 18 19  1  0
  2 20  1  0
  2 21  1  0
  3 22  1  0
  3 23  1  0
  4 24  1  0
  4 25  1  0
  5 26  1  0
  5 27  1  0
  6 28  1  6
  7 29  1  0
  8 30  1  0
 11 31  1  0
 14 32  1  0
 15 33  1  6
 16 34  1  0
 16 35  1  0
 18 36  1  0
 18 37  1  0
 19 38  1  0
 19 39  1  0
M  ISO  8  20  13  21  13  22  13  23  13  24  13  25  13  26  13  27  13
M  ISO  8  28  13  29  14  30  14  31  14  32   5  33  13  34  13  35  13
M  ISO  4  36  13  37  13  38  13  39  13
M  END
>  <minimizedAffinity>  (1) 
-5.79271746

>  <minimizedRMSD>  (1) 
0.848680854

$$$$
