
     RDKit          3D

 28 29  0  0  0  0  0  0  0  0999 V2000
   46.8350   32.7750   46.1140 C   0  0  0  0  0  0  0  0  0  0  0  0
   46.2270   32.0270   47.2090 C   0  0  0  0  0  0  0  0  0  0  0  0
   45.3930   32.3970   48.2170 C   0  0  0  0  0  0  0  0  0  0  0  0
   44.8870   31.5210   49.1500 C   0  0  0  0  0  0  0  0  0  0  0  0
   45.2170   30.1990   49.0930 C   0  0  0  0  0  0  0  0  0  0  0  0
   46.0690   29.7860   48.0740 C   0  0  0  0  0  0  0  0  0  0  0  0
   46.5530   30.7060   47.1630 C   0  0  0  0  0  0  0  0  0  0  0  0
   47.4250   29.8610   46.3650 C   0  0  0  0  0  0  0  0  0  0  0  0
   48.6060   29.7160   46.0450 O   0  0  0  0  0  0  0  0  0  0  0  0
   46.0940   32.6400   44.8140 C   0  0  0  0  0  0  0  0  0  0  0  0
   44.5490   35.9810   44.7760 C   0  0  0  0  0  0  0  0  0  0  0  0
   44.9590   36.4850   43.5090 C   0  0  0  0  0  0  0  0  0  0  0  0
   45.7590   35.6640   42.7360 C   0  0  0  0  0  0  0  0  0  0  0  0
   46.1090   34.4560   43.1960 N   0  0  0  0  0  0  0  0  0  0  0  0
   45.6890   34.0240   44.4110 C   0  0  0  0  0  0  0  0  0  0  0  0
   44.9280   34.7630   45.1910 N   0  0  0  0  0  0  0  0  0  0  0  0
   46.8613   33.8392   46.3913 H   0  0  0  0  0  0  0  0  0  0  0  0
   47.8419   32.3604   45.9579 H   0  0  0  0  0  0  0  0  0  0  0  0
   45.1065   33.4565   48.2910 H   0  0  0  0  0  0  0  0  0  0  0  0
   44.2165   31.8870   49.9415 H   0  0  0  0  0  0  0  0  0  0  0  0
   44.8224   29.4828   49.8287 H   0  0  0  0  0  0  0  0  0  0  0  0
   46.3575   28.7276   47.9932 H   0  0  0  0  0  0  0  0  0  0  0  0
   46.8220   29.0805   45.8779 H   0  0  0  0  0  0  0  0  0  0  0  0
   46.7475   32.1969   44.0481 H   0  0  0  0  0  0  0  0  0  0  0  0
   45.2176   31.9840   44.9215 H   0  0  0  0  0  0  0  0  0  0  0  0
   43.9116   36.6000   45.4245 H   0  0  0  0  0  0  0  0  0  0  0  0
   44.6530   37.4826   43.1609 H   0  0  0  0  0  0  0  0  0  0  0  0
   46.1062   36.0013   41.7482 H   0  0  0  0  0  0  0  0  0  0  0  0
  1  2  1  0
  2  3  2  0
  3  4  1  0
  5  4  2  0
  6  5  1  0
  7  2  1  0
  7  6  2  0
  8  7  1  0
  9  8  2  0
 10  1  1  0
 11 16  2  0
 12 11  1  0
 13 14  1  0
 13 12  2  0
 14 15  2  0
 15 10  1  0
 15 16  1  0
  1 17  1  0
  1 18  1  0
  3 19  1  0
  4 20  1  0
  5 21  1  0
  6 22  1  0
  8 23  1  0
 10 24  1  0
 10 25  1  0
 11 26  1  0
 12 27  1  0
 13 28  1  0
M  ISO  8  17   8  18   8  19  14  20  14  21  14  22  14  23   6  24   8
M  ISO  4  25   8  26  14  27  14  28  14
M  END
>  <minimizedAffinity>  (1) 
-4.51940441

>  <minimizedRMSD>  (1) 
0.727218151

$$$$
