
     RDKit          3D

 32 33  0  0  1  0  0  0  0  0999 V2000
   46.8810   34.6150   42.2940 N   0  0  0  0  0  0  0  0  0  0  0  0
   48.3370   34.6650   42.3560 C   0  0  0  0  0  0  0  0  0  0  0  0
   48.7310   35.4690   41.1000 C   0  0  0  0  0  0  0  0  0  0  0  0
   48.3700   34.7000   39.8600 C   0  0  0  0  0  0  0  0  0  0  0  0
   47.0640   33.9970   39.9280 C   0  0  0  0  0  0  0  0  0  0  0  0
   46.1690   34.3980   41.0690 C   0  0  1  0  0  0  0  0  0  0  0  0
   44.4790   35.9390   44.8310 C   0  0  0  0  0  0  0  0  0  0  0  0
   45.1990   35.8590   43.6310 C   0  0  0  0  0  0  0  0  0  0  0  0
   46.0960   34.7860   43.4820 C   0  0  0  0  0  0  0  0  0  0  0  0
   46.2120   33.8950   44.5060 N   0  0  0  0  0  0  0  0  0  0  0  0
   45.4890   34.0200   45.6480 C   0  0  0  0  0  0  0  0  0  0  0  0
   44.6190   35.0540   45.7990 N   0  0  0  0  0  0  0  0  0  0  0  0
   45.2470   33.3600   41.2490 O   0  0  0  0  0  0  0  0  0  0  0  0
   44.2070   33.3920   40.3550 C   0  0  0  0  0  0  0  0  0  0  0  0
   43.4980   34.7330   40.5730 C   0  0  0  0  0  0  0  0  0  0  0  0
   48.6730   35.1764   43.2701 H   0  0  0  0  0  0  0  0  0  0  0  0
   48.7963   33.6659   42.3831 H   0  0  0  0  0  0  0  0  0  0  0  0
   48.1960   36.4301   41.1007 H   0  0  0  0  0  0  0  0  0  0  0  0
   49.8168   35.6449   41.1111 H   0  0  0  0  0  0  0  0  0  0  0  0
   49.1545   33.9501   39.6805 H   0  0  0  0  0  0  0  0  0  0  0  0
   48.2854   35.4379   39.0486 H   0  0  0  0  0  0  0  0  0  0  0  0
   46.5247   34.1932   38.9896 H   0  0  0  0  0  0  0  0  0  0  0  0
   47.3016   32.9353   40.0905 H   0  0  0  0  0  0  0  0  0  0  0  0
   45.6858   35.3538   40.8181 H   0  0  0  0  0  0  0  0  0  0  0  0
   43.7717   36.7698   44.9705 H   0  0  0  0  0  0  0  0  0  0  0  0
   45.0674   36.6074   42.8356 H   0  0  0  0  0  0  0  0  0  0  0  0
   45.6074   33.2817   46.4547 H   0  0  0  0  0  0  0  0  0  0  0  0
   43.5144   32.5589   40.5455 H   0  0  0  0  0  0  0  0  0  0  0  0
   44.5647   33.2910   39.3197 H   0  0  0  0  0  0  0  0  0  0  0  0
   43.3973   34.9234   41.6517 H   0  0  0  0  0  0  0  0  0  0  0  0
   44.0879   35.5389   40.1119 H   0  0  0  0  0  0  0  0  0  0  0  0
   42.4999   34.6993   40.1119 H   0  0  0  0  0  0  0  0  0  0  0  0
  1  2  1  0
  1  9  1  0
  3  2  1  0
  4  5  1  0
  4  3  1  0
  5  6  1  0
  6 13  1  0
  6  1  1  0
  7 12  2  0
  8  7  1  0
  9  8  2  0
  9 10  1  0
 10 11  2  0
 11 12  1  0
 14 15  1  0
 14 13  1  0
  2 16  1  0
  2 17  1  0
  3 18  1  0
  3 19  1  0
  4 20  1  0
  4 21  1  0
  5 22  1  0
  5 23  1  0
  6 24  1  6
  7 25  1  0
  8 26  1  0
 11 27  1  0
 14 28  1  0
 14 29  1  0
 15 30  1  0
 15 31  1  0
 15 32  1  0
M  ISO  8  16  13  17  13  18  13  19  13  20  13  21  13  22  13  23  13
M  ISO  8  24  13  25  14  26  14  27  14  28   8  29   8  30   8  31   8
M  ISO  1  32   8
M  END
>  <minimizedAffinity>  (1) 
-4.80242872

>  <minimizedRMSD>  (1) 
0.359361112

$$$$
