
     RDKit          3D

 29 30  0  0  1  0  0  0  0  0999 V2000
   46.8850   34.6040   42.2870 N   0  0  0  0  0  0  0  0  0  0  0  0
   48.3310   34.6890   42.3450 C   0  0  0  0  0  0  0  0  0  0  0  0
   48.7100   35.4780   41.0840 C   0  0  0  0  0  0  0  0  0  0  0  0
   48.3600   34.6970   39.8550 C   0  0  0  0  0  0  0  0  0  0  0  0
   47.0690   33.9490   39.9340 C   0  0  0  0  0  0  0  0  0  0  0  0
   46.1790   34.3430   41.0760 C   0  0  1  0  0  0  0  0  0  0  0  0
   44.4750   35.9180   44.8340 C   0  0  0  0  0  0  0  0  0  0  0  0
   45.1940   35.8420   43.6230 C   0  0  0  0  0  0  0  0  0  0  0  0
   46.1000   34.7820   43.4730 C   0  0  0  0  0  0  0  0  0  0  0  0
   46.2280   33.8910   44.5120 N   0  0  0  0  0  0  0  0  0  0  0  0
   45.5120   34.0130   45.6500 C   0  0  0  0  0  0  0  0  0  0  0  0
   44.6330   35.0350   45.8030 N   0  0  0  0  0  0  0  0  0  0  0  0
   45.2650   33.2920   41.2900 O   0  0  0  0  0  0  0  0  0  0  0  0
   44.0650   33.5130   40.6380 C   0  0  0  0  0  0  0  0  0  0  0  0
   48.6549   35.2218   43.2512 H   0  0  0  0  0  0  0  0  0  0  0  0
   48.8110   33.7000   42.3847 H   0  0  0  0  0  0  0  0  0  0  0  0
   48.1627   36.4322   41.0752 H   0  0  0  0  0  0  0  0  0  0  0  0
   49.7941   35.6643   41.0919 H   0  0  0  0  0  0  0  0  0  0  0  0
   49.1654   33.9709   39.6702 H   0  0  0  0  0  0  0  0  0  0  0  0
   48.2431   35.4314   39.0445 H   0  0  0  0  0  0  0  0  0  0  0  0
   46.5180   34.1186   38.9972 H   0  0  0  0  0  0  0  0  0  0  0  0
   47.3335   32.8941   40.0989 H   0  0  0  0  0  0  0  0  0  0  0  0
   45.6781   35.2833   40.8025 H   0  0  0  0  0  0  0  0  0  0  0  0
   43.7585   36.7405   44.9760 H   0  0  0  0  0  0  0  0  0  0  0  0
   45.0496   36.5863   42.8260 H   0  0  0  0  0  0  0  0  0  0  0  0
   45.6422   33.2788   46.4587 H   0  0  0  0  0  0  0  0  0  0  0  0
   43.2663   33.6601   41.3799 H   0  0  0  0  0  0  0  0  0  0  0  0
   44.1500   34.4106   40.0078 H   0  0  0  0  0  0  0  0  0  0  0  0
   43.8246   32.6440   40.0078 H   0  0  0  0  0  0  0  0  0  0  0  0
  1  2  1  0
  1  9  1  0
  3  2  1  0
  4  5  1  0
  4  3  1  0
  5  6  1  0
  6 13  1  0
  6  1  1  0
  7 12  2  0
  8  7  1  0
  9  8  2  0
  9 10  1  0
 10 11  2  0
 11 12  1  0
 14 13  1  0
  2 15  1  0
  2 16  1  0
  3 17  1  0
  3 18  1  0
  4 19  1  0
  4 20  1  0
  5 21  1  0
  5 22  1  0
  6 23  1  6
  7 24  1  0
  8 25  1  0
 11 26  1  0
 14 27  1  0
 14 28  1  0
 14 29  1  0
M  ISO  8  15  13  16  13  17  13  18  13  19  13  20  13  21  13  22  13
M  ISO  7  23  13  24  14  25  14  26  14  27   8  28   8  29   8
M  END
>  <minimizedAffinity>  (1) 
-4.74158669

>  <minimizedRMSD>  (1) 
0.165601745

$$$$
