
     RDKit          3D

 43 46  0  0  0  0  0  0  0  0999 V2000
   45.0650   34.5010   41.3120 C   0  0  0  0  0  0  0  0  0  0  0  0
   45.3890   35.2200   42.4580 C   0  0  0  0  0  0  0  0  0  0  0  0
   46.7410   35.4950   42.7020 C   0  0  0  0  0  0  0  0  0  0  0  0
   47.6940   35.0570   41.8240 C   0  0  0  0  0  0  0  0  0  0  0  0
   47.3940   34.3520   40.6950 C   0  0  0  0  0  0  0  0  0  0  0  0
   46.0380   34.0860   40.4670 C   0  0  0  0  0  0  0  0  0  0  0  0
   41.3920   34.8040   40.5110 C   0  0  0  0  0  0  0  0  0  0  0  0
   42.7340   35.1730   40.6650 C   0  0  0  0  0  0  0  0  0  0  0  0
   43.6490   34.2450   41.1110 C   0  0  0  0  0  0  0  0  0  0  0  0
   43.1740   32.9980   41.3790 N   0  0  0  0  0  0  0  0  0  0  0  0
   41.8770   32.6510   41.2270 C   0  0  0  0  0  0  0  0  0  0  0  0
   40.9770   33.5550   40.7900 N   0  0  0  0  0  0  0  0  0  0  0  0
   40.4000   35.8000   40.0280 C   0  0  0  0  0  0  0  0  0  0  0  0
   39.2240   35.1190   39.7410 F   0  0  0  0  0  0  0  0  0  0  0  0
   40.8630   36.2730   38.8070 F   0  0  0  0  0  0  0  0  0  0  0  0
   40.1560   36.8030   40.9280 F   0  0  0  0  0  0  0  0  0  0  0  0
   45.6250   32.0150   38.9200 C   0  0  0  0  0  0  0  0  0  0  0  0
   46.1040   31.0830   39.5620 O   0  0  0  0  0  0  0  0  0  0  0  0
   45.5810   33.3650   39.3360 N   0  0  0  0  0  0  0  0  0  0  0  0
   45.0590   31.6800   37.6160 C   0  0  0  0  0  0  0  0  0  0  0  0
   43.7600   31.2420   37.5900 C   0  0  0  0  0  0  0  0  0  0  0  0
   43.1350   30.9010   36.4130 C   0  0  0  0  0  0  0  0  0  0  0  0
   43.7910   30.9840   35.1800 C   0  0  0  0  0  0  0  0  0  0  0  0
   45.1090   31.4300   35.2250 C   0  0  0  0  0  0  0  0  0  0  0  0
   45.7870   31.5230   34.0220 C   0  0  0  0  0  0  0  0  0  0  0  0
   47.1080   31.9650   34.0170 C   0  0  0  0  0  0  0  0  0  0  0  0
   47.6950   32.2960   35.2270 C   0  0  0  0  0  0  0  0  0  0  0  0
   47.0300   32.2080   36.4320 C   0  0  0  0  0  0  0  0  0  0  0  0
   45.7250   31.7680   36.4120 C   0  0  0  0  0  0  0  0  0  0  0  0
   44.6071   35.5624   43.1519 H   0  0  0  0  0  0  0  0  0  0  0  0
   47.0354   36.0618   43.5976 H   0  0  0  0  0  0  0  0  0  0  0  0
   48.7491   35.2832   42.0376 H   0  0  0  0  0  0  0  0  0  0  0  0
   48.1758   34.0106   40.0006 H   0  0  0  0  0  0  0  0  0  0  0  0
   43.0558   36.1985   40.4310 H   0  0  0  0  0  0  0  0  0  0  0  0
   41.5537   31.6259   41.4609 H   0  0  0  0  0  0  0  0  0  0  0  0
   45.1019   33.9697   38.6535 H   0  0  0  0  0  0  0  0  0  0  0  0
   43.2030   31.1612   38.5351 H   0  0  0  0  0  0  0  0  0  0  0  0
   42.0916   30.5538   36.4420 H   0  0  0  0  0  0  0  0  0  0  0  0
   43.2968   30.7140   34.2351 H   0  0  0  0  0  0  0  0  0  0  0  0
   45.2882   31.2509   33.0801 H   0  0  0  0  0  0  0  0  0  0  0  0
   47.6708   32.0490   33.0756 H   0  0  0  0  0  0  0  0  0  0  0  0
   48.7383   32.6447   35.2269 H   0  0  0  0  0  0  0  0  0  0  0  0
   47.5246   32.4798   37.3762 H   0  0  0  0  0  0  0  0  0  0  0  0
  1  2  2  0
  2  3  1  0
  4  3  2  0
  5  4  1  0
  6  5  2  0
  6  1  1  0
  7  8  2  0
  7 12  1  0
  8  9  1  0
  9  1  1  0
  9 10  2  0
 11 10  1  0
 12 11  2  0
 13  7  1  0
 13 16  1  0
 14 13  1  0
 15 13  1  0
 17 19  1  0
 17 18  2  0
 19  6  1  0
 20 17  1  0
 21 20  2  0
 22 21  1  0
 23 24  1  0
 23 22  2  0
 24 29  2  0
 25 24  1  0
 26 25  2  0
 26 27  1  0
 27 28  2  0
 29 28  1  0
 29 20  1  0
  2 30  1  0
  3 31  1  0
  4 32  1  0
  5 33  1  0
  8 34  1  0
 11 35  1  0
 19 36  1  0
 21 37  1  0
 22 38  1  0
 23 39  1  0
 25 40  1  0
 26 41  1  0
 27 42  1  0
 28 43  1  0
M  ISO  8  30  14  31  14  32  14  33  14  34  14  35  14  37  14  38  14
M  ISO  5  39  14  40  14  41  14  42  14  43  14
M  END
>  <minimizedAffinity>  (1) 
-6.58452272

>  <minimizedRMSD>  (1) 
0.606541693

$$$$
