
     RDKit          3D

 34 36  0  0  0  0  0  0  0  0999 V2000
   45.2070   34.3770   41.0010 C   0  0  0  0  0  0  0  0  0  0  0  0
   45.4460   35.0000   42.2140 C   0  0  0  0  0  0  0  0  0  0  0  0
   46.7580   35.2660   42.5760 C   0  0  0  0  0  0  0  0  0  0  0  0
   47.7900   34.9090   41.7280 C   0  0  0  0  0  0  0  0  0  0  0  0
   47.5600   34.2950   40.5300 C   0  0  0  0  0  0  0  0  0  0  0  0
   46.2320   34.0320   40.1770 C   0  0  0  0  0  0  0  0  0  0  0  0
   41.5420   34.7310   40.1730 C   0  0  0  0  0  0  0  0  0  0  0  0
   42.8630   35.1030   40.4680 C   0  0  0  0  0  0  0  0  0  0  0  0
   43.8080   34.1300   40.6880 C   0  0  0  0  0  0  0  0  0  0  0  0
   43.3800   32.8320   40.6010 N   0  0  0  0  0  0  0  0  0  0  0  0
   42.1110   32.4790   40.3180 C   0  0  0  0  0  0  0  0  0  0  0  0
   41.1850   33.4300   40.1020 N   0  0  0  0  0  0  0  0  0  0  0  0
   40.5200   35.7790   39.9350 C   0  0  0  0  0  0  0  0  0  0  0  0
   39.3010   35.1220   39.7050 F   0  0  0  0  0  0  0  0  0  0  0  0
   40.8390   36.3800   38.7350 F   0  0  0  0  0  0  0  0  0  0  0  0
   40.3900   36.6600   40.9700 F   0  0  0  0  0  0  0  0  0  0  0  0
   46.1840   32.1790   38.3550 C   0  0  0  0  0  0  0  0  0  0  0  0
   46.8860   31.2860   38.7980 O   0  0  0  0  0  0  0  0  0  0  0  0
   45.8660   33.4090   38.9690 N   0  0  0  0  0  0  0  0  0  0  0  0
   45.5880   31.9250   36.9790 C   0  0  0  0  0  0  0  0  0  0  0  0
   45.9920   32.3870   35.7020 C   0  0  0  0  0  0  0  0  0  0  0  0
   45.2550   31.9890   34.6450 C   0  0  0  0  0  0  0  0  0  0  0  0
   44.1030   31.1070   34.9470 C   0  0  0  0  0  0  0  0  0  0  0  0
   44.2240   30.9580   36.7570 S   0  0  0  0  0  0  0  0  0  0  0  0
   44.6130   35.2781   42.8765 H   0  0  0  0  0  0  0  0  0  0  0  0
   46.9769   35.7593   43.5345 H   0  0  0  0  0  0  0  0  0  0  0  0
   48.8262   35.1258   42.0269 H   0  0  0  0  0  0  0  0  0  0  0  0
   48.3909   34.0166   39.8650 H   0  0  0  0  0  0  0  0  0  0  0  0
   43.1398   36.1662   40.5227 H   0  0  0  0  0  0  0  0  0  0  0  0
   41.8331   31.4161   40.2638 H   0  0  0  0  0  0  0  0  0  0  0  0
   45.2199   33.9802   38.4058 H   0  0  0  0  0  0  0  0  0  0  0  0
   46.8677   33.0411   35.5782 H   0  0  0  0  0  0  0  0  0  0  0  0
   45.4951   32.3011   33.6179 H   0  0  0  0  0  0  0  0  0  0  0  0
   43.3693   30.6607   34.2596 H   0  0  0  0  0  0  0  0  0  0  0  0
  1  2  2  0
  2  3  1  0
  4  3  2  0
  5  4  1  0
  6  5  2  0
  6  1  1  0
  7  8  2  0
  8  9  1  0
  9  1  1  0
 10  9  2  0
 11 10  1  0
 12  7  1  0
 12 11  2  0
 13  7  1  0
 13 16  1  0
 14 13  1  0
 15 13  1  0
 17 18  2  0
 17 19  1  0
 19  6  1  0
 20 17  1  0
 21 20  2  0
 22 23  2  0
 22 21  1  0
 23 24  1  0
 24 20  1  0
  2 25  1  0
  3 26  1  0
  4 27  1  0
  5 28  1  0
  8 29  1  0
 11 30  1  0
 19 31  1  0
 21 32  1  0
 22 33  1  0
 23 34  1  0
M  ISO  8  25  14  26  14  27  14  28  14  29  14  30  14  32  14  33  14
M  ISO  1  34  14
M  END
>  <minimizedAffinity>  (1) 
-5.84889936

>  <minimizedRMSD>  (1) 
0.79160589

$$$$
