
     RDKit          3D

 28 29  0  0  0  0  0  0  0  0999 V2000
   45.1270   34.4090   41.1830 C   0  0  0  0  0  0  0  0  0  0  0  0
   45.5480   34.9990   42.3730 C   0  0  0  0  0  0  0  0  0  0  0  0
   46.9030   35.2200   42.5570 C   0  0  0  0  0  0  0  0  0  0  0  0
   47.7960   34.8580   41.5710 C   0  0  0  0  0  0  0  0  0  0  0  0
   47.4000   34.2730   40.3860 C   0  0  0  0  0  0  0  0  0  0  0  0
   46.0280   34.0620   40.2300 C   0  0  0  0  0  0  0  0  0  0  0  0
   41.4290   34.8540   40.5740 C   0  0  0  0  0  0  0  0  0  0  0  0
   42.7900   35.1670   40.6610 C   0  0  0  0  0  0  0  0  0  0  0  0
   43.6960   34.2050   41.0550 C   0  0  0  0  0  0  0  0  0  0  0  0
   43.1850   32.9800   41.3410 N   0  0  0  0  0  0  0  0  0  0  0  0
   41.8740   32.6700   41.2590 C   0  0  0  0  0  0  0  0  0  0  0  0
   40.9900   33.6130   40.8740 N   0  0  0  0  0  0  0  0  0  0  0  0
   40.4550   35.8820   40.1520 C   0  0  0  0  0  0  0  0  0  0  0  0
   39.2270   35.2250   39.9480 F   0  0  0  0  0  0  0  0  0  0  0  0
   40.8450   36.3040   38.8880 F   0  0  0  0  0  0  0  0  0  0  0  0
   40.3140   36.9000   41.0490 F   0  0  0  0  0  0  0  0  0  0  0  0
   45.4530   32.1770   38.5170 C   0  0  0  0  0  0  0  0  0  0  0  0
   45.9310   31.1610   39.0280 O   0  0  0  0  0  0  0  0  0  0  0  0
   45.4800   33.4780   39.0680 N   0  0  0  0  0  0  0  0  0  0  0  0
   44.8390   31.9960   37.2810 O   0  0  0  0  0  0  0  0  0  0  0  0
   44.8212   35.2827   43.1484 H   0  0  0  0  0  0  0  0  0  0  0  0
   47.2653   35.6828   43.4868 H   0  0  0  0  0  0  0  0  0  0  0  0
   48.8677   35.0431   41.7358 H   0  0  0  0  0  0  0  0  0  0  0  0
   48.1238   33.9888   39.6080 H   0  0  0  0  0  0  0  0  0  0  0  0
   43.1375   36.1812   40.4149 H   0  0  0  0  0  0  0  0  0  0  0  0
   41.5288   31.6549   41.5046 H   0  0  0  0  0  0  0  0  0  0  0  0
   44.9811   34.1628   38.4823 H   0  0  0  0  0  0  0  0  0  0  0  0
   44.4333   32.7678   36.8121 H   0  0  0  0  0  0  0  0  0  0  0  0
  1  2  2  0
  2  3  1  0
  4  3  2  0
  5  4  1  0
  6  5  2  0
  6  1  1  0
  7  8  2  0
  7 12  1  0
  8  9  1  0
  9  1  1  0
  9 10  2  0
 11 10  1  0
 12 11  2  0
 13  7  1  0
 13 16  1  0
 14 13  1  0
 15 13  1  0
 17 18  2  0
 17 19  1  0
 19  6  1  0
 20 17  1  0
  2 21  1  0
  3 22  1  0
  4 23  1  0
  5 24  1  0
  8 25  1  0
 11 26  1  0
 19 27  1  0
 20 28  1  0
M  ISO  7  21  14  22  14  23  14  24  14  25  14  26  14  28   3
M  END
>  <minimizedAffinity>  (1) 
-5.59254694

>  <minimizedRMSD>  (1) 
0.0286512952

$$$$
