
     RDKit          3D

 43 45  0  0  0  0  0  0  0  0999 V2000
   45.2130   34.3720   41.0680 C   0  0  0  0  0  0  0  0  0  0  0  0
   45.6440   35.0320   42.2120 C   0  0  0  0  0  0  0  0  0  0  0  0
   47.0060   35.2610   42.3720 C   0  0  0  0  0  0  0  0  0  0  0  0
   47.8870   34.8380   41.4110 C   0  0  0  0  0  0  0  0  0  0  0  0
   47.4800   34.1850   40.2720 C   0  0  0  0  0  0  0  0  0  0  0  0
   46.1070   33.9630   40.1290 C   0  0  0  0  0  0  0  0  0  0  0  0
   41.5010   34.7930   40.5340 C   0  0  0  0  0  0  0  0  0  0  0  0
   42.8670   35.1200   40.5970 C   0  0  0  0  0  0  0  0  0  0  0  0
   43.7830   34.1660   40.9640 C   0  0  0  0  0  0  0  0  0  0  0  0
   43.2860   32.9340   41.2480 N   0  0  0  0  0  0  0  0  0  0  0  0
   41.9770   32.6170   41.1890 C   0  0  0  0  0  0  0  0  0  0  0  0
   41.0780   33.5500   40.8300 N   0  0  0  0  0  0  0  0  0  0  0  0
   40.5130   35.8230   40.1380 C   0  0  0  0  0  0  0  0  0  0  0  0
   39.2850   35.1710   39.9470 F   0  0  0  0  0  0  0  0  0  0  0  0
   40.8770   36.2640   38.8700 F   0  0  0  0  0  0  0  0  0  0  0  0
   40.3860   36.8380   41.0420 F   0  0  0  0  0  0  0  0  0  0  0  0
   45.9220   33.1860   37.6540 C   0  0  0  0  0  0  0  0  0  0  0  0
   46.9120   33.6640   37.1160 O   0  0  0  0  0  0  0  0  0  0  0  0
   45.5530   33.3100   39.0090 N   0  0  0  0  0  0  0  0  0  0  0  0
   45.0100   32.3840   36.7690 C   0  0  0  0  0  0  0  0  0  0  0  0
   45.6540   32.2850   35.4110 C   0  0  0  0  0  0  0  0  0  0  0  0
   45.4960   30.8930   34.7930 C   0  0  0  0  0  0  0  0  0  0  0  0
   46.1980   29.8660   35.6570 C   0  0  0  0  0  0  0  0  0  0  0  0
   46.2130   30.2880   37.1050 C   0  0  0  0  0  0  0  0  0  0  0  0
   44.9080   31.0030   37.3990 C   0  0  0  0  0  0  0  0  0  0  0  0
   44.9241   35.3658   42.9738 H   0  0  0  0  0  0  0  0  0  0  0  0
   47.3758   35.7807   43.2682 H   0  0  0  0  0  0  0  0  0  0  0  0
   48.9606   35.0283   41.5568 H   0  0  0  0  0  0  0  0  0  0  0  0
   48.2000   33.8530   39.5095 H   0  0  0  0  0  0  0  0  0  0  0  0
   43.2012   36.1391   40.3525 H   0  0  0  0  0  0  0  0  0  0  0  0
   41.6452   31.5973   41.4340 H   0  0  0  0  0  0  0  0  0  0  0  0
   44.6804   32.8099   39.2312 H   0  0  0  0  0  0  0  0  0  0  0  0
   44.0131   32.8372   36.6645 H   0  0  0  0  0  0  0  0  0  0  0  0
   45.1867   33.0236   34.7432 H   0  0  0  0  0  0  0  0  0  0  0  0
   46.7299   32.4785   35.5339 H   0  0  0  0  0  0  0  0  0  0  0  0
   44.4270   30.6431   34.7242 H   0  0  0  0  0  0  0  0  0  0  0  0
   45.9428   30.8888   33.7878 H   0  0  0  0  0  0  0  0  0  0  0  0
   45.6720   28.9039   35.5694 H   0  0  0  0  0  0  0  0  0  0  0  0
   47.2381   29.7731   35.3111 H   0  0  0  0  0  0  0  0  0  0  0  0
   46.3071   29.4025   37.7508 H   0  0  0  0  0  0  0  0  0  0  0  0
   47.0660   30.9547   37.2996 H   0  0  0  0  0  0  0  0  0  0  0  0
   44.7621   31.0926   38.4856 H   0  0  0  0  0  0  0  0  0  0  0  0
   44.0524   30.4455   36.9901 H   0  0  0  0  0  0  0  0  0  0  0  0
  1  2  2  0
  2  3  1  0
  4  3  2  0
  5  4  1  0
  6  5  2  0
  6  1  1  0
  7  8  2  0
  7 12  1  0
  8  9  1  0
  9  1  1  0
  9 10  2  0
 11 10  1  0
 12 11  2  0
 13  7  1  0
 13 16  1  0
 14 13  1  0
 15 13  1  0
 17 19  1  0
 18 17  2  0
 19  6  1  0
 20 25  1  0
 20 17  1  0
 21 20  1  0
 22 21  1  0
 22 23  1  0
 23 24  1  0
 24 25  1  0
  2 26  1  0
  3 27  1  0
  4 28  1  0
  5 29  1  0
  8 30  1  0
 11 31  1  0
 19 32  1  0
 20 33  1  0
 21 34  1  0
 21 35  1  0
 22 36  1  0
 22 37  1  0
 23 38  1  0
 23 39  1  0
 24 40  1  0
 24 41  1  0
 25 42  1  0
 25 43  1  0
M  ISO  8  26  14  27  14  28  14  29  14  30  14  31  14  33  13  34  13
M  ISO  8  35  13  36  13  37  13  38  13  39  13  40  13  41  13  42  13
M  ISO  1  43  13
M  END
>  <minimizedAffinity>  (1) 
-6.04961824

>  <minimizedRMSD>  (1) 
0.891695321

$$$$
