
     RDKit          3D

 26 27  0  0  0  0  0  0  0  0999 V2000
   47.9220   34.4930   42.4200 C   0  0  0  0  0  0  0  0  0  0  0  0
   48.0300   33.4910   43.3970 C   0  0  0  0  0  0  0  0  0  0  0  0
   46.9880   33.3770   44.3320 C   0  0  0  0  0  0  0  0  0  0  0  0
   45.9510   34.2420   44.2270 N   0  0  0  0  0  0  0  0  0  0  0  0
   45.8760   35.1960   43.2760 C   0  0  0  0  0  0  0  0  0  0  0  0
   46.8570   35.3180   42.3790 N   0  0  0  0  0  0  0  0  0  0  0  0
   46.9660   32.3980   45.3860 C   0  0  0  0  0  0  0  0  0  0  0  0
   46.6460   32.8220   46.6540 C   0  0  0  0  0  0  0  0  0  0  0  0
   46.5960   31.9610   47.7430 C   0  0  0  0  0  0  0  0  0  0  0  0
   46.8850   30.6100   47.5160 C   0  0  0  0  0  0  0  0  0  0  0  0
   47.2060   30.1720   46.2490 C   0  0  0  0  0  0  0  0  0  0  0  0
   47.2410   31.0610   45.2110 C   0  0  0  0  0  0  0  0  0  0  0  0
   49.0440   34.5930   41.4360 C   0  0  0  0  0  0  0  0  0  0  0  0
   49.1060   33.5160   40.6040 F   0  0  0  0  0  0  0  0  0  0  0  0
   48.8710   35.7750   40.7010 F   0  0  0  0  0  0  0  0  0  0  0  0
   50.2480   34.7600   42.1240 F   0  0  0  0  0  0  0  0  0  0  0  0
   44.7100   36.1100   43.2200 C   0  0  0  0  0  0  0  0  0  0  0  0
   44.0160   35.9720   42.0550 F   0  0  0  0  0  0  0  0  0  0  0  0
   45.1420   37.4390   43.3780 F   0  0  0  0  0  0  0  0  0  0  0  0
   43.8410   35.9100   44.2760 F   0  0  0  0  0  0  0  0  0  0  0  0
   48.9000   32.8187   43.4293 H   0  0  0  0  0  0  0  0  0  0  0  0
   46.4203   33.8868   46.8128 H   0  0  0  0  0  0  0  0  0  0  0  0
   46.3386   32.3275   48.7477 H   0  0  0  0  0  0  0  0  0  0  0  0
   46.8558   29.8954   48.3518 H   0  0  0  0  0  0  0  0  0  0  0  0
   47.4334   29.1101   46.0736 H   0  0  0  0  0  0  0  0  0  0  0  0
   47.4968   30.6965   44.2052 H   0  0  0  0  0  0  0  0  0  0  0  0
  1  2  2  0
  2  3  1  0
  3  7  1  0
  4  3  2  0
  5  4  1  0
  6  1  1  0
  6  5  2  0
  7  8  2  0
  8  9  1  0
 10  9  2  0
 11 10  1  0
 12  7  1  0
 12 11  2  0
 13 16  1  0
 13  1  1  0
 14 13  1  0
 15 13  1  0
 17  5  1  0
 17 19  1  0
 17 20  1  0
 18 17  1  0
  2 21  1  0
  8 22  1  0
  9 23  1  0
 10 24  1  0
 11 25  1  0
 12 26  1  0
M  ISO  6  21  14  22  14  23  14  24  14  25  14  26  14
M  END
>  <minimizedAffinity>  (1) 
-6.03321218

>  <minimizedRMSD>  (1) 
1.16910839

$$$$
