
     RDKit          3D

 26 27  0  0  0  0  0  0  0  0999 V2000
   47.9210   34.3640   42.6970 C   0  0  0  0  0  0  0  0  0  0  0  0
   47.8730   33.3930   43.7230 C   0  0  0  0  0  0  0  0  0  0  0  0
   46.7270   33.3560   44.5340 C   0  0  0  0  0  0  0  0  0  0  0  0
   45.7380   34.2600   44.2750 N   0  0  0  0  0  0  0  0  0  0  0  0
   45.8150   35.1660   43.2950 C   0  0  0  0  0  0  0  0  0  0  0  0
   46.8990   35.2210   42.5070 N   0  0  0  0  0  0  0  0  0  0  0  0
   45.4450   30.7850   43.7320 Cl  0  0  0  0  0  0  0  0  0  0  0  0
   46.0090   31.1810   45.3540 C   0  0  0  0  0  0  0  0  0  0  0  0
   46.5870   32.4070   45.6010 C   0  0  0  0  0  0  0  0  0  0  0  0
   46.9930   32.6170   46.9000 C   0  0  0  0  0  0  0  0  0  0  0  0
   46.8280   31.6620   47.8700 C   0  0  0  0  0  0  0  0  0  0  0  0
   46.2460   30.4400   47.6050 C   0  0  0  0  0  0  0  0  0  0  0  0
   45.8330   30.2070   46.3190 C   0  0  0  0  0  0  0  0  0  0  0  0
   49.1420   34.3910   41.8440 C   0  0  0  0  0  0  0  0  0  0  0  0
   49.3150   33.2210   41.1550 F   0  0  0  0  0  0  0  0  0  0  0  0
   49.0580   35.4730   40.9830 F   0  0  0  0  0  0  0  0  0  0  0  0
   50.2560   34.6520   42.6690 F   0  0  0  0  0  0  0  0  0  0  0  0
   44.6970   36.1160   43.0760 C   0  0  0  0  0  0  0  0  0  0  0  0
   44.1330   35.9440   41.8280 F   0  0  0  0  0  0  0  0  0  0  0  0
   45.1610   37.4370   43.2110 F   0  0  0  0  0  0  0  0  0  0  0  0
   43.7000   35.9790   44.0130 F   0  0  0  0  0  0  0  0  0  0  0  0
   48.7046   32.6905   43.8808 H   0  0  0  0  0  0  0  0  0  0  0  0
   47.4618   33.5758   47.1664 H   0  0  0  0  0  0  0  0  0  0  0  0
   47.1709   31.8775   48.8927 H   0  0  0  0  0  0  0  0  0  0  0  0
   46.1185   29.6835   48.3933 H   0  0  0  0  0  0  0  0  0  0  0  0
   45.3630   29.2480   46.0557 H   0  0  0  0  0  0  0  0  0  0  0  0
  1  2  2  0
  2  3  1  0
  3  9  1  0
  4  3  2  0
  5  4  1  0
  6  1  1  0
  6  5  2  0
  7  8  1  0
  8  9  2  0
  8 13  1  0
  9 10  1  0
 10 11  2  0
 12 11  1  0
 13 12  2  0
 14 17  1  0
 14  1  1  0
 15 14  1  0
 16 14  1  0
 18 20  1  0
 18  5  1  0
 18 21  1  0
 19 18  1  0
  2 22  1  0
 10 23  1  0
 11 24  1  0
 12 25  1  0
 13 26  1  0
M  ISO  5  22  14  23  14  24  14  25  14  26  14
M  END
>  <minimizedAffinity>  (1) 
-5.90549517

>  <minimizedRMSD>  (1) 
1.35624015

$$$$
