
     RDKit          3D

 17 17  0  0  0  0  0  0  0  0999 V2000
   47.8400   34.7910   42.4190 C   0  0  0  0  0  0  0  0  0  0  0  0
   48.1200   33.5790   43.0730 C   0  0  0  0  0  0  0  0  0  0  0  0
   47.1790   33.1230   44.0330 C   0  0  0  0  0  0  0  0  0  0  0  0
   46.0700   33.8940   44.2500 N   0  0  0  0  0  0  0  0  0  0  0  0
   45.8460   35.0360   43.6060 C   0  0  0  0  0  0  0  0  0  0  0  0
   46.7240   35.4800   42.6980 N   0  0  0  0  0  0  0  0  0  0  0  0
   48.8330   35.2510   41.4210 C   0  0  0  0  0  0  0  0  0  0  0  0
   48.3790   35.1590   40.1390 F   0  0  0  0  0  0  0  0  0  0  0  0
   49.2060   36.5630   41.7330 F   0  0  0  0  0  0  0  0  0  0  0  0
   50.0290   34.5120   41.5820 F   0  0  0  0  0  0  0  0  0  0  0  0
   44.6280   35.8460   43.8720 C   0  0  0  0  0  0  0  0  0  0  0  0
   43.6400   35.5800   42.9470 F   0  0  0  0  0  0  0  0  0  0  0  0
   44.9170   37.2040   43.8890 F   0  0  0  0  0  0  0  0  0  0  0  0
   44.1100   35.5720   45.1320 F   0  0  0  0  0  0  0  0  0  0  0  0
   47.3940   31.9300   44.7180 O   0  0  0  0  0  0  0  0  0  0  0  0
   49.0323   33.0064   42.8498 H   0  0  0  0  0  0  0  0  0  0  0  0
   46.7341   31.6171   45.3864 H   0  0  0  0  0  0  0  0  0  0  0  0
  1  6  2  0
  1  2  1  0
  2  3  2  0
  3  4  1  0
  3 15  1  0
  5 11  1  0
  5  4  2  0
  6  5  1  0
  7 10  1  0
  7  9  1  0
  7  1  1  0
  8  7  1  0
 11 13  1  0
 11 14  1  0
 12 11  1  0
  2 16  1  0
 15 17  1  0
M  ISO  2  16  14  17   3
M  END
>  <minimizedAffinity>  (1) 
-5.14152861

>  <minimizedRMSD>  (1) 
0.0221191905

$$$$
