
     RDKit          3D

 32 33  0  0  0  0  0  0  0  0999 V2000
   47.9330   34.5080   42.4460 C   0  0  0  0  0  0  0  0  0  0  0  0
   48.0230   33.4790   43.4020 C   0  0  0  0  0  0  0  0  0  0  0  0
   46.9520   33.3550   44.3200 C   0  0  0  0  0  0  0  0  0  0  0  0
   45.9170   34.2340   44.2140 N   0  0  0  0  0  0  0  0  0  0  0  0
   45.8710   35.1950   43.2930 C   0  0  0  0  0  0  0  0  0  0  0  0
   46.8830   35.3320   42.4070 N   0  0  0  0  0  0  0  0  0  0  0  0
   46.9440   32.3280   45.3480 C   0  0  0  0  0  0  0  0  0  0  0  0
   45.9310   31.2710   44.9090 C   0  0  0  0  0  0  0  0  0  0  0  0
   46.2010   30.0900   45.8500 C   0  0  0  0  0  0  0  0  0  0  0  0
   45.6620   30.5510   47.1900 C   0  0  0  0  0  0  0  0  0  0  0  0
   46.4310   31.7220   47.6950 C   0  0  0  0  0  0  0  0  0  0  0  0
   46.6460   32.8310   46.7250 C   0  0  0  0  0  0  0  0  0  0  0  0
   49.0720   34.6210   41.4860 C   0  0  0  0  0  0  0  0  0  0  0  0
   49.1710   33.5150   40.6800 F   0  0  0  0  0  0  0  0  0  0  0  0
   48.9030   35.7920   40.7440 F   0  0  0  0  0  0  0  0  0  0  0  0
   50.2620   34.8140   42.1990 F   0  0  0  0  0  0  0  0  0  0  0  0
   44.7190   36.1310   43.2190 C   0  0  0  0  0  0  0  0  0  0  0  0
   44.0290   35.9950   42.0430 F   0  0  0  0  0  0  0  0  0  0  0  0
   45.1590   37.4530   43.3910 F   0  0  0  0  0  0  0  0  0  0  0  0
   43.8410   35.9290   44.2650 F   0  0  0  0  0  0  0  0  0  0  0  0
   48.8881   32.8003   43.4346 H   0  0  0  0  0  0  0  0  0  0  0  0
   47.9584   31.9118   45.4359 H   0  0  0  0  0  0  0  0  0  0  0  0
   44.9020   31.6407   45.0298 H   0  0  0  0  0  0  0  0  0  0  0  0
   46.0325   31.0003   43.8477 H   0  0  0  0  0  0  0  0  0  0  0  0
   45.6725   29.1886   45.5062 H   0  0  0  0  0  0  0  0  0  0  0  0
   47.2669   29.8219   45.8944 H   0  0  0  0  0  0  0  0  0  0  0  0
   44.6057   30.8356   47.0752 H   0  0  0  0  0  0  0  0  0  0  0  0
   45.7603   29.7269   47.9119 H   0  0  0  0  0  0  0  0  0  0  0  0
   45.8894   32.1322   48.5601 H   0  0  0  0  0  0  0  0  0  0  0  0
   47.4340   31.3375   47.9319 H   0  0  0  0  0  0  0  0  0  0  0  0
   47.4924   33.4435   47.0692 H   0  0  0  0  0  0  0  0  0  0  0  0
   45.7188   33.4207   46.6756 H   0  0  0  0  0  0  0  0  0  0  0  0
  1  2  2  0
  2  3  1  0
  3  7  1  0
  4  3  2  0
  5  4  1  0
  6  1  1  0
  6  5  2  0
  7 12  1  0
  8  7  1  0
  8  9  1  0
  9 10  1  0
 10 11  1  0
 12 11  1  0
 13 16  1  0
 13  1  1  0
 14 13  1  0
 15 13  1  0
 17  5  1  0
 17 19  1  0
 17 20  1  0
 18 17  1  0
  2 21  1  0
  7 22  1  0
  8 23  1  0
  8 24  1  0
  9 25  1  0
  9 26  1  0
 10 27  1  0
 10 28  1  0
 11 29  1  0
 11 30  1  0
 12 31  1  0
 12 32  1  0
M  ISO  8  21  14  22  13  23  13  24  13  25  13  26  13  27  13  28  13
M  ISO  4  29  13  30  13  31  13  32  13
M  END
>  <minimizedAffinity>  (1) 
-6.01707458

>  <minimizedRMSD>  (1) 
0.99069351

$$$$
