
     RDKit          3D

 34 35  0  0  1  0  0  0  0  0999 V2000
   46.7190   32.0620   45.2350 C   0  0  2  0  0  0  0  0  0  0  0  0
   45.8910   30.9620   44.5470 C   0  0  0  0  0  0  0  0  0  0  0  0
   46.1220   29.7340   45.4410 C   0  0  0  0  0  0  0  0  0  0  0  0
   45.3130   30.0330   46.6920 C   0  0  0  0  0  0  0  0  0  0  0  0
   45.8500   31.2260   47.3930 C   0  0  0  0  0  0  0  0  0  0  0  0
   46.1510   32.4250   46.5580 C   0  0  1  0  0  0  0  0  0  0  0  0
   47.9600   34.4380   42.5960 C   0  0  0  0  0  0  0  0  0  0  0  0
   47.9610   33.3340   43.4730 C   0  0  0  0  0  0  0  0  0  0  0  0
   46.8300   33.1590   44.2910 C   0  0  0  0  0  0  0  0  0  0  0  0
   45.8190   34.0590   44.1810 N   0  0  0  0  0  0  0  0  0  0  0  0
   45.8420   35.1010   43.3390 C   0  0  0  0  0  0  0  0  0  0  0  0
   46.9320   35.2800   42.5440 N   0  0  0  0  0  0  0  0  0  0  0  0
   49.1640   34.6060   41.7390 C   0  0  0  0  0  0  0  0  0  0  0  0
   49.3860   33.4920   40.9550 F   0  0  0  0  0  0  0  0  0  0  0  0
   48.9900   35.7420   40.9510 F   0  0  0  0  0  0  0  0  0  0  0  0
   50.2770   34.8590   42.5340 F   0  0  0  0  0  0  0  0  0  0  0  0
   44.7110   36.0580   43.2600 C   0  0  0  0  0  0  0  0  0  0  0  0
   44.0230   35.9270   42.0950 F   0  0  0  0  0  0  0  0  0  0  0  0
   45.1990   37.3730   43.4050 F   0  0  0  0  0  0  0  0  0  0  0  0
   43.8580   35.9120   44.3240 F   0  0  0  0  0  0  0  0  0  0  0  0
   47.0970   33.2820   47.2270 N   0  0  0  0  0  0  0  0  0  0  0  0
   47.7341   31.7186   45.4832 H   0  0  0  0  0  0  0  0  0  0  0  0
   44.8251   31.2322   44.5164 H   0  0  0  0  0  0  0  0  0  0  0  0
   46.1844   30.7936   43.5003 H   0  0  0  0  0  0  0  0  0  0  0  0
   45.7591   28.8190   44.9500 H   0  0  0  0  0  0  0  0  0  0  0  0
   47.1868   29.5613   45.6565 H   0  0  0  0  0  0  0  0  0  0  0  0
   44.2669   30.2214   46.4088 H   0  0  0  0  0  0  0  0  0  0  0  0
   45.3761   29.1679   47.3684 H   0  0  0  0  0  0  0  0  0  0  0  0
   45.1109   31.5263   48.1503 H   0  0  0  0  0  0  0  0  0  0  0  0
   46.8230   30.9068   47.7948 H   0  0  0  0  0  0  0  0  0  0  0  0
   45.1931   32.9439   46.4059 H   0  0  0  0  0  0  0  0  0  0  0  0
   48.8116   32.6378   43.5158 H   0  0  0  0  0  0  0  0  0  0  0  0
   46.9883   33.1835   48.2465 H   0  0  0  0  0  0  0  0  0  0  0  0
   48.0540   33.0142   46.9563 H   0  0  0  0  0  0  0  0  0  0  0  0
  1  6  1  0
  2  1  1  0
  2  3  1  0
  3  4  1  0
  4  5  1  0
  6 21  1  0
  6  5  1  0
  7  8  2  0
  8  9  1  0
  9  1  1  0
 10  9  2  0
 11 10  1  0
 12  7  1  0
 12 11  2  0
 13 16  1  0
 13  7  1  0
 14 13  1  0
 15 13  1  0
 17 11  1  0
 17 19  1  0
 17 20  1  0
 18 17  1  0
  1 22  1  1
  2 23  1  0
  2 24  1  0
  3 25  1  0
  3 26  1  0
  4 27  1  0
  4 28  1  0
  5 29  1  0
  5 30  1  0
  6 31  1  6
  8 32  1  0
 21 33  1  0
 21 34  1  0
M  ISO  8  22  13  23  13  24  13  25  13  26  13  27  13  28  13  29  13
M  ISO  5  30  13  31  13  32  14  33   5  34   5
M  END
>  <minimizedAffinity>  (1) 
-6.49437857

>  <minimizedRMSD>  (1) 
0.414063305

$$$$
