
     RDKit          3D

 32 34  0  0  1  0  0  0  0  0999 V2000
   46.2270   35.2030   42.3180 C   0  0  1  0  0  0  0  0  0  0  0  0
   45.5280   34.5260   41.2040 C   0  0  0  0  0  0  0  0  0  0  0  0
   46.2760   33.6590   40.3930 C   0  0  0  0  0  0  0  0  0  0  0  0
   45.7830   32.9410   39.3340 C   0  0  0  0  0  0  0  0  0  0  0  0
   44.4440   33.0740   39.0330 C   0  0  0  0  0  0  0  0  0  0  0  0
   43.6550   33.9100   39.7890 C   0  0  0  0  0  0  0  0  0  0  0  0
   42.3290   34.0620   39.5040 C   0  0  0  0  0  0  0  0  0  0  0  0
   41.5520   34.9090   40.2670 C   0  0  0  0  0  0  0  0  0  0  0  0
   42.0890   35.6140   41.3240 C   0  0  0  0  0  0  0  0  0  0  0  0
   43.4300   35.4470   41.5970 C   0  0  0  0  0  0  0  0  0  0  0  0
   44.2010   34.6090   40.8430 C   0  0  0  0  0  0  0  0  0  0  0  0
   45.1940   34.9440   44.5640 C   0  0  0  0  0  0  0  0  0  0  0  0
   46.1270   34.5620   43.6090 C   0  0  0  0  0  0  0  0  0  0  0  0
   46.9740   33.4960   43.9820 C   0  0  0  0  0  0  0  0  0  0  0  0
   46.8380   32.9200   45.2100 N   0  0  0  0  0  0  0  0  0  0  0  0
   45.8990   33.3540   46.0850 C   0  0  0  0  0  0  0  0  0  0  0  0
   45.0740   34.3720   45.7560 N   0  0  0  0  0  0  0  0  0  0  0  0
   47.6960   35.3160   41.9450 C   0  0  0  0  0  0  0  0  0  0  0  0
   45.7276   36.1753   42.4415 H   0  0  0  0  0  0  0  0  0  0  0  0
   47.3451   33.5461   40.6258 H   0  0  0  0  0  0  0  0  0  0  0  0
   46.4347   32.2802   38.7436 H   0  0  0  0  0  0  0  0  0  0  0  0
   44.0085   32.5142   38.1922 H   0  0  0  0  0  0  0  0  0  0  0  0
   41.8797   33.5091   38.6659 H   0  0  0  0  0  0  0  0  0  0  0  0
   40.4845   35.0243   40.0280 H   0  0  0  0  0  0  0  0  0  0  0  0
   41.4666   36.2885   41.9303 H   0  0  0  0  0  0  0  0  0  0  0  0
   43.8854   35.9965   42.4340 H   0  0  0  0  0  0  0  0  0  0  0  0
   44.5124   35.7715   44.3176 H   0  0  0  0  0  0  0  0  0  0  0  0
   47.7416   33.1312   43.2837 H   0  0  0  0  0  0  0  0  0  0  0  0
   45.8077   32.8740   47.0705 H   0  0  0  0  0  0  0  0  0  0  0  0
   48.3042   35.3628   42.8604 H   0  0  0  0  0  0  0  0  0  0  0  0
   47.9924   34.4380   41.3523 H   0  0  0  0  0  0  0  0  0  0  0  0
   47.8546   36.2290   41.3523 H   0  0  0  0  0  0  0  0  0  0  0  0
  1 13  1  0
  2  1  1  0
  3  2  2  0
  4  3  1  0
  5  4  2  0
  5  6  1  0
  6 11  2  0
  7  6  1  0
  7  8  2  0
  8  9  1  0
  9 10  2  0
 11  2  1  0
 11 10  1  0
 12 17  2  0
 13 14  2  0
 13 12  1  0
 14 15  1  0
 15 16  2  0
 17 16  1  0
 18  1  1  0
  1 19  1  1
  3 20  1  0
  4 21  1  0
  5 22  1  0
  7 23  1  0
  8 24  1  0
  9 25  1  0
 10 26  1  0
 12 27  1  0
 14 28  1  0
 16 29  1  0
 18 30  1  0
 18 31  1  0
 18 32  1  0
M  ISO  8  19   8  20  14  21  14  22  14  23  14  24  14  25  14  26  14
M  ISO  6  27  14  28  14  29  14  30   8  31   8  32   8
M  END
>  <minimizedAffinity>  (1) 
-5.39711905

>  <minimizedRMSD>  (1) 
1.44622993

$$$$
