
     RDKit          3D

 29 31  0  0  1  0  0  0  0  0999 V2000
   46.0940   35.2540   42.2600 C   0  0  1  0  0  0  0  0  0  0  0  0
   45.3790   34.5950   41.2170 N   0  0  0  0  0  0  0  0  0  0  0  0
   45.9100   33.6710   40.3630 C   0  0  0  0  0  0  0  0  0  0  0  0
   44.9260   33.2670   39.5060 N   0  0  0  0  0  0  0  0  0  0  0  0
   43.8130   33.9310   39.8310 C   0  0  0  0  0  0  0  0  0  0  0  0
   42.5130   33.9800   39.3730 C   0  0  0  0  0  0  0  0  0  0  0  0
   41.5510   34.7760   39.9110 N   0  0  0  0  0  0  0  0  0  0  0  0
   41.8580   35.5780   40.9570 C   0  0  0  0  0  0  0  0  0  0  0  0
   43.1100   35.5360   41.4040 N   0  0  0  0  0  0  0  0  0  0  0  0
   44.0670   34.7690   40.8980 C   0  0  0  0  0  0  0  0  0  0  0  0
   42.1250   33.1670   38.2820 N   0  0  0  0  0  0  0  0  0  0  0  0
   44.9520   35.4080   44.4480 C   0  0  0  0  0  0  0  0  0  0  0  0
   45.8760   34.7270   43.6160 C   0  0  0  0  0  0  0  0  0  0  0  0
   46.5490   33.5820   44.1270 C   0  0  0  0  0  0  0  0  0  0  0  0
   46.2570   33.2130   45.4000 N   0  0  0  0  0  0  0  0  0  0  0  0
   45.3770   33.8940   46.1390 C   0  0  0  0  0  0  0  0  0  0  0  0
   44.7270   34.9750   45.6850 N   0  0  0  0  0  0  0  0  0  0  0  0
   47.5730   35.1830   41.9770 C   0  0  0  0  0  0  0  0  0  0  0  0
   45.7014   36.2815   42.2569 H   0  0  0  0  0  0  0  0  0  0  0  0
   46.9504   33.3138   40.3649 H   0  0  0  0  0  0  0  0  0  0  0  0
   41.1055   36.2354   41.4171 H   0  0  0  0  0  0  0  0  0  0  0  0
   41.1557   33.1989   37.9351 H   0  0  0  0  0  0  0  0  0  0  0  0
   42.8118   32.5433   37.8346 H   0  0  0  0  0  0  0  0  0  0  0  0
   44.4213   36.2944   44.0704 H   0  0  0  0  0  0  0  0  0  0  0  0
   47.2732   33.0213   43.5177 H   0  0  0  0  0  0  0  0  0  0  0  0
   45.1768   33.5527   47.1654 H   0  0  0  0  0  0  0  0  0  0  0  0
   48.1272   35.1564   42.9268 H   0  0  0  0  0  0  0  0  0  0  0  0
   47.7924   34.2733   41.3988 H   0  0  0  0  0  0  0  0  0  0  0  0
   47.8786   36.0675   41.3988 H   0  0  0  0  0  0  0  0  0  0  0  0
  1 13  1  0
  2  1  1  0
  3  2  1  0
  4  5  1  0
  4  3  2  0
  5 10  2  0
  6  5  1  0
  6  7  2  0
  7  8  1  0
  8  9  2  0
 10  2  1  0
 10  9  1  0
 11  6  1  0
 12 17  2  0
 13 14  2  0
 13 12  1  0
 14 15  1  0
 15 16  2  0
 17 16  1  0
 18  1  1  0
  1 19  1  1
  3 20  1  0
  8 21  1  0
 11 22  1  0
 11 23  1  0
 12 24  1  0
 14 25  1  0
 16 26  1  0
 18 27  1  0
 18 28  1  0
 18 29  1  0
M  ISO  8  19   8  20  14  21  14  24  14  25  14  26  14  27   8  28   8
M  ISO  1  29   8
M  END
>  <minimizedAffinity>  (1) 
-5.10226154

>  <minimizedRMSD>  (1) 
2.86252785

$$$$
