
     RDKit          3D

 29 30  0  0  1  0  0  0  0  0999 V2000
   48.2010   34.9210   41.5200 C   0  0  2  0  0  0  0  0  0  0  0  0
   46.0470   35.5650   42.5750 C   0  0  0  0  0  0  0  0  0  0  0  0
   47.1980   34.7860   42.5600 C   0  0  0  0  0  0  0  0  0  0  0  0
   47.3200   33.8520   43.6210 C   0  0  0  0  0  0  0  0  0  0  0  0
   46.3320   33.7890   44.5490 N   0  0  0  0  0  0  0  0  0  0  0  0
   45.2490   34.5680   44.5040 C   0  0  0  0  0  0  0  0  0  0  0  0
   45.1070   35.4620   43.5100 N   0  0  0  0  0  0  0  0  0  0  0  0
   48.8830   32.7000   40.4370 C   0  0  0  0  0  0  0  0  0  0  0  0
   49.0700   33.7360   41.3150 C   0  0  0  0  0  0  0  0  0  0  0  0
   50.1980   33.6950   42.1380 C   0  0  0  0  0  0  0  0  0  0  0  0
   51.1060   32.6520   42.0850 C   0  0  0  0  0  0  0  0  0  0  0  0
   50.8800   31.6290   41.1880 C   0  0  0  0  0  0  0  0  0  0  0  0
   49.7760   31.6430   40.3620 C   0  0  0  0  0  0  0  0  0  0  0  0
   47.5020   32.7390   39.4010 S   0  0  0  0  0  0  0  0  0  0  0  0
   47.5940   31.7930   38.2370 O   0  0  0  0  0  0  0  0  0  0  0  0
   46.2870   32.2420   40.1840 O   0  0  0  0  0  0  0  0  0  0  0  0
   49.0130   36.1700   41.8150 C   0  0  0  0  0  0  0  0  0  0  0  0
   47.6685   35.0069   40.5613 H   0  0  0  0  0  0  0  0  0  0  0  0
   45.9065   36.3043   41.7727 H   0  0  0  0  0  0  0  0  0  0  0  0
   48.1976   33.1924   43.6899 H   0  0  0  0  0  0  0  0  0  0  0  0
   44.4737   34.4786   45.2792 H   0  0  0  0  0  0  0  0  0  0  0  0
   50.3696   34.5162   42.8494 H   0  0  0  0  0  0  0  0  0  0  0  0
   51.9874   32.6392   42.7429 H   0  0  0  0  0  0  0  0  0  0  0  0
   51.5900   30.7907   41.1308 H   0  0  0  0  0  0  0  0  0  0  0  0
   49.6056   30.8223   39.6497 H   0  0  0  0  0  0  0  0  0  0  0  0
   47.4147   34.0313   38.9545 H   0  0  0  0  0  0  0  0  0  0  0  0
   49.0992   36.3027   42.9036 H   0  0  0  0  0  0  0  0  0  0  0  0
   50.0170   36.0665   41.3776 H   0  0  0  0  0  0  0  0  0  0  0  0
   48.5109   37.0455   41.3776 H   0  0  0  0  0  0  0  0  0  0  0  0
  1 17  1  0
  1  3  1  0
  2  7  2  0
  3  2  1  0
  3  4  2  0
  4  5  1  0
  6  5  2  0
  7  6  1  0
  8  9  2  0
  9  1  1  0
  9 10  1  0
 11 10  2  0
 12 11  1  0
 13  8  1  0
 13 12  2  0
 14 16  2  0
 14  8  1  0
 15 14  2  0
  1 18  1  6
  2 19  1  0
  4 20  1  0
  6 21  1  0
 10 22  1  0
 11 23  1  0
 12 24  1  0
 13 25  1  0
 14 26  1  0
 17 27  1  0
 17 28  1  0
 17 29  1  0
M  ISO  8  18   8  19  14  20  14  21  14  22  14  23  14  24  14  25  14
M  ISO  4  26  11  27   8  28   8  29   8
M  END
>  <minimizedAffinity>  (1) 
-4.52982092

>  <minimizedRMSD>  (1) 
3.70320821

$$$$
