
     RDKit          3D

 30 31  0  0  0  0  0  0  0  0999 V2000
   46.8140   32.6920   46.0880 C   0  0  0  0  0  0  0  0  0  0  0  0
   46.2100   31.9310   47.1940 C   0  0  0  0  0  0  0  0  0  0  0  0
   45.4890   32.3690   48.2800 C   0  0  0  0  0  0  0  0  0  0  0  0
   44.9550   31.5330   49.2260 C   0  0  0  0  0  0  0  0  0  0  0  0
   45.1450   30.1870   49.0910 C   0  0  0  0  0  0  0  0  0  0  0  0
   45.8710   29.7190   48.0060 C   0  0  0  0  0  0  0  0  0  0  0  0
   46.4050   30.5890   47.0570 C   0  0  0  0  0  0  0  0  0  0  0  0
   48.4400   29.4170   46.4850 C   0  0  0  0  0  0  0  0  0  0  0  0
   49.3380   29.6550   47.3480 O   0  0  0  0  0  0  0  0  0  0  0  0
   47.0920   29.7180   46.1610 N   0  0  0  0  0  0  0  0  0  0  0  0
   45.9720   32.5900   44.8300 C   0  0  0  0  0  0  0  0  0  0  0  0
   44.5690   35.9810   44.7980 C   0  0  0  0  0  0  0  0  0  0  0  0
   44.9870   36.4650   43.5290 C   0  0  0  0  0  0  0  0  0  0  0  0
   45.7600   35.6070   42.7490 C   0  0  0  0  0  0  0  0  0  0  0  0
   46.0760   34.3880   43.2040 N   0  0  0  0  0  0  0  0  0  0  0  0
   45.6470   33.9810   44.4220 C   0  0  0  0  0  0  0  0  0  0  0  0
   44.9160   34.7410   45.2090 N   0  0  0  0  0  0  0  0  0  0  0  0
   46.8947   33.7491   46.3814 H   0  0  0  0  0  0  0  0  0  0  0  0
   47.8085   32.2718   45.8774 H   0  0  0  0  0  0  0  0  0  0  0  0
   45.3319   33.4515   48.3961 H   0  0  0  0  0  0  0  0  0  0  0  0
   44.3856   31.9374   50.0758 H   0  0  0  0  0  0  0  0  0  0  0  0
   44.7293   29.4864   49.8302 H   0  0  0  0  0  0  0  0  0  0  0  0
   46.0290   28.6364   47.8918 H   0  0  0  0  0  0  0  0  0  0  0  0
   48.8493   28.7407   45.7201 H   0  0  0  0  0  0  0  0  0  0  0  0
   46.6345   29.3287   45.3243 H   0  0  0  0  0  0  0  0  0  0  0  0
   46.5383   32.0837   44.0344 H   0  0  0  0  0  0  0  0  0  0  0  0
   45.0575   32.0062   45.0113 H   0  0  0  0  0  0  0  0  0  0  0  0
   43.9578   36.6209   45.4514 H   0  0  0  0  0  0  0  0  0  0  0  0
   44.7129   37.4710   43.1784 H   0  0  0  0  0  0  0  0  0  0  0  0
   46.1110   35.9316   41.7583 H   0  0  0  0  0  0  0  0  0  0  0  0
  1  2  1  0
  2  3  2  0
  3  4  1  0
  5  4  2  0
  6  5  1  0
  7  2  1  0
  7  6  2  0
  8  9  2  0
 10  8  1  0
 10  7  1  0
 11  1  1  0
 12 17  2  0
 13 12  1  0
 14 15  1  0
 14 13  2  0
 15 16  2  0
 16 11  1  0
 16 17  1  0
  1 18  1  0
  1 19  1  0
  3 20  1  0
  4 21  1  0
  5 22  1  0
  6 23  1  0
  8 24  1  0
 10 25  1  0
 11 26  1  0
 11 27  1  0
 12 28  1  0
 13 29  1  0
 14 30  1  0
M  ISO  8  18   8  19   8  20  14  21  14  22  14  23  14  24   6  26   8
M  ISO  4  27   8  28  14  29  14  30  14
M  END
>  <minimizedAffinity>  (1) 
-4.66753483

>  <minimizedRMSD>  (1) 
0.824473381

$$$$
