
     RDKit          3D

 24 25  0  0  1  0  0  0  0  0999 V2000
   47.6740   35.1780   41.4700 C   0  0  2  0  0  0  0  0  0  0  0  0
   45.7530   35.4900   42.9450 C   0  0  0  0  0  0  0  0  0  0  0  0
   46.9440   34.8260   42.6730 C   0  0  0  0  0  0  0  0  0  0  0  0
   47.3460   33.8530   43.5920 C   0  0  0  0  0  0  0  0  0  0  0  0
   46.5420   33.6340   44.6750 N   0  0  0  0  0  0  0  0  0  0  0  0
   45.4050   34.2990   44.8930 C   0  0  0  0  0  0  0  0  0  0  0  0
   45.0130   35.2310   44.0180 N   0  0  0  0  0  0  0  0  0  0  0  0
   47.7020   34.0070   40.5560 C   0  0  0  0  0  0  0  0  0  0  0  0
   46.6130   33.5920   39.8250 C   0  0  0  0  0  0  0  0  0  0  0  0
   46.7560   32.4860   39.0050 C   0  0  0  0  0  0  0  0  0  0  0  0
   47.9080   31.8030   38.8890 N   0  0  0  0  0  0  0  0  0  0  0  0
   48.9610   32.2290   39.6150 C   0  0  0  0  0  0  0  0  0  0  0  0
   48.8530   33.3000   40.4220 N   0  0  0  0  0  0  0  0  0  0  0  0
   49.0980   35.4920   41.8670 C   0  0  0  0  0  0  0  0  0  0  0  0
   47.1970   36.0356   40.9731 H   0  0  0  0  0  0  0  0  0  0  0  0
   45.4086   36.2627   42.2419 H   0  0  0  0  0  0  0  0  0  0  0  0
   48.2763   33.2838   43.4487 H   0  0  0  0  0  0  0  0  0  0  0  0
   44.7968   34.0823   45.7836 H   0  0  0  0  0  0  0  0  0  0  0  0
   45.6532   34.1254   39.8904 H   0  0  0  0  0  0  0  0  0  0  0  0
   45.8864   32.1503   38.4210 H   0  0  0  0  0  0  0  0  0  0  0  0
   49.9200   31.6945   39.5467 H   0  0  0  0  0  0  0  0  0  0  0  0
   49.1774   35.5095   42.9640 H   0  0  0  0  0  0  0  0  0  0  0  0
   49.7699   34.7204   41.4630 H   0  0  0  0  0  0  0  0  0  0  0  0
   49.3831   36.4746   41.4630 H   0  0  0  0  0  0  0  0  0  0  0  0
  1 14  1  0
  1  3  1  0
  2  7  2  0
  3  2  1  0
  3  4  2  0
  4  5  1  0
  5  6  2  0
  7  6  1  0
  8  1  1  0
  9  8  2  0
 10  9  1  0
 11 10  2  0
 11 12  1  0
 12 13  2  0
 13  8  1  0
  1 15  1  6
  2 16  1  0
  4 17  1  0
  6 18  1  0
  9 19  1  0
 10 20  1  0
 12 21  1  0
 14 22  1  0
 14 23  1  0
 14 24  1  0
M  ISO  8  15   8  16  14  17  14  18  14  19  14  20  14  21  14  22   8
M  ISO  2  23   8  24   8
M  END
>  <minimizedAffinity>  (1) 
-4.08121347

>  <minimizedRMSD>  (1) 
1.76753569

$$$$
