
     RDKit          3D

 30 31  0  0  1  0  0  0  0  0999 V2000
   46.7820   35.0740   41.8960 C   0  0  2  0  0  0  0  0  0  0  0  0
   45.1970   36.0690   43.5020 C   0  0  0  0  0  0  0  0  0  0  0  0
   46.0890   35.0470   43.1470 C   0  0  0  0  0  0  0  0  0  0  0  0
   46.2570   34.0220   44.0670 C   0  0  0  0  0  0  0  0  0  0  0  0
   45.5630   34.0490   45.2480 N   0  0  0  0  0  0  0  0  0  0  0  0
   44.7070   35.0600   45.5470 C   0  0  0  0  0  0  0  0  0  0  0  0
   44.5190   36.0820   44.6690 N   0  0  0  0  0  0  0  0  0  0  0  0
   46.4000   34.0740   40.9310 N   0  0  0  0  0  0  0  0  0  0  0  0
   45.0300   34.1040   40.5750 C   0  0  0  0  0  0  0  0  0  0  0  0
   44.7700   32.7400   39.9010 C   0  0  0  0  0  0  0  0  0  0  0  0
   45.4520   32.8420   38.6400 N   0  0  0  0  0  0  0  0  0  0  0  0
   46.8370   33.1410   38.6970 C   0  0  0  0  0  0  0  0  0  0  0  0
   47.3140   33.9640   39.8510 C   0  0  0  0  0  0  0  0  0  0  0  0
   48.3020   34.9390   42.1820 C   0  0  0  0  0  0  0  0  0  0  0  0
   46.5072   36.0317   41.4298 H   0  0  0  0  0  0  0  0  0  0  0  0
   45.0426   36.8988   42.7966 H   0  0  0  0  0  0  0  0  0  0  0  0
   46.9444   33.1913   43.8491 H   0  0  0  0  0  0  0  0  0  0  0  0
   44.1633   35.0525   46.5032 H   0  0  0  0  0  0  0  0  0  0  0  0
   44.3995   34.2215   41.4687 H   0  0  0  0  0  0  0  0  0  0  0  0
   44.7909   34.9482   39.9116 H   0  0  0  0  0  0  0  0  0  0  0  0
   45.1848   31.9196   40.5050 H   0  0  0  0  0  0  0  0  0  0  0  0
   43.6982   32.5205   39.7871 H   0  0  0  0  0  0  0  0  0  0  0  0
   44.9928   33.5850   38.0941 H   0  0  0  0  0  0  0  0  0  0  0  0
   47.3805   32.1851   38.7258 H   0  0  0  0  0  0  0  0  0  0  0  0
   47.0288   33.7615   37.8092 H   0  0  0  0  0  0  0  0  0  0  0  0
   48.2402   33.5101   40.2334 H   0  0  0  0  0  0  0  0  0  0  0  0
   47.4534   34.9838   39.4629 H   0  0  0  0  0  0  0  0  0  0  0  0
   48.4707   34.9240   43.2689 H   0  0  0  0  0  0  0  0  0  0  0  0
   48.6767   34.0040   41.7399 H   0  0  0  0  0  0  0  0  0  0  0  0
   48.8356   35.7933   41.7399 H   0  0  0  0  0  0  0  0  0  0  0  0
  1 14  1  0
  1  3  1  0
  2  7  2  0
  3  2  1  0
  3  4  2  0
  4  5  1  0
  5  6  2  0
  7  6  1  0
  8  1  1  0
  9  8  1  0
 10  9  1  0
 11 12  1  0
 11 10  1  0
 12 13  1  0
 13  8  1  0
  1 15  1  6
  2 16  1  0
  4 17  1  0
  6 18  1  0
  9 19  1  0
  9 20  1  0
 10 21  1  0
 10 22  1  0
 11 23  1  0
 12 24  1  0
 12 25  1  0
 13 26  1  0
 13 27  1  0
 14 28  1  0
 14 29  1  0
 14 30  1  0
M  ISO  8  15   8  16  14  17  14  18  14  19  13  20  13  21  13  22  13
M  ISO  8  23   5  24  13  25  13  26  13  27  13  28   8  29   8  30   8
M  END
>  <minimizedAffinity>  (1) 
-4.06468725

>  <minimizedRMSD>  (1) 
1.12448251

$$$$
