
     RDKit          3D

 40 42  0  0  1  0  0  0  0  0999 V2000
   45.0360   34.3580   41.3930 C   0  0  1  0  0  0  0  0  0  0  0  0
   43.7620   34.1570   40.7400 N   0  0  0  0  0  0  0  0  0  0  0  0
   42.9720   33.1590   41.3510 C   0  0  0  0  0  0  0  0  0  0  0  0
   41.8890   32.8490   40.2970 C   0  0  0  0  0  0  0  0  0  0  0  0
   41.0300   33.9930   40.3690 N   0  0  0  0  0  0  0  0  0  0  0  0
   41.6360   35.2700   40.1780 C   0  0  0  0  0  0  0  0  0  0  0  0
   43.1110   35.3600   40.3990 C   0  0  0  0  0  0  0  0  0  0  0  0
   44.5610   35.6880   43.4210 C   0  0  0  0  0  0  0  0  0  0  0  0
   45.0070   34.5230   42.8110 C   0  0  0  0  0  0  0  0  0  0  0  0
   45.4440   33.4870   43.6420 C   0  0  0  0  0  0  0  0  0  0  0  0
   45.4170   33.6530   45.0030 N   0  0  0  0  0  0  0  0  0  0  0  0
   44.9680   34.8200   45.5590 C   0  0  0  0  0  0  0  0  0  0  0  0
   44.5380   35.8410   44.7640 N   0  0  0  0  0  0  0  0  0  0  0  0
   46.0270   33.2770   41.0190 C   0  0  0  0  0  0  0  0  0  0  0  0
   46.7930   33.6380   39.8030 C   0  0  0  0  0  0  0  0  0  0  0  0
   46.3100   33.1520   38.5860 C   0  0  0  0  0  0  0  0  0  0  0  0
   46.8960   33.3850   37.3590 C   0  0  0  0  0  0  0  0  0  0  0  0
   48.0430   34.1510   37.3210 C   0  0  0  0  0  0  0  0  0  0  0  0
   48.5450   34.6450   38.5080 C   0  0  0  0  0  0  0  0  0  0  0  0
   47.9360   34.3950   39.7250 C   0  0  0  0  0  0  0  0  0  0  0  0
   45.3624   35.3337   41.0038 H   0  0  0  0  0  0  0  0  0  0  0  0
   43.5725   32.2639   41.5706 H   0  0  0  0  0  0  0  0  0  0  0  0
   42.5483   33.4822   42.3133 H   0  0  0  0  0  0  0  0  0  0  0  0
   41.3430   31.9284   40.5506 H   0  0  0  0  0  0  0  0  0  0  0  0
   42.3002   32.6792   39.2910 H   0  0  0  0  0  0  0  0  0  0  0  0
   40.3038   33.8824   39.6470 H   0  0  0  0  0  0  0  0  0  0  0  0
   41.4360   35.5807   39.1419 H   0  0  0  0  0  0  0  0  0  0  0  0
   41.1913   35.9158   40.9495 H   0  0  0  0  0  0  0  0  0  0  0  0
   43.5672   35.7378   39.4721 H   0  0  0  0  0  0  0  0  0  0  0  0
   43.2395   36.0219   41.2681 H   0  0  0  0  0  0  0  0  0  0  0  0
   44.2134   36.5175   42.7877 H   0  0  0  0  0  0  0  0  0  0  0  0
   45.8073   32.5444   43.2067 H   0  0  0  0  0  0  0  0  0  0  0  0
   44.9539   34.9350   46.6529 H   0  0  0  0  0  0  0  0  0  0  0  0
   46.7290   33.1317   41.8534 H   0  0  0  0  0  0  0  0  0  0  0  0
   45.4672   32.3530   40.8120 H   0  0  0  0  0  0  0  0  0  0  0  0
   45.3966   32.5394   38.6074 H   0  0  0  0  0  0  0  0  0  0  0  0
   46.4611   32.9718   36.4370 H   0  0  0  0  0  0  0  0  0  0  0  0
   48.5461   34.3632   36.3661 H   0  0  0  0  0  0  0  0  0  0  0  0
   49.4587   35.2572   38.4858 H   0  0  0  0  0  0  0  0  0  0  0  0
   48.3745   34.8093   40.6448 H   0  0  0  0  0  0  0  0  0  0  0  0
  1  9  1  0
  2  3  1  0
  2  1  1  0
  4  5  1  0
  4  3  1  0
  6  5  1  0
  6  7  1  0
  7  2  1  0
  8 13  2  0
  9  8  1  0
  9 10  2  0
 10 11  1  0
 11 12  2  0
 13 12  1  0
 14  1  1  0
 15 14  1  0
 16 15  2  0
 17 16  1  0
 18 17  2  0
 18 19  1  0
 19 20  2  0
 20 15  1  0
  1 21  1  6
  3 22  1  0
  3 23  1  0
  4 24  1  0
  4 25  1  0
  5 26  1  0
  6 27  1  0
  6 28  1  0
  7 29  1  0
  7 30  1  0
  8 31  1  0
 10 32  1  0
 12 33  1  0
 14 34  1  0
 14 35  1  0
 16 36  1  0
 17 37  1  0
 18 38  1  0
 19 39  1  0
 20 40  1  0
M  ISO  8  21   8  22  13  23  13  24  13  25  13  26   5  27  13  28  13
M  ISO  8  29  13  30  13  31  14  32  14  33  14  34   8  35   8  36  14
M  ISO  4  37  14  38  14  39  14  40  14
M  END
>  <minimizedAffinity>  (1) 
-5.00490522

>  <minimizedRMSD>  (1) 
4.34052324

$$$$
