
     RDKit          3D

 32 33  0  0  1  0  0  0  0  0999 V2000
   46.7510   34.9830   41.6650 C   0  0  1  0  0  0  0  0  0  0  0  0
   46.2820   33.9470   40.7670 N   0  0  0  0  0  0  0  0  0  0  0  0
   44.9090   33.9640   40.4850 C   0  0  0  0  0  0  0  0  0  0  0  0
   44.6010   32.5710   39.8870 C   0  0  0  0  0  0  0  0  0  0  0  0
   45.2130   32.5950   38.6020 N   0  0  0  0  0  0  0  0  0  0  0  0
   46.5810   32.9100   38.5490 C   0  0  0  0  0  0  0  0  0  0  0  0
   47.1650   33.7020   39.6800 C   0  0  0  0  0  0  0  0  0  0  0  0
   45.2460   36.0730   43.2970 C   0  0  0  0  0  0  0  0  0  0  0  0
   46.0860   34.9780   42.9560 C   0  0  0  0  0  0  0  0  0  0  0  0
   46.2250   33.9920   43.9070 C   0  0  0  0  0  0  0  0  0  0  0  0
   45.5580   34.1340   45.0920 N   0  0  0  0  0  0  0  0  0  0  0  0
   44.7690   35.1850   45.3830 C   0  0  0  0  0  0  0  0  0  0  0  0
   44.6020   36.1890   44.4650 N   0  0  0  0  0  0  0  0  0  0  0  0
   48.2470   34.8160   41.9340 C   0  0  0  0  0  0  0  0  0  0  0  0
   49.1060   35.8000   41.4130 N   0  0  0  0  0  0  0  0  0  0  0  0
   46.5256   35.9312   41.1550 H   0  0  0  0  0  0  0  0  0  0  0  0
   44.3281   34.1259   41.4050 H   0  0  0  0  0  0  0  0  0  0  0  0
   44.6411   34.7767   39.7938 H   0  0  0  0  0  0  0  0  0  0  0  0
   45.0349   31.7751   40.5101 H   0  0  0  0  0  0  0  0  0  0  0  0
   43.5215   32.3665   39.8339 H   0  0  0  0  0  0  0  0  0  0  0  0
   45.0935   31.6611   38.1842 H   0  0  0  0  0  0  0  0  0  0  0  0
   47.1335   31.9604   38.4951 H   0  0  0  0  0  0  0  0  0  0  0  0
   46.6776   33.5689   37.6735 H   0  0  0  0  0  0  0  0  0  0  0  0
   48.0359   33.1522   40.0663 H   0  0  0  0  0  0  0  0  0  0  0  0
   47.4173   34.6883   39.2635 H   0  0  0  0  0  0  0  0  0  0  0  0
   45.1171   36.8748   42.5551 H   0  0  0  0  0  0  0  0  0  0  0  0
   46.8571   33.1118   43.7180 H   0  0  0  0  0  0  0  0  0  0  0  0
   44.2590   35.2381   46.3562 H   0  0  0  0  0  0  0  0  0  0  0  0
   48.3874   34.7977   43.0249 H   0  0  0  0  0  0  0  0  0  0  0  0
   48.5277   33.8888   41.4129 H   0  0  0  0  0  0  0  0  0  0  0  0
   49.5523   36.3113   42.1878 H   0  0  0  0  0  0  0  0  0  0  0  0
   49.8310   35.3517   40.8348 H   0  0  0  0  0  0  0  0  0  0  0  0
  1 14  1  0
  1  9  1  0
  2  1  1  0
  3  2  1  0
  4  3  1  0
  5  4  1  0
  6  5  1  0
  6  7  1  0
  7  2  1  0
  8 13  2  0
  9  8  1  0
  9 10  2  0
 10 11  1  0
 11 12  2  0
 13 12  1  0
 15 14  1  0
  1 16  1  6
  3 17  1  0
  3 18  1  0
  4 19  1  0
  4 20  1  0
  5 21  1  0
  6 22  1  0
  6 23  1  0
  7 24  1  0
  7 25  1  0
  8 26  1  0
 10 27  1  0
 12 28  1  0
 14 29  1  0
 14 30  1  0
 15 31  1  0
 15 32  1  0
M  ISO  8  16   8  17  13  18  13  19  13  20  13  21   5  22  13  23  13
M  ISO  8  24  13  25  13  26  14  27  14  28  14  29   8  30   8  31   5
M  ISO  1  32   5
M  END
>  <minimizedAffinity>  (1) 
-4.14354801

>  <minimizedRMSD>  (1) 
0.320964426

$$$$
