
     RDKit          3D

 46 48  0  0  0  0  0  0  0  0999 V2000
   46.4170   33.1940   46.1350 C   0  0  0  0  0  0  0  0  0  0  0  0
   45.9750   32.2550   47.1670 C   0  0  0  0  0  0  0  0  0  0  0  0
   45.9160   32.4370   48.5370 C   0  0  0  0  0  0  0  0  0  0  0  0
   45.4780   31.4860   49.4030 C   0  0  0  0  0  0  0  0  0  0  0  0
   45.0680   30.2760   48.8940 C   0  0  0  0  0  0  0  0  0  0  0  0
   45.1220   30.0840   47.5320 C   0  0  0  0  0  0  0  0  0  0  0  0
   45.5700   31.0590   46.6700 C   0  0  0  0  0  0  0  0  0  0  0  0
   46.7060   29.8720   44.8940 C   0  0  0  0  0  0  0  0  0  0  0  0
   47.9290   29.6870   45.2470 O   0  0  0  0  0  0  0  0  0  0  0  0
   45.4990   30.4930   45.3560 N   0  0  0  0  0  0  0  0  0  0  0  0
   45.3430   34.1940   45.8090 C   0  0  0  0  0  0  0  0  0  0  0  0
   44.4980   35.3670   42.4360 C   0  0  0  0  0  0  0  0  0  0  0  0
   45.6950   35.1050   41.7180 C   0  0  0  0  0  0  0  0  0  0  0  0
   46.7400   34.5370   42.4310 C   0  0  0  0  0  0  0  0  0  0  0  0
   46.5970   34.2590   43.7380 N   0  0  0  0  0  0  0  0  0  0  0  0
   45.4330   34.5300   44.3720 C   0  0  0  0  0  0  0  0  0  0  0  0
   44.4040   35.0680   43.7550 N   0  0  0  0  0  0  0  0  0  0  0  0
   48.0200   34.2360   41.7430 C   0  0  0  0  0  0  0  0  0  0  0  0
   49.1240   34.6190   42.6960 C   0  0  0  0  0  0  0  0  0  0  0  0
   50.4050   33.8830   42.4360 C   0  0  0  0  0  0  0  0  0  0  0  0
   50.2170   32.3890   42.3580 C   0  0  0  0  0  0  0  0  0  0  0  0
   48.7630   31.9850   42.4240 C   0  0  0  0  0  0  0  0  0  0  0  0
   48.0410   32.7980   41.3500 C   0  0  0  0  0  0  0  0  0  0  0  0
   47.3075   33.7296   46.4958 H   0  0  0  0  0  0  0  0  0  0  0  0
   46.6481   32.6237   45.2232 H   0  0  0  0  0  0  0  0  0  0  0  0
   46.2414   33.4042   48.9477 H   0  0  0  0  0  0  0  0  0  0  0  0
   45.4520   31.6794   50.4856 H   0  0  0  0  0  0  0  0  0  0  0  0
   44.7051   29.4795   49.5603 H   0  0  0  0  0  0  0  0  0  0  0  0
   44.7959   29.1183   47.1184 H   0  0  0  0  0  0  0  0  0  0  0  0
   46.5276   29.3985   43.9173 H   0  0  0  0  0  0  0  0  0  0  0  0
   44.6429   30.5295   44.7845 H   0  0  0  0  0  0  0  0  0  0  0  0
   44.3553   33.7618   46.0275 H   0  0  0  0  0  0  0  0  0  0  0  0
   45.4768   35.1012   46.4165 H   0  0  0  0  0  0  0  0  0  0  0  0
   43.6388   35.8169   41.9169 H   0  0  0  0  0  0  0  0  0  0  0  0
   45.7887   35.3413   40.6478 H   0  0  0  0  0  0  0  0  0  0  0  0
   48.1503   34.8049   40.8106 H   0  0  0  0  0  0  0  0  0  0  0  0
   49.3135   35.6980   42.5972 H   0  0  0  0  0  0  0  0  0  0  0  0
   48.7909   34.3514   43.7096 H   0  0  0  0  0  0  0  0  0  0  0  0
   50.8244   34.2344   41.4817 H   0  0  0  0  0  0  0  0  0  0  0  0
   51.0806   34.0874   43.2796 H   0  0  0  0  0  0  0  0  0  0  0  0
   50.7515   31.9218   43.1983 H   0  0  0  0  0  0  0  0  0  0  0  0
   50.6139   32.0522   41.3890 H   0  0  0  0  0  0  0  0  0  0  0  0
   48.6574   30.9089   42.2219 H   0  0  0  0  0  0  0  0  0  0  0  0
   48.3403   32.1768   43.4213 H   0  0  0  0  0  0  0  0  0  0  0  0
   47.0091   32.4318   41.2452 H   0  0  0  0  0  0  0  0  0  0  0  0
   48.5691   32.6883   40.3913 H   0  0  0  0  0  0  0  0  0  0  0  0
  1  2  1  0
  2  3  2  0
  3  4  1  0
  5  4  2  0
  6  5  1  0
  7  2  1  0
  7  6  2  0
  8  9  2  0
  8 10  1  0
 10  7  1  0
 11  1  1  0
 12 17  2  0
 13 14  2  0
 13 12  1  0
 14 15  1  0
 15 16  2  0
 16 11  1  0
 17 16  1  0
 18 14  1  0
 18 19  1  0
 20 19  1  0
 21 22  1  0
 21 20  1  0
 23 18  1  0
 23 22  1  0
  1 24  1  0
  1 25  1  0
  3 26  1  0
  4 27  1  0
  5 28  1  0
  6 29  1  0
  8 30  1  0
 10 31  1  0
 11 32  1  0
 11 33  1  0
 12 34  1  0
 13 35  1  0
 18 36  1  0
 19 37  1  0
 19 38  1  0
 20 39  1  0
 20 40  1  0
 21 41  1  0
 21 42  1  0
 22 43  1  0
 22 44  1  0
 23 45  1  0
 23 46  1  0
M  ISO  8  24   8  25   8  26  14  27  14  28  14  29  14  30   6  32   8
M  ISO  8  33   8  34  14  35  14  36  13  37  13  38  13  39  13  40  13
M  ISO  6  41  13  42  13  43  13  44  13  45  13  46  13
M  END
>  <minimizedAffinity>  (1) 
-5.902915

>  <minimizedRMSD>  (1) 
2.28311014

$$$$
