
     RDKit          3D

 48 51  0  0  1  0  0  0  0  0999 V2000
   43.7360   33.1540   40.7830 C   0  0  1  0  0  0  0  0  0  0  0  0
   42.3190   33.3360   40.9370 N   0  0  0  0  0  0  0  0  0  0  0  0
   41.7110   32.3390   41.7350 C   0  0  0  0  0  0  0  0  0  0  0  0
   40.2000   32.4640   41.4530 C   0  0  0  0  0  0  0  0  0  0  0  0
   39.8430   33.6810   42.1360 N   0  0  0  0  0  0  0  0  0  0  0  0
   40.5110   34.8140   41.6350 C   0  0  0  0  0  0  0  0  0  0  0  0
   41.9950   34.6350   41.3550 C   0  0  0  0  0  0  0  0  0  0  0  0
   44.2370   33.2860   38.3440 C   0  0  0  0  0  0  0  0  0  0  0  0
   44.1820   32.5960   39.5420 C   0  0  0  0  0  0  0  0  0  0  0  0
   44.6060   31.2520   39.5030 C   0  0  0  0  0  0  0  0  0  0  0  0
   45.0350   30.7110   38.3210 N   0  0  0  0  0  0  0  0  0  0  0  0
   45.0620   31.4460   37.1800 C   0  0  0  0  0  0  0  0  0  0  0  0
   44.6610   32.7370   37.1970 N   0  0  0  0  0  0  0  0  0  0  0  0
   44.4360   34.5050   40.9790 C   0  0  0  0  0  0  0  0  0  0  0  0
   45.7000   34.4730   41.6400 C   0  0  0  0  0  0  0  0  0  0  0  0
   46.9830   34.8180   41.3830 C   0  0  0  0  0  0  0  0  0  0  0  0
   48.0900   34.6820   42.1970 C   0  0  0  0  0  0  0  0  0  0  0  0
   47.8540   34.1430   43.3860 N   0  0  0  0  0  0  0  0  0  0  0  0
   46.6380   33.7760   43.7260 C   0  0  0  0  0  0  0  0  0  0  0  0
   45.6310   33.9420   42.8820 N   0  0  0  0  0  0  0  0  0  0  0  0
   46.4120   33.1730   45.0700 C   0  0  0  0  0  0  0  0  0  0  0  0
   47.0840   32.0210   45.4120 C   0  0  0  0  0  0  0  0  0  0  0  0
   46.9010   31.4380   46.6410 C   0  0  0  0  0  0  0  0  0  0  0  0
   46.0260   32.0360   47.5240 C   0  0  0  0  0  0  0  0  0  0  0  0
   45.3390   33.1890   47.2100 C   0  0  0  0  0  0  0  0  0  0  0  0
   45.5310   33.7710   45.9640 C   0  0  0  0  0  0  0  0  0  0  0  0
   44.0000   32.4075   41.5466 H   0  0  0  0  0  0  0  0  0  0  0  0
   42.0756   31.3410   41.4503 H   0  0  0  0  0  0  0  0  0  0  0  0
   41.9428   32.4677   42.8026 H   0  0  0  0  0  0  0  0  0  0  0  0
   40.0045   32.5444   40.3735 H   0  0  0  0  0  0  0  0  0  0  0  0
   39.6221   31.5913   41.7912 H   0  0  0  0  0  0  0  0  0  0  0  0
   38.8285   33.8277   42.0349 H   0  0  0  0  0  0  0  0  0  0  0  0
   40.0223   35.1056   40.6936 H   0  0  0  0  0  0  0  0  0  0  0  0
   40.4451   35.5750   42.4265 H   0  0  0  0  0  0  0  0  0  0  0  0
   42.5551   34.8575   42.2752 H   0  0  0  0  0  0  0  0  0  0  0  0
   42.2616   35.3209   40.5374 H   0  0  0  0  0  0  0  0  0  0  0  0
   43.9166   34.3382   38.3322 H   0  0  0  0  0  0  0  0  0  0  0  0
   44.5922   30.6412   40.4177 H   0  0  0  0  0  0  0  0  0  0  0  0
   45.4103   30.9909   36.2411 H   0  0  0  0  0  0  0  0  0  0  0  0
   44.5891   34.9503   39.9849 H   0  0  0  0  0  0  0  0  0  0  0  0
   43.7745   35.0844   41.6398 H   0  0  0  0  0  0  0  0  0  0  0  0
   47.1685   35.2658   40.3955 H   0  0  0  0  0  0  0  0  0  0  0  0
   49.0955   34.9979   41.8822 H   0  0  0  0  0  0  0  0  0  0  0  0
   47.7764   31.5620   44.6910 H   0  0  0  0  0  0  0  0  0  0  0  0
   47.4381   30.5179   46.9147 H   0  0  0  0  0  0  0  0  0  0  0  0
   45.8713   31.5774   48.5118 H   0  0  0  0  0  0  0  0  0  0  0  0
   44.6482   33.6418   47.9365 H   0  0  0  0  0  0  0  0  0  0  0  0
   44.9944   34.6909   45.6885 H   0  0  0  0  0  0  0  0  0  0  0  0
  1  2  1  0
  1 14  1  0
  2  7  1  0
  2  3  1  0
  4  3  1  0
  4  5  1  0
  6  5  1  0
  7  6  1  0
  8  9  2  0
  9  1  1  0
 10  9  1  0
 11 10  2  0
 12 13  2  0
 12 11  1  0
 13  8  1  0
 14 15  1  0
 15 20  1  0
 16 15  2  0
 16 17  1  0
 17 18  2  0
 18 19  1  0
 19 21  1  0
 20 19  2  0
 21 22  2  0
 21 26  1  0
 22 23  1  0
 23 24  2  0
 25 24  1  0
 26 25  2  0
  1 27  1  1
  3 28  1  0
  3 29  1  0
  4 30  1  0
  4 31  1  0
  5 32  1  0
  6 33  1  0
  6 34  1  0
  7 35  1  0
  7 36  1  0
  8 37  1  0
 10 38  1  0
 12 39  1  0
 14 40  1  0
 14 41  1  0
 16 42  1  0
 17 43  1  0
 22 44  1  0
 23 45  1  0
 24 46  1  0
 25 47  1  0
 26 48  1  0
M  ISO  8  27   8  28  13  29  13  30  13  31  13  32   5  33  13  34  13
M  ISO  8  35  13  36  13  37  14  38  14  39  14  40   8  41   8  42  14
M  ISO  6  43  14  44  14  45  14  46  14  47  14  48  14
M  END
>  <minimizedAffinity>  (1) 
-5.48541498

>  <minimizedRMSD>  (1) 
4.21475649

$$$$
