
     RDKit          3D

 45 48  0  0  1  0  0  0  0  0999 V2000
   47.1380   33.4690   39.6840 C   0  0  1  0  0  0  0  0  0  0  0  0
   47.9950   33.6560   40.8240 N   0  0  0  0  0  0  0  0  0  0  0  0
   48.2980   35.0160   41.0730 C   0  0  0  0  0  0  0  0  0  0  0  0
   49.5060   34.9870   42.0310 C   0  0  0  0  0  0  0  0  0  0  0  0
   48.9220   34.5570   43.2760 N   0  0  0  0  0  0  0  0  0  0  0  0
   48.3490   33.2750   43.2030 C   0  0  0  0  0  0  0  0  0  0  0  0
   47.5160   32.9900   41.9620 C   0  0  0  0  0  0  0  0  0  0  0  0
   47.7450   33.8470   37.2950 C   0  0  0  0  0  0  0  0  0  0  0  0
   47.7710   33.0970   38.4570 C   0  0  0  0  0  0  0  0  0  0  0  0
   48.4840   31.8850   38.3890 C   0  0  0  0  0  0  0  0  0  0  0  0
   49.0950   31.5230   37.2180 N   0  0  0  0  0  0  0  0  0  0  0  0
   49.0240   32.3130   36.1150 C   0  0  0  0  0  0  0  0  0  0  0  0
   48.3500   33.4720   36.1600 N   0  0  0  0  0  0  0  0  0  0  0  0
   46.0880   32.4020   40.0240 C   0  0  0  0  0  0  0  0  0  0  0  0
   44.8290   32.5200   39.3630 C   0  0  0  0  0  0  0  0  0  0  0  0
   44.1930   31.9700   38.3010 C   0  0  0  0  0  0  0  0  0  0  0  0
   42.9300   32.2600   37.8230 C   0  0  0  0  0  0  0  0  0  0  0  0
   42.2680   33.1920   38.4910 N   0  0  0  0  0  0  0  0  0  0  0  0
   42.8030   33.7800   39.5350 C   0  0  0  0  0  0  0  0  0  0  0  0
   44.0220   33.4440   39.9310 N   0  0  0  0  0  0  0  0  0  0  0  0
   41.9770   34.7970   40.1990 C   0  0  0  0  0  0  0  0  0  0  0  0
   42.1850   35.3930   41.4070 C   0  0  0  0  0  0  0  0  0  0  0  0
   41.1560   36.2600   41.5880 N   0  0  0  0  0  0  0  0  0  0  0  0
   40.3150   36.2200   40.5300 C   0  0  0  0  0  0  0  0  0  0  0  0
   40.8310   35.3030   39.6610 N   0  0  0  0  0  0  0  0  0  0  0  0
   46.7102   34.4648   39.4959 H   0  0  0  0  0  0  0  0  0  0  0  0
   48.5592   35.5315   40.1370 H   0  0  0  0  0  0  0  0  0  0  0  0
   47.4427   35.5578   41.5030 H   0  0  0  0  0  0  0  0  0  0  0  0
   50.2683   34.2736   41.6846 H   0  0  0  0  0  0  0  0  0  0  0  0
   50.0230   35.9550   42.1062 H   0  0  0  0  0  0  0  0  0  0  0  0
   49.6577   34.5467   43.9968 H   0  0  0  0  0  0  0  0  0  0  0  0
   49.1652   32.5384   43.2377 H   0  0  0  0  0  0  0  0  0  0  0  0
   47.6515   33.2116   44.0512 H   0  0  0  0  0  0  0  0  0  0  0  0
   46.4818   33.3141   42.1502 H   0  0  0  0  0  0  0  0  0  0  0  0
   47.5739   31.9096   41.7638 H   0  0  0  0  0  0  0  0  0  0  0  0
   47.1987   34.8017   37.3033 H   0  0  0  0  0  0  0  0  0  0  0  0
   48.5500   31.2321   39.2718 H   0  0  0  0  0  0  0  0  0  0  0  0
   49.5199   32.0018   35.1837 H   0  0  0  0  0  0  0  0  0  0  0  0
   46.5117   31.4205   39.7649 H   0  0  0  0  0  0  0  0  0  0  0  0
   45.8708   32.5352   41.0941 H   0  0  0  0  0  0  0  0  0  0  0  0
   44.7510   31.1974   37.7517 H   0  0  0  0  0  0  0  0  0  0  0  0
   42.5029   31.7509   36.9464 H   0  0  0  0  0  0  0  0  0  0  0  0
   43.0206   35.2082   42.0981 H   0  0  0  0  0  0  0  0  0  0  0  0
   41.0334   36.8628   42.4142 H   0  0  0  0  0  0  0  0  0  0  0  0
   39.3963   36.8101   40.3962 H   0  0  0  0  0  0  0  0  0  0  0  0
  1 14  1  0
  1  2  1  0
  2  3  1  0
  2  7  1  0
  3  4  1  0
  4  5  1  0
  6  5  1  0
  7  6  1  0
  8  9  2  0
  9  1  1  0
 10  9  1  0
 11 10  2  0
 12 13  2  0
 12 11  1  0
 13  8  1  0
 15 20  1  0
 15 14  1  0
 16 15  2  0
 17 16  1  0
 17 18  2  0
 18 19  1  0
 19 20  2  0
 19 21  1  0
 21 22  2  0
 22 23  1  0
 24 23  1  0
 25 21  1  0
 25 24  2  0
  1 26  1  6
  3 27  1  0
  3 28  1  0
  4 29  1  0
  4 30  1  0
  5 31  1  0
  6 32  1  0
  6 33  1  0
  7 34  1  0
  7 35  1  0
  8 36  1  0
 10 37  1  0
 12 38  1  0
 14 39  1  0
 14 40  1  0
 16 41  1  0
 17 42  1  0
 22 43  1  0
 23 44  1  0
 24 45  1  0
M  ISO  8  26   8  27  13  28  13  29  13  30  13  31   5  32  13  33  13
M  ISO  8  34  13  35  13  36  14  37  14  38  14  39   8  40   8  41  14
M  ISO  4  42  14  43  14  44   9  45  14
M  END
>  <minimizedAffinity>  (1) 
-5.00337839

>  <minimizedRMSD>  (1) 
6.82261658

$$$$
