
     RDKit          3D

 41 43  0  0  1  0  0  0  0  0999 V2000
   45.8630   32.4250   39.8810 C   0  0  1  0  0  0  0  0  0  0  0  0
   44.7870   33.3680   39.7480 N   0  0  0  0  0  0  0  0  0  0  0  0
   43.8210   32.9750   38.7880 C   0  0  0  0  0  0  0  0  0  0  0  0
   43.0050   34.2470   38.4970 C   0  0  0  0  0  0  0  0  0  0  0  0
   42.2170   34.4100   39.6900 N   0  0  0  0  0  0  0  0  0  0  0  0
   42.9870   34.5800   40.8590 C   0  0  0  0  0  0  0  0  0  0  0  0
   44.2090   33.6840   40.9870 C   0  0  0  0  0  0  0  0  0  0  0  0
   47.8730   31.5710   38.6800 C   0  0  0  0  0  0  0  0  0  0  0  0
   46.9510   32.5610   38.9600 C   0  0  0  0  0  0  0  0  0  0  0  0
   47.1240   33.7770   38.2710 C   0  0  0  0  0  0  0  0  0  0  0  0
   48.1610   33.9130   37.3890 N   0  0  0  0  0  0  0  0  0  0  0  0
   49.0280   32.8990   37.1620 C   0  0  0  0  0  0  0  0  0  0  0  0
   48.8820   31.7140   37.8160 N   0  0  0  0  0  0  0  0  0  0  0  0
   46.4280   32.5110   41.3050 C   0  0  0  0  0  0  0  0  0  0  0  0
   47.4180   33.5140   41.5340 C   0  0  0  0  0  0  0  0  0  0  0  0
   47.4940   34.8660   41.5510 C   0  0  0  0  0  0  0  0  0  0  0  0
   48.6030   35.6540   41.7960 C   0  0  0  0  0  0  0  0  0  0  0  0
   49.7350   34.9990   42.0470 N   0  0  0  0  0  0  0  0  0  0  0  0
   49.7410   33.6850   42.0480 C   0  0  0  0  0  0  0  0  0  0  0  0
   48.6380   33.0020   41.8040 N   0  0  0  0  0  0  0  0  0  0  0  0
   51.0700   33.0460   42.3420 C   0  0  0  0  0  0  0  0  0  0  0  0
   45.4058   31.4517   39.6492 H   0  0  0  0  0  0  0  0  0  0  0  0
   44.3115   32.6129   37.8724 H   0  0  0  0  0  0  0  0  0  0  0  0
   43.1874   32.1532   39.1531 H   0  0  0  0  0  0  0  0  0  0  0  0
   43.6656   35.1122   38.3389 H   0  0  0  0  0  0  0  0  0  0  0  0
   42.3962   34.1704   37.5841 H   0  0  0  0  0  0  0  0  0  0  0  0
   41.6168   35.2388   39.5726 H   0  0  0  0  0  0  0  0  0  0  0  0
   43.3308   35.6245   40.8869 H   0  0  0  0  0  0  0  0  0  0  0  0
   42.3260   34.3020   41.6932 H   0  0  0  0  0  0  0  0  0  0  0  0
   43.9083   32.7491   41.4826 H   0  0  0  0  0  0  0  0  0  0  0  0
   44.9614   34.2337   41.5715 H   0  0  0  0  0  0  0  0  0  0  0  0
   47.7702   30.6070   39.1997 H   0  0  0  0  0  0  0  0  0  0  0  0
   46.4293   34.6127   38.4410 H   0  0  0  0  0  0  0  0  0  0  0  0
   49.8531   33.0327   36.4469 H   0  0  0  0  0  0  0  0  0  0  0  0
   45.5879   32.7075   41.9874 H   0  0  0  0  0  0  0  0  0  0  0  0
   46.9380   31.5515   41.4763 H   0  0  0  0  0  0  0  0  0  0  0  0
   46.5570   35.4038   41.3442 H   0  0  0  0  0  0  0  0  0  0  0  0
   48.5536   36.7528   41.7844 H   0  0  0  0  0  0  0  0  0  0  0  0
   51.2113   32.9780   43.4308 H   0  0  0  0  0  0  0  0  0  0  0  0
   51.0963   32.0368   41.9052 H   0  0  0  0  0  0  0  0  0  0  0  0
   51.8746   33.6557   41.9052 H   0  0  0  0  0  0  0  0  0  0  0  0
  1 14  1  0
  2  1  1  0
  2  7  1  0
  3  2  1  0
  4  3  1  0
  4  5  1  0
  5  6  1  0
  6  7  1  0
  8  9  2  0
  9  1  1  0
 10  9  1  0
 11 10  2  0
 12 11  1  0
 12 13  2  0
 13  8  1  0
 14 15  1  0
 15 16  2  0
 15 20  1  0
 16 17  1  0
 17 18  2  0
 18 19  1  0
 19 21  1  0
 20 19  2  0
  1 22  1  1
  3 23  1  0
  3 24  1  0
  4 25  1  0
  4 26  1  0
  5 27  1  0
  6 28  1  0
  6 29  1  0
  7 30  1  0
  7 31  1  0
  8 32  1  0
 10 33  1  0
 12 34  1  0
 14 35  1  0
 14 36  1  0
 16 37  1  0
 17 38  1  0
 21 39  1  0
 21 40  1  0
 21 41  1  0
M  ISO  8  22   8  23  13  24  13  25  13  26  13  27   5  28  13  29  13
M  ISO  8  30  13  31  13  32  14  33  14  34  14  35   8  36   8  37  14
M  ISO  4  38  14  39   8  40   8  41   8
M  END
>  <minimizedAffinity>  (1) 
-3.87462926

>  <minimizedRMSD>  (1) 
0.475058258

$$$$
