
     RDKit          3D

 40 42  0  0  1  0  0  0  0  0999 V2000
   45.9390   32.7760   42.1000 C   0  0  1  0  0  0  0  0  0  0  0  0
   45.3030   34.0170   42.4470 N   0  0  0  0  0  0  0  0  0  0  0  0
   43.9920   34.1390   41.9250 C   0  0  0  0  0  0  0  0  0  0  0  0
   43.6460   35.6340   42.0480 C   0  0  0  0  0  0  0  0  0  0  0  0
   43.4410   35.8000   43.4650 N   0  0  0  0  0  0  0  0  0  0  0  0
   44.5960   35.5300   44.2190 C   0  0  0  0  0  0  0  0  0  0  0  0
   45.3660   34.2780   43.8240 C   0  0  0  0  0  0  0  0  0  0  0  0
   46.7860   31.5200   40.1220 C   0  0  0  0  0  0  0  0  0  0  0  0
   46.5260   32.6970   40.7980 C   0  0  0  0  0  0  0  0  0  0  0  0
   46.8750   33.8830   40.1230 C   0  0  0  0  0  0  0  0  0  0  0  0
   47.4340   33.8120   38.8760 N   0  0  0  0  0  0  0  0  0  0  0  0
   47.6610   32.6240   38.2730 C   0  0  0  0  0  0  0  0  0  0  0  0
   47.3350   31.4700   38.9020 N   0  0  0  0  0  0  0  0  0  0  0  0
   47.0280   32.4690   43.1350 C   0  0  0  0  0  0  0  0  0  0  0  0
   48.3160   33.0300   42.8860 C   0  0  0  0  0  0  0  0  0  0  0  0
   48.8950   34.2530   42.8650 C   0  0  0  0  0  0  0  0  0  0  0  0
   50.2070   34.5750   42.5760 C   0  0  0  0  0  0  0  0  0  0  0  0
   50.9960   33.5440   42.2790 N   0  0  0  0  0  0  0  0  0  0  0  0
   50.5140   32.3230   42.2760 C   0  0  0  0  0  0  0  0  0  0  0  0
   49.2430   32.1020   42.5660 N   0  0  0  0  0  0  0  0  0  0  0  0
   51.4500   31.2220   41.9360 C   0  0  0  0  0  0  0  0  0  0  0  0
   51.7960   30.4340   42.8240 O   0  0  0  0  0  0  0  0  0  0  0  0
   45.1202   32.0415   42.0925 H   0  0  0  0  0  0  0  0  0  0  0  0
   43.2861   33.5304   42.5091 H   0  0  0  0  0  0  0  0  0  0  0  0
   43.9293   33.7867   40.8848 H   0  0  0  0  0  0  0  0  0  0  0  0
   44.4750   36.2630   41.6914 H   0  0  0  0  0  0  0  0  0  0  0  0
   42.7750   35.9300   41.4448 H   0  0  0  0  0  0  0  0  0  0  0  0
   43.1514   36.7722   43.6437 H   0  0  0  0  0  0  0  0  0  0  0  0
   45.2744   36.3899   44.1172 H   0  0  0  0  0  0  0  0  0  0  0  0
   44.2477   35.3550   45.2476 H   0  0  0  0  0  0  0  0  0  0  0  0
   44.9427   33.4189   44.3650 H   0  0  0  0  0  0  0  0  0  0  0  0
   46.4224   34.4411   44.0839 H   0  0  0  0  0  0  0  0  0  0  0  0
   46.5273   30.5708   40.6141 H   0  0  0  0  0  0  0  0  0  0  0  0
   46.6992   34.8606   40.5956 H   0  0  0  0  0  0  0  0  0  0  0  0
   48.1112   32.5945   37.2698 H   0  0  0  0  0  0  0  0  0  0  0  0
   46.6809   32.8467   44.1081 H   0  0  0  0  0  0  0  0  0  0  0  0
   47.1711   31.3791   43.0941 H   0  0  0  0  0  0  0  0  0  0  0  0
   48.2364   35.0994   43.1094 H   0  0  0  0  0  0  0  0  0  0  0  0
   50.5747   35.6116   42.5902 H   0  0  0  0  0  0  0  0  0  0  0  0
   51.8299   31.1089   40.9099 H   0  0  0  0  0  0  0  0  0  0  0  0
  1  2  1  0
  1 14  1  0
  2  7  1  0
  3  4  1  0
  3  2  1  0
  4  5  1  0
  5  6  1  0
  7  6  1  0
  8  9  2  0
  9  1  1  0
 10  9  1  0
 11 10  2  0
 12 11  1  0
 12 13  2  0
 13  8  1  0
 15 14  1  0
 16 15  2  0
 17 16  1  0
 18 17  2  0
 19 18  1  0
 19 20  2  0
 20 15  1  0
 21 19  1  0
 21 22  2  0
  1 23  1  6
  3 24  1  0
  3 25  1  0
  4 26  1  0
  4 27  1  0
  5 28  1  0
  6 29  1  0
  6 30  1  0
  7 31  1  0
  7 32  1  0
  8 33  1  0
 10 34  1  0
 12 35  1  0
 14 36  1  0
 14 37  1  0
 16 38  1  0
 17 39  1  0
 21 40  1  0
M  ISO  8  23   8  24  13  25  13  26  13  27  13  28   5  29  13  30  13
M  ISO  8  31  13  32  13  33  14  34  14  35  14  36   8  37   8  38  14
M  ISO  2  39  14  40   6
M  END
>  <minimizedAffinity>  (1) 
-4.4669404

>  <minimizedRMSD>  (1) 
2.54080296

$$$$
