
     RDKit          3D

 39 41  0  0  1  0  0  0  0  0999 V2000
   46.1920   32.4750   40.0920 C   0  0  1  0  0  0  0  0  0  0  0  0
   45.0850   33.3700   39.8840 N   0  0  0  0  0  0  0  0  0  0  0  0
   44.0920   32.8320   39.0290 C   0  0  0  0  0  0  0  0  0  0  0  0
   43.2380   34.0390   38.6010 C   0  0  0  0  0  0  0  0  0  0  0  0
   42.4940   34.3570   39.7900 N   0  0  0  0  0  0  0  0  0  0  0  0
   43.3030   34.6890   40.8980 C   0  0  0  0  0  0  0  0  0  0  0  0
   44.5480   33.8390   41.0920 C   0  0  0  0  0  0  0  0  0  0  0  0
   48.3200   31.6760   39.0680 C   0  0  0  0  0  0  0  0  0  0  0  0
   47.2840   32.5890   39.1710 C   0  0  0  0  0  0  0  0  0  0  0  0
   47.3400   33.6910   38.2940 C   0  0  0  0  0  0  0  0  0  0  0  0
   48.3790   33.8020   37.4140 N   0  0  0  0  0  0  0  0  0  0  0  0
   49.3620   32.8720   37.3650 C   0  0  0  0  0  0  0  0  0  0  0  0
   49.3310   31.7980   38.2010 N   0  0  0  0  0  0  0  0  0  0  0  0
   46.7360   32.6820   41.5090 C   0  0  0  0  0  0  0  0  0  0  0  0
   47.7110   33.7110   41.6720 C   0  0  0  0  0  0  0  0  0  0  0  0
   47.7930   35.0520   41.5100 C   0  0  0  0  0  0  0  0  0  0  0  0
   48.8840   35.8700   41.7300 C   0  0  0  0  0  0  0  0  0  0  0  0
   49.9890   35.2610   42.1530 N   0  0  0  0  0  0  0  0  0  0  0  0
   49.9890   33.9610   42.3330 C   0  0  0  0  0  0  0  0  0  0  0  0
   48.9040   33.2470   42.1010 N   0  0  0  0  0  0  0  0  0  0  0  0
   51.2040   33.4140   42.7810 O   0  0  0  0  0  0  0  0  0  0  0  0
   45.7748   31.4707   39.9267 H   0  0  0  0  0  0  0  0  0  0  0  0
   44.5540   32.3550   38.1521 H   0  0  0  0  0  0  0  0  0  0  0  0
   43.4916   32.0577   39.5291 H   0  0  0  0  0  0  0  0  0  0  0  0
   43.8739   34.8834   38.2966 H   0  0  0  0  0  0  0  0  0  0  0  0
   42.5943   33.8251   37.7351 H   0  0  0  0  0  0  0  0  0  0  0  0
   41.8806   35.1585   39.5843 H   0  0  0  0  0  0  0  0  0  0  0  0
   43.6242   35.7343   40.7791 H   0  0  0  0  0  0  0  0  0  0  0  0
   42.6791   34.5083   41.7857 H   0  0  0  0  0  0  0  0  0  0  0  0
   44.2875   32.9737   41.7192 H   0  0  0  0  0  0  0  0  0  0  0  0
   45.3101   34.4750   41.5660 H   0  0  0  0  0  0  0  0  0  0  0  0
   48.3110   30.8022   39.7361 H   0  0  0  0  0  0  0  0  0  0  0  0
   46.5514   34.4575   38.3180 H   0  0  0  0  0  0  0  0  0  0  0  0
   50.1881   32.9847   36.6475 H   0  0  0  0  0  0  0  0  0  0  0  0
   45.8842   32.9220   42.1624 H   0  0  0  0  0  0  0  0  0  0  0  0
   47.2554   31.7458   41.7614 H   0  0  0  0  0  0  0  0  0  0  0  0
   46.8780   35.5523   41.1600 H   0  0  0  0  0  0  0  0  0  0  0  0
   48.8421   36.9569   41.5658 H   0  0  0  0  0  0  0  0  0  0  0  0
   51.2798   32.4396   42.9391 H   0  0  0  0  0  0  0  0  0  0  0  0
  1 14  1  0
  2  1  1  0
  2  7  1  0
  3  2  1  0
  4  3  1  0
  4  5  1  0
  5  6  1  0
  6  7  1  0
  8  9  2  0
  9  1  1  0
 10  9  1  0
 11 10  2  0
 12 11  1  0
 12 13  2  0
 13  8  1  0
 14 15  1  0
 15 20  1  0
 16 15  2  0
 16 17  1  0
 17 18  2  0
 18 19  1  0
 19 21  1  0
 20 19  2  0
  1 22  1  1
  3 23  1  0
  3 24  1  0
  4 25  1  0
  4 26  1  0
  5 27  1  0
  6 28  1  0
  6 29  1  0
  7 30  1  0
  7 31  1  0
  8 32  1  0
 10 33  1  0
 12 34  1  0
 14 35  1  0
 14 36  1  0
 16 37  1  0
 17 38  1  0
 21 39  1  0
M  ISO  8  22   8  23  13  24  13  25  13  26  13  27   5  28  13  29  13
M  ISO  8  30  13  31  13  32  14  33  14  34  14  35   8  36   8  37  14
M  ISO  2  38  14  39   3
M  END
>  <minimizedAffinity>  (1) 
-4.33964443

>  <minimizedRMSD>  (1) 
0.213954419

$$$$
