
     RDKit          3D

 25 26  0  0  0  0  0  0  0  0999 V2000
   44.4780   35.8360   42.1460 C   0  0  0  0  0  0  0  0  0  0  0  0
   47.8940   34.3590   42.6780 C   0  0  0  0  0  0  0  0  0  0  0  0
   46.8360   35.0900   42.1170 C   0  0  0  0  0  0  0  0  0  0  0  0
   45.5860   35.0560   42.7550 C   0  0  0  0  0  0  0  0  0  0  0  0
   45.4820   34.3110   43.8800 N   0  0  0  0  0  0  0  0  0  0  0  0
   46.5230   33.6220   44.3890 C   0  0  0  0  0  0  0  0  0  0  0  0
   47.7210   33.6380   43.8030 N   0  0  0  0  0  0  0  0  0  0  0  0
   43.1920   35.0730   42.3350 C   0  0  0  0  0  0  0  0  0  0  0  0
   42.3260   35.2830   41.1240 C   0  0  0  0  0  0  0  0  0  0  0  0
   41.0380   35.7070   41.3830 C   0  0  0  0  0  0  0  0  0  0  0  0
   40.2470   35.8980   40.2450 C   0  0  0  0  0  0  0  0  0  0  0  0
   40.8010   35.6540   38.9920 C   0  0  0  0  0  0  0  0  0  0  0  0
   42.1130   35.2290   38.8320 C   0  0  0  0  0  0  0  0  0  0  0  0
   42.8950   35.0400   39.9350 N   0  0  0  0  0  0  0  0  0  0  0  0
   44.6707   35.9772   41.0723 H   0  0  0  0  0  0  0  0  0  0  0  0
   44.4039   36.8223   42.6275 H   0  0  0  0  0  0  0  0  0  0  0  0
   48.8805   34.3748   42.1916 H   0  0  0  0  0  0  0  0  0  0  0  0
   46.9827   35.6765   41.1980 H   0  0  0  0  0  0  0  0  0  0  0  0
   46.3813   33.0338   45.3077 H   0  0  0  0  0  0  0  0  0  0  0  0
   43.4109   34.0014   42.4525 H   0  0  0  0  0  0  0  0  0  0  0  0
   42.6716   35.4316   43.2353 H   0  0  0  0  0  0  0  0  0  0  0  0
   40.6636   35.8808   42.4026 H   0  0  0  0  0  0  0  0  0  0  0  0
   39.2043   36.2355   40.3391 H   0  0  0  0  0  0  0  0  0  0  0  0
   40.1781   35.8030   38.0977 H   0  0  0  0  0  0  0  0  0  0  0  0
   42.5186   35.0463   37.8260 H   0  0  0  0  0  0  0  0  0  0  0  0
  1  8  1  0
  1  4  1  0
  2  7  2  0
  3  2  1  0
  3  4  2  0
  4  5  1  0
  5  6  2  0
  7  6  1  0
  9 10  2  0
  9  8  1  0
 11 10  1  0
 12 11  2  0
 13 12  1  0
 13 14  2  0
 14  9  1  0
  1 15  1  0
  1 16  1  0
  2 17  1  0
  3 18  1  0
  6 19  1  0
  8 20  1  0
  8 21  1  0
 10 22  1  0
 11 23  1  0
 12 24  1  0
 13 25  1  0
M  ISO  8  15   8  16   8  17  14  18  14  19  14  20   8  21   8  22  14
M  ISO  3  23  14  24  14  25  14
M  END
>  <minimizedAffinity>  (1) 
-4.22661972

>  <minimizedRMSD>  (1) 
5.78980541

$$$$
