
     RDKit          3D

 36 39  0  0  1  0  0  0  0  0999 V2000
   48.8490   34.9110   41.4740 C   0  0  1  0  0  0  0  0  0  0  0  0
   49.9380   34.8250   42.4920 C   0  0  0  0  0  0  0  0  0  0  0  0
   49.2190   33.6070   42.0780 C   0  0  2  0  0  0  0  0  0  0  0  0
   49.4940   32.1280   40.1160 C   0  0  0  0  0  0  0  0  0  0  0  0
   50.0650   32.6730   41.2500 C   0  0  0  0  0  0  0  0  0  0  0  0
   51.3890   32.3020   41.5170 C   0  0  0  0  0  0  0  0  0  0  0  0
   52.0790   31.4500   40.7040 C   0  0  0  0  0  0  0  0  0  0  0  0
   53.3380   30.9840   40.7960 N   0  0  0  0  0  0  0  0  0  0  0  0
   53.5610   30.1770   39.7660 N   0  0  0  0  0  0  0  0  0  0  0  0
   52.4400   30.1300   39.0170 C   0  0  0  0  0  0  0  0  0  0  0  0
   51.4790   30.9330   39.5940 C   0  0  0  0  0  0  0  0  0  0  0  0
   50.1750   31.2640   39.2810 C   0  0  0  0  0  0  0  0  0  0  0  0
   47.5440   35.4950   41.9160 C   0  0  0  0  0  0  0  0  0  0  0  0
   46.6280   34.3130   42.1920 C   0  0  0  0  0  0  0  0  0  0  0  0
   44.4790   35.8990   44.8210 C   0  0  0  0  0  0  0  0  0  0  0  0
   45.1030   35.6740   43.5770 C   0  0  0  0  0  0  0  0  0  0  0  0
   45.8980   34.5640   43.4640 C   0  0  0  0  0  0  0  0  0  0  0  0
   46.0480   33.7380   44.5360 N   0  0  0  0  0  0  0  0  0  0  0  0
   45.4540   33.9650   45.6960 C   0  0  0  0  0  0  0  0  0  0  0  0
   44.6720   35.0370   45.8480 N   0  0  0  0  0  0  0  0  0  0  0  0
   48.7704   35.3137   40.4534 H   0  0  0  0  0  0  0  0  0  0  0  0
   50.9854   34.9745   42.1909 H   0  0  0  0  0  0  0  0  0  0  0  0
   50.1442   35.3174   43.4538 H   0  0  0  0  0  0  0  0  0  0  0  0
   48.6358   32.8150   42.5705 H   0  0  0  0  0  0  0  0  0  0  0  0
   48.4555   32.3928   39.8683 H   0  0  0  0  0  0  0  0  0  0  0  0
   51.8877   32.7095   42.4087 H   0  0  0  0  0  0  0  0  0  0  0  0
   54.0133   31.2142   41.5388 H   0  0  0  0  0  0  0  0  0  0  0  0
   52.3130   29.5450   38.0941 H   0  0  0  0  0  0  0  0  0  0  0  0
   49.6893   30.8483   38.3858 H   0  0  0  0  0  0  0  0  0  0  0  0
   47.6824   36.0927   42.8290 H   0  0  0  0  0  0  0  0  0  0  0  0
   47.1212   36.1622   41.1505 H   0  0  0  0  0  0  0  0  0  0  0  0
   45.9083   34.2017   41.3676 H   0  0  0  0  0  0  0  0  0  0  0  0
   47.2207   33.3901   42.2751 H   0  0  0  0  0  0  0  0  0  0  0  0
   43.8326   36.7784   44.9583 H   0  0  0  0  0  0  0  0  0  0  0  0
   44.9574   36.3620   42.7311 H   0  0  0  0  0  0  0  0  0  0  0  0
   45.6042   33.2706   46.5358 H   0  0  0  0  0  0  0  0  0  0  0  0
  1 13  1  0
  1  3  1  0
  1  2  1  0
  3  2  1  0
  4  5  2  0
  5  6  1  0
  5  3  1  0
  7  8  1  0
  7  6  2  0
  9  8  1  0
 10 11  1  0
 10  9  2  0
 11  7  1  0
 12 11  2  0
 12  4  1  0
 13 14  1  0
 14 17  1  0
 15 20  2  0
 16 15  1  0
 17 16  2  0
 17 18  1  0
 18 19  2  0
 19 20  1  0
  1 21  1  6
  2 22  1  0
  2 23  1  0
  3 24  1  1
  4 25  1  0
  6 26  1  0
  8 27  1  0
 10 28  1  0
 12 29  1  0
 13 30  1  0
 13 31  1  0
 14 32  1  0
 14 33  1  0
 15 34  1  0
 16 35  1  0
 19 36  1  0
M  ISO  8  21  13  22  13  23  13  24  13  25  14  26  14  27   9  28  14
M  ISO  8  29  14  30   8  31   8  32   8  33   8  34  14  35  14  36  14
M  END
>  <minimizedAffinity>  (1) 
-5.42464924

>  <minimizedRMSD>  (1) 
1.40271926

$$$$
