
     RDKit          3D

 29 30  0  0  1  0  0  0  0  0999 V2000
   47.1630   34.8440   41.4930 C   0  0  0  0  0  0  0  0  0  0  0  0
   48.6530   34.7990   41.3830 C   0  0  1  0  0  0  0  0  0  0  0  0
   49.3880   35.9430   41.9600 C   0  0  0  0  0  0  0  0  0  0  0  0
   49.4590   34.5170   42.5130 C   0  0  2  0  0  0  0  0  0  0  0  0
   50.6920   33.8850   42.1880 O   0  0  0  0  0  0  0  0  0  0  0  0
   50.1610   32.0240   40.4620 O   0  0  0  0  0  0  0  0  0  0  0  0
   50.5860   32.2610   41.9020 P   0  0  0  0  0  0  0  0  0  0  0  0
   52.0460   31.4540   42.1320 O   0  0  0  0  0  0  0  0  0  0  0  0
   49.3520   31.6260   42.8900 O   0  0  0  0  0  0  0  0  0  0  0  0
   46.7450   33.7530   42.3610 C   0  0  0  0  0  0  0  0  0  0  0  0
   44.6050   36.0280   44.4470 C   0  0  0  0  0  0  0  0  0  0  0  0
   45.3430   35.4610   43.3690 C   0  0  0  0  0  0  0  0  0  0  0  0
   46.0120   34.2690   43.5370 C   0  0  0  0  0  0  0  0  0  0  0  0
   45.9250   33.6870   44.7700 N   0  0  0  0  0  0  0  0  0  0  0  0
   45.2340   34.2270   45.7630 C   0  0  0  0  0  0  0  0  0  0  0  0
   44.5700   35.3820   45.6410 N   0  0  0  0  0  0  0  0  0  0  0  0
   46.7110   34.7236   40.4974 H   0  0  0  0  0  0  0  0  0  0  0  0
   46.8386   35.8096   41.9082 H   0  0  0  0  0  0  0  0  0  0  0  0
   48.5982   34.3238   40.3925 H   0  0  0  0  0  0  0  0  0  0  0  0
   50.2464   36.3821   41.4305 H   0  0  0  0  0  0  0  0  0  0  0  0
   49.1367   36.9404   42.3499 H   0  0  0  0  0  0  0  0  0  0  0  0
   49.2830   34.0355   43.4862 H   0  0  0  0  0  0  0  0  0  0  0  0
   52.2205   31.3575   43.1017 H   0  0  0  0  0  0  0  0  0  0  0  0
   49.5943   31.7507   43.8418 H   0  0  0  0  0  0  0  0  0  0  0  0
   46.0889   33.0741   41.7965 H   0  0  0  0  0  0  0  0  0  0  0  0
   47.6402   33.2177   42.7105 H   0  0  0  0  0  0  0  0  0  0  0  0
   44.0689   36.9793   44.3139 H   0  0  0  0  0  0  0  0  0  0  0  0
   45.3788   35.9772   42.3983 H   0  0  0  0  0  0  0  0  0  0  0  0
   45.2050   33.7030   46.7297 H   0  0  0  0  0  0  0  0  0  0  0  0
  1 10  1  0
  2  1  1  0
  2  3  1  0
  2  4  1  0
  3  4  1  0
  5  4  1  0
  6  7  2  0
  7  8  1  0
  7  5  1  0
  7  9  1  0
 10 13  1  0
 11 16  2  0
 12 13  2  0
 12 11  1  0
 13 14  1  0
 14 15  2  0
 16 15  1  0
  1 17  1  0
  1 18  1  0
  2 19  1  6
  3 20  1  0
  3 21  1  0
  4 22  1  1
  8 23  1  0
  9 24  1  0
 10 25  1  0
 10 26  1  0
 11 27  1  0
 12 28  1  0
 15 29  1  0
M  ISO  8  17   8  18   8  19  13  20  13  21  13  22  13  23   3  24   3
M  ISO  5  25   8  26   8  27  14  28  14  29  14
M  END
>  <minimizedAffinity>  (1) 
-4.76297808

>  <minimizedRMSD>  (1) 
1.3784591

$$$$
