
     RDKit          3D

 30 32  0  0  1  0  0  0  0  0999 V2000
   46.3480   34.6200   41.1640 C   0  0  0  0  0  0  0  0  0  0  0  0
   47.8160   34.4080   40.9670 C   0  0  1  0  0  0  0  0  0  0  0  0
   48.6880   35.5550   41.3020 C   0  0  0  0  0  0  0  0  0  0  0  0
   48.6870   34.2230   42.0590 C   0  0  2  0  0  0  0  0  0  0  0  0
   49.8660   33.3050   41.7910 C   0  0  0  0  0  0  0  0  0  0  0  0
   49.8650   32.2330   40.8880 C   0  0  0  0  0  0  0  0  0  0  0  0
   51.0810   31.5980   40.8750 C   0  0  0  0  0  0  0  0  0  0  0  0
   51.7860   32.3020   41.7710 N   0  0  0  0  0  0  0  0  0  0  0  0
   51.1250   33.2970   42.3250 N   0  0  0  0  0  0  0  0  0  0  0  0
   45.8730   33.5730   42.0610 C   0  0  0  0  0  0  0  0  0  0  0  0
   44.4540   36.0020   44.5530 C   0  0  0  0  0  0  0  0  0  0  0  0
   44.8810   35.3860   43.3350 C   0  0  0  0  0  0  0  0  0  0  0  0
   45.4700   34.1450   43.3660 C   0  0  0  0  0  0  0  0  0  0  0  0
   45.6160   33.5610   44.5890 N   0  0  0  0  0  0  0  0  0  0  0  0
   45.2140   34.1460   45.7130 C   0  0  0  0  0  0  0  0  0  0  0  0
   44.6370   35.3530   45.7180 N   0  0  0  0  0  0  0  0  0  0  0  0
   45.8255   34.5534   40.1983 H   0  0  0  0  0  0  0  0  0  0  0  0
   46.1529   35.6150   41.5905 H   0  0  0  0  0  0  0  0  0  0  0  0
   47.6377   33.7895   40.0750 H   0  0  0  0  0  0  0  0  0  0  0  0
   49.5301   35.8293   40.6496 H   0  0  0  0  0  0  0  0  0  0  0  0
   48.5543   36.6183   41.5500 H   0  0  0  0  0  0  0  0  0  0  0  0
   48.5709   33.9340   43.1140 H   0  0  0  0  0  0  0  0  0  0  0  0
   49.0029   31.9395   40.2711 H   0  0  0  0  0  0  0  0  0  0  0  0
   51.3976   30.7294   40.2790 H   0  0  0  0  0  0  0  0  0  0  0  0
   52.7644   32.0829   42.0070 H   0  0  0  0  0  0  0  0  0  0  0  0
   45.0074   33.0712   41.6039 H   0  0  0  0  0  0  0  0  0  0  0  0
   46.6878   32.8529   42.2269 H   0  0  0  0  0  0  0  0  0  0  0  0
   43.9813   36.9951   44.5380 H   0  0  0  0  0  0  0  0  0  0  0  0
   44.7382   35.9046   42.3755 H   0  0  0  0  0  0  0  0  0  0  0  0
   45.3603   33.6213   46.6687 H   0  0  0  0  0  0  0  0  0  0  0  0
  1 10  1  0
  2  1  1  0
  2  3  1  0
  2  4  1  0
  3  4  1  0
  5  4  1  0
  5  9  2  0
  6  5  1  0
  7  6  2  0
  7  8  1  0
  8  9  1  0
 10 13  1  0
 11 16  2  0
 12 13  2  0
 12 11  1  0
 13 14  1  0
 14 15  2  0
 15 16  1  0
  1 17  1  0
  1 18  1  0
  2 19  1  6
  3 20  1  0
  3 21  1  0
  4 22  1  1
  6 23  1  0
  7 24  1  0
  8 25  1  0
 10 26  1  0
 10 27  1  0
 11 28  1  0
 12 29  1  0
 15 30  1  0
M  ISO  8  17   8  18   8  19  13  20  13  21  13  22  13  23  14  24  14
M  ISO  6  25   9  26   8  27   8  28  14  29  14  30  14
M  END
>  <minimizedAffinity>  (1) 
-4.88133335

>  <minimizedRMSD>  (1) 
1.27780926

$$$$
