
     RDKit          3D

 31 33  0  0  1  0  0  0  0  0999 V2000
   47.6530   35.4500   41.9350 C   0  0  0  0  0  0  0  0  0  0  0  0
   48.9220   34.7880   41.5060 C   0  0  1  0  0  0  0  0  0  0  0  0
   50.0380   34.7290   42.5010 C   0  0  0  0  0  0  0  0  0  0  0  0
   49.2640   33.5140   42.1610 C   0  0  2  0  0  0  0  0  0  0  0  0
   50.0230   32.6140   41.2150 C   0  0  0  0  0  0  0  0  0  0  0  0
   49.4790   32.0660   40.0650 C   0  0  0  0  0  0  0  0  0  0  0  0
   50.2400   31.2490   39.2490 C   0  0  0  0  0  0  0  0  0  0  0  0
   51.5050   30.9720   39.5500 N   0  0  0  0  0  0  0  0  0  0  0  0
   52.0380   31.5020   40.6660 C   0  0  0  0  0  0  0  0  0  0  0  0
   51.3070   32.2980   41.4670 N   0  0  0  0  0  0  0  0  0  0  0  0
   46.6540   34.3350   42.1510 C   0  0  0  0  0  0  0  0  0  0  0  0
   44.4830   35.9200   44.7670 C   0  0  0  0  0  0  0  0  0  0  0  0
   45.1250   35.6890   43.5210 C   0  0  0  0  0  0  0  0  0  0  0  0
   45.9230   34.5820   43.4230 C   0  0  0  0  0  0  0  0  0  0  0  0
   46.0700   33.7540   44.4970 N   0  0  0  0  0  0  0  0  0  0  0  0
   45.4630   33.9870   45.6480 C   0  0  0  0  0  0  0  0  0  0  0  0
   44.6730   35.0560   45.7980 N   0  0  0  0  0  0  0  0  0  0  0  0
   47.2966   36.1364   41.1529 H   0  0  0  0  0  0  0  0  0  0  0  0
   47.7975   36.0444   42.8492 H   0  0  0  0  0  0  0  0  0  0  0  0
   48.8261   35.1317   40.4655 H   0  0  0  0  0  0  0  0  0  0  0  0
   51.0812   34.8303   42.1670 H   0  0  0  0  0  0  0  0  0  0  0  0
   50.2864   35.2633   43.4299 H   0  0  0  0  0  0  0  0  0  0  0  0
   48.7149   32.7595   42.7434 H   0  0  0  0  0  0  0  0  0  0  0  0
   48.4338   32.2823   39.7988 H   0  0  0  0  0  0  0  0  0  0  0  0
   49.7928   30.8227   38.3389 H   0  0  0  0  0  0  0  0  0  0  0  0
   53.0838   31.2818   40.9264 H   0  0  0  0  0  0  0  0  0  0  0  0
   45.9407   34.3111   41.3139 H   0  0  0  0  0  0  0  0  0  0  0  0
   47.1789   33.3698   42.2044 H   0  0  0  0  0  0  0  0  0  0  0  0
   43.8327   36.7976   44.8969 H   0  0  0  0  0  0  0  0  0  0  0  0
   44.9862   36.3720   42.6700 H   0  0  0  0  0  0  0  0  0  0  0  0
   45.6090   33.2951   46.4906 H   0  0  0  0  0  0  0  0  0  0  0  0
  1 11  1  0
  2  1  1  0
  2  4  1  0
  2  3  1  0
  4  3  1  0
  5 10  1  0
  5  4  1  0
  6  5  2  0
  7  8  2  0
  7  6  1  0
  8  9  1  0
  9 10  2  0
 11 14  1  0
 12 17  2  0
 13 12  1  0
 14 13  2  0
 14 15  1  0
 15 16  2  0
 16 17  1  0
  1 18  1  0
  1 19  1  0
  2 20  1  6
  3 21  1  0
  3 22  1  0
  4 23  1  1
  6 24  1  0
  7 25  1  0
  9 26  1  0
 11 27  1  0
 11 28  1  0
 12 29  1  0
 13 30  1  0
 16 31  1  0
M  ISO  8  18   8  19   8  20  13  21  13  22  13  23  13  24  14  25  14
M  ISO  6  26  14  27   8  28   8  29  14  30  14  31  14
M  END
>  <minimizedAffinity>  (1) 
-4.8873682

>  <minimizedRMSD>  (1) 
1.19221187

$$$$
