
     RDKit          3D

 29 31  0  0  1  0  0  0  0  0999 V2000
   47.2980   35.1150   41.6160 C   0  0  0  0  0  0  0  0  0  0  0  0
   48.7840   35.2240   41.4290 C   0  0  1  0  0  0  0  0  0  0  0  0
   49.6290   35.0650   42.6590 C   0  0  0  0  0  0  0  0  0  0  0  0
   49.6410   34.0890   41.5760 C   0  0  1  0  0  0  0  0  0  0  0  0
   49.6340   32.6700   41.5100 C   0  0  0  0  0  0  0  0  0  0  0  0
   50.0050   31.8280   42.4810 N   0  0  0  0  0  0  0  0  0  0  0  0
   49.8380   30.5580   41.9990 C   0  0  0  0  0  0  0  0  0  0  0  0
   49.3690   30.6630   40.7440 N   0  0  0  0  0  0  0  0  0  0  0  0
   49.2340   31.9360   40.4200 N   0  0  0  0  0  0  0  0  0  0  0  0
   47.1350   33.9980   42.5970 C   0  0  0  0  0  0  0  0  0  0  0  0
   44.5760   35.9080   44.5630 C   0  0  0  0  0  0  0  0  0  0  0  0
   45.4090   35.5260   43.4770 C   0  0  0  0  0  0  0  0  0  0  0  0
   46.1890   34.4180   43.6670 C   0  0  0  0  0  0  0  0  0  0  0  0
   46.1440   33.7350   44.8500 N   0  0  0  0  0  0  0  0  0  0  0  0
   45.3570   34.1160   45.8430 C   0  0  0  0  0  0  0  0  0  0  0  0
   44.5790   35.1930   45.7070 N   0  0  0  0  0  0  0  0  0  0  0  0
   46.8012   34.8747   40.6644 H   0  0  0  0  0  0  0  0  0  0  0  0
   46.8465   36.0546   41.9671 H   0  0  0  0  0  0  0  0  0  0  0  0
   48.6519   35.9672   40.6288 H   0  0  0  0  0  0  0  0  0  0  0  0
   50.4963   35.7206   42.8264 H   0  0  0  0  0  0  0  0  0  0  0  0
   49.4493   35.0400   43.7439 H   0  0  0  0  0  0  0  0  0  0  0  0
   50.3348   33.5630   40.9037 H   0  0  0  0  0  0  0  0  0  0  0  0
   50.0489   29.6234   42.5394 H   0  0  0  0  0  0  0  0  0  0  0  0
   49.1478   29.8687   40.1267 H   0  0  0  0  0  0  0  0  0  0  0  0
   46.7370   33.1114   42.0817 H   0  0  0  0  0  0  0  0  0  0  0  0
   48.1105   33.7531   43.0425 H   0  0  0  0  0  0  0  0  0  0  0  0
   43.9259   36.7905   44.4705 H   0  0  0  0  0  0  0  0  0  0  0  0
   45.4259   36.0912   42.5334 H   0  0  0  0  0  0  0  0  0  0  0  0
   45.3435   33.5444   46.7827 H   0  0  0  0  0  0  0  0  0  0  0  0
  1 10  1  0
  2  4  1  0
  2  1  1  0
  2  3  1  0
  4  3  1  0
  5  4  1  0
  5  6  1  0
  7  6  2  0
  8  7  1  0
  9  8  1  0
  9  5  2  0
 10 13  1  0
 11 16  2  0
 12 13  2  0
 12 11  1  0
 13 14  1  0
 14 15  2  0
 16 15  1  0
  1 17  1  0
  1 18  1  0
  2 19  1  6
  3 20  1  0
  3 21  1  0
  4 22  1  6
  7 23  1  0
  8 24  1  0
 10 25  1  0
 10 26  1  0
 11 27  1  0
 12 28  1  0
 15 29  1  0
M  ISO  8  17   8  18   8  19  13  20  13  21  13  22  13  23  14  24   9
M  ISO  5  25   8  26   8  27  14  28  14  29  14
M  END
>  <minimizedAffinity>  (1) 
-4.42138147

>  <minimizedRMSD>  (1) 
0.688912213

$$$$
