
     RDKit          3D

 25 26  0  0  1  0  0  0  0  0999 V2000
   46.8810   34.5230   41.2400 C   0  0  0  0  0  0  0  0  0  0  0  0
   48.2300   34.9640   40.7490 C   0  0  1  0  0  0  0  0  0  0  0  0
   49.0020   35.9000   41.6320 C   0  0  0  0  0  0  0  0  0  0  0  0
   49.4280   34.5230   41.4180 C   0  0  1  0  0  0  0  0  0  0  0  0
   49.8600   33.4490   42.2290 C   0  0  0  0  0  0  0  0  0  0  0  0
   50.3730   32.4280   42.6290 O   0  0  0  0  0  0  0  0  0  0  0  0
   47.1510   33.8870   42.5640 C   0  0  0  0  0  0  0  0  0  0  0  0
   44.6520   36.0260   44.3480 C   0  0  0  0  0  0  0  0  0  0  0  0
   45.4900   35.5510   43.3180 C   0  0  0  0  0  0  0  0  0  0  0  0
   46.1940   34.4070   43.5770 C   0  0  0  0  0  0  0  0  0  0  0  0
   46.0670   33.7800   44.7810 N   0  0  0  0  0  0  0  0  0  0  0  0
   45.2730   34.2450   45.7310 C   0  0  0  0  0  0  0  0  0  0  0  0
   44.5670   35.3630   45.5220 N   0  0  0  0  0  0  0  0  0  0  0  0
   46.4329   33.7976   40.5450 H   0  0  0  0  0  0  0  0  0  0  0  0
   46.1710   35.3597   41.3164 H   0  0  0  0  0  0  0  0  0  0  0  0
   47.8907   34.9457   39.7028 H   0  0  0  0  0  0  0  0  0  0  0  0
   49.5730   36.7317   41.1937 H   0  0  0  0  0  0  0  0  0  0  0  0
   48.7729   36.5268   42.5065 H   0  0  0  0  0  0  0  0  0  0  0  0
   50.3387   33.9762   41.1324 H   0  0  0  0  0  0  0  0  0  0  0  0
   49.4011   33.7735   43.1746 H   0  0  0  0  0  0  0  0  0  0  0  0
   47.0334   32.7968   42.4763 H   0  0  0  0  0  0  0  0  0  0  0  0
   48.1779   34.1248   42.8786 H   0  0  0  0  0  0  0  0  0  0  0  0
   44.0635   36.9426   44.1944 H   0  0  0  0  0  0  0  0  0  0  0  0
   45.5734   36.0744   42.3541 H   0  0  0  0  0  0  0  0  0  0  0  0
   45.1929   33.7141   46.6911 H   0  0  0  0  0  0  0  0  0  0  0  0
  1  7  1  0
  2  1  1  0
  2  4  1  0
  2  3  1  0
  4  3  1  0
  4  5  1  0
  5  6  2  0
  7 10  1  0
  8 13  2  0
  9 10  2  0
  9  8  1  0
 10 11  1  0
 11 12  2  0
 13 12  1  0
  1 14  1  0
  1 15  1  0
  2 16  1  6
  3 17  1  0
  3 18  1  0
  4 19  1  6
  5 20  1  0
  7 21  1  0
  7 22  1  0
  8 23  1  0
  9 24  1  0
 12 25  1  0
M  ISO  8  14   8  15   8  16  13  17  13  18  13  19  13  20   6  21   8
M  ISO  4  22   8  23  14  24  14  25  14
M  END
>  <minimizedAffinity>  (1) 
-4.24963522

>  <minimizedRMSD>  (1) 
0.800789237

$$$$
