
     RDKit          3D

 24 25  0  0  1  0  0  0  0  0999 V2000
   46.7930   33.9530   42.3270 C   0  0  0  0  0  0  0  0  0  0  0  0
   44.5630   36.0040   44.5380 C   0  0  0  0  0  0  0  0  0  0  0  0
   45.3170   35.5350   43.4350 C   0  0  0  0  0  0  0  0  0  0  0  0
   46.0600   34.3740   43.5320 C   0  0  0  0  0  0  0  0  0  0  0  0
   46.0120   33.7320   44.7430 N   0  0  0  0  0  0  0  0  0  0  0  0
   45.3010   34.1830   45.7660 C   0  0  0  0  0  0  0  0  0  0  0  0
   44.5780   35.3050   45.6860 N   0  0  0  0  0  0  0  0  0  0  0  0
   47.3930   35.0890   41.6470 C   0  0  0  0  0  0  0  0  0  0  0  0
   48.8330   34.7440   41.4060 C   0  0  1  0  0  0  0  0  0  0  0  0
   49.7540   35.1040   42.4990 C   0  0  0  0  0  0  0  0  0  0  0  0
   49.4640   33.6640   42.0610 C   0  0  2  0  0  0  0  0  0  0  0  0
   50.5100   33.0340   41.3170 O   0  0  0  0  0  0  0  0  0  0  0  0
   47.5873   33.2501   42.6186 H   0  0  0  0  0  0  0  0  0  0  0  0
   46.0812   33.4740   41.6386 H   0  0  0  0  0  0  0  0  0  0  0  0
   43.9726   36.9285   44.4564 H   0  0  0  0  0  0  0  0  0  0  0  0
   45.3112   36.1005   42.4915 H   0  0  0  0  0  0  0  0  0  0  0  0
   45.3056   33.6175   46.7095 H   0  0  0  0  0  0  0  0  0  0  0  0
   46.8822   35.2693   40.6896 H   0  0  0  0  0  0  0  0  0  0  0  0
   47.3039   36.0022   42.2538 H   0  0  0  0  0  0  0  0  0  0  0  0
   48.7451   34.9722   40.3335 H   0  0  0  0  0  0  0  0  0  0  0  0
   50.7260   35.5711   42.2823 H   0  0  0  0  0  0  0  0  0  0  0  0
   49.7009   35.6830   43.4328 H   0  0  0  0  0  0  0  0  0  0  0  0
   49.1210   32.7493   42.5666 H   0  0  0  0  0  0  0  0  0  0  0  0
   51.1674   32.6380   41.9424 H   0  0  0  0  0  0  0  0  0  0  0  0
  1  4  1  0
  2  7  2  0
  3  4  2  0
  3  2  1  0
  4  5  1  0
  5  6  2  0
  7  6  1  0
  8  1  1  0
  9  8  1  0
  9 11  1  0
  9 10  1  0
 11 10  1  0
 12 11  1  0
  1 13  1  0
  1 14  1  0
  2 15  1  0
  3 16  1  0
  6 17  1  0
  8 18  1  0
  8 19  1  0
  9 20  1  6
 10 21  1  0
 10 22  1  0
 11 23  1  1
 12 24  1  0
M  ISO  8  13   8  14   8  15  14  16  14  17  14  18   8  19   8  20  13
M  ISO  4  21  13  22  13  23  13  24   3
M  END
>  <minimizedAffinity>  (1) 
-4.37524652

>  <minimizedRMSD>  (1) 
0.178332791

$$$$
