
     RDKit          3D

 38 40  0  0  1  0  0  0  0  0999 V2000
   47.6440   35.4300   41.9470 C   0  0  0  0  0  0  0  0  0  0  0  0
   48.9530   34.8680   41.4800 C   0  0  1  0  0  0  0  0  0  0  0  0
   50.0490   34.7840   42.4960 C   0  0  0  0  0  0  0  0  0  0  0  0
   49.3510   33.5650   42.0760 C   0  0  2  0  0  0  0  0  0  0  0  0
   50.1830   32.6940   41.2430 N   0  0  0  0  0  0  0  0  0  0  0  0
   49.3230   31.9460   40.3820 C   0  0  0  0  0  0  0  0  0  0  0  0
   49.7400   30.5220   40.1400 C   0  0  0  0  0  0  0  0  0  0  0  0
   51.2140   30.4980   39.8490 C   0  0  0  0  0  0  0  0  0  0  0  0
   51.9510   31.2010   40.9500 C   0  0  0  0  0  0  0  0  0  0  0  0
   51.0020   31.7900   41.9800 C   0  0  0  0  0  0  0  0  0  0  0  0
   46.7280   34.2580   42.2290 C   0  0  0  0  0  0  0  0  0  0  0  0
   44.4900   35.9070   44.7530 C   0  0  0  0  0  0  0  0  0  0  0  0
   45.1630   35.6450   43.5310 C   0  0  0  0  0  0  0  0  0  0  0  0
   45.9650   34.5380   43.4770 C   0  0  0  0  0  0  0  0  0  0  0  0
   46.0810   33.7460   44.5770 N   0  0  0  0  0  0  0  0  0  0  0  0
   45.4460   34.0010   45.7090 C   0  0  0  0  0  0  0  0  0  0  0  0
   44.6530   35.0730   45.8070 N   0  0  0  0  0  0  0  0  0  0  0  0
   47.2081   36.0693   41.1652 H   0  0  0  0  0  0  0  0  0  0  0  0
   47.7824   36.0431   42.8497 H   0  0  0  0  0  0  0  0  0  0  0  0
   48.8603   35.2757   40.4626 H   0  0  0  0  0  0  0  0  0  0  0  0
   51.0931   34.9513   42.1929 H   0  0  0  0  0  0  0  0  0  0  0  0
   50.2508   35.2693   43.4623 H   0  0  0  0  0  0  0  0  0  0  0  0
   48.7888   32.7592   42.5706 H   0  0  0  0  0  0  0  0  0  0  0  0
   48.3186   31.9349   40.8304 H   0  0  0  0  0  0  0  0  0  0  0  0
   49.3618   32.4458   39.4029 H   0  0  0  0  0  0  0  0  0  0  0  0
   49.5287   29.9168   41.0339 H   0  0  0  0  0  0  0  0  0  0  0  0
   49.1816   30.1060   39.2884 H   0  0  0  0  0  0  0  0  0  0  0  0
   51.5583   29.4553   39.7844 H   0  0  0  0  0  0  0  0  0  0  0  0
   51.4081   31.0073   38.8935 H   0  0  0  0  0  0  0  0  0  0  0  0
   52.6157   30.4808   41.4495 H   0  0  0  0  0  0  0  0  0  0  0  0
   52.5250   32.0264   40.5036 H   0  0  0  0  0  0  0  0  0  0  0  0
   51.5615   32.3235   42.7625 H   0  0  0  0  0  0  0  0  0  0  0  0
   50.4111   31.0160   42.4917 H   0  0  0  0  0  0  0  0  0  0  0  0
   46.0292   34.1241   41.3901 H   0  0  0  0  0  0  0  0  0  0  0  0
   47.3210   33.3395   42.3503 H   0  0  0  0  0  0  0  0  0  0  0  0
   43.8364   36.7871   44.8436 H   0  0  0  0  0  0  0  0  0  0  0  0
   45.0442   36.3069   42.6605 H   0  0  0  0  0  0  0  0  0  0  0  0
   45.5706   33.3297   46.5715 H   0  0  0  0  0  0  0  0  0  0  0  0
  1 11  1  0
  2  1  1  0
  2  4  1  0
  2  3  1  0
  4  3  1  0
  5 10  1  0
  5  4  1  0
  6  5  1  0
  7  6  1  0
  8  7  1  0
  8  9  1  0
  9 10  1  0
 11 14  1  0
 12 17  2  0
 13 12  1  0
 14 13  2  0
 14 15  1  0
 15 16  2  0
 16 17  1  0
  1 18  1  0
  1 19  1  0
  2 20  1  6
  3 21  1  0
  3 22  1  0
  4 23  1  1
  6 24  1  0
  6 25  1  0
  7 26  1  0
  7 27  1  0
  8 28  1  0
  8 29  1  0
  9 30  1  0
  9 31  1  0
 10 32  1  0
 10 33  1  0
 11 34  1  0
 11 35  1  0
 12 36  1  0
 13 37  1  0
 16 38  1  0
M  ISO  8  18   8  19   8  20  13  21  13  22  13  23  13  24  13  25  13
M  ISO  8  26  13  27  13  28  13  29  13  30  13  31  13  32  13  33  13
M  ISO  5  34   8  35   8  36  14  37  14  38  14
M  END
>  <minimizedAffinity>  (1) 
-4.60181856

>  <minimizedRMSD>  (1) 
1.10587537

$$$$
