
     RDKit          3D

 50 53  0  0  1  0  0  0  0  0999 V2000
   47.7480   35.5370   41.8960 C   0  0  0  0  0  0  0  0  0  0  0  0
   49.0120   34.8370   41.5210 C   0  0  1  0  0  0  0  0  0  0  0  0
   50.1050   34.7730   42.5490 C   0  0  0  0  0  0  0  0  0  0  0  0
   49.3060   33.5740   42.1760 C   0  0  2  0  0  0  0  0  0  0  0  0
   50.0400   32.6350   41.3440 N   0  0  0  0  0  0  0  0  0  0  0  0
   49.3140   32.1550   40.2260 C   0  0  0  0  0  0  0  0  0  0  0  0
   50.2460   31.2020   39.5030 C   0  0  0  0  0  0  0  0  0  0  0  0
   50.5970   30.0840   40.3030 N   0  0  0  0  0  0  0  0  0  0  0  0
   50.5610   30.3440   41.7320 C   0  0  0  0  0  0  0  0  0  0  0  0
   50.9530   31.7990   41.9970 C   0  0  0  0  0  0  0  0  0  0  0  0
   46.6730   34.4890   41.9660 C   0  0  0  0  0  0  0  0  0  0  0  0
   44.5960   35.6280   44.8840 C   0  0  0  0  0  0  0  0  0  0  0  0
   45.1790   35.5870   43.5850 C   0  0  0  0  0  0  0  0  0  0  0  0
   46.0360   34.5620   43.3200 C   0  0  0  0  0  0  0  0  0  0  0  0
   46.2940   33.6410   44.2810 N   0  0  0  0  0  0  0  0  0  0  0  0
   45.7520   33.6870   45.4770 C   0  0  0  0  0  0  0  0  0  0  0  0
   44.9020   34.6680   45.8000 N   0  0  0  0  0  0  0  0  0  0  0  0
   45.0930   32.5180   47.5680 C   0  0  1  0  0  0  0  0  0  0  0  0
   46.1070   32.6300   46.4420 C   0  0  2  0  0  0  0  0  0  0  0  0
   47.2540   32.9430   47.1750 O   0  0  0  0  0  0  0  0  0  0  0  0
   47.3020   31.9580   48.1510 C   0  0  0  0  0  0  0  0  0  0  0  0
   45.8760   31.6990   48.5760 C   0  0  1  0  0  0  0  0  0  0  0  0
   44.8470   33.7560   48.1250 O   0  0  0  0  0  0  0  0  0  0  0  0
   45.6260   32.1260   49.8720 O   0  0  0  0  0  0  0  0  0  0  0  0
   47.4930   36.2903   41.1361 H   0  0  0  0  0  0  0  0  0  0  0  0
   47.8560   36.0553   42.8602 H   0  0  0  0  0  0  0  0  0  0  0  0
   48.9491   35.1713   40.4749 H   0  0  0  0  0  0  0  0  0  0  0  0
   51.1589   34.8545   42.2445 H   0  0  0  0  0  0  0  0  0  0  0  0
   50.3412   35.3039   43.4830 H   0  0  0  0  0  0  0  0  0  0  0  0
   48.7050   32.8373   42.7292 H   0  0  0  0  0  0  0  0  0  0  0  0
   48.4076   31.6266   40.5566 H   0  0  0  0  0  0  0  0  0  0  0  0
   48.9903   32.9776   39.5713 H   0  0  0  0  0  0  0  0  0  0  0  0
   49.7468   30.8422   38.5912 H   0  0  0  0  0  0  0  0  0  0  0  0
   51.1698   31.7496   39.2648 H   0  0  0  0  0  0  0  0  0  0  0  0
   49.9391   29.3189   40.0965 H   0  0  0  0  0  0  0  0  0  0  0  0
   49.5446   30.1633   42.1118 H   0  0  0  0  0  0  0  0  0  0  0  0
   51.2686   29.6752   42.2438 H   0  0  0  0  0  0  0  0  0  0  0  0
   51.9665   31.9854   41.6122 H   0  0  0  0  0  0  0  0  0  0  0  0
   50.9390   32.0003   43.0783 H   0  0  0  0  0  0  0  0  0  0  0  0
   45.9180   34.6775   41.1886 H   0  0  0  0  0  0  0  0  0  0  0  0
   47.1044   33.4905   41.8022 H   0  0  0  0  0  0  0  0  0  0  0  0
   43.8978   36.4361   45.1475 H   0  0  0  0  0  0  0  0  0  0  0  0
   44.9470   36.3507   42.8280 H   0  0  0  0  0  0  0  0  0  0  0  0
   44.1244   32.1028   47.2527 H   0  0  0  0  0  0  0  0  0  0  0  0
   46.1968   31.7340   45.8102 H   0  0  0  0  0  0  0  0  0  0  0  0
   47.7483   31.0398   47.7415 H   0  0  0  0  0  0  0  0  0  0  0  0
   47.9179   32.2765   49.0049 H   0  0  0  0  0  0  0  0  0  0  0  0
   45.6163   30.6302   48.5884 H   0  0  0  0  0  0  0  0  0  0  0  0
   44.8616   33.6825   49.1122 H   0  0  0  0  0  0  0  0  0  0  0  0
   46.0071   31.4751   50.5132 H   0  0  0  0  0  0  0  0  0  0  0  0
  1 11  1  0
  2  1  1  0
  2  4  1  0
  2  3  1  0
  4  3  1  0
  5 10  1  0
  5  4  1  0
  6  5  1  0
  7  6  1  0
  7  8  1  0
  8  9  1  0
  9 10  1  0
 11 14  1  0
 12 17  2  0
 13 12  1  0
 14 13  2  0
 14 15  1  0
 15 16  2  0
 16 17  1  0
 18 23  1  0
 18 22  1  0
 19 16  1  0
 19 20  1  0
 19 18  1  0
 20 21  1  0
 21 22  1  0
 22 24  1  0
  1 25  1  0
  1 26  1  0
  2 27  1  6
  3 28  1  0
  3 29  1  0
  4 30  1  1
  6 31  1  0
  6 32  1  0
  7 33  1  0
  7 34  1  0
  8 35  1  0
  9 36  1  0
  9 37  1  0
 10 38  1  0
 10 39  1  0
 11 40  1  0
 11 41  1  0
 12 42  1  0
 13 43  1  0
 18 44  1  6
 19 45  1  6
 21 46  1  0
 21 47  1  0
 22 48  1  1
 23 49  1  0
 24 50  1  0
M  ISO  8  25   8  26   8  27  13  28  13  29  13  30  13  31  13  32  13
M  ISO  8  33  13  34  13  35   5  36  13  37  13  38  13  39  13  40   8
M  ISO  8  41   8  42  14  43  14  44  13  45  13  46  13  47  13  48  13
M  ISO  2  49   3  50   3
M  END
>  <minimizedAffinity>  (1) 
-6.70887947

>  <minimizedRMSD>  (1) 
0.598577142

$$$$
