
     RDKit          3D

 48 52  0  0  1  0  0  0  0  0999 V2000
   47.6050   35.5220   41.7910 C   0  0  0  0  0  0  0  0  0  0  0  0
   48.8950   34.8350   41.4710 C   0  0  1  0  0  0  0  0  0  0  0  0
   49.9910   34.9320   42.4890 C   0  0  0  0  0  0  0  0  0  0  0  0
   49.2420   33.6600   42.2640 C   0  0  2  0  0  0  0  0  0  0  0  0
   50.0190   32.6750   41.5300 N   0  0  0  0  0  0  0  0  0  0  0  0
   49.3840   32.1870   40.3610 C   0  0  0  0  0  0  0  0  0  0  0  0
   50.3450   31.1740   39.7640 C   0  0  0  0  0  0  0  0  0  0  0  0
   50.5440   30.0680   40.6300 N   0  0  0  0  0  0  0  0  0  0  0  0
   50.4150   30.3820   42.0340 C   0  0  0  0  0  0  0  0  0  0  0  0
   50.8430   31.8320   42.2860 C   0  0  0  0  0  0  0  0  0  0  0  0
   46.5730   34.4360   41.9680 C   0  0  0  0  0  0  0  0  0  0  0  0
   44.5610   35.8880   44.7780 C   0  0  0  0  0  0  0  0  0  0  0  0
   45.1600   35.7300   43.4980 C   0  0  0  0  0  0  0  0  0  0  0  0
   45.9290   34.6250   43.3090 C   0  0  0  0  0  0  0  0  0  0  0  0
   46.0950   33.7350   44.3170 N   0  0  0  0  0  0  0  0  0  0  0  0
   45.5400   33.8840   45.5000 C   0  0  0  0  0  0  0  0  0  0  0  0
   44.7680   34.9580   45.7480 N   0  0  0  0  0  0  0  0  0  0  0  0
   45.7340   32.9310   46.5410 N   0  0  0  0  0  0  0  0  0  0  0  0
   45.0700   33.0350   47.7280 C   0  0  0  0  0  0  0  0  0  0  0  0
   45.3800   32.0460   48.5850 N   0  0  0  0  0  0  0  0  0  0  0  0
   46.2800   31.2820   47.9130 C   0  0  0  0  0  0  0  0  0  0  0  0
   46.9750   30.1340   48.2320 C   0  0  0  0  0  0  0  0  0  0  0  0
   47.8180   29.6200   47.2960 N   0  0  0  0  0  0  0  0  0  0  0  0
   47.9940   30.1870   46.0880 C   0  0  0  0  0  0  0  0  0  0  0  0
   47.3160   31.3160   45.7630 N   0  0  0  0  0  0  0  0  0  0  0  0
   46.4920   31.8220   46.6720 C   0  0  0  0  0  0  0  0  0  0  0  0
   47.3157   36.1902   40.9665 H   0  0  0  0  0  0  0  0  0  0  0  0
   47.6961   36.1357   42.6994 H   0  0  0  0  0  0  0  0  0  0  0  0
   48.8150   35.0458   40.3944 H   0  0  0  0  0  0  0  0  0  0  0  0
   51.0393   35.0223   42.1682 H   0  0  0  0  0  0  0  0  0  0  0  0
   50.2069   35.5759   43.3543 H   0  0  0  0  0  0  0  0  0  0  0  0
   48.6754   32.9650   42.9011 H   0  0  0  0  0  0  0  0  0  0  0  0
   48.4286   31.7053   40.6161 H   0  0  0  0  0  0  0  0  0  0  0  0
   49.1575   32.9980   39.6532 H   0  0  0  0  0  0  0  0  0  0  0  0
   49.9338   30.8111   38.8105 H   0  0  0  0  0  0  0  0  0  0  0  0
   51.3151   31.6694   39.6109 H   0  0  0  0  0  0  0  0  0  0  0  0
   49.8483   29.3455   40.3957 H   0  0  0  0  0  0  0  0  0  0  0  0
   49.3670   30.2524   42.3419 H   0  0  0  0  0  0  0  0  0  0  0  0
   51.0600   29.7077   42.6165 H   0  0  0  0  0  0  0  0  0  0  0  0
   51.8915   31.9678   41.9823 H   0  0  0  0  0  0  0  0  0  0  0  0
   50.7497   32.0727   43.3553 H   0  0  0  0  0  0  0  0  0  0  0  0
   45.8138   34.5093   41.1753 H   0  0  0  0  0  0  0  0  0  0  0  0
   47.0460   33.4448   41.9068 H   0  0  0  0  0  0  0  0  0  0  0  0
   43.9289   36.7644   44.9838 H   0  0  0  0  0  0  0  0  0  0  0  0
   45.0080   36.4685   42.6970 H   0  0  0  0  0  0  0  0  0  0  0  0
   44.3578   33.8408   47.9593 H   0  0  0  0  0  0  0  0  0  0  0  0
   46.8516   29.6496   49.2119 H   0  0  0  0  0  0  0  0  0  0  0  0
   48.6879   29.7347   45.3641 H   0  0  0  0  0  0  0  0  0  0  0  0
  1 11  1  0
  2  1  1  0
  2  4  1  0
  2  3  1  0
  4  3  1  0
  5  4  1  0
  5 10  1  0
  6  5  1  0
  7  6  1  0
  7  8  1  0
  8  9  1  0
  9 10  1  0
 11 14  1  0
 12 17  2  0
 13 12  1  0
 14 13  2  0
 14 15  1  0
 15 16  2  0
 16 17  1  0
 16 18  1  0
 18 26  1  0
 18 19  1  0
 19 20  2  0
 21 22  2  0
 21 20  1  0
 23 22  1  0
 24 23  2  0
 25 24  1  0
 25 26  2  0
 26 21  1  0
  1 27  1  0
  1 28  1  0
  2 29  1  6
  3 30  1  0
  3 31  1  0
  4 32  1  1
  6 33  1  0
  6 34  1  0
  7 35  1  0
  7 36  1  0
  8 37  1  0
  9 38  1  0
  9 39  1  0
 10 40  1  0
 10 41  1  0
 11 42  1  0
 11 43  1  0
 12 44  1  0
 13 45  1  0
 19 46  1  0
 22 47  1  0
 24 48  1  0
M  ISO  8  27   8  28   8  29  13  30  13  31  13  32  13  33  13  34  13
M  ISO  8  35  13  36  13  37   5  38  13  39  13  40  13  41  13  42   8
M  ISO  6  43   8  44  14  45  14  46  14  47  14  48  14
M  END
>  <minimizedAffinity>  (1) 
-6.29214144

>  <minimizedRMSD>  (1) 
0.356290191

$$$$
