
     RDKit          3D

 44 47  0  0  1  0  0  0  0  0999 V2000
   48.9430   34.7530   41.5130 C   0  0  1  0  0  0  0  0  0  0  0  0
   50.0310   34.8540   42.5150 C   0  0  0  0  0  0  0  0  0  0  0  0
   49.3420   33.5670   42.2650 C   0  0  2  0  0  0  0  0  0  0  0  0
   50.1470   32.6370   41.5010 N   0  0  0  0  0  0  0  0  0  0  0  0
   49.5560   32.1980   40.2930 C   0  0  0  0  0  0  0  0  0  0  0  0
   50.5640   31.2490   39.6620 C   0  0  0  0  0  0  0  0  0  0  0  0
   50.7680   30.0940   40.4790 N   0  0  0  0  0  0  0  0  0  0  0  0
   50.5630   30.3250   41.8870 C   0  0  0  0  0  0  0  0  0  0  0  0
   50.9420   31.7530   42.2410 C   0  0  0  0  0  0  0  0  0  0  0  0
   47.6200   35.3750   41.8610 C   0  0  0  0  0  0  0  0  0  0  0  0
   46.6670   34.2480   42.1110 C   0  0  0  0  0  0  0  0  0  0  0  0
   44.4730   35.7880   44.7360 C   0  0  0  0  0  0  0  0  0  0  0  0
   45.1160   35.5500   43.5000 C   0  0  0  0  0  0  0  0  0  0  0  0
   45.9850   34.4980   43.4260 C   0  0  0  0  0  0  0  0  0  0  0  0
   46.2000   33.7290   44.5220 N   0  0  0  0  0  0  0  0  0  0  0  0
   45.5960   33.9590   45.6710 C   0  0  0  0  0  0  0  0  0  0  0  0
   44.7380   34.9750   45.7890 N   0  0  0  0  0  0  0  0  0  0  0  0
   45.8400   33.1180   46.8420 C   0  0  0  0  0  0  0  0  0  0  0  0
   45.1350   32.5780   47.8980 C   0  0  0  0  0  0  0  0  0  0  0  0
   46.0460   31.8610   48.6490 C   0  0  0  0  0  0  0  0  0  0  0  0
   47.2690   31.9920   48.0220 C   0  0  0  0  0  0  0  0  0  0  0  0
   47.1000   32.7430   46.9580 O   0  0  0  0  0  0  0  0  0  0  0  0
   48.8478   35.0009   40.4455 H   0  0  0  0  0  0  0  0  0  0  0  0
   51.0717   34.9963   42.1884 H   0  0  0  0  0  0  0  0  0  0  0  0
   50.2268   35.4792   43.3986 H   0  0  0  0  0  0  0  0  0  0  0  0
   48.8113   32.8296   42.8852 H   0  0  0  0  0  0  0  0  0  0  0  0
   48.6110   31.6733   40.4970 H   0  0  0  0  0  0  0  0  0  0  0  0
   49.3201   33.0410   39.6268 H   0  0  0  0  0  0  0  0  0  0  0  0
   50.1899   30.9308   38.6777 H   0  0  0  0  0  0  0  0  0  0  0  0
   51.5234   31.7774   39.5599 H   0  0  0  0  0  0  0  0  0  0  0  0
   50.1122   29.3612   40.1726 H   0  0  0  0  0  0  0  0  0  0  0  0
   49.5040   30.1578   42.1330 H   0  0  0  0  0  0  0  0  0  0  0  0
   51.1941   29.6313   42.4619 H   0  0  0  0  0  0  0  0  0  0  0  0
   52.0020   31.9226   42.0011 H   0  0  0  0  0  0  0  0  0  0  0  0
   50.7812   31.9225   43.3159 H   0  0  0  0  0  0  0  0  0  0  0  0
   47.7186   35.9954   42.7640 H   0  0  0  0  0  0  0  0  0  0  0  0
   47.2615   36.0231   41.0477 H   0  0  0  0  0  0  0  0  0  0  0  0
   45.9195   34.2058   41.3051 H   0  0  0  0  0  0  0  0  0  0  0  0
   47.2073   33.2902   42.1374 H   0  0  0  0  0  0  0  0  0  0  0  0
   43.7654   36.6234   44.8428 H   0  0  0  0  0  0  0  0  0  0  0  0
   44.9233   36.1904   42.6266 H   0  0  0  0  0  0  0  0  0  0  0  0
   44.0604   32.6952   48.1015 H   0  0  0  0  0  0  0  0  0  0  0  0
   45.8374   31.2950   49.5689 H   0  0  0  0  0  0  0  0  0  0  0  0
   48.2178   31.5459   48.3550 H   0  0  0  0  0  0  0  0  0  0  0  0
  1 10  1  0
  1  3  1  0
  1  2  1  0
  3  2  1  0
  4  9  1  0
  4  3  1  0
  5  4  1  0
  6  5  1  0
  6  7  1  0
  7  8  1  0
  8  9  1  0
 10 11  1  0
 11 14  1  0
 12 17  2  0
 13 12  1  0
 14 13  2  0
 14 15  1  0
 15 16  2  0
 16 17  1  0
 16 18  1  0
 18 22  1  0
 18 19  2  0
 19 20  1  0
 21 20  2  0
 22 21  1  0
  1 23  1  6
  2 24  1  0
  2 25  1  0
  3 26  1  1
  5 27  1  0
  5 28  1  0
  6 29  1  0
  6 30  1  0
  7 31  1  0
  8 32  1  0
  8 33  1  0
  9 34  1  0
  9 35  1  0
 10 36  1  0
 10 37  1  0
 11 38  1  0
 11 39  1  0
 12 40  1  0
 13 41  1  0
 19 42  1  0
 20 43  1  0
 21 44  1  0
M  ISO  8  23  13  24  13  25  13  26  13  27  13  28  13  29  13  30  13
M  ISO  8  31   5  32  13  33  13  34  13  35  13  36   8  37   8  38   8
M  ISO  6  39   8  40  14  41  14  42  14  43  14  44  14
M  END
>  <minimizedAffinity>  (1) 
-5.8108387

>  <minimizedRMSD>  (1) 
0.250621676

$$$$
