
     RDKit          3D

 51 54  0  0  1  0  0  0  0  0999 V2000
   46.6120   35.3020   42.2290 C   0  0  0  0  0  0  0  0  0  0  0  0
   47.8490   34.9140   41.4760 C   0  0  1  0  0  0  0  0  0  0  0  0
   49.0190   35.8320   41.5780 C   0  0  0  0  0  0  0  0  0  0  0  0
   49.0100   34.5140   42.2620 C   0  0  2  0  0  0  0  0  0  0  0  0
   49.8520   33.5340   41.6000 N   0  0  0  0  0  0  0  0  0  0  0  0
   49.1500   32.6290   40.7660 C   0  0  0  0  0  0  0  0  0  0  0  0
   50.2020   31.6910   40.1950 C   0  0  0  0  0  0  0  0  0  0  0  0
   50.8580   30.9390   41.2090 N   0  0  0  0  0  0  0  0  0  0  0  0
   50.8850   31.5790   42.4980 C   0  0  0  0  0  0  0  0  0  0  0  0
   50.9690   33.0900   42.3190 C   0  0  0  0  0  0  0  0  0  0  0  0
   45.8840   34.0240   42.5390 C   0  0  0  0  0  0  0  0  0  0  0  0
   44.6490   35.0670   45.9120 C   0  0  0  0  0  0  0  0  0  0  0  0
   44.9320   35.0890   44.5260 C   0  0  0  0  0  0  0  0  0  0  0  0
   45.5810   34.0070   44.0080 C   0  0  0  0  0  0  0  0  0  0  0  0
   45.9200   32.9800   44.8240 N   0  0  0  0  0  0  0  0  0  0  0  0
   45.6500   32.9750   46.1110 C   0  0  0  0  0  0  0  0  0  0  0  0
   45.0190   34.0050   46.6640 N   0  0  0  0  0  0  0  0  0  0  0  0
   46.0190   31.8810   46.9430 N   0  0  0  0  0  0  0  0  0  0  0  0
   47.4010   31.4740   47.1030 C   0  0  0  0  0  0  0  0  0  0  0  0
   47.8030   31.8940   48.5140 C   0  0  0  0  0  0  0  0  0  0  0  0
   46.7180   31.6470   49.4270 N   0  0  0  0  0  0  0  0  0  0  0  0
   45.7840   30.6490   48.9780 C   0  0  0  0  0  0  0  0  0  0  0  0
   45.0890   31.0770   47.7000 C   0  0  0  0  0  0  0  0  0  0  0  0
   45.9814   35.9587   41.6117 H   0  0  0  0  0  0  0  0  0  0  0  0
   46.8615   35.8514   43.1487 H   0  0  0  0  0  0  0  0  0  0  0  0
   47.2836   34.4651   40.6461 H   0  0  0  0  0  0  0  0  0  0  0  0
   49.6692   35.9991   40.7066 H   0  0  0  0  0  0  0  0  0  0  0  0
   49.1734   36.8763   41.8871 H   0  0  0  0  0  0  0  0  0  0  0  0
   49.1593   34.1683   43.2955 H   0  0  0  0  0  0  0  0  0  0  0  0
   48.4100   32.0637   41.3515 H   0  0  0  0  0  0  0  0  0  0  0  0
   48.6009   33.1540   39.9705 H   0  0  0  0  0  0  0  0  0  0  0  0
   49.7144   30.9947   39.4969 H   0  0  0  0  0  0  0  0  0  0  0  0
   50.9599   32.3037   39.6849 H   0  0  0  0  0  0  0  0  0  0  0  0
   50.3712   30.0366   41.3071 H   0  0  0  0  0  0  0  0  0  0  0  0
   49.9682   31.3266   43.0509 H   0  0  0  0  0  0  0  0  0  0  0  0
   51.7633   31.2292   43.0603 H   0  0  0  0  0  0  0  0  0  0  0  0
   51.8860   33.3442   41.7671 H   0  0  0  0  0  0  0  0  0  0  0  0
   50.9899   33.5772   43.3050 H   0  0  0  0  0  0  0  0  0  0  0  0
   44.9472   33.9793   41.9642 H   0  0  0  0  0  0  0  0  0  0  0  0
   46.5028   33.1563   42.2667 H   0  0  0  0  0  0  0  0  0  0  0  0
   44.1270   35.9151   46.3792 H   0  0  0  0  0  0  0  0  0  0  0  0
   44.6414   35.9412   43.8940 H   0  0  0  0  0  0  0  0  0  0  0  0
   47.4942   30.3840   46.9876 H   0  0  0  0  0  0  0  0  0  0  0  0
   48.0481   31.9389   46.3447 H   0  0  0  0  0  0  0  0  0  0  0  0
   48.6839   31.3157   48.8295 H   0  0  0  0  0  0  0  0  0  0  0  0
   48.0419   32.9677   48.5178 H   0  0  0  0  0  0  0  0  0  0  0  0
   47.1159   31.3362   50.3248 H   0  0  0  0  0  0  0  0  0  0  0  0
   46.3253   29.7093   48.7936 H   0  0  0  0  0  0  0  0  0  0  0  0
   45.0208   30.5130   49.7584 H   0  0  0  0  0  0  0  0  0  0  0  0
   44.1927   31.6675   47.9406 H   0  0  0  0  0  0  0  0  0  0  0  0
   44.7772   30.1974   47.1177 H   0  0  0  0  0  0  0  0  0  0  0  0
  1 11  1  0
  2  3  1  0
  2  1  1  0
  2  4  1  0
  3  4  1  0
  5  4  1  0
  5 10  1  0
  6  5  1  0
  7  6  1  0
  7  8  1  0
  8  9  1  0
 10  9  1  0
 11 14  1  0
 12 17  2  0
 13 12  1  0
 14 13  2  0
 14 15  1  0
 15 16  2  0
 16 17  1  0
 16 18  1  0
 18 19  1  0
 18 23  1  0
 19 20  1  0
 20 21  1  0
 22 21  1  0
 23 22  1  0
  1 24  1  0
  1 25  1  0
  2 26  1  6
  3 27  1  0
  3 28  1  0
  4 29  1  1
  6 30  1  0
  6 31  1  0
  7 32  1  0
  7 33  1  0
  8 34  1  0
  9 35  1  0
  9 36  1  0
 10 37  1  0
 10 38  1  0
 11 39  1  0
 11 40  1  0
 12 41  1  0
 13 42  1  0
 19 43  1  0
 19 44  1  0
 20 45  1  0
 20 46  1  0
 21 47  1  0
 22 48  1  0
 22 49  1  0
 23 50  1  0
 23 51  1  0
M  ISO  8  24   8  25   8  26  13  27  13  28  13  29  13  30  13  31  13
M  ISO  8  32  13  33  13  34   5  35  13  36  13  37  13  38  13  39   8
M  ISO  8  40   8  41  14  42  14  43  13  44  13  45  13  46  13  47   5
M  ISO  4  48  13  49  13  50  13  51  13
M  END
>  <minimizedAffinity>  (1) 
-6.02103519

>  <minimizedRMSD>  (1) 
1.35824323

$$$$
