
     RDKit          3D

 43 45  0  0  1  0  0  0  0  0999 V2000
   48.6400   34.8460   41.5160 C   0  0  1  0  0  0  0  0  0  0  0  0
   49.8230   35.1230   42.3950 C   0  0  0  0  0  0  0  0  0  0  0  0
   49.2490   33.7510   42.2660 C   0  0  2  0  0  0  0  0  0  0  0  0
   50.0680   32.8720   41.4390 N   0  0  0  0  0  0  0  0  0  0  0  0
   49.3770   32.2980   40.3420 C   0  0  0  0  0  0  0  0  0  0  0  0
   50.3950   31.4150   39.6400 C   0  0  0  0  0  0  0  0  0  0  0  0
   50.8500   30.3550   40.4690 N   0  0  0  0  0  0  0  0  0  0  0  0
   50.8000   30.6540   41.8890 C   0  0  0  0  0  0  0  0  0  0  0  0
   51.0640   32.1470   42.1050 C   0  0  0  0  0  0  0  0  0  0  0  0
   47.3130   35.3460   41.9780 C   0  0  0  0  0  0  0  0  0  0  0  0
   46.4690   34.1210   42.2660 C   0  0  0  0  0  0  0  0  0  0  0  0
   44.5900   35.1730   45.3420 C   0  0  0  0  0  0  0  0  0  0  0  0
   45.0110   35.1050   43.9820 C   0  0  0  0  0  0  0  0  0  0  0  0
   45.9940   34.2130   43.6840 C   0  0  0  0  0  0  0  0  0  0  0  0
   46.5210   33.4430   44.6690 N   0  0  0  0  0  0  0  0  0  0  0  0
   46.1260   33.5150   45.9180 C   0  0  0  0  0  0  0  0  0  0  0  0
   45.1680   34.3660   46.2770 N   0  0  0  0  0  0  0  0  0  0  0  0
   46.7020   32.6970   46.9000 O   0  0  0  0  0  0  0  0  0  0  0  0
   45.4810   30.3600   47.2890 O   0  0  0  0  0  0  0  0  0  0  0  0
   45.7490   31.7070   47.9190 P   0  0  0  0  0  0  0  0  0  0  0  0
   46.4760   31.4280   49.4120 O   0  0  0  0  0  0  0  0  0  0  0  0
   44.2840   32.5020   48.1900 O   0  0  0  0  0  0  0  0  0  0  0  0
   48.4022   35.0189   40.4560 H   0  0  0  0  0  0  0  0  0  0  0  0
   50.8010   35.3588   41.9502 H   0  0  0  0  0  0  0  0  0  0  0  0
   50.0424   35.8094   43.2261 H   0  0  0  0  0  0  0  0  0  0  0  0
   48.8738   32.9947   42.9712 H   0  0  0  0  0  0  0  0  0  0  0  0
   48.5256   31.6976   40.6952 H   0  0  0  0  0  0  0  0  0  0  0  0
   48.9691   33.0663   39.6687 H   0  0  0  0  0  0  0  0  0  0  0  0
   49.9306   30.9860   38.7398 H   0  0  0  0  0  0  0  0  0  0  0  0
   51.2636   32.0396   39.3843 H   0  0  0  0  0  0  0  0  0  0  0  0
   50.2614   29.5287   40.2909 H   0  0  0  0  0  0  0  0  0  0  0  0
   49.8059   30.3964   42.2833 H   0  0  0  0  0  0  0  0  0  0  0  0
   51.5663   30.0659   42.4151 H   0  0  0  0  0  0  0  0  0  0  0  0
   52.0513   32.4124   41.6990 H   0  0  0  0  0  0  0  0  0  0  0  0
   51.0488   32.3823   43.1794 H   0  0  0  0  0  0  0  0  0  0  0  0
   47.4307   35.9495   42.8901 H   0  0  0  0  0  0  0  0  0  0  0  0
   46.8411   35.9845   41.2167 H   0  0  0  0  0  0  0  0  0  0  0  0
   45.6065   34.0924   41.5839 H   0  0  0  0  0  0  0  0  0  0  0  0
   47.0597   33.2049   42.1181 H   0  0  0  0  0  0  0  0  0  0  0  0
   43.7982   35.8770   45.6376 H   0  0  0  0  0  0  0  0  0  0  0  0
   44.5614   35.7448   43.2084 H   0  0  0  0  0  0  0  0  0  0  0  0
   45.8458   31.6698   50.1362 H   0  0  0  0  0  0  0  0  0  0  0  0
   44.1294   32.5859   49.1642 H   0  0  0  0  0  0  0  0  0  0  0  0
  1 10  1  0
  1  3  1  0
  1  2  1  0
  3  2  1  0
  4  9  1  0
  4  3  1  0
  5  4  1  0
  6  5  1  0
  6  7  1  0
  7  8  1  0
  8  9  1  0
 10 11  1  0
 11 14  1  0
 12 17  2  0
 13 12  1  0
 14 13  2  0
 14 15  1  0
 15 16  2  0
 16 17  1  0
 16 18  1  0
 18 20  1  0
 19 20  2  0
 20 22  1  0
 20 21  1  0
  1 23  1  6
  2 24  1  0
  2 25  1  0
  3 26  1  1
  5 27  1  0
  5 28  1  0
  6 29  1  0
  6 30  1  0
  7 31  1  0
  8 32  1  0
  8 33  1  0
  9 34  1  0
  9 35  1  0
 10 36  1  0
 10 37  1  0
 11 38  1  0
 11 39  1  0
 12 40  1  0
 13 41  1  0
 21 42  1  0
 22 43  1  0
M  ISO  8  23  13  24  13  25  13  26  13  27  13  28  13  29  13  30  13
M  ISO  8  31   5  32  13  33  13  34  13  35  13  36   8  37   8  38   8
M  ISO  5  39   8  40  14  41  14  42   3  43   3
M  END
>  <minimizedAffinity>  (1) 
-5.60563374

>  <minimizedRMSD>  (1) 
1.01552105

$$$$
