
     RDKit          3D

 45 48  0  0  1  0  0  0  0  0999 V2000
   47.8760   34.7710   41.1440 C   0  0  1  0  0  0  0  0  0  0  0  0
   48.9980   35.7060   41.4560 C   0  0  0  0  0  0  0  0  0  0  0  0
   48.9160   34.3620   42.0840 C   0  0  2  0  0  0  0  0  0  0  0  0
   49.8700   33.4190   41.5140 N   0  0  0  0  0  0  0  0  0  0  0  0
   49.3020   32.4520   40.6460 C   0  0  0  0  0  0  0  0  0  0  0  0
   50.4640   31.5930   40.1810 C   0  0  0  0  0  0  0  0  0  0  0  0
   51.0720   30.8870   41.2590 N   0  0  0  0  0  0  0  0  0  0  0  0
   50.9450   31.5580   42.5410 C   0  0  0  0  0  0  0  0  0  0  0  0
   50.9510   33.0620   42.3290 C   0  0  0  0  0  0  0  0  0  0  0  0
   46.5250   35.0900   41.7100 C   0  0  0  0  0  0  0  0  0  0  0  0
   46.0170   33.8340   42.3470 C   0  0  0  0  0  0  0  0  0  0  0  0
   44.4590   35.5710   45.2720 C   0  0  0  0  0  0  0  0  0  0  0  0
   44.8530   35.2920   43.9460 C   0  0  0  0  0  0  0  0  0  0  0  0
   45.5890   34.1500   43.7500 C   0  0  0  0  0  0  0  0  0  0  0  0
   45.9000   33.3580   44.8020 N   0  0  0  0  0  0  0  0  0  0  0  0
   45.5290   33.6270   46.0330 C   0  0  0  0  0  0  0  0  0  0  0  0
   44.8090   34.7320   46.2770 N   0  0  0  0  0  0  0  0  0  0  0  0
   45.8810   32.7560   47.1410 C   0  0  0  0  0  0  0  0  0  0  0  0
   47.2000   32.3620   47.3300 C   0  0  0  0  0  0  0  0  0  0  0  0
   47.6010   31.5380   48.3610 C   0  0  0  0  0  0  0  0  0  0  0  0
   46.6440   31.1110   49.2080 N   0  0  0  0  0  0  0  0  0  0  0  0
   45.3650   31.4990   49.0170 C   0  0  0  0  0  0  0  0  0  0  0  0
   44.9380   32.3100   48.0130 N   0  0  0  0  0  0  0  0  0  0  0  0
   47.4534   34.3510   40.2193 H   0  0  0  0  0  0  0  0  0  0  0  0
   49.7686   35.9177   40.7001 H   0  0  0  0  0  0  0  0  0  0  0  0
   49.0799   36.7401   41.8218 H   0  0  0  0  0  0  0  0  0  0  0  0
   48.9177   33.9813   43.1160 H   0  0  0  0  0  0  0  0  0  0  0  0
   48.5624   31.8402   41.1833 H   0  0  0  0  0  0  0  0  0  0  0  0
   48.7766   32.9205   39.8007 H   0  0  0  0  0  0  0  0  0  0  0  0
   50.0946   30.8652   39.4436 H   0  0  0  0  0  0  0  0  0  0  0  0
   51.2219   32.2572   39.7401 H   0  0  0  0  0  0  0  0  0  0  0  0
   50.6290   29.9600   41.3317 H   0  0  0  0  0  0  0  0  0  0  0  0
   50.0006   31.2590   43.0192 H   0  0  0  0  0  0  0  0  0  0  0  0
   51.7891   31.2758   43.1874 H   0  0  0  0  0  0  0  0  0  0  0  0
   51.8917   33.3608   41.8434 H   0  0  0  0  0  0  0  0  0  0  0  0
   50.8641   33.5712   43.3001 H   0  0  0  0  0  0  0  0  0  0  0  0
   46.6080   35.8892   42.4613 H   0  0  0  0  0  0  0  0  0  0  0  0
   45.8396   35.4398   40.9239 H   0  0  0  0  0  0  0  0  0  0  0  0
   45.1596   33.4489   41.7755 H   0  0  0  0  0  0  0  0  0  0  0  0
   46.8088   33.0705   42.3579 H   0  0  0  0  0  0  0  0  0  0  0  0
   43.8664   36.4716   45.4904 H   0  0  0  0  0  0  0  0  0  0  0  0
   44.5839   35.9562   43.1115 H   0  0  0  0  0  0  0  0  0  0  0  0
   47.9611   32.7247   46.6234 H   0  0  0  0  0  0  0  0  0  0  0  0
   48.6534   31.2431   48.4859 H   0  0  0  0  0  0  0  0  0  0  0  0
   44.6109   31.1308   49.7281 H   0  0  0  0  0  0  0  0  0  0  0  0
  1  2  1  0
  1 10  1  0
  1  3  1  0
  2  3  1  0
  4  3  1  0
  4  9  1  0
  5  4  1  0
  6  5  1  0
  6  7  1  0
  7  8  1  0
  9  8  1  0
 10 11  1  0
 11 14  1  0
 12 17  2  0
 13 12  1  0
 14 13  2  0
 14 15  1  0
 15 16  2  0
 16 17  1  0
 16 18  1  0
 18 19  2  0
 18 23  1  0
 19 20  1  0
 20 21  2  0
 22 21  1  0
 23 22  2  0
  1 24  1  6
  2 25  1  0
  2 26  1  0
  3 27  1  1
  5 28  1  0
  5 29  1  0
  6 30  1  0
  6 31  1  0
  7 32  1  0
  8 33  1  0
  8 34  1  0
  9 35  1  0
  9 36  1  0
 10 37  1  0
 10 38  1  0
 11 39  1  0
 11 40  1  0
 12 41  1  0
 13 42  1  0
 19 43  1  0
 20 44  1  0
 22 45  1  0
M  ISO  8  24  13  25  13  26  13  27  13  28  13  29  13  30  13  31  13
M  ISO  8  32   5  33  13  34  13  35  13  36  13  37   8  38   8  39   8
M  ISO  6  40   8  41  14  42  14  43  14  44  14  45  14
M  END
>  <minimizedAffinity>  (1) 
-5.95887041

>  <minimizedRMSD>  (1) 
1.00253117

$$$$
