
     RDKit          3D

 43 45  0  0  1  0  0  0  0  0999 V2000
   48.8730   34.7240   41.5150 C   0  0  1  0  0  0  0  0  0  0  0  0
   49.9980   34.8990   42.4760 C   0  0  0  0  0  0  0  0  0  0  0  0
   49.3410   33.5870   42.2880 C   0  0  2  0  0  0  0  0  0  0  0  0
   50.1610   32.6560   41.5270 N   0  0  0  0  0  0  0  0  0  0  0  0
   49.5760   32.2170   40.3130 C   0  0  0  0  0  0  0  0  0  0  0  0
   50.5780   31.2600   39.6950 C   0  0  0  0  0  0  0  0  0  0  0  0
   50.8210   30.1190   40.5150 N   0  0  0  0  0  0  0  0  0  0  0  0
   50.5860   30.3440   41.9110 C   0  0  0  0  0  0  0  0  0  0  0  0
   50.9640   31.7800   42.2690 C   0  0  0  0  0  0  0  0  0  0  0  0
   47.5430   35.3060   41.8960 C   0  0  0  0  0  0  0  0  0  0  0  0
   46.6490   34.1550   42.2440 C   0  0  0  0  0  0  0  0  0  0  0  0
   44.5130   35.9250   44.7520 C   0  0  0  0  0  0  0  0  0  0  0  0
   45.1790   35.6270   43.5430 C   0  0  0  0  0  0  0  0  0  0  0  0
   45.9370   34.4820   43.5230 C   0  0  0  0  0  0  0  0  0  0  0  0
   46.0120   33.7100   44.6280 N   0  0  0  0  0  0  0  0  0  0  0  0
   45.3890   33.9970   45.7490 C   0  0  0  0  0  0  0  0  0  0  0  0
   44.6350   35.1070   45.8160 N   0  0  0  0  0  0  0  0  0  0  0  0
   45.5720   33.0470   46.8740 C   0  0  0  0  0  0  0  0  0  0  0  0
   46.9900   32.5120   46.9070 C   0  0  0  0  0  0  0  0  0  0  0  0
   48.7299   34.9317   40.4443 H   0  0  0  0  0  0  0  0  0  0  0  0
   51.0210   35.0641   42.1071 H   0  0  0  0  0  0  0  0  0  0  0  0
   50.2059   35.5587   43.3313 H   0  0  0  0  0  0  0  0  0  0  0  0
   48.8536   32.8544   42.9480 H   0  0  0  0  0  0  0  0  0  0  0  0
   48.6248   31.7011   40.5105 H   0  0  0  0  0  0  0  0  0  0  0  0
   49.3536   33.0599   39.6422 H   0  0  0  0  0  0  0  0  0  0  0  0
   50.1886   30.9201   38.7240 H   0  0  0  0  0  0  0  0  0  0  0  0
   51.5300   31.7996   39.5826 H   0  0  0  0  0  0  0  0  0  0  0  0
   50.2031   29.3570   40.2012 H   0  0  0  0  0  0  0  0  0  0  0  0
   49.5216   30.1790   42.1344 H   0  0  0  0  0  0  0  0  0  0  0  0
   51.1984   29.6468   42.5017 H   0  0  0  0  0  0  0  0  0  0  0  0
   52.0229   31.9548   42.0277 H   0  0  0  0  0  0  0  0  0  0  0  0
   50.8087   31.9506   43.3445 H   0  0  0  0  0  0  0  0  0  0  0  0
   47.6562   35.9730   42.7634 H   0  0  0  0  0  0  0  0  0  0  0  0
   47.1206   35.8976   41.0704 H   0  0  0  0  0  0  0  0  0  0  0  0
   45.9154   33.9973   41.4397 H   0  0  0  0  0  0  0  0  0  0  0  0
   47.2427   33.2368   42.3646 H   0  0  0  0  0  0  0  0  0  0  0  0
   43.8914   36.8295   44.8257 H   0  0  0  0  0  0  0  0  0  0  0  0
   45.0949   36.2794   42.6613 H   0  0  0  0  0  0  0  0  0  0  0  0
   45.3609   33.5655   47.8209 H   0  0  0  0  0  0  0  0  0  0  0  0
   44.8814   32.2021   46.7355 H   0  0  0  0  0  0  0  0  0  0  0  0
   47.3119   32.3906   47.9518 H   0  0  0  0  0  0  0  0  0  0  0  0
   47.0265   31.5383   46.3966 H   0  0  0  0  0  0  0  0  0  0  0  0
   47.6606   33.2189   46.3966 H   0  0  0  0  0  0  0  0  0  0  0  0
  1 10  1  0
  1  3  1  0
  1  2  1  0
  3  2  1  0
  4  9  1  0
  4  3  1  0
  5  4  1  0
  6  5  1  0
  6  7  1  0
  7  8  1  0
  8  9  1  0
 10 11  1  0
 11 14  1  0
 12 17  2  0
 13 12  1  0
 14 13  2  0
 14 15  1  0
 15 16  2  0
 16 17  1  0
 16 18  1  0
 18 19  1  0
  1 20  1  6
  2 21  1  0
  2 22  1  0
  3 23  1  1
  5 24  1  0
  5 25  1  0
  6 26  1  0
  6 27  1  0
  7 28  1  0
  8 29  1  0
  8 30  1  0
  9 31  1  0
  9 32  1  0
 10 33  1  0
 10 34  1  0
 11 35  1  0
 11 36  1  0
 12 37  1  0
 13 38  1  0
 18 39  1  0
 18 40  1  0
 19 41  1  0
 19 42  1  0
 19 43  1  0
M  ISO  8  20  13  21  13  22  13  23  13  24  13  25  13  26  13  27  13
M  ISO  8  28   5  29  13  30  13  31  13  32  13  33   8  34   8  35   8
M  ISO  8  36   8  37  14  38  14  39   8  40   8  41   8  42   8  43   8
M  END
>  <minimizedAffinity>  (1) 
-4.96063089

>  <minimizedRMSD>  (1) 
0.248310164

$$$$
