
     RDKit          3D

 40 42  0  0  1  0  0  0  0  0999 V2000
   48.9830   34.7710   41.5150 C   0  0  1  0  0  0  0  0  0  0  0  0
   50.0850   34.7850   42.5350 C   0  0  0  0  0  0  0  0  0  0  0  0
   49.3520   33.5300   42.1890 C   0  0  2  0  0  0  0  0  0  0  0  0
   50.1310   32.6290   41.3600 N   0  0  0  0  0  0  0  0  0  0  0  0
   49.4640   32.1900   40.1900 C   0  0  0  0  0  0  0  0  0  0  0  0
   50.4330   31.2630   39.4810 C   0  0  0  0  0  0  0  0  0  0  0  0
   50.7430   30.1190   40.2610 N   0  0  0  0  0  0  0  0  0  0  0  0
   50.6400   30.3270   41.6950 C   0  0  0  0  0  0  0  0  0  0  0  0
   51.0150   31.7740   42.0290 C   0  0  0  0  0  0  0  0  0  0  0  0
   47.6880   35.4110   41.8960 C   0  0  0  0  0  0  0  0  0  0  0  0
   46.6980   34.2910   42.0940 C   0  0  0  0  0  0  0  0  0  0  0  0
   44.5390   35.7610   44.7870 C   0  0  0  0  0  0  0  0  0  0  0  0
   45.1770   35.5700   43.5340 C   0  0  0  0  0  0  0  0  0  0  0  0
   46.0120   34.5030   43.4080 C   0  0  0  0  0  0  0  0  0  0  0  0
   46.2010   33.6770   44.4630 N   0  0  0  0  0  0  0  0  0  0  0  0
   45.6110   33.8510   45.6220 C   0  0  0  0  0  0  0  0  0  0  0  0
   44.7800   34.8810   45.8050 N   0  0  0  0  0  0  0  0  0  0  0  0
   45.8520   32.9080   46.7590 C   0  0  0  0  0  0  0  0  0  0  0  0
   45.6550   31.5880   46.3400 F   0  0  0  0  0  0  0  0  0  0  0  0
   44.9660   33.1220   47.7840 F   0  0  0  0  0  0  0  0  0  0  0  0
   47.1570   32.9860   47.2020 F   0  0  0  0  0  0  0  0  0  0  0  0
   48.8928   35.0816   40.4636 H   0  0  0  0  0  0  0  0  0  0  0  0
   51.1302   34.9215   42.2204 H   0  0  0  0  0  0  0  0  0  0  0  0
   50.2966   35.3444   43.4582 H   0  0  0  0  0  0  0  0  0  0  0  0
   48.8003   32.7685   42.7597 H   0  0  0  0  0  0  0  0  0  0  0  0
   48.5427   31.6504   40.4546 H   0  0  0  0  0  0  0  0  0  0  0  0
   49.1732   33.0360   39.5498 H   0  0  0  0  0  0  0  0  0  0  0  0
   49.9811   30.9347   38.5334 H   0  0  0  0  0  0  0  0  0  0  0  0
   51.3667   31.8176   39.3061 H   0  0  0  0  0  0  0  0  0  0  0  0
   50.0945   29.3635   39.9973 H   0  0  0  0  0  0  0  0  0  0  0  0
   49.6078   30.1312   42.0207 H   0  0  0  0  0  0  0  0  0  0  0  0
   51.3249   29.6412   42.2152 H   0  0  0  0  0  0  0  0  0  0  0  0
   52.0454   31.9753   41.7007 H   0  0  0  0  0  0  0  0  0  0  0  0
   50.9490   31.9389   43.1146 H   0  0  0  0  0  0  0  0  0  0  0  0
   47.8065   35.9825   42.8284 H   0  0  0  0  0  0  0  0  0  0  0  0
   47.3465   36.1106   41.1188 H   0  0  0  0  0  0  0  0  0  0  0  0
   45.9572   34.3002   41.2809 H   0  0  0  0  0  0  0  0  0  0  0  0
   47.2148   33.3200   42.0863 H   0  0  0  0  0  0  0  0  0  0  0  0
   43.8562   36.6101   44.9379 H   0  0  0  0  0  0  0  0  0  0  0  0
   45.0029   36.2596   42.6949 H   0  0  0  0  0  0  0  0  0  0  0  0
  1 10  1  0
  1  3  1  0
  1  2  1  0
  3  2  1  0
  4  9  1  0
  4  3  1  0
  5  4  1  0
  6  5  1  0
  6  7  1  0
  7  8  1  0
  8  9  1  0
 10 11  1  0
 11 14  1  0
 12 17  2  0
 13 12  1  0
 14 13  2  0
 14 15  1  0
 15 16  2  0
 16 17  1  0
 16 18  1  0
 18 21  1  0
 18 20  1  0
 19 18  1  0
  1 22  1  6
  2 23  1  0
  2 24  1  0
  3 25  1  1
  5 26  1  0
  5 27  1  0
  6 28  1  0
  6 29  1  0
  7 30  1  0
  8 31  1  0
  8 32  1  0
  9 33  1  0
  9 34  1  0
 10 35  1  0
 10 36  1  0
 11 37  1  0
 11 38  1  0
 12 39  1  0
 13 40  1  0
M  ISO  8  22  13  23  13  24  13  25  13  26  13  27  13  28  13  29  13
M  ISO  8  30   5  31  13  32  13  33  13  34  13  35   8  36   8  37   8
M  ISO  3  38   8  39  14  40  14
M  END
>  <minimizedAffinity>  (1) 
-5.51641512

>  <minimizedRMSD>  (1) 
0.151781812

$$$$
