
     RDKit          3D

 38 40  0  0  1  0  0  0  0  0999 V2000
   48.9120   34.7340   41.5020 C   0  0  1  0  0  0  0  0  0  0  0  0
   50.0320   34.8360   42.4940 C   0  0  0  0  0  0  0  0  0  0  0  0
   49.3530   33.5410   42.2120 C   0  0  2  0  0  0  0  0  0  0  0  0
   50.1580   32.6430   41.3940 N   0  0  0  0  0  0  0  0  0  0  0  0
   49.5110   32.1830   40.2200 C   0  0  0  0  0  0  0  0  0  0  0  0
   50.5090   31.2690   39.5320 C   0  0  0  0  0  0  0  0  0  0  0  0
   50.8190   30.1320   40.3220 N   0  0  0  0  0  0  0  0  0  0  0  0
   50.6940   30.3510   41.7530 C   0  0  0  0  0  0  0  0  0  0  0  0
   51.0400   31.8030   42.0820 C   0  0  0  0  0  0  0  0  0  0  0  0
   47.5930   35.3200   41.8820 C   0  0  0  0  0  0  0  0  0  0  0  0
   46.6920   34.1700   42.2390 C   0  0  0  0  0  0  0  0  0  0  0  0
   44.4520   35.9340   44.6810 C   0  0  0  0  0  0  0  0  0  0  0  0
   45.1360   35.6130   43.4770 C   0  0  0  0  0  0  0  0  0  0  0  0
   45.9550   34.5210   43.4960 C   0  0  0  0  0  0  0  0  0  0  0  0
   46.0830   33.8010   44.6340 N   0  0  0  0  0  0  0  0  0  0  0  0
   45.4510   34.0990   45.7450 C   0  0  0  0  0  0  0  0  0  0  0  0
   44.6290   35.1630   45.7880 N   0  0  0  0  0  0  0  0  0  0  0  0
   45.5790   33.3600   46.9240 O   0  0  0  0  0  0  0  0  0  0  0  0
   48.7869   35.0044   40.4431 H   0  0  0  0  0  0  0  0  0  0  0  0
   51.0628   35.0079   42.1508 H   0  0  0  0  0  0  0  0  0  0  0  0
   50.2370   35.4387   43.3911 H   0  0  0  0  0  0  0  0  0  0  0  0
   48.8506   32.7774   42.8239 H   0  0  0  0  0  0  0  0  0  0  0  0
   48.5972   31.6278   40.4782 H   0  0  0  0  0  0  0  0  0  0  0  0
   49.2090   33.0171   39.5696 H   0  0  0  0  0  0  0  0  0  0  0  0
   50.0818   30.9318   38.5761 H   0  0  0  0  0  0  0  0  0  0  0  0
   51.4377   31.8369   39.3737 H   0  0  0  0  0  0  0  0  0  0  0  0
   50.1809   29.3689   40.0547 H   0  0  0  0  0  0  0  0  0  0  0  0
   49.6608   30.1409   42.0666 H   0  0  0  0  0  0  0  0  0  0  0  0
   51.3844   29.6812   42.2866 H   0  0  0  0  0  0  0  0  0  0  0  0
   52.0731   32.0167   41.7705 H   0  0  0  0  0  0  0  0  0  0  0  0
   50.9500   31.9727   43.1651 H   0  0  0  0  0  0  0  0  0  0  0  0
   47.7115   35.9904   42.7460 H   0  0  0  0  0  0  0  0  0  0  0  0
   47.1707   35.9097   41.0550 H   0  0  0  0  0  0  0  0  0  0  0  0
   45.9744   33.9932   41.4243 H   0  0  0  0  0  0  0  0  0  0  0  0
   47.2860   33.2567   42.3908 H   0  0  0  0  0  0  0  0  0  0  0  0
   43.7805   36.8045   44.7177 H   0  0  0  0  0  0  0  0  0  0  0  0
   45.0106   36.2193   42.5678 H   0  0  0  0  0  0  0  0  0  0  0  0
   45.0783   33.6300   47.7342 H   0  0  0  0  0  0  0  0  0  0  0  0
  1 10  1  0
  1  3  1  0
  1  2  1  0
  3  2  1  0
  4  9  1  0
  4  3  1  0
  5  4  1  0
  6  5  1  0
  6  7  1  0
  7  8  1  0
  8  9  1  0
 10 11  1  0
 11 14  1  0
 12 17  2  0
 13 14  2  0
 13 12  1  0
 14 15  1  0
 15 16  2  0
 16 17  1  0
 16 18  1  0
  1 19  1  6
  2 20  1  0
  2 21  1  0
  3 22  1  1
  5 23  1  0
  5 24  1  0
  6 25  1  0
  6 26  1  0
  7 27  1  0
  8 28  1  0
  8 29  1  0
  9 30  1  0
  9 31  1  0
 10 32  1  0
 10 33  1  0
 11 34  1  0
 11 35  1  0
 12 36  1  0
 13 37  1  0
 18 38  1  0
M  ISO  8  19  13  20  13  21  13  22  13  23  13  24  13  25  13  26  13
M  ISO  8  27   5  28  13  29  13  30  13  31  13  32   8  33   8  34   8
M  ISO  4  35   8  36  14  37  14  38   3
M  END
>  <minimizedAffinity>  (1) 
-5.04421663

>  <minimizedRMSD>  (1) 
0.100717977

$$$$
