
     RDKit          3D

 33 35  0  0  0  0  0  0  0  0999 V2000
   44.6530   36.5220   43.7680 C   0  0  0  0  0  0  0  0  0  0  0  0
   44.7380   35.7320   44.9320 C   0  0  0  0  0  0  0  0  0  0  0  0
   45.3480   34.4830   44.8230 C   0  0  0  0  0  0  0  0  0  0  0  0
   45.8270   34.0880   43.6230 N   0  0  0  0  0  0  0  0  0  0  0  0
   45.7290   34.8760   42.5210 C   0  0  0  0  0  0  0  0  0  0  0  0
   45.1440   36.0910   42.5900 N   0  0  0  0  0  0  0  0  0  0  0  0
   48.5330   35.6960   41.9320 Cl  0  0  0  0  0  0  0  0  0  0  0  0
   47.5430   34.7070   40.8850 C   0  0  0  0  0  0  0  0  0  0  0  0
   46.2700   34.3870   41.2470 C   0  0  0  0  0  0  0  0  0  0  0  0
   45.4440   33.5920   40.4280 C   0  0  0  0  0  0  0  0  0  0  0  0
   46.0210   33.1680   39.2420 C   0  0  0  0  0  0  0  0  0  0  0  0
   47.2990   33.4910   38.8850 C   0  0  0  0  0  0  0  0  0  0  0  0
   48.0910   34.2680   39.6940 C   0  0  0  0  0  0  0  0  0  0  0  0
   45.4340   33.6550   46.0420 C   0  0  0  0  0  0  0  0  0  0  0  0
   46.7060   32.8240   46.1080 C   0  0  0  0  0  0  0  0  0  0  0  0
   46.6310   32.0640   47.4080 C   0  0  0  0  0  0  0  0  0  0  0  0
   45.4810   31.8850   48.1790 C   0  0  0  0  0  0  0  0  0  0  0  0
   45.9050   31.1260   49.2720 C   0  0  0  0  0  0  0  0  0  0  0  0
   47.2510   30.8920   49.1090 C   0  0  0  0  0  0  0  0  0  0  0  0
   47.6480   31.4610   47.9950 O   0  0  0  0  0  0  0  0  0  0  0  0
   44.1756   37.5115   43.8226 H   0  0  0  0  0  0  0  0  0  0  0  0
   44.3373   36.0882   45.8925 H   0  0  0  0  0  0  0  0  0  0  0  0
   44.4144   33.3269   40.7101 H   0  0  0  0  0  0  0  0  0  0  0  0
   45.4247   32.5450   38.5592 H   0  0  0  0  0  0  0  0  0  0  0  0
   47.7019   33.1214   37.9305 H   0  0  0  0  0  0  0  0  0  0  0  0
   49.1197   34.5305   39.4062 H   0  0  0  0  0  0  0  0  0  0  0  0
   45.4028   34.3182   46.9190 H   0  0  0  0  0  0  0  0  0  0  0  0
   44.5850   32.9558   46.0251 H   0  0  0  0  0  0  0  0  0  0  0  0
   46.7529   32.1268   45.2585 H   0  0  0  0  0  0  0  0  0  0  0  0
   47.6057   33.4549   46.0584 H   0  0  0  0  0  0  0  0  0  0  0  0
   44.4673   32.2584   47.9719 H   0  0  0  0  0  0  0  0  0  0  0  0
   45.2792   30.7797   50.1077 H   0  0  0  0  0  0  0  0  0  0  0  0
   47.8897   30.3215   49.7993 H   0  0  0  0  0  0  0  0  0  0  0  0
  1  2  2  0
  3  2  1  0
  3 14  1  0
  4  3  2  0
  5  6  2  0
  5  4  1  0
  6  1  1  0
  8  9  2  0
  8  7  1  0
  9  5  1  0
 10  9  1  0
 11 10  2  0
 12 11  1  0
 12 13  2  0
 13  8  1  0
 14 15  1  0
 15 16  1  0
 16 20  1  0
 16 17  2  0
 17 18  1  0
 19 18  2  0
 20 19  1  0
  1 21  1  0
  2 22  1  0
 10 23  1  0
 11 24  1  0
 12 25  1  0
 13 26  1  0
 14 27  1  0
 14 28  1  0
 15 29  1  0
 15 30  1  0
 17 31  1  0
 18 32  1  0
 19 33  1  0
M  ISO  8  21  14  22  14  23  14  24  14  25  14  26  14  27   8  28   8
M  ISO  5  29   8  30   8  31  14  32  14  33  14
M  END
>  <minimizedAffinity>  (1) 
-5.6822772

>  <minimizedRMSD>  (1) 
0.543590188

$$$$
