
     RDKit          3D

 33 35  0  0  0  0  0  0  0  0999 V2000
   44.5160   35.7600   44.0480 C   0  0  0  0  0  0  0  0  0  0  0  0
   44.9600   35.0240   45.1600 C   0  0  0  0  0  0  0  0  0  0  0  0
   45.8910   34.0080   44.9500 C   0  0  0  0  0  0  0  0  0  0  0  0
   46.2980   33.8060   43.6890 N   0  0  0  0  0  0  0  0  0  0  0  0
   45.8600   34.5270   42.6190 C   0  0  0  0  0  0  0  0  0  0  0  0
   44.9710   35.4980   42.8110 N   0  0  0  0  0  0  0  0  0  0  0  0
   48.5250   35.6930   41.9730 Cl  0  0  0  0  0  0  0  0  0  0  0  0
   47.5850   34.6970   40.8880 C   0  0  0  0  0  0  0  0  0  0  0  0
   46.3790   34.2130   41.2780 C   0  0  0  0  0  0  0  0  0  0  0  0
   45.5920   33.4070   40.4330 C   0  0  0  0  0  0  0  0  0  0  0  0
   46.1200   33.1420   39.1890 C   0  0  0  0  0  0  0  0  0  0  0  0
   47.3310   33.6300   38.8020 C   0  0  0  0  0  0  0  0  0  0  0  0
   48.0910   34.4160   39.6370 C   0  0  0  0  0  0  0  0  0  0  0  0
   46.3470   33.2490   46.1210 C   0  0  0  0  0  0  0  0  0  0  0  0
   46.0340   31.7710   46.0090 C   0  0  0  0  0  0  0  0  0  0  0  0
   45.7370   31.1630   47.3100 C   0  0  0  0  0  0  0  0  0  0  0  0
   45.5290   32.0700   48.3370 C   0  0  0  0  0  0  0  0  0  0  0  0
   45.2590   31.3440   49.4990 C   0  0  0  0  0  0  0  0  0  0  0  0
   45.3180   30.0580   49.1150 N   0  0  0  0  0  0  0  0  0  0  0  0
   45.5980   29.9470   47.8290 N   0  0  0  0  0  0  0  0  0  0  0  0
   43.7818   36.5662   44.1931 H   0  0  0  0  0  0  0  0  0  0  0  0
   44.5827   35.2440   46.1696 H   0  0  0  0  0  0  0  0  0  0  0  0
   44.6144   33.0128   40.7476 H   0  0  0  0  0  0  0  0  0  0  0  0
   45.5468   32.5180   38.4875 H   0  0  0  0  0  0  0  0  0  0  0  0
   47.7106   33.3900   37.7978 H   0  0  0  0  0  0  0  0  0  0  0  0
   49.0684   34.8066   39.3175 H   0  0  0  0  0  0  0  0  0  0  0  0
   47.4355   33.3730   46.2204 H   0  0  0  0  0  0  0  0  0  0  0  0
   45.8148   33.6387   47.0013 H   0  0  0  0  0  0  0  0  0  0  0  0
   45.1612   31.6434   45.3518 H   0  0  0  0  0  0  0  0  0  0  0  0
   46.9233   31.2696   45.5993 H   0  0  0  0  0  0  0  0  0  0  0  0
   45.5694   33.1660   48.2520 H   0  0  0  0  0  0  0  0  0  0  0  0
   45.0457   31.7372   50.5039 H   0  0  0  0  0  0  0  0  0  0  0  0
   45.1640   29.2580   49.7452 H   0  0  0  0  0  0  0  0  0  0  0  0
  1  2  2  0
  3  2  1  0
  3 14  1  0
  4  3  2  0
  5  6  2  0
  5  4  1  0
  6  1  1  0
  8  9  2  0
  8  7  1  0
  9  5  1  0
 10  9  1  0
 11 10  2  0
 12 11  1  0
 12 13  2  0
 13  8  1  0
 15 14  1  0
 15 16  1  0
 16 20  2  0
 16 17  1  0
 17 18  2  0
 19 18  1  0
 20 19  1  0
  1 21  1  0
  2 22  1  0
 10 23  1  0
 11 24  1  0
 12 25  1  0
 13 26  1  0
 14 27  1  0
 14 28  1  0
 15 29  1  0
 15 30  1  0
 17 31  1  0
 18 32  1  0
 19 33  1  0
M  ISO  8  21  14  22  14  23  14  24  14  25  14  26  14  27   8  28   8
M  ISO  5  29   8  30   8  31  14  32  14  33   9
M  END
>  <minimizedAffinity>  (1) 
-5.92754793

>  <minimizedRMSD>  (1) 
2.44775248

$$$$
