
     RDKit          3D

 32 33  0  0  0  0  0  0  0  0999 V2000
   44.6460   36.2950   44.0650 C   0  0  0  0  0  0  0  0  0  0  0  0
   44.7860   35.4530   45.1910 C   0  0  0  0  0  0  0  0  0  0  0  0
   45.4550   34.2310   45.0140 C   0  0  0  0  0  0  0  0  0  0  0  0
   45.9250   33.9340   43.7900 N   0  0  0  0  0  0  0  0  0  0  0  0
   45.7690   34.7800   42.7200 C   0  0  0  0  0  0  0  0  0  0  0  0
   45.1360   35.9490   42.8540 N   0  0  0  0  0  0  0  0  0  0  0  0
   48.5430   35.6680   42.1530 Cl  0  0  0  0  0  0  0  0  0  0  0  0
   47.5790   34.7170   41.0630 C   0  0  0  0  0  0  0  0  0  0  0  0
   46.3190   34.3610   41.4160 C   0  0  0  0  0  0  0  0  0  0  0  0
   45.5070   33.5910   40.5620 C   0  0  0  0  0  0  0  0  0  0  0  0
   46.0460   33.2190   39.3620 C   0  0  0  0  0  0  0  0  0  0  0  0
   47.3060   33.5750   39.0110 C   0  0  0  0  0  0  0  0  0  0  0  0
   48.1000   34.3250   39.8390 C   0  0  0  0  0  0  0  0  0  0  0  0
   45.5830   33.3480   46.1820 C   0  0  0  0  0  0  0  0  0  0  0  0
   46.7980   32.4620   46.1040 C   0  0  0  0  0  0  0  0  0  0  0  0
   46.5530   31.3560   46.8810 O   0  0  0  0  0  0  0  0  0  0  0  0
   48.2240   32.4790   48.4730 O   0  0  0  0  0  0  0  0  0  0  0  0
   47.0610   31.4800   48.4670 P   0  0  0  0  0  0  0  0  0  0  0  0
   47.7250   30.0140   48.9860 O   0  0  0  0  0  0  0  0  0  0  0  0
   45.8400   31.9830   49.5200 O   0  0  0  0  0  0  0  0  0  0  0  0
   44.1246   37.2571   44.1770 H   0  0  0  0  0  0  0  0  0  0  0  0
   44.3847   35.7447   46.1727 H   0  0  0  0  0  0  0  0  0  0  0  0
   44.4848   33.3017   40.8474 H   0  0  0  0  0  0  0  0  0  0  0  0
   45.4437   32.6172   38.6656 H   0  0  0  0  0  0  0  0  0  0  0  0
   47.7015   33.2536   38.0362 H   0  0  0  0  0  0  0  0  0  0  0  0
   49.1205   34.6077   39.5414 H   0  0  0  0  0  0  0  0  0  0  0  0
   45.6564   33.9687   47.0872 H   0  0  0  0  0  0  0  0  0  0  0  0
   44.6961   32.6978   46.2086 H   0  0  0  0  0  0  0  0  0  0  0  0
   46.9743   32.1573   45.0619 H   0  0  0  0  0  0  0  0  0  0  0  0
   47.6907   32.9963   46.4611 H   0  0  0  0  0  0  0  0  0  0  0  0
   47.7364   29.9889   49.9756 H   0  0  0  0  0  0  0  0  0  0  0  0
   46.1395   31.8596   50.4555 H   0  0  0  0  0  0  0  0  0  0  0  0
  1  2  2  0
  3  2  1  0
  3 14  1  0
  4  3  2  0
  5  6  2  0
  5  4  1  0
  6  1  1  0
  8  9  2  0
  8  7  1  0
  9  5  1  0
 10  9  1  0
 11 10  2  0
 12 11  1  0
 12 13  2  0
 13  8  1  0
 15 14  1  0
 15 16  1  0
 16 18  1  0
 18 17  2  0
 18 19  1  0
 18 20  1  0
  1 21  1  0
  2 22  1  0
 10 23  1  0
 11 24  1  0
 12 25  1  0
 13 26  1  0
 14 27  1  0
 14 28  1  0
 15 29  1  0
 15 30  1  0
 19 31  1  0
 20 32  1  0
M  ISO  8  21  14  22  14  23  14  24  14  25  14  26  14  27   8  28   8
M  ISO  4  29   8  30   8  31   3  32   3
M  END
>  <minimizedAffinity>  (1) 
-5.63089752

>  <minimizedRMSD>  (1) 
2.07076168

$$$$
