
     RDKit          3D

 27 28  0  0  0  0  0  0  0  0999 V2000
   44.6250   36.2840   43.9800 C   0  0  0  0  0  0  0  0  0  0  0  0
   44.7780   35.4620   45.1030 C   0  0  0  0  0  0  0  0  0  0  0  0
   45.4500   34.2460   44.9400 C   0  0  0  0  0  0  0  0  0  0  0  0
   45.9140   33.9280   43.7160 N   0  0  0  0  0  0  0  0  0  0  0  0
   45.7450   34.7610   42.6370 C   0  0  0  0  0  0  0  0  0  0  0  0
   45.1080   35.9210   42.7760 N   0  0  0  0  0  0  0  0  0  0  0  0
   48.5240   35.6820   42.0400 Cl  0  0  0  0  0  0  0  0  0  0  0  0
   47.5520   34.7150   40.9690 C   0  0  0  0  0  0  0  0  0  0  0  0
   46.2830   34.3410   41.3350 C   0  0  0  0  0  0  0  0  0  0  0  0
   45.4820   33.5670   40.4970 C   0  0  0  0  0  0  0  0  0  0  0  0
   46.0420   33.2020   39.2860 C   0  0  0  0  0  0  0  0  0  0  0  0
   47.3060   33.5750   38.9240 C   0  0  0  0  0  0  0  0  0  0  0  0
   48.0770   34.3390   39.7630 C   0  0  0  0  0  0  0  0  0  0  0  0
   45.6090   33.3840   46.1250 C   0  0  0  0  0  0  0  0  0  0  0  0
   46.8750   32.5430   46.0730 C   0  0  0  0  0  0  0  0  0  0  0  0
   47.3050   32.1800   47.8160 S   0  0  0  0  0  0  0  0  0  0  0  0
   44.1000   37.2452   44.0829 H   0  0  0  0  0  0  0  0  0  0  0  0
   44.3817   35.7633   46.0839 H   0  0  0  0  0  0  0  0  0  0  0  0
   44.4637   33.2641   40.7821 H   0  0  0  0  0  0  0  0  0  0  0  0
   45.4493   32.5902   38.5900 H   0  0  0  0  0  0  0  0  0  0  0  0
   47.7091   33.2595   37.9504 H   0  0  0  0  0  0  0  0  0  0  0  0
   49.0938   34.6422   39.4727 H   0  0  0  0  0  0  0  0  0  0  0  0
   45.6461   34.0209   47.0211 H   0  0  0  0  0  0  0  0  0  0  0  0
   44.7526   32.6942   46.1516 H   0  0  0  0  0  0  0  0  0  0  0  0
   46.6921   31.6092   45.5211 H   0  0  0  0  0  0  0  0  0  0  0  0
   47.6904   33.0704   45.5563 H   0  0  0  0  0  0  0  0  0  0  0  0
   46.4730   32.8824   48.6474 H   0  0  0  0  0  0  0  0  0  0  0  0
  1  2  2  0
  3  2  1  0
  3 14  1  0
  4  3  2  0
  5  6  2  0
  5  4  1  0
  6  1  1  0
  8  9  2  0
  8  7  1  0
  9  5  1  0
 10  9  1  0
 11 10  2  0
 12 11  1  0
 12 13  2  0
 13  8  1  0
 15 14  1  0
 15 16  1  0
  1 17  1  0
  2 18  1  0
 10 19  1  0
 11 20  1  0
 12 21  1  0
 13 22  1  0
 14 23  1  0
 14 24  1  0
 15 25  1  0
 15 26  1  0
 16 27  1  0
M  ISO  8  17  14  18  14  19  14  20  14  21  14  22  14  23   8  24   8
M  ISO  3  25   8  26   8  27  11
M  END
>  <minimizedAffinity>  (1) 
-4.84562111

>  <minimizedRMSD>  (1) 
0.239896789

$$$$
