
     RDKit          3D

 33 35  0  0  0  0  0  0  0  0999 V2000
   45.8660   30.0160   44.5600 Br  0  0  0  0  0  0  0  0  0  0  0  0
   45.7290   30.6680   46.3730 C   0  0  0  0  0  0  0  0  0  0  0  0
   46.3300   31.8870   46.6290 C   0  0  0  0  0  0  0  0  0  0  0  0
   46.2140   32.3320   47.9470 C   0  0  0  0  0  0  0  0  0  0  0  0
   45.5520   31.6170   48.9260 C   0  0  0  0  0  0  0  0  0  0  0  0
   44.9800   30.4170   48.6000 C   0  0  0  0  0  0  0  0  0  0  0  0
   45.0590   29.9230   47.3170 C   0  0  0  0  0  0  0  0  0  0  0  0
   44.4400   28.6400   47.0010 C   0  0  0  0  0  0  0  0  0  0  0  0
   44.9180   27.6040   47.8100 C   0  0  0  0  0  0  0  0  0  0  0  0
   44.4500   26.3010   47.6650 C   0  0  0  0  0  0  0  0  0  0  0  0
   43.4960   26.0210   46.7080 C   0  0  0  0  0  0  0  0  0  0  0  0
   43.0340   27.0480   45.9190 C   0  0  0  0  0  0  0  0  0  0  0  0
   43.4870   28.3270   46.0540 C   0  0  0  0  0  0  0  0  0  0  0  0
   47.0510   32.7150   45.6660 C   0  0  0  0  0  0  0  0  0  0  0  0
   44.5210   35.4070   45.1630 C   0  0  0  0  0  0  0  0  0  0  0  0
   44.7620   35.7950   43.8360 C   0  0  0  0  0  0  0  0  0  0  0  0
   45.7750   35.1280   43.1580 C   0  0  0  0  0  0  0  0  0  0  0  0
   46.4790   34.1540   43.7780 N   0  0  0  0  0  0  0  0  0  0  0  0
   46.2180   33.8010   45.0730 C   0  0  0  0  0  0  0  0  0  0  0  0
   45.2340   34.4480   45.7320 N   0  0  0  0  0  0  0  0  0  0  0  0
   46.6703   33.2954   48.2182 H   0  0  0  0  0  0  0  0  0  0  0  0
   45.4855   32.0063   49.9527 H   0  0  0  0  0  0  0  0  0  0  0  0
   44.4506   29.8400   49.3725 H   0  0  0  0  0  0  0  0  0  0  0  0
   45.6777   27.8229   48.5749 H   0  0  0  0  0  0  0  0  0  0  0  0
   44.8385   25.4989   48.3098 H   0  0  0  0  0  0  0  0  0  0  0  0
   43.1132   24.9978   46.5791 H   0  0  0  0  0  0  0  0  0  0  0  0
   42.2741   26.8307   45.1539 H   0  0  0  0  0  0  0  0  0  0  0  0
   43.0884   29.1174   45.4010 H   0  0  0  0  0  0  0  0  0  0  0  0
   47.9101   33.1747   46.1766 H   0  0  0  0  0  0  0  0  0  0  0  0
   47.3593   32.0566   44.8405 H   0  0  0  0  0  0  0  0  0  0  0  0
   43.7281   35.9071   45.7385 H   0  0  0  0  0  0  0  0  0  0  0  0
   44.1754   36.5912   43.3544 H   0  0  0  0  0  0  0  0  0  0  0  0
   46.0046   35.3927   42.1153 H   0  0  0  0  0  0  0  0  0  0  0  0
  1  2  1  0
  2  3  2  0
  2  7  1  0
  3  4  1  0
  4  5  2  0
  6  5  1  0
  7  6  2  0
  8  7  1  0
  8  9  2  0
 10  9  1  0
 11 10  2  0
 12 13  2  0
 12 11  1  0
 13  8  1  0
 14  3  1  0
 15 20  2  0
 16 15  1  0
 17 18  1  0
 17 16  2  0
 18 19  2  0
 19 14  1  0
 19 20  1  0
  4 21  1  0
  5 22  1  0
  6 23  1  0
  9 24  1  0
 10 25  1  0
 11 26  1  0
 12 27  1  0
 13 28  1  0
 14 29  1  0
 14 30  1  0
 15 31  1  0
 16 32  1  0
 17 33  1  0
M  ISO  8  21  14  22  14  23  14  24  14  25  14  26  14  27  14  28  14
M  ISO  5  29   8  30   8  31  14  32  14  33  14
M  END
>  <minimizedAffinity>  (1) 
-5.51715183

>  <minimizedRMSD>  (1) 
0.753083825

$$$$
