
     RDKit          3D

 30 32  0  0  0  0  0  0  0  0999 V2000
   45.9540   29.9880   44.5770 Br  0  0  0  0  0  0  0  0  0  0  0  0
   45.7590   30.6570   46.3820 C   0  0  0  0  0  0  0  0  0  0  0  0
   46.3210   31.8820   46.6300 C   0  0  0  0  0  0  0  0  0  0  0  0
   46.1550   32.3200   47.9410 C   0  0  0  0  0  0  0  0  0  0  0  0
   45.4940   31.6100   48.9140 C   0  0  0  0  0  0  0  0  0  0  0  0
   44.9620   30.3960   48.5920 C   0  0  0  0  0  0  0  0  0  0  0  0
   45.0870   29.8930   47.3010 C   0  0  0  0  0  0  0  0  0  0  0  0
   44.5400   28.5990   46.8870 C   0  0  0  0  0  0  0  0  0  0  0  0
   45.0910   27.3890   47.2920 C   0  0  0  0  0  0  0  0  0  0  0  0
   44.3240   26.4350   46.7150 N   0  0  0  0  0  0  0  0  0  0  0  0
   43.3430   27.0050   45.9880 C   0  0  0  0  0  0  0  0  0  0  0  0
   43.4730   28.3600   46.0900 N   0  0  0  0  0  0  0  0  0  0  0  0
   47.0470   32.7300   45.6800 C   0  0  0  0  0  0  0  0  0  0  0  0
   44.5120   35.4100   45.1690 C   0  0  0  0  0  0  0  0  0  0  0  0
   44.7520   35.7880   43.8360 C   0  0  0  0  0  0  0  0  0  0  0  0
   45.7690   35.1180   43.1570 C   0  0  0  0  0  0  0  0  0  0  0  0
   46.4800   34.1410   43.7920 N   0  0  0  0  0  0  0  0  0  0  0  0
   46.2070   33.8110   45.0870 C   0  0  0  0  0  0  0  0  0  0  0  0
   45.2280   34.4570   45.7390 N   0  0  0  0  0  0  0  0  0  0  0  0
   46.5801   33.2967   48.2154 H   0  0  0  0  0  0  0  0  0  0  0  0
   45.3957   32.0128   49.9329 H   0  0  0  0  0  0  0  0  0  0  0  0
   44.4310   29.8113   49.3576 H   0  0  0  0  0  0  0  0  0  0  0  0
   45.9648   27.2388   47.9431 H   0  0  0  0  0  0  0  0  0  0  0  0
   44.4690   25.4204   46.8168 H   0  0  0  0  0  0  0  0  0  0  0  0
   42.5720   26.4715   45.4127 H   0  0  0  0  0  0  0  0  0  0  0  0
   47.8941   33.1954   46.2052 H   0  0  0  0  0  0  0  0  0  0  0  0
   47.3745   32.0832   44.8527 H   0  0  0  0  0  0  0  0  0  0  0  0
   43.7199   35.9129   45.7432 H   0  0  0  0  0  0  0  0  0  0  0  0
   44.1623   36.5789   43.3494 H   0  0  0  0  0  0  0  0  0  0  0  0
   45.9977   35.3761   42.1124 H   0  0  0  0  0  0  0  0  0  0  0  0
  1  2  1  0
  2  3  2  0
  2  7  1  0
  3  4  1  0
  4  5  2  0
  6  5  1  0
  7  6  2  0
  8  9  2  0
  8  7  1  0
 10  9  1  0
 11 12  2  0
 11 10  1  0
 12  8  1  0
 13  3  1  0
 14 19  2  0
 15 14  1  0
 16 17  1  0
 16 15  2  0
 17 18  2  0
 18 13  1  0
 18 19  1  0
  4 20  1  0
  5 21  1  0
  6 22  1  0
  9 23  1  0
 10 24  1  0
 11 25  1  0
 13 26  1  0
 13 27  1  0
 14 28  1  0
 15 29  1  0
 16 30  1  0
M  ISO  8  20  14  21  14  22  14  23  14  24   9  25  14  26   8  27   8
M  ISO  3  28  14  29  14  30  14
M  END
>  <minimizedAffinity>  (1) 
-4.94379997

>  <minimizedRMSD>  (1) 
0.739973009

$$$$
