
     RDKit          3D

 24 25  0  0  0  0  0  0  0  0999 V2000
   47.0390   32.6360   45.8760 C   0  0  0  0  0  0  0  0  0  0  0  0
   45.9980   29.8630   44.7890 Br  0  0  0  0  0  0  0  0  0  0  0  0
   45.8160   30.5280   46.5870 C   0  0  0  0  0  0  0  0  0  0  0  0
   46.3500   31.7740   46.8410 C   0  0  0  0  0  0  0  0  0  0  0  0
   46.1920   32.2070   48.1530 C   0  0  0  0  0  0  0  0  0  0  0  0
   45.5650   31.4850   49.1370 C   0  0  0  0  0  0  0  0  0  0  0  0
   45.0520   30.2440   48.8180 C   0  0  0  0  0  0  0  0  0  0  0  0
   45.1710   29.7460   47.5340 C   0  0  0  0  0  0  0  0  0  0  0  0
   44.5400   28.1540   47.0240 S   0  0  0  0  0  0  0  0  0  0  0  0
   44.4750   35.3240   45.4960 C   0  0  0  0  0  0  0  0  0  0  0  0
   44.6510   35.7050   44.1720 C   0  0  0  0  0  0  0  0  0  0  0  0
   45.6250   35.0540   43.4350 C   0  0  0  0  0  0  0  0  0  0  0  0
   46.3680   34.0710   44.0310 N   0  0  0  0  0  0  0  0  0  0  0  0
   46.1770   33.7130   45.3330 C   0  0  0  0  0  0  0  0  0  0  0  0
   45.2230   34.3590   46.0380 N   0  0  0  0  0  0  0  0  0  0  0  0
   47.9030   33.0986   46.3755 H   0  0  0  0  0  0  0  0  0  0  0  0
   47.3408   32.0018   45.0294 H   0  0  0  0  0  0  0  0  0  0  0  0
   46.5968   33.1944   48.4198 H   0  0  0  0  0  0  0  0  0  0  0  0
   45.4733   31.8862   50.1571 H   0  0  0  0  0  0  0  0  0  0  0  0
   44.5451   29.6473   49.5906 H   0  0  0  0  0  0  0  0  0  0  0  0
   44.2429   27.4044   48.1316 H   0  0  0  0  0  0  0  0  0  0  0  0
   43.7089   35.8239   46.1069 H   0  0  0  0  0  0  0  0  0  0  0  0
   44.0358   36.4989   43.7234 H   0  0  0  0  0  0  0  0  0  0  0  0
   45.7999   35.3234   42.3829 H   0  0  0  0  0  0  0  0  0  0  0  0
  1  4  1  0
  2  3  1  0
  3  4  2  0
  3  8  1  0
  4  5  1  0
  5  6  2  0
  7  6  1  0
  8  7  2  0
  9  8  1  0
 10 15  2  0
 11 10  1  0
 12 13  1  0
 12 11  2  0
 13 14  2  0
 14  1  1  0
 14 15  1  0
  1 16  1  0
  1 17  1  0
  5 18  1  0
  6 19  1  0
  7 20  1  0
  9 21  1  0
 10 22  1  0
 11 23  1  0
 12 24  1  0
M  ISO  8  16   8  17   8  18  14  19  14  20  14  21  11  22  14  23  14
M  ISO  1  24  14
M  END
>  <minimizedAffinity>  (1) 
-4.54420996

>  <minimizedRMSD>  (1) 
0.419215143

$$$$
