
     RDKit          3D

 27 28  0  0  0  0  0  0  0  0999 V2000
   45.3450   30.0570   44.6090 Br  0  0  0  0  0  0  0  0  0  0  0  0
   45.9330   30.8140   46.2860 C   0  0  0  0  0  0  0  0  0  0  0  0
   46.6830   31.9580   46.1860 C   0  0  0  0  0  0  0  0  0  0  0  0
   47.0920   32.4780   47.4230 C   0  0  0  0  0  0  0  0  0  0  0  0
   46.7730   31.8980   48.6360 C   0  0  0  0  0  0  0  0  0  0  0  0
   46.0220   30.7610   48.6430 C   0  0  0  0  0  0  0  0  0  0  0  0
   45.5900   30.2010   47.4610 C   0  0  0  0  0  0  0  0  0  0  0  0
   45.6600   27.8490   47.4620 C   0  0  0  0  0  0  0  0  0  0  0  0
   46.8640   28.2690   47.5490 O   0  0  0  0  0  0  0  0  0  0  0  0
   44.7940   28.9990   47.4030 N   0  0  0  0  0  0  0  0  0  0  0  0
   47.0830   32.6620   44.9590 C   0  0  0  0  0  0  0  0  0  0  0  0
   44.5720   35.4130   45.1880 C   0  0  0  0  0  0  0  0  0  0  0  0
   44.7210   36.0580   43.9650 C   0  0  0  0  0  0  0  0  0  0  0  0
   45.6670   35.5480   43.0890 C   0  0  0  0  0  0  0  0  0  0  0  0
   46.4010   34.4520   43.4570 N   0  0  0  0  0  0  0  0  0  0  0  0
   46.2220   33.8520   44.6680 C   0  0  0  0  0  0  0  0  0  0  0  0
   45.2990   34.3560   45.5090 N   0  0  0  0  0  0  0  0  0  0  0  0
   47.6985   33.3957   47.4276 H   0  0  0  0  0  0  0  0  0  0  0  0
   47.1191   32.3461   49.5791 H   0  0  0  0  0  0  0  0  0  0  0  0
   45.7587   30.2867   49.5999 H   0  0  0  0  0  0  0  0  0  0  0  0
   45.3415   26.7964   47.4367 H   0  0  0  0  0  0  0  0  0  0  0  0
   43.7670   28.9679   47.3307 H   0  0  0  0  0  0  0  0  0  0  0  0
   48.1239   32.9998   45.0706 H   0  0  0  0  0  0  0  0  0  0  0  0
   46.9710   31.9583   44.1210 H   0  0  0  0  0  0  0  0  0  0  0  0
   43.8304   35.7917   45.9068 H   0  0  0  0  0  0  0  0  0  0  0  0
   44.1133   36.9367   43.7033 H   0  0  0  0  0  0  0  0  0  0  0  0
   45.8264   36.0192   42.1079 H   0  0  0  0  0  0  0  0  0  0  0  0
  1  2  1  0
  2  7  2  0
  3  2  1  0
  3  4  2  0
  4  5  1  0
  5  6  2  0
  7  6  1  0
  8  9  2  0
 10  7  1  0
 10  8  1  0
 11  3  1  0
 12 17  2  0
 13 12  1  0
 14 15  1  0
 14 13  2  0
 15 16  2  0
 16 11  1  0
 16 17  1  0
  4 18  1  0
  5 19  1  0
  6 20  1  0
  8 21  1  0
 10 22  1  0
 11 23  1  0
 11 24  1  0
 12 25  1  0
 13 26  1  0
 14 27  1  0
M  ISO  8  18  14  19  14  20  14  21   6  23   8  24   8  25  14  26  14
M  ISO  1  27  14
M  END
>  <minimizedAffinity>  (1) 
-4.67822075

>  <minimizedRMSD>  (1) 
0.699942827

$$$$
