
     RDKit          3D

 39 41  0  0  0  0  0  0  0  0999 V2000
   45.5690   30.0000   44.6450 Br  0  0  0  0  0  0  0  0  0  0  0  0
   45.6470   30.5940   46.4700 C   0  0  0  0  0  0  0  0  0  0  0  0
   46.3510   31.7550   46.6720 C   0  0  0  0  0  0  0  0  0  0  0  0
   46.3900   32.1630   48.0230 C   0  0  0  0  0  0  0  0  0  0  0  0
   45.7850   31.4740   49.0490 C   0  0  0  0  0  0  0  0  0  0  0  0
   45.1050   30.3300   48.7660 C   0  0  0  0  0  0  0  0  0  0  0  0
   45.0290   29.8730   47.4630 C   0  0  0  0  0  0  0  0  0  0  0  0
   47.0350   32.5800   45.6930 C   0  0  0  0  0  0  0  0  0  0  0  0
   44.5490   35.3350   45.3660 C   0  0  0  0  0  0  0  0  0  0  0  0
   44.7680   35.7600   44.0500 C   0  0  0  0  0  0  0  0  0  0  0  0
   45.7400   35.1140   43.3090 C   0  0  0  0  0  0  0  0  0  0  0  0
   46.4350   34.1070   43.8780 N   0  0  0  0  0  0  0  0  0  0  0  0
   46.2170   33.6930   45.1680 C   0  0  0  0  0  0  0  0  0  0  0  0
   45.2600   34.3380   45.8780 N   0  0  0  0  0  0  0  0  0  0  0  0
   44.3320   28.7000   47.1620 O   0  0  0  0  0  0  0  0  0  0  0  0
   44.1090   26.1420   46.7680 O   0  0  0  0  0  0  0  0  0  0  0  0
   44.9120   27.1550   47.5970 P   0  0  2  0  0  0  0  0  0  0  0  0
   44.6080   26.9110   49.2190 O   0  0  0  0  0  0  0  0  0  0  0  0
   46.5160   26.9480   47.1940 O   0  0  0  0  0  0  0  0  0  0  0  0
   49.0080   25.2360   49.2990 N   0  0  0  0  0  0  0  0  0  0  0  0
   47.8760   25.3760   48.5520 C   0  0  0  0  0  0  0  0  0  0  0  0
   47.5780   26.5910   47.9690 C   0  0  0  0  0  0  0  0  0  0  0  0
   48.4650   27.6330   48.1780 C   0  0  0  0  0  0  0  0  0  0  0  0
   48.3340   28.7960   47.7160 O   0  0  0  0  0  0  0  0  0  0  0  0
   49.5890   27.4900   48.9210 N   0  0  0  0  0  0  0  0  0  0  0  0
   49.8410   26.2810   49.4720 C   0  0  0  0  0  0  0  0  0  0  0  0
   50.8800   26.0730   50.1840 O   0  0  0  0  0  0  0  0  0  0  0  0
   46.9359   33.0855   48.2698 H   0  0  0  0  0  0  0  0  0  0  0  0
   45.8502   31.8428   50.0833 H   0  0  0  0  0  0  0  0  0  0  0  0
   44.6151   29.7679   49.5747 H   0  0  0  0  0  0  0  0  0  0  0  0
   47.9335   33.0039   46.1652 H   0  0  0  0  0  0  0  0  0  0  0  0
   47.2724   31.9291   44.8386 H   0  0  0  0  0  0  0  0  0  0  0  0
   43.7825   35.8308   45.9797 H   0  0  0  0  0  0  0  0  0  0  0  0
   44.1829   36.5851   43.6177 H   0  0  0  0  0  0  0  0  0  0  0  0
   45.9438   35.4163   42.2712 H   0  0  0  0  0  0  0  0  0  0  0  0
   45.2556   27.4308   49.7580 H   0  0  0  0  0  0  0  0  0  0  0  0
   49.2273   24.3279   49.7328 H   0  0  0  0  0  0  0  0  0  0  0  0
   47.1995   24.5197   48.4138 H   0  0  0  0  0  0  0  0  0  0  0  0
   50.2339   28.2806   49.0623 H   0  0  0  0  0  0  0  0  0  0  0  0
  1  2  1  0
  2  3  2  0
  2  7  1  0
  3  4  1  0
  4  5  2  0
  6  5  1  0
  7  6  2  0
  8  3  1  0
  9 14  2  0
 10  9  1  0
 11 12  1  0
 11 10  2  0
 12 13  2  0
 13  8  1  0
 13 14  1  0
 15  7  1  0
 15 17  1  0
 17 16  2  0
 17 18  1  0
 19 17  1  0
 19 22  1  0
 20 26  1  0
 21 20  1  0
 22 23  1  0
 22 21  2  0
 23 25  1  0
 24 23  2  0
 25 26  1  0
 26 27  2  0
  4 28  1  0
  5 29  1  0
  6 30  1  0
  8 31  1  0
  8 32  1  0
  9 33  1  0
 10 34  1  0
 11 35  1  0
 18 36  1  0
 20 37  1  0
 21 38  1  0
 25 39  1  0
M  ISO  8  28  14  29  14  30  14  31   8  32   8  33  14  34  14  35  14
M  ISO  4  36   3  37   9  38  14  39   9
M  END
>  <minimizedAffinity>  (1) 
-5.48656702

>  <minimizedRMSD>  (1) 
1.3773452

$$$$
