
     RDKit          3D

 33 34  0  0  0  0  0  0  0  0999 V2000
   45.6140   29.8880   44.7420 Br  0  0  0  0  0  0  0  0  0  0  0  0
   45.6830   30.5390   46.5500 C   0  0  0  0  0  0  0  0  0  0  0  0
   46.3400   31.7140   46.7450 C   0  0  0  0  0  0  0  0  0  0  0  0
   46.3700   32.1600   48.0830 C   0  0  0  0  0  0  0  0  0  0  0  0
   45.7860   31.4760   49.1240 C   0  0  0  0  0  0  0  0  0  0  0  0
   45.1400   30.2900   48.8390 C   0  0  0  0  0  0  0  0  0  0  0  0
   45.0790   29.8090   47.5600 C   0  0  0  0  0  0  0  0  0  0  0  0
   47.0030   32.5420   45.7400 C   0  0  0  0  0  0  0  0  0  0  0  0
   44.5160   35.3100   45.4890 C   0  0  0  0  0  0  0  0  0  0  0  0
   44.7050   35.7420   44.1810 C   0  0  0  0  0  0  0  0  0  0  0  0
   45.6650   35.0960   43.4040 C   0  0  0  0  0  0  0  0  0  0  0  0
   46.3570   34.0910   43.9600 N   0  0  0  0  0  0  0  0  0  0  0  0
   46.1650   33.6700   45.2500 C   0  0  0  0  0  0  0  0  0  0  0  0
   45.2380   34.3050   45.9790 N   0  0  0  0  0  0  0  0  0  0  0  0
   44.4210   28.6160   47.3070 O   0  0  0  0  0  0  0  0  0  0  0  0
   44.2810   26.0180   47.0600 O   0  0  0  0  0  0  0  0  0  0  0  0
   44.9330   27.1130   47.8870 P   0  0  2  0  0  0  0  0  0  0  0  0
   44.4420   26.9930   49.4910 O   0  0  0  0  0  0  0  0  0  0  0  0
   46.6100   26.9100   47.7510 O   0  0  0  0  0  0  0  0  0  0  0  0
   47.2710   27.0420   46.5470 C   0  0  0  0  0  0  0  0  0  0  0  0
   47.1070   26.4710   45.4400 O   0  0  0  0  0  0  0  0  0  0  0  0
   48.3260   28.0150   46.6130 N   0  0  0  0  0  0  0  0  0  0  0  0
   46.8877   33.1046   48.3057 H   0  0  0  0  0  0  0  0  0  0  0  0
   45.8325   31.8627   50.1527 H   0  0  0  0  0  0  0  0  0  0  0  0
   44.6665   29.7224   49.6537 H   0  0  0  0  0  0  0  0  0  0  0  0
   47.9208   32.9571   46.1819 H   0  0  0  0  0  0  0  0  0  0  0  0
   47.2106   31.8950   44.8750 H   0  0  0  0  0  0  0  0  0  0  0  0
   43.7643   35.8024   46.1234 H   0  0  0  0  0  0  0  0  0  0  0  0
   44.1121   36.5723   43.7699 H   0  0  0  0  0  0  0  0  0  0  0  0
   45.8498   35.4021   42.3637 H   0  0  0  0  0  0  0  0  0  0  0  0
   45.2104   27.1808   50.0863 H   0  0  0  0  0  0  0  0  0  0  0  0
   48.8992   28.2104   45.7799 H   0  0  0  0  0  0  0  0  0  0  0  0
   48.5091   28.5172   47.4935 H   0  0  0  0  0  0  0  0  0  0  0  0
  1  2  1  0
  2  3  2  0
  2  7  1  0
  3  4  1  0
  4  5  2  0
  6  5  1  0
  7  6  2  0
  8  3  1  0
  9 14  2  0
 10  9  1  0
 11 12  1  0
 11 10  2  0
 12 13  2  0
 13  8  1  0
 13 14  1  0
 15  7  1  0
 15 17  1  0
 17 16  2  0
 17 18  1  0
 19 17  1  0
 20 22  1  0
 20 19  1  0
 21 20  2  0
  4 23  1  0
  5 24  1  0
  6 25  1  0
  8 26  1  0
  8 27  1  0
  9 28  1  0
 10 29  1  0
 11 30  1  0
 18 31  1  0
 22 32  1  0
 22 33  1  0
M  ISO  8  23  14  24  14  25  14  26   8  27   8  28  14  29  14  30  14
M  ISO  1  31   3
M  END
>  <minimizedAffinity>  (1) 
-4.74971437

>  <minimizedRMSD>  (1) 
0.36504969

$$$$
