
     RDKit          3D

 14 14  0  0  0  0  0  0  0  0999 V2000
   44.2660   35.7450   44.2660 C   0  0  0  0  0  0  0  0  0  0  0  0
   44.4150   34.9380   43.1340 C   0  0  0  0  0  0  0  0  0  0  0  0
   45.0490   33.7070   43.2410 C   0  0  0  0  0  0  0  0  0  0  0  0
   45.5050   33.3400   44.4820 N   0  0  0  0  0  0  0  0  0  0  0  0
   45.3410   34.1450   45.5420 C   0  0  0  0  0  0  0  0  0  0  0  0
   44.7370   35.3330   45.4700 N   0  0  0  0  0  0  0  0  0  0  0  0
   43.7950   35.4740   41.5320 S   0  0  0  0  0  0  0  0  0  0  0  0
   43.8980   34.1190   40.3520 C   0  0  0  0  0  0  0  0  0  0  0  0
   43.7639   36.7199   44.1800 H   0  0  0  0  0  0  0  0  0  0  0  0
   45.1803   33.0528   42.3665 H   0  0  0  0  0  0  0  0  0  0  0  0
   45.7227   33.8100   46.5178 H   0  0  0  0  0  0  0  0  0  0  0  0
   43.9705   33.1649   40.8947 H   0  0  0  0  0  0  0  0  0  0  0  0
   42.9977   34.1139   39.7201 H   0  0  0  0  0  0  0  0  0  0  0  0
   44.7888   34.2500   39.7201 H   0  0  0  0  0  0  0  0  0  0  0  0
  1  6  2  0
  2  3  2  0
  2  1  1  0
  3  4  1  0
  4  5  2  0
  6  5  1  0
  7  2  1  0
  8  7  1  0
  1  9  1  0
  3 10  1  0
  5 11  1  0
  8 12  1  0
  8 13  1  0
  8 14  1  0
M  ISO  6   9  14  10  14  11  14  12   8  13   8  14   8
M  END
>  <minimizedAffinity>  (1) 
-2.60575414

>  <minimizedRMSD>  (1) 
0.102341026

$$$$
