
     RDKit          3D

 38 40  0  0  0  0  0  0  0  0999 V2000
   45.6740   29.9190   44.6870 Br  0  0  0  0  0  0  0  0  0  0  0  0
   45.7250   30.5350   46.5190 C   0  0  0  0  0  0  0  0  0  0  0  0
   46.3500   31.7340   46.7180 C   0  0  0  0  0  0  0  0  0  0  0  0
   46.3720   32.1560   48.0560 C   0  0  0  0  0  0  0  0  0  0  0  0
   45.8160   31.4370   49.0840 C   0  0  0  0  0  0  0  0  0  0  0  0
   45.2070   30.2410   48.7940 C   0  0  0  0  0  0  0  0  0  0  0  0
   45.1490   29.7650   47.4980 C   0  0  0  0  0  0  0  0  0  0  0  0
   46.9770   32.5910   45.7130 C   0  0  0  0  0  0  0  0  0  0  0  0
   44.4580   35.3480   45.5830 C   0  0  0  0  0  0  0  0  0  0  0  0
   44.5910   35.7750   44.2510 C   0  0  0  0  0  0  0  0  0  0  0  0
   45.5140   35.1300   43.4470 C   0  0  0  0  0  0  0  0  0  0  0  0
   46.2500   34.1220   43.9560 N   0  0  0  0  0  0  0  0  0  0  0  0
   46.1150   33.7110   45.2540 C   0  0  0  0  0  0  0  0  0  0  0  0
   45.2150   34.3480   46.0230 N   0  0  0  0  0  0  0  0  0  0  0  0
   44.5360   28.5600   47.2050 O   0  0  0  0  0  0  0  0  0  0  0  0
   44.5480   25.9650   46.9480 O   0  0  0  0  0  0  0  0  0  0  0  0
   45.0320   27.0820   47.8640 P   0  0  2  0  0  0  0  0  0  0  0  0
   44.3580   26.9230   49.3930 O   0  0  0  0  0  0  0  0  0  0  0  0
   46.7130   26.9540   47.9390 O   0  0  0  0  0  0  0  0  0  0  0  0
   47.5640   27.4240   46.9480 C   0  0  0  0  0  0  0  0  0  0  0  0
   48.4270   28.4610   47.2390 C   0  0  0  0  0  0  0  0  0  0  0  0
   49.2850   28.9530   46.2810 C   0  0  0  0  0  0  0  0  0  0  0  0
   49.3150   28.4310   44.9970 C   0  0  0  0  0  0  0  0  0  0  0  0
   48.4240   27.3810   44.7460 C   0  0  0  0  0  0  0  0  0  0  0  0
   47.5870   26.9060   45.6950 N   0  0  0  0  0  0  0  0  0  0  0  0
   46.8602   33.1128   48.2931 H   0  0  0  0  0  0  0  0  0  0  0  0
   45.8573   31.8106   50.1178 H   0  0  0  0  0  0  0  0  0  0  0  0
   44.7577   29.6518   49.6070 H   0  0  0  0  0  0  0  0  0  0  0  0
   47.8957   33.0153   46.1442 H   0  0  0  0  0  0  0  0  0  0  0  0
   47.1752   31.9599   44.8341 H   0  0  0  0  0  0  0  0  0  0  0  0
   43.7356   35.8358   46.2540 H   0  0  0  0  0  0  0  0  0  0  0  0
   43.9780   36.5996   43.8581 H   0  0  0  0  0  0  0  0  0  0  0  0
   45.6463   35.4378   42.3993 H   0  0  0  0  0  0  0  0  0  0  0  0
   45.0530   27.0870   50.0787 H   0  0  0  0  0  0  0  0  0  0  0  0
   48.4294   28.8995   48.2478 H   0  0  0  0  0  0  0  0  0  0  0  0
   49.9626   29.7797   46.5406 H   0  0  0  0  0  0  0  0  0  0  0  0
   49.9959   28.8175   44.2244 H   0  0  0  0  0  0  0  0  0  0  0  0
   48.4044   26.9278   43.7439 H   0  0  0  0  0  0  0  0  0  0  0  0
  1  2  1  0
  2  3  2  0
  2  7  1  0
  3  4  1  0
  4  5  2  0
  6  5  1  0
  7  6  2  0
  8  3  1  0
  9 14  2  0
 10  9  1  0
 11 12  1  0
 11 10  2  0
 12 13  2  0
 13  8  1  0
 13 14  1  0
 15  7  1  0
 15 17  1  0
 17 16  2  0
 17 19  1  0
 17 18  1  0
 20 21  2  0
 20 19  1  0
 22 21  1  0
 23 22  2  0
 24 23  1  0
 24 25  2  0
 25 20  1  0
  4 26  1  0
  5 27  1  0
  6 28  1  0
  8 29  1  0
  8 30  1  0
  9 31  1  0
 10 32  1  0
 11 33  1  0
 18 34  1  0
 21 35  1  0
 22 36  1  0
 23 37  1  0
 24 38  1  0
M  ISO  8  26  14  27  14  28  14  29   8  30   8  31  14  32  14  33  14
M  ISO  5  34   3  35  14  36  14  37  14  38  14
M  END
>  <minimizedAffinity>  (1) 
-4.90424728

>  <minimizedRMSD>  (1) 
0.918376386

$$$$
