
     RDKit          3D

 24 25  0  0  0  0  0  0  0  0999 V2000
   45.9370   33.2240   43.8840 C   0  0  0  0  0  0  0  0  0  0  0  0
   45.7850   35.5150   42.4070 F   0  0  0  0  0  0  0  0  0  0  0  0
   46.9610   34.8520   42.5380 C   0  0  0  0  0  0  0  0  0  0  0  0
   47.1790   33.6720   43.2580 C   0  0  0  0  0  0  0  0  0  0  0  0
   48.4680   33.1780   43.2460 C   0  0  0  0  0  0  0  0  0  0  0  0
   49.4790   33.8100   42.5640 C   0  0  0  0  0  0  0  0  0  0  0  0
   49.2740   34.9820   41.8450 C   0  0  0  0  0  0  0  0  0  0  0  0
   47.9850   35.4750   41.8580 C   0  0  0  0  0  0  0  0  0  0  0  0
   45.5420   33.9420   45.4640 S   0  0  0  0  0  0  0  0  0  0  0  0
   45.2520   32.7250   47.9210 C   0  0  0  0  0  0  0  0  0  0  0  0
   46.0320   32.7970   46.7790 C   0  0  0  0  0  0  0  0  0  0  0  0
   47.1570   32.0150   46.6330 C   0  0  0  0  0  0  0  0  0  0  0  0
   47.4610   31.1730   47.6600 N   0  0  0  0  0  0  0  0  0  0  0  0
   46.7010   31.1140   48.7520 C   0  0  0  0  0  0  0  0  0  0  0  0
   45.6170   31.8550   48.9150 N   0  0  0  0  0  0  0  0  0  0  0  0
   46.0047   32.1344   44.0193 H   0  0  0  0  0  0  0  0  0  0  0  0
   45.1344   33.5505   43.2063 H   0  0  0  0  0  0  0  0  0  0  0  0
   48.6916   32.2530   43.7977 H   0  0  0  0  0  0  0  0  0  0  0  0
   50.4880   33.3726   42.5876 H   0  0  0  0  0  0  0  0  0  0  0  0
   50.0872   35.4843   41.3005 H   0  0  0  0  0  0  0  0  0  0  0  0
   47.7667   36.4003   41.3046 H   0  0  0  0  0  0  0  0  0  0  0  0
   44.3562   33.3543   48.0283 H   0  0  0  0  0  0  0  0  0  0  0  0
   47.7811   32.0681   45.7287 H   0  0  0  0  0  0  0  0  0  0  0  0
   46.9872   30.4181   49.5544 H   0  0  0  0  0  0  0  0  0  0  0  0
  1  9  1  0
  2  3  1  0
  3  4  2  0
  4  1  1  0
  5  4  1  0
  6  5  2  0
  7  8  2  0
  7  6  1  0
  8  3  1  0
  9 11  1  0
 10 15  2  0
 11 10  1  0
 12 11  2  0
 12 13  1  0
 13 14  2  0
 14 15  1  0
  1 16  1  0
  1 17  1  0
  5 18  1  0
  6 19  1  0
  7 20  1  0
  8 21  1  0
 10 22  1  0
 12 23  1  0
 14 24  1  0
M  ISO  8  16   8  17   8  18  14  19  14  20  14  21  14  22  14  23  14
M  ISO  1  24  14
M  END
>  <minimizedAffinity>  (1) 
-4.44903088

>  <minimizedRMSD>  (1) 
4.0320096

$$$$
