
     RDKit          3D

 20 20  0  0  0  0  0  0  0  0999 V2000
   45.4740   34.1780   41.0720 S   0  0  0  0  0  0  0  0  0  0  0  0
   44.8210   35.8790   43.1640 C   0  0  0  0  0  0  0  0  0  0  0  0
   45.2050   34.5900   42.8140 C   0  0  0  0  0  0  0  0  0  0  0  0
   45.3810   33.6140   43.7880 C   0  0  0  0  0  0  0  0  0  0  0  0
   45.1610   33.9900   45.0790 N   0  0  0  0  0  0  0  0  0  0  0  0
   44.7940   35.2310   45.3940 C   0  0  0  0  0  0  0  0  0  0  0  0
   44.6190   36.1760   44.4800 N   0  0  0  0  0  0  0  0  0  0  0  0
   47.2140   34.3630   40.6850 C   0  0  0  0  0  0  0  0  0  0  0  0
   47.9100   35.0910   41.6720 O   0  0  0  0  0  0  0  0  0  0  0  0
   48.6670   33.1650   43.2670 O   0  0  0  0  0  0  0  0  0  0  0  0
   49.1820   34.2020   42.2940 P   0  0  0  0  0  0  0  0  0  0  0  0
   49.9460   33.4240   40.9830 O   0  0  0  0  0  0  0  0  0  0  0  0
   50.2790   35.1970   43.1420 O   0  0  0  0  0  0  0  0  0  0  0  0
   44.6819   36.6489   42.3907 H   0  0  0  0  0  0  0  0  0  0  0  0
   45.6831   32.5884   43.5292 H   0  0  0  0  0  0  0  0  0  0  0  0
   44.6298   35.4817   46.4524 H   0  0  0  0  0  0  0  0  0  0  0  0
   47.6651   33.3634   40.5996 H   0  0  0  0  0  0  0  0  0  0  0  0
   47.2898   34.9216   39.7404 H   0  0  0  0  0  0  0  0  0  0  0  0
   50.5967   32.7614   41.3261 H   0  0  0  0  0  0  0  0  0  0  0  0
   50.1476   35.0778   44.1160 H   0  0  0  0  0  0  0  0  0  0  0  0
  1  3  1  0
  2  7  2  0
  3  2  1  0
  3  4  2  0
  4  5  1  0
  5  6  2  0
  7  6  1  0
  8  1  1  0
  8  9  1  0
  9 11  1  0
 11 13  1  0
 11 10  2  0
 12 11  1  0
  2 14  1  0
  4 15  1  0
  6 16  1  0
  8 17  1  0
  8 18  1  0
 12 19  1  0
 13 20  1  0
M  ISO  7  14  14  15  14  16  14  17   8  18   8  19   3  20   3
M  END
>  <minimizedAffinity>  (1) 
-4.35988235

>  <minimizedRMSD>  (1) 
3.40246058

$$$$
