
     RDKit          3D

 15 15  0  0  0  0  0  0  0  0999 V2000
   44.2980   35.7420   44.2320 C   0  0  0  0  0  0  0  0  0  0  0  0
   44.5070   34.8840   43.1550 C   0  0  0  0  0  0  0  0  0  0  0  0
   45.1240   33.6650   43.3590 C   0  0  0  0  0  0  0  0  0  0  0  0
   45.5050   33.3550   44.6300 N   0  0  0  0  0  0  0  0  0  0  0  0
   45.2940   34.1920   45.6440 C   0  0  0  0  0  0  0  0  0  0  0  0
   44.7050   35.3660   45.4730 N   0  0  0  0  0  0  0  0  0  0  0  0
   43.9790   35.3530   41.4950 S   0  0  0  0  0  0  0  0  0  0  0  0
   42.1900   35.2810   41.3960 C   0  0  0  0  0  0  0  0  0  0  0  0
   41.7020   35.0840   39.6530 S   0  0  0  0  0  0  0  0  0  0  0  0
   43.8080   36.7150   44.0796 H   0  0  0  0  0  0  0  0  0  0  0  0
   45.3014   32.9696   42.5254 H   0  0  0  0  0  0  0  0  0  0  0  0
   45.6185   33.8997   46.6536 H   0  0  0  0  0  0  0  0  0  0  0  0
   41.8221   34.4253   41.9812 H   0  0  0  0  0  0  0  0  0  0  0  0
   41.7572   36.2075   41.8013 H   0  0  0  0  0  0  0  0  0  0  0  0
   40.4330   34.5717   39.5892 H   0  0  0  0  0  0  0  0  0  0  0  0
  1  6  2  0
  2  3  2  0
  2  1  1  0
  3  4  1  0
  4  5  2  0
  6  5  1  0
  7  2  1  0
  8  7  1  0
  9  8  1  0
  1 10  1  0
  3 11  1  0
  5 12  1  0
  8 13  1  0
  8 14  1  0
  9 15  1  0
M  ISO  6  10  14  11  14  12  14  13   8  14   8  15  11
M  END
>  <minimizedAffinity>  (1) 
-2.82952166

>  <minimizedRMSD>  (1) 
1.00226688

$$$$
