
     RDKit          3D

 50 53  0  0  0  0  0  0  0  0999 V2000
   44.6820   35.7800   44.8330 C   0  0  0  0  0  0  0  0  0  0  0  0
   44.0770   35.9700   43.5670 C   0  0  0  0  0  0  0  0  0  0  0  0
   44.1420   34.9160   42.6730 C   0  0  0  0  0  0  0  0  0  0  0  0
   44.7620   33.7740   43.0280 N   0  0  0  0  0  0  0  0  0  0  0  0
   45.3220   33.6460   44.2490 C   0  0  0  0  0  0  0  0  0  0  0  0
   45.2910   34.6140   45.1390 N   0  0  0  0  0  0  0  0  0  0  0  0
   45.9820   32.3620   44.5620 C   0  0  0  0  0  0  0  0  0  0  0  0
   46.7730   32.5210   45.8400 C   0  0  0  0  0  0  0  0  0  0  0  0
   46.1630   31.8080   46.9490 C   0  0  0  0  0  0  0  0  0  0  0  0
   45.3520   32.2750   47.9490 C   0  0  0  0  0  0  0  0  0  0  0  0
   44.8380   31.5120   48.9360 C   0  0  0  0  0  0  0  0  0  0  0  0
   45.1480   30.1640   48.9440 C   0  0  0  0  0  0  0  0  0  0  0  0
   45.9600   29.6760   47.9500 C   0  0  0  0  0  0  0  0  0  0  0  0
   46.4740   30.4760   46.9510 C   0  0  0  0  0  0  0  0  0  0  0  0
   48.6150   29.4340   46.5570 C   0  0  0  0  0  0  0  0  0  0  0  0
   49.3790   29.7870   47.5490 O   0  0  0  0  0  0  0  0  0  0  0  0
   47.2740   29.6430   46.0980 N   0  0  0  0  0  0  0  0  0  0  0  0
   43.5060   35.1380   41.3600 C   0  0  0  0  0  0  0  0  0  0  0  0
   42.0140   34.8470   41.3950 C   0  0  0  0  0  0  0  0  0  0  0  0
   41.5000   35.0190   40.0130 C   0  0  0  0  0  0  0  0  0  0  0  0
   42.2460   35.7420   39.1550 N   0  0  0  0  0  0  0  0  0  0  0  0
   41.8790   35.9240   37.8820 C   0  0  0  0  0  0  0  0  0  0  0  0
   40.7300   35.3920   37.3740 N   0  0  0  0  0  0  0  0  0  0  0  0
   39.9370   34.6490   38.2060 C   0  0  0  0  0  0  0  0  0  0  0  0
   38.7570   34.0810   37.7710 C   0  0  0  0  0  0  0  0  0  0  0  0
   37.9610   33.3410   38.6200 C   0  0  0  0  0  0  0  0  0  0  0  0
   38.3760   33.1790   39.9300 C   0  0  0  0  0  0  0  0  0  0  0  0
   39.5640   33.7340   40.4160 C   0  0  0  0  0  0  0  0  0  0  0  0
   40.3260   34.4690   39.5130 C   0  0  0  0  0  0  0  0  0  0  0  0
   44.6557   36.5911   45.5756 H   0  0  0  0  0  0  0  0  0  0  0  0
   43.5771   36.9144   43.3056 H   0  0  0  0  0  0  0  0  0  0  0  0
   45.2220   31.5776   44.6926 H   0  0  0  0  0  0  0  0  0  0  0  0
   46.6538   32.0763   43.7392 H   0  0  0  0  0  0  0  0  0  0  0  0
   47.7882   32.1285   45.6807 H   0  0  0  0  0  0  0  0  0  0  0  0
   46.7959   33.5908   46.0949 H   0  0  0  0  0  0  0  0  0  0  0  0
   45.1024   33.3463   47.9474 H   0  0  0  0  0  0  0  0  0  0  0  0
   44.1916   31.9490   49.7113 H   0  0  0  0  0  0  0  0  0  0  0  0
   44.7539   29.4995   49.7271 H   0  0  0  0  0  0  0  0  0  0  0  0
   46.2104   28.6049   47.9505 H   0  0  0  0  0  0  0  0  0  0  0  0
   49.1623   28.7792   45.8630 H   0  0  0  0  0  0  0  0  0  0  0  0
   46.9130   29.2292   45.2266 H   0  0  0  0  0  0  0  0  0  0  0  0
   43.9798   34.4770   40.6193 H   0  0  0  0  0  0  0  0  0  0  0  0
   43.6402   36.1962   41.0913 H   0  0  0  0  0  0  0  0  0  0  0  0
   41.8391   33.8161   41.7364 H   0  0  0  0  0  0  0  0  0  0  0  0
   41.5000   35.5273   42.0900 H   0  0  0  0  0  0  0  0  0  0  0  0
   42.5249   36.5224   37.2227 H   0  0  0  0  0  0  0  0  0  0  0  0
   38.4449   34.2213   36.7256 H   0  0  0  0  0  0  0  0  0  0  0  0
   37.0216   32.8917   38.2653 H   0  0  0  0  0  0  0  0  0  0  0  0
   37.7475   32.5913   40.6152 H   0  0  0  0  0  0  0  0  0  0  0  0
   39.8805   33.5963   41.4605 H   0  0  0  0  0  0  0  0  0  0  0  0
  1  6  2  0
  2  1  1  0
  3  4  1  0
  3  2  2  0
  4  5  2  0
  5  7  1  0
  5  6  1  0
  7  8  1  0
  8  9  1  0
  9 14  1  0
  9 10  2  0
 10 11  1  0
 11 12  2  0
 13 12  1  0
 14 13  2  0
 15 16  2  0
 17 15  1  0
 17 14  1  0
 18 19  1  0
 18  3  1  0
 20 19  1  0
 21 20  2  0
 22 21  1  0
 23 22  2  0
 23 24  1  0
 24 29  2  0
 25 24  1  0
 25 26  2  0
 26 27  1  0
 27 28  2  0
 29 20  1  0
 29 28  1  0
  1 30  1  0
  2 31  1  0
  7 32  1  0
  7 33  1  0
  8 34  1  0
  8 35  1  0
 10 36  1  0
 11 37  1  0
 12 38  1  0
 13 39  1  0
 15 40  1  0
 17 41  1  0
 18 42  1  0
 18 43  1  0
 19 44  1  0
 19 45  1  0
 22 46  1  0
 25 47  1  0
 26 48  1  0
 27 49  1  0
 28 50  1  0
M  ISO  8  30  14  31  14  32   8  33   8  34   8  35   8  36  14  37  14
M  ISO  8  38  14  39  14  40   6  42   8  43   8  44   8  45   8  46  14
M  ISO  4  47  14  48  14  49  14  50  14
M  END
>  <minimizedAffinity>  (1) 
-6.76455927

>  <minimizedRMSD>  (1) 
0.999670804

$$$$
