
     RDKit          3D

 24 24  0  0  0  0  0  0  0  0999 V2000
   42.8320   35.4890   41.3940 C   0  0  0  0  0  0  0  0  0  0  0  0
   43.1570   35.4960   42.8170 N   0  0  0  0  0  0  0  0  0  0  0  0
   44.8450   35.6850   43.0910 S   0  0  0  0  0  0  0  0  0  0  0  0
   45.6540   35.1580   41.9580 O   0  0  0  0  0  0  0  0  0  0  0  0
   45.0830   37.1720   43.2600 O   0  0  0  0  0  0  0  0  0  0  0  0
   45.2400   34.9700   44.5480 O   0  0  0  0  0  0  0  0  0  0  0  0
   44.5540   35.3190   45.7060 C   0  0  0  0  0  0  0  0  0  0  0  0
   44.5600   34.5120   46.6860 O   0  0  0  0  0  0  0  0  0  0  0  0
   42.1950   33.8460   41.0140 S   0  0  0  0  0  0  0  0  0  0  0  0
   39.5680   33.8010   40.1810 C   0  0  0  0  0  0  0  0  0  0  0  0
   40.8790   34.0150   39.7850 C   0  0  0  0  0  0  0  0  0  0  0  0
   41.1820   34.3540   38.4640 C   0  0  0  0  0  0  0  0  0  0  0  0
   40.1140   34.4520   37.6340 N   0  0  0  0  0  0  0  0  0  0  0  0
   38.8680   34.2450   38.0290 C   0  0  0  0  0  0  0  0  0  0  0  0
   38.5470   33.9200   39.2790 N   0  0  0  0  0  0  0  0  0  0  0  0
   42.0691   36.2508   41.1760 H   0  0  0  0  0  0  0  0  0  0  0  0
   43.7188   35.7193   40.7852 H   0  0  0  0  0  0  0  0  0  0  0  0
   42.6574   36.2754   43.2685 H   0  0  0  0  0  0  0  0  0  0  0  0
   46.4286   34.6534   42.3122 H   0  0  0  0  0  0  0  0  0  0  0  0
   45.1184   37.3930   44.2244 H   0  0  0  0  0  0  0  0  0  0  0  0
   44.0162   36.2763   45.7717 H   0  0  0  0  0  0  0  0  0  0  0  0
   39.3479   33.5343   41.2252 H   0  0  0  0  0  0  0  0  0  0  0  0
   42.2127   34.5288   38.1217 H   0  0  0  0  0  0  0  0  0  0  0  0
   38.0599   34.3463   37.2896 H   0  0  0  0  0  0  0  0  0  0  0  0
  1  2  1  0
  2  3  1  0
  3  5  1  0
  3  6  1  0
  4  3  1  0
  6  7  1  0
  7  8  2  0
  9  1  1  0
 11 10  2  0
 11  9  1  0
 12 11  1  0
 13 14  1  0
 13 12  2  0
 14 15  2  0
 15 10  1  0
  1 16  1  0
  1 17  1  0
  2 18  1  0
  4 19  1  0
  5 20  1  0
  7 21  1  0
 10 22  1  0
 12 23  1  0
 14 24  1  0
M  ISO  8  16   8  17   8  18   5  19   3  20   3  21   6  22  14  23  14
M  ISO  1  24  14
M  END
>  <minimizedAffinity>  (1) 
-4.22086143

>  <minimizedRMSD>  (1) 
0.961812258

$$$$
