
     RDKit          3D

 25 25  0  0  0  0  0  0  0  0999 V2000
   43.3610   35.4370   41.7020 C   0  0  0  0  0  0  0  0  0  0  0  0
   43.2260   35.5310   43.1520 N   0  0  0  0  0  0  0  0  0  0  0  0
   44.7220   35.8310   43.9380 S   0  0  0  0  0  0  0  0  0  0  0  0
   45.8720   35.2560   43.1850 O   0  0  0  0  0  0  0  0  0  0  0  0
   44.8560   37.3360   44.0290 O   0  0  0  0  0  0  0  0  0  0  0  0
   44.6650   35.2550   45.5000 O   0  0  0  0  0  0  0  0  0  0  0  0
   45.4000   34.0940   45.6650 C   0  0  0  0  0  0  0  0  0  0  0  0
   42.8110   33.7880   41.2370 S   0  0  0  0  0  0  0  0  0  0  0  0
   40.1240   33.1060   41.3250 C   0  0  0  0  0  0  0  0  0  0  0  0
   41.0920   33.8680   40.6900 C   0  0  0  0  0  0  0  0  0  0  0  0
   40.7580   34.7070   39.6220 C   0  0  0  0  0  0  0  0  0  0  0  0
   39.4470   34.7310   39.2480 N   0  0  0  0  0  0  0  0  0  0  0  0
   38.5400   33.9780   39.8880 C   0  0  0  0  0  0  0  0  0  0  0  0
   38.8380   33.1780   40.9010 N   0  0  0  0  0  0  0  0  0  0  0  0
   42.7346   36.1975   41.2129 H   0  0  0  0  0  0  0  0  0  0  0  0
   44.4015   35.6097   41.3896 H   0  0  0  0  0  0  0  0  0  0  0  0
   42.5773   36.2998   43.3735 H   0  0  0  0  0  0  0  0  0  0  0  0
   46.5486   34.9177   43.8237 H   0  0  0  0  0  0  0  0  0  0  0  0
   44.8802   37.6082   44.9805 H   0  0  0  0  0  0  0  0  0  0  0  0
   45.5286   33.8909   46.7384 H   0  0  0  0  0  0  0  0  0  0  0  0
   44.8689   33.2538   45.1939 H   0  0  0  0  0  0  0  0  0  0  0  0
   46.3867   34.2146   45.1939 H   0  0  0  0  0  0  0  0  0  0  0  0
   40.3962   32.4494   42.1645 H   0  0  0  0  0  0  0  0  0  0  0  0
   41.5157   35.3175   39.1090 H   0  0  0  0  0  0  0  0  0  0  0  0
   37.4931   34.0274   39.5539 H   0  0  0  0  0  0  0  0  0  0  0  0
  1  2  1  0
  2  3  1  0
  3  5  1  0
  3  6  1  0
  4  3  1  0
  6  7  1  0
  8  1  1  0
 10  8  1  0
 10  9  2  0
 11 10  1  0
 12 11  2  0
 12 13  1  0
 13 14  2  0
 14  9  1  0
  1 15  1  0
  1 16  1  0
  2 17  1  0
  4 18  1  0
  5 19  1  0
  7 20  1  0
  7 21  1  0
  7 22  1  0
  9 23  1  0
 11 24  1  0
 13 25  1  0
M  ISO  8  15   8  16   8  17   5  18   3  19   3  20   8  21   8  22   8
M  ISO  3  23  14  24  14  25  14
M  END
>  <minimizedAffinity>  (1) 
-4.54928017

>  <minimizedRMSD>  (1) 
1.3214165

$$$$
