
     RDKit          3D

 49 52  0  0  0  0  0  0  0  0999 V2000
   44.7280   35.7380   44.6390 C   0  0  0  0  0  0  0  0  0  0  0  0
   44.0570   35.8800   43.3950 C   0  0  0  0  0  0  0  0  0  0  0  0
   44.0500   34.7850   42.5660 C   0  0  0  0  0  0  0  0  0  0  0  0
   44.6590   33.6460   42.9470 N   0  0  0  0  0  0  0  0  0  0  0  0
   45.2820   33.5630   44.1390 C   0  0  0  0  0  0  0  0  0  0  0  0
   45.3240   34.5760   44.9760 N   0  0  0  0  0  0  0  0  0  0  0  0
   45.9280   32.2830   44.4870 C   0  0  0  0  0  0  0  0  0  0  0  0
   46.7320   32.4620   45.7490 C   0  0  0  0  0  0  0  0  0  0  0  0
   46.1450   31.7800   46.8820 C   0  0  0  0  0  0  0  0  0  0  0  0
   45.3890   32.2970   47.8980 C   0  0  0  0  0  0  0  0  0  0  0  0
   44.8830   31.5570   48.9190 C   0  0  0  0  0  0  0  0  0  0  0  0
   45.1480   30.2020   48.9330 C   0  0  0  0  0  0  0  0  0  0  0  0
   45.9070   29.6680   47.9180 C   0  0  0  0  0  0  0  0  0  0  0  0
   46.4090   30.4400   46.8930 C   0  0  0  0  0  0  0  0  0  0  0  0
   48.5150   29.3360   46.4220 C   0  0  0  0  0  0  0  0  0  0  0  0
   49.3230   29.6910   47.3680 O   0  0  0  0  0  0  0  0  0  0  0  0
   47.1500   29.5730   46.0180 N   0  0  0  0  0  0  0  0  0  0  0  0
   43.3450   34.9450   41.2680 C   0  0  0  0  0  0  0  0  0  0  0  0
   42.0930   35.7890   41.4140 C   0  0  0  0  0  0  0  0  0  0  0  0
   40.2060   34.0800   41.5540 C   0  0  0  0  0  0  0  0  0  0  0  0
   40.9860   34.9720   40.8470 C   0  0  0  0  0  0  0  0  0  0  0  0
   40.7820   35.1820   39.4790 C   0  0  0  0  0  0  0  0  0  0  0  0
   39.8020   34.5050   38.8140 C   0  0  0  0  0  0  0  0  0  0  0  0
   39.3530   34.4680   37.5500 N   0  0  0  0  0  0  0  0  0  0  0  0
   38.3400   33.5870   37.4960 C   0  0  0  0  0  0  0  0  0  0  0  0
   38.1090   33.0330   38.7220 N   0  0  0  0  0  0  0  0  0  0  0  0
   39.0230   33.6110   39.5280 C   0  0  0  0  0  0  0  0  0  0  0  0
   39.1980   33.3770   40.8930 C   0  0  0  0  0  0  0  0  0  0  0  0
   44.7620   36.5875   45.3370 H   0  0  0  0  0  0  0  0  0  0  0  0
   43.5664   36.8221   43.1093 H   0  0  0  0  0  0  0  0  0  0  0  0
   45.1582   31.5137   44.6470 H   0  0  0  0  0  0  0  0  0  0  0  0
   46.5908   31.9682   43.6675 H   0  0  0  0  0  0  0  0  0  0  0  0
   47.7434   32.0628   45.5824 H   0  0  0  0  0  0  0  0  0  0  0  0
   46.7543   33.5370   45.9811 H   0  0  0  0  0  0  0  0  0  0  0  0
   45.1781   33.3765   47.8878 H   0  0  0  0  0  0  0  0  0  0  0  0
   44.2797   32.0239   49.7115 H   0  0  0  0  0  0  0  0  0  0  0  0
   44.7599   29.5626   49.7396 H   0  0  0  0  0  0  0  0  0  0  0  0
   46.1204   28.5889   47.9247 H   0  0  0  0  0  0  0  0  0  0  0  0
   49.0152   28.6532   45.7195 H   0  0  0  0  0  0  0  0  0  0  0  0
   46.7397   29.1546   45.1709 H   0  0  0  0  0  0  0  0  0  0  0  0
   43.0637   33.9512   40.8895 H   0  0  0  0  0  0  0  0  0  0  0  0
   44.0238   35.4539   40.5678 H   0  0  0  0  0  0  0  0  0  0  0  0
   41.9016   36.0104   42.4744 H   0  0  0  0  0  0  0  0  0  0  0  0
   42.1918   36.7537   40.8947 H   0  0  0  0  0  0  0  0  0  0  0  0
   40.3773   33.9244   42.6294 H   0  0  0  0  0  0  0  0  0  0  0  0
   41.4162   35.8980   38.9358 H   0  0  0  0  0  0  0  0  0  0  0  0
   39.7202   35.0180   36.7604 H   0  0  0  0  0  0  0  0  0  0  0  0
   37.7726   33.3445   36.5854 H   0  0  0  0  0  0  0  0  0  0  0  0
   38.5606   32.6601   41.4313 H   0  0  0  0  0  0  0  0  0  0  0  0
  1  6  2  0
  2  1  1  0
  3  4  1  0
  3  2  2  0
  4  5  2  0
  5  7  1  0
  5  6  1  0
  7  8  1  0
  8  9  1  0
  9 14  1  0
  9 10  2  0
 10 11  1  0
 11 12  2  0
 13 12  1  0
 14 13  2  0
 15 16  2  0
 17 15  1  0
 17 14  1  0
 18 19  1  0
 18  3  1  0
 21 19  1  0
 21 20  2  0
 22 21  1  0
 23 22  2  0
 23 27  1  0
 24 23  1  0
 25 24  1  0
 25 26  2  0
 26 27  1  0
 27 28  2  0
 28 20  1  0
  1 29  1  0
  2 30  1  0
  7 31  1  0
  7 32  1  0
  8 33  1  0
  8 34  1  0
 10 35  1  0
 11 36  1  0
 12 37  1  0
 13 38  1  0
 15 39  1  0
 17 40  1  0
 18 41  1  0
 18 42  1  0
 19 43  1  0
 19 44  1  0
 20 45  1  0
 22 46  1  0
 24 47  1  0
 25 48  1  0
 28 49  1  0
M  ISO  8  29  14  30  14  31   8  32   8  33   8  34   8  35  14  36  14
M  ISO  8  37  14  38  14  39   6  41   8  42   8  43   8  44   8  45  14
M  ISO  4  46  14  47   9  48  14  49  14
M  END
>  <minimizedAffinity>  (1) 
-6.37743664

>  <minimizedRMSD>  (1) 
2.3480382

$$$$
