
     RDKit          3D

 35 36  0  0  0  0  0  0  0  0999 V2000
   43.5770   33.2430   41.9070 C   0  0  0  0  0  0  0  0  0  0  0  0
   44.1720   34.4820   42.1250 C   0  0  0  0  0  0  0  0  0  0  0  0
   43.6440   35.6500   41.5820 C   0  0  0  0  0  0  0  0  0  0  0  0
   42.5160   35.5220   40.8260 N   0  0  0  0  0  0  0  0  0  0  0  0
   41.9650   34.3250   40.6320 C   0  0  0  0  0  0  0  0  0  0  0  0
   42.4500   33.1880   41.1390 N   0  0  0  0  0  0  0  0  0  0  0  0
   40.7800   34.0900   39.8530 N   0  0  0  0  0  0  0  0  0  0  0  0
   40.9080   34.4450   38.5610 C   0  0  0  0  0  0  0  0  0  0  0  0
   39.7900   34.2430   37.7470 C   0  0  0  0  0  0  0  0  0  0  0  0
   38.6430   33.6980   38.3270 C   0  0  0  0  0  0  0  0  0  0  0  0
   37.6450   33.5200   37.5900 O   0  0  0  0  0  0  0  0  0  0  0  0
   38.5640   33.3580   39.6360 N   0  0  0  0  0  0  0  0  0  0  0  0
   39.6640   33.5660   40.3920 C   0  0  0  0  0  0  0  0  0  0  0  0
   39.6880   33.2830   41.6120 O   0  0  0  0  0  0  0  0  0  0  0  0
   45.6700   34.5770   43.1410 S   0  0  0  0  0  0  0  0  0  0  0  0
   45.2220   34.4340   44.8730 C   0  0  0  0  0  0  0  0  0  0  0  0
   45.4150   33.0310   45.2480 N   0  0  0  0  0  0  0  0  0  0  0  0
   45.7410   32.8420   46.9230 S   0  0  0  0  0  0  0  0  0  0  0  0
   47.1020   33.3290   47.2970 O   0  0  0  0  0  0  0  0  0  0  0  0
   44.6750   33.6560   47.6380 O   0  0  0  0  0  0  0  0  0  0  0  0
   45.5110   31.2500   47.3710 O   0  0  0  0  0  0  0  0  0  0  0  0
   45.0050   31.1410   48.6520 C   0  0  0  0  0  0  0  0  0  0  0  0
   44.0052   32.3287   42.3437 H   0  0  0  0  0  0  0  0  0  0  0  0
   44.1141   36.6294   41.7544 H   0  0  0  0  0  0  0  0  0  0  0  0
   41.8424   34.8712   38.1669 H   0  0  0  0  0  0  0  0  0  0  0  0
   39.8132   34.5061   36.6792 H   0  0  0  0  0  0  0  0  0  0  0  0
   37.7034   32.9586   40.0370 H   0  0  0  0  0  0  0  0  0  0  0  0
   45.8670   35.0814   45.4853 H   0  0  0  0  0  0  0  0  0  0  0  0
   44.1799   34.7457   45.0372 H   0  0  0  0  0  0  0  0  0  0  0  0
   44.5600   32.5056   45.0158 H   0  0  0  0  0  0  0  0  0  0  0  0
   47.1827   33.3579   48.2833 H   0  0  0  0  0  0  0  0  0  0  0  0
   44.7925   33.5663   48.6169 H   0  0  0  0  0  0  0  0  0  0  0  0
   45.8107   31.3146   49.3805 H   0  0  0  0  0  0  0  0  0  0  0  0
   44.2116   31.8888   48.7977 H   0  0  0  0  0  0  0  0  0  0  0  0
   44.5898   30.1328   48.7977 H   0  0  0  0  0  0  0  0  0  0  0  0
  1  2  2  0
  2 15  1  0
  3  2  1  0
  4  3  2  0
  5  4  1  0
  5  6  2  0
  6  1  1  0
  7 13  1  0
  7  5  1  0
  8  7  1  0
  9 10  1  0
  9  8  2  0
 10 12  1  0
 11 10  2  0
 12 13  1  0
 13 14  2  0
 15 16  1  0
 16 17  1  0
 17 18  1  0
 18 19  1  0
 18 21  1  0
 18 20  1  0
 21 22  1  0
  1 23  1  0
  3 24  1  0
  8 25  1  0
  9 26  1  0
 12 27  1  0
 16 28  1  0
 16 29  1  0
 17 30  1  0
 19 31  1  0
 20 32  1  0
 22 33  1  0
 22 34  1  0
 22 35  1  0
M  ISO  8  23  14  24  14  25  14  26  14  27   9  28   8  29   8  30   5
M  ISO  5  31   3  32   3  33   8  34   8  35   8
M  END
>  <minimizedAffinity>  (1) 
-6.29487038

>  <minimizedRMSD>  (1) 
3.97188759

$$$$
