
     RDKit          3D

 34 35  0  0  0  0  0  0  0  0999 V2000
   43.6970   33.3350   41.8280 S   0  0  0  0  0  0  0  0  0  0  0  0
   41.7680   31.6340   40.7800 C   0  0  0  0  0  0  0  0  0  0  0  0
   42.7320   32.5770   40.5000 C   0  0  0  0  0  0  0  0  0  0  0  0
   42.9840   32.9650   39.1900 C   0  0  0  0  0  0  0  0  0  0  0  0
   42.2510   32.3860   38.2080 N   0  0  0  0  0  0  0  0  0  0  0  0
   41.3130   31.4650   38.5200 C   0  0  0  0  0  0  0  0  0  0  0  0
   41.0590   31.0820   39.7690 N   0  0  0  0  0  0  0  0  0  0  0  0
   40.5260   30.8450   37.4510 C   0  0  0  0  0  0  0  0  0  0  0  0
   41.1050   29.9760   36.5500 C   0  0  0  0  0  0  0  0  0  0  0  0
   40.4180   29.3600   35.5250 C   0  0  0  0  0  0  0  0  0  0  0  0
   39.0520   29.6290   35.3860 C   0  0  0  0  0  0  0  0  0  0  0  0
   38.4850   30.5100   36.3050 C   0  0  0  0  0  0  0  0  0  0  0  0
   39.1940   31.0910   37.2940 N   0  0  0  0  0  0  0  0  0  0  0  0
   43.5420   35.1290   41.7200 C   0  0  0  0  0  0  0  0  0  0  0  0
   43.3290   35.6230   43.0660 N   0  0  0  0  0  0  0  0  0  0  0  0
   44.7850   35.9150   43.9190 S   0  0  0  0  0  0  0  0  0  0  0  0
   45.9780   35.4660   43.1430 O   0  0  0  0  0  0  0  0  0  0  0  0
   44.8560   37.4200   44.1290 O   0  0  0  0  0  0  0  0  0  0  0  0
   44.7310   35.2060   45.4150 O   0  0  0  0  0  0  0  0  0  0  0  0
   45.4550   34.0310   45.4820 C   0  0  0  0  0  0  0  0  0  0  0  0
   41.5758   31.3315   41.8200 H   0  0  0  0  0  0  0  0  0  0  0  0
   43.7526   33.7168   38.9576 H   0  0  0  0  0  0  0  0  0  0  0  0
   42.1787   29.7614   36.6552 H   0  0  0  0  0  0  0  0  0  0  0  0
   40.9310   28.6746   34.8343 H   0  0  0  0  0  0  0  0  0  0  0  0
   38.4530   29.1663   34.5878 H   0  0  0  0  0  0  0  0  0  0  0  0
   37.4130   30.7414   36.2199 H   0  0  0  0  0  0  0  0  0  0  0  0
   44.4622   35.5622   41.3009 H   0  0  0  0  0  0  0  0  0  0  0  0
   42.7047   35.4096   41.0642 H   0  0  0  0  0  0  0  0  0  0  0  0
   42.8001   36.5051   43.0106 H   0  0  0  0  0  0  0  0  0  0  0  0
   46.6961   35.1958   43.7687 H   0  0  0  0  0  0  0  0  0  0  0  0
   44.8653   37.6178   45.0990 H   0  0  0  0  0  0  0  0  0  0  0  0
   45.6207   33.7620   46.5357 H   0  0  0  0  0  0  0  0  0  0  0  0
   44.8957   33.2266   44.9818 H   0  0  0  0  0  0  0  0  0  0  0  0
   46.4250   34.1689   44.9818 H   0  0  0  0  0  0  0  0  0  0  0  0
  3  2  2  0
  3  1  1  0
  4  3  1  0
  5  6  1  0
  5  4  2  0
  6  7  2  0
  7  2  1  0
  8  6  1  0
  9  8  2  0
 10  9  1  0
 11 10  2  0
 11 12  1  0
 12 13  2  0
 13  8  1  0
 14  1  1  0
 14 15  1  0
 15 16  1  0
 16 18  1  0
 16 19  1  0
 17 16  1  0
 19 20  1  0
  2 21  1  0
  4 22  1  0
  9 23  1  0
 10 24  1  0
 11 25  1  0
 12 26  1  0
 14 27  1  0
 14 28  1  0
 15 29  1  0
 17 30  1  0
 18 31  1  0
 20 32  1  0
 20 33  1  0
 20 34  1  0
M  ISO  8  21  14  22  14  23  14  24  14  25  14  26  14  27   8  28   8
M  ISO  6  29   5  30   3  31   3  32   8  33   8  34   8
M  END
>  <minimizedAffinity>  (1) 
-4.28029966

>  <minimizedRMSD>  (1) 
3.81949329

$$$$
