
     RDKit          3D

 22 23  0  0  0  0  0  0  0  0999 V2000
   45.4000   36.0260   43.2710 C   0  0  0  0  0  0  0  0  0  0  0  0
   46.1730   34.8750   43.1580 C   0  0  0  0  0  0  0  0  0  0  0  0
   46.1350   33.9670   44.2020 C   0  0  0  0  0  0  0  0  0  0  0  0
   45.3520   34.2370   45.2770 N   0  0  0  0  0  0  0  0  0  0  0  0
   44.6010   35.3720   45.3680 C   0  0  0  0  0  0  0  0  0  0  0  0
   44.6290   36.2680   44.3570 N   0  0  0  0  0  0  0  0  0  0  0  0
   46.9220   32.7410   44.1450 C   0  0  0  0  0  0  0  0  0  0  0  0
   46.7420   31.9510   45.2860 C   0  0  0  0  0  0  0  0  0  0  0  0
   47.4070   30.7470   45.4130 C   0  0  0  0  0  0  0  0  0  0  0  0
   48.2470   30.3510   44.3930 C   0  0  0  0  0  0  0  0  0  0  0  0
   48.4370   31.1150   43.2650 C   0  0  0  0  0  0  0  0  0  0  0  0
   47.7690   32.3150   43.1430 C   0  0  0  0  0  0  0  0  0  0  0  0
   46.9600   34.6780   41.9900 C   0  0  0  0  0  0  0  0  0  0  0  0
   47.9010   35.4610   41.7630 O   0  0  0  0  0  0  0  0  0  0  0  0
   45.4157   36.7616   42.4533 H   0  0  0  0  0  0  0  0  0  0  0  0
   43.9785   35.5561   46.2560 H   0  0  0  0  0  0  0  0  0  0  0  0
   46.0675   32.2906   46.0858 H   0  0  0  0  0  0  0  0  0  0  0  0
   47.2701   30.1192   46.3058 H   0  0  0  0  0  0  0  0  0  0  0  0
   48.7818   29.3941   44.4845 H   0  0  0  0  0  0  0  0  0  0  0  0
   49.1145   30.7723   42.4690 H   0  0  0  0  0  0  0  0  0  0  0  0
   47.9118   32.9339   42.2449 H   0  0  0  0  0  0  0  0  0  0  0  0
   46.7415   33.8495   41.3002 H   0  0  0  0  0  0  0  0  0  0  0  0
  1  6  2  0
  2  1  1  0
  2  3  2  0
  3  4  1  0
  4  5  2  0
  6  5  1  0
  7  3  1  0
  7  8  2  0
  8  9  1  0
 10  9  2  0
 11 10  1  0
 12 11  2  0
 12  7  1  0
 13  2  1  0
 14 13  2  0
  1 15  1  0
  5 16  1  0
  8 17  1  0
  9 18  1  0
 10 19  1  0
 11 20  1  0
 12 21  1  0
 13 22  1  0
M  ISO  8  15  14  16  14  17  14  18  14  19  14  20  14  21  14  22   6
M  END
>  <minimizedAffinity>  (1) 
-4.06054783

>  <minimizedRMSD>  (1) 
0.442898512

$$$$
