
     RDKit          3D

 22 23  0  0  0  0  0  0  0  0999 V2000
   45.3590   36.1840   43.1750 C   0  0  0  0  0  0  0  0  0  0  0  0
   45.9590   34.9660   42.9050 C   0  0  0  0  0  0  0  0  0  0  0  0
   45.8620   33.9790   43.8630 C   0  0  0  0  0  0  0  0  0  0  0  0
   45.1870   34.2270   45.0330 N   0  0  0  0  0  0  0  0  0  0  0  0
   44.6110   35.4560   45.2480 C   0  0  0  0  0  0  0  0  0  0  0  0
   44.7080   36.4270   44.3040 N   0  0  0  0  0  0  0  0  0  0  0  0
   43.9110   32.1640   42.5750 Cl  0  0  0  0  0  0  0  0  0  0  0  0
   45.5130   31.7430   43.2010 C   0  0  0  0  0  0  0  0  0  0  0  0
   46.3910   32.6320   43.8160 C   0  0  0  0  0  0  0  0  0  0  0  0
   47.6050   32.1030   44.2550 C   0  0  0  0  0  0  0  0  0  0  0  0
   47.9320   30.7790   44.0960 C   0  0  0  0  0  0  0  0  0  0  0  0
   47.0590   29.9130   43.4850 C   0  0  0  0  0  0  0  0  0  0  0  0
   45.8480   30.4020   43.0420 C   0  0  0  0  0  0  0  0  0  0  0  0
   46.6660   34.7120   41.6720 C   0  0  0  0  0  0  0  0  0  0  0  0
   47.8440   35.1530   41.5700 O   0  0  0  0  0  0  0  0  0  0  0  0
   45.4251   36.9830   42.4218 H   0  0  0  0  0  0  0  0  0  0  0  0
   44.0709   35.6533   46.1857 H   0  0  0  0  0  0  0  0  0  0  0  0
   48.3270   32.7715   44.7468 H   0  0  0  0  0  0  0  0  0  0  0  0
   48.9014   30.4090   44.4611 H   0  0  0  0  0  0  0  0  0  0  0  0
   47.3198   28.8527   43.3518 H   0  0  0  0  0  0  0  0  0  0  0  0
   45.1351   29.7205   42.5548 H   0  0  0  0  0  0  0  0  0  0  0  0
   46.1942   34.1535   40.8501 H   0  0  0  0  0  0  0  0  0  0  0  0
  1  6  2  0
  2  1  1  0
  2  3  2  0
  3  4  1  0
  4  5  2  0
  6  5  1  0
  7  8  1  0
  8  9  2  0
  9  3  1  0
  9 10  1  0
 11 10  2  0
 12 11  1  0
 13  8  1  0
 13 12  2  0
 14  2  1  0
 15 14  2  0
  1 16  1  0
  5 17  1  0
 10 18  1  0
 11 19  1  0
 12 20  1  0
 13 21  1  0
 14 22  1  0
M  ISO  7  16  14  17  14  18  14  19  14  20  14  21  14  22   6
M  END
>  <minimizedAffinity>  (1) 
-3.77744198

>  <minimizedRMSD>  (1) 
1.13403606

$$$$
