
     RDKit          3D

 19 20  0  0  0  0  0  0  0  0999 V2000
   45.4140   36.0960   43.2150 C   0  0  0  0  0  0  0  0  0  0  0  0
   46.1590   34.9180   43.1060 C   0  0  0  0  0  0  0  0  0  0  0  0
   46.0610   34.0300   44.1580 C   0  0  0  0  0  0  0  0  0  0  0  0
   45.2850   34.2980   45.2250 N   0  0  0  0  0  0  0  0  0  0  0  0
   44.5700   35.4640   45.2950 C   0  0  0  0  0  0  0  0  0  0  0  0
   44.6470   36.3490   44.2840 N   0  0  0  0  0  0  0  0  0  0  0  0
   46.7780   32.8210   44.1260 C   0  0  0  0  0  0  0  0  0  0  0  0
   47.4870   32.1910   43.0900 C   0  0  0  0  0  0  0  0  0  0  0  0
   48.0910   31.0050   43.3640 C   0  0  0  0  0  0  0  0  0  0  0  0
   47.9770   30.4760   44.6490 C   0  0  0  0  0  0  0  0  0  0  0  0
   46.9380   31.7400   45.5650 S   0  0  0  0  0  0  0  0  0  0  0  0
   46.9660   34.6760   41.9600 C   0  0  0  0  0  0  0  0  0  0  0  0
   47.9560   35.4120   41.7530 O   0  0  0  0  0  0  0  0  0  0  0  0
   45.4588   36.8349   42.4013 H   0  0  0  0  0  0  0  0  0  0  0  0
   43.9381   35.6754   46.1702 H   0  0  0  0  0  0  0  0  0  0  0  0
   47.5512   32.6431   42.0892 H   0  0  0  0  0  0  0  0  0  0  0  0
   48.6590   30.4725   42.5869 H   0  0  0  0  0  0  0  0  0  0  0  0
   48.3983   29.5362   45.0354 H   0  0  0  0  0  0  0  0  0  0  0  0
   46.7238   33.8560   41.2679 H   0  0  0  0  0  0  0  0  0  0  0  0
  1  6  2  0
  2  1  1  0
  2  3  2  0
  3  4  1  0
  4  5  2  0
  6  5  1  0
  7  3  1  0
  7 11  1  0
  8  9  1  0
  8  7  2  0
  9 10  2  0
 10 11  1  0
 12  2  1  0
 13 12  2  0
  1 14  1  0
  5 15  1  0
  8 16  1  0
  9 17  1  0
 10 18  1  0
 12 19  1  0
M  ISO  6  14  14  15  14  16  14  17  14  18  14  19   6
M  END
>  <minimizedAffinity>  (1) 
-3.74299121

>  <minimizedRMSD>  (1) 
0.442411095

$$$$
