
     RDKit          3D

 23 24  0  0  0  0  0  0  0  0999 V2000
   45.2630   36.1900   43.2390 C   0  0  0  0  0  0  0  0  0  0  0  0
   45.9040   34.9760   42.9270 C   0  0  0  0  0  0  0  0  0  0  0  0
   45.8600   34.0180   43.9160 C   0  0  0  0  0  0  0  0  0  0  0  0
   45.2420   34.2300   45.1060 N   0  0  0  0  0  0  0  0  0  0  0  0
   44.6330   35.4210   45.3650 C   0  0  0  0  0  0  0  0  0  0  0  0
   44.6500   36.3930   44.4260 N   0  0  0  0  0  0  0  0  0  0  0  0
   46.4660   32.7810   43.7050 C   0  0  0  0  0  0  0  0  0  0  0  0
   47.7370   32.3010   43.8520 C   0  0  0  0  0  0  0  0  0  0  0  0
   48.1160   31.0680   43.5830 C   0  0  0  0  0  0  0  0  0  0  0  0
   47.1250   30.2350   43.1240 C   0  0  0  0  0  0  0  0  0  0  0  0
   45.6360   31.3260   43.1050 S   0  0  0  0  0  0  0  0  0  0  0  0
   46.5160   34.7940   41.6640 C   0  0  0  0  0  0  0  0  0  0  0  0
   47.7780   35.0260   41.6400 O   0  0  0  0  0  0  0  0  0  0  0  0
   44.2540   34.2380   41.0780 C   0  0  0  0  0  0  0  0  0  0  0  0
   43.8840   34.4420   42.2850 O   0  0  0  0  0  0  0  0  0  0  0  0
   45.6110   34.3820   40.5940 N   0  0  0  0  0  0  0  0  0  0  0  0
   45.2611   36.9986   42.4932 H   0  0  0  0  0  0  0  0  0  0  0  0
   44.1320   35.5899   46.3296 H   0  0  0  0  0  0  0  0  0  0  0  0
   48.5028   32.9977   44.2236 H   0  0  0  0  0  0  0  0  0  0  0  0
   49.1540   30.7293   43.7167 H   0  0  0  0  0  0  0  0  0  0  0  0
   47.2003   29.1756   42.8375 H   0  0  0  0  0  0  0  0  0  0  0  0
   43.4848   33.9305   40.3543 H   0  0  0  0  0  0  0  0  0  0  0  0
   45.9011   34.2153   39.6199 H   0  0  0  0  0  0  0  0  0  0  0  0
  1  6  2  0
  2  1  1  0
  2  3  2  0
  3  4  1  0
  4  5  2  0
  6  5  1  0
  7  8  2  0
  7  3  1  0
  9  8  1  0
 10  9  2  0
 11 10  1  0
 11  7  1  0
 12  2  1  0
 13 12  2  0
 14 15  2  0
 16 14  1  0
 16 12  1  0
  1 17  1  0
  5 18  1  0
  8 19  1  0
  9 20  1  0
 10 21  1  0
 14 22  1  0
 16 23  1  0
M  ISO  6  17  14  18  14  19  14  20  14  21  14  22   6
M  END
>  <minimizedAffinity>  (1) 
-4.35522509

>  <minimizedRMSD>  (1) 
0.98671186

$$$$
