
     RDKit          3D

 26 28  0  0  0  0  0  0  0  0999 V2000
   45.2290   36.1850   43.4920 C   0  0  0  0  0  0  0  0  0  0  0  0
   45.8680   34.9750   43.1570 C   0  0  0  0  0  0  0  0  0  0  0  0
   45.8050   33.9900   44.1360 C   0  0  0  0  0  0  0  0  0  0  0  0
   45.1790   34.1730   45.3190 N   0  0  0  0  0  0  0  0  0  0  0  0
   44.5750   35.3670   45.5900 C   0  0  0  0  0  0  0  0  0  0  0  0
   44.6040   36.3620   44.6790 N   0  0  0  0  0  0  0  0  0  0  0  0
   46.4140   32.7640   43.8920 C   0  0  0  0  0  0  0  0  0  0  0  0
   47.6900   32.2770   44.0140 C   0  0  0  0  0  0  0  0  0  0  0  0
   48.0550   31.0410   43.7060 C   0  0  0  0  0  0  0  0  0  0  0  0
   47.0560   30.2250   43.2390 C   0  0  0  0  0  0  0  0  0  0  0  0
   45.5670   31.3300   43.2670 S   0  0  0  0  0  0  0  0  0  0  0  0
   46.4870   34.8230   41.8950 C   0  0  0  0  0  0  0  0  0  0  0  0
   47.6910   35.2430   41.8360 O   0  0  0  0  0  0  0  0  0  0  0  0
   45.7520   34.2180   40.7430 C   0  0  0  0  0  0  0  0  0  0  0  0
   44.4030   34.3360   40.4830 C   0  0  0  0  0  0  0  0  0  0  0  0
   44.1920   33.6340   39.3540 N   0  0  0  0  0  0  0  0  0  0  0  0
   45.3800   33.1050   38.9410 C   0  0  0  0  0  0  0  0  0  0  0  0
   46.3480   33.4680   39.8050 N   0  0  0  0  0  0  0  0  0  0  0  0
   45.2384   37.0115   42.7662 H   0  0  0  0  0  0  0  0  0  0  0  0
   44.0640   35.5181   46.5523 H   0  0  0  0  0  0  0  0  0  0  0  0
   48.4643   32.9597   44.3939 H   0  0  0  0  0  0  0  0  0  0  0  0
   49.0921   30.6918   43.8176 H   0  0  0  0  0  0  0  0  0  0  0  0
   47.1220   29.1729   42.9249 H   0  0  0  0  0  0  0  0  0  0  0  0
   43.6567   34.8875   41.0736 H   0  0  0  0  0  0  0  0  0  0  0  0
   43.2848   33.5159   38.8807 H   0  0  0  0  0  0  0  0  0  0  0  0
   45.5243   32.4820   38.0460 H   0  0  0  0  0  0  0  0  0  0  0  0
  1  6  2  0
  2  1  1  0
  2  3  2  0
  3  4  1  0
  4  5  2  0
  6  5  1  0
  7  8  2  0
  7  3  1  0
  9  8  1  0
 10 11  1  0
 10  9  2  0
 11  7  1  0
 12  2  1  0
 13 12  2  0
 14 12  1  0
 15 14  2  0
 16 15  1  0
 17 16  1  0
 17 18  2  0
 18 14  1  0
  1 19  1  0
  5 20  1  0
  8 21  1  0
  9 22  1  0
 10 23  1  0
 15 24  1  0
 16 25  1  0
 17 26  1  0
M  ISO  8  19  14  20  14  21  14  22  14  23  14  24  14  25   9  26  14
M  END
>  <minimizedAffinity>  (1) 
-4.26591253

>  <minimizedRMSD>  (1) 
1.09052396

$$$$
