
     RDKit          3D

 43 46  0  0  1  0  0  0  0  0999 V2000
   46.1170   34.1910   40.7460 C   0  0  0  0  0  0  0  0  0  0  0  0
   44.7710   34.1390   40.4560 C   0  0  0  0  0  0  0  0  0  0  0  0
   44.6750   33.4510   39.3040 N   0  0  0  0  0  0  0  0  0  0  0  0
   45.9370   33.0930   38.9020 C   0  0  0  0  0  0  0  0  0  0  0  0
   46.8270   33.5530   39.7980 N   0  0  0  0  0  0  0  0  0  0  0  0
   46.8140   33.2020   36.5900 C   0  0  1  0  0  0  0  0  0  0  0  0
   46.3940   32.3290   37.7080 C   0  0  1  0  0  0  0  0  0  0  0  0
   47.2900   31.3740   38.1130 O   0  0  0  0  0  0  0  0  0  0  0  0
   48.5600   31.4580   37.5970 C   0  0  0  0  0  0  0  0  0  0  0  0
   49.0690   32.8720   37.6560 C   0  0  2  0  0  0  0  0  0  0  0  0
   48.2510   33.6550   36.6430 C   0  0  1  0  0  0  0  0  0  0  0  0
   46.4960   32.6100   35.3450 O   0  0  0  0  0  0  0  0  0  0  0  0
   50.4010   32.8380   37.1890 O   0  0  0  0  0  0  0  0  0  0  0  0
   48.8170   33.3790   35.3990 O   0  0  0  0  0  0  0  0  0  0  0  0
   46.7460   34.8540   41.9400 C   0  0  0  0  0  0  0  0  0  0  0  0
   47.9250   35.3150   41.9420 O   0  0  0  0  0  0  0  0  0  0  0  0
   45.3670   36.1960   43.4450 C   0  0  0  0  0  0  0  0  0  0  0  0
   46.0130   34.9910   43.1480 C   0  0  0  0  0  0  0  0  0  0  0  0
   45.8710   33.9860   44.1070 C   0  0  0  0  0  0  0  0  0  0  0  0
   45.1660   34.1720   45.2310 N   0  0  0  0  0  0  0  0  0  0  0  0
   44.5570   35.3670   45.4700 C   0  0  0  0  0  0  0  0  0  0  0  0
   44.6600   36.3650   44.5820 N   0  0  0  0  0  0  0  0  0  0  0  0
   46.4920   32.7480   43.8840 C   0  0  0  0  0  0  0  0  0  0  0  0
   47.7600   32.2720   44.0680 C   0  0  0  0  0  0  0  0  0  0  0  0
   48.1000   31.0220   43.7630 C   0  0  0  0  0  0  0  0  0  0  0  0
   47.1260   30.2170   43.2520 C   0  0  0  0  0  0  0  0  0  0  0  0
   45.6540   31.3370   43.2170 S   0  0  0  0  0  0  0  0  0  0  0  0
   43.9471   34.5700   41.0437 H   0  0  0  0  0  0  0  0  0  0  0  0
   43.8004   33.2300   38.8069 H   0  0  0  0  0  0  0  0  0  0  0  0
   46.2325   34.1284   36.7066 H   0  0  0  0  0  0  0  0  0  0  0  0
   45.5523   31.7867   37.2524 H   0  0  0  0  0  0  0  0  0  0  0  0
   48.5462   31.1233   36.5493 H   0  0  0  0  0  0  0  0  0  0  0  0
   49.2261   30.8187   38.1950 H   0  0  0  0  0  0  0  0  0  0  0  0
   49.0043   33.3083   38.6637 H   0  0  0  0  0  0  0  0  0  0  0  0
   48.2603   34.7203   36.9169 H   0  0  0  0  0  0  0  0  0  0  0  0
   46.0331   31.7483   35.4979 H   0  0  0  0  0  0  0  0  0  0  0  0
   51.0209   32.8222   37.9607 H   0  0  0  0  0  0  0  0  0  0  0  0
   49.6995   32.9487   35.5261 H   0  0  0  0  0  0  0  0  0  0  0  0
   45.4374   37.0298   42.7310 H   0  0  0  0  0  0  0  0  0  0  0  0
   43.9791   35.5129   46.3945 H   0  0  0  0  0  0  0  0  0  0  0  0
   48.5253   32.9449   44.4822 H   0  0  0  0  0  0  0  0  0  0  0  0
   49.1250   30.6536   43.9170 H   0  0  0  0  0  0  0  0  0  0  0  0
   47.1973   29.1649   42.9389 H   0  0  0  0  0  0  0  0  0  0  0  0
  1 15  1  0
  2  1  2  0
  3  2  1  0
  4  3  1  0
  4  5  2  0
  5  1  1  0
  6 12  1  0
  6 11  1  0
  6  7  1  0
  7  8  1  0
  7  4  1  0
  9 10  1  0
  9  8  1  0
 10 13  1  0
 11 14  1  0
 11 10  1  0
 15 16  2  0
 15 18  1  0
 17 22  2  0
 18 17  1  0
 18 19  2  0
 19 20  1  0
 20 21  2  0
 22 21  1  0
 23 24  2  0
 23 19  1  0
 25 24  1  0
 26 25  2  0
 27 26  1  0
 27 23  1  0
  2 28  1  0
  3 29  1  0
  6 30  1  1
  7 31  1  6
  9 32  1  0
  9 33  1  0
 10 34  1  1
 11 35  1  1
 12 36  1  0
 13 37  1  0
 14 38  1  0
 17 39  1  0
 21 40  1  0
 24 41  1  0
 25 42  1  0
 26 43  1  0
M  ISO  8  28  14  29   9  30  13  31  13  32  13  33  13  34  13  35  13
M  ISO  8  36   3  37   3  38   3  39  14  40  14  41  14  42  14  43  14
M  END
>  <minimizedAffinity>  (1) 
-6.06624794

>  <minimizedRMSD>  (1) 
0.623864591

$$$$
