
     RDKit          3D

 32 34  0  0  0  0  0  0  0  0999 V2000
   45.5710   36.2600   43.2510 C   0  0  0  0  0  0  0  0  0  0  0  0
   46.1770   35.0030   43.0870 C   0  0  0  0  0  0  0  0  0  0  0  0
   45.8500   34.0650   44.0730 C   0  0  0  0  0  0  0  0  0  0  0  0
   45.0250   34.3490   45.0880 N   0  0  0  0  0  0  0  0  0  0  0  0
   44.4650   35.5900   45.1950 C   0  0  0  0  0  0  0  0  0  0  0  0
   44.7420   36.5290   44.2790 N   0  0  0  0  0  0  0  0  0  0  0  0
   46.4150   32.7830   43.9880 C   0  0  0  0  0  0  0  0  0  0  0  0
   47.5880   32.2170   44.4000 C   0  0  0  0  0  0  0  0  0  0  0  0
   47.8870   30.9450   44.1870 C   0  0  0  0  0  0  0  0  0  0  0  0
   46.9650   30.1960   43.5230 C   0  0  0  0  0  0  0  0  0  0  0  0
   45.6010   31.4070   43.2000 S   0  0  0  0  0  0  0  0  0  0  0  0
   47.0420   34.7600   41.9900 C   0  0  0  0  0  0  0  0  0  0  0  0
   48.2590   35.0530   42.1840 O   0  0  0  0  0  0  0  0  0  0  0  0
   46.4970   34.1940   40.7180 C   0  0  0  0  0  0  0  0  0  0  0  0
   45.1740   33.9560   40.4210 C   0  0  0  0  0  0  0  0  0  0  0  0
   45.1610   33.4460   39.1740 N   0  0  0  0  0  0  0  0  0  0  0  0
   46.4590   33.3810   38.7290 C   0  0  0  0  0  0  0  0  0  0  0  0
   47.2790   33.8410   39.6800 N   0  0  0  0  0  0  0  0  0  0  0  0
   46.9570   32.9280   37.5120 O   0  0  0  0  0  0  0  0  0  0  0  0
   49.5610   32.3350   37.2610 O   0  0  0  0  0  0  0  0  0  0  0  0
   48.4840   33.2970   36.8950 P   0  0  0  0  0  0  0  0  0  0  0  0
   48.3580   33.3580   35.2010 O   0  0  0  0  0  0  0  0  0  0  0  0
   48.9660   34.8360   37.4630 O   0  0  0  0  0  0  0  0  0  0  0  0
   45.7802   37.0510   42.5158 H   0  0  0  0  0  0  0  0  0  0  0  0
   43.7879   35.8187   46.0312 H   0  0  0  0  0  0  0  0  0  0  0  0
   48.3165   32.8461   44.9324 H   0  0  0  0  0  0  0  0  0  0  0  0
   48.8382   30.5129   44.5313 H   0  0  0  0  0  0  0  0  0  0  0  0
   47.0170   29.1327   43.2461 H   0  0  0  0  0  0  0  0  0  0  0  0
   44.3053   34.1438   41.0691 H   0  0  0  0  0  0  0  0  0  0  0  0
   44.3249   33.1559   38.6471 H   0  0  0  0  0  0  0  0  0  0  0  0
   47.4963   33.7752   34.9490 H   0  0  0  0  0  0  0  0  0  0  0  0
   48.9664   34.8371   38.4530 H   0  0  0  0  0  0  0  0  0  0  0  0
  1  6  2  0
  2  1  1  0
  2  3  2  0
  3  4  1  0
  4  5  2  0
  6  5  1  0
  7  3  1  0
  7  8  2  0
  9  8  1  0
 10  9  2  0
 11 10  1  0
 11  7  1  0
 12 13  2  0
 12  2  1  0
 14 12  1  0
 15 14  2  0
 16 15  1  0
 17 16  1  0
 17 18  2  0
 18 14  1  0
 19 17  1  0
 21 20  2  0
 21 23  1  0
 21 19  1  0
 22 21  1  0
  1 24  1  0
  5 25  1  0
  8 26  1  0
  9 27  1  0
 10 28  1  0
 15 29  1  0
 16 30  1  0
 22 31  1  0
 23 32  1  0
M  ISO  8  24  14  25  14  26  14  27  14  28  14  29  14  30   9  31   3
M  ISO  1  32   3
M  END
>  <minimizedAffinity>  (1) 
-5.25535917

>  <minimizedRMSD>  (1) 
2.13870525

$$$$
