
     RDKit          3D

 36 39  0  0  0  0  0  0  0  0999 V2000
   46.9290   34.7850   41.8450 C   0  0  0  0  0  0  0  0  0  0  0  0
   48.1410   35.1700   41.9300 O   0  0  0  0  0  0  0  0  0  0  0  0
   45.5060   36.1990   43.2420 C   0  0  0  0  0  0  0  0  0  0  0  0
   46.1420   34.9630   43.0050 C   0  0  0  0  0  0  0  0  0  0  0  0
   45.9230   33.9960   43.9810 C   0  0  0  0  0  0  0  0  0  0  0  0
   45.1640   34.2250   45.0610 N   0  0  0  0  0  0  0  0  0  0  0  0
   44.5710   35.4410   45.2420 C   0  0  0  0  0  0  0  0  0  0  0  0
   44.7440   36.4120   44.3370 N   0  0  0  0  0  0  0  0  0  0  0  0
   46.5230   32.7400   43.8210 C   0  0  0  0  0  0  0  0  0  0  0  0
   47.7730   32.2380   44.0640 C   0  0  0  0  0  0  0  0  0  0  0  0
   48.0900   30.9720   43.8140 C   0  0  0  0  0  0  0  0  0  0  0  0
   47.1130   30.1750   43.2970 C   0  0  0  0  0  0  0  0  0  0  0  0
   45.6730   31.3240   43.1730 S   0  0  0  0  0  0  0  0  0  0  0  0
   46.3310   34.1750   40.6120 C   0  0  0  0  0  0  0  0  0  0  0  0
   44.9950   33.9370   40.3850 C   0  0  0  0  0  0  0  0  0  0  0  0
   44.9400   33.3880   39.1590 N   0  0  0  0  0  0  0  0  0  0  0  0
   46.1930   33.2920   38.6500 C   0  0  0  0  0  0  0  0  0  0  0  0
   47.0750   33.7850   39.5570 N   0  0  0  0  0  0  0  0  0  0  0  0
   46.4990   32.7400   37.3330 C   0  0  0  0  0  0  0  0  0  0  0  0
   45.4790   32.7160   36.3990 C   0  0  0  0  0  0  0  0  0  0  0  0
   45.7400   32.1930   35.1260 C   0  0  0  0  0  0  0  0  0  0  0  0
   47.0170   31.7240   34.8660 C   0  0  0  0  0  0  0  0  0  0  0  0
   48.0240   31.7550   35.8090 C   0  0  0  0  0  0  0  0  0  0  0  0
   47.7730   32.2700   37.0670 C   0  0  0  0  0  0  0  0  0  0  0  0
   45.6341   37.0136   42.5140 H   0  0  0  0  0  0  0  0  0  0  0  0
   43.9507   35.6231   46.1320 H   0  0  0  0  0  0  0  0  0  0  0  0
   48.5416   32.9056   44.4806 H   0  0  0  0  0  0  0  0  0  0  0  0
   49.0991   30.5835   44.0160 H   0  0  0  0  0  0  0  0  0  0  0  0
   47.1685   29.1114   43.0219 H   0  0  0  0  0  0  0  0  0  0  0  0
   44.1535   34.1499   41.0607 H   0  0  0  0  0  0  0  0  0  0  0  0
   44.0791   33.0869   38.6804 H   0  0  0  0  0  0  0  0  0  0  0  0
   44.4800   33.1010   36.6516 H   0  0  0  0  0  0  0  0  0  0  0  0
   44.9549   32.1559   34.3565 H   0  0  0  0  0  0  0  0  0  0  0  0
   47.2368   31.3113   33.8703 H   0  0  0  0  0  0  0  0  0  0  0  0
   49.0242   31.3707   35.5602 H   0  0  0  0  0  0  0  0  0  0  0  0
   48.5617   32.3051   37.8330 H   0  0  0  0  0  0  0  0  0  0  0  0
  1  2  2  0
  1  4  1  0
  3  8  2  0
  4  3  1  0
  4  5  2  0
  5  6  1  0
  6  7  2  0
  8  7  1  0
  9  5  1  0
  9 10  2  0
 11 10  1  0
 12 11  2  0
 13 12  1  0
 13  9  1  0
 14  1  1  0
 15 14  2  0
 16 15  1  0
 17 16  1  0
 17 18  2  0
 18 14  1  0
 19 17  1  0
 20 19  2  0
 21 20  1  0
 22 21  2  0
 22 23  1  0
 23 24  2  0
 24 19  1  0
  3 25  1  0
  7 26  1  0
 10 27  1  0
 11 28  1  0
 12 29  1  0
 15 30  1  0
 16 31  1  0
 20 32  1  0
 21 33  1  0
 22 34  1  0
 23 35  1  0
 24 36  1  0
M  ISO  8  25  14  26  14  27  14  28  14  29  14  30  14  31   9  32  14
M  ISO  4  33  14  34  14  35  14  36  14
M  END
>  <minimizedAffinity>  (1) 
-4.98047543

>  <minimizedRMSD>  (1) 
0.832177103

$$$$
