
     RDKit          3D

 29 31  0  0  0  0  0  0  0  0999 V2000
   45.2360   36.1810   43.4890 C   0  0  0  0  0  0  0  0  0  0  0  0
   45.8810   34.9690   43.1540 C   0  0  0  0  0  0  0  0  0  0  0  0
   45.8130   33.9930   44.1280 C   0  0  0  0  0  0  0  0  0  0  0  0
   45.1790   34.1680   45.3180 N   0  0  0  0  0  0  0  0  0  0  0  0
   44.5750   35.3660   45.5790 C   0  0  0  0  0  0  0  0  0  0  0  0
   44.6060   36.3540   44.6760 N   0  0  0  0  0  0  0  0  0  0  0  0
   46.4320   32.7570   43.8860 C   0  0  0  0  0  0  0  0  0  0  0  0
   47.7010   32.2700   44.0170 C   0  0  0  0  0  0  0  0  0  0  0  0
   48.0410   31.0290   43.7120 C   0  0  0  0  0  0  0  0  0  0  0  0
   47.0410   30.2300   43.2470 C   0  0  0  0  0  0  0  0  0  0  0  0
   45.5800   31.3330   43.2630 S   0  0  0  0  0  0  0  0  0  0  0  0
   46.5260   34.8280   41.9010 C   0  0  0  0  0  0  0  0  0  0  0  0
   47.7220   35.2410   41.8580 O   0  0  0  0  0  0  0  0  0  0  0  0
   45.7900   34.2210   40.7420 C   0  0  0  0  0  0  0  0  0  0  0  0
   44.4290   34.3120   40.4960 C   0  0  0  0  0  0  0  0  0  0  0  0
   44.2240   33.6240   39.3570 N   0  0  0  0  0  0  0  0  0  0  0  0
   45.4310   33.1330   38.9300 C   0  0  0  0  0  0  0  0  0  0  0  0
   46.3930   33.5050   39.7880 N   0  0  0  0  0  0  0  0  0  0  0  0
   45.6870   32.3060   37.7040 C   0  0  0  0  0  0  0  0  0  0  0  0
   45.2457   37.0086   42.7645 H   0  0  0  0  0  0  0  0  0  0  0  0
   44.0594   35.5196   46.5385 H   0  0  0  0  0  0  0  0  0  0  0  0
   48.4817   32.9457   44.3963 H   0  0  0  0  0  0  0  0  0  0  0  0
   49.0720   30.6632   43.8272 H   0  0  0  0  0  0  0  0  0  0  0  0
   47.0975   29.1762   42.9367 H   0  0  0  0  0  0  0  0  0  0  0  0
   43.6757   34.8356   41.1030 H   0  0  0  0  0  0  0  0  0  0  0  0
   43.3171   33.4897   38.8875 H   0  0  0  0  0  0  0  0  0  0  0  0
   46.0001   31.2947   38.0027 H   0  0  0  0  0  0  0  0  0  0  0  0
   44.7663   32.2430   37.1054 H   0  0  0  0  0  0  0  0  0  0  0  0
   46.4823   32.7742   37.1054 H   0  0  0  0  0  0  0  0  0  0  0  0
  1  6  2  0
  2  1  1  0
  2  3  2  0
  3  4  1  0
  4  5  2  0
  6  5  1  0
  7  8  2  0
  7  3  1  0
  9  8  1  0
 10 11  1  0
 10  9  2  0
 11  7  1  0
 12  2  1  0
 13 12  2  0
 14 12  1  0
 15 14  2  0
 16 15  1  0
 17 16  1  0
 17 18  2  0
 18 14  1  0
 19 17  1  0
  1 20  1  0
  5 21  1  0
  8 22  1  0
  9 23  1  0
 10 24  1  0
 15 25  1  0
 16 26  1  0
 19 27  1  0
 19 28  1  0
 19 29  1  0
M  ISO  8  20  14  21  14  22  14  23  14  24  14  25  14  26   9  27   8
M  ISO  2  28   8  29   8
M  END
>  <minimizedAffinity>  (1) 
-4.3957839

>  <minimizedRMSD>  (1) 
0.0331531093

$$$$
