
     RDKit          3D

 38 41  0  0  0  0  0  0  0  0999 V2000
   45.5890   34.5080   41.4170 C   0  0  0  0  0  0  0  0  0  0  0  0
   46.7950   34.6540   41.0670 O   0  0  0  0  0  0  0  0  0  0  0  0
   44.4580   34.1320   40.4930 C   0  0  0  0  0  0  0  0  0  0  0  0
   43.1340   34.4790   40.6160 C   0  0  0  0  0  0  0  0  0  0  0  0
   42.5270   33.9150   39.5660 N   0  0  0  0  0  0  0  0  0  0  0  0
   43.4260   33.2480   38.8220 C   0  0  0  0  0  0  0  0  0  0  0  0
   44.6410   33.3760   39.3920 N   0  0  0  0  0  0  0  0  0  0  0  0
   43.2840   32.4960   37.6260 N   0  0  0  0  0  0  0  0  0  0  0  0
   41.1520   33.9560   39.2050 C   0  0  0  0  0  0  0  0  0  0  0  0
   40.3140   33.3670   40.1590 C   0  0  0  0  0  0  0  0  0  0  0  0
   38.9550   33.3280   39.9540 C   0  0  0  0  0  0  0  0  0  0  0  0
   38.3850   33.8590   38.8250 C   0  0  0  0  0  0  0  0  0  0  0  0
   39.2180   34.4370   37.8920 C   0  0  0  0  0  0  0  0  0  0  0  0
   40.5770   34.4930   38.0640 C   0  0  0  0  0  0  0  0  0  0  0  0
   44.8950   35.9890   43.2520 C   0  0  0  0  0  0  0  0  0  0  0  0
   45.3160   34.7230   42.8070 C   0  0  0  0  0  0  0  0  0  0  0  0
   45.4310   33.7670   43.7970 C   0  0  0  0  0  0  0  0  0  0  0  0
   45.1650   34.0200   45.0820 N   0  0  0  0  0  0  0  0  0  0  0  0
   44.7600   35.2600   45.4620 C   0  0  0  0  0  0  0  0  0  0  0  0
   44.6290   36.2350   44.5400 N   0  0  0  0  0  0  0  0  0  0  0  0
   45.8540   32.4650   43.4310 C   0  0  0  0  0  0  0  0  0  0  0  0
   47.0480   31.8190   43.3440 C   0  0  0  0  0  0  0  0  0  0  0  0
   47.1650   30.5660   42.9640 C   0  0  0  0  0  0  0  0  0  0  0  0
   46.0160   29.9280   42.6530 C   0  0  0  0  0  0  0  0  0  0  0  0
   44.7200   31.1880   42.9210 S   0  0  0  0  0  0  0  0  0  0  0  0
   42.6730   35.0888   41.4070 H   0  0  0  0  0  0  0  0  0  0  0  0
   42.3574   32.3959   37.1875 H   0  0  0  0  0  0  0  0  0  0  0  0
   44.1076   32.0506   37.1969 H   0  0  0  0  0  0  0  0  0  0  0  0
   40.7436   32.9344   41.0746 H   0  0  0  0  0  0  0  0  0  0  0  0
   38.3102   32.8603   40.7126 H   0  0  0  0  0  0  0  0  0  0  0  0
   37.2966   33.8245   38.6693 H   0  0  0  0  0  0  0  0  0  0  0  0
   38.7786   34.8673   36.9800 H   0  0  0  0  0  0  0  0  0  0  0  0
   41.2102   34.9635   37.2974 H   0  0  0  0  0  0  0  0  0  0  0  0
   44.7810   36.8013   42.5191 H   0  0  0  0  0  0  0  0  0  0  0  0
   44.5395   35.4680   46.5194 H   0  0  0  0  0  0  0  0  0  0  0  0
   47.9618   32.3731   43.6048 H   0  0  0  0  0  0  0  0  0  0  0  0
   48.1428   30.0658   42.9028 H   0  0  0  0  0  0  0  0  0  0  0  0
   45.8894   28.8886   42.3158 H   0  0  0  0  0  0  0  0  0  0  0  0
  1 16  1  0
  2  1  2  0
  3  4  2  0
  3  1  1  0
  5  4  1  0
  6  7  2  0
  6  5  1  0
  7  3  1  0
  8  6  1  0
  9  5  1  0
  9 10  2  0
 11 10  1  0
 12 11  2  0
 13 14  2  0
 13 12  1  0
 14  9  1  0
 15 20  2  0
 16 15  1  0
 16 17  2  0
 17 18  1  0
 18 19  2  0
 20 19  1  0
 21 17  1  0
 22 21  2  0
 23 22  1  0
 24 25  1  0
 24 23  2  0
 25 21  1  0
  4 26  1  0
  8 27  1  0
  8 28  1  0
 10 29  1  0
 11 30  1  0
 12 31  1  0
 13 32  1  0
 14 33  1  0
 15 34  1  0
 19 35  1  0
 22 36  1  0
 23 37  1  0
 24 38  1  0
M  ISO  8  26  14  29  14  30  14  31  14  32  14  33  14  34  14  35  14
M  ISO  3  36  14  37  14  38  14
M  END
>  <minimizedAffinity>  (1) 
-6.01396513

>  <minimizedRMSD>  (1) 
1.59346831

$$$$
