
     RDKit          3D

 38 41  0  0  0  0  0  0  0  0999 V2000
   45.5480   34.4760   41.4490 C   0  0  0  0  0  0  0  0  0  0  0  0
   46.7580   34.6470   41.0800 O   0  0  0  0  0  0  0  0  0  0  0  0
   44.4480   34.0540   40.5250 C   0  0  0  0  0  0  0  0  0  0  0  0
   43.1010   34.2750   40.7240 C   0  0  0  0  0  0  0  0  0  0  0  0
   42.4940   33.7310   39.6520 N   0  0  0  0  0  0  0  0  0  0  0  0
   43.4280   33.2030   38.8380 C   0  0  0  0  0  0  0  0  0  0  0  0
   44.6420   33.4000   39.3730 N   0  0  0  0  0  0  0  0  0  0  0  0
   43.2980   32.5200   37.5860 N   0  0  0  0  0  0  0  0  0  0  0  0
   41.4870   35.9690   37.7440 Br  0  0  0  0  0  0  0  0  0  0  0  0
   40.4440   34.5720   38.5070 C   0  0  0  0  0  0  0  0  0  0  0  0
   41.1020   33.6730   39.3390 C   0  0  0  0  0  0  0  0  0  0  0  0
   40.4040   32.6350   39.9250 C   0  0  0  0  0  0  0  0  0  0  0  0
   39.0530   32.5100   39.6720 C   0  0  0  0  0  0  0  0  0  0  0  0
   38.3580   33.3900   38.8460 C   0  0  0  0  0  0  0  0  0  0  0  0
   39.0890   34.4300   38.2650 C   0  0  0  0  0  0  0  0  0  0  0  0
   44.8260   35.9680   43.2490 C   0  0  0  0  0  0  0  0  0  0  0  0
   45.2890   34.7100   42.8220 C   0  0  0  0  0  0  0  0  0  0  0  0
   45.4540   33.7840   43.8250 C   0  0  0  0  0  0  0  0  0  0  0  0
   45.1900   34.0650   45.1160 N   0  0  0  0  0  0  0  0  0  0  0  0
   44.7450   35.2940   45.4740 C   0  0  0  0  0  0  0  0  0  0  0  0
   44.5660   36.2360   44.5380 N   0  0  0  0  0  0  0  0  0  0  0  0
   45.9200   32.4890   43.4890 C   0  0  0  0  0  0  0  0  0  0  0  0
   47.1400   31.8920   43.4170 C   0  0  0  0  0  0  0  0  0  0  0  0
   47.2760   30.6320   43.0630 C   0  0  0  0  0  0  0  0  0  0  0  0
   46.1540   29.9400   42.7680 C   0  0  0  0  0  0  0  0  0  0  0  0
   44.8280   31.1660   43.0130 S   0  0  0  0  0  0  0  0  0  0  0  0
   42.6254   34.7853   41.5745 H   0  0  0  0  0  0  0  0  0  0  0  0
   42.3652   32.3692   37.1760 H   0  0  0  0  0  0  0  0  0  0  0  0
   44.1373   32.1795   37.0955 H   0  0  0  0  0  0  0  0  0  0  0  0
   40.9172   31.9187   40.5834 H   0  0  0  0  0  0  0  0  0  0  0  0
   38.5027   31.6815   40.1419 H   0  0  0  0  0  0  0  0  0  0  0  0
   37.2805   33.2717   38.6590 H   0  0  0  0  0  0  0  0  0  0  0  0
   38.5790   35.1470   37.6049 H   0  0  0  0  0  0  0  0  0  0  0  0
   44.6718   36.7592   42.5005 H   0  0  0  0  0  0  0  0  0  0  0  0
   44.5314   35.5175   46.5297 H   0  0  0  0  0  0  0  0  0  0  0  0
   48.0378   32.4787   43.6615 H   0  0  0  0  0  0  0  0  0  0  0  0
   48.2677   30.1592   43.0092 H   0  0  0  0  0  0  0  0  0  0  0  0
   46.0627   28.8894   42.4552 H   0  0  0  0  0  0  0  0  0  0  0  0
  1 17  1  0
  2  1  2  0
  3  4  2  0
  3  1  1  0
  5  4  1  0
  6  7  2  0
  6  5  1  0
  7  3  1  0
  8  6  1  0
  9 10  1  0
 10 11  2  0
 11  5  1  0
 11 12  1  0
 13 12  2  0
 14 13  1  0
 15 10  1  0
 15 14  2  0
 16 21  2  0
 17 16  1  0
 17 18  2  0
 18 19  1  0
 19 20  2  0
 21 20  1  0
 22 18  1  0
 23 22  2  0
 24 23  1  0
 25 26  1  0
 25 24  2  0
 26 22  1  0
  4 27  1  0
  8 28  1  0
  8 29  1  0
 12 30  1  0
 13 31  1  0
 14 32  1  0
 15 33  1  0
 16 34  1  0
 20 35  1  0
 23 36  1  0
 24 37  1  0
 25 38  1  0
M  ISO  8  27  14  30  14  31  14  32  14  33  14  34  14  35  14  36  14
M  ISO  2  37  14  38  14
M  END
>  <minimizedAffinity>  (1) 
-6.17829847

>  <minimizedRMSD>  (1) 
1.80290079

$$$$
