
     RDKit          3D

 40 41  0  0  0  0  0  0  0  0999 V2000
   45.8640   32.3430   44.5360 C   0  0  0  0  0  0  0  0  0  0  0  0
   44.6530   35.7870   44.8090 C   0  0  0  0  0  0  0  0  0  0  0  0
   44.1410   36.0330   43.5160 C   0  0  0  0  0  0  0  0  0  0  0  0
   44.2320   35.0090   42.6050 C   0  0  0  0  0  0  0  0  0  0  0  0
   44.7910   33.8370   42.9670 N   0  0  0  0  0  0  0  0  0  0  0  0
   45.2640   33.6550   44.2120 C   0  0  0  0  0  0  0  0  0  0  0  0
   45.2040   34.5940   45.1200 N   0  0  0  0  0  0  0  0  0  0  0  0
   43.6880   35.2890   41.2510 C   0  0  0  0  0  0  0  0  0  0  0  0
   42.1830   35.2480   41.2310 C   0  0  0  0  0  0  0  0  0  0  0  0
   40.4230   33.5180   41.5160 C   0  0  0  0  0  0  0  0  0  0  0  0
   39.5670   34.1990   40.9090 O   0  0  0  0  0  0  0  0  0  0  0  0
   41.7470   33.9640   41.7190 N   0  0  0  0  0  0  0  0  0  0  0  0
   46.6890   32.4650   45.7790 C   0  0  0  0  0  0  0  0  0  0  0  0
   46.1170   31.7680   46.9100 C   0  0  0  0  0  0  0  0  0  0  0  0
   45.3790   32.2670   47.9450 C   0  0  0  0  0  0  0  0  0  0  0  0
   44.8850   31.5160   48.9630 C   0  0  0  0  0  0  0  0  0  0  0  0
   45.1440   30.1620   48.9520 C   0  0  0  0  0  0  0  0  0  0  0  0
   45.8850   29.6420   47.9190 C   0  0  0  0  0  0  0  0  0  0  0  0
   46.3760   30.4280   46.8940 C   0  0  0  0  0  0  0  0  0  0  0  0
   48.4720   29.3340   46.3830 C   0  0  0  0  0  0  0  0  0  0  0  0
   49.2980   29.6790   47.3170 O   0  0  0  0  0  0  0  0  0  0  0  0
   47.1010   29.5710   45.9980 N   0  0  0  0  0  0  0  0  0  0  0  0
   46.5030   32.0161   43.7024 H   0  0  0  0  0  0  0  0  0  0  0  0
   45.0651   31.6042   44.6972 H   0  0  0  0  0  0  0  0  0  0  0  0
   44.6023   36.5773   45.5725 H   0  0  0  0  0  0  0  0  0  0  0  0
   43.6899   37.0005   43.2506 H   0  0  0  0  0  0  0  0  0  0  0  0
   44.0208   36.2883   40.9337 H   0  0  0  0  0  0  0  0  0  0  0  0
   44.0593   34.5116   40.5670 H   0  0  0  0  0  0  0  0  0  0  0  0
   41.7828   36.0440   41.8761 H   0  0  0  0  0  0  0  0  0  0  0  0
   41.8185   35.4012   40.2045 H   0  0  0  0  0  0  0  0  0  0  0  0
   40.1324   32.5319   41.9074 H   0  0  0  0  0  0  0  0  0  0  0  0
   42.4124   33.3617   42.2243 H   0  0  0  0  0  0  0  0  0  0  0  0
   47.6871   32.0481   45.5791 H   0  0  0  0  0  0  0  0  0  0  0  0
   46.7335   33.5327   46.0398 H   0  0  0  0  0  0  0  0  0  0  0  0
   45.1712   33.3472   47.9548 H   0  0  0  0  0  0  0  0  0  0  0  0
   44.2963   31.9740   49.7715 H   0  0  0  0  0  0  0  0  0  0  0  0
   44.7650   29.5115   49.7540 H   0  0  0  0  0  0  0  0  0  0  0  0
   46.0949   28.5623   47.9072 H   0  0  0  0  0  0  0  0  0  0  0  0
   48.9612   28.6568   45.6674 H   0  0  0  0  0  0  0  0  0  0  0  0
   46.6788   29.1606   45.1529 H   0  0  0  0  0  0  0  0  0  0  0  0
  1 13  1  0
  2  7  2  0
  3  2  1  0
  4  5  1  0
  4  3  2  0
  5  6  2  0
  6  1  1  0
  6  7  1  0
  8  4  1  0
  9  8  1  0
  9 12  1  0
 10 12  1  0
 11 10  2  0
 13 14  1  0
 14 15  2  0
 15 16  1  0
 17 16  2  0
 18 17  1  0
 19 14  1  0
 19 18  2  0
 20 21  2  0
 22 20  1  0
 22 19  1  0
  1 23  1  0
  1 24  1  0
  2 25  1  0
  3 26  1  0
  8 27  1  0
  8 28  1  0
  9 29  1  0
  9 30  1  0
 10 31  1  0
 12 32  1  0
 13 33  1  0
 13 34  1  0
 15 35  1  0
 16 36  1  0
 17 37  1  0
 18 38  1  0
 20 39  1  0
 22 40  1  0
M  ISO  8  23   8  24   8  25  14  26  14  27   8  28   8  29   8  30   8
M  ISO  8  31   6  33   8  34   8  35  14  36  14  37  14  38  14  39   6
M  END
>  <minimizedAffinity>  (1) 
-5.08390379

>  <minimizedRMSD>  (1) 
0.225293294

$$$$
