
     RDKit          3D

 44 48  0  0  0  0  0  0  0  0999 V2000
   43.8990   35.5950   42.0000 C   0  0  0  0  0  0  0  0  0  0  0  0
   42.5400   35.6720   42.0680 C   0  0  0  0  0  0  0  0  0  0  0  0
   42.0780   35.1820   40.8960 N   0  0  0  0  0  0  0  0  0  0  0  0
   43.1190   34.8200   40.1430 C   0  0  0  0  0  0  0  0  0  0  0  0
   44.2410   35.0740   40.8230 N   0  0  0  0  0  0  0  0  0  0  0  0
   43.1640   34.2560   38.8440 N   0  0  0  0  0  0  0  0  0  0  0  0
   40.7000   35.0420   40.4600 C   0  0  0  0  0  0  0  0  0  0  0  0
   38.9610   33.3350   40.3890 C   0  0  0  0  0  0  0  0  0  0  0  0
   40.1940   33.7120   40.8990 C   0  0  0  0  0  0  0  0  0  0  0  0
   40.8110   32.8200   41.7490 C   0  0  0  0  0  0  0  0  0  0  0  0
   40.1890   31.6250   42.0470 C   0  0  0  0  0  0  0  0  0  0  0  0
   38.9640   31.2660   41.5320 C   0  0  0  0  0  0  0  0  0  0  0  0
   38.3370   32.1460   40.6820 C   0  0  0  0  0  0  0  0  0  0  0  0
   38.6540   29.9970   42.0530 O   0  0  0  0  0  0  0  0  0  0  0  0
   39.8080   29.4350   42.6280 C   0  0  0  0  0  0  0  0  0  0  0  0
   40.6050   30.5810   42.8650 O   0  0  0  0  0  0  0  0  0  0  0  0
   44.8860   36.0140   43.0470 C   0  0  0  0  0  0  0  0  0  0  0  0
   45.3070   37.1960   43.2160 O   0  0  0  0  0  0  0  0  0  0  0  0
   44.8130   34.8350   45.1910 C   0  0  0  0  0  0  0  0  0  0  0  0
   45.4180   35.0490   43.9380 C   0  0  0  0  0  0  0  0  0  0  0  0
   46.5260   34.2490   43.7000 C   0  0  0  0  0  0  0  0  0  0  0  0
   46.9870   33.3550   44.5710 N   0  0  0  0  0  0  0  0  0  0  0  0
   46.3580   33.1930   45.7700 C   0  0  0  0  0  0  0  0  0  0  0  0
   45.2860   33.9290   46.0660 N   0  0  0  0  0  0  0  0  0  0  0  0
   47.2030   34.4050   42.4520 C   0  0  0  0  0  0  0  0  0  0  0  0
   48.0270   35.3280   41.9000 C   0  0  0  0  0  0  0  0  0  0  0  0
   48.5200   35.2160   40.6890 C   0  0  0  0  0  0  0  0  0  0  0  0
   48.1600   34.1190   40.0110 C   0  0  0  0  0  0  0  0  0  0  0  0
   47.0710   33.2000   41.1380 S   0  0  0  0  0  0  0  0  0  0  0  0
   41.9405   36.0553   42.9068 H   0  0  0  0  0  0  0  0  0  0  0  0
   42.2893   34.0668   38.3341 H   0  0  0  0  0  0  0  0  0  0  0  0
   44.0714   34.0352   38.4096 H   0  0  0  0  0  0  0  0  0  0  0  0
   40.0871   35.8378   40.9084 H   0  0  0  0  0  0  0  0  0  0  0  0
   40.6432   35.1220   39.3644 H   0  0  0  0  0  0  0  0  0  0  0  0
   38.4503   34.0310   39.7073 H   0  0  0  0  0  0  0  0  0  0  0  0
   41.7916   33.0588   42.1865 H   0  0  0  0  0  0  0  0  0  0  0  0
   37.3568   31.9036   40.2457 H   0  0  0  0  0  0  0  0  0  0  0  0
   39.5727   28.9106   43.5659 H   0  0  0  0  0  0  0  0  0  0  0  0
   40.2955   28.6780   41.9961 H   0  0  0  0  0  0  0  0  0  0  0  0
   43.9264   35.4266   45.4630 H   0  0  0  0  0  0  0  0  0  0  0  0
   46.7350   32.4550   46.4933 H   0  0  0  0  0  0  0  0  0  0  0  0
   48.2955   36.2133   42.4952 H   0  0  0  0  0  0  0  0  0  0  0  0
   49.1877   35.9763   40.2576 H   0  0  0  0  0  0  0  0  0  0  0  0
   48.4592   33.8353   38.9912 H   0  0  0  0  0  0  0  0  0  0  0  0
  1  2  2  0
  1 17  1  0
  3  2  1  0
  4  5  2  0
  4  3  1  0
  5  1  1  0
  6  4  1  0
  7  3  1  0
  7  9  1  0
  8 13  2  0
  8  9  1  0
  9 10  2  0
 10 11  1  0
 11 16  1  0
 12 11  2  0
 12 14  1  0
 13 12  1  0
 14 15  1  0
 15 16  1  0
 17 18  2  0
 17 20  1  0
 19 24  2  0
 20 19  1  0
 21 20  2  0
 21 22  1  0
 22 23  2  0
 23 24  1  0
 25 21  1  0
 26 25  2  0
 27 26  1  0
 28 27  2  0
 28 29  1  0
 29 25  1  0
  2 30  1  0
  6 31  1  0
  6 32  1  0
  7 33  1  0
  7 34  1  0
  8 35  1  0
 10 36  1  0
 13 37  1  0
 15 38  1  0
 15 39  1  0
 19 40  1  0
 23 41  1  0
 26 42  1  0
 27 43  1  0
 28 44  1  0
M  ISO  8  30  14  33   8  34   8  35  14  36  14  37  14  38  13  39  13
M  ISO  5  40  14  41  14  42  14  43  14  44  14
M  END
>  <minimizedAffinity>  (1) 
-7.17004728

>  <minimizedRMSD>  (1) 
5.1510725

$$$$
