
     RDKit          3D

 41 44  0  0  0  0  0  0  0  0999 V2000
   44.5170   34.8520   41.2470 C   0  0  0  0  0  0  0  0  0  0  0  0
   43.3180   35.4900   41.3290 C   0  0  0  0  0  0  0  0  0  0  0  0
   42.6010   35.1070   40.2670 N   0  0  0  0  0  0  0  0  0  0  0  0
   43.3470   34.2450   39.5450 C   0  0  0  0  0  0  0  0  0  0  0  0
   44.5440   34.0820   40.1530 N   0  0  0  0  0  0  0  0  0  0  0  0
   43.0600   33.5550   38.3380 N   0  0  0  0  0  0  0  0  0  0  0  0
   41.2680   35.4840   39.8460 C   0  0  0  0  0  0  0  0  0  0  0  0
   39.4230   34.5740   37.5230 Cl  0  0  0  0  0  0  0  0  0  0  0  0
   39.3530   33.8800   39.1340 C   0  0  0  0  0  0  0  0  0  0  0  0
   40.2650   34.4150   40.0070 C   0  0  0  0  0  0  0  0  0  0  0  0
   40.2500   33.8770   41.3010 C   0  0  0  0  0  0  0  0  0  0  0  0
   39.3720   32.8770   41.6580 C   0  0  0  0  0  0  0  0  0  0  0  0
   38.4690   32.3620   40.7610 C   0  0  0  0  0  0  0  0  0  0  0  0
   38.4610   32.8810   39.4590 C   0  0  0  0  0  0  0  0  0  0  0  0
   45.6630   34.9590   42.2090 C   0  0  0  0  0  0  0  0  0  0  0  0
   46.8430   35.2660   41.8970 O   0  0  0  0  0  0  0  0  0  0  0  0
   44.7480   35.6270   44.3820 C   0  0  0  0  0  0  0  0  0  0  0  0
   45.4450   34.7020   43.6020 C   0  0  0  0  0  0  0  0  0  0  0  0
   45.8770   33.5780   44.2820 C   0  0  0  0  0  0  0  0  0  0  0  0
   45.6550   33.3790   45.5790 N   0  0  0  0  0  0  0  0  0  0  0  0
   44.9650   34.3190   46.3000 C   0  0  0  0  0  0  0  0  0  0  0  0
   44.5230   35.4220   45.6980 N   0  0  0  0  0  0  0  0  0  0  0  0
   46.5990   32.5900   43.5570 C   0  0  0  0  0  0  0  0  0  0  0  0
   47.9090   32.3080   43.3530 C   0  0  0  0  0  0  0  0  0  0  0  0
   48.3220   31.3020   42.6140 C   0  0  0  0  0  0  0  0  0  0  0  0
   47.3450   30.5450   42.0560 C   0  0  0  0  0  0  0  0  0  0  0  0
   45.7970   31.3140   42.6150 S   0  0  0  0  0  0  0  0  0  0  0  0
   42.9994   36.1873   42.1178 H   0  0  0  0  0  0  0  0  0  0  0  0
   42.1475   33.6811   37.8772 H   0  0  0  0  0  0  0  0  0  0  0  0
   43.7643   32.9283   37.9231 H   0  0  0  0  0  0  0  0  0  0  0  0
   41.3071   35.7648   38.7832 H   0  0  0  0  0  0  0  0  0  0  0  0
   40.9531   36.3168   40.4920 H   0  0  0  0  0  0  0  0  0  0  0  0
   40.9569   34.2627   42.0504 H   0  0  0  0  0  0  0  0  0  0  0  0
   39.3950   32.4824   42.6845 H   0  0  0  0  0  0  0  0  0  0  0  0
   37.7713   31.5644   41.0559 H   0  0  0  0  0  0  0  0  0  0  0  0
   37.7541   32.4971   38.7087 H   0  0  0  0  0  0  0  0  0  0  0  0
   44.3719   36.5477   43.9120 H   0  0  0  0  0  0  0  0  0  0  0  0
   44.7769   34.1628   47.3725 H   0  0  0  0  0  0  0  0  0  0  0  0
   48.6632   32.9520   43.8288 H   0  0  0  0  0  0  0  0  0  0  0  0
   49.3898   31.0885   42.4586 H   0  0  0  0  0  0  0  0  0  0  0  0
   47.4633   29.6628   41.4096 H   0  0  0  0  0  0  0  0  0  0  0  0
  1  2  2  0
  1 15  1  0
  3  2  1  0
  4  5  2  0
  4  3  1  0
  5  1  1  0
  6  4  1  0
  7 10  1  0
  7  3  1  0
  8  9  1  0
  9 14  2  0
  9 10  1  0
 10 11  2  0
 11 12  1  0
 13 12  2  0
 14 13  1  0
 15 18  1  0
 16 15  2  0
 17 22  2  0
 18 19  2  0
 18 17  1  0
 19 20  1  0
 20 21  2  0
 22 21  1  0
 23 19  1  0
 24 23  2  0
 25 24  1  0
 26 25  2  0
 26 27  1  0
 27 23  1  0
  2 28  1  0
  6 29  1  0
  6 30  1  0
  7 31  1  0
  7 32  1  0
 11 33  1  0
 12 34  1  0
 13 35  1  0
 14 36  1  0
 17 37  1  0
 21 38  1  0
 24 39  1  0
 25 40  1  0
 26 41  1  0
M  ISO  8  28  14  31   8  32   8  33  14  34  14  35  14  36  14  37  14
M  ISO  4  38  14  39  14  40  14  41  14
M  END
>  <minimizedAffinity>  (1) 
-6.41538477

>  <minimizedRMSD>  (1) 
2.38591552

$$$$
