
     RDKit          3D

 41 44  0  0  0  0  0  0  0  0999 V2000
   44.4980   34.6900   40.9170 C   0  0  0  0  0  0  0  0  0  0  0  0
   43.3680   35.4660   40.9090 C   0  0  0  0  0  0  0  0  0  0  0  0
   42.6290   35.0230   39.8680 N   0  0  0  0  0  0  0  0  0  0  0  0
   43.2790   34.0270   39.2710 C   0  0  0  0  0  0  0  0  0  0  0  0
   44.4380   33.8150   39.9170 N   0  0  0  0  0  0  0  0  0  0  0  0
   42.9200   33.2420   38.1430 N   0  0  0  0  0  0  0  0  0  0  0  0
   41.3300   35.5050   39.4090 C   0  0  0  0  0  0  0  0  0  0  0  0
   40.2900   34.4990   39.8210 C   0  0  0  0  0  0  0  0  0  0  0  0
   40.3730   33.8580   41.0570 C   0  0  0  0  0  0  0  0  0  0  0  0
   39.4350   32.9310   41.4660 C   0  0  0  0  0  0  0  0  0  0  0  0
   38.3800   32.6200   40.6350 C   0  0  0  0  0  0  0  0  0  0  0  0
   38.3300   33.2730   39.4210 C   0  0  0  0  0  0  0  0  0  0  0  0
   39.2440   34.2040   38.9750 C   0  0  0  0  0  0  0  0  0  0  0  0
   45.6440   34.7750   41.8770 C   0  0  0  0  0  0  0  0  0  0  0  0
   46.8540   34.9160   41.5480 O   0  0  0  0  0  0  0  0  0  0  0  0
   44.7980   35.7710   43.9530 C   0  0  0  0  0  0  0  0  0  0  0  0
   45.3940   34.6950   43.2820 C   0  0  0  0  0  0  0  0  0  0  0  0
   45.6960   33.6060   44.0860 C   0  0  0  0  0  0  0  0  0  0  0  0
   45.4440   33.5750   45.3910 N   0  0  0  0  0  0  0  0  0  0  0  0
   44.8610   34.6510   45.9970 C   0  0  0  0  0  0  0  0  0  0  0  0
   44.5470   35.7290   45.2740 N   0  0  0  0  0  0  0  0  0  0  0  0
   46.3080   32.4700   43.4760 C   0  0  0  0  0  0  0  0  0  0  0  0
   47.5760   32.0070   43.3390 C   0  0  0  0  0  0  0  0  0  0  0  0
   47.8640   30.8940   42.7080 C   0  0  0  0  0  0  0  0  0  0  0  0
   46.8250   30.2220   42.1960 C   0  0  0  0  0  0  0  0  0  0  0  0
   45.3670   31.2120   42.6260 S   0  0  0  0  0  0  0  0  0  0  0  0
   43.1155   36.2796   41.6049 H   0  0  0  0  0  0  0  0  0  0  0  0
   43.5519   32.5000   37.8097 H   0  0  0  0  0  0  0  0  0  0  0  0
   42.0277   33.4147   37.6583 H   0  0  0  0  0  0  0  0  0  0  0  0
   41.3359   35.6090   38.3139 H   0  0  0  0  0  0  0  0  0  0  0  0
   41.1084   36.4874   39.8513 H   0  0  0  0  0  0  0  0  0  0  0  0
   41.2118   34.0985   41.7267 H   0  0  0  0  0  0  0  0  0  0  0  0
   39.5289   32.4441   42.4479 H   0  0  0  0  0  0  0  0  0  0  0  0
   37.6143   31.8859   40.9262 H   0  0  0  0  0  0  0  0  0  0  0  0
   37.4906   33.0307   38.7527 H   0  0  0  0  0  0  0  0  0  0  0  0
   39.1428   34.6873   37.9920 H   0  0  0  0  0  0  0  0  0  0  0  0
   44.5283   36.6735   43.3849 H   0  0  0  0  0  0  0  0  0  0  0  0
   44.6508   34.6299   47.0765 H   0  0  0  0  0  0  0  0  0  0  0  0
   48.3990   32.5911   43.7766 H   0  0  0  0  0  0  0  0  0  0  0  0
   48.8982   30.5336   42.6053 H   0  0  0  0  0  0  0  0  0  0  0  0
   46.8502   29.2754   41.6363 H   0  0  0  0  0  0  0  0  0  0  0  0
  1 14  1  0
  2  1  2  0
  3  2  1  0
  4  3  1  0
  4  5  2  0
  5  1  1  0
  6  4  1  0
  7  8  1  0
  7  3  1  0
  8  9  2  0
  9 10  1  0
 11 10  2  0
 12 11  1  0
 13 12  2  0
 13  8  1  0
 14 17  1  0
 15 14  2  0
 16 21  2  0
 17 16  1  0
 17 18  2  0
 18 19  1  0
 19 20  2  0
 21 20  1  0
 22 18  1  0
 23 22  2  0
 24 23  1  0
 25 26  1  0
 25 24  2  0
 26 22  1  0
  2 27  1  0
  6 28  1  0
  6 29  1  0
  7 30  1  0
  7 31  1  0
  9 32  1  0
 10 33  1  0
 11 34  1  0
 12 35  1  0
 13 36  1  0
 16 37  1  0
 20 38  1  0
 23 39  1  0
 24 40  1  0
 25 41  1  0
M  ISO  8  27  14  30   8  31   8  32  14  33  14  34  14  35  14  36  14
M  ISO  5  37  14  38  14  39  14  40  14  41  14
M  END
>  <minimizedAffinity>  (1) 
-6.18025017

>  <minimizedRMSD>  (1) 
2.36128235

$$$$
