
     RDKit          3D

 46 49  0  0  0  0  0  0  0  0999 V2000
   44.7460   34.8350   41.4170 C   0  0  0  0  0  0  0  0  0  0  0  0
   43.5590   35.5120   41.2510 C   0  0  0  0  0  0  0  0  0  0  0  0
   42.9660   34.9220   40.1760 N   0  0  0  0  0  0  0  0  0  0  0  0
   43.7530   33.9500   39.7250 C   0  0  0  0  0  0  0  0  0  0  0  0
   44.8570   33.8810   40.4790 N   0  0  0  0  0  0  0  0  0  0  0  0
   43.5860   33.0680   38.6380 N   0  0  0  0  0  0  0  0  0  0  0  0
   41.6860   35.2540   39.5770 C   0  0  0  0  0  0  0  0  0  0  0  0
   40.7780   34.1490   39.4450 N   0  0  0  0  0  0  0  0  0  0  0  0
   39.8520   34.1990   40.5460 C   0  0  0  0  0  0  0  0  0  0  0  0
   38.6270   33.3600   40.3510 C   0  0  0  0  0  0  0  0  0  0  0  0
   37.9930   33.5940   38.9990 C   0  0  0  0  0  0  0  0  0  0  0  0
   39.0670   33.1590   37.9910 C   0  0  0  0  0  0  0  0  0  0  0  0
   40.1510   34.1990   38.1620 C   0  0  0  0  0  0  0  0  0  0  0  0
   45.7850   35.0950   42.4720 C   0  0  0  0  0  0  0  0  0  0  0  0
   46.9230   35.6040   42.2510 O   0  0  0  0  0  0  0  0  0  0  0  0
   44.7540   35.6380   44.6300 C   0  0  0  0  0  0  0  0  0  0  0  0
   45.5150   34.7620   43.8260 C   0  0  0  0  0  0  0  0  0  0  0  0
   45.9420   33.6120   44.4670 C   0  0  0  0  0  0  0  0  0  0  0  0
   45.6660   33.3430   45.7380 N   0  0  0  0  0  0  0  0  0  0  0  0
   44.9280   34.2160   46.4810 C   0  0  0  0  0  0  0  0  0  0  0  0
   44.4810   35.3570   45.9110 N   0  0  0  0  0  0  0  0  0  0  0  0
   46.7170   32.6760   43.7180 C   0  0  0  0  0  0  0  0  0  0  0  0
   48.0460   32.5310   43.4450 C   0  0  0  0  0  0  0  0  0  0  0  0
   48.4960   31.5450   42.7080 C   0  0  0  0  0  0  0  0  0  0  0  0
   47.5850   30.6670   42.2250 C   0  0  0  0  0  0  0  0  0  0  0  0
   46.0040   31.3000   42.8660 S   0  0  0  0  0  0  0  0  0  0  0  0
   43.1736   36.3470   41.8546 H   0  0  0  0  0  0  0  0  0  0  0  0
   44.3090   32.3646   38.4297 H   0  0  0  0  0  0  0  0  0  0  0  0
   42.7409   33.1270   38.0521 H   0  0  0  0  0  0  0  0  0  0  0  0
   41.2041   36.0201   40.2022 H   0  0  0  0  0  0  0  0  0  0  0  0
   41.9026   35.6004   38.5557 H   0  0  0  0  0  0  0  0  0  0  0  0
   40.3708   33.8484   41.4504 H   0  0  0  0  0  0  0  0  0  0  0  0
   39.5130   35.2421   40.6292 H   0  0  0  0  0  0  0  0  0  0  0  0
   38.9056   32.2991   40.4343 H   0  0  0  0  0  0  0  0  0  0  0  0
   37.8956   33.6398   41.1235 H   0  0  0  0  0  0  0  0  0  0  0  0
   37.0837   32.9856   38.8853 H   0  0  0  0  0  0  0  0  0  0  0  0
   37.6847   34.6403   38.8567 H   0  0  0  0  0  0  0  0  0  0  0  0
   38.6706   33.1688   36.9649 H   0  0  0  0  0  0  0  0  0  0  0  0
   39.4256   32.1333   38.1620 H   0  0  0  0  0  0  0  0  0  0  0  0
   40.9181   34.0353   37.3908 H   0  0  0  0  0  0  0  0  0  0  0  0
   39.6761   35.1866   38.0672 H   0  0  0  0  0  0  0  0  0  0  0  0
   44.3759   36.5744   44.1938 H   0  0  0  0  0  0  0  0  0  0  0  0
   44.6987   33.9939   47.5337 H   0  0  0  0  0  0  0  0  0  0  0  0
   48.7591   33.2615   43.8546 H   0  0  0  0  0  0  0  0  0  0  0  0
   49.5688   31.4352   42.4909 H   0  0  0  0  0  0  0  0  0  0  0  0
   47.7593   29.7821   41.5953 H   0  0  0  0  0  0  0  0  0  0  0  0
  1 14  1  0
  2  1  2  0
  3  2  1  0
  4  3  1  0
  4  5  2  0
  5  1  1  0
  6  4  1  0
  7  3  1  0
  8  7  1  0
  8  9  1  0
 10  9  1  0
 11 10  1  0
 12 13  1  0
 12 11  1  0
 13  8  1  0
 14 17  1  0
 15 14  2  0
 16 21  2  0
 17 18  2  0
 17 16  1  0
 18 19  1  0
 19 20  2  0
 21 20  1  0
 22 18  1  0
 23 22  2  0
 24 23  1  0
 25 24  2  0
 25 26  1  0
 26 22  1  0
  2 27  1  0
  6 28  1  0
  6 29  1  0
  7 30  1  0
  7 31  1  0
  9 32  1  0
  9 33  1  0
 10 34  1  0
 10 35  1  0
 11 36  1  0
 11 37  1  0
 12 38  1  0
 12 39  1  0
 13 40  1  0
 13 41  1  0
 16 42  1  0
 20 43  1  0
 23 44  1  0
 24 45  1  0
 25 46  1  0
M  ISO  8  27  14  30   8  31   8  32  13  33  13  34  13  35  13  36  13
M  ISO  8  37  13  38  13  39  13  40  13  41  13  42  14  43  14  44  14
M  ISO  2  45  14  46  14
M  END
>  <minimizedAffinity>  (1) 
-5.90970707

>  <minimizedRMSD>  (1) 
2.02035546

$$$$
