
     RDKit          3D

 43 46  0  0  0  0  0  0  0  0999 V2000
   45.5750   34.7620   41.8240 C   0  0  0  0  0  0  0  0  0  0  0  0
   46.7820   34.8940   41.4790 O   0  0  0  0  0  0  0  0  0  0  0  0
   44.4190   34.6730   40.8780 C   0  0  0  0  0  0  0  0  0  0  0  0
   43.2980   35.4510   40.8760 C   0  0  0  0  0  0  0  0  0  0  0  0
   42.5450   35.0080   39.8540 N   0  0  0  0  0  0  0  0  0  0  0  0
   43.1820   33.9900   39.2470 C   0  0  0  0  0  0  0  0  0  0  0  0
   44.3380   33.7840   39.8800 N   0  0  0  0  0  0  0  0  0  0  0  0
   42.7970   33.2050   38.1350 N   0  0  0  0  0  0  0  0  0  0  0  0
   41.2470   35.4870   39.4050 C   0  0  0  0  0  0  0  0  0  0  0  0
   40.1900   34.6080   39.4760 N   0  0  0  0  0  0  0  0  0  0  0  0
   39.3980   34.2990   38.3830 C   0  0  0  0  0  0  0  0  0  0  0  0
   38.4860   33.1880   38.9090 C   0  0  0  0  0  0  0  0  0  0  0  0
   38.5540   33.3440   40.4320 C   0  0  0  0  0  0  0  0  0  0  0  0
   39.9930   33.7960   40.5970 C   0  0  0  0  0  0  0  0  0  0  0  0
   44.7480   35.7810   43.9000 C   0  0  0  0  0  0  0  0  0  0  0  0
   45.3470   34.6990   43.2250 C   0  0  0  0  0  0  0  0  0  0  0  0
   45.6670   33.6300   44.0490 C   0  0  0  0  0  0  0  0  0  0  0  0
   45.4350   33.6120   45.3610 N   0  0  0  0  0  0  0  0  0  0  0  0
   44.8510   34.6910   45.9600 C   0  0  0  0  0  0  0  0  0  0  0  0
   44.5160   35.7590   45.2240 N   0  0  0  0  0  0  0  0  0  0  0  0
   46.2820   32.4880   43.4500 C   0  0  0  0  0  0  0  0  0  0  0  0
   47.5450   32.0210   43.3080 C   0  0  0  0  0  0  0  0  0  0  0  0
   47.8390   30.9030   42.6910 C   0  0  0  0  0  0  0  0  0  0  0  0
   46.7970   30.2260   42.1940 C   0  0  0  0  0  0  0  0  0  0  0  0
   45.3320   31.2210   42.6200 S   0  0  0  0  0  0  0  0  0  0  0  0
   43.0594   36.2719   41.5682 H   0  0  0  0  0  0  0  0  0  0  0  0
   43.4151   32.4540   37.7961 H   0  0  0  0  0  0  0  0  0  0  0  0
   41.8986   33.3844   37.6643 H   0  0  0  0  0  0  0  0  0  0  0  0
   41.3531   35.7918   38.3534 H   0  0  0  0  0  0  0  0  0  0  0  0
   40.9881   36.2966   40.1032 H   0  0  0  0  0  0  0  0  0  0  0  0
   40.0100   33.9408   37.5421 H   0  0  0  0  0  0  0  0  0  0  0  0
   38.8409   35.1656   37.9975 H   0  0  0  0  0  0  0  0  0  0  0  0
   37.4560   33.3235   38.5475 H   0  0  0  0  0  0  0  0  0  0  0  0
   38.7973   32.1886   38.5710 H   0  0  0  0  0  0  0  0  0  0  0  0
   37.8453   34.1030   40.7950 H   0  0  0  0  0  0  0  0  0  0  0  0
   38.2888   32.4393   40.9988 H   0  0  0  0  0  0  0  0  0  0  0  0
   40.6815   32.9381   40.5914 H   0  0  0  0  0  0  0  0  0  0  0  0
   40.1819   34.3130   41.5494 H   0  0  0  0  0  0  0  0  0  0  0  0
   44.4606   36.6733   43.3245 H   0  0  0  0  0  0  0  0  0  0  0  0
   44.6563   34.6834   47.0426 H   0  0  0  0  0  0  0  0  0  0  0  0
   48.3691   32.6123   43.7338 H   0  0  0  0  0  0  0  0  0  0  0  0
   48.8739   30.5446   42.5883 H   0  0  0  0  0  0  0  0  0  0  0  0
   46.8203   29.2727   41.6456 H   0  0  0  0  0  0  0  0  0  0  0  0
  1 16  1  0
  2  1  2  0
  3  1  1  0
  4  3  2  0
  5  4  1  0
  6  5  1  0
  6  7  2  0
  7  3  1  0
  8  6  1  0
  9 10  1  0
  9  5  1  0
 10 14  1  0
 11 12  1  0
 11 10  1  0
 12 13  1  0
 13 14  1  0
 15 20  2  0
 16 15  1  0
 16 17  2  0
 17 18  1  0
 18 19  2  0
 20 19  1  0
 21 17  1  0
 22 21  2  0
 23 22  1  0
 24 25  1  0
 24 23  2  0
 25 21  1  0
  4 26  1  0
  8 27  1  0
  8 28  1  0
  9 29  1  0
  9 30  1  0
 11 31  1  0
 11 32  1  0
 12 33  1  0
 12 34  1  0
 13 35  1  0
 13 36  1  0
 14 37  1  0
 14 38  1  0
 15 39  1  0
 19 40  1  0
 22 41  1  0
 23 42  1  0
 24 43  1  0
M  ISO  8  26  14  29   8  30   8  31  13  32  13  33  13  34  13  35  13
M  ISO  8  36  13  37  13  38  13  39  14  40  14  41  14  42  14  43  14
M  END
>  <minimizedAffinity>  (1) 
-5.70988226

>  <minimizedRMSD>  (1) 
2.21889973

$$$$
