
     RDKit          3D

 33 35  0  0  1  0  0  0  0  0999 V2000
   44.6250   33.6960   41.8730 C   0  0  1  0  0  0  0  0  0  0  0  0
   45.3720   34.5390   42.8070 C   0  0  1  0  0  0  0  0  0  0  0  0
   44.9660   33.1940   43.2540 C   0  0  0  0  0  0  0  0  0  0  0  0
   42.7350   35.3730   41.6250 C   0  0  0  0  0  0  0  0  0  0  0  0
   43.2090   34.0450   41.5650 C   0  0  0  0  0  0  0  0  0  0  0  0
   42.3070   33.0460   41.2170 C   0  0  0  0  0  0  0  0  0  0  0  0
   41.0060   33.4000   40.9480 N   0  0  0  0  0  0  0  0  0  0  0  0
   40.5760   34.6720   41.0100 C   0  0  0  0  0  0  0  0  0  0  0  0
   41.4550   35.6570   41.3520 N   0  0  0  0  0  0  0  0  0  0  0  0
   46.7620   34.9110   42.4350 C   0  0  0  0  0  0  0  0  0  0  0  0
   47.1360   34.6260   41.0030 C   0  0  0  0  0  0  0  0  0  0  0  0
   48.5020   35.2130   40.7470 C   0  0  0  0  0  0  0  0  0  0  0  0
   49.3500   35.2380   42.0050 C   0  0  0  0  0  0  0  0  0  0  0  0
   49.0560   33.9610   42.7670 C   0  0  0  0  0  0  0  0  0  0  0  0
   47.6790   34.1140   43.3670 C   0  0  0  0  0  0  0  0  0  0  0  0
   44.7874   33.3326   40.8476 H   0  0  0  0  0  0  0  0  0  0  0  0
   45.2527   35.5276   43.2744 H   0  0  0  0  0  0  0  0  0  0  0  0
   44.1765   33.0772   44.0110 H   0  0  0  0  0  0  0  0  0  0  0  0
   45.4826   32.3137   43.6640 H   0  0  0  0  0  0  0  0  0  0  0  0
   43.4251   36.1845   41.8993 H   0  0  0  0  0  0  0  0  0  0  0  0
   42.6272   31.9953   41.1582 H   0  0  0  0  0  0  0  0  0  0  0  0
   39.5267   34.9158   40.7873 H   0  0  0  0  0  0  0  0  0  0  0  0
   46.8623   36.0015   42.5385 H   0  0  0  0  0  0  0  0  0  0  0  0
   47.1599   33.5394   40.8335 H   0  0  0  0  0  0  0  0  0  0  0  0
   46.3969   35.0719   40.3212 H   0  0  0  0  0  0  0  0  0  0  0  0
   49.0132   34.6061   39.9852 H   0  0  0  0  0  0  0  0  0  0  0  0
   48.3695   36.2496   40.4036 H   0  0  0  0  0  0  0  0  0  0  0  0
   50.4167   35.2821   41.7400 H   0  0  0  0  0  0  0  0  0  0  0  0
   49.1160   36.1215   42.6171 H   0  0  0  0  0  0  0  0  0  0  0  0
   49.0769   33.0995   42.0834 H   0  0  0  0  0  0  0  0  0  0  0  0
   49.8091   33.7880   43.5499 H   0  0  0  0  0  0  0  0  0  0  0  0
   47.7618   34.6418   44.3285 H   0  0  0  0  0  0  0  0  0  0  0  0
   47.2466   33.1133   43.5139 H   0  0  0  0  0  0  0  0  0  0  0  0
  1  2  1  0
  1  3  1  0
  2  3  1  0
  5  4  2  0
  5  1  1  0
  6  5  1  0
  7  8  1  0
  7  6  2  0
  8  9  2  0
  9  4  1  0
 10  2  1  0
 10 15  1  0
 11 10  1  0
 12 11  1  0
 12 13  1  0
 13 14  1  0
 14 15  1  0
  1 16  1  6
  2 17  1  1
  3 18  1  0
  3 19  1  0
  4 20  1  0
  6 21  1  0
  8 22  1  0
 10 23  1  0
 11 24  1  0
 11 25  1  0
 12 26  1  0
 12 27  1  0
 13 28  1  0
 13 29  1  0
 14 30  1  0
 14 31  1  0
 15 32  1  0
 15 33  1  0
M  ISO  8  16  13  17  13  18  13  19  13  20  14  21  14  22  14  23  13
M  ISO  8  24  13  25  13  26  13  27  13  28  13  29  13  30  13  31  13
M  ISO  2  32  13  33  13
M  END
>  <minimizedAffinity>  (1) 
-4.8645196

>  <minimizedRMSD>  (1) 
4.51863337

$$$$
