
     RDKit          3D

 36 39  0  0  1  0  0  0  0  0999 V2000
   47.1050   34.2870   42.2400 C   0  0  1  0  0  0  0  0  0  0  0  0
   48.0170   35.3700   41.9380 C   0  0  0  0  0  0  0  0  0  0  0  0
   48.5600   33.9670   42.0330 C   0  0  2  0  0  0  0  0  0  0  0  0
   48.8850   33.2990   40.7420 C   0  0  0  0  0  0  0  0  0  0  0  0
   49.7710   32.2490   40.6160 C   0  0  0  0  0  0  0  0  0  0  0  0
   50.0240   31.6630   39.3890 C   0  0  0  0  0  0  0  0  0  0  0  0
   49.3880   32.1260   38.2590 C   0  0  0  0  0  0  0  0  0  0  0  0
   49.6060   31.5860   37.0290 N   0  0  0  0  0  0  0  0  0  0  0  0
   48.9730   32.0560   35.9330 C   0  0  0  0  0  0  0  0  0  0  0  0
   48.0570   33.1170   35.9690 C   0  0  0  0  0  0  0  0  0  0  0  0
   47.8120   33.6930   37.2170 C   0  0  0  0  0  0  0  0  0  0  0  0
   48.4800   33.1890   38.3300 C   0  0  0  0  0  0  0  0  0  0  0  0
   48.2660   33.7360   39.5810 C   0  0  0  0  0  0  0  0  0  0  0  0
   45.4430   34.9230   44.0290 C   0  0  0  0  0  0  0  0  0  0  0  0
   46.5350   34.1150   43.6050 C   0  0  0  0  0  0  0  0  0  0  0  0
   47.0420   33.1790   44.4830 C   0  0  0  0  0  0  0  0  0  0  0  0
   46.4470   33.0960   45.7110 N   0  0  0  0  0  0  0  0  0  0  0  0
   45.4170   33.8630   46.1030 C   0  0  0  0  0  0  0  0  0  0  0  0
   44.9110   34.7840   45.2520 N   0  0  0  0  0  0  0  0  0  0  0  0
   45.1160   32.5900   48.1950 C   0  0  0  0  0  0  0  0  0  0  0  0
   45.8810   31.7260   47.6990 O   0  0  0  0  0  0  0  0  0  0  0  0
   44.8460   33.7270   47.3900 N   0  0  0  0  0  0  0  0  0  0  0  0
   46.1547   33.9585   41.7938 H   0  0  0  0  0  0  0  0  0  0  0  0
   48.2672   36.1070   42.7154 H   0  0  0  0  0  0  0  0  0  0  0  0
   48.0501   36.1593   41.1726 H   0  0  0  0  0  0  0  0  0  0  0  0
   49.3575   33.4674   42.6025 H   0  0  0  0  0  0  0  0  0  0  0  0
   50.2871   31.8698   41.5103 H   0  0  0  0  0  0  0  0  0  0  0  0
   50.7341   30.8261   39.3158 H   0  0  0  0  0  0  0  0  0  0  0  0
   49.1866   31.5829   34.9632 H   0  0  0  0  0  0  0  0  0  0  0  0
   47.5560   33.4778   35.0586 H   0  0  0  0  0  0  0  0  0  0  0  0
   47.1046   34.5292   37.3191 H   0  0  0  0  0  0  0  0  0  0  0  0
   47.5575   34.5737   39.6608 H   0  0  0  0  0  0  0  0  0  0  0  0
   45.0281   35.6747   43.3415 H   0  0  0  0  0  0  0  0  0  0  0  0
   47.8860   32.5296   44.2075 H   0  0  0  0  0  0  0  0  0  0  0  0
   44.6796   32.4718   49.1978 H   0  0  0  0  0  0  0  0  0  0  0  0
   44.2240   34.4654   47.7488 H   0  0  0  0  0  0  0  0  0  0  0  0
  1 15  1  0
  2  3  1  0
  2  1  1  0
  3  1  1  0
  4  3  1  0
  5  4  2  0
  6  5  1  0
  7 12  1  0
  7  6  2  0
  8  7  1  0
  9 10  1  0
  9  8  2  0
 10 11  2  0
 11 12  1  0
 12 13  2  0
 13  4  1  0
 14 19  2  0
 15 14  1  0
 15 16  2  0
 16 17  1  0
 17 18  2  0
 18 22  1  0
 19 18  1  0
 21 20  2  0
 22 20  1  0
  1 23  1  6
  2 24  1  0
  2 25  1  0
  3 26  1  1
  5 27  1  0
  6 28  1  0
  9 29  1  0
 10 30  1  0
 11 31  1  0
 13 32  1  0
 14 33  1  0
 16 34  1  0
 20 35  1  0
 22 36  1  0
M  ISO  8  23  13  24  13  25  13  26  13  27  14  28  14  29  14  30  14
M  ISO  5  31  14  32  14  33  14  34  14  35   6
M  END
>  <minimizedAffinity>  (1) 
-6.2378974

>  <minimizedRMSD>  (1) 
2.28208327

$$$$
