
     RDKit          3D

 32 34  0  0  1  0  0  0  0  0999 V2000
   46.9760   32.7930   44.9650 C   0  0  1  0  0  0  0  0  0  0  0  0
   46.1120   31.7010   45.4170 C   0  0  1  0  0  0  0  0  0  0  0  0
   46.9970   31.4600   44.2470 C   0  0  0  0  0  0  0  0  0  0  0  0
   45.1480   34.5700   44.7420 C   0  0  0  0  0  0  0  0  0  0  0  0
   46.3430   33.9610   44.2630 C   0  0  0  0  0  0  0  0  0  0  0  0
   46.9440   34.4510   43.0920 C   0  0  0  0  0  0  0  0  0  0  0  0
   46.3260   35.5130   42.4670 N   0  0  0  0  0  0  0  0  0  0  0  0
   45.1970   36.0600   42.9530 C   0  0  0  0  0  0  0  0  0  0  0  0
   44.6210   35.5940   44.0720 N   0  0  0  0  0  0  0  0  0  0  0  0
   46.2620   31.0400   46.6680 N   0  0  0  0  0  0  0  0  0  0  0  0
   46.8220   31.8790   47.6800 C   0  0  0  0  0  0  0  0  0  0  0  0
   45.6830   32.2770   48.6100 C   0  0  0  0  0  0  0  0  0  0  0  0
   45.3220   31.0740   49.4350 C   0  0  0  0  0  0  0  0  0  0  0  0
   45.2290   29.8820   48.5300 C   0  0  0  0  0  0  0  0  0  0  0  0
   45.1460   30.2520   47.0760 C   0  0  0  0  0  0  0  0  0  0  0  0
   47.7304   33.4349   45.4434 H   0  0  0  0  0  0  0  0  0  0  0  0
   45.0316   31.6012   45.5982 H   0  0  0  0  0  0  0  0  0  0  0  0
   46.5690   31.3670   43.2380 H   0  0  0  0  0  0  0  0  0  0  0  0
   47.7673   30.7209   43.9817 H   0  0  0  0  0  0  0  0  0  0  0  0
   44.6643   34.1981   45.6573 H   0  0  0  0  0  0  0  0  0  0  0  0
   47.8671   34.0069   42.6912 H   0  0  0  0  0  0  0  0  0  0  0  0
   44.7366   36.9065   42.4224 H   0  0  0  0  0  0  0  0  0  0  0  0
   47.5934   31.3309   48.2408 H   0  0  0  0  0  0  0  0  0  0  0  0
   47.2945   32.7675   47.2358 H   0  0  0  0  0  0  0  0  0  0  0  0
   46.0058   33.0981   49.2670 H   0  0  0  0  0  0  0  0  0  0  0  0
   44.8140   32.6191   48.0288 H   0  0  0  0  0  0  0  0  0  0  0  0
   46.0967   30.9012   50.1966 H   0  0  0  0  0  0  0  0  0  0  0  0
   44.3578   31.2395   49.9378 H   0  0  0  0  0  0  0  0  0  0  0  0
   46.1210   29.2565   48.6819 H   0  0  0  0  0  0  0  0  0  0  0  0
   44.3027   29.3468   48.7860 H   0  0  0  0  0  0  0  0  0  0  0  0
   44.2231   30.8261   46.9063 H   0  0  0  0  0  0  0  0  0  0  0  0
   45.1471   29.3240   46.4853 H   0  0  0  0  0  0  0  0  0  0  0  0
  1  2  1  0
  2 10  1  0
  3  1  1  0
  3  2  1  0
  5  4  2  0
  5  1  1  0
  6  5  1  0
  7  8  1  0
  7  6  2  0
  8  9  2  0
  9  4  1  0
 10 15  1  0
 10 11  1  0
 11 12  1  0
 12 13  1  0
 14 13  1  0
 15 14  1  0
  1 16  1  1
  2 17  1  6
  3 18  1  0
  3 19  1  0
  4 20  1  0
  6 21  1  0
  8 22  1  0
 11 23  1  0
 11 24  1  0
 12 25  1  0
 12 26  1  0
 13 27  1  0
 13 28  1  0
 14 29  1  0
 14 30  1  0
 15 31  1  0
 15 32  1  0
M  ISO  8  16  13  17  13  18  13  19  13  20  14  21  14  22  14  23  13
M  ISO  8  24  13  25  13  26  13  27  13  28  13  29  13  30  13  31  13
M  ISO  1  32  13
M  END
>  <minimizedAffinity>  (1) 
-4.6909256

>  <minimizedRMSD>  (1) 
7.47351599

$$$$
