
     RDKit          3D

 34 37  0  0  1  0  0  0  0  0999 V2000
   47.3870   34.2020   42.1350 C   0  0  1  0  0  0  0  0  0  0  0  0
   48.1280   35.2880   41.5310 C   0  0  0  0  0  0  0  0  0  0  0  0
   48.8960   34.2670   42.3280 C   0  0  2  0  0  0  0  0  0  0  0  0
   49.6740   33.2720   41.5390 C   0  0  0  0  0  0  0  0  0  0  0  0
   50.8830   32.7330   41.9160 C   0  0  0  0  0  0  0  0  0  0  0  0
   51.5530   31.8070   41.1560 C   0  0  0  0  0  0  0  0  0  0  0  0
   51.0020   31.3910   39.9610 C   0  0  0  0  0  0  0  0  0  0  0  0
   51.6140   30.4720   39.1600 N   0  0  0  0  0  0  0  0  0  0  0  0
   51.0730   30.0700   38.0020 C   0  0  0  0  0  0  0  0  0  0  0  0
   49.8450   30.5560   37.5230 C   0  0  0  0  0  0  0  0  0  0  0  0
   49.1910   31.4920   38.3110 C   0  0  0  0  0  0  0  0  0  0  0  0
   49.7770   31.8910   39.5060 C   0  0  0  0  0  0  0  0  0  0  0  0
   49.1610   32.8240   40.3290 C   0  0  0  0  0  0  0  0  0  0  0  0
   45.6080   35.4950   43.3610 C   0  0  0  0  0  0  0  0  0  0  0  0
   46.5380   34.4210   43.3360 C   0  0  0  0  0  0  0  0  0  0  0  0
   46.6160   33.6070   44.4490 C   0  0  0  0  0  0  0  0  0  0  0  0
   45.7910   33.8870   45.4990 N   0  0  0  0  0  0  0  0  0  0  0  0
   44.9170   34.9060   45.5020 C   0  0  0  0  0  0  0  0  0  0  0  0
   44.8240   35.7170   44.4250 N   0  0  0  0  0  0  0  0  0  0  0  0
   44.0940   35.1220   46.6500 N   0  0  0  0  0  0  0  0  0  0  0  0
   46.6657   33.4742   41.7350 H   0  0  0  0  0  0  0  0  0  0  0  0
   48.2449   35.3253   40.4379 H   0  0  0  0  0  0  0  0  0  0  0  0
   48.0461   36.3843   41.5679 H   0  0  0  0  0  0  0  0  0  0  0  0
   49.5960   34.2904   43.1762 H   0  0  0  0  0  0  0  0  0  0  0  0
   51.3312   33.0580   42.8665 H   0  0  0  0  0  0  0  0  0  0  0  0
   52.5175   31.4013   41.4953 H   0  0  0  0  0  0  0  0  0  0  0  0
   51.6147   29.3261   37.3993 H   0  0  0  0  0  0  0  0  0  0  0  0
   49.4219   30.2107   36.5681 H   0  0  0  0  0  0  0  0  0  0  0  0
   48.2244   31.9114   37.9949 H   0  0  0  0  0  0  0  0  0  0  0  0
   48.1970   33.2382   39.9987 H   0  0  0  0  0  0  0  0  0  0  0  0
   45.5298   36.1590   42.4875 H   0  0  0  0  0  0  0  0  0  0  0  0
   47.3191   32.7619   44.4876 H   0  0  0  0  0  0  0  0  0  0  0  0
   43.4205   35.9012   46.6616 H   0  0  0  0  0  0  0  0  0  0  0  0
   44.1743   34.4985   47.4659 H   0  0  0  0  0  0  0  0  0  0  0  0
  1  3  1  0
  1 15  1  0
  2  1  1  0
  2  3  1  0
  4  5  2  0
  4  3  1  0
  6  5  1  0
  7  6  2  0
  8  7  1  0
  9  8  2  0
 10  9  1  0
 10 11  2  0
 11 12  1  0
 12  7  1  0
 12 13  2  0
 13  4  1  0
 14 19  2  0
 15 14  1  0
 15 16  2  0
 16 17  1  0
 17 18  2  0
 18 20  1  0
 19 18  1  0
  1 21  1  6
  2 22  1  0
  2 23  1  0
  3 24  1  1
  5 25  1  0
  6 26  1  0
  9 27  1  0
 10 28  1  0
 11 29  1  0
 13 30  1  0
 14 31  1  0
 16 32  1  0
 20 33  1  0
 20 34  1  0
M  ISO  8  21  13  22  13  23  13  24  13  25  14  26  14  27  14  28  14
M  ISO  4  29  14  30  14  31  14  32  14
M  END
>  <minimizedAffinity>  (1) 
-5.91402483

>  <minimizedRMSD>  (1) 
0.435859114

$$$$
