
     RDKit          3D

 42 46  0  0  1  0  0  0  0  0999 V2000
   46.7010   33.1810   43.1540 C   0  0  1  0  0  0  0  0  0  0  0  0
   46.7390   34.5610   42.6790 C   0  0  0  0  0  0  0  0  0  0  0  0
   48.0050   33.7870   42.6660 C   0  0  2  0  0  0  0  0  0  0  0  0
   48.4580   33.2580   41.3460 C   0  0  0  0  0  0  0  0  0  0  0  0
   49.3620   32.2270   41.1920 C   0  0  0  0  0  0  0  0  0  0  0  0
   49.7390   31.8020   39.9330 C   0  0  0  0  0  0  0  0  0  0  0  0
   49.2240   32.3960   38.8040 C   0  0  0  0  0  0  0  0  0  0  0  0
   49.5770   31.9980   37.5600 N   0  0  0  0  0  0  0  0  0  0  0  0
   49.0510   32.6060   36.4580 C   0  0  0  0  0  0  0  0  0  0  0  0
   48.1200   33.6700   36.5320 C   0  0  0  0  0  0  0  0  0  0  0  0
   47.7530   34.0820   37.7910 C   0  0  0  0  0  0  0  0  0  0  0  0
   48.3030   33.4460   38.9050 C   0  0  0  0  0  0  0  0  0  0  0  0
   47.9560   33.8380   40.1820 C   0  0  0  0  0  0  0  0  0  0  0  0
   45.5900   33.5330   45.3860 C   0  0  0  0  0  0  0  0  0  0  0  0
   46.6150   32.8880   44.6170 C   0  0  0  0  0  0  0  0  0  0  0  0
   47.4690   32.0340   45.2660 C   0  0  0  0  0  0  0  0  0  0  0  0
   47.2970   31.8470   46.5990 N   0  0  0  0  0  0  0  0  0  0  0  0
   46.3210   32.4650   47.3120 C   0  0  0  0  0  0  0  0  0  0  0  0
   45.4640   33.3110   46.7050 N   0  0  0  0  0  0  0  0  0  0  0  0
   46.2170   32.1600   48.7670 C   0  0  2  0  0  0  0  0  0  0  0  0
   47.0310   31.1310   49.3890 C   0  0  0  0  0  0  0  0  0  0  0  0
   45.5850   30.8020   49.1030 C   0  0  2  0  0  0  0  0  0  0  0  0
   45.3060   29.8140   48.0420 C   0  0  0  0  0  0  0  0  0  0  0  0
   44.6350   28.7120   48.5350 F   0  0  0  0  0  0  0  0  0  0  0  0
   46.5080   29.3800   47.5180 F   0  0  0  0  0  0  0  0  0  0  0  0
   44.5650   30.2810   46.9900 F   0  0  0  0  0  0  0  0  0  0  0  0
   46.0750   32.3121   42.9026 H   0  0  0  0  0  0  0  0  0  0  0  0
   46.2515   34.8228   41.7283 H   0  0  0  0  0  0  0  0  0  0  0  0
   46.4371   35.5271   43.1096 H   0  0  0  0  0  0  0  0  0  0  0  0
   49.0168   33.9536   43.0642 H   0  0  0  0  0  0  0  0  0  0  0  0
   49.7869   31.7384   42.0812 H   0  0  0  0  0  0  0  0  0  0  0  0
   50.4604   30.9778   39.8317 H   0  0  0  0  0  0  0  0  0  0  0  0
   49.3651   32.2528   35.4647 H   0  0  0  0  0  0  0  0  0  0  0  0
   47.7108   34.1433   35.6273 H   0  0  0  0  0  0  0  0  0  0  0  0
   47.0335   34.9042   37.9191 H   0  0  0  0  0  0  0  0  0  0  0  0
   47.2357   34.6626   40.2883 H   0  0  0  0  0  0  0  0  0  0  0  0
   44.8939   34.2226   44.8861 H   0  0  0  0  0  0  0  0  0  0  0  0
   48.2713   31.5148   44.7213 H   0  0  0  0  0  0  0  0  0  0  0  0
   46.0504   33.2180   49.0177 H   0  0  0  0  0  0  0  0  0  0  0  0
   47.8251   30.6407   48.8068 H   0  0  0  0  0  0  0  0  0  0  0  0
   47.6579   31.0955   50.2922 H   0  0  0  0  0  0  0  0  0  0  0  0
   44.6976   30.4762   49.6655 H   0  0  0  0  0  0  0  0  0  0  0  0
  1 15  1  0
  2  1  1  0
  3  2  1  0
  3  1  1  0
  4  3  1  0
  5  4  2  0
  6  5  1  0
  7 12  1  0
  7  6  2  0
  8  7  1  0
  9 10  1  0
  9  8  2  0
 10 11  2  0
 11 12  1  0
 12 13  2  0
 13  4  1  0
 14 19  2  0
 15 16  2  0
 15 14  1  0
 16 17  1  0
 17 18  2  0
 18 20  1  0
 19 18  1  0
 20 22  1  0
 20 21  1  0
 22 21  1  0
 23 24  1  0
 23 22  1  0
 25 23  1  0
 26 23  1  0
  1 27  1  6
  2 28  1  0
  2 29  1  0
  3 30  1  1
  5 31  1  0
  6 32  1  0
  9 33  1  0
 10 34  1  0
 11 35  1  0
 13 36  1  0
 14 37  1  0
 16 38  1  0
 20 39  1  1
 21 40  1  0
 21 41  1  0
 22 42  1  1
M  ISO  8  27  13  28  13  29  13  30  13  31  14  32  14  33  14  34  14
M  ISO  8  35  14  36  14  37  14  38  14  39  13  40  13  41  13  42  13
M  END
>  <minimizedAffinity>  (1) 
-5.73175526

>  <minimizedRMSD>  (1) 
0.690225363

$$$$
