
     RDKit          3D

 25 27  0  0  1  0  0  0  0  0999 V2000
   46.4600   33.2810   41.0820 C   0  0  1  0  0  0  0  0  0  0  0  0
   45.2350   33.3490   41.8670 C   0  0  2  0  0  0  0  0  0  0  0  0
   45.3410   34.2020   40.6700 C   0  0  0  0  0  0  0  0  0  0  0  0
   48.6380   33.0350   42.2160 C   0  0  0  0  0  0  0  0  0  0  0  0
   47.7340   33.8560   41.5420 C   0  0  0  0  0  0  0  0  0  0  0  0
   48.0950   35.1840   41.3430 C   0  0  0  0  0  0  0  0  0  0  0  0
   49.3040   35.6180   41.8110 N   0  0  0  0  0  0  0  0  0  0  0  0
   50.1650   34.7990   42.4640 C   0  0  0  0  0  0  0  0  0  0  0  0
   49.8310   33.4920   42.6700 N   0  0  0  0  0  0  0  0  0  0  0  0
   45.0470   34.0540   43.1370 C   0  0  0  0  0  0  0  0  0  0  0  0
   44.5270   35.3400   43.3150 C   0  0  0  0  0  0  0  0  0  0  0  0
   44.3870   35.9270   44.5530 C   0  0  0  0  0  0  0  0  0  0  0  0
   44.7570   35.2620   45.6610 N   0  0  0  0  0  0  0  0  0  0  0  0
   45.2510   34.0430   45.5120 C   0  0  0  0  0  0  0  0  0  0  0  0
   45.3870   33.4760   44.3270 N   0  0  0  0  0  0  0  0  0  0  0  0
   47.0256   32.4548   40.6265 H   0  0  0  0  0  0  0  0  0  0  0  0
   44.6051   32.5353   42.2557 H   0  0  0  0  0  0  0  0  0  0  0  0
   45.4532   35.2913   40.7740 H   0  0  0  0  0  0  0  0  0  0  0  0
   44.7444   34.3563   39.7588 H   0  0  0  0  0  0  0  0  0  0  0  0
   48.3740   31.9806   42.3850 H   0  0  0  0  0  0  0  0  0  0  0  0
   47.4187   35.8742   40.8175 H   0  0  0  0  0  0  0  0  0  0  0  0
   51.1287   35.1865   42.8262 H   0  0  0  0  0  0  0  0  0  0  0  0
   44.2158   35.9083   42.4261 H   0  0  0  0  0  0  0  0  0  0  0  0
   43.9715   36.9422   44.6352 H   0  0  0  0  0  0  0  0  0  0  0  0
   45.5592   33.4824   46.4069 H   0  0  0  0  0  0  0  0  0  0  0  0
  1  5  1  0
  1  2  1  0
  2 10  1  0
  3  1  1  0
  3  2  1  0
  4  9  2  0
  5  4  1  0
  6  5  2  0
  6  7  1  0
  7  8  2  0
  8  9  1  0
 10 11  2  0
 10 15  1  0
 11 12  1  0
 12 13  2  0
 14 13  1  0
 15 14  2  0
  1 16  1  6
  2 17  1  6
  3 18  1  0
  3 19  1  0
  4 20  1  0
  6 21  1  0
  8 22  1  0
 11 23  1  0
 12 24  1  0
 14 25  1  0
M  ISO  8  16  13  17  13  18  13  19  13  20  14  21  14  22  14  23  14
M  ISO  2  24  14  25  14
M  END
>  <minimizedAffinity>  (1) 
-4.32807922

>  <minimizedRMSD>  (1) 
4.77914476

$$$$
