
     RDKit          3D

 52 57  0  0  1  0  0  0  0  0999 V2000
   47.5540   33.4680   42.8180 C   0  0  1  0  0  0  0  0  0  0  0  0
   48.5620   34.5210   42.7650 C   0  0  0  0  0  0  0  0  0  0  0  0
   48.9930   33.1360   42.4580 C   0  0  2  0  0  0  0  0  0  0  0  0
   49.1920   32.7920   41.0220 C   0  0  0  0  0  0  0  0  0  0  0  0
   50.1030   31.8600   40.5700 C   0  0  0  0  0  0  0  0  0  0  0  0
   50.2430   31.6040   39.2190 C   0  0  0  0  0  0  0  0  0  0  0  0
   49.4730   32.2770   38.2970 C   0  0  0  0  0  0  0  0  0  0  0  0
   49.5870   32.0460   36.9600 N   0  0  0  0  0  0  0  0  0  0  0  0
   48.8170   32.7230   36.0770 C   0  0  0  0  0  0  0  0  0  0  0  0
   47.8610   33.6940   36.4550 C   0  0  0  0  0  0  0  0  0  0  0  0
   47.7320   33.9390   37.8030 C   0  0  0  0  0  0  0  0  0  0  0  0
   48.5330   33.2330   38.7000 C   0  0  0  0  0  0  0  0  0  0  0  0
   48.4300   33.4540   40.0600 C   0  0  0  0  0  0  0  0  0  0  0  0
   46.0190   33.6820   44.8060 C   0  0  0  0  0  0  0  0  0  0  0  0
   47.0630   32.9570   44.1300 C   0  0  0  0  0  0  0  0  0  0  0  0
   47.5620   31.8310   44.7340 C   0  0  0  0  0  0  0  0  0  0  0  0
   47.0180   31.4920   45.9320 N   0  0  0  0  0  0  0  0  0  0  0  0
   46.0500   32.1660   46.5550 C   0  0  0  0  0  0  0  0  0  0  0  0
   45.5430   33.2710   45.9920 N   0  0  0  0  0  0  0  0  0  0  0  0
   45.5610   31.6440   47.8550 C   0  0  2  0  0  0  0  0  0  0  0  0
   46.3410   30.7600   48.6970 C   0  0  0  0  0  0  0  0  0  0  0  0
   45.2200   30.1490   47.8740 C   0  0  2  0  0  0  0  0  0  0  0  0
   45.6090   29.2170   46.7860 C   0  0  0  0  0  0  0  0  0  0  0  0
   44.2950   28.5570   46.3060 C   0  0  0  0  0  0  0  0  0  0  0  0
   43.9670   27.6890   47.4990 C   0  0  0  0  0  0  0  0  0  0  0  0
   45.2920   27.2420   48.0500 C   0  0  0  0  0  0  0  0  0  0  0  0
   46.3200   27.9690   47.2400 C   0  0  0  0  0  0  0  0  0  0  0  0
   46.5622   33.3461   42.3581 H   0  0  0  0  0  0  0  0  0  0  0  0
   48.5243   35.2698   41.9600 H   0  0  0  0  0  0  0  0  0  0  0  0
   48.9039   35.2884   43.4751 H   0  0  0  0  0  0  0  0  0  0  0  0
   49.7871   32.4730   42.8320 H   0  0  0  0  0  0  0  0  0  0  0  0
   50.7258   31.3138   41.2937 H   0  0  0  0  0  0  0  0  0  0  0  0
   50.9750   30.8571   38.8778 H   0  0  0  0  0  0  0  0  0  0  0  0
   48.9416   32.5060   35.0058 H   0  0  0  0  0  0  0  0  0  0  0  0
   47.2517   34.2262   35.7097 H   0  0  0  0  0  0  0  0  0  0  0  0
   47.0071   34.6815   38.1679 H   0  0  0  0  0  0  0  0  0  0  0  0
   47.6998   34.2003   40.4062 H   0  0  0  0  0  0  0  0  0  0  0  0
   45.6039   34.5890   44.3424 H   0  0  0  0  0  0  0  0  0  0  0  0
   48.3616   31.2332   44.2721 H   0  0  0  0  0  0  0  0  0  0  0  0
   45.0610   32.5991   48.0738 H   0  0  0  0  0  0  0  0  0  0  0  0
   47.3875   30.5435   48.4361 H   0  0  0  0  0  0  0  0  0  0  0  0
   46.5967   30.7512   49.7668 H   0  0  0  0  0  0  0  0  0  0  0  0
   44.2915   29.5798   48.0286 H   0  0  0  0  0  0  0  0  0  0  0  0
   46.2198   29.8161   46.0946 H   0  0  0  0  0  0  0  0  0  0  0  0
   43.5098   29.3047   46.1204 H   0  0  0  0  0  0  0  0  0  0  0  0
   44.3782   28.0127   45.3537 H   0  0  0  0  0  0  0  0  0  0  0  0
   43.4126   28.2666   48.2533 H   0  0  0  0  0  0  0  0  0  0  0  0
   43.3335   26.8345   47.2188 H   0  0  0  0  0  0  0  0  0  0  0  0
   45.3780   27.5108   49.1132 H   0  0  0  0  0  0  0  0  0  0  0  0
   45.4160   26.1508   47.9874 H   0  0  0  0  0  0  0  0  0  0  0  0
   46.6380   27.3644   46.3778 H   0  0  0  0  0  0  0  0  0  0  0  0
   47.2341   28.1864   47.8120 H   0  0  0  0  0  0  0  0  0  0  0  0
  1 15  1  0
  2  1  1  0
  3  2  1  0
  3  1  1  0
  4  3  1  0
  5  4  2  0
  6  5  1  0
  7 12  1  0
  7  6  2  0
  8  7  1  0
  9 10  1  0
  9  8  2  0
 10 11  2  0
 11 12  1  0
 12 13  2  0
 13  4  1  0
 14 19  2  0
 15 16  2  0
 15 14  1  0
 16 17  1  0
 17 18  2  0
 18 20  1  0
 19 18  1  0
 20 22  1  0
 20 21  1  0
 22 21  1  0
 23 27  1  0
 23 22  1  0
 24 23  1  0
 24 25  1  0
 25 26  1  0
 27 26  1  0
  1 28  1  6
  2 29  1  0
  2 30  1  0
  3 31  1  1
  5 32  1  0
  6 33  1  0
  9 34  1  0
 10 35  1  0
 11 36  1  0
 13 37  1  0
 14 38  1  0
 16 39  1  0
 20 40  1  1
 21 41  1  0
 21 42  1  0
 22 43  1  1
 23 44  1  0
 24 45  1  0
 24 46  1  0
 25 47  1  0
 25 48  1  0
 26 49  1  0
 26 50  1  0
 27 51  1  0
 27 52  1  0
M  ISO  8  28  13  29  13  30  13  31  13  32  14  33  14  34  14  35  14
M  ISO  8  36  14  37  14  38  14  39  14  40  13  41  13  42  13  43  13
M  ISO  8  44  13  45  13  46  13  47  13  48  13  49  13  50  13  51  13
M  ISO  1  52  13
M  END
>  <minimizedAffinity>  (1) 
-5.29587078

>  <minimizedRMSD>  (1) 
1.29675877

$$$$
