
     RDKit          3D

 15 15  0  0  0  0  0  0  0  0999 V2000
   45.8360   34.7920   43.6730 C   0  0  0  0  0  0  0  0  0  0  0  0
   46.7100   35.3180   42.7000 C   0  0  0  0  0  0  0  0  0  0  0  0
   47.9080   34.6070   42.4700 C   0  0  0  0  0  0  0  0  0  0  0  0
   48.1320   33.4720   43.1980 N   0  0  0  0  0  0  0  0  0  0  0  0
   47.2520   33.0190   44.1160 C   0  0  0  0  0  0  0  0  0  0  0  0
   46.1110   33.6780   44.3510 N   0  0  0  0  0  0  0  0  0  0  0  0
   48.7960   35.1670   41.4630 C   0  0  0  0  0  0  0  0  0  0  0  0
   50.0040   34.5070   41.4970 F   0  0  0  0  0  0  0  0  0  0  0  0
   49.0700   36.4680   41.8390 F   0  0  0  0  0  0  0  0  0  0  0  0
   48.2890   35.0870   40.1920 F   0  0  0  0  0  0  0  0  0  0  0  0
   44.6010   35.5380   43.9010 C   0  0  0  0  0  0  0  0  0  0  0  0
   44.3400   36.1680   44.9590 O   0  0  0  0  0  0  0  0  0  0  0  0
   46.4702   36.2380   42.1467 H   0  0  0  0  0  0  0  0  0  0  0  0
   47.4749   32.0991   44.6765 H   0  0  0  0  0  0  0  0  0  0  0  0
   43.8509   35.5500   43.0965 H   0  0  0  0  0  0  0  0  0  0  0  0
  1 11  1  0
  1  6  2  0
  2  1  1  0
  3  2  2  0
  3  4  1  0
  4  5  2  0
  5  6  1  0
  7  8  1  0
  7  9  1  0
  7  3  1  0
 10  7  1  0
 11 12  2  0
  2 13  1  0
  5 14  1  0
 11 15  1  0
M  ISO  3  13  14  14  14  15   6
M  END
>  <minimizedAffinity>  (1) 
-4.00971031

>  <minimizedRMSD>  (1) 
1.9774617

$$$$
