
     RDKit          3D

 16 16  0  0  0  0  0  0  0  0999 V2000
   46.1180   34.8740   43.2500 C   0  0  0  0  0  0  0  0  0  0  0  0
   46.3660   33.8960   44.2480 C   0  0  0  0  0  0  0  0  0  0  0  0
   45.6250   34.0390   45.4320 C   0  0  0  0  0  0  0  0  0  0  0  0
   44.7370   35.0720   45.5540 N   0  0  0  0  0  0  0  0  0  0  0  0
   44.5510   35.9690   44.5640 C   0  0  0  0  0  0  0  0  0  0  0  0
   45.2440   35.8640   43.4110 N   0  0  0  0  0  0  0  0  0  0  0  0
   45.8880   33.0310   46.4530 C   0  0  0  0  0  0  0  0  0  0  0  0
   45.6580   31.7630   45.9220 F   0  0  0  0  0  0  0  0  0  0  0  0
   44.9050   33.1900   47.4270 F   0  0  0  0  0  0  0  0  0  0  0  0
   47.1370   33.0560   46.9650 F   0  0  0  0  0  0  0  0  0  0  0  0
   46.9130   34.7210   41.9820 C   0  0  0  0  0  0  0  0  0  0  0  0
   47.0901   33.0807   44.1037 H   0  0  0  0  0  0  0  0  0  0  0  0
   43.8310   36.7899   44.6972 H   0  0  0  0  0  0  0  0  0  0  0  0
   47.9651   34.5185   42.2311 H   0  0  0  0  0  0  0  0  0  0  0  0
   46.5078   33.8843   41.3939 H   0  0  0  0  0  0  0  0  0  0  0  0
   46.8473   35.6483   41.3939 H   0  0  0  0  0  0  0  0  0  0  0  0
  1  6  2  0
  1  2  1  0
  2  3  2  0
  3  4  1  0
  3  7  1  0
  5  4  2  0
  6  5  1  0
  7 10  1  0
  7  9  1  0
  8  7  1  0
 11  1  1  0
  2 12  1  0
  5 13  1  0
 11 14  1  0
 11 15  1  0
 11 16  1  0
M  ISO  5  12  14  13  14  14   8  15   8  16   8
M  END
>  <minimizedAffinity>  (1) 
-4.22603321

>  <minimizedRMSD>  (1) 
4.190341

$$$$
