
     RDKit          3D

 32 33  0  0  0  0  0  0  0  0999 V2000
   44.5750   35.0750   42.9710 C   0  0  0  0  0  0  0  0  0  0  0  0
   45.5710   35.1690   41.9690 C   0  0  0  0  0  0  0  0  0  0  0  0
   46.8370   34.6750   42.3210 C   0  0  0  0  0  0  0  0  0  0  0  0
   47.0000   34.1590   43.5620 N   0  0  0  0  0  0  0  0  0  0  0  0
   46.0170   34.0960   44.4740 C   0  0  0  0  0  0  0  0  0  0  0  0
   44.7980   34.5580   44.1710 N   0  0  0  0  0  0  0  0  0  0  0  0
   42.5310   34.6600   41.8720 C   0  0  0  0  0  0  0  0  0  0  0  0
   43.1290   33.6330   41.4420 O   0  0  0  0  0  0  0  0  0  0  0  0
   43.2520   35.5590   42.6880 N   0  0  0  0  0  0  0  0  0  0  0  0
   41.1800   34.8480   41.5120 N   0  0  0  0  0  0  0  0  0  0  0  0
   40.8140   36.0430   40.7710 C   0  0  0  0  0  0  0  0  0  0  0  0
   40.3460   35.5470   39.4180 C   0  0  0  0  0  0  0  0  0  0  0  0
   39.1230   34.7160   39.6310 C   0  0  0  0  0  0  0  0  0  0  0  0
   39.2470   33.6210   40.6270 C   0  0  0  0  0  0  0  0  0  0  0  0
   40.1140   33.9530   41.8150 C   0  0  0  0  0  0  0  0  0  0  0  0
   47.8510   34.7810   41.2740 C   0  0  0  0  0  0  0  0  0  0  0  0
   48.8080   33.7770   41.4710 F   0  0  0  0  0  0  0  0  0  0  0  0
   48.5320   35.9750   41.4920 F   0  0  0  0  0  0  0  0  0  0  0  0
   47.3600   34.6460   40.0140 F   0  0  0  0  0  0  0  0  0  0  0  0
   45.3660   35.6013   40.9785 H   0  0  0  0  0  0  0  0  0  0  0  0
   46.2128   33.6660   45.4673 H   0  0  0  0  0  0  0  0  0  0  0  0
   42.8758   36.4519   43.0374 H   0  0  0  0  0  0  0  0  0  0  0  0
   40.0045   36.5821   41.2848 H   0  0  0  0  0  0  0  0  0  0  0  0
   41.6568   36.7442   40.6816 H   0  0  0  0  0  0  0  0  0  0  0  0
   41.1341   34.9389   38.9499 H   0  0  0  0  0  0  0  0  0  0  0  0
   40.1216   36.3960   38.7555 H   0  0  0  0  0  0  0  0  0  0  0  0
   38.3154   35.3844   39.9640 H   0  0  0  0  0  0  0  0  0  0  0  0
   38.9283   34.2213   38.6680 H   0  0  0  0  0  0  0  0  0  0  0  0
   38.2398   33.3749   40.9945 H   0  0  0  0  0  0  0  0  0  0  0  0
   39.7328   32.7805   40.1097 H   0  0  0  0  0  0  0  0  0  0  0  0
   40.5447   33.0182   42.2030 H   0  0  0  0  0  0  0  0  0  0  0  0
   39.4711   34.4558   42.5525 H   0  0  0  0  0  0  0  0  0  0  0  0
  1  6  2  0
  2  3  2  0
  2  1  1  0
  3  4  1  0
  4  5  2  0
  6  5  1  0
  7  9  1  0
  8  7  2  0
  9  1  1  0
 10 15  1  0
 10  7  1  0
 11 10  1  0
 12 13  1  0
 12 11  1  0
 13 14  1  0
 14 15  1  0
 16 17  1  0
 16 18  1  0
 16  3  1  0
 19 16  1  0
  2 20  1  0
  5 21  1  0
  9 22  1  0
 11 23  1  0
 11 24  1  0
 12 25  1  0
 12 26  1  0
 13 27  1  0
 13 28  1  0
 14 29  1  0
 14 30  1  0
 15 31  1  0
 15 32  1  0
M  ISO  8  20  14  21  14  23  13  24  13  25  13  26  13  27  13  28  13
M  ISO  4  29  13  30  13  31  13  32  13
M  END
>  <minimizedAffinity>  (1) 
-6.60944319

>  <minimizedRMSD>  (1) 
1.24160707

$$$$
