
     RDKit          3D

 27 28  0  0  0  0  0  0  0  0999 V2000
   45.1950   34.7200   42.9280 C   0  0  0  0  0  0  0  0  0  0  0  0
   46.2110   35.1470   42.0550 C   0  0  0  0  0  0  0  0  0  0  0  0
   47.5240   34.7530   42.3960 C   0  0  0  0  0  0  0  0  0  0  0  0
   47.6890   34.0150   43.5100 N   0  0  0  0  0  0  0  0  0  0  0  0
   46.6810   33.6330   44.3120 C   0  0  0  0  0  0  0  0  0  0  0  0
   45.4190   33.9920   44.0140 N   0  0  0  0  0  0  0  0  0  0  0  0
   43.2800   34.3190   41.5990 C   0  0  0  0  0  0  0  0  0  0  0  0
   44.0440   33.4440   41.0560 O   0  0  0  0  0  0  0  0  0  0  0  0
   43.8340   35.0730   42.6590 N   0  0  0  0  0  0  0  0  0  0  0  0
   41.9060   34.5150   41.1350 C   0  0  0  0  0  0  0  0  0  0  0  0
   41.0040   33.4840   40.8530 C   0  0  0  0  0  0  0  0  0  0  0  0
   39.7380   33.8270   40.4230 C   0  0  0  0  0  0  0  0  0  0  0  0
   39.3270   35.1330   40.2580 C   0  0  0  0  0  0  0  0  0  0  0  0
   40.2020   36.1690   40.5310 C   0  0  0  0  0  0  0  0  0  0  0  0
   41.4580   35.8100   40.9590 C   0  0  0  0  0  0  0  0  0  0  0  0
   48.5660   35.2080   41.4750 C   0  0  0  0  0  0  0  0  0  0  0  0
   49.6940   34.3960   41.6570 F   0  0  0  0  0  0  0  0  0  0  0  0
   48.9480   36.4690   41.8790 F   0  0  0  0  0  0  0  0  0  0  0  0
   48.2130   35.1360   40.1620 F   0  0  0  0  0  0  0  0  0  0  0  0
   45.9966   35.7510   41.1610 H   0  0  0  0  0  0  0  0  0  0  0  0
   46.8866   33.0294   45.2083 H   0  0  0  0  0  0  0  0  0  0  0  0
   43.3162   35.7955   43.1794 H   0  0  0  0  0  0  0  0  0  0  0  0
   41.2952   32.4298   40.9705 H   0  0  0  0  0  0  0  0  0  0  0  0
   39.0233   33.0207   40.2015 H   0  0  0  0  0  0  0  0  0  0  0  0
   38.3063   35.3503   39.9103 H   0  0  0  0  0  0  0  0  0  0  0  0
   39.9088   37.2225   40.4121 H   0  0  0  0  0  0  0  0  0  0  0  0
   42.1661   36.6223   41.1800 H   0  0  0  0  0  0  0  0  0  0  0  0
  1  6  2  0
  2  3  2  0
  2  1  1  0
  3  4  1  0
  4  5  2  0
  6  5  1  0
  7  9  1  0
  8  7  2  0
  9  1  1  0
 10  7  1  0
 11 10  2  0
 12 11  1  0
 13 12  2  0
 13 14  1  0
 14 15  2  0
 15 10  1  0
 16 17  1  0
 16 18  1  0
 16  3  1  0
 19 16  1  0
  2 20  1  0
  5 21  1  0
  9 22  1  0
 11 23  1  0
 12 24  1  0
 13 25  1  0
 14 26  1  0
 15 27  1  0
M  ISO  7  20  14  21  14  23  14  24  14  25  14  26  14  27  14
M  END
>  <minimizedAffinity>  (1) 
-6.42611027

>  <minimizedRMSD>  (1) 
1.10859883

$$$$
