
     RDKit          3D

 27 28  0  0  0  0  0  0  0  0999 V2000
   45.2540   34.7540   42.9860 C   0  0  0  0  0  0  0  0  0  0  0  0
   46.2480   35.2180   42.1060 C   0  0  0  0  0  0  0  0  0  0  0  0
   47.5600   34.7760   42.4000 C   0  0  0  0  0  0  0  0  0  0  0  0
   47.7540   33.9650   43.4740 N   0  0  0  0  0  0  0  0  0  0  0  0
   46.7360   33.5590   44.2780 C   0  0  0  0  0  0  0  0  0  0  0  0
   45.4840   33.9550   44.0340 N   0  0  0  0  0  0  0  0  0  0  0  0
   43.2890   34.4400   41.7060 C   0  0  0  0  0  0  0  0  0  0  0  0
   44.0320   33.6040   41.0840 O   0  0  0  0  0  0  0  0  0  0  0  0
   43.8940   35.1330   42.7710 N   0  0  0  0  0  0  0  0  0  0  0  0
   41.2760   32.3610   41.4960 F   0  0  0  0  0  0  0  0  0  0  0  0
   40.9400   33.6190   41.1400 C   0  0  0  0  0  0  0  0  0  0  0  0
   41.9160   34.5820   41.2510 C   0  0  0  0  0  0  0  0  0  0  0  0
   41.4680   35.8350   40.8610 C   0  0  0  0  0  0  0  0  0  0  0  0
   40.1920   36.0880   40.4150 C   0  0  0  0  0  0  0  0  0  0  0  0
   39.2740   35.0660   40.3330 C   0  0  0  0  0  0  0  0  0  0  0  0
   39.6630   33.7990   40.7080 C   0  0  0  0  0  0  0  0  0  0  0  0
   48.5890   35.2580   41.4820 C   0  0  0  0  0  0  0  0  0  0  0  0
   49.7400   34.4730   41.6540 F   0  0  0  0  0  0  0  0  0  0  0  0
   48.9280   36.5270   41.8770 F   0  0  0  0  0  0  0  0  0  0  0  0
   48.2290   35.1470   40.1640 F   0  0  0  0  0  0  0  0  0  0  0  0
   46.0227   35.8752   41.2531 H   0  0  0  0  0  0  0  0  0  0  0  0
   46.9444   32.9007   45.1343 H   0  0  0  0  0  0  0  0  0  0  0  0
   43.4058   35.8412   43.3375 H   0  0  0  0  0  0  0  0  0  0  0  0
   42.1750   36.6762   40.9113 H   0  0  0  0  0  0  0  0  0  0  0  0
   39.9046   37.1089   40.1233 H   0  0  0  0  0  0  0  0  0  0  0  0
   38.2513   35.2569   39.9756 H   0  0  0  0  0  0  0  0  0  0  0  0
   38.9593   32.9549   40.6594 H   0  0  0  0  0  0  0  0  0  0  0  0
  1  6  2  0
  2  3  2  0
  2  1  1  0
  3  4  1  0
  4  5  2  0
  6  5  1  0
  7  9  1  0
  8  7  2  0
  9  1  1  0
 11 12  2  0
 11 10  1  0
 12  7  1  0
 13 12  1  0
 14 13  2  0
 15 14  1  0
 15 16  2  0
 16 11  1  0
 17 18  1  0
 17 19  1  0
 17  3  1  0
 20 17  1  0
  2 21  1  0
  5 22  1  0
  9 23  1  0
 13 24  1  0
 14 25  1  0
 15 26  1  0
 16 27  1  0
M  ISO  6  21  14  22  14  24  14  25  14  26  14  27  14
M  END
>  <minimizedAffinity>  (1) 
-6.55575371

>  <minimizedRMSD>  (1) 
1.12429857

$$$$
