
     RDKit          3D

 33 34  0  0  0  0  0  0  0  0999 V2000
   45.2890   35.0880   42.9150 C   0  0  0  0  0  0  0  0  0  0  0  0
   46.4800   35.3490   42.2140 C   0  0  0  0  0  0  0  0  0  0  0  0
   47.6200   34.6710   42.6720 C   0  0  0  0  0  0  0  0  0  0  0  0
   47.5040   33.8410   43.7230 N   0  0  0  0  0  0  0  0  0  0  0  0
   46.3400   33.6190   44.3680 C   0  0  0  0  0  0  0  0  0  0  0  0
   45.2170   34.2500   43.9600 N   0  0  0  0  0  0  0  0  0  0  0  0
   43.5230   35.1440   41.3440 C   0  0  0  0  0  0  0  0  0  0  0  0
   44.1660   34.1790   40.8100 O   0  0  0  0  0  0  0  0  0  0  0  0
   44.0660   35.7220   42.5370 N   0  0  0  0  0  0  0  0  0  0  0  0
   42.2400   35.7030   40.7940 C   0  0  0  0  0  0  0  0  0  0  0  0
   41.1260   35.4280   41.7210 C   0  0  0  0  0  0  0  0  0  0  0  0
   40.3170   34.2090   41.4480 C   0  0  0  0  0  0  0  0  0  0  0  0
   39.8840   34.2580   40.0010 C   0  0  0  0  0  0  0  0  0  0  0  0
   41.1380   34.0980   39.1850 C   0  0  0  0  0  0  0  0  0  0  0  0
   42.1350   35.1930   39.4090 C   0  0  0  0  0  0  0  0  0  0  0  0
   48.8450   34.9610   41.9250 C   0  0  0  0  0  0  0  0  0  0  0  0
   49.2770   33.7850   41.3000 F   0  0  0  0  0  0  0  0  0  0  0  0
   49.8260   35.2790   42.8500 F   0  0  0  0  0  0  0  0  0  0  0  0
   48.6980   35.9200   40.9640 F   0  0  0  0  0  0  0  0  0  0  0  0
   46.5156   36.0414   41.3600 H   0  0  0  0  0  0  0  0  0  0  0  0
   46.3053   32.9272   45.2225 H   0  0  0  0  0  0  0  0  0  0  0  0
   43.6297   36.4969   43.0566 H   0  0  0  0  0  0  0  0  0  0  0  0
   42.2071   36.8002   40.7233 H   0  0  0  0  0  0  0  0  0  0  0  0
   41.5495   35.3280   42.7313 H   0  0  0  0  0  0  0  0  0  0  0  0
   40.4306   36.2712   41.5968 H   0  0  0  0  0  0  0  0  0  0  0  0
   40.9238   33.3091   41.6270 H   0  0  0  0  0  0  0  0  0  0  0  0
   39.4400   34.1728   42.1110 H   0  0  0  0  0  0  0  0  0  0  0  0
   39.1809   33.4401   39.7849 H   0  0  0  0  0  0  0  0  0  0  0  0
   39.3697   35.2018   39.7670 H   0  0  0  0  0  0  0  0  0  0  0  0
   40.8627   34.0891   38.1200 H   0  0  0  0  0  0  0  0  0  0  0  0
   41.6126   33.1565   39.4986 H   0  0  0  0  0  0  0  0  0  0  0  0
   43.1243   34.8124   39.1149 H   0  0  0  0  0  0  0  0  0  0  0  0
   41.7815   36.0429   38.8067 H   0  0  0  0  0  0  0  0  0  0  0  0
  1  6  2  0
  2  3  2  0
  2  1  1  0
  3  4  1  0
  4  5  2  0
  6  5  1  0
  7  9  1  0
  8  7  2  0
  9  1  1  0
 10  7  1  0
 10 11  1  0
 12 11  1  0
 13 12  1  0
 14 15  1  0
 14 13  1  0
 15 10  1  0
 16  3  1  0
 16 18  1  0
 17 16  1  0
 19 16  1  0
  2 20  1  0
  5 21  1  0
  9 22  1  0
 10 23  1  0
 11 24  1  0
 11 25  1  0
 12 26  1  0
 12 27  1  0
 13 28  1  0
 13 29  1  0
 14 30  1  0
 14 31  1  0
 15 32  1  0
 15 33  1  0
M  ISO  8  20  14  21  14  23  13  24  13  25  13  26  13  27  13  28  13
M  ISO  5  29  13  30  13  31  13  32  13  33  13
M  END
>  <minimizedAffinity>  (1) 
-6.19032669

>  <minimizedRMSD>  (1) 
1.38417804

$$$$
