
     RDKit          3D

 24 25  0  0  0  0  0  0  0  0999 V2000
   44.9040   35.0870   43.1710 C   0  0  0  0  0  0  0  0  0  0  0  0
   45.9190   35.3320   42.2070 C   0  0  0  0  0  0  0  0  0  0  0  0
   47.1650   34.7510   42.4730 C   0  0  0  0  0  0  0  0  0  0  0  0
   47.3030   34.0200   43.5970 N   0  0  0  0  0  0  0  0  0  0  0  0
   46.3100   33.8160   44.4830 C   0  0  0  0  0  0  0  0  0  0  0  0
   45.1000   34.3550   44.2640 N   0  0  0  0  0  0  0  0  0  0  0  0
   42.8660   34.9690   41.9870 C   0  0  0  0  0  0  0  0  0  0  0  0
   43.4300   33.9730   41.4190 O   0  0  0  0  0  0  0  0  0  0  0  0
   43.5970   35.6340   42.9950 N   0  0  0  0  0  0  0  0  0  0  0  0
   48.1950   35.0200   41.4610 C   0  0  0  0  0  0  0  0  0  0  0  0
   49.2470   34.1080   41.6440 F   0  0  0  0  0  0  0  0  0  0  0  0
   48.7270   36.2650   41.7550 F   0  0  0  0  0  0  0  0  0  0  0  0
   47.7550   34.8900   40.1780 F   0  0  0  0  0  0  0  0  0  0  0  0
   41.4940   35.4180   41.6080 C   0  0  0  0  0  0  0  0  0  0  0  0
   40.5610   34.5380   40.8930 C   0  0  0  0  0  0  0  0  0  0  0  0
   41.3490   35.5380   40.0870 C   0  0  0  0  0  0  0  0  0  0  0  0
   45.7373   35.9398   41.3084 H   0  0  0  0  0  0  0  0  0  0  0  0
   46.4894   33.2098   45.3832 H   0  0  0  0  0  0  0  0  0  0  0  0
   43.2288   36.4251   43.5422 H   0  0  0  0  0  0  0  0  0  0  0  0
   41.3541   36.0257   42.5141 H   0  0  0  0  0  0  0  0  0  0  0  0
   40.7867   33.4654   40.8006 H   0  0  0  0  0  0  0  0  0  0  0  0
   39.4895   34.3118   40.9967 H   0  0  0  0  0  0  0  0  0  0  0  0
   42.1592   35.2023   39.4230 H   0  0  0  0  0  0  0  0  0  0  0  0
   41.1119   36.3435   39.3764 H   0  0  0  0  0  0  0  0  0  0  0  0
  1  6  2  0
  2  3  2  0
  2  1  1  0
  3  4  1  0
  4  5  2  0
  6  5  1  0
  7  9  1  0
  8  7  2  0
  9  1  1  0
 10 11  1  0
 10 12  1  0
 10  3  1  0
 13 10  1  0
 14  7  1  0
 15 14  1  0
 16 15  1  0
 16 14  1  0
  2 17  1  0
  5 18  1  0
  9 19  1  0
 14 20  1  0
 15 21  1  0
 15 22  1  0
 16 23  1  0
 16 24  1  0
M  ISO  7  17  14  18  14  20  13  21  13  22  13  23  13  24  13
M  END
>  <minimizedAffinity>  (1) 
-5.3298583

>  <minimizedRMSD>  (1) 
0.743288279

$$$$
