
     RDKit          3D

 25 26  0  0  0  0  0  0  0  0999 V2000
   45.2370   34.7540   42.9350 C   0  0  0  0  0  0  0  0  0  0  0  0
   46.2660   35.1900   42.0720 C   0  0  0  0  0  0  0  0  0  0  0  0
   47.5700   34.7770   42.3950 C   0  0  0  0  0  0  0  0  0  0  0  0
   47.7410   34.0030   43.4960 N   0  0  0  0  0  0  0  0  0  0  0  0
   46.7090   33.6140   44.2910 C   0  0  0  0  0  0  0  0  0  0  0  0
   45.4630   33.9930   44.0050 N   0  0  0  0  0  0  0  0  0  0  0  0
   43.3270   34.3810   41.6000 C   0  0  0  0  0  0  0  0  0  0  0  0
   44.0890   33.5370   41.0140 O   0  0  0  0  0  0  0  0  0  0  0  0
   43.8840   35.1300   42.6770 N   0  0  0  0  0  0  0  0  0  0  0  0
   41.9310   34.5950   41.2030 C   0  0  0  0  0  0  0  0  0  0  0  0
   41.1050   33.4910   41.1010 C   0  0  0  0  0  0  0  0  0  0  0  0
   39.7860   33.7650   40.7180 C   0  0  0  0  0  0  0  0  0  0  0  0
   39.3750   35.0220   40.4720 N   0  0  0  0  0  0  0  0  0  0  0  0
   40.2050   36.0730   40.5800 C   0  0  0  0  0  0  0  0  0  0  0  0
   41.4980   35.8440   40.9510 N   0  0  0  0  0  0  0  0  0  0  0  0
   48.6180   35.2340   41.4960 C   0  0  0  0  0  0  0  0  0  0  0  0
   49.7600   34.4570   41.6880 F   0  0  0  0  0  0  0  0  0  0  0  0
   48.9700   36.5120   41.9050 F   0  0  0  0  0  0  0  0  0  0  0  0
   48.2820   35.1520   40.1720 F   0  0  0  0  0  0  0  0  0  0  0  0
   46.0582   35.8192   41.1940 H   0  0  0  0  0  0  0  0  0  0  0  0
   46.9024   32.9850   45.1724 H   0  0  0  0  0  0  0  0  0  0  0  0
   43.3737   35.8530   43.2040 H   0  0  0  0  0  0  0  0  0  0  0  0
   41.4587   32.4698   41.3061 H   0  0  0  0  0  0  0  0  0  0  0  0
   39.0713   32.9350   40.6162 H   0  0  0  0  0  0  0  0  0  0  0  0
   39.8506   37.0938   40.3742 H   0  0  0  0  0  0  0  0  0  0  0  0
  1  6  2  0
  2  3  2  0
  2  1  1  0
  3  4  1  0
  4  5  2  0
  6  5  1  0
  7  9  1  0
  8  7  2  0
  9  1  1  0
 10  7  1  0
 11 10  2  0
 12 11  1  0
 13 14  1  0
 13 12  2  0
 14 15  2  0
 15 10  1  0
 16 17  1  0
 16 18  1  0
 16  3  1  0
 19 16  1  0
  2 20  1  0
  5 21  1  0
  9 22  1  0
 11 23  1  0
 12 24  1  0
 14 25  1  0
M  ISO  5  20  14  21  14  23  14  24  14  25  14
M  END
>  <minimizedAffinity>  (1) 
-5.97162294

>  <minimizedRMSD>  (1) 
1.10806179

$$$$
