
     RDKit          3D

 23 24  0  0  1  0  0  0  0  0999 V2000
   47.3470   34.3470   42.3180 C   0  0  1  0  0  0  0  0  0  0  0  0
   48.2130   35.3910   41.7580 C   0  0  1  0  0  0  0  0  0  0  0  0
   48.8190   34.3680   42.6690 C   0  0  0  0  0  0  0  0  0  0  0  0
   45.5470   35.8180   43.2890 C   0  0  0  0  0  0  0  0  0  0  0  0
   46.3710   34.6930   43.3740 C   0  0  0  0  0  0  0  0  0  0  0  0
   46.2530   33.8890   44.5000 C   0  0  0  0  0  0  0  0  0  0  0  0
   45.3390   34.2230   45.4820 N   0  0  0  0  0  0  0  0  0  0  0  0
   44.5560   35.3240   45.3650 C   0  0  0  0  0  0  0  0  0  0  0  0
   44.6660   36.1180   44.2630 N   0  0  0  0  0  0  0  0  0  0  0  0
   48.7330   35.3520   40.3590 C   0  0  0  0  0  0  0  0  0  0  0  0
   47.9820   34.2560   39.6170 C   0  0  0  0  0  0  0  0  0  0  0  0
   46.6540   33.6107   41.8848 H   0  0  0  0  0  0  0  0  0  0  0  0
   48.0879   36.4831   41.7174 H   0  0  0  0  0  0  0  0  0  0  0  0
   49.1437   34.6499   43.6814 H   0  0  0  0  0  0  0  0  0  0  0  0
   49.6536   33.6542   42.6071 H   0  0  0  0  0  0  0  0  0  0  0  0
   45.6191   36.4727   42.4080 H   0  0  0  0  0  0  0  0  0  0  0  0
   46.8819   32.9932   44.6098 H   0  0  0  0  0  0  0  0  0  0  0  0
   43.8348   35.5752   46.1567 H   0  0  0  0  0  0  0  0  0  0  0  0
   48.5619   36.3216   39.8685 H   0  0  0  0  0  0  0  0  0  0  0  0
   49.8141   35.1489   40.3552 H   0  0  0  0  0  0  0  0  0  0  0  0
   47.5152   33.5748   40.3437 H   0  0  0  0  0  0  0  0  0  0  0  0
   47.2031   34.7082   38.9855 H   0  0  0  0  0  0  0  0  0  0  0  0
   48.6849   33.6928   38.9855 H   0  0  0  0  0  0  0  0  0  0  0  0
  1  3  1  0
  1  5  1  0
  2  1  1  0
  2  3  1  0
  4  5  2  0
  4  9  1  0
  5  6  1  0
  6  7  2  0
  8  7  1  0
  9  8  2  0
 10  2  1  0
 11 10  1  0
  1 12  1  6
  2 13  1  1
  3 14  1  0
  3 15  1  0
  4 16  1  0
  6 17  1  0
  8 18  1  0
 10 19  1  0
 10 20  1  0
 11 21  1  0
 11 22  1  0
 11 23  1  0
M  ISO  8  12  13  13  13  14  13  15  13  16  14  17  14  18  14  19   8
M  ISO  4  20   8  21   8  22   8  23   8
M  END
>  <minimizedAffinity>  (1) 
-4.21237659

>  <minimizedRMSD>  (1) 
1.10444534

$$$$
