
     RDKit          3D

 19 19  0  0  0  0  0  0  0  0999 V2000
   45.4280   35.1880   43.1170 C   0  0  0  0  0  0  0  0  0  0  0  0
   46.4470   35.5430   42.2210 C   0  0  0  0  0  0  0  0  0  0  0  0
   47.6730   34.8780   42.3720 C   0  0  0  0  0  0  0  0  0  0  0  0
   47.7790   33.9510   43.3660 N   0  0  0  0  0  0  0  0  0  0  0  0
   46.7580   33.6510   44.2020 C   0  0  0  0  0  0  0  0  0  0  0  0
   45.5830   34.2760   44.0700 N   0  0  0  0  0  0  0  0  0  0  0  0
   43.3860   35.3150   41.9250 C   0  0  0  0  0  0  0  0  0  0  0  0
   43.9320   34.4220   41.2020 O   0  0  0  0  0  0  0  0  0  0  0  0
   44.1410   35.8200   43.0330 N   0  0  0  0  0  0  0  0  0  0  0  0
   42.0680   35.8620   41.7150 N   0  0  0  0  0  0  0  0  0  0  0  0
   48.7260   35.2560   41.4310 C   0  0  0  0  0  0  0  0  0  0  0  0
   49.8330   34.4310   41.6480 F   0  0  0  0  0  0  0  0  0  0  0  0
   49.1370   36.5330   41.7880 F   0  0  0  0  0  0  0  0  0  0  0  0
   48.3550   35.1480   40.1330 F   0  0  0  0  0  0  0  0  0  0  0  0
   46.2930   36.3030   41.4408 H   0  0  0  0  0  0  0  0  0  0  0  0
   46.8943   32.8944   44.9888 H   0  0  0  0  0  0  0  0  0  0  0  0
   43.8043   36.5428   43.6850 H   0  0  0  0  0  0  0  0  0  0  0  0
   41.4907   35.5276   40.9303 H   0  0  0  0  0  0  0  0  0  0  0  0
   41.7041   36.5870   42.3498 H   0  0  0  0  0  0  0  0  0  0  0  0
  1  6  2  0
  2  3  2  0
  2  1  1  0
  3  4  1  0
  4  5  2  0
  6  5  1  0
  7  9  1  0
  8  7  2  0
  9  1  1  0
 10  7  1  0
 11 12  1  0
 11 13  1  0
 11  3  1  0
 14 11  1  0
  2 15  1  0
  5 16  1  0
  9 17  1  0
 10 18  1  0
 10 19  1  0
M  ISO  2  15  14  16  14
M  END
>  <minimizedAffinity>  (1) 
-5.23615551

>  <minimizedRMSD>  (1) 
0.0358093008

$$$$
