
     RDKit          3D

 24 26  0  0  1  0  0  0  0  0999 V2000
   47.0140   31.9960   42.4890 C   0  0  1  0  0  0  0  0  0  0  0  0
   48.0320   32.6330   41.6530 C   0  0  2  0  0  0  0  0  0  0  0  0
   48.4220   31.4400   42.4650 C   0  0  0  0  0  0  0  0  0  0  0  0
   45.5710   33.6490   43.6560 C   0  0  0  0  0  0  0  0  0  0  0  0
   46.5120   32.6190   43.7300 C   0  0  0  0  0  0  0  0  0  0  0  0
   46.9350   32.2400   45.0000 C   0  0  0  0  0  0  0  0  0  0  0  0
   46.4100   32.8920   46.0860 N   0  0  0  0  0  0  0  0  0  0  0  0
   45.5090   33.8750   45.9780 C   0  0  0  0  0  0  0  0  0  0  0  0
   45.0830   34.2610   44.7390 N   0  0  0  0  0  0  0  0  0  0  0  0
   48.7880   33.8360   41.9940 C   0  0  0  0  0  0  0  0  0  0  0  0
   48.5080   35.0530   41.3590 C   0  0  0  0  0  0  0  0  0  0  0  0
   49.3750   36.0180   41.8590 C   0  0  0  0  0  0  0  0  0  0  0  0
   50.1350   35.3680   42.7600 N   0  0  0  0  0  0  0  0  0  0  0  0
   49.7980   34.0930   42.8440 N   0  0  0  0  0  0  0  0  0  0  0  0
   46.0031   31.6107   42.2899 H   0  0  0  0  0  0  0  0  0  0  0  0
   47.9677   32.9526   40.6024 H   0  0  0  0  0  0  0  0  0  0  0  0
   48.6306   30.4783   41.9735 H   0  0  0  0  0  0  0  0  0  0  0  0
   49.1939   31.2157   43.2159 H   0  0  0  0  0  0  0  0  0  0  0  0
   45.2171   33.9695   42.6650 H   0  0  0  0  0  0  0  0  0  0  0  0
   47.6739   31.4355   45.1300 H   0  0  0  0  0  0  0  0  0  0  0  0
   45.1148   34.3679   46.8789 H   0  0  0  0  0  0  0  0  0  0  0  0
   47.7339   35.2171   40.5949 H   0  0  0  0  0  0  0  0  0  0  0  0
   49.4283   37.0805   41.5794 H   0  0  0  0  0  0  0  0  0  0  0  0
   50.8838   35.8083   43.3134 H   0  0  0  0  0  0  0  0  0  0  0  0
  1  5  1  0
  2 10  1  0
  2  3  1  0
  2  1  1  0
  3  1  1  0
  4  5  2  0
  4  9  1  0
  5  6  1  0
  6  7  2  0
  8  7  1  0
  9  8  2  0
 10 14  2  0
 11 12  2  0
 11 10  1  0
 12 13  1  0
 13 14  1  0
  1 15  1  6
  2 16  1  6
  3 17  1  0
  3 18  1  0
  4 19  1  0
  6 20  1  0
  8 21  1  0
 11 22  1  0
 12 23  1  0
 13 24  1  0
M  ISO  8  15  13  16  13  17  13  18  13  19  14  20  14  21  14  22  14
M  ISO  2  23  14  24   9
M  END
>  <minimizedAffinity>  (1) 
-4.19411707

>  <minimizedRMSD>  (1) 
2.93523049

$$$$
