
     RDKit          3D

 31 32  0  0  1  0  0  0  0  0999 V2000
   45.2200   34.7200   42.9150 C   0  0  0  0  0  0  0  0  0  0  0  0
   46.2480   35.1880   42.0650 C   0  0  0  0  0  0  0  0  0  0  0  0
   47.5560   34.7770   42.3760 C   0  0  0  0  0  0  0  0  0  0  0  0
   47.7370   33.9780   43.4440 N   0  0  0  0  0  0  0  0  0  0  0  0
   46.7220   33.5490   44.2360 C   0  0  0  0  0  0  0  0  0  0  0  0
   45.4560   33.9280   43.9610 N   0  0  0  0  0  0  0  0  0  0  0  0
   43.3190   34.3660   41.5920 C   0  0  0  0  0  0  0  0  0  0  0  0
   44.0600   33.5530   40.9680 O   0  0  0  0  0  0  0  0  0  0  0  0
   43.8690   35.0810   42.6810 N   0  0  0  0  0  0  0  0  0  0  0  0
   41.9810   34.4900   41.1360 N   0  0  0  0  0  0  0  0  0  0  0  0
   41.5790   33.9660   39.8420 C   0  0  0  0  0  0  0  0  0  0  0  0
   40.5200   34.9590   39.4150 C   0  0  0  0  0  0  0  0  0  0  0  0
   40.2600   35.8750   40.5770 C   0  0  0  0  0  0  0  0  0  0  0  0
   40.8090   35.0930   41.7580 C   0  0  1  0  0  0  0  0  0  0  0  0
   48.5900   35.2810   41.4760 C   0  0  0  0  0  0  0  0  0  0  0  0
   49.7650   34.5570   41.6820 F   0  0  0  0  0  0  0  0  0  0  0  0
   48.8910   36.5720   41.8730 F   0  0  0  0  0  0  0  0  0  0  0  0
   48.2690   35.1830   40.1470 F   0  0  0  0  0  0  0  0  0  0  0  0
   39.8820   34.1240   42.2600 N   0  0  0  0  0  0  0  0  0  0  0  0
   46.0355   35.8399   41.2049 H   0  0  0  0  0  0  0  0  0  0  0  0
   46.9297   32.8964   45.0968 H   0  0  0  0  0  0  0  0  0  0  0  0
   43.3520   35.7780   43.2358 H   0  0  0  0  0  0  0  0  0  0  0  0
   42.4227   33.9535   39.1363 H   0  0  0  0  0  0  0  0  0  0  0  0
   41.2232   32.9257   39.8761 H   0  0  0  0  0  0  0  0  0  0  0  0
   40.8772   35.5402   38.5521 H   0  0  0  0  0  0  0  0  0  0  0  0
   39.5975   34.4369   39.1212 H   0  0  0  0  0  0  0  0  0  0  0  0
   40.7913   36.8303   40.4540 H   0  0  0  0  0  0  0  0  0  0  0  0
   39.1989   36.1421   40.6895 H   0  0  0  0  0  0  0  0  0  0  0  0
   41.0234   35.6963   42.6525 H   0  0  0  0  0  0  0  0  0  0  0  0
   39.8951   34.1377   43.2898 H   0  0  0  0  0  0  0  0  0  0  0  0
   38.9344   34.3500   41.9256 H   0  0  0  0  0  0  0  0  0  0  0  0
  1  6  2  0
  2  3  2  0
  2  1  1  0
  3  4  1  0
  4  5  2  0
  6  5  1  0
  7  9  1  0
  8  7  2  0
  9  1  1  0
 10  7  1  0
 10 14  1  0
 11 10  1  0
 12 11  1  0
 12 13  1  0
 13 14  1  0
 14 19  1  0
 15 16  1  0
 15 17  1  0
 15  3  1  0
 18 15  1  0
  2 20  1  0
  5 21  1  0
  9 22  1  0
 11 23  1  0
 11 24  1  0
 12 25  1  0
 12 26  1  0
 13 27  1  0
 13 28  1  0
 14 29  1  1
 19 30  1  0
 19 31  1  0
M  ISO  8  20  14  21  14  23  13  24  13  25  13  26  13  27  13  28  13
M  ISO  3  29  13  30   5  31   5
M  END
>  <minimizedAffinity>  (1) 
-6.9795208

>  <minimizedRMSD>  (1) 
0.28370285

$$$$
