
     RDKit          3D

 36 38  0  0  1  0  0  0  0  0999 V2000
   45.2650   34.7120   42.3180 C   0  0  0  0  0  0  0  0  0  0  0  0
   46.3960   35.2870   41.6850 C   0  0  0  0  0  0  0  0  0  0  0  0
   47.6460   34.8750   42.1920 C   0  0  0  0  0  0  0  0  0  0  0  0
   47.6700   33.9990   43.2020 N   0  0  0  0  0  0  0  0  0  0  0  0
   46.5590   33.4790   43.7730 C   0  0  0  0  0  0  0  0  0  0  0  0
   45.3450   33.8480   43.3160 N   0  0  0  0  0  0  0  0  0  0  0  0
   43.6220   34.4200   40.6680 C   0  0  0  0  0  0  0  0  0  0  0  0
   44.4850   33.6780   40.1130 O   0  0  0  0  0  0  0  0  0  0  0  0
   43.9340   35.0510   41.8940 N   0  0  0  0  0  0  0  0  0  0  0  0
   42.3840   34.5440   39.9750 N   0  0  0  0  0  0  0  0  0  0  0  0
   42.2340   34.1120   38.6000 C   0  0  0  0  0  0  0  0  0  0  0  0
   41.2110   35.0920   38.0790 C   0  0  0  0  0  0  0  0  0  0  0  0
   40.7080   35.8880   39.2510 C   0  0  0  0  0  0  0  0  0  0  0  0
   41.1080   35.0840   40.4440 C   0  0  1  0  0  0  0  0  0  0  0  0
   40.1760   34.0170   40.8190 C   0  0  0  0  0  0  0  0  0  0  0  0
   38.8350   33.9110   40.5050 C   0  0  0  0  0  0  0  0  0  0  0  0
   38.3980   32.7720   41.0630 N   0  0  0  0  0  0  0  0  0  0  0  0
   39.4190   32.1520   41.7220 C   0  0  0  0  0  0  0  0  0  0  0  0
   40.5280   32.9340   41.5650 N   0  0  0  0  0  0  0  0  0  0  0  0
   48.7920   35.4830   41.5200 C   0  0  0  0  0  0  0  0  0  0  0  0
   49.9340   34.7440   41.8390 F   0  0  0  0  0  0  0  0  0  0  0  0
   48.9880   36.7310   42.0840 F   0  0  0  0  0  0  0  0  0  0  0  0
   48.6870   35.5080   40.1470 F   0  0  0  0  0  0  0  0  0  0  0  0
   46.3049   36.0045   40.8562 H   0  0  0  0  0  0  0  0  0  0  0  0
   46.6452   32.7617   44.6025 H   0  0  0  0  0  0  0  0  0  0  0  0
   43.2945   35.6696   42.4129 H   0  0  0  0  0  0  0  0  0  0  0  0
   43.1827   34.1924   38.0491 H   0  0  0  0  0  0  0  0  0  0  0  0
   41.9364   33.0584   38.4938 H   0  0  0  0  0  0  0  0  0  0  0  0
   41.6755   35.7628   37.3413 H   0  0  0  0  0  0  0  0  0  0  0  0
   40.3823   34.5614   37.5874 H   0  0  0  0  0  0  0  0  0  0  0  0
   41.1774   36.8825   39.2765 H   0  0  0  0  0  0  0  0  0  0  0  0
   39.6226   36.0608   39.2061 H   0  0  0  0  0  0  0  0  0  0  0  0
   41.1417   35.6812   41.3671 H   0  0  0  0  0  0  0  0  0  0  0  0
   38.2409   34.6223   39.9125 H   0  0  0  0  0  0  0  0  0  0  0  0
   37.4328   32.4175   41.0027 H   0  0  0  0  0  0  0  0  0  0  0  0
   39.3604   31.2028   42.2747 H   0  0  0  0  0  0  0  0  0  0  0  0
  1  6  2  0
  2  3  2  0
  2  1  1  0
  3  4  1  0
  4  5  2  0
  6  5  1  0
  7  9  1  0
  8  7  2  0
  9  1  1  0
 10 14  1  0
 10  7  1  0
 11 10  1  0
 12 11  1  0
 12 13  1  0
 13 14  1  0
 14 15  1  0
 15 19  1  0
 16 15  2  0
 16 17  1  0
 17 18  1  0
 19 18  2  0
 20 21  1  0
 20 22  1  0
 20  3  1  0
 23 20  1  0
  2 24  1  0
  5 25  1  0
  9 26  1  0
 11 27  1  0
 11 28  1  0
 12 29  1  0
 12 30  1  0
 13 31  1  0
 13 32  1  0
 14 33  1  1
 16 34  1  0
 17 35  1  0
 18 36  1  0
M  ISO  8  24  14  25  14  27  13  28  13  29  13  30  13  31  13  32  13
M  ISO  4  33  13  34  14  35   9  36  14
M  END
>  <minimizedAffinity>  (1) 
-7.07061243

>  <minimizedRMSD>  (1) 
1.30536473

$$$$
