
     RDKit          3D

 24 26  0  0  1  0  0  0  0  0999 V2000
   47.7560   35.1690   41.5880 C   0  0  1  0  0  0  0  0  0  0  0  0
   48.6800   34.6600   42.6010 C   0  0  2  0  0  0  0  0  0  0  0  0
   49.1380   35.7710   41.7190 C   0  0  0  0  0  0  0  0  0  0  0  0
   46.2990   33.5990   40.3250 C   0  0  0  0  0  0  0  0  0  0  0  0
   47.4410   34.4050   40.3600 C   0  0  0  0  0  0  0  0  0  0  0  0
   48.2270   34.4150   39.2110 C   0  0  0  0  0  0  0  0  0  0  0  0
   47.8490   33.6520   38.1320 N   0  0  0  0  0  0  0  0  0  0  0  0
   46.7330   32.8890   38.1540 C   0  0  0  0  0  0  0  0  0  0  0  0
   45.9480   32.8650   39.2680 N   0  0  0  0  0  0  0  0  0  0  0  0
   49.4780   33.4320   42.4870 C   0  0  0  0  0  0  0  0  0  0  0  0
   50.8670   33.5200   42.3340 C   0  0  0  0  0  0  0  0  0  0  0  0
   51.3860   32.2810   42.2370 N   0  0  0  0  0  0  0  0  0  0  0  0
   50.3250   31.4660   42.3320 C   0  0  0  0  0  0  0  0  0  0  0  0
   49.1650   32.1250   42.4830 N   0  0  0  0  0  0  0  0  0  0  0  0
   46.7184   35.5322   41.6273 H   0  0  0  0  0  0  0  0  0  0  0  0
   48.5085   34.4582   43.6687 H   0  0  0  0  0  0  0  0  0  0  0  0
   49.8985   35.5878   40.9456 H   0  0  0  0  0  0  0  0  0  0  0  0
   49.5462   36.7810   41.8717 H   0  0  0  0  0  0  0  0  0  0  0  0
   45.6557   33.5686   41.2168 H   0  0  0  0  0  0  0  0  0  0  0  0
   49.1402   35.0266   39.1671 H   0  0  0  0  0  0  0  0  0  0  0  0
   46.4590   32.2885   37.2741 H   0  0  0  0  0  0  0  0  0  0  0  0
   51.4445   34.4555   42.2985 H   0  0  0  0  0  0  0  0  0  0  0  0
   52.3747   32.0185   42.1169 H   0  0  0  0  0  0  0  0  0  0  0  0
   50.3978   30.3692   42.2904 H   0  0  0  0  0  0  0  0  0  0  0  0
  1  3  1  0
  1  2  1  0
  3  2  1  0
  4  5  2  0
  5  1  1  0
  6  5  1  0
  7  8  1  0
  7  6  2  0
  8  9  2  0
  9  4  1  0
 10  2  1  0
 11 10  2  0
 12 13  1  0
 12 11  1  0
 13 14  2  0
 14 10  1  0
  1 15  1  1
  2 16  1  1
  3 17  1  0
  3 18  1  0
  4 19  1  0
  6 20  1  0
  8 21  1  0
 11 22  1  0
 12 23  1  0
 13 24  1  0
M  ISO  8  15  13  16  13  17  13  18  13  19  14  20  14  21  14  22  14
M  ISO  2  23   9  24  14
M  END
>  <minimizedAffinity>  (1) 
-4.19051456

>  <minimizedRMSD>  (1) 
5.04317045

$$$$
