
     RDKit          3D

 35 36  0  0  1  0  0  0  0  0999 V2000
   45.2070   34.7760   42.3960 C   0  0  0  0  0  0  0  0  0  0  0  0
   46.3500   35.2140   41.6900 C   0  0  0  0  0  0  0  0  0  0  0  0
   47.6030   34.9020   42.2290 C   0  0  0  0  0  0  0  0  0  0  0  0
   47.6200   34.2020   43.3880 N   0  0  0  0  0  0  0  0  0  0  0  0
   46.5200   33.7980   44.0370 C   0  0  0  0  0  0  0  0  0  0  0  0
   45.3130   34.0920   43.5290 N   0  0  0  0  0  0  0  0  0  0  0  0
   43.5660   34.2090   40.8260 C   0  0  0  0  0  0  0  0  0  0  0  0
   44.4200   33.3860   40.4130 O   0  0  0  0  0  0  0  0  0  0  0  0
   43.8900   35.0500   41.9190 N   0  0  0  0  0  0  0  0  0  0  0  0
   42.3180   34.2330   40.1500 N   0  0  0  0  0  0  0  0  0  0  0  0
   42.1630   33.5960   38.8440 C   0  0  0  0  0  0  0  0  0  0  0  0
   41.1350   34.4740   38.1910 C   0  0  0  0  0  0  0  0  0  0  0  0
   40.6500   35.4600   39.2230 C   0  0  0  0  0  0  0  0  0  0  0  0
   41.0480   34.8070   40.5130 C   0  0  1  0  0  0  0  0  0  0  0  0
   48.7530   35.3760   41.4640 C   0  0  0  0  0  0  0  0  0  0  0  0
   49.8520   34.5850   41.7650 F   0  0  0  0  0  0  0  0  0  0  0  0
   49.0730   36.6360   41.9490 F   0  0  0  0  0  0  0  0  0  0  0  0
   48.5580   35.3570   40.1100 F   0  0  0  0  0  0  0  0  0  0  0  0
   40.0430   33.8180   41.0260 C   0  0  0  0  0  0  0  0  0  0  0  0
   38.7210   34.0910   40.3430 C   0  0  0  0  0  0  0  0  0  0  0  0
   46.2581   35.7796   40.7510 H   0  0  0  0  0  0  0  0  0  0  0  0
   46.6050   33.2315   44.9760 H   0  0  0  0  0  0  0  0  0  0  0  0
   43.2606   35.7624   42.3156 H   0  0  0  0  0  0  0  0  0  0  0  0
   43.1085   33.6008   38.2818 H   0  0  0  0  0  0  0  0  0  0  0  0
   41.8727   32.5364   38.8981 H   0  0  0  0  0  0  0  0  0  0  0  0
   41.5853   35.0107   37.3430 H   0  0  0  0  0  0  0  0  0  0  0  0
   40.2973   33.8696   37.8129 H   0  0  0  0  0  0  0  0  0  0  0  0
   41.1440   36.4355   39.1029 H   0  0  0  0  0  0  0  0  0  0  0  0
   39.5726   35.6708   39.1539 H   0  0  0  0  0  0  0  0  0  0  0  0
   41.1072   35.4972   41.3675 H   0  0  0  0  0  0  0  0  0  0  0  0
   40.3765   32.7951   40.7968 H   0  0  0  0  0  0  0  0  0  0  0  0
   39.9351   33.9163   42.1163 H   0  0  0  0  0  0  0  0  0  0  0  0
   37.9421   34.2519   41.1028 H   0  0  0  0  0  0  0  0  0  0  0  0
   38.8115   34.9894   39.7148 H   0  0  0  0  0  0  0  0  0  0  0  0
   38.4482   33.2302   39.7148 H   0  0  0  0  0  0  0  0  0  0  0  0
  1  6  2  0
  2  3  2  0
  2  1  1  0
  3  4  1  0
  4  5  2  0
  6  5  1  0
  7  9  1  0
  8  7  2  0
  9  1  1  0
 10 14  1  0
 10  7  1  0
 11 10  1  0
 12 11  1  0
 12 13  1  0
 13 14  1  0
 14 19  1  0
 15 16  1  0
 15 17  1  0
 15  3  1  0
 18 15  1  0
 20 19  1  0
  2 21  1  0
  5 22  1  0
  9 23  1  0
 11 24  1  0
 11 25  1  0
 12 26  1  0
 12 27  1  0
 13 28  1  0
 13 29  1  0
 14 30  1  1
 19 31  1  0
 19 32  1  0
 20 33  1  0
 20 34  1  0
 20 35  1  0
M  ISO  8  21  14  22  14  24  13  25  13  26  13  27  13  28  13  29  13
M  ISO  6  30  13  31   8  32   8  33   8  34   8  35   8
M  END
>  <minimizedAffinity>  (1) 
-6.16928673

>  <minimizedRMSD>  (1) 
0.964817822

$$$$
