
     RDKit          3D

 21 22  0  0  1  0  0  0  0  0999 V2000
   46.9640   33.1560   42.7330 C   0  0  1  0  0  0  0  0  0  0  0  0
   48.4080   33.3850   42.6040 C   0  0  2  0  0  0  0  0  0  0  0  0
   47.9430   32.3130   43.4950 C   0  0  0  0  0  0  0  0  0  0  0  0
   45.7540   35.3580   42.8450 C   0  0  0  0  0  0  0  0  0  0  0  0
   46.1180   34.1340   43.4530 C   0  0  0  0  0  0  0  0  0  0  0  0
   45.6670   33.9010   44.7480 C   0  0  0  0  0  0  0  0  0  0  0  0
   44.8960   34.8660   45.3620 N   0  0  0  0  0  0  0  0  0  0  0  0
   44.5700   36.0140   44.7550 C   0  0  0  0  0  0  0  0  0  0  0  0
   45.0070   36.2370   43.5060 N   0  0  0  0  0  0  0  0  0  0  0  0
   49.3400   35.6410   42.1710 C   0  0  0  0  0  0  0  0  0  0  0  0
   48.9860   35.8000   40.9780 O   0  0  0  0  0  0  0  0  0  0  0  0
   49.1210   34.5310   43.0460 N   0  0  0  0  0  0  0  0  0  0  0  0
   46.1400   32.9589   42.0315 H   0  0  0  0  0  0  0  0  0  0  0  0
   49.0907   33.4523   41.7441 H   0  0  0  0  0  0  0  0  0  0  0  0
   48.0346   32.4229   44.5856 H   0  0  0  0  0  0  0  0  0  0  0  0
   48.1390   31.2348   43.5902 H   0  0  0  0  0  0  0  0  0  0  0  0
   46.0900   35.5834   41.8221 H   0  0  0  0  0  0  0  0  0  0  0  0
   45.9198   32.9671   45.2713 H   0  0  0  0  0  0  0  0  0  0  0  0
   43.9530   36.7633   45.2725 H   0  0  0  0  0  0  0  0  0  0  0  0
   49.9019   36.4792   42.6088 H   0  0  0  0  0  0  0  0  0  0  0  0
   49.4850   34.5632   44.0090 H   0  0  0  0  0  0  0  0  0  0  0  0
  1  5  1  0
  1  3  1  0
  2  1  1  0
  2 12  1  0
  2  3  1  0
  4  5  2  0
  4  9  1  0
  5  6  1  0
  6  7  2  0
  8  7  1  0
  9  8  2  0
 10 12  1  0
 11 10  2  0
  1 13  1  6
  2 14  1  6
  3 15  1  0
  3 16  1  0
  4 17  1  0
  6 18  1  0
  8 19  1  0
 10 20  1  0
 12 21  1  0
M  ISO  8  13  13  14  13  15  13  16  13  17  14  18  14  19  14  20   6
M  END
>  <minimizedAffinity>  (1) 
-4.11070776

>  <minimizedRMSD>  (1) 
2.21416187

$$$$
