
     RDKit          3D

 32 33  0  0  1  0  0  0  0  0999 V2000
   45.2890   34.7670   42.8200 C   0  0  0  0  0  0  0  0  0  0  0  0
   46.3540   35.2830   42.0280 C   0  0  0  0  0  0  0  0  0  0  0  0
   47.6320   34.8400   42.3650 C   0  0  0  0  0  0  0  0  0  0  0  0
   47.7740   33.9780   43.3890 N   0  0  0  0  0  0  0  0  0  0  0  0
   46.7390   33.5160   44.1120 C   0  0  0  0  0  0  0  0  0  0  0  0
   45.4860   33.9130   43.8260 N   0  0  0  0  0  0  0  0  0  0  0  0
   43.4400   34.5040   41.4160 C   0  0  0  0  0  0  0  0  0  0  0  0
   44.1870   33.7230   40.7750 O   0  0  0  0  0  0  0  0  0  0  0  0
   43.9410   35.1550   42.5590 N   0  0  0  0  0  0  0  0  0  0  0  0
   42.1220   34.6540   40.9040 N   0  0  0  0  0  0  0  0  0  0  0  0
   41.7620   34.2070   39.5680 C   0  0  0  0  0  0  0  0  0  0  0  0
   40.7240   35.2290   39.1720 C   0  0  0  0  0  0  0  0  0  0  0  0
   40.4210   36.0730   40.3800 C   0  0  0  0  0  0  0  0  0  0  0  0
   40.9270   35.2340   41.5210 C   0  0  1  0  0  0  0  0  0  0  0  0
   48.7130   35.3880   41.5310 C   0  0  0  0  0  0  0  0  0  0  0  0
   49.8860   34.6970   41.7800 F   0  0  0  0  0  0  0  0  0  0  0  0
   48.9420   36.6910   41.9750 F   0  0  0  0  0  0  0  0  0  0  0  0
   48.4640   35.3070   40.1830 F   0  0  0  0  0  0  0  0  0  0  0  0
   39.9860   34.1510   41.9430 C   0  0  0  0  0  0  0  0  0  0  0  0
   46.1790   35.9875   41.2015 H   0  0  0  0  0  0  0  0  0  0  0  0
   46.9170   32.8124   44.9386 H   0  0  0  0  0  0  0  0  0  0  0  0
   43.4053   35.8231   43.1313 H   0  0  0  0  0  0  0  0  0  0  0  0
   42.6279   34.2317   38.8901 H   0  0  0  0  0  0  0  0  0  0  0  0
   41.4037   33.1678   39.5265 H   0  0  0  0  0  0  0  0  0  0  0  0
   41.1136   35.8627   38.3616 H   0  0  0  0  0  0  0  0  0  0  0  0
   39.8113   34.7294   38.8151 H   0  0  0  0  0  0  0  0  0  0  0  0
   40.9519   37.0352   40.3322 H   0  0  0  0  0  0  0  0  0  0  0  0
   39.3549   36.3280   40.4717 H   0  0  0  0  0  0  0  0  0  0  0  0
   41.0810   35.8122   42.4440 H   0  0  0  0  0  0  0  0  0  0  0  0
   39.9472   34.1064   43.0414 H   0  0  0  0  0  0  0  0  0  0  0  0
   38.9813   34.3641   41.5490 H   0  0  0  0  0  0  0  0  0  0  0  0
   40.3373   33.1859   41.5490 H   0  0  0  0  0  0  0  0  0  0  0  0
  1  6  2  0
  2  3  2  0
  2  1  1  0
  3  4  1  0
  4  5  2  0
  6  5  1  0
  7  9  1  0
  8  7  2  0
  9  1  1  0
 10  7  1  0
 10 14  1  0
 11 10  1  0
 12 11  1  0
 12 13  1  0
 13 14  1  0
 14 19  1  0
 15 16  1  0
 15 17  1  0
 15  3  1  0
 18 15  1  0
  2 20  1  0
  5 21  1  0
  9 22  1  0
 11 23  1  0
 11 24  1  0
 12 25  1  0
 12 26  1  0
 13 27  1  0
 13 28  1  0
 14 29  1  1
 19 30  1  0
 19 31  1  0
 19 32  1  0
M  ISO  8  20  14  21  14  23  13  24  13  25  13  26  13  27  13  28  13
M  ISO  4  29  13  30   8  31   8  32   8
M  END
>  <minimizedAffinity>  (1) 
-6.49255753

>  <minimizedRMSD>  (1) 
0.334403276

$$$$
