
     RDKit          3D

 31 33  0  0  1  0  0  0  0  0999 V2000
   47.6230   34.4380   42.1310 C   0  0  1  0  0  0  0  0  0  0  0  0
   48.2400   33.7740   40.9990 C   0  0  1  0  0  0  0  0  0  0  0  0
   48.5420   35.2250   41.2170 C   0  0  0  0  0  0  0  0  0  0  0  0
   45.3240   34.3910   40.9940 C   0  0  0  0  0  0  0  0  0  0  0  0
   46.1620   34.7530   42.0820 C   0  0  0  0  0  0  0  0  0  0  0  0
   45.5930   35.4500   43.1640 C   0  0  0  0  0  0  0  0  0  0  0  0
   44.2450   35.7420   43.1020 N   0  0  0  0  0  0  0  0  0  0  0  0
   43.4890   35.3720   42.0390 C   0  0  0  0  0  0  0  0  0  0  0  0
   44.0300   34.7030   40.9980 N   0  0  0  0  0  0  0  0  0  0  0  0
   49.3460   32.9120   40.9910 N   0  0  0  0  0  0  0  0  0  0  0  0
   49.5900   32.0790   39.8840 C   0  0  0  0  0  0  0  0  0  0  0  0
   50.3580   30.8090   40.2750 C   0  0  0  0  0  0  0  0  0  0  0  0
   51.4540   31.0920   41.1750 N   0  0  0  0  0  0  0  0  0  0  0  0
   51.0690   31.8300   42.3530 C   0  0  0  0  0  0  0  0  0  0  0  0
   49.6570   32.3600   42.2690 C   0  0  0  0  0  0  0  0  0  0  0  0
   47.5814   34.2308   43.2105 H   0  0  0  0  0  0  0  0  0  0  0  0
   47.7801   33.1131   40.2496 H   0  0  0  0  0  0  0  0  0  0  0  0
   49.5366   35.5405   41.5651 H   0  0  0  0  0  0  0  0  0  0  0  0
   48.4678   36.1476   40.6226 H   0  0  0  0  0  0  0  0  0  0  0  0
   45.7492   33.8465   40.1381 H   0  0  0  0  0  0  0  0  0  0  0  0
   46.2013   35.7518   44.0294 H   0  0  0  0  0  0  0  0  0  0  0  0
   42.4176   35.6208   42.0243 H   0  0  0  0  0  0  0  0  0  0  0  0
   50.1816   32.6374   39.1436 H   0  0  0  0  0  0  0  0  0  0  0  0
   48.6180   31.7729   39.4697 H   0  0  0  0  0  0  0  0  0  0  0  0
   49.6642   30.1127   40.7688 H   0  0  0  0  0  0  0  0  0  0  0  0
   50.7774   30.3705   39.3575 H   0  0  0  0  0  0  0  0  0  0  0  0
   51.8672   30.1971   41.4739 H   0  0  0  0  0  0  0  0  0  0  0  0
   51.1447   31.1651   43.2260 H   0  0  0  0  0  0  0  0  0  0  0  0
   51.7449   32.6933   42.4417 H   0  0  0  0  0  0  0  0  0  0  0  0
   49.5306   33.1441   43.0301 H   0  0  0  0  0  0  0  0  0  0  0  0
   48.9760   31.5126   42.4370 H   0  0  0  0  0  0  0  0  0  0  0  0
  2  3  1  0
  2  1  1  0
  3  1  1  0
  4  9  2  0
  4  5  1  0
  5  1  1  0
  5  6  2  0
  7  6  1  0
  8  7  2  0
  9  8  1  0
 10  2  1  0
 10 15  1  0
 11 12  1  0
 11 10  1  0
 12 13  1  0
 13 14  1  0
 15 14  1  0
  1 16  1  1
  2 17  1  6
  3 18  1  0
  3 19  1  0
  4 20  1  0
  6 21  1  0
  8 22  1  0
 11 23  1  0
 11 24  1  0
 12 25  1  0
 12 26  1  0
 13 27  1  0
 14 28  1  0
 14 29  1  0
 15 30  1  0
 15 31  1  0
M  ISO  8  16  13  17  13  18  13  19  13  20  14  21  14  22  14  23  13
M  ISO  8  24  13  25  13  26  13  27   5  28  13  29  13  30  13  31  13
M  END
>  <minimizedAffinity>  (1) 
-3.90047646

>  <minimizedRMSD>  (1) 
3.75081873

$$$$
