
     RDKit          3D

 35 36  0  0  1  0  0  0  0  0999 V2000
   45.4120   34.6400   42.3320 C   0  0  0  0  0  0  0  0  0  0  0  0
   46.5270   35.2820   41.7200 C   0  0  0  0  0  0  0  0  0  0  0  0
   47.7960   34.9180   42.2080 C   0  0  0  0  0  0  0  0  0  0  0  0
   47.8580   34.0070   43.1970 N   0  0  0  0  0  0  0  0  0  0  0  0
   46.7670   33.4270   43.7430 C   0  0  0  0  0  0  0  0  0  0  0  0
   45.5340   33.7520   43.3020 N   0  0  0  0  0  0  0  0  0  0  0  0
   43.8000   34.3500   40.6510 C   0  0  0  0  0  0  0  0  0  0  0  0
   44.7120   33.6680   40.0710 O   0  0  0  0  0  0  0  0  0  0  0  0
   44.0840   34.9590   41.8900 N   0  0  0  0  0  0  0  0  0  0  0  0
   42.5500   34.4460   39.9920 N   0  0  0  0  0  0  0  0  0  0  0  0
   42.4420   34.0670   38.5700 C   0  0  0  0  0  0  0  0  0  0  0  0
   41.3610   34.9790   38.0790 C   0  0  0  0  0  0  0  0  0  0  0  0
   40.8620   35.7190   39.2850 C   0  0  0  0  0  0  0  0  0  0  0  0
   41.2500   34.8390   40.4470 C   0  0  1  0  0  0  0  0  0  0  0  0
   38.9620   33.6710   40.6080 C   0  0  0  0  0  0  0  0  0  0  0  0
   38.5530   34.7540   40.1230 O   0  0  0  0  0  0  0  0  0  0  0  0
   40.4130   33.6670   40.6340 N   0  0  0  0  0  0  0  0  0  0  0  0
   38.2140   32.5630   41.0860 N   0  0  0  0  0  0  0  0  0  0  0  0
   48.9190   35.5880   41.5660 C   0  0  0  0  0  0  0  0  0  0  0  0
   50.0960   34.9400   41.9160 F   0  0  0  0  0  0  0  0  0  0  0  0
   49.0140   36.8670   42.1430 F   0  0  0  0  0  0  0  0  0  0  0  0
   48.8310   35.6380   40.2030 F   0  0  0  0  0  0  0  0  0  0  0  0
   46.4033   36.0192   40.9131 H   0  0  0  0  0  0  0  0  0  0  0  0
   46.8841   32.6879   44.5492 H   0  0  0  0  0  0  0  0  0  0  0  0
   43.4247   35.5552   42.4104 H   0  0  0  0  0  0  0  0  0  0  0  0
   43.3873   34.2463   38.0369 H   0  0  0  0  0  0  0  0  0  0  0  0
   42.2238   33.0003   38.4134 H   0  0  0  0  0  0  0  0  0  0  0  0
   41.7642   35.6847   37.3378 H   0  0  0  0  0  0  0  0  0  0  0  0
   40.5523   34.4168   37.5892 H   0  0  0  0  0  0  0  0  0  0  0  0
   41.3436   36.7048   39.3645 H   0  0  0  0  0  0  0  0  0  0  0  0
   39.7793   35.9091   39.2441 H   0  0  0  0  0  0  0  0  0  0  0  0
   41.1748   35.3446   41.4210 H   0  0  0  0  0  0  0  0  0  0  0  0
   40.8843   32.7658   40.7972 H   0  0  0  0  0  0  0  0  0  0  0  0
   37.1846   32.5862   41.0585 H   0  0  0  0  0  0  0  0  0  0  0  0
   38.7007   31.7360   41.4602 H   0  0  0  0  0  0  0  0  0  0  0  0
  1  6  2  0
  2  3  2  0
  2  1  1  0
  3  4  1  0
  4  5  2  0
  6  5  1  0
  7  9  1  0
  8  7  2  0
  9  1  1  0
 10 14  1  0
 10  7  1  0
 11 10  1  0
 12 11  1  0
 12 13  1  0
 13 14  1  0
 14 17  1  0
 15 17  1  0
 15 18  1  0
 16 15  2  0
 19 20  1  0
 19 21  1  0
 19  3  1  0
 22 19  1  0
  2 23  1  0
  5 24  1  0
  9 25  1  0
 11 26  1  0
 11 27  1  0
 12 28  1  0
 12 29  1  0
 13 30  1  0
 13 31  1  0
 14 32  1  1
 17 33  1  0
 18 34  1  0
 18 35  1  0
M  ISO  8  23  14  24  14  26  13  27  13  28  13  29  13  30  13  31  13
M  ISO  1  32  13
M  END
>  <minimizedAffinity>  (1) 
-6.8401618

>  <minimizedRMSD>  (1) 
0.296540588

$$$$
