
     RDKit          3D

 24 25  0  0  0  0  0  0  0  0999 V2000
   46.2290   33.8330   41.0480 C   0  0  0  0  0  0  0  0  0  0  0  0
   45.3550   32.9960   41.4660 O   0  0  0  0  0  0  0  0  0  0  0  0
   46.5680   34.8220   42.0130 N   0  0  0  0  0  0  0  0  0  0  0  0
   44.4420   35.9120   44.8640 C   0  0  0  0  0  0  0  0  0  0  0  0
   45.0210   35.9130   43.5840 C   0  0  0  0  0  0  0  0  0  0  0  0
   45.9390   34.8900   43.2830 C   0  0  0  0  0  0  0  0  0  0  0  0
   46.2210   33.9680   44.2170 N   0  0  0  0  0  0  0  0  0  0  0  0
   45.6440   33.9830   45.4630 C   0  0  0  0  0  0  0  0  0  0  0  0
   44.7620   34.9680   45.7520 N   0  0  0  0  0  0  0  0  0  0  0  0
   48.7980   35.4650   40.8520 Cl  0  0  0  0  0  0  0  0  0  0  0  0
   48.0670   34.5960   39.5210 C   0  0  0  0  0  0  0  0  0  0  0  0
   46.8910   33.8870   39.7470 C   0  0  0  0  0  0  0  0  0  0  0  0
   46.2580   33.1730   38.7270 C   0  0  0  0  0  0  0  0  0  0  0  0
   46.8730   33.2180   37.4890 C   0  0  0  0  0  0  0  0  0  0  0  0
   48.0390   33.9150   37.2510 C   0  0  0  0  0  0  0  0  0  0  0  0
   48.6540   34.6180   38.2730 C   0  0  0  0  0  0  0  0  0  0  0  0
   47.2958   35.5131   41.7815 H   0  0  0  0  0  0  0  0  0  0  0  0
   43.7193   36.6952   45.1366 H   0  0  0  0  0  0  0  0  0  0  0  0
   44.7659   36.6857   42.8438 H   0  0  0  0  0  0  0  0  0  0  0  0
   45.8927   33.2130   46.2082 H   0  0  0  0  0  0  0  0  0  0  0  0
   45.3285   32.6101   38.8976 H   0  0  0  0  0  0  0  0  0  0  0  0
   46.4099   32.6716   36.6541 H   0  0  0  0  0  0  0  0  0  0  0  0
   48.4825   33.9124   36.2444 H   0  0  0  0  0  0  0  0  0  0  0  0
   49.5839   35.1779   38.0948 H   0  0  0  0  0  0  0  0  0  0  0  0
  1  2  2  0
  1  3  1  0
  3  6  1  0
  4  9  2  0
  5  4  1  0
  6  5  2  0
  6  7  1  0
  7  8  2  0
  8  9  1  0
 11 12  2  0
 11 10  1  0
 12  1  1  0
 13 12  1  0
 14 13  2  0
 15 14  1  0
 15 16  2  0
 16 11  1  0
  3 17  1  0
  4 18  1  0
  5 19  1  0
  8 20  1  0
 13 21  1  0
 14 22  1  0
 15 23  1  0
 16 24  1  0
M  ISO  7  18  14  19  14  20  14  21  14  22  14  23  14  24  14
M  END
>  <minimizedAffinity>  (1) 
-5.0420866

>  <minimizedRMSD>  (1) 
0.495632321

$$$$
