
     RDKit          3D

 29 30  0  0  0  0  0  0  0  0999 V2000
   46.1440   33.8360   40.7170 C   0  0  0  0  0  0  0  0  0  0  0  0
   45.1050   33.1870   41.0900 O   0  0  0  0  0  0  0  0  0  0  0  0
   46.6180   34.7400   41.7050 N   0  0  0  0  0  0  0  0  0  0  0  0
   46.7530   33.6620   39.4410 N   0  0  0  0  0  0  0  0  0  0  0  0
   46.0640   32.9910   38.3880 C   0  0  0  0  0  0  0  0  0  0  0  0
   46.5320   33.3000   37.0100 C   0  0  0  0  0  0  0  0  0  0  0  0
   48.0450   33.3410   37.0090 C   0  0  0  0  0  0  0  0  0  0  0  0
   48.4320   34.5300   37.8620 C   0  0  0  0  0  0  0  0  0  0  0  0
   48.0930   34.2010   39.2840 C   0  0  0  0  0  0  0  0  0  0  0  0
   44.5240   36.0490   44.4860 C   0  0  0  0  0  0  0  0  0  0  0  0
   45.1170   35.9640   43.2190 C   0  0  0  0  0  0  0  0  0  0  0  0
   45.9740   34.8980   42.9690 C   0  0  0  0  0  0  0  0  0  0  0  0
   46.2130   33.9770   43.9410 N   0  0  0  0  0  0  0  0  0  0  0  0
   45.6190   34.0900   45.1590 C   0  0  0  0  0  0  0  0  0  0  0  0
   44.7830   35.1150   45.4310 N   0  0  0  0  0  0  0  0  0  0  0  0
   47.4570   35.3019   41.5018 H   0  0  0  0  0  0  0  0  0  0  0  0
   46.1752   31.9083   38.5477 H   0  0  0  0  0  0  0  0  0  0  0  0
   45.0238   33.3452   38.4374 H   0  0  0  0  0  0  0  0  0  0  0  0
   46.1824   32.5206   36.3169 H   0  0  0  0  0  0  0  0  0  0  0  0
   46.1306   34.2719   36.6870 H   0  0  0  0  0  0  0  0  0  0  0  0
   48.4525   32.4139   37.4385 H   0  0  0  0  0  0  0  0  0  0  0  0
   48.4444   33.4312   35.9881 H   0  0  0  0  0  0  0  0  0  0  0  0
   49.5111   34.7222   37.7691 H   0  0  0  0  0  0  0  0  0  0  0  0
   47.8909   35.4304   37.5356 H   0  0  0  0  0  0  0  0  0  0  0  0
   48.8148   33.4573   39.6528 H   0  0  0  0  0  0  0  0  0  0  0  0
   48.1382   35.1388   39.8571 H   0  0  0  0  0  0  0  0  0  0  0  0
   43.8424   36.8816   44.7144 H   0  0  0  0  0  0  0  0  0  0  0  0
   44.9106   36.7182   42.4453 H   0  0  0  0  0  0  0  0  0  0  0  0
   45.8223   33.3359   45.9336 H   0  0  0  0  0  0  0  0  0  0  0  0
  1  2  2  0
  1  3  1  0
  3 12  1  0
  4  1  1  0
  5  4  1  0
  6  5  1  0
  7  6  1  0
  7  8  1  0
  8  9  1  0
  9  4  1  0
 10 15  2  0
 11 10  1  0
 12 11  2  0
 12 13  1  0
 13 14  2  0
 14 15  1  0
  3 16  1  0
  5 17  1  0
  5 18  1  0
  6 19  1  0
  6 20  1  0
  7 21  1  0
  7 22  1  0
  8 23  1  0
  8 24  1  0
  9 25  1  0
  9 26  1  0
 10 27  1  0
 11 28  1  0
 14 29  1  0
M  ISO  8  17  13  18  13  19  13  20  13  21  13  22  13  23  13  24  13
M  ISO  5  25  13  26  13  27  14  28  14  29  14
M  END
>  <minimizedAffinity>  (1) 
-4.76396275

>  <minimizedRMSD>  (1) 
0.561908484

$$$$
