
     RDKit          3D

 28 29  0  0  0  0  0  0  0  0999 V2000
   46.7290   34.0960   40.7590 C   0  0  0  0  0  0  0  0  0  0  0  0
   45.5390   33.6280   40.8280 O   0  0  0  0  0  0  0  0  0  0  0  0
   47.1240   34.7940   41.9270 N   0  0  0  0  0  0  0  0  0  0  0  0
   47.5680   33.9100   39.5700 C   0  0  0  0  0  0  0  0  0  0  0  0
   46.7880   33.4360   38.3560 C   0  0  0  0  0  0  0  0  0  0  0  0
   47.6970   33.6870   37.1580 C   0  0  0  0  0  0  0  0  0  0  0  0
   49.0220   33.3990   37.4170 O   0  0  0  0  0  0  0  0  0  0  0  0
   49.1260   32.4410   38.4080 C   0  0  0  0  0  0  0  0  0  0  0  0
   48.7160   32.9630   39.7730 C   0  0  0  0  0  0  0  0  0  0  0  0
   44.5810   36.1160   44.3000 C   0  0  0  0  0  0  0  0  0  0  0  0
   45.3870   36.0380   43.1500 C   0  0  0  0  0  0  0  0  0  0  0  0
   46.2740   34.9610   43.0430 C   0  0  0  0  0  0  0  0  0  0  0  0
   46.3240   34.0470   44.0390 N   0  0  0  0  0  0  0  0  0  0  0  0
   45.5300   34.1480   45.1460 C   0  0  0  0  0  0  0  0  0  0  0  0
   44.6730   35.1770   45.2620 N   0  0  0  0  0  0  0  0  0  0  0  0
   48.0712   35.1968   41.9640 H   0  0  0  0  0  0  0  0  0  0  0  0
   47.9654   34.9196   39.3889 H   0  0  0  0  0  0  0  0  0  0  0  0
   46.5560   32.3643   38.4436 H   0  0  0  0  0  0  0  0  0  0  0  0
   45.8295   33.9665   38.2567 H   0  0  0  0  0  0  0  0  0  0  0  0
   47.6176   34.7466   36.8736 H   0  0  0  0  0  0  0  0  0  0  0  0
   47.3670   33.0190   36.3487 H   0  0  0  0  0  0  0  0  0  0  0  0
   48.4770   31.5922   38.1464 H   0  0  0  0  0  0  0  0  0  0  0  0
   50.1825   32.1412   38.4706 H   0  0  0  0  0  0  0  0  0  0  0  0
   49.5595   33.4909   40.2418 H   0  0  0  0  0  0  0  0  0  0  0  0
   48.4208   32.1330   40.4317 H   0  0  0  0  0  0  0  0  0  0  0  0
   43.8713   36.9485   44.4148 H   0  0  0  0  0  0  0  0  0  0  0  0
   45.3221   36.7999   42.3593 H   0  0  0  0  0  0  0  0  0  0  0  0
   45.5918   33.3894   45.9402 H   0  0  0  0  0  0  0  0  0  0  0  0
  1  2  2  0
  1  3  1  0
  3 12  1  0
  4  9  1  0
  4  1  1  0
  5  4  1  0
  6  7  1  0
  6  5  1  0
  7  8  1  0
  8  9  1  0
 10 15  2  0
 11 10  1  0
 12 11  2  0
 12 13  1  0
 13 14  2  0
 14 15  1  0
  3 16  1  0
  4 17  1  0
  5 18  1  0
  5 19  1  0
  6 20  1  0
  6 21  1  0
  8 22  1  0
  8 23  1  0
  9 24  1  0
  9 25  1  0
 10 26  1  0
 11 27  1  0
 14 28  1  0
M  ISO  8  17  13  18  13  19  13  20  13  21  13  22  13  23  13  24  13
M  ISO  4  25  13  26  14  27  14  28  14
M  END
>  <minimizedAffinity>  (1) 
-4.32455063

>  <minimizedRMSD>  (1) 
0.433329821

$$$$
