
     RDKit          3D

 27 28  0  0  0  0  0  0  0  0999 V2000
   46.2910   33.4370   41.0220 C   0  0  0  0  0  0  0  0  0  0  0  0
   45.4060   32.6780   41.5200 O   0  0  0  0  0  0  0  0  0  0  0  0
   46.6630   34.5050   41.8780 N   0  0  0  0  0  0  0  0  0  0  0  0
   44.4840   36.0010   44.5080 C   0  0  0  0  0  0  0  0  0  0  0  0
   45.0940   35.8340   43.2550 C   0  0  0  0  0  0  0  0  0  0  0  0
   45.9860   34.7730   43.0940 C   0  0  0  0  0  0  0  0  0  0  0  0
   46.2300   33.9450   44.1440 N   0  0  0  0  0  0  0  0  0  0  0  0
   45.6160   34.1370   45.3520 C   0  0  0  0  0  0  0  0  0  0  0  0
   44.7510   35.1640   45.5180 N   0  0  0  0  0  0  0  0  0  0  0  0
   48.2710   32.9640   39.7090 C   0  0  0  0  0  0  0  0  0  0  0  0
   46.9100   33.2810   39.6990 C   0  0  0  0  0  0  0  0  0  0  0  0
   46.1910   33.4380   38.5360 C   0  0  0  0  0  0  0  0  0  0  0  0
   46.8670   33.2700   37.3310 C   0  0  0  0  0  0  0  0  0  0  0  0
   48.2180   32.9530   37.2760 C   0  0  0  0  0  0  0  0  0  0  0  0
   48.9080   32.8030   38.4780 C   0  0  0  0  0  0  0  0  0  0  0  0
   49.1540   32.7720   41.2220 S   0  0  0  0  0  0  0  0  0  0  0  0
   48.4600   31.8750   42.1780 O   0  0  0  0  0  0  0  0  0  0  0  0
   49.4800   34.1190   41.8170 O   0  0  0  0  0  0  0  0  0  0  0  0
   47.4532   35.1072   41.6063 H   0  0  0  0  0  0  0  0  0  0  0  0
   43.7777   36.8301   44.6620 H   0  0  0  0  0  0  0  0  0  0  0  0
   44.8751   36.5200   42.4235 H   0  0  0  0  0  0  0  0  0  0  0  0
   45.8261   33.4552   46.1893 H   0  0  0  0  0  0  0  0  0  0  0  0
   45.1199   33.6875   38.5580 H   0  0  0  0  0  0  0  0  0  0  0  0
   46.3118   33.3926   36.3893 H   0  0  0  0  0  0  0  0  0  0  0  0
   48.7294   32.8239   36.3107 H   0  0  0  0  0  0  0  0  0  0  0  0
   49.9788   32.5521   38.4555 H   0  0  0  0  0  0  0  0  0  0  0  0
   50.3392   32.1464   40.9378 H   0  0  0  0  0  0  0  0  0  0  0  0
  1  2  2  0
  1  3  1  0
  3  6  1  0
  4  9  2  0
  5  4  1  0
  6  5  2  0
  6  7  1  0
  7  8  2  0
  8  9  1  0
 10 16  1  0
 11 10  2  0
 11  1  1  0
 12 11  1  0
 13 12  2  0
 14 13  1  0
 14 15  2  0
 15 10  1  0
 16 18  2  0
 16 17  2  0
  3 19  1  0
  4 20  1  0
  5 21  1  0
  8 22  1  0
 12 23  1  0
 13 24  1  0
 14 25  1  0
 15 26  1  0
 16 27  1  0
M  ISO  8  20  14  21  14  22  14  23  14  24  14  25  14  26  14  27  11
M  END
>  <minimizedAffinity>  (1) 
-4.21559715

>  <minimizedRMSD>  (1) 
1.05650914

$$$$
