
     RDKit          3D

 21 22  0  0  0  0  0  0  0  0999 V2000
   46.3620   34.1240   40.9380 C   0  0  0  0  0  0  0  0  0  0  0  0
   45.2510   33.5580   41.1130 O   0  0  0  0  0  0  0  0  0  0  0  0
   46.8220   34.8910   42.0390 N   0  0  0  0  0  0  0  0  0  0  0  0
   44.4820   35.9450   44.7480 C   0  0  0  0  0  0  0  0  0  0  0  0
   45.1720   35.9600   43.5100 C   0  0  0  0  0  0  0  0  0  0  0  0
   46.0950   34.9350   43.2630 C   0  0  0  0  0  0  0  0  0  0  0  0
   46.2880   33.9860   44.1950 N   0  0  0  0  0  0  0  0  0  0  0  0
   45.6080   33.9920   45.3860 C   0  0  0  0  0  0  0  0  0  0  0  0
   44.7230   34.9700   45.6330 N   0  0  0  0  0  0  0  0  0  0  0  0
   47.0620   33.9530   39.6700 C   0  0  0  0  0  0  0  0  0  0  0  0
   48.2880   34.5380   39.4430 C   0  0  0  0  0  0  0  0  0  0  0  0
   48.6250   34.1640   38.1760 N   0  0  0  0  0  0  0  0  0  0  0  0
   47.6330   33.3820   37.6610 C   0  0  0  0  0  0  0  0  0  0  0  0
   46.6630   33.2540   38.5960 N   0  0  0  0  0  0  0  0  0  0  0  0
   47.6978   35.4259   41.9517 H   0  0  0  0  0  0  0  0  0  0  0  0
   43.7503   36.7326   44.9810 H   0  0  0  0  0  0  0  0  0  0  0  0
   44.9889   36.7505   42.7673 H   0  0  0  0  0  0  0  0  0  0  0  0
   45.7863   33.2029   46.1314 H   0  0  0  0  0  0  0  0  0  0  0  0
   48.8681   35.1687   40.1327 H   0  0  0  0  0  0  0  0  0  0  0  0
   49.4909   34.4297   37.6856 H   0  0  0  0  0  0  0  0  0  0  0  0
   47.6232   32.9323   36.6572 H   0  0  0  0  0  0  0  0  0  0  0  0
  1  2  2  0
  1  3  1  0
  3  6  1  0
  4  9  2  0
  5  4  1  0
  6  5  2  0
  6  7  1  0
  7  8  2  0
  8  9  1  0
 10  1  1  0
 11 10  2  0
 12 11  1  0
 13 12  1  0
 13 14  2  0
 14 10  1  0
  3 15  1  0
  4 16  1  0
  5 17  1  0
  8 18  1  0
 11 19  1  0
 12 20  1  0
 13 21  1  0
M  ISO  6  16  14  17  14  18  14  19  14  20   9  21  14
M  END
>  <minimizedAffinity>  (1) 
-4.23507309

>  <minimizedRMSD>  (1) 
0.366885573

$$$$
