
     RDKit          3D

 21 22  0  0  0  0  0  0  0  0999 V2000
   46.5220   34.1060   40.9290 C   0  0  0  0  0  0  0  0  0  0  0  0
   45.4680   33.4380   41.1080 O   0  0  0  0  0  0  0  0  0  0  0  0
   46.9340   34.8980   42.0330 N   0  0  0  0  0  0  0  0  0  0  0  0
   44.5080   35.8610   44.6960 C   0  0  0  0  0  0  0  0  0  0  0  0
   45.2070   35.9030   43.4840 C   0  0  0  0  0  0  0  0  0  0  0  0
   46.1780   34.9280   43.2390 C   0  0  0  0  0  0  0  0  0  0  0  0
   46.4060   33.9760   44.1880 N   0  0  0  0  0  0  0  0  0  0  0  0
   45.7040   33.9700   45.3560 C   0  0  0  0  0  0  0  0  0  0  0  0
   44.7710   34.9010   45.5990 N   0  0  0  0  0  0  0  0  0  0  0  0
   47.2440   34.0490   39.6640 C   0  0  0  0  0  0  0  0  0  0  0  0
   46.8750   33.2500   38.6090 C   0  0  0  0  0  0  0  0  0  0  0  0
   47.8480   33.5350   37.6480 C   0  0  0  0  0  0  0  0  0  0  0  0
   48.7400   34.4570   38.1200 N   0  0  0  0  0  0  0  0  0  0  0  0
   48.3460   34.7570   39.3630 N   0  0  0  0  0  0  0  0  0  0  0  0
   47.7940   35.4601   41.9602 H   0  0  0  0  0  0  0  0  0  0  0  0
   43.7392   36.6179   44.9105 H   0  0  0  0  0  0  0  0  0  0  0  0
   44.9967   36.6861   42.7407 H   0  0  0  0  0  0  0  0  0  0  0  0
   45.9053   33.1925   46.1076 H   0  0  0  0  0  0  0  0  0  0  0  0
   46.0237   32.5570   38.5385 H   0  0  0  0  0  0  0  0  0  0  0  0
   47.8906   33.0795   36.6477 H   0  0  0  0  0  0  0  0  0  0  0  0
   49.5528   34.8435   37.6190 H   0  0  0  0  0  0  0  0  0  0  0  0
  1  2  2  0
  1  3  1  0
  3  6  1  0
  4  9  2  0
  5  4  1  0
  6  5  2  0
  6  7  1  0
  7  8  2  0
  8  9  1  0
 10  1  1  0
 11 10  1  0
 12 13  1  0
 12 11  2  0
 13 14  1  0
 14 10  2  0
  3 15  1  0
  4 16  1  0
  5 17  1  0
  8 18  1  0
 11 19  1  0
 12 20  1  0
 13 21  1  0
M  ISO  6  16  14  17  14  18  14  19  14  20  14  21   9
M  END
>  <minimizedAffinity>  (1) 
-4.36905289

>  <minimizedRMSD>  (1) 
0.526471555

$$$$
