
     RDKit          3D

 47 50  0  0  1  0  0  0  0  0999 V2000
   45.7680   32.7600   39.6110 C   0  0  0  0  0  0  0  0  0  0  0  0
   46.8100   33.4860   40.0180 C   0  0  0  0  0  0  0  0  0  0  0  0
   46.7570   34.1740   41.2550 N   0  0  0  0  0  0  0  0  0  0  0  0
   47.4080   34.6330   42.4260 C   0  0  0  0  0  0  0  0  0  0  0  0
   48.6060   34.6430   42.8490 O   0  0  0  0  0  0  0  0  0  0  0  0
   46.2040   35.1370   43.0660 C   0  0  1  0  0  0  0  0  0  0  0  0
   45.5400   34.7800   41.7570 C   0  0  2  0  0  0  0  0  0  0  0  0
   44.2950   33.4890   41.8300 S   0  0  0  0  0  0  0  0  0  0  0  0
   44.4710   32.5450   40.3180 C   0  0  0  0  0  0  0  0  0  0  0  0
   45.8130   34.3720   44.2390 C   0  0  0  0  0  0  0  0  0  0  0  0
   44.8690   34.4670   45.0420 O   0  0  0  0  0  0  0  0  0  0  0  0
   46.7010   33.2710   44.5300 N   0  0  0  0  0  0  0  0  0  0  0  0
   46.6740   31.9030   47.9790 C   0  0  0  0  0  0  0  0  0  0  0  0
   46.8810   32.7830   46.9160 C   0  0  0  0  0  0  0  0  0  0  0  0
   46.4890   32.4230   45.6430 C   0  0  0  0  0  0  0  0  0  0  0  0
   45.9130   31.2230   45.4630 N   0  0  0  0  0  0  0  0  0  0  0  0
   45.7150   30.3700   46.5120 C   0  0  0  0  0  0  0  0  0  0  0  0
   46.0970   30.7260   47.7460 N   0  0  0  0  0  0  0  0  0  0  0  0
   45.9440   32.0960   38.2970 C   0  0  0  0  0  0  0  0  0  0  0  0
   48.0190   33.5970   39.2220 C   0  0  0  0  0  0  0  0  0  0  0  0
   48.2790   34.6210   38.5270 O   0  0  0  0  0  0  0  0  0  0  0  0
   49.0890   32.7700   39.0020 O   0  0  0  0  0  0  0  0  0  0  0  0
   49.5430   31.7380   39.7960 C   0  0  0  0  0  0  0  0  0  0  0  0
   50.6600   30.9320   39.1860 C   0  0  0  0  0  0  0  0  0  0  0  0
   51.0500   30.0490   40.3560 C   0  0  0  0  0  0  0  0  0  0  0  0
   50.7130   30.8510   41.6060 C   0  0  0  0  0  0  0  0  0  0  0  0
   50.2190   32.1980   41.0760 C   0  0  0  0  0  0  0  0  0  0  0  0
   46.0963   36.1350   43.5159 H   0  0  0  0  0  0  0  0  0  0  0  0
   45.0085   35.5976   41.2481 H   0  0  0  0  0  0  0  0  0  0  0  0
   43.6553   32.8291   39.6368 H   0  0  0  0  0  0  0  0  0  0  0  0
   44.4377   31.4829   40.6023 H   0  0  0  0  0  0  0  0  0  0  0  0
   47.5076   33.0989   43.9130 H   0  0  0  0  0  0  0  0  0  0  0  0
   46.9840   32.1786   48.9978 H   0  0  0  0  0  0  0  0  0  0  0  0
   47.3549   33.7599   47.0922 H   0  0  0  0  0  0  0  0  0  0  0  0
   45.2421   29.3913   46.3434 H   0  0  0  0  0  0  0  0  0  0  0  0
   46.2230   31.0434   38.4525 H   0  0  0  0  0  0  0  0  0  0  0  0
   45.0016   32.1459   37.7318 H   0  0  0  0  0  0  0  0  0  0  0  0
   46.7379   32.6061   37.7318 H   0  0  0  0  0  0  0  0  0  0  0  0
   48.6095   31.1759   39.9462 H   0  0  0  0  0  0  0  0  0  0  0  0
   50.3085   30.3371   38.3301 H   0  0  0  0  0  0  0  0  0  0  0  0
   51.4844   31.5350   38.7776 H   0  0  0  0  0  0  0  0  0  0  0  0
   50.4769   29.1103   40.3362 H   0  0  0  0  0  0  0  0  0  0  0  0
   52.1153   29.7768   40.3225 H   0  0  0  0  0  0  0  0  0  0  0  0
   49.9258   30.3502   42.1886 H   0  0  0  0  0  0  0  0  0  0  0  0
   51.5762   30.9579   42.2794 H   0  0  0  0  0  0  0  0  0  0  0  0
   51.0511   32.8886   40.8741 H   0  0  0  0  0  0  0  0  0  0  0  0
   49.5748   32.7624   41.7663 H   0  0  0  0  0  0  0  0  0  0  0  0
  1  2  2  0
  1  9  1  0
  2  3  1  0
  3  7  1  0
  3  4  1  0
  4  5  2  0
  4  6  1  0
  6 10  1  0
  7  8  1  0
  7  6  1  0
  9  8  1  0
 10 12  1  0
 10 11  2  0
 12 15  1  0
 14 13  2  0
 15 14  1  0
 16 15  2  0
 16 17  1  0
 17 18  2  0
 18 13  1  0
 19  1  1  0
 20  2  1  0
 21 20  2  0
 22 20  1  0
 22 23  1  0
 23 27  1  0
 24 23  1  0
 24 25  1  0
 25 26  1  0
 27 26  1  0
  6 28  1  1
  7 29  1  6
  9 30  1  0
  9 31  1  0
 12 32  1  0
 13 33  1  0
 14 34  1  0
 17 35  1  0
 19 36  1  0
 19 37  1  0
 19 38  1  0
 23 39  1  0
 24 40  1  0
 24 41  1  0
 25 42  1  0
 25 43  1  0
 26 44  1  0
 26 45  1  0
 27 46  1  0
 27 47  1  0
M  ISO  8  28  13  29  13  30  13  31  13  33  14  34  14  35  14  36   8
M  ISO  8  37   8  38   8  39  13  40  13  41  13  42  13  43  13  44  13
M  ISO  3  45  13  46  13  47  13
M  END
>  <minimizedAffinity>  (1) 
-5.09318018

>  <minimizedRMSD>  (1) 
4.00146914

$$$$
