
     RDKit          3D

 43 46  0  0  1  0  0  0  0  0999 V2000
   45.7670   34.6090   41.1240 C   0  0  1  0  0  0  0  0  0  0  0  0
   44.3330   35.1000   41.6570 C   0  0  0  0  0  0  0  0  0  0  0  0
   44.5000   36.1310   42.7170 C   0  0  0  0  0  0  0  0  0  0  0  0
   45.1370   35.5760   43.9720 C   0  0  0  0  0  0  0  0  0  0  0  0
   45.9780   34.3780   43.5910 C   0  0  0  0  0  0  0  0  0  0  0  0
   46.6730   34.6560   42.2560 C   0  0  1  0  0  0  0  0  0  0  0  0
   47.9570   34.1050   42.2410 N   0  0  0  0  0  0  0  0  0  0  0  0
   47.9820   32.7550   42.4540 C   0  0  0  0  0  0  0  0  0  0  0  0
   49.1660   32.0490   42.4800 C   0  0  0  0  0  0  0  0  0  0  0  0
   50.3860   32.7080   42.2860 C   0  0  0  0  0  0  0  0  0  0  0  0
   51.5150   32.1300   42.2950 O   0  0  0  0  0  0  0  0  0  0  0  0
   50.3750   34.0300   42.0780 N   0  0  0  0  0  0  0  0  0  0  0  0
   49.1780   34.6320   42.0700 C   0  0  0  0  0  0  0  0  0  0  0  0
   49.2250   35.8670   41.8770 O   0  0  0  0  0  0  0  0  0  0  0  0
   45.4990   33.3070   40.4720 C   0  0  0  0  0  0  0  0  0  0  0  0
   45.9900   32.7940   39.2800 C   0  0  0  0  0  0  0  0  0  0  0  0
   45.5450   31.5450   38.9150 C   0  0  0  0  0  0  0  0  0  0  0  0
   44.6520   30.8740   39.7360 N   0  0  0  0  0  0  0  0  0  0  0  0
   44.2030   31.4230   40.8970 C   0  0  0  0  0  0  0  0  0  0  0  0
   44.6440   32.6590   41.2550 N   0  0  0  0  0  0  0  0  0  0  0  0
   47.0040   33.4750   38.4280 C   0  0  0  0  0  0  0  0  0  0  0  0
   48.0600   34.2410   38.9110 C   0  0  0  0  0  0  0  0  0  0  0  0
   48.5040   32.8870   38.5820 C   0  0  0  0  0  0  0  0  0  0  0  0
   46.2748   35.2213   40.3643 H   0  0  0  0  0  0  0  0  0  0  0  0
   43.7626   35.5294   40.8201 H   0  0  0  0  0  0  0  0  0  0  0  0
   43.7943   34.2384   42.0783 H   0  0  0  0  0  0  0  0  0  0  0  0
   45.1365   36.9385   42.3261 H   0  0  0  0  0  0  0  0  0  0  0  0
   43.4986   36.4984   42.9857 H   0  0  0  0  0  0  0  0  0  0  0  0
   45.7731   36.3438   44.4365 H   0  0  0  0  0  0  0  0  0  0  0  0
   44.3592   35.2785   44.6908 H   0  0  0  0  0  0  0  0  0  0  0  0
   46.7343   34.1969   44.3689 H   0  0  0  0  0  0  0  0  0  0  0  0
   45.3354   33.4903   43.4957 H   0  0  0  0  0  0  0  0  0  0  0  0
   46.9500   35.7112   42.1152 H   0  0  0  0  0  0  0  0  0  0  0  0
   47.0341   32.2187   42.6085 H   0  0  0  0  0  0  0  0  0  0  0  0
   49.1521   30.9629   42.6540 H   0  0  0  0  0  0  0  0  0  0  0  0
   51.2459   34.5599   41.9310 H   0  0  0  0  0  0  0  0  0  0  0  0
   45.8945   31.0826   37.9801 H   0  0  0  0  0  0  0  0  0  0  0  0
   43.4944   30.8759   41.5362 H   0  0  0  0  0  0  0  0  0  0  0  0
   46.2433   33.6793   37.6602 H   0  0  0  0  0  0  0  0  0  0  0  0
   48.4256   35.0757   38.2949 H   0  0  0  0  0  0  0  0  0  0  0  0
   48.1606   34.8274   39.8362 H   0  0  0  0  0  0  0  0  0  0  0  0
   48.7513   32.1632   39.3725 H   0  0  0  0  0  0  0  0  0  0  0  0
   49.2620   32.4112   37.9424 H   0  0  0  0  0  0  0  0  0  0  0  0
  1  2  1  0
  1  6  1  0
  2  3  1  0
  3  4  1  0
  5  4  1  0
  6  5  1  0
  7  6  1  0
  7  8  1  0
  8  9  2  0
 10 11  2  0
 10  9  1  0
 12 10  1  0
 13 12  1  0
 13  7  1  0
 14 13  2  0
 15  1  1  0
 15 20  2  0
 16 15  1  0
 17 16  2  0
 17 18  1  0
 18 19  2  0
 19 20  1  0
 21 23  1  0
 21 22  1  0
 21 16  1  0
 23 22  1  0
  1 24  1  6
  2 25  1  0
  2 26  1  0
  3 27  1  0
  3 28  1  0
  4 29  1  0
  4 30  1  0
  5 31  1  0
  5 32  1  0
  6 33  1  1
  8 34  1  0
  9 35  1  0
 12 36  1  0
 17 37  1  0
 19 38  1  0
 21 39  1  0
 22 40  1  0
 22 41  1  0
 23 42  1  0
 23 43  1  0
M  ISO  8  24  13  25  13  26  13  27  13  28  13  29  13  30  13  31  13
M  ISO  8  32  13  33  13  34  14  35  14  36   9  37  14  38  14  39  13
M  ISO  4  40  13  41  13  42  13  43  13
M  END
>  <minimizedAffinity>  (1) 
-4.96906948

>  <minimizedRMSD>  (1) 
5.52471495

$$$$
