
     RDKit          3D

 48 51  0  0  1  0  0  0  0  0999 V2000
   45.3930   34.0310   40.4520 C   0  0  1  0  0  0  0  0  0  0  0  0
   44.6060   33.2320   39.3200 C   0  0  0  0  0  0  0  0  0  0  0  0
   43.1900   33.7320   39.2830 C   0  0  0  0  0  0  0  0  0  0  0  0
   42.4100   33.3620   40.5180 C   0  0  0  0  0  0  0  0  0  0  0  0
   43.3690   33.2330   41.6690 C   0  0  0  0  0  0  0  0  0  0  0  0
   44.4590   34.2760   41.5590 C   0  0  1  0  0  0  0  0  0  0  0  0
   46.5770   33.1760   40.7700 C   0  0  0  0  0  0  0  0  0  0  0  0
   47.8630   33.5650   41.0570 C   0  0  0  0  0  0  0  0  0  0  0  0
   48.7510   32.5330   41.3520 C   0  0  0  0  0  0  0  0  0  0  0  0
   48.3300   31.2320   41.3450 N   0  0  0  0  0  0  0  0  0  0  0  0
   47.0570   30.9130   41.0590 C   0  0  0  0  0  0  0  0  0  0  0  0
   46.1930   31.9120   40.7720 N   0  0  0  0  0  0  0  0  0  0  0  0
   48.3560   34.9770   40.9790 C   0  0  0  0  0  0  0  0  0  0  0  0
   48.1740   35.7540   42.2380 C   0  0  0  0  0  0  0  0  0  0  0  0
   49.5720   35.3580   41.7950 C   0  0  0  0  0  0  0  0  0  0  0  0
   45.1630   34.5020   42.7810 N   0  0  0  0  0  0  0  0  0  0  0  0
   45.0630   33.4630   43.7460 C   0  0  0  0  0  0  0  0  0  0  0  0
   45.7660   33.9520   45.0210 C   0  0  0  0  0  0  0  0  0  0  0  0
   44.7640   34.9270   45.6040 C   0  0  0  0  0  0  0  0  0  0  0  0
   44.5850   36.0460   44.6510 C   0  0  0  0  0  0  0  0  0  0  0  0
   45.0320   35.8280   43.2480 C   0  0  0  0  0  0  0  0  0  0  0  0
   45.7640   35.0276   40.1707 H   0  0  0  0  0  0  0  0  0  0  0  0
   45.0853   33.4014   38.3445 H   0  0  0  0  0  0  0  0  0  0  0  0
   44.6203   32.1542   39.5393 H   0  0  0  0  0  0  0  0  0  0  0  0
   43.2061   34.8281   39.1923 H   0  0  0  0  0  0  0  0  0  0  0  0
   42.6934   33.2598   38.4226 H   0  0  0  0  0  0  0  0  0  0  0  0
   41.6701   34.1457   40.7379 H   0  0  0  0  0  0  0  0  0  0  0  0
   41.8829   32.4097   40.3589 H   0  0  0  0  0  0  0  0  0  0  0  0
   42.8240   33.3750   42.6139 H   0  0  0  0  0  0  0  0  0  0  0  0
   43.8255   32.2324   41.6460 H   0  0  0  0  0  0  0  0  0  0  0  0
   43.9163   35.2042   41.3267 H   0  0  0  0  0  0  0  0  0  0  0  0
   49.7987   32.7664   41.5924 H   0  0  0  0  0  0  0  0  0  0  0  0
   46.7256   29.8641   41.0584 H   0  0  0  0  0  0  0  0  0  0  0  0
   48.0956   35.1025   39.9177 H   0  0  0  0  0  0  0  0  0  0  0  0
   47.8615   36.8077   42.1925 H   0  0  0  0  0  0  0  0  0  0  0  0
   47.5831   35.6169   43.1556 H   0  0  0  0  0  0  0  0  0  0  0  0
   50.1302   34.5883   42.3481 H   0  0  0  0  0  0  0  0  0  0  0  0
   50.5130   35.8924   41.5976 H   0  0  0  0  0  0  0  0  0  0  0  0
   44.0054   33.2477   43.9586 H   0  0  0  0  0  0  0  0  0  0  0  0
   45.5315   32.5401   43.3734 H   0  0  0  0  0  0  0  0  0  0  0  0
   45.9564   33.1184   45.7130 H   0  0  0  0  0  0  0  0  0  0  0  0
   46.7511   34.4024   44.8296 H   0  0  0  0  0  0  0  0  0  0  0  0
   43.8017   34.4185   45.7636 H   0  0  0  0  0  0  0  0  0  0  0  0
   45.1289   35.3094   46.5687 H   0  0  0  0  0  0  0  0  0  0  0  0
   43.5120   36.2865   44.6220 H   0  0  0  0  0  0  0  0  0  0  0  0
   45.2348   36.8474   45.0323 H   0  0  0  0  0  0  0  0  0  0  0  0
   46.0160   36.3082   43.1424 H   0  0  0  0  0  0  0  0  0  0  0  0
   44.2194   36.2493   42.6380 H   0  0  0  0  0  0  0  0  0  0  0  0
  1  7  1  0
  1  6  1  0
  2  1  1  0
  3  2  1  0
  3  4  1  0
  4  5  1  0
  6  5  1  0
  6 16  1  0
  7 12  2  0
  7  8  1  0
  8  9  2  0
 10  9  1  0
 11 10  2  0
 12 11  1  0
 13  8  1  0
 13 15  1  0
 13 14  1  0
 15 14  1  0
 16 21  1  0
 16 17  1  0
 17 18  1  0
 18 19  1  0
 20 19  1  0
 21 20  1  0
  1 22  1  6
  2 23  1  0
  2 24  1  0
  3 25  1  0
  3 26  1  0
  4 27  1  0
  4 28  1  0
  5 29  1  0
  5 30  1  0
  6 31  1  6
  9 32  1  0
 11 33  1  0
 13 34  1  0
 14 35  1  0
 14 36  1  0
 15 37  1  0
 15 38  1  0
 17 39  1  0
 17 40  1  0
 18 41  1  0
 18 42  1  0
 19 43  1  0
 19 44  1  0
 20 45  1  0
 20 46  1  0
 21 47  1  0
 21 48  1  0
M  ISO  8  22  13  23  13  24  13  25  13  26  13  27  13  28  13  29  13
M  ISO  8  30  13  31  13  32  14  33  14  34  13  35  13  36  13  37  13
M  ISO  8  38  13  39  13  40  13  41  13  42  13  43  13  44  13  45  13
M  ISO  3  46  13  47  13  48  13
M  END
>  <minimizedAffinity>  (1) 
-4.91746092

>  <minimizedRMSD>  (1) 
2.91017175

$$$$
