
     RDKit          3D

 35 37  0  0  1  0  0  0  0  0999 V2000
   44.3950   34.7070   41.2250 C   0  0  1  0  0  0  0  0  0  0  0  0
   44.7260   33.7200   40.0210 C   0  0  0  0  0  0  0  0  0  0  0  0
   43.5220   33.6400   39.1310 C   0  0  0  0  0  0  0  0  0  0  0  0
   42.3640   32.9270   39.7920 C   0  0  0  0  0  0  0  0  0  0  0  0
   42.4410   33.1510   41.2730 C   0  0  0  0  0  0  0  0  0  0  0  0
   42.9830   34.5370   41.6040 C   0  0  2  0  0  0  0  0  0  0  0  0
   45.3920   34.3550   42.2860 C   0  0  0  0  0  0  0  0  0  0  0  0
   46.7580   34.4620   42.2470 C   0  0  0  0  0  0  0  0  0  0  0  0
   47.4310   34.1070   43.4190 C   0  0  0  0  0  0  0  0  0  0  0  0
   46.7230   33.6850   44.5160 N   0  0  0  0  0  0  0  0  0  0  0  0
   45.3860   33.6030   44.4930 C   0  0  0  0  0  0  0  0  0  0  0  0
   44.7360   33.9470   43.3570 N   0  0  0  0  0  0  0  0  0  0  0  0
   47.5460   34.8260   41.0290 C   0  0  0  0  0  0  0  0  0  0  0  0
   48.8140   35.5540   41.3100 C   0  0  0  0  0  0  0  0  0  0  0  0
   48.8680   34.1300   40.7950 C   0  0  0  0  0  0  0  0  0  0  0  0
   42.0760   35.6270   41.1890 C   0  0  0  0  0  0  0  0  0  0  0  0
   40.9160   35.7040   41.5500 O   0  0  0  0  0  0  0  0  0  0  0  0
   44.4897   35.7783   40.9939 H   0  0  0  0  0  0  0  0  0  0  0  0
   45.5847   34.1041   39.4509 H   0  0  0  0  0  0  0  0  0  0  0  0
   44.9770   32.7216   40.4084 H   0  0  0  0  0  0  0  0  0  0  0  0
   43.7953   33.0961   38.2147 H   0  0  0  0  0  0  0  0  0  0  0  0
   43.2003   34.6680   38.9082 H   0  0  0  0  0  0  0  0  0  0  0  0
   41.4147   33.3271   39.4064 H   0  0  0  0  0  0  0  0  0  0  0  0
   42.4141   31.8501   39.5736 H   0  0  0  0  0  0  0  0  0  0  0  0
   41.4332   33.0501   41.7021 H   0  0  0  0  0  0  0  0  0  0  0  0
   43.1262   32.4031   41.6987 H   0  0  0  0  0  0  0  0  0  0  0  0
   42.9976   34.6181   42.7009 H   0  0  0  0  0  0  0  0  0  0  0  0
   48.5286   34.1659   43.4622 H   0  0  0  0  0  0  0  0  0  0  0  0
   44.8286   33.2634   45.3784 H   0  0  0  0  0  0  0  0  0  0  0  0
   46.6575   34.9851   40.4003 H   0  0  0  0  0  0  0  0  0  0  0  0
   49.1254   36.3849   40.6599 H   0  0  0  0  0  0  0  0  0  0  0  0
   49.2294   36.0790   42.1828 H   0  0  0  0  0  0  0  0  0  0  0  0
   49.1883   33.3136   41.4590 H   0  0  0  0  0  0  0  0  0  0  0  0
   49.3466   33.6211   39.9454 H   0  0  0  0  0  0  0  0  0  0  0  0
   42.4684   36.4076   40.5207 H   0  0  0  0  0  0  0  0  0  0  0  0
  1  6  1  0
  1  7  1  0
  2  1  1  0
  3  4  1  0
  3  2  1  0
  4  5  1  0
  5  6  1  0
  7 12  2  0
  8  7  1  0
  8  9  2  0
  9 10  1  0
 11 10  2  0
 12 11  1  0
 13 14  1  0
 13  8  1  0
 15 13  1  0
 15 14  1  0
 16 17  2  0
 16  6  1  0
  1 18  1  6
  2 19  1  0
  2 20  1  0
  3 21  1  0
  3 22  1  0
  4 23  1  0
  4 24  1  0
  5 25  1  0
  5 26  1  0
  6 27  1  1
  9 28  1  0
 11 29  1  0
 13 30  1  0
 14 31  1  0
 14 32  1  0
 15 33  1  0
 15 34  1  0
 16 35  1  0
M  ISO  8  18  13  19  13  20  13  21  13  22  13  23  13  24  13  25  13
M  ISO  8  26  13  27  13  28  14  29  14  30  13  31  13  32  13  33  13
M  ISO  2  34  13  35   6
M  END
>  <minimizedAffinity>  (1) 
-4.56039

>  <minimizedRMSD>  (1) 
1.45572698

$$$$
