
     RDKit          3D

 25 26  0  0  0  0  0  0  0  0999 V2000
   44.6500   35.2920   45.1300 C   0  0  0  0  0  0  0  0  0  0  0  0
   45.3850   35.1290   43.9430 C   0  0  0  0  0  0  0  0  0  0  0  0
   46.3390   34.0970   43.9110 C   0  0  0  0  0  0  0  0  0  0  0  0
   46.4850   33.3390   45.0140 N   0  0  0  0  0  0  0  0  0  0  0  0
   45.7670   33.5210   46.1330 C   0  0  0  0  0  0  0  0  0  0  0  0
   44.8430   34.5000   46.2010 N   0  0  0  0  0  0  0  0  0  0  0  0
   46.0100   32.6660   47.2200 N   0  0  0  0  0  0  0  0  0  0  0  0
   45.0470   32.2580   48.2230 C   0  0  0  0  0  0  0  0  0  0  0  0
   45.5900   30.9000   48.6160 C   0  0  0  0  0  0  0  0  0  0  0  0
   47.0730   31.2530   48.7920 C   0  0  0  0  0  0  0  0  0  0  0  0
   47.3040   32.0350   47.5200 C   0  0  0  0  0  0  0  0  0  0  0  0
   45.0730   36.0660   42.8450 C   0  0  0  0  0  0  0  0  0  0  0  0
   43.8951   36.0901   45.1852 H   0  0  0  0  0  0  0  0  0  0  0  0
   46.9472   33.9145   43.0128 H   0  0  0  0  0  0  0  0  0  0  0  0
   45.0366   32.9508   49.0774 H   0  0  0  0  0  0  0  0  0  0  0  0
   44.0055   32.2430   47.8695 H   0  0  0  0  0  0  0  0  0  0  0  0
   45.1422   30.5357   49.5524 H   0  0  0  0  0  0  0  0  0  0  0  0
   45.3860   30.0917   47.8983 H   0  0  0  0  0  0  0  0  0  0  0  0
   47.2434   31.8688   49.6874 H   0  0  0  0  0  0  0  0  0  0  0  0
   47.7422   30.3920   48.9368 H   0  0  0  0  0  0  0  0  0  0  0  0
   47.6052   31.3633   46.7026 H   0  0  0  0  0  0  0  0  0  0  0  0
   48.1089   32.7764   47.6315 H   0  0  0  0  0  0  0  0  0  0  0  0
   44.7519   37.0302   43.2659 H   0  0  0  0  0  0  0  0  0  0  0  0
   45.9695   36.2166   42.2256 H   0  0  0  0  0  0  0  0  0  0  0  0
   44.2652   35.6491   42.2256 H   0  0  0  0  0  0  0  0  0  0  0  0
  1  6  2  0
  2  1  1  0
  3  2  2  0
  3  4  1  0
  4  5  2  0
  5  6  1  0
  5  7  1  0
  7 11  1  0
  7  8  1  0
  8  9  1  0
  9 10  1  0
 11 10  1  0
 12  2  1  0
  1 13  1  0
  3 14  1  0
  8 15  1  0
  8 16  1  0
  9 17  1  0
  9 18  1  0
 10 19  1  0
 10 20  1  0
 11 21  1  0
 11 22  1  0
 12 23  1  0
 12 24  1  0
 12 25  1  0
M  ISO  8  13  14  14  14  15  13  16  13  17  13  18  13  19  13  20  13
M  ISO  5  21  13  22  13  23   8  24   8  25   8
M  END
>  <minimizedAffinity>  (1) 
-4.45935726

>  <minimizedRMSD>  (1) 
1.1203711

$$$$
