
     RDKit          3D

 28 29  0  0  0  0  0  0  0  0999 V2000
   46.1010   34.2190   40.9730 C   0  0  0  0  0  0  0  0  0  0  0  0
   46.4520   34.9300   42.1390 C   0  0  0  0  0  0  0  0  0  0  0  0
   45.4400   35.5750   42.8390 C   0  0  0  0  0  0  0  0  0  0  0  0
   44.1640   35.4850   42.3610 N   0  0  0  0  0  0  0  0  0  0  0  0
   43.8710   34.7930   41.2410 C   0  0  0  0  0  0  0  0  0  0  0  0
   44.8260   34.1540   40.5330 N   0  0  0  0  0  0  0  0  0  0  0  0
   42.5200   34.7400   40.7970 N   0  0  0  0  0  0  0  0  0  0  0  0
   42.1790   34.3050   39.4710 C   0  0  0  0  0  0  0  0  0  0  0  0
   41.2860   35.3300   38.8010 C   0  0  0  0  0  0  0  0  0  0  0  0
   40.1270   35.6300   39.7310 C   0  0  0  0  0  0  0  0  0  0  0  0
   40.6860   36.2610   40.9860 C   0  0  0  0  0  0  0  0  0  0  0  0
   41.4390   35.1290   41.6830 C   0  0  0  0  0  0  0  0  0  0  0  0
   47.8920   34.9020   42.4850 C   0  0  0  0  0  0  0  0  0  0  0  0
   46.8888   33.7022   40.4053 H   0  0  0  0  0  0  0  0  0  0  0  0
   45.6609   36.1434   43.7545 H   0  0  0  0  0  0  0  0  0  0  0  0
   43.0989   34.1822   38.8804 H   0  0  0  0  0  0  0  0  0  0  0  0
   41.6436   33.3461   39.5328 H   0  0  0  0  0  0  0  0  0  0  0  0
   41.8561   36.2507   38.6078 H   0  0  0  0  0  0  0  0  0  0  0  0
   40.9125   34.9395   37.8428 H   0  0  0  0  0  0  0  0  0  0  0  0
   39.4275   36.3250   39.2435 H   0  0  0  0  0  0  0  0  0  0  0  0
   39.5854   34.7048   39.9772 H   0  0  0  0  0  0  0  0  0  0  0  0
   41.3696   37.0854   40.7350 H   0  0  0  0  0  0  0  0  0  0  0  0
   39.8994   36.6929   41.6221 H   0  0  0  0  0  0  0  0  0  0  0  0
   40.7659   34.2765   41.8568 H   0  0  0  0  0  0  0  0  0  0  0  0
   41.8257   35.4539   42.6602 H   0  0  0  0  0  0  0  0  0  0  0  0
   48.0062   34.8998   43.5790 H   0  0  0  0  0  0  0  0  0  0  0  0
   48.3521   33.9947   42.0664 H   0  0  0  0  0  0  0  0  0  0  0  0
   48.3870   35.7907   42.0664 H   0  0  0  0  0  0  0  0  0  0  0  0
  1  2  2  0
  2 13  1  0
  2  3  1  0
  4  3  2  0
  5  4  1  0
  6  1  1  0
  6  5  2  0
  7  5  1  0
  7 12  1  0
  8  7  1  0
  9  8  1  0
  9 10  1  0
 10 11  1  0
 11 12  1  0
  1 14  1  0
  3 15  1  0
  8 16  1  0
  8 17  1  0
  9 18  1  0
  9 19  1  0
 10 20  1  0
 10 21  1  0
 11 22  1  0
 11 23  1  0
 12 24  1  0
 12 25  1  0
 13 26  1  0
 13 27  1  0
 13 28  1  0
M  ISO  8  14  14  15  14  16  13  17  13  18  13  19  13  20  13  21  13
M  ISO  7  22  13  23  13  24  13  25  13  26   8  27   8  28   8
M  END
>  <minimizedAffinity>  (1) 
-4.68826866

>  <minimizedRMSD>  (1) 
7.28816366

$$$$
