
     RDKit          3D

 15 15  0  0  0  0  0  0  0  0999 V2000
   44.5740   35.5540   44.9870 C   0  0  0  0  0  0  0  0  0  0  0  0
   45.2740   35.4150   43.7900 C   0  0  0  0  0  0  0  0  0  0  0  0
   46.1820   34.3780   43.6520 C   0  0  0  0  0  0  0  0  0  0  0  0
   46.3460   33.5390   44.7060 N   0  0  0  0  0  0  0  0  0  0  0  0
   45.6580   33.6990   45.8470 C   0  0  0  0  0  0  0  0  0  0  0  0
   44.7640   34.6930   46.0270 N   0  0  0  0  0  0  0  0  0  0  0  0
   44.9470   36.4340   42.7700 C   0  0  0  0  0  0  0  0  0  0  0  0
   45.9200   32.7310   46.9150 C   0  0  0  0  0  0  0  0  0  0  0  0
   45.1410   32.6980   47.8990 O   0  0  0  0  0  0  0  0  0  0  0  0
   43.8520   36.3768   45.0952 H   0  0  0  0  0  0  0  0  0  0  0  0
   46.7504   34.2394   42.7205 H   0  0  0  0  0  0  0  0  0  0  0  0
   44.6473   37.3680   43.2678 H   0  0  0  0  0  0  0  0  0  0  0  0
   45.8304   36.6205   42.1417 H   0  0  0  0  0  0  0  0  0  0  0  0
   44.1200   36.0716   42.1417 H   0  0  0  0  0  0  0  0  0  0  0  0
   46.7803   32.0481   46.8560 H   0  0  0  0  0  0  0  0  0  0  0  0
  1  6  2  0
  2  1  1  0
  3  2  2  0
  3  4  1  0
  4  5  2  0
  5  6  1  0
  5  8  1  0
  7  2  1  0
  8  9  2  0
  1 10  1  0
  3 11  1  0
  7 12  1  0
  7 13  1  0
  7 14  1  0
  8 15  1  0
M  ISO  6  10  14  11  14  12   8  13   8  14   8  15   6
M  END
>  <minimizedAffinity>  (1) 
-3.30062437

>  <minimizedRMSD>  (1) 
0.955313861

$$$$
