
     RDKit          3D

 16 16  0  0  0  0  0  0  0  0999 V2000
   44.5880   35.5180   44.9880 C   0  0  0  0  0  0  0  0  0  0  0  0
   45.2780   35.3850   43.7870 C   0  0  0  0  0  0  0  0  0  0  0  0
   46.1930   34.3500   43.6610 C   0  0  0  0  0  0  0  0  0  0  0  0
   46.3680   33.5120   44.7240 N   0  0  0  0  0  0  0  0  0  0  0  0
   45.6790   33.6750   45.8670 C   0  0  0  0  0  0  0  0  0  0  0  0
   44.7840   34.6700   46.0260 N   0  0  0  0  0  0  0  0  0  0  0  0
   44.9370   36.4050   42.7600 C   0  0  0  0  0  0  0  0  0  0  0  0
   45.9270   32.7150   46.9880 C   0  0  0  0  0  0  0  0  0  0  0  0
   45.6780   31.4140   46.6440 F   0  0  0  0  0  0  0  0  0  0  0  0
   47.2290   32.8460   47.4880 F   0  0  0  0  0  0  0  0  0  0  0  0
   45.1000   33.0150   48.0730 F   0  0  0  0  0  0  0  0  0  0  0  0
   43.8614   36.3365   45.0979 H   0  0  0  0  0  0  0  0  0  0  0  0
   46.7618   34.2086   42.7301 H   0  0  0  0  0  0  0  0  0  0  0  0
   44.6258   37.3358   43.2568 H   0  0  0  0  0  0  0  0  0  0  0  0
   45.8183   36.6016   42.1317 H   0  0  0  0  0  0  0  0  0  0  0  0
   44.1147   36.0321   42.1317 H   0  0  0  0  0  0  0  0  0  0  0  0
  1  6  2  0
  2  1  1  0
  3  2  2  0
  3  4  1  0
  4  5  2  0
  5  6  1  0
  5  8  1  0
  7  2  1  0
  8 10  1  0
  8 11  1  0
  9  8  1  0
  1 12  1  0
  3 13  1  0
  7 14  1  0
  7 15  1  0
  7 16  1  0
M  ISO  5  12  14  13  14  14   8  15   8  16   8
M  END
>  <minimizedAffinity>  (1) 
-3.9958365

>  <minimizedRMSD>  (1) 
1.11964941

$$$$
