
     RDKit          3D

 27 28  0  0  1  0  0  0  0  0999 V2000
   47.1900   32.1450   47.4890 C   0  0  2  0  0  0  0  0  0  0  0  0
   45.7100   32.4010   47.1290 C   0  0  1  0  0  0  0  0  0  0  0  0
   45.2230   32.7520   48.3570 O   0  0  0  0  0  0  0  0  0  0  0  0
   45.7170   31.8470   49.2580 C   0  0  0  0  0  0  0  0  0  0  0  0
   46.9430   31.1900   48.6650 C   0  0  2  0  0  0  0  0  0  0  0  0
   44.6420   35.3910   45.2270 C   0  0  0  0  0  0  0  0  0  0  0  0
   45.3760   35.2320   44.0420 C   0  0  0  0  0  0  0  0  0  0  0  0
   46.2160   34.1110   43.9390 C   0  0  0  0  0  0  0  0  0  0  0  0
   46.2770   33.2520   44.9690 N   0  0  0  0  0  0  0  0  0  0  0  0
   45.5660   33.4240   46.0930 C   0  0  0  0  0  0  0  0  0  0  0  0
   44.7340   34.5000   46.2400 N   0  0  0  0  0  0  0  0  0  0  0  0
   45.1890   36.2620   42.9980 C   0  0  0  0  0  0  0  0  0  0  0  0
   44.9130   37.5190   43.5600 O   0  0  0  0  0  0  0  0  0  0  0  0
   47.7260   33.2710   48.0210 O   0  0  0  0  0  0  0  0  0  0  0  0
   48.0030   31.1040   49.5240 O   0  0  0  0  0  0  0  0  0  0  0  0
   47.8357   31.8113   46.6634 H   0  0  0  0  0  0  0  0  0  0  0  0
   45.1713   31.5556   46.6761 H   0  0  0  0  0  0  0  0  0  0  0  0
   45.9887   32.3638   50.1902 H   0  0  0  0  0  0  0  0  0  0  0  0
   44.9547   31.0855   49.4797 H   0  0  0  0  0  0  0  0  0  0  0  0
   46.8094   30.1322   48.3943 H   0  0  0  0  0  0  0  0  0  0  0  0
   43.9765   36.2602   45.3345 H   0  0  0  0  0  0  0  0  0  0  0  0
   46.8130   33.9400   43.0310 H   0  0  0  0  0  0  0  0  0  0  0  0
   44.3495   35.9673   42.3512 H   0  0  0  0  0  0  0  0  0  0  0  0
   46.1207   36.3397   42.4184 H   0  0  0  0  0  0  0  0  0  0  0  0
   44.9283   37.4495   44.5474 H   0  0  0  0  0  0  0  0  0  0  0  0
   47.6990   33.2144   49.0090 H   0  0  0  0  0  0  0  0  0  0  0  0
   47.6743   31.1307   50.4575 H   0  0  0  0  0  0  0  0  0  0  0  0
  1 14  1  0
  1  5  1  0
  2  1  1  0
  2  3  1  0
  3  4  1  0
  5  4  1  0
  5 15  1  0
  6 11  2  0
  7  6  1  0
  8  7  2  0
  8  9  1  0
  9 10  2  0
 10 11  1  0
 10  2  1  0
 12 13  1  0
 12  7  1  0
  1 16  1  6
  2 17  1  6
  4 18  1  0
  4 19  1  0
  5 20  1  6
  6 21  1  0
  8 22  1  0
 12 23  1  0
 12 24  1  0
 13 25  1  0
 14 26  1  0
 15 27  1  0
M  ISO  8  16  13  17  13  18  13  19  13  20  13  21  14  22  14  23   8
M  ISO  4  24   8  25   3  26   3  27   3
M  END
>  <minimizedAffinity>  (1) 
-5.60290051

>  <minimizedRMSD>  (1) 
0.337432235

$$$$
