
     RDKit          3D

 38 40  0  0  1  0  0  0  0  0999 V2000
   44.6730   35.3410   45.1710 C   0  0  0  0  0  0  0  0  0  0  0  0
   45.3990   35.1850   44.0030 C   0  0  0  0  0  0  0  0  0  0  0  0
   46.2470   34.0660   43.9310 C   0  0  0  0  0  0  0  0  0  0  0  0
   46.3060   33.2240   44.9750 N   0  0  0  0  0  0  0  0  0  0  0  0
   45.5830   33.4150   46.0890 C   0  0  0  0  0  0  0  0  0  0  0  0
   44.7460   34.4890   46.2050 N   0  0  0  0  0  0  0  0  0  0  0  0
   47.2020   32.1410   47.5060 C   0  0  2  0  0  0  0  0  0  0  0  0
   45.7260   32.4150   47.1460 C   0  0  1  0  0  0  0  0  0  0  0  0
   45.2310   32.7850   48.3660 O   0  0  0  0  0  0  0  0  0  0  0  0
   45.7220   31.8910   49.2810 C   0  0  0  0  0  0  0  0  0  0  0  0
   46.9230   31.2070   48.6950 C   0  0  2  0  0  0  0  0  0  0  0  0
   47.7360   33.2770   48.0230 O   0  0  0  0  0  0  0  0  0  0  0  0
   47.9880   31.0960   49.5430 O   0  0  0  0  0  0  0  0  0  0  0  0
   45.2090   36.1890   42.9360 C   0  0  0  0  0  0  0  0  0  0  0  0
   44.4320   35.6750   41.8490 N   0  0  0  0  0  0  0  0  0  0  0  0
   43.1280   35.2000   42.1650 C   0  0  0  0  0  0  0  0  0  0  0  0
   42.7110   34.2960   41.0110 C   0  0  0  0  0  0  0  0  0  0  0  0
   43.9980   34.0260   40.2480 C   0  0  0  0  0  0  0  0  0  0  0  0
   45.0480   34.5560   41.1740 C   0  0  0  0  0  0  0  0  0  0  0  0
   44.0016   36.2081   45.2560 H   0  0  0  0  0  0  0  0  0  0  0  0
   46.8537   33.8829   43.0319 H   0  0  0  0  0  0  0  0  0  0  0  0
   47.8558   31.7836   46.6968 H   0  0  0  0  0  0  0  0  0  0  0  0
   45.1833   31.5654   46.7061 H   0  0  0  0  0  0  0  0  0  0  0  0
   46.0114   32.4234   50.1991 H   0  0  0  0  0  0  0  0  0  0  0  0
   44.9507   31.1459   49.5256 H   0  0  0  0  0  0  0  0  0  0  0  0
   46.7497   30.1513   48.4392 H   0  0  0  0  0  0  0  0  0  0  0  0
   47.7146   33.2314   49.0117 H   0  0  0  0  0  0  0  0  0  0  0  0
   47.6689   31.1293   50.4796 H   0  0  0  0  0  0  0  0  0  0  0  0
   44.6932   37.0637   43.3590 H   0  0  0  0  0  0  0  0  0  0  0  0
   46.2005   36.4624   42.5459 H   0  0  0  0  0  0  0  0  0  0  0  0
   43.1475   34.6314   43.1064 H   0  0  0  0  0  0  0  0  0  0  0  0
   42.4205   36.0319   42.2972 H   0  0  0  0  0  0  0  0  0  0  0  0
   42.2803   33.3573   41.3896 H   0  0  0  0  0  0  0  0  0  0  0  0
   41.9405   34.7590   40.3770 H   0  0  0  0  0  0  0  0  0  0  0  0
   44.1343   32.9493   40.0688 H   0  0  0  0  0  0  0  0  0  0  0  0
   44.0201   34.4914   39.2515 H   0  0  0  0  0  0  0  0  0  0  0  0
   45.3463   33.7851   41.8997 H   0  0  0  0  0  0  0  0  0  0  0  0
   45.9586   34.8540   40.6336 H   0  0  0  0  0  0  0  0  0  0  0  0
  1  6  2  0
  2  1  1  0
  3  2  2  0
  3  4  1  0
  4  5  2  0
  5  6  1  0
  5  8  1  0
  7 12  1  0
  7 11  1  0
  8  7  1  0
  8  9  1  0
  9 10  1  0
 11 10  1  0
 11 13  1  0
 14  2  1  0
 15 16  1  0
 15 14  1  0
 17 16  1  0
 18 17  1  0
 18 19  1  0
 19 15  1  0
  1 20  1  0
  3 21  1  0
  7 22  1  6
  8 23  1  6
 10 24  1  0
 10 25  1  0
 11 26  1  6
 12 27  1  0
 13 28  1  0
 14 29  1  0
 14 30  1  0
 16 31  1  0
 16 32  1  0
 17 33  1  0
 17 34  1  0
 18 35  1  0
 18 36  1  0
 19 37  1  0
 19 38  1  0
M  ISO  8  20  14  21  14  22  13  23  13  24  13  25  13  26  13  27   3
M  ISO  8  28   3  29   8  30   8  31  13  32  13  33  13  34  13  35  13
M  ISO  3  36  13  37  13  38  13
M  END
>  <minimizedAffinity>  (1) 
-5.85030651

>  <minimizedRMSD>  (1) 
0.333839506

$$$$
