
     RDKit          3D

 50 54  0  0  1  0  0  0  0  0999 V2000
   45.5930   35.8280   43.1040 C   0  0  0  0  0  0  0  0  0  0  0  0
   44.7930   35.2850   41.9980 C   0  0  0  0  0  0  0  0  0  0  0  0
   43.5820   35.7710   41.5850 C   0  0  0  0  0  0  0  0  0  0  0  0
   42.8620   35.2150   40.5440 C   0  0  0  0  0  0  0  0  0  0  0  0
   43.4010   34.1110   39.8920 C   0  0  0  0  0  0  0  0  0  0  0  0
   44.6340   33.6130   40.3060 C   0  0  0  0  0  0  0  0  0  0  0  0
   45.3420   34.1930   41.3610 C   0  0  0  0  0  0  0  0  0  0  0  0
   46.6010   33.4770   41.5000 C   0  0  0  0  0  0  0  0  0  0  0  0
   46.4610   32.1380   41.4340 N   0  0  0  0  0  0  0  0  0  0  0  0
   47.4880   31.2750   41.5370 C   0  0  0  0  0  0  0  0  0  0  0  0
   48.7350   31.7710   41.7190 N   0  0  0  0  0  0  0  0  0  0  0  0
   48.9280   33.1050   41.7930 C   0  0  0  0  0  0  0  0  0  0  0  0
   50.1830   33.6640   41.9730 C   0  0  0  0  0  0  0  0  0  0  0  0
   50.3410   35.0390   42.0390 C   0  0  0  0  0  0  0  0  0  0  0  0
   49.2340   35.8620   41.9220 C   0  0  0  0  0  0  0  0  0  0  0  0
   47.9380   35.3640   41.7390 C   0  0  0  0  0  0  0  0  0  0  0  0
   47.8620   34.0000   41.6840 C   0  0  0  0  0  0  0  0  0  0  0  0
   44.7320   35.0720   45.2930 C   0  0  0  0  0  0  0  0  0  0  0  0
   45.6040   34.9060   44.2230 C   0  0  0  0  0  0  0  0  0  0  0  0
   46.4770   33.8190   44.2830 C   0  0  0  0  0  0  0  0  0  0  0  0
   46.4590   32.9730   45.3450 N   0  0  0  0  0  0  0  0  0  0  0  0
   45.6040   33.1670   46.3580 C   0  0  0  0  0  0  0  0  0  0  0  0
   44.7320   34.2150   46.3450 N   0  0  0  0  0  0  0  0  0  0  0  0
   47.0650   31.7300   47.7620 C   0  0  2  0  0  0  0  0  0  0  0  0
   45.6180   32.2300   47.4800 C   0  0  1  0  0  0  0  0  0  0  0  0
   45.3260   32.7400   48.6990 O   0  0  0  0  0  0  0  0  0  0  0  0
   45.7060   31.8350   49.6440 C   0  0  0  0  0  0  0  0  0  0  0  0
   46.7330   30.9050   49.0200 C   0  0  2  0  0  0  0  0  0  0  0  0
   47.8470   32.7550   48.1410 O   0  0  0  0  0  0  0  0  0  0  0  0
   47.8240   30.6720   49.8060 O   0  0  0  0  0  0  0  0  0  0  0  0
   45.1596   36.7856   43.4282 H   0  0  0  0  0  0  0  0  0  0  0  0
   46.6257   35.9777   42.7561 H   0  0  0  0  0  0  0  0  0  0  0  0
   43.1622   36.6444   42.1055 H   0  0  0  0  0  0  0  0  0  0  0  0
   41.8911   35.6335   40.2402 H   0  0  0  0  0  0  0  0  0  0  0  0
   42.8601   33.6370   39.0596 H   0  0  0  0  0  0  0  0  0  0  0  0
   45.0610   32.7409   39.7891 H   0  0  0  0  0  0  0  0  0  0  0  0
   47.3185   30.1899   41.4747 H   0  0  0  0  0  0  0  0  0  0  0  0
   51.0626   33.0098   42.0644 H   0  0  0  0  0  0  0  0  0  0  0  0
   51.3408   35.4743   42.1836 H   0  0  0  0  0  0  0  0  0  0  0  0
   49.3782   36.9512   41.9749 H   0  0  0  0  0  0  0  0  0  0  0  0
   47.0560   36.0150   41.6473 H   0  0  0  0  0  0  0  0  0  0  0  0
   44.0269   35.9163   45.2866 H   0  0  0  0  0  0  0  0  0  0  0  0
   47.1873   33.6456   43.4612 H   0  0  0  0  0  0  0  0  0  0  0  0
   47.5777   31.2306   46.9267 H   0  0  0  0  0  0  0  0  0  0  0  0
   44.8727   31.4926   47.1472 H   0  0  0  0  0  0  0  0  0  0  0  0
   46.1501   32.3578   50.5039 H   0  0  0  0  0  0  0  0  0  0  0  0
   44.8354   31.2614   49.9947 H   0  0  0  0  0  0  0  0  0  0  0  0
   46.3770   29.8796   48.8415 H   0  0  0  0  0  0  0  0  0  0  0  0
   47.8794   32.7974   49.1296 H   0  0  0  0  0  0  0  0  0  0  0  0
   47.5621   30.7279   50.7591 H   0  0  0  0  0  0  0  0  0  0  0  0
  1 19  1  0
  2  1  1  0
  3  2  2  0
  4  3  1  0
  5  6  1  0
  5  4  2  0
  6  7  2  0
  7  8  1  0
  7  2  1  0
  8 17  1  0
  9  8  2  0
  9 10  1  0
 10 11  2  0
 11 12  1  0
 12 13  2  0
 13 14  1  0
 15 14  2  0
 16 15  1  0
 17 16  2  0
 17 12  1  0
 18 23  2  0
 19 20  2  0
 19 18  1  0
 20 21  1  0
 21 22  2  0
 22 25  1  0
 23 22  1  0
 24 29  1  0
 24 28  1  0
 25 24  1  0
 25 26  1  0
 26 27  1  0
 28 27  1  0
 28 30  1  0
  1 31  1  0
  1 32  1  0
  3 33  1  0
  4 34  1  0
  5 35  1  0
  6 36  1  0
 10 37  1  0
 13 38  1  0
 14 39  1  0
 15 40  1  0
 16 41  1  0
 18 42  1  0
 20 43  1  0
 24 44  1  6
 25 45  1  6
 27 46  1  0
 27 47  1  0
 28 48  1  6
 29 49  1  0
 30 50  1  0
M  ISO  8  31   8  32   8  33  14  34  14  35  14  36  14  37  14  38  14
M  ISO  8  39  14  40  14  41  14  42  14  43  14  44  13  45  13  46  13
M  ISO  4  47  13  48  13  49   3  50   3
M  END
>  <minimizedAffinity>  (1) 
-7.49761724

>  <minimizedRMSD>  (1) 
0.671273589

$$$$
