
     RDKit          3D

 43 46  0  0  1  0  0  0  0  0999 V2000
   45.2160   34.8600   44.6370 C   0  0  0  0  0  0  0  0  0  0  0  0
   46.2030   34.6270   43.6840 C   0  0  0  0  0  0  0  0  0  0  0  0
   47.0490   33.5440   43.9140 C   0  0  0  0  0  0  0  0  0  0  0  0
   46.9190   32.7580   45.0050 N   0  0  0  0  0  0  0  0  0  0  0  0
   45.9400   33.0220   45.9090 C   0  0  0  0  0  0  0  0  0  0  0  0
   45.0960   34.0600   45.7330 N   0  0  0  0  0  0  0  0  0  0  0  0
   47.2390   31.7570   47.6150 C   0  0  2  0  0  0  0  0  0  0  0  0
   45.8290   32.1400   47.0700 C   0  0  1  0  0  0  0  0  0  0  0  0
   45.3210   32.6970   48.1930 O   0  0  0  0  0  0  0  0  0  0  0  0
   45.6040   31.8570   49.2360 C   0  0  0  0  0  0  0  0  0  0  0  0
   46.7740   30.9800   48.8450 C   0  0  2  0  0  0  0  0  0  0  0  0
   47.8840   32.8520   48.0520 O   0  0  0  0  0  0  0  0  0  0  0  0
   47.7300   30.8580   49.8100 O   0  0  0  0  0  0  0  0  0  0  0  0
   46.3350   35.4660   42.5130 C   0  0  0  0  0  0  0  0  0  0  0  0
   46.3280   34.6520   41.2850 C   0  0  0  0  0  0  0  0  0  0  0  0
   45.2180   33.9600   40.8100 C   0  0  0  0  0  0  0  0  0  0  0  0
   45.2390   33.1840   39.6790 C   0  0  0  0  0  0  0  0  0  0  0  0
   46.4150   33.0850   38.9830 C   0  0  0  0  0  0  0  0  0  0  0  0
   47.5290   33.7750   39.4490 C   0  0  0  0  0  0  0  0  0  0  0  0
   47.5310   34.5840   40.6110 C   0  0  0  0  0  0  0  0  0  0  0  0
   48.7940   35.2960   40.7940 C   0  0  0  0  0  0  0  0  0  0  0  0
   49.6700   34.7790   41.9220 C   0  0  0  0  0  0  0  0  0  0  0  0
   48.9810   36.1040   42.0330 C   0  0  0  0  0  0  0  0  0  0  0  0
   44.5222   35.7030   44.5032 H   0  0  0  0  0  0  0  0  0  0  0  0
   47.8446   33.3230   43.1872 H   0  0  0  0  0  0  0  0  0  0  0  0
   47.9057   31.2522   46.9004 H   0  0  0  0  0  0  0  0  0  0  0  0
   45.1968   31.3353   46.6665 H   0  0  0  0  0  0  0  0  0  0  0  0
   45.8645   32.4471   50.1270 H   0  0  0  0  0  0  0  0  0  0  0  0
   44.7271   31.2338   49.4656 H   0  0  0  0  0  0  0  0  0  0  0  0
   46.5277   29.9215   48.6748 H   0  0  0  0  0  0  0  0  0  0  0  0
   47.8883   32.8594   49.0420 H   0  0  0  0  0  0  0  0  0  0  0  0
   47.3062   30.9121   50.7031 H   0  0  0  0  0  0  0  0  0  0  0  0
   45.4949   36.1754   42.4806 H   0  0  0  0  0  0  0  0  0  0  0  0
   47.2904   36.0079   42.5724 H   0  0  0  0  0  0  0  0  0  0  0  0
   44.2749   34.0394   41.3705 H   0  0  0  0  0  0  0  0  0  0  0  0
   44.3359   32.6554   39.3400 H   0  0  0  0  0  0  0  0  0  0  0  0
   46.4769   32.4711   38.0724 H   0  0  0  0  0  0  0  0  0  0  0  0
   48.4662   33.6868   38.8798 H   0  0  0  0  0  0  0  0  0  0  0  0
   48.9141   35.5076   39.7212 H   0  0  0  0  0  0  0  0  0  0  0  0
   49.3356   33.9297   42.5359 H   0  0  0  0  0  0  0  0  0  0  0  0
   50.7090   34.4280   42.0076 H   0  0  0  0  0  0  0  0  0  0  0  0
   49.5707   37.0319   41.9971 H   0  0  0  0  0  0  0  0  0  0  0  0
   48.2999   36.5602   42.7665 H   0  0  0  0  0  0  0  0  0  0  0  0
  1  6  2  0
  2  3  2  0
  2  1  1  0
  3  4  1  0
  4  5  2  0
  5  8  1  0
  6  5  1  0
  7 12  1  0
  7 11  1  0
  8  7  1  0
  8  9  1  0
  9 10  1  0
 11 10  1  0
 11 13  1  0
 14  2  1  0
 15 14  1  0
 16 15  2  0
 17 16  1  0
 18 19  1  0
 18 17  2  0
 19 20  2  0
 20 21  1  0
 20 15  1  0
 21 22  1  0
 21 23  1  0
 22 23  1  0
  1 24  1  0
  3 25  1  0
  7 26  1  6
  8 27  1  6
 10 28  1  0
 10 29  1  0
 11 30  1  6
 12 31  1  0
 13 32  1  0
 14 33  1  0
 14 34  1  0
 16 35  1  0
 17 36  1  0
 18 37  1  0
 19 38  1  0
 21 39  1  0
 22 40  1  0
 22 41  1  0
 23 42  1  0
 23 43  1  0
M  ISO  8  24  14  25  14  26  13  27  13  28  13  29  13  30  13  31   3
M  ISO  8  32   3  33   8  34   8  35  14  36  14  37  14  38  14  39  13
M  ISO  4  40  13  41  13  42  13  43  13
M  END
>  <minimizedAffinity>  (1) 
-7.0882659

>  <minimizedRMSD>  (1) 
1.71128523

$$$$
