
     RDKit          3D

 43 46  0  0  1  0  0  0  0  0999 V2000
   45.0320   34.9060   44.8770 C   0  0  0  0  0  0  0  0  0  0  0  0
   45.9610   34.7020   43.8620 C   0  0  0  0  0  0  0  0  0  0  0  0
   46.8370   33.6300   44.0170 C   0  0  0  0  0  0  0  0  0  0  0  0
   46.7910   32.8240   45.0980 N   0  0  0  0  0  0  0  0  0  0  0  0
   45.8670   33.0580   46.0670 C   0  0  0  0  0  0  0  0  0  0  0  0
   45.0010   34.0810   45.9630 N   0  0  0  0  0  0  0  0  0  0  0  0
   47.2970   31.8070   47.6800 C   0  0  2  0  0  0  0  0  0  0  0  0
   45.8500   32.1520   47.2160 C   0  0  1  0  0  0  0  0  0  0  0  0
   45.3830   32.6780   48.3720 O   0  0  0  0  0  0  0  0  0  0  0  0
   45.7420   31.8320   49.3850 C   0  0  0  0  0  0  0  0  0  0  0  0
   46.9250   30.9980   48.9200 C   0  0  2  0  0  0  0  0  0  0  0  0
   47.9280   32.9170   48.1010 O   0  0  0  0  0  0  0  0  0  0  0  0
   47.9270   30.9000   49.8400 O   0  0  0  0  0  0  0  0  0  0  0  0
   45.9990   35.5690   42.6990 C   0  0  0  0  0  0  0  0  0  0  0  0
   45.0410   35.1260   41.6840 C   0  0  0  0  0  0  0  0  0  0  0  0
   43.7040   35.5080   41.6090 C   0  0  0  0  0  0  0  0  0  0  0  0
   42.8110   35.0530   40.6740 C   0  0  0  0  0  0  0  0  0  0  0  0
   43.2690   34.1560   39.7470 C   0  0  0  0  0  0  0  0  0  0  0  0
   44.6050   33.7620   39.8040 C   0  0  0  0  0  0  0  0  0  0  0  0
   45.5300   34.2400   40.7730 C   0  0  0  0  0  0  0  0  0  0  0  0
   46.8540   33.7150   40.4690 C   0  0  0  0  0  0  0  0  0  0  0  0
   47.9130   34.3370   39.8570 C   0  0  0  0  0  0  0  0  0  0  0  0
   48.9510   33.5010   39.7430 N   0  0  0  0  0  0  0  0  0  0  0  0
   48.5990   32.3260   40.2700 C   0  0  0  0  0  0  0  0  0  0  0  0
   47.3470   32.4880   40.6920 N   0  0  0  0  0  0  0  0  0  0  0  0
   44.3171   35.7387   44.8034 H   0  0  0  0  0  0  0  0  0  0  0  0
   47.5871   33.4352   43.2363 H   0  0  0  0  0  0  0  0  0  0  0  0
   47.9399   31.3341   46.9230 H   0  0  0  0  0  0  0  0  0  0  0  0
   45.2279   31.3299   46.8325 H   0  0  0  0  0  0  0  0  0  0  0  0
   46.0257   32.4158   50.2731 H   0  0  0  0  0  0  0  0  0  0  0  0
   44.8980   31.1766   49.6459 H   0  0  0  0  0  0  0  0  0  0  0  0
   46.7132   29.9333   48.7421 H   0  0  0  0  0  0  0  0  0  0  0  0
   47.9384   32.9354   49.0908 H   0  0  0  0  0  0  0  0  0  0  0  0
   47.5428   30.9376   50.7516 H   0  0  0  0  0  0  0  0  0  0  0  0
   45.7487   36.5950   43.0066 H   0  0  0  0  0  0  0  0  0  0  0  0
   47.0100   35.5325   42.2670 H   0  0  0  0  0  0  0  0  0  0  0  0
   43.3374   36.2282   42.3553 H   0  0  0  0  0  0  0  0  0  0  0  0
   41.7658   35.3957   40.6688 H   0  0  0  0  0  0  0  0  0  0  0  0
   42.5974   33.7547   38.9738 H   0  0  0  0  0  0  0  0  0  0  0  0
   44.9646   33.0397   39.0564 H   0  0  0  0  0  0  0  0  0  0  0  0
   47.9089   35.3801   39.5080 H   0  0  0  0  0  0  0  0  0  0  0  0
   49.8638   33.7250   39.3216 H   0  0  0  0  0  0  0  0  0  0  0  0
   49.2136   31.4164   40.3406 H   0  0  0  0  0  0  0  0  0  0  0  0
  1  6  2  0
  2  3  2  0
  2  1  1  0
  3  4  1  0
  4  5  2  0
  5  8  1  0
  6  5  1  0
  7 12  1  0
  7 11  1  0
  8  7  1  0
  8  9  1  0
  9 10  1  0
 11 10  1  0
 11 13  1  0
 14  2  1  0
 15 14  1  0
 16 15  2  0
 17 16  1  0
 18 19  1  0
 18 17  2  0
 19 20  2  0
 20 15  1  0
 21 25  1  0
 21 20  1  0
 22 21  2  0
 23 22  1  0
 23 24  1  0
 24 25  2  0
  1 26  1  0
  3 27  1  0
  7 28  1  6
  8 29  1  6
 10 30  1  0
 10 31  1  0
 11 32  1  6
 12 33  1  0
 13 34  1  0
 14 35  1  0
 14 36  1  0
 16 37  1  0
 17 38  1  0
 18 39  1  0
 19 40  1  0
 22 41  1  0
 23 42  1  0
 24 43  1  0
M  ISO  8  26  14  27  14  28  13  29  13  30  13  31  13  32  13  33   3
M  ISO  8  34   3  35   8  36   8  37  14  38  14  39  14  40  14  41  14
M  ISO  2  42   9  43  14
M  END
>  <minimizedAffinity>  (1) 
-7.10376787

>  <minimizedRMSD>  (1) 
0.193719819

$$$$
