
     RDKit          3D

 42 44  0  0  1  0  0  0  0  0999 V2000
   45.0840   34.8270   44.8210 C   0  0  0  0  0  0  0  0  0  0  0  0
   46.0270   34.6120   43.8270 C   0  0  0  0  0  0  0  0  0  0  0  0
   46.9100   33.5480   43.9900 C   0  0  0  0  0  0  0  0  0  0  0  0
   46.8460   32.7480   45.0830 N   0  0  0  0  0  0  0  0  0  0  0  0
   45.9060   32.9940   46.0310 C   0  0  0  0  0  0  0  0  0  0  0  0
   45.0390   34.0110   45.9110 N   0  0  0  0  0  0  0  0  0  0  0  0
   47.3290   31.7770   47.6950 C   0  0  2  0  0  0  0  0  0  0  0  0
   45.8910   32.0910   47.1880 C   0  0  1  0  0  0  0  0  0  0  0  0
   45.3960   32.6320   48.3300 O   0  0  0  0  0  0  0  0  0  0  0  0
   45.7280   31.7830   49.3550 C   0  0  0  0  0  0  0  0  0  0  0  0
   46.9230   30.9720   48.9330 C   0  0  2  0  0  0  0  0  0  0  0  0
   47.9340   32.9050   48.1120 O   0  0  0  0  0  0  0  0  0  0  0  0
   47.9290   30.9200   49.8800 O   0  0  0  0  0  0  0  0  0  0  0  0
   46.1050   35.4720   42.6480 C   0  0  0  0  0  0  0  0  0  0  0  0
   45.0750   35.1170   41.6750 C   0  0  0  0  0  0  0  0  0  0  0  0
   43.8090   35.6810   41.5480 C   0  0  0  0  0  0  0  0  0  0  0  0
   42.8740   35.2650   40.6370 C   0  0  0  0  0  0  0  0  0  0  0  0
   43.2120   34.2140   39.7920 C   0  0  0  0  0  0  0  0  0  0  0  0
   44.4810   33.6290   39.9000 C   0  0  0  0  0  0  0  0  0  0  0  0
   45.4340   34.0860   40.8510 C   0  0  0  0  0  0  0  0  0  0  0  0
   46.6750   33.3700   40.4610 C   0  0  0  0  0  0  0  0  0  0  0  0
   47.6760   34.3540   39.8150 C   0  0  0  0  0  0  0  0  0  0  0  0
   44.3702   35.6589   44.7290 H   0  0  0  0  0  0  0  0  0  0  0  0
   47.6713   33.3533   43.2203 H   0  0  0  0  0  0  0  0  0  0  0  0
   48.0071   31.3057   46.9683 H   0  0  0  0  0  0  0  0  0  0  0  0
   45.3012   31.2495   46.7955 H   0  0  0  0  0  0  0  0  0  0  0  0
   45.9738   32.3657   50.2550 H   0  0  0  0  0  0  0  0  0  0  0  0
   44.8821   31.1181   49.5835 H   0  0  0  0  0  0  0  0  0  0  0  0
   46.7166   29.9040   48.7697 H   0  0  0  0  0  0  0  0  0  0  0  0
   47.9456   32.9267   49.1017 H   0  0  0  0  0  0  0  0  0  0  0  0
   47.5306   30.9406   50.7861 H   0  0  0  0  0  0  0  0  0  0  0  0
   45.9643   36.5187   42.9557 H   0  0  0  0  0  0  0  0  0  0  0  0
   47.0915   35.3384   42.1801 H   0  0  0  0  0  0  0  0  0  0  0  0
   43.5430   36.5107   42.2195 H   0  0  0  0  0  0  0  0  0  0  0  0
   41.8872   35.7473   40.5761 H   0  0  0  0  0  0  0  0  0  0  0  0
   42.4914   33.8457   39.0469 H   0  0  0  0  0  0  0  0  0  0  0  0
   44.7462   32.7958   39.2326 H   0  0  0  0  0  0  0  0  0  0  0  0
   47.1321   32.9210   41.3551 H   0  0  0  0  0  0  0  0  0  0  0  0
   46.4233   32.5839   39.7339 H   0  0  0  0  0  0  0  0  0  0  0  0
   48.2227   34.8915   40.6038 H   0  0  0  0  0  0  0  0  0  0  0  0
   48.3886   33.7950   39.1907 H   0  0  0  0  0  0  0  0  0  0  0  0
   47.1293   35.0760   39.1907 H   0  0  0  0  0  0  0  0  0  0  0  0
  1  6  2  0
  2  3  2  0
  2  1  1  0
  3  4  1  0
  4  5  2  0
  5  8  1  0
  6  5  1  0
  7 12  1  0
  7 11  1  0
  8  7  1  0
  8  9  1  0
  9 10  1  0
 11 10  1  0
 11 13  1  0
 14  2  1  0
 15 14  1  0
 16 15  2  0
 17 16  1  0
 18 19  1  0
 18 17  2  0
 19 20  2  0
 20 15  1  0
 21 20  1  0
 22 21  1  0
  1 23  1  0
  3 24  1  0
  7 25  1  6
  8 26  1  6
 10 27  1  0
 10 28  1  0
 11 29  1  6
 12 30  1  0
 13 31  1  0
 14 32  1  0
 14 33  1  0
 16 34  1  0
 17 35  1  0
 18 36  1  0
 19 37  1  0
 21 38  1  0
 21 39  1  0
 22 40  1  0
 22 41  1  0
 22 42  1  0
M  ISO  8  23  14  24  14  25  13  26  13  27  13  28  13  29  13  30   3
M  ISO  8  31   3  32   8  33   8  34  14  35  14  36  14  37  14  38   8
M  ISO  4  39   8  40   8  41   8  42   8
M  END
>  <minimizedAffinity>  (1) 
-6.49170065

>  <minimizedRMSD>  (1) 
0.213070706

$$$$
