
     RDKit          3D

 43 46  0  0  1  0  0  0  0  0999 V2000
   45.0230   34.8870   44.8780 C   0  0  0  0  0  0  0  0  0  0  0  0
   45.9430   34.6800   43.8590 C   0  0  0  0  0  0  0  0  0  0  0  0
   46.8290   33.6120   43.9920 C   0  0  0  0  0  0  0  0  0  0  0  0
   46.7860   32.8150   45.0720 N   0  0  0  0  0  0  0  0  0  0  0  0
   45.8760   33.0400   46.0540 C   0  0  0  0  0  0  0  0  0  0  0  0
   45.0000   34.0610   45.9680 N   0  0  0  0  0  0  0  0  0  0  0  0
   47.3290   31.8210   47.6690 C   0  0  2  0  0  0  0  0  0  0  0  0
   45.8760   32.1320   47.1970 C   0  0  1  0  0  0  0  0  0  0  0  0
   45.3770   32.6290   48.3530 O   0  0  0  0  0  0  0  0  0  0  0  0
   45.7540   31.8020   49.3680 C   0  0  0  0  0  0  0  0  0  0  0  0
   46.9500   30.9840   48.9040 C   0  0  2  0  0  0  0  0  0  0  0  0
   47.9250   32.9440   48.1040 O   0  0  0  0  0  0  0  0  0  0  0  0
   47.9600   30.9060   49.8250 O   0  0  0  0  0  0  0  0  0  0  0  0
   45.9350   35.5850   42.7100 C   0  0  0  0  0  0  0  0  0  0  0  0
   44.9050   35.1990   41.7490 C   0  0  0  0  0  0  0  0  0  0  0  0
   43.6320   35.7610   41.7370 C   0  0  0  0  0  0  0  0  0  0  0  0
   42.6300   35.3780   40.8620 C   0  0  0  0  0  0  0  0  0  0  0  0
   42.9220   34.3900   39.9680 C   0  0  0  0  0  0  0  0  0  0  0  0
   44.1790   33.8310   39.9740 C   0  0  0  0  0  0  0  0  0  0  0  0
   45.2320   34.2080   40.8600 C   0  0  0  0  0  0  0  0  0  0  0  0
   46.4290   33.5270   40.4480 C   0  0  0  0  0  0  0  0  0  0  0  0
   46.7360   32.1570   40.5580 C   0  0  0  0  0  0  0  0  0  0  0  0
   47.9460   31.6710   40.2150 C   0  0  0  0  0  0  0  0  0  0  0  0
   48.8990   32.6070   39.7370 C   0  0  0  0  0  0  0  0  0  0  0  0
   47.8870   34.1960   39.8370 S   0  0  0  0  0  0  0  0  0  0  0  0
   44.3083   35.7203   44.8083 H   0  0  0  0  0  0  0  0  0  0  0  0
   47.5716   33.4200   43.2035 H   0  0  0  0  0  0  0  0  0  0  0  0
   47.9980   31.3734   46.9193 H   0  0  0  0  0  0  0  0  0  0  0  0
   45.2799   31.2964   46.8015 H   0  0  0  0  0  0  0  0  0  0  0  0
   46.0318   32.3987   50.2493 H   0  0  0  0  0  0  0  0  0  0  0  0
   44.9228   31.1346   49.6394 H   0  0  0  0  0  0  0  0  0  0  0  0
   46.7443   29.9189   48.7217 H   0  0  0  0  0  0  0  0  0  0  0  0
   47.9297   32.9529   49.0939 H   0  0  0  0  0  0  0  0  0  0  0  0
   47.5774   30.9355   50.7376 H   0  0  0  0  0  0  0  0  0  0  0  0
   45.7358   36.6088   43.0595 H   0  0  0  0  0  0  0  0  0  0  0  0
   46.9155   35.5319   42.2142 H   0  0  0  0  0  0  0  0  0  0  0  0
   43.4091   36.5553   42.4647 H   0  0  0  0  0  0  0  0  0  0  0  0
   41.6375   35.8517   40.8867 H   0  0  0  0  0  0  0  0  0  0  0  0
   42.1622   34.0447   39.2515 H   0  0  0  0  0  0  0  0  0  0  0  0
   44.3874   33.0359   39.2429 H   0  0  0  0  0  0  0  0  0  0  0  0
   45.9681   31.4649   40.9338 H   0  0  0  0  0  0  0  0  0  0  0  0
   48.1829   30.6003   40.3016 H   0  0  0  0  0  0  0  0  0  0  0  0
   49.9352   32.4505   39.4026 H   0  0  0  0  0  0  0  0  0  0  0  0
  1  6  2  0
  2  3  2  0
  2  1  1  0
  3  4  1  0
  4  5  2  0
  5  8  1  0
  6  5  1  0
  7 12  1  0
  7 11  1  0
  8  7  1  0
  8  9  1  0
  9 10  1  0
 11 10  1  0
 11 13  1  0
 14  2  1  0
 15 14  1  0
 16 15  2  0
 17 16  1  0
 18 19  1  0
 18 17  2  0
 19 20  2  0
 20 15  1  0
 21 22  2  0
 21 20  1  0
 23 22  1  0
 24 25  1  0
 24 23  2  0
 25 21  1  0
  1 26  1  0
  3 27  1  0
  7 28  1  6
  8 29  1  6
 10 30  1  0
 10 31  1  0
 11 32  1  6
 12 33  1  0
 13 34  1  0
 14 35  1  0
 14 36  1  0
 16 37  1  0
 17 38  1  0
 18 39  1  0
 19 40  1  0
 22 41  1  0
 23 42  1  0
 24 43  1  0
M  ISO  8  26  14  27  14  28  13  29  13  30  13  31  13  32  13  33   3
M  ISO  8  34   3  35   8  36   8  37  14  38  14  39  14  40  14  41  14
M  ISO  2  42  14  43  14
M  END
>  <minimizedAffinity>  (1) 
-6.91119957

>  <minimizedRMSD>  (1) 
0.306014597

$$$$
