
     RDKit          3D

 49 52  0  0  1  0  0  0  0  0999 V2000
   45.0120   34.8960   44.9480 C   0  0  0  0  0  0  0  0  0  0  0  0
   45.9080   34.6950   43.8980 C   0  0  0  0  0  0  0  0  0  0  0  0
   46.7780   33.6110   44.0160 C   0  0  0  0  0  0  0  0  0  0  0  0
   46.7520   32.7950   45.0960 N   0  0  0  0  0  0  0  0  0  0  0  0
   45.8650   33.0290   46.0940 C   0  0  0  0  0  0  0  0  0  0  0  0
   44.9930   34.0760   46.0270 N   0  0  0  0  0  0  0  0  0  0  0  0
   47.3230   31.7990   47.6880 C   0  0  2  0  0  0  0  0  0  0  0  0
   45.8680   32.1190   47.2360 C   0  0  1  0  0  0  0  0  0  0  0  0
   45.3910   32.6220   48.3980 O   0  0  0  0  0  0  0  0  0  0  0  0
   45.7770   31.7820   49.4050 C   0  0  0  0  0  0  0  0  0  0  0  0
   46.9560   30.9680   48.9260 C   0  0  2  0  0  0  0  0  0  0  0  0
   47.9380   32.9170   48.1120 O   0  0  0  0  0  0  0  0  0  0  0  0
   47.9820   30.8900   49.8360 O   0  0  0  0  0  0  0  0  0  0  0  0
   45.9200   35.5730   42.7480 C   0  0  0  0  0  0  0  0  0  0  0  0
   44.8710   35.1890   41.7950 C   0  0  0  0  0  0  0  0  0  0  0  0
   43.5720   35.6150   41.8110 C   0  0  0  0  0  0  0  0  0  0  0  0
   42.6400   35.2080   40.8860 C   0  0  0  0  0  0  0  0  0  0  0  0
   43.0300   34.3330   39.9020 C   0  0  0  0  0  0  0  0  0  0  0  0
   44.3490   33.8770   39.8560 C   0  0  0  0  0  0  0  0  0  0  0  0
   45.2760   34.3110   40.8120 C   0  0  0  0  0  0  0  0  0  0  0  0
   46.5240   33.7070   40.5010 N   0  0  0  0  0  0  0  0  0  0  0  0
   47.7230   34.4030   40.0670 C   0  0  0  0  0  0  0  0  0  0  0  0
   48.1530   33.6890   38.7890 C   0  0  0  0  0  0  0  0  0  0  0  0
   48.5400   32.4010   39.0640 O   0  0  0  0  0  0  0  0  0  0  0  0
   48.1220   31.9500   40.2910 C   0  0  0  0  0  0  0  0  0  0  0  0
   46.6720   32.2470   40.6070 C   0  0  0  0  0  0  0  0  0  0  0  0
   44.3058   35.7380   44.8993 H   0  0  0  0  0  0  0  0  0  0  0  0
   47.5027   33.4144   43.2121 H   0  0  0  0  0  0  0  0  0  0  0  0
   47.9773   31.3460   46.9286 H   0  0  0  0  0  0  0  0  0  0  0  0
   45.2581   31.2889   46.8500 H   0  0  0  0  0  0  0  0  0  0  0  0
   46.0668   32.3703   50.2881 H   0  0  0  0  0  0  0  0  0  0  0  0
   44.9458   31.1156   49.6789 H   0  0  0  0  0  0  0  0  0  0  0  0
   46.7424   29.9041   48.7458 H   0  0  0  0  0  0  0  0  0  0  0  0
   47.9471   32.9335   49.1018 H   0  0  0  0  0  0  0  0  0  0  0  0
   47.6119   30.9181   50.7538 H   0  0  0  0  0  0  0  0  0  0  0  0
   45.7458   36.6070   43.0805 H   0  0  0  0  0  0  0  0  0  0  0  0
   46.8979   35.4935   42.2507 H   0  0  0  0  0  0  0  0  0  0  0  0
   43.2585   36.3149   42.5995 H   0  0  0  0  0  0  0  0  0  0  0  0
   41.6042   35.5753   40.9330 H   0  0  0  0  0  0  0  0  0  0  0  0
   42.3034   33.9914   39.1501 H   0  0  0  0  0  0  0  0  0  0  0  0
   44.6605   33.1759   39.0677 H   0  0  0  0  0  0  0  0  0  0  0  0
   47.5034   35.4614   39.8634 H   0  0  0  0  0  0  0  0  0  0  0  0
   48.5109   34.3869   40.8345 H   0  0  0  0  0  0  0  0  0  0  0  0
   48.9966   34.2317   38.3376 H   0  0  0  0  0  0  0  0  0  0  0  0
   47.3019   33.6634   38.0926 H   0  0  0  0  0  0  0  0  0  0  0  0
   48.2646   30.8598   40.3234 H   0  0  0  0  0  0  0  0  0  0  0  0
   48.7222   32.4842   41.0423 H   0  0  0  0  0  0  0  0  0  0  0  0
   46.4262   31.9110   41.6252 H   0  0  0  0  0  0  0  0  0  0  0  0
   45.9941   31.7225   39.9176 H   0  0  0  0  0  0  0  0  0  0  0  0
  1  6  2  0
  2  3  2  0
  2  1  1  0
  3  4  1  0
  4  5  2  0
  5  8  1  0
  6  5  1  0
  7 12  1  0
  7 11  1  0
  8  7  1  0
  8  9  1  0
  9 10  1  0
 11 10  1  0
 11 13  1  0
 14  2  1  0
 15 16  2  0
 15 14  1  0
 17 16  1  0
 18 17  2  0
 19 18  1  0
 19 20  2  0
 20 15  1  0
 21 26  1  0
 21 20  1  0
 22 21  1  0
 23 24  1  0
 23 22  1  0
 24 25  1  0
 25 26  1  0
  1 27  1  0
  3 28  1  0
  7 29  1  6
  8 30  1  6
 10 31  1  0
 10 32  1  0
 11 33  1  6
 12 34  1  0
 13 35  1  0
 14 36  1  0
 14 37  1  0
 16 38  1  0
 17 39  1  0
 18 40  1  0
 19 41  1  0
 22 42  1  0
 22 43  1  0
 23 44  1  0
 23 45  1  0
 25 46  1  0
 25 47  1  0
 26 48  1  0
 26 49  1  0
M  ISO  8  27  14  28  14  29  13  30  13  31  13  32  13  33  13  34   3
M  ISO  8  35   3  36   8  37   8  38  14  39  14  40  14  41  14  42  13
M  ISO  7  43  13  44  13  45  13  46  13  47  13  48  13  49  13
M  END
>  <minimizedAffinity>  (1) 
-6.96158934

>  <minimizedRMSD>  (1) 
0.280967921

$$$$
