
     RDKit          3D

 38 40  0  0  1  0  0  0  0  0999 V2000
   45.0350   34.9040   44.9220 C   0  0  0  0  0  0  0  0  0  0  0  0
   45.8610   34.6320   43.8250 C   0  0  0  0  0  0  0  0  0  0  0  0
   46.6650   33.4950   43.9140 C   0  0  0  0  0  0  0  0  0  0  0  0
   46.6450   32.6980   45.0040 N   0  0  0  0  0  0  0  0  0  0  0  0
   45.8310   32.9970   46.0460 C   0  0  0  0  0  0  0  0  0  0  0  0
   45.0240   34.0970   46.0130 N   0  0  0  0  0  0  0  0  0  0  0  0
   47.2920   31.7940   47.6580 C   0  0  2  0  0  0  0  0  0  0  0  0
   45.8360   32.1030   47.1960 C   0  0  1  0  0  0  0  0  0  0  0  0
   45.3490   32.6100   48.3520 O   0  0  0  0  0  0  0  0  0  0  0  0
   45.7370   31.7790   49.3660 C   0  0  0  0  0  0  0  0  0  0  0  0
   46.9220   30.9720   48.9000 C   0  0  2  0  0  0  0  0  0  0  0  0
   47.8940   32.9210   48.0740 O   0  0  0  0  0  0  0  0  0  0  0  0
   47.9350   30.9020   49.8170 O   0  0  0  0  0  0  0  0  0  0  0  0
   45.8570   35.5000   42.6680 C   0  0  0  0  0  0  0  0  0  0  0  0
   44.7580   35.1430   41.7600 C   0  0  0  0  0  0  0  0  0  0  0  0
   43.4640   35.5780   41.8530 C   0  0  0  0  0  0  0  0  0  0  0  0
   42.4890   35.1950   40.9630 C   0  0  0  0  0  0  0  0  0  0  0  0
   42.8210   34.3410   39.9350 C   0  0  0  0  0  0  0  0  0  0  0  0
   44.1340   33.8820   39.8150 C   0  0  0  0  0  0  0  0  0  0  0  0
   45.1090   34.2880   40.7360 C   0  0  0  0  0  0  0  0  0  0  0  0
   46.3380   33.6860   40.3600 N   0  0  0  0  0  0  0  0  0  0  0  0
   44.3822   35.7890   44.8992 H   0  0  0  0  0  0  0  0  0  0  0  0
   47.3312   33.2418   43.0761 H   0  0  0  0  0  0  0  0  0  0  0  0
   47.9549   31.3371   46.9084 H   0  0  0  0  0  0  0  0  0  0  0  0
   45.2320   31.2669   46.8137 H   0  0  0  0  0  0  0  0  0  0  0  0
   46.0180   32.3752   50.2467 H   0  0  0  0  0  0  0  0  0  0  0  0
   44.9094   31.1078   49.6392 H   0  0  0  0  0  0  0  0  0  0  0  0
   46.7177   29.9059   48.7222 H   0  0  0  0  0  0  0  0  0  0  0  0
   47.9057   32.9429   49.0637 H   0  0  0  0  0  0  0  0  0  0  0  0
   47.5552   30.9282   50.7309 H   0  0  0  0  0  0  0  0  0  0  0  0
   45.7302   36.5418   42.9976 H   0  0  0  0  0  0  0  0  0  0  0  0
   46.8115   35.3846   42.1336 H   0  0  0  0  0  0  0  0  0  0  0  0
   43.1935   36.2608   42.6719 H   0  0  0  0  0  0  0  0  0  0  0  0
   41.4587   35.5652   41.0704 H   0  0  0  0  0  0  0  0  0  0  0  0
   42.0556   34.0221   39.2121 H   0  0  0  0  0  0  0  0  0  0  0  0
   44.4039   33.1999   38.9953 H   0  0  0  0  0  0  0  0  0  0  0  0
   47.1879   33.8604   40.9151 H   0  0  0  0  0  0  0  0  0  0  0  0
   46.3800   33.0747   39.5320 H   0  0  0  0  0  0  0  0  0  0  0  0
  1  6  2  0
  2  3  2  0
  2  1  1  0
  3  4  1  0
  4  5  2  0
  5  8  1  0
  6  5  1  0
  7 12  1  0
  7 11  1  0
  8  7  1  0
  8  9  1  0
  9 10  1  0
 11 10  1  0
 11 13  1  0
 14  2  1  0
 15 16  2  0
 15 14  1  0
 17 16  1  0
 18 17  2  0
 19 18  1  0
 19 20  2  0
 20 15  1  0
 21 20  1  0
  1 22  1  0
  3 23  1  0
  7 24  1  6
  8 25  1  6
 10 26  1  0
 10 27  1  0
 11 28  1  6
 12 29  1  0
 13 30  1  0
 14 31  1  0
 14 32  1  0
 16 33  1  0
 17 34  1  0
 18 35  1  0
 19 36  1  0
 21 37  1  0
 21 38  1  0
M  ISO  8  22  14  23  14  24  13  25  13  26  13  27  13  28  13  29   3
M  ISO  7  30   3  31   8  32   8  33  14  34  14  35  14  36  14
M  END
>  <minimizedAffinity>  (1) 
-6.42447233

>  <minimizedRMSD>  (1) 
0.234206781

$$$$
