
     RDKit          3D

 23 24  0  0  0  0  0  0  0  0999 V2000
   47.6020   34.8320   41.8120 C   0  0  0  0  0  0  0  0  0  0  0  0
   47.5380   34.3690   43.1380 C   0  0  0  0  0  0  0  0  0  0  0  0
   46.3860   33.7230   43.5860 C   0  0  0  0  0  0  0  0  0  0  0  0
   45.3830   33.5830   42.6920 N   0  0  0  0  0  0  0  0  0  0  0  0
   45.4490   34.0260   41.4300 C   0  0  0  0  0  0  0  0  0  0  0  0
   46.5560   34.6500   40.9920 N   0  0  0  0  0  0  0  0  0  0  0  0
   44.6200   35.3690   45.2710 Cl  0  0  0  0  0  0  0  0  0  0  0  0
   45.4620   33.9150   45.8290 C   0  0  0  0  0  0  0  0  0  0  0  0
   46.2660   33.2220   44.9490 C   0  0  0  0  0  0  0  0  0  0  0  0
   46.8840   32.1100   45.4470 C   0  0  0  0  0  0  0  0  0  0  0  0
   46.7380   31.6760   46.7500 C   0  0  0  0  0  0  0  0  0  0  0  0
   45.9170   32.4240   47.5680 C   0  0  0  0  0  0  0  0  0  0  0  0
   45.2590   33.5550   47.1450 C   0  0  0  0  0  0  0  0  0  0  0  0
   48.8560   35.5140   41.3910 C   0  0  0  0  0  0  0  0  0  0  0  0
   48.8810   35.7220   40.0230 F   0  0  0  0  0  0  0  0  0  0  0  0
   48.9510   36.7150   42.0690 F   0  0  0  0  0  0  0  0  0  0  0  0
   49.9550   34.7570   41.7920 F   0  0  0  0  0  0  0  0  0  0  0  0
   48.3906   34.5153   43.8174 H   0  0  0  0  0  0  0  0  0  0  0  0
   44.5962   33.8790   40.7509 H   0  0  0  0  0  0  0  0  0  0  0  0
   47.5324   31.5294   44.7744 H   0  0  0  0  0  0  0  0  0  0  0  0
   47.2523   30.7760   47.1182 H   0  0  0  0  0  0  0  0  0  0  0  0
   45.7819   32.0997   48.6104 H   0  0  0  0  0  0  0  0  0  0  0  0
   44.6100   34.1374   47.8156 H   0  0  0  0  0  0  0  0  0  0  0  0
  1  2  2  0
  2  3  1  0
  3  9  1  0
  4  3  2  0
  5  4  1  0
  6  5  2  0
  6  1  1  0
  7  8  1  0
  8 13  2  0
  9 10  2  0
  9  8  1  0
 10 11  1  0
 11 12  2  0
 13 12  1  0
 14 17  1  0
 14  1  1  0
 14 16  1  0
 15 14  1  0
  2 18  1  0
  5 19  1  0
 10 20  1  0
 11 21  1  0
 12 22  1  0
 13 23  1  0
M  ISO  6  18  14  19  14  20  14  21  14  22  14  23  14
M  END
>  <minimizedAffinity>  (1) 
-5.50639153

>  <minimizedRMSD>  (1) 
1.50541162

$$$$
