
     RDKit          3D

 28 30  0  0  0  0  0  0  0  0999 V2000
   47.6080   35.1700   42.2180 C   0  0  0  0  0  0  0  0  0  0  0  0
   47.6970   34.1440   43.1870 C   0  0  0  0  0  0  0  0  0  0  0  0
   46.5980   33.8630   43.9990 C   0  0  0  0  0  0  0  0  0  0  0  0
   45.4870   34.6170   43.7930 N   0  0  0  0  0  0  0  0  0  0  0  0
   45.4160   35.5860   42.8710 C   0  0  0  0  0  0  0  0  0  0  0  0
   46.4680   35.8620   42.0890 N   0  0  0  0  0  0  0  0  0  0  0  0
   46.6280   32.8230   45.0110 C   0  0  0  0  0  0  0  0  0  0  0  0
   47.2470   31.6130   44.8790 C   0  0  0  0  0  0  0  0  0  0  0  0
   47.2310   30.6700   45.8920 C   0  0  0  0  0  0  0  0  0  0  0  0
   46.5750   30.9450   47.0800 C   0  0  0  0  0  0  0  0  0  0  0  0
   46.5500   30.0320   48.0820 N   0  0  0  0  0  0  0  0  0  0  0  0
   45.9150   30.2780   49.2500 C   0  0  0  0  0  0  0  0  0  0  0  0
   45.2790   31.4940   49.4160 C   0  0  0  0  0  0  0  0  0  0  0  0
   45.2830   32.4430   48.4200 C   0  0  0  0  0  0  0  0  0  0  0  0
   45.9380   32.1530   47.2510 C   0  0  0  0  0  0  0  0  0  0  0  0
   45.9870   33.0540   46.2060 C   0  0  0  0  0  0  0  0  0  0  0  0
   48.8200   35.4150   41.3880 C   0  0  0  0  0  0  0  0  0  0  0  0
   48.5340   35.3200   40.0390 F   0  0  0  0  0  0  0  0  0  0  0  0
   49.3270   36.6540   41.7200 F   0  0  0  0  0  0  0  0  0  0  0  0
   49.8090   34.4760   41.7150 F   0  0  0  0  0  0  0  0  0  0  0  0
   48.6286   33.5701   43.3000 H   0  0  0  0  0  0  0  0  0  0  0  0
   44.4852   36.1605   42.7549 H   0  0  0  0  0  0  0  0  0  0  0  0
   47.7731   31.3812   43.9412 H   0  0  0  0  0  0  0  0  0  0  0  0
   47.7385   29.7039   45.7536 H   0  0  0  0  0  0  0  0  0  0  0  0
   45.9047   29.5254   50.0522 H   0  0  0  0  0  0  0  0  0  0  0  0
   44.7600   31.7069   50.3622 H   0  0  0  0  0  0  0  0  0  0  0  0
   44.7743   33.4085   48.5578 H   0  0  0  0  0  0  0  0  0  0  0  0
   45.4796   34.0211   46.3378 H   0  0  0  0  0  0  0  0  0  0  0  0
  1  2  2  0
  2  3  1  0
  3  7  1  0
  4  3  2  0
  5  4  1  0
  6  1  1  0
  6  5  2  0
  7 16  1  0
  8  7  2  0
  8  9  1  0
  9 10  2  0
 10 15  1  0
 10 11  1  0
 11 12  2  0
 12 13  1  0
 14 13  2  0
 15 14  1  0
 16 15  2  0
 17 20  1  0
 17 19  1  0
 17  1  1  0
 18 17  1  0
  2 21  1  0
  5 22  1  0
  8 23  1  0
  9 24  1  0
 12 25  1  0
 13 26  1  0
 14 27  1  0
 16 28  1  0
M  ISO  8  21  14  22  14  23  14  24  14  25  14  26  14  27  14  28  14
M  END
>  <minimizedAffinity>  (1) 
-6.12455273

>  <minimizedRMSD>  (1) 
1.10852563

$$$$
