
     RDKit          3D

 16 16  0  0  0  0  0  0  0  0999 V2000
   47.6330   34.9730   42.3410 C   0  0  0  0  0  0  0  0  0  0  0  0
   47.8690   33.9500   43.2720 C   0  0  0  0  0  0  0  0  0  0  0  0
   46.8000   33.6140   44.1380 C   0  0  0  0  0  0  0  0  0  0  0  0
   45.6370   34.2910   44.0160 N   0  0  0  0  0  0  0  0  0  0  0  0
   45.4530   35.2680   43.1050 C   0  0  0  0  0  0  0  0  0  0  0  0
   46.4430   35.6160   42.2660 N   0  0  0  0  0  0  0  0  0  0  0  0
   48.7680   35.3200   41.4260 C   0  0  0  0  0  0  0  0  0  0  0  0
   48.4080   35.2160   40.0980 F   0  0  0  0  0  0  0  0  0  0  0  0
   49.2160   36.5820   41.7440 F   0  0  0  0  0  0  0  0  0  0  0  0
   49.8400   34.4490   41.6870 F   0  0  0  0  0  0  0  0  0  0  0  0
   46.9680   32.5380   45.1570 C   0  0  0  0  0  0  0  0  0  0  0  0
   48.8386   33.4334   43.3266 H   0  0  0  0  0  0  0  0  0  0  0  0
   44.4836   35.7847   43.0482 H   0  0  0  0  0  0  0  0  0  0  0  0
   46.9000   32.9736   46.1648 H   0  0  0  0  0  0  0  0  0  0  0  0
   46.1766   31.7849   45.0289 H   0  0  0  0  0  0  0  0  0  0  0  0
   47.9514   32.0620   45.0289 H   0  0  0  0  0  0  0  0  0  0  0  0
  1  2  2  0
  2  3  1  0
  3 11  1  0
  4  3  2  0
  5  4  1  0
  6  1  1  0
  6  5  2  0
  7 10  1  0
  7  9  1  0
  7  1  1  0
  8  7  1  0
  2 12  1  0
  5 13  1  0
 11 14  1  0
 11 15  1  0
 11 16  1  0
M  ISO  5  12  14  13  14  14   8  15   8  16   8
M  END
>  <minimizedAffinity>  (1) 
-4.09165192

>  <minimizedRMSD>  (1) 
0.0968052223

$$$$
