
     RDKit          3D

 28 29  0  0  0  0  0  0  0  0999 V2000
   46.2140   34.8230   43.2880 C   0  0  0  0  0  0  0  0  0  0  0  0
   46.3720   33.8180   44.2630 C   0  0  0  0  0  0  0  0  0  0  0  0
   45.5970   33.9040   45.4200 C   0  0  0  0  0  0  0  0  0  0  0  0
   44.7410   34.9380   45.5490 N   0  0  0  0  0  0  0  0  0  0  0  0
   44.6000   35.8990   44.6000 C   0  0  0  0  0  0  0  0  0  0  0  0
   45.3400   35.8340   43.4730 N   0  0  0  0  0  0  0  0  0  0  0  0
   45.6930   32.9450   46.4390 N   0  0  0  0  0  0  0  0  0  0  0  0
   45.1540   33.1690   47.7630 C   0  0  0  0  0  0  0  0  0  0  0  0
   45.9280   32.2360   48.7030 C   0  0  0  0  0  0  0  0  0  0  0  0
   45.4430   30.8290   48.4010 C   0  0  0  0  0  0  0  0  0  0  0  0
   45.6260   30.5570   46.9270 C   0  0  0  0  0  0  0  0  0  0  0  0
   46.3340   31.6880   46.2200 C   0  0  0  0  0  0  0  0  0  0  0  0
   47.0530   34.7090   42.0580 C   0  0  0  0  0  0  0  0  0  0  0  0
   46.2850   34.5800   40.9200 F   0  0  0  0  0  0  0  0  0  0  0  0
   47.8760   35.8340   42.0010 F   0  0  0  0  0  0  0  0  0  0  0  0
   47.9140   33.6150   42.1860 F   0  0  0  0  0  0  0  0  0  0  0  0
   47.0836   32.9921   44.1166 H   0  0  0  0  0  0  0  0  0  0  0  0
   43.8881   36.7243   44.7486 H   0  0  0  0  0  0  0  0  0  0  0  0
   45.2994   34.2176   48.0616 H   0  0  0  0  0  0  0  0  0  0  0  0
   44.0735   32.9653   47.7959 H   0  0  0  0  0  0  0  0  0  0  0  0
   47.0087   32.3153   48.5135 H   0  0  0  0  0  0  0  0  0  0  0  0
   45.7582   32.4998   49.7573 H   0  0  0  0  0  0  0  0  0  0  0  0
   46.0268   30.1032   48.9861 H   0  0  0  0  0  0  0  0  0  0  0  0
   44.3805   30.7343   48.6694 H   0  0  0  0  0  0  0  0  0  0  0  0
   46.2193   29.6384   46.8076 H   0  0  0  0  0  0  0  0  0  0  0  0
   44.6276   30.4511   46.4775 H   0  0  0  0  0  0  0  0  0  0  0  0
   46.3451   31.4792   45.1401 H   0  0  0  0  0  0  0  0  0  0  0  0
   47.3546   31.7538   46.6250 H   0  0  0  0  0  0  0  0  0  0  0  0
  1  6  2  0
  1  2  1  0
  2  3  2  0
  3  4  1  0
  3  7  1  0
  5  4  2  0
  6  5  1  0
  7  8  1  0
  8  9  1  0
 10  9  1  0
 11 10  1  0
 12  7  1  0
 12 11  1  0
 13 16  1  0
 13  1  1  0
 14 13  1  0
 15 13  1  0
  2 17  1  0
  5 18  1  0
  8 19  1  0
  8 20  1  0
  9 21  1  0
  9 22  1  0
 10 23  1  0
 10 24  1  0
 11 25  1  0
 11 26  1  0
 12 27  1  0
 12 28  1  0
M  ISO  8  17  14  18  14  19  13  20  13  21  13  22  13  23  13  24  13
M  ISO  4  25  13  26  13  27  13  28  13
M  END
>  <minimizedAffinity>  (1) 
-5.55095243

>  <minimizedRMSD>  (1) 
2.04428625

$$$$
