
     RDKit          3D

 25 26  0  0  0  0  0  0  0  0999 V2000
   46.5150   31.5680   46.2160 C   0  0  0  0  0  0  0  0  0  0  0  0
   45.8950   32.7620   46.4860 C   0  0  0  0  0  0  0  0  0  0  0  0
   45.4290   33.0270   47.7710 C   0  0  0  0  0  0  0  0  0  0  0  0
   45.5890   32.0860   48.7850 C   0  0  0  0  0  0  0  0  0  0  0  0
   46.2090   30.8750   48.5490 C   0  0  0  0  0  0  0  0  0  0  0  0
   46.6460   30.6750   47.2590 C   0  0  0  0  0  0  0  0  0  0  0  0
   46.1560   34.7510   43.4050 C   0  0  0  0  0  0  0  0  0  0  0  0
   45.2230   35.7870   43.6370 C   0  0  0  0  0  0  0  0  0  0  0  0
   44.5230   35.7710   44.8590 C   0  0  0  0  0  0  0  0  0  0  0  0
   44.7990   34.7610   45.7230 N   0  0  0  0  0  0  0  0  0  0  0  0
   45.6940   33.7930   45.4660 C   0  0  0  0  0  0  0  0  0  0  0  0
   46.3590   33.8010   44.3160 N   0  0  0  0  0  0  0  0  0  0  0  0
   46.8110   34.8560   42.1420 C   0  0  0  0  0  0  0  0  0  0  0  0
   47.9090   35.4340   41.9150 O   0  0  0  0  0  0  0  0  0  0  0  0
   47.1020   31.2290   44.6050 S   0  0  0  0  0  0  0  0  0  0  0  0
   48.3000   30.3410   44.7510 O   0  0  0  0  0  0  0  0  0  0  0  0
   46.0440   30.4410   43.8890 O   0  0  0  0  0  0  0  0  0  0  0  0
   44.9320   33.9844   47.9863 H   0  0  0  0  0  0  0  0  0  0  0  0
   45.2140   32.3119   49.7941 H   0  0  0  0  0  0  0  0  0  0  0  0
   46.3446   30.1210   49.3384 H   0  0  0  0  0  0  0  0  0  0  0  0
   47.1436   29.7186   47.0407 H   0  0  0  0  0  0  0  0  0  0  0  0
   45.0500   36.5765   42.8908 H   0  0  0  0  0  0  0  0  0  0  0  0
   43.7820   36.5462   45.1036 H   0  0  0  0  0  0  0  0  0  0  0  0
   46.3097   34.3873   41.2823 H   0  0  0  0  0  0  0  0  0  0  0  0
   47.4030   32.3817   43.9285 H   0  0  0  0  0  0  0  0  0  0  0  0
  1  2  2  0
  1  6  1  0
  2  3  1  0
  3  4  2  0
  5  4  1  0
  6  5  2  0
  7  8  2  0
  7 12  1  0
  8  9  1  0
  9 10  2  0
 11 10  1  0
 11  2  1  0
 12 11  2  0
 13  7  1  0
 14 13  2  0
 15 16  2  0
 15  1  1  0
 17 15  2  0
  3 18  1  0
  4 19  1  0
  5 20  1  0
  6 21  1  0
  8 22  1  0
  9 23  1  0
 13 24  1  0
 15 25  1  0
M  ISO  8  18  14  19  14  20  14  21  14  22  14  23  14  24   6  25  11
M  END
>  <minimizedAffinity>  (1) 
-4.75476503

>  <minimizedRMSD>  (1) 
0.857076645

$$$$
