
     RDKit          3D

 21 22  0  0  0  0  0  0  0  0999 V2000
   46.1710   34.7360   43.3770 C   0  0  0  0  0  0  0  0  0  0  0  0
   45.2080   35.7330   43.5060 C   0  0  0  0  0  0  0  0  0  0  0  0
   44.5070   35.7800   44.7280 C   0  0  0  0  0  0  0  0  0  0  0  0
   44.8180   34.8580   45.6850 N   0  0  0  0  0  0  0  0  0  0  0  0
   45.7560   33.9220   45.5020 C   0  0  0  0  0  0  0  0  0  0  0  0
   46.4450   33.8470   44.3470 N   0  0  0  0  0  0  0  0  0  0  0  0
   46.0110   32.9830   46.5890 C   0  0  0  0  0  0  0  0  0  0  0  0
   45.1870   32.8770   47.6870 C   0  0  0  0  0  0  0  0  0  0  0  0
   45.4560   31.9770   48.7020 C   0  0  0  0  0  0  0  0  0  0  0  0
   46.5870   31.1930   48.5620 C   0  0  0  0  0  0  0  0  0  0  0  0
   47.4290   31.2910   47.4550 C   0  0  0  0  0  0  0  0  0  0  0  0
   47.1110   32.1980   46.4860 N   0  0  0  0  0  0  0  0  0  0  0  0
   46.8550   34.7390   42.1040 C   0  0  0  0  0  0  0  0  0  0  0  0
   47.9140   35.3930   41.8370 O   0  0  0  0  0  0  0  0  0  0  0  0
   45.0044   36.4480   42.6952 H   0  0  0  0  0  0  0  0  0  0  0  0
   43.7307   36.5389   44.9054 H   0  0  0  0  0  0  0  0  0  0  0  0
   44.2977   33.5205   47.7582 H   0  0  0  0  0  0  0  0  0  0  0  0
   44.8003   31.8886   49.5808 H   0  0  0  0  0  0  0  0  0  0  0  0
   46.8306   30.4669   49.3516 H   0  0  0  0  0  0  0  0  0  0  0  0
   48.3229   30.6563   47.3653 H   0  0  0  0  0  0  0  0  0  0  0  0
   46.4248   34.1252   41.2989 H   0  0  0  0  0  0  0  0  0  0  0  0
  1  2  2  0
  1  6  1  0
  2  3  1  0
  3  4  2  0
  5  4  1  0
  5  7  1  0
  6  5  2  0
  7  8  2  0
  8  9  1  0
 10  9  2  0
 11 10  1  0
 12  7  1  0
 12 11  2  0
 13  1  1  0
 14 13  2  0
  2 15  1  0
  3 16  1  0
  8 17  1  0
  9 18  1  0
 10 19  1  0
 11 20  1  0
 13 21  1  0
M  ISO  7  15  14  16  14  17  14  18  14  19  14  20  14  21   6
M  END
>  <minimizedAffinity>  (1) 
-4.8457222

>  <minimizedRMSD>  (1) 
0.373733163

$$$$
