
     RDKit          3D

 26 27  0  0  0  0  0  0  0  0999 V2000
   46.0900   34.6350   43.4910 C   0  0  0  0  0  0  0  0  0  0  0  0
   45.1600   35.6610   43.6750 C   0  0  0  0  0  0  0  0  0  0  0  0
   44.5130   35.7250   44.9160 C   0  0  0  0  0  0  0  0  0  0  0  0
   44.8350   34.7850   45.8610 N   0  0  0  0  0  0  0  0  0  0  0  0
   45.7420   33.8120   45.6380 C   0  0  0  0  0  0  0  0  0  0  0  0
   46.3630   33.7480   44.4460 N   0  0  0  0  0  0  0  0  0  0  0  0
   46.0080   32.8820   46.6820 N   0  0  0  0  0  0  0  0  0  0  0  0
   47.2020   32.0700   46.5470 C   0  0  0  0  0  0  0  0  0  0  0  0
   47.5200   31.2640   47.7550 C   0  0  0  0  0  0  0  0  0  0  0  0
   46.9940   31.8800   48.9590 N   0  0  0  0  0  0  0  0  0  0  0  0
   45.5410   31.9320   48.8930 C   0  0  0  0  0  0  0  0  0  0  0  0
   45.0760   32.8170   47.7880 C   0  0  0  0  0  0  0  0  0  0  0  0
   46.7210   34.6180   42.1990 C   0  0  0  0  0  0  0  0  0  0  0  0
   47.7350   35.3090   41.8580 O   0  0  0  0  0  0  0  0  0  0  0  0
   44.9446   36.3885   42.8785 H   0  0  0  0  0  0  0  0  0  0  0  0
   43.7682   36.5067   45.1262 H   0  0  0  0  0  0  0  0  0  0  0  0
   47.0602   31.3833   45.6995 H   0  0  0  0  0  0  0  0  0  0  0  0
   48.0435   32.7614   46.3929 H   0  0  0  0  0  0  0  0  0  0  0  0
   47.0780   30.2629   47.6433 H   0  0  0  0  0  0  0  0  0  0  0  0
   48.6141   31.2007   47.8494 H   0  0  0  0  0  0  0  0  0  0  0  0
   47.2793   31.3259   49.7790 H   0  0  0  0  0  0  0  0  0  0  0  0
   45.1543   30.9162   48.7242 H   0  0  0  0  0  0  0  0  0  0  0  0
   45.1667   32.3406   49.8432 H   0  0  0  0  0  0  0  0  0  0  0  0
   44.9359   33.8321   48.1879 H   0  0  0  0  0  0  0  0  0  0  0  0
   44.1373   32.3934   47.4014 H   0  0  0  0  0  0  0  0  0  0  0  0
   46.2903   33.9498   41.4388 H   0  0  0  0  0  0  0  0  0  0  0  0
  1  2  2  0
  1  6  1  0
  2  3  1  0
  3  4  2  0
  5  4  1  0
  5  7  1  0
  6  5  2  0
  7 12  1  0
  8  7  1  0
  8  9  1  0
  9 10  1  0
 11 10  1  0
 12 11  1  0
 13  1  1  0
 14 13  2  0
  2 15  1  0
  3 16  1  0
  8 17  1  0
  8 18  1  0
  9 19  1  0
  9 20  1  0
 10 21  1  0
 11 22  1  0
 11 23  1  0
 12 24  1  0
 12 25  1  0
 13 26  1  0
M  ISO  8  15  14  16  14  17  13  18  13  19  13  20  13  21   5  22  13
M  ISO  4  23  13  24  13  25  13  26   6
M  END
>  <minimizedAffinity>  (1) 
-4.890172

>  <minimizedRMSD>  (1) 
0.500222743

$$$$
