
     RDKit          3D

 15 15  0  0  0  0  0  0  0  0999 V2000
   46.2050   34.8200   43.2270 C   0  0  0  0  0  0  0  0  0  0  0  0
   45.2880   35.8660   43.3310 C   0  0  0  0  0  0  0  0  0  0  0  0
   44.5350   35.9660   44.5170 C   0  0  0  0  0  0  0  0  0  0  0  0
   44.7570   35.0330   45.4790 N   0  0  0  0  0  0  0  0  0  0  0  0
   45.6480   34.0440   45.3360 C   0  0  0  0  0  0  0  0  0  0  0  0
   46.3690   33.9300   44.2280 N   0  0  0  0  0  0  0  0  0  0  0  0
   45.8620   33.0340   46.4240 C   0  0  0  0  0  0  0  0  0  0  0  0
   45.6680   31.7840   45.9060 F   0  0  0  0  0  0  0  0  0  0  0  0
   44.9610   33.2240   47.4730 F   0  0  0  0  0  0  0  0  0  0  0  0
   47.1180   33.1210   46.9630 F   0  0  0  0  0  0  0  0  0  0  0  0
   46.9370   34.7700   42.0040 C   0  0  0  0  0  0  0  0  0  0  0  0
   48.0080   35.3780   41.7530 O   0  0  0  0  0  0  0  0  0  0  0  0
   45.1572   36.5896   42.5129 H   0  0  0  0  0  0  0  0  0  0  0  0
   43.7960   36.7683   44.6588 H   0  0  0  0  0  0  0  0  0  0  0  0
   46.5245   34.1385   41.2033 H   0  0  0  0  0  0  0  0  0  0  0  0
  1  2  2  0
  1  6  1  0
  2  3  1  0
  3  4  2  0
  5  4  1  0
  5  7  1  0
  6  5  2  0
  7 10  1  0
  7  9  1  0
  8  7  1  0
 11  1  1  0
 12 11  2  0
  2 13  1  0
  3 14  1  0
 11 15  1  0
M  ISO  3  13  14  14  14  15   6
M  END
>  <minimizedAffinity>  (1) 
-4.25505733

>  <minimizedRMSD>  (1) 
0.491329521

$$$$
