
     RDKit          3D

 19 20  0  0  0  0  0  0  0  0999 V2000
   46.2080   34.7570   43.2400 C   0  0  0  0  0  0  0  0  0  0  0  0
   45.3150   35.8300   43.1840 C   0  0  0  0  0  0  0  0  0  0  0  0
   44.5250   36.0640   44.3140 C   0  0  0  0  0  0  0  0  0  0  0  0
   44.6720   35.2400   45.3880 N   0  0  0  0  0  0  0  0  0  0  0  0
   45.5450   34.2210   45.3920 C   0  0  0  0  0  0  0  0  0  0  0  0
   46.3180   33.9690   44.3240 N   0  0  0  0  0  0  0  0  0  0  0  0
   45.7210   33.3230   46.5310 C   0  0  0  0  0  0  0  0  0  0  0  0
   46.8690   32.5450   46.5500 C   0  0  0  0  0  0  0  0  0  0  0  0
   46.8110   31.7820   47.7210 C   0  0  0  0  0  0  0  0  0  0  0  0
   45.6130   32.1570   48.3400 C   0  0  0  0  0  0  0  0  0  0  0  0
   45.0070   33.0640   47.6050 O   0  0  0  0  0  0  0  0  0  0  0  0
   46.9970   34.5630   42.0470 C   0  0  0  0  0  0  0  0  0  0  0  0
   47.9530   35.2880   41.6520 O   0  0  0  0  0  0  0  0  0  0  0  0
   45.2366   36.4642   42.2886 H   0  0  0  0  0  0  0  0  0  0  0  0
   43.8026   36.8933   44.3347 H   0  0  0  0  0  0  0  0  0  0  0  0
   47.6675   32.5308   45.7936 H   0  0  0  0  0  0  0  0  0  0  0  0
   47.5472   31.0468   48.0779 H   0  0  0  0  0  0  0  0  0  0  0  0
   45.2369   31.7558   49.2927 H   0  0  0  0  0  0  0  0  0  0  0  0
   46.7401   33.6972   41.4190 H   0  0  0  0  0  0  0  0  0  0  0  0
  1  6  2  0
  2  1  1  0
  2  3  2  0
  3  4  1  0
  4  5  2  0
  5  7  1  0
  6  5  1  0
  7  8  2  0
  7 11  1  0
  8  9  1  0
  9 10  2  0
 11 10  1  0
 12  1  1  0
 13 12  2  0
  2 14  1  0
  3 15  1  0
  8 16  1  0
  9 17  1  0
 10 18  1  0
 12 19  1  0
M  ISO  6  14  14  15  14  16  14  17  14  18  14  19   6
M  END
>  <minimizedAffinity>  (1) 
-4.50662422

>  <minimizedRMSD>  (1) 
0.360752493

$$$$
