
     RDKit          3D

 28 29  0  0  0  0  0  0  0  0999 V2000
   46.1830   34.2710   43.8460 C   0  0  0  0  0  0  0  0  0  0  0  0
   45.1360   35.1250   44.1910 C   0  0  0  0  0  0  0  0  0  0  0  0
   44.6510   35.0500   45.5110 C   0  0  0  0  0  0  0  0  0  0  0  0
   45.2310   34.1540   46.3640 N   0  0  0  0  0  0  0  0  0  0  0  0
   46.2400   33.3600   45.9640 C   0  0  0  0  0  0  0  0  0  0  0  0
   46.7160   33.4140   44.7170 N   0  0  0  0  0  0  0  0  0  0  0  0
   46.8420   32.4040   46.9160 C   0  0  0  0  0  0  0  0  0  0  0  0
   46.9660   31.0530   46.2990 C   0  0  0  0  0  0  0  0  0  0  0  0
   45.7120   30.2440   46.3360 C   0  0  0  0  0  0  0  0  0  0  0  0
   44.9880   30.2450   47.6380 C   0  0  0  0  0  0  0  0  0  0  0  0
   44.9130   31.5810   48.3220 C   0  0  0  0  0  0  0  0  0  0  0  0
   46.1580   32.3940   48.2460 C   0  0  0  0  0  0  0  0  0  0  0  0
   46.6200   34.4060   42.4900 C   0  0  0  0  0  0  0  0  0  0  0  0
   47.4740   35.2480   42.0570 O   0  0  0  0  0  0  0  0  0  0  0  0
   44.7067   35.8282   43.4622 H   0  0  0  0  0  0  0  0  0  0  0  0
   43.8265   35.6961   45.8467 H   0  0  0  0  0  0  0  0  0  0  0  0
   47.8621   32.7513   47.1367 H   0  0  0  0  0  0  0  0  0  0  0  0
   47.7495   30.4991   46.8369 H   0  0  0  0  0  0  0  0  0  0  0  0
   47.2074   31.2121   45.2377 H   0  0  0  0  0  0  0  0  0  0  0  0
   45.0304   30.6396   45.5686 H   0  0  0  0  0  0  0  0  0  0  0  0
   46.0187   29.2022   46.1610 H   0  0  0  0  0  0  0  0  0  0  0  0
   43.9606   29.8960   47.4574 H   0  0  0  0  0  0  0  0  0  0  0  0
   45.5609   29.5879   48.3088 H   0  0  0  0  0  0  0  0  0  0  0  0
   44.0993   32.1576   47.8577 H   0  0  0  0  0  0  0  0  0  0  0  0
   44.7447   31.3728   49.3889 H   0  0  0  0  0  0  0  0  0  0  0  0
   46.8667   31.9982   48.9883 H   0  0  0  0  0  0  0  0  0  0  0  0
   45.8512   33.4333   48.4349 H   0  0  0  0  0  0  0  0  0  0  0  0
   46.1781   33.7196   41.7527 H   0  0  0  0  0  0  0  0  0  0  0  0
  1  2  2  0
  1  6  1  0
  2  3  1  0
  3  4  2  0
  5  4  1  0
  5  7  1  0
  6  5  2  0
  7 12  1  0
  8  9  1  0
  8  7  1  0
  9 10  1  0
 10 11  1  0
 12 11  1  0
 13  1  1  0
 14 13  2  0
  2 15  1  0
  3 16  1  0
  7 17  1  0
  8 18  1  0
  8 19  1  0
  9 20  1  0
  9 21  1  0
 10 22  1  0
 10 23  1  0
 11 24  1  0
 11 25  1  0
 12 26  1  0
 12 27  1  0
 13 28  1  0
M  ISO  8  15  14  16  14  17  13  18  13  19  13  20  13  21  13  22  13
M  ISO  6  23  13  24  13  25  13  26  13  27  13  28   6
M  END
>  <minimizedAffinity>  (1) 
-4.44647217

>  <minimizedRMSD>  (1) 
1.50737226

$$$$
