
     RDKit          3D

 19 20  0  0  0  0  0  0  0  0999 V2000
   46.0820   34.7690   43.3890 C   0  0  0  0  0  0  0  0  0  0  0  0
   45.1730   35.7720   43.7790 C   0  0  0  0  0  0  0  0  0  0  0  0
   44.5600   35.6340   45.0390 C   0  0  0  0  0  0  0  0  0  0  0  0
   44.8810   34.5520   45.7950 N   0  0  0  0  0  0  0  0  0  0  0  0
   45.7630   33.6220   45.3650 C   0  0  0  0  0  0  0  0  0  0  0  0
   46.3610   33.7180   44.1810 N   0  0  0  0  0  0  0  0  0  0  0  0
   46.6590   34.9810   42.1010 C   0  0  0  0  0  0  0  0  0  0  0  0
   47.8240   35.3910   41.8650 O   0  0  0  0  0  0  0  0  0  0  0  0
   46.0660   32.4590   46.2530 C   0  0  0  0  0  0  0  0  0  0  0  0
   46.9840   32.5910   47.4010 C   0  0  0  0  0  0  0  0  0  0  0  0
   45.5300   32.6390   47.6640 C   0  0  0  0  0  0  0  0  0  0  0  0
   44.9510   36.6285   43.1255 H   0  0  0  0  0  0  0  0  0  0  0  0
   43.8402   36.3826   45.4016 H   0  0  0  0  0  0  0  0  0  0  0  0
   46.0227   34.7647   41.2301 H   0  0  0  0  0  0  0  0  0  0  0  0
   46.0167   31.7298   45.4309 H   0  0  0  0  0  0  0  0  0  0  0  0
   47.5691   31.7208   47.7333 H   0  0  0  0  0  0  0  0  0  0  0  0
   47.8274   33.2572   47.6350 H   0  0  0  0  0  0  0  0  0  0  0  0
   45.0522   33.5854   47.9574 H   0  0  0  0  0  0  0  0  0  0  0  0
   44.8323   32.0901   48.3135 H   0  0  0  0  0  0  0  0  0  0  0  0
  1  2  2  0
  1  6  1  0
  2  3  1  0
  3  4  2  0
  5  4  1  0
  5  9  1  0
  6  5  2  0
  7  1  1  0
  8  7  2  0
  9 10  1  0
  9 11  1  0
 10 11  1  0
  2 12  1  0
  3 13  1  0
  7 14  1  0
  9 15  1  0
 10 16  1  0
 10 17  1  0
 11 18  1  0
 11 19  1  0
M  ISO  8  12  14  13  14  14   6  15  13  16  13  17  13  18  13  19  13
M  END
>  <minimizedAffinity>  (1) 
-3.85095739

>  <minimizedRMSD>  (1) 
0.723962128

$$$$
