
     RDKit          3D

 13 13  0  0  0  0  0  0  0  0999 V2000
   46.2330   34.8290   43.2010 C   0  0  0  0  0  0  0  0  0  0  0  0
   45.2650   35.8240   43.3760 C   0  0  0  0  0  0  0  0  0  0  0  0
   44.5380   35.8600   44.5610 C   0  0  0  0  0  0  0  0  0  0  0  0
   44.8310   34.9050   45.4800 N   0  0  0  0  0  0  0  0  0  0  0  0
   45.7640   33.9620   45.2910 C   0  0  0  0  0  0  0  0  0  0  0  0
   46.4680   33.9220   44.1490 N   0  0  0  0  0  0  0  0  0  0  0  0
   46.9030   34.9080   41.9410 C   0  0  0  0  0  0  0  0  0  0  0  0
   48.0590   35.4060   41.7360 O   0  0  0  0  0  0  0  0  0  0  0  0
   46.0510   32.7610   46.5850 S   0  0  0  0  0  0  0  0  0  0  0  0
   45.0814   36.5679   42.5868 H   0  0  0  0  0  0  0  0  0  0  0  0
   43.7662   36.6222   44.7439 H   0  0  0  0  0  0  0  0  0  0  0  0
   46.3725   34.5017   41.0673 H   0  0  0  0  0  0  0  0  0  0  0  0
   45.9071   33.3632   47.8071 H   0  0  0  0  0  0  0  0  0  0  0  0
  1  2  2  0
  1  6  1  0
  2  3  1  0
  3  4  2  0
  5  4  1  0
  5  9  1  0
  6  5  2  0
  7  1  1  0
  8  7  2  0
  2 10  1  0
  3 11  1  0
  7 12  1  0
  9 13  1  0
M  ISO  4  10  14  11  14  12   6  13  11
M  END
>  <minimizedAffinity>  (1) 
-3.42158818

>  <minimizedRMSD>  (1) 
0.167254165

$$$$
