
     RDKit          3D

 42 46  0  0  0  0  0  0  0  0999 V2000
   47.3640   34.8460   42.6400 C   0  0  0  0  0  0  0  0  0  0  0  0
   46.2950   35.5950   42.1730 C   0  0  0  0  0  0  0  0  0  0  0  0
   45.0730   35.4280   42.8020 C   0  0  0  0  0  0  0  0  0  0  0  0
   44.9820   34.5510   43.8320 N   0  0  0  0  0  0  0  0  0  0  0  0
   46.0620   33.8310   44.2610 C   0  0  0  0  0  0  0  0  0  0  0  0
   47.2500   33.9830   43.6620 N   0  0  0  0  0  0  0  0  0  0  0  0
   46.0900   31.5420   45.0760 C   0  0  0  0  0  0  0  0  0  0  0  0
   45.9340   32.8950   45.3720 C   0  0  0  0  0  0  0  0  0  0  0  0
   45.6720   33.2740   46.6630 C   0  0  0  0  0  0  0  0  0  0  0  0
   45.5690   32.3130   47.6410 C   0  0  0  0  0  0  0  0  0  0  0  0
   45.3250   32.3890   48.9650 N   0  0  0  0  0  0  0  0  0  0  0  0
   45.3190   31.1680   49.5150 C   0  0  0  0  0  0  0  0  0  0  0  0
   45.5660   30.2460   48.5350 C   0  0  0  0  0  0  0  0  0  0  0  0
   45.7240   30.9630   47.3550 C   0  0  0  0  0  0  0  0  0  0  0  0
   45.9870   30.5750   46.0560 C   0  0  0  0  0  0  0  0  0  0  0  0
   48.6270   35.0600   41.9410 C   0  0  0  0  0  0  0  0  0  0  0  0
   49.2120   36.2020   41.8720 O   0  0  0  0  0  0  0  0  0  0  0  0
   49.0850   33.8010   41.3590 C   0  0  0  0  0  0  0  0  0  0  0  0
   49.8860   32.9120   42.0830 C   0  0  0  0  0  0  0  0  0  0  0  0
   50.3510   31.7070   41.6050 C   0  0  0  0  0  0  0  0  0  0  0  0
   50.0120   31.3360   40.3250 C   0  0  0  0  0  0  0  0  0  0  0  0
   49.2240   32.1710   39.5610 C   0  0  0  0  0  0  0  0  0  0  0  0
   48.9000   31.7730   38.2790 C   0  0  0  0  0  0  0  0  0  0  0  0
   48.1150   32.5690   37.4670 C   0  0  0  0  0  0  0  0  0  0  0  0
   47.6850   33.7600   38.0090 C   0  0  0  0  0  0  0  0  0  0  0  0
   48.0100   34.1540   39.2890 C   0  0  0  0  0  0  0  0  0  0  0  0
   48.7920   33.3630   40.1000 C   0  0  0  0  0  0  0  0  0  0  0  0
   46.4133   36.2961   41.3337 H   0  0  0  0  0  0  0  0  0  0  0  0
   44.1913   35.9969   42.4719 H   0  0  0  0  0  0  0  0  0  0  0  0
   46.2996   31.2382   44.0398 H   0  0  0  0  0  0  0  0  0  0  0  0
   45.5453   34.3374   46.9143 H   0  0  0  0  0  0  0  0  0  0  0  0
   45.1653   33.2654   49.4820 H   0  0  0  0  0  0  0  0  0  0  0  0
   45.1445   30.9438   50.5777 H   0  0  0  0  0  0  0  0  0  0  0  0
   45.6273   29.1545   48.6567 H   0  0  0  0  0  0  0  0  0  0  0  0
   46.1126   29.5112   45.8058 H   0  0  0  0  0  0  0  0  0  0  0  0
   50.1648   33.1958   43.1085 H   0  0  0  0  0  0  0  0  0  0  0  0
   50.9786   31.0568   42.2322 H   0  0  0  0  0  0  0  0  0  0  0  0
   50.3669   30.3797   39.9133 H   0  0  0  0  0  0  0  0  0  0  0  0
   49.2717   30.8098   37.8993 H   0  0  0  0  0  0  0  0  0  0  0  0
   47.8480   32.2679   36.4433 H   0  0  0  0  0  0  0  0  0  0  0  0
   47.0572   34.4231   37.3957 H   0  0  0  0  0  0  0  0  0  0  0  0
   47.6382   35.1170   39.6691 H   0  0  0  0  0  0  0  0  0  0  0  0
  1  6  1  0
  2  1  2  0
  2  3  1  0
  3  4  2  0
  4  5  1  0
  5  8  1  0
  6  5  2  0
  7  8  2  0
  7 15  1  0
  8  9  1  0
  9 10  2  0
 10 11  1  0
 11 12  1  0
 13 12  2  0
 14 10  1  0
 14 13  1  0
 15 14  2  0
 16  1  1  0
 17 16  2  0
 18 16  1  0
 18 19  2  0
 20 19  1  0
 21 20  2  0
 22 27  2  0
 22 21  1  0
 23 22  1  0
 24 25  1  0
 24 23  2  0
 25 26  2  0
 26 27  1  0
 27 18  1  0
  2 28  1  0
  3 29  1  0
  7 30  1  0
  9 31  1  0
 11 32  1  0
 12 33  1  0
 13 34  1  0
 15 35  1  0
 19 36  1  0
 20 37  1  0
 21 38  1  0
 23 39  1  0
 24 40  1  0
 25 41  1  0
 26 42  1  0
M  ISO  8  28  14  29  14  30  14  31  14  32   9  33  14  34  14  35  14
M  ISO  7  36  14  37  14  38  14  39  14  40  14  41  14  42  14
M  END
>  <minimizedAffinity>  (1) 
-6.88935518

>  <minimizedRMSD>  (1) 
2.02583671

$$$$
