
     RDKit          3D

 27 29  0  0  0  0  0  0  0  0999 V2000
   46.0500   31.7120   45.1420 C   0  0  0  0  0  0  0  0  0  0  0  0
   45.7840   33.0070   45.5350 C   0  0  0  0  0  0  0  0  0  0  0  0
   45.4980   33.2770   46.8620 C   0  0  0  0  0  0  0  0  0  0  0  0
   45.4820   32.2480   47.7790 C   0  0  0  0  0  0  0  0  0  0  0  0
   45.2480   32.1840   49.0910 N   0  0  0  0  0  0  0  0  0  0  0  0
   45.3490   30.9340   49.5510 C   0  0  0  0  0  0  0  0  0  0  0  0
   45.6690   30.1130   48.4820 C   0  0  0  0  0  0  0  0  0  0  0  0
   45.7540   30.9310   47.3700 C   0  0  0  0  0  0  0  0  0  0  0  0
   46.0360   30.6720   46.0530 C   0  0  0  0  0  0  0  0  0  0  0  0
   46.8180   34.9750   42.6490 C   0  0  0  0  0  0  0  0  0  0  0  0
   45.8990   36.0160   42.5910 C   0  0  0  0  0  0  0  0  0  0  0  0
   44.9090   36.0340   43.5660 C   0  0  0  0  0  0  0  0  0  0  0  0
   44.8930   35.0610   44.4980 N   0  0  0  0  0  0  0  0  0  0  0  0
   45.8170   34.0560   44.5160 C   0  0  0  0  0  0  0  0  0  0  0  0
   46.7890   34.0110   43.5860 N   0  0  0  0  0  0  0  0  0  0  0  0
   47.8310   34.9980   41.6120 C   0  0  0  0  0  0  0  0  0  0  0  0
   48.7960   35.8120   41.5420 O   0  0  0  0  0  0  0  0  0  0  0  0
   47.9460   34.1430   40.4990 O   0  0  0  0  0  0  0  0  0  0  0  0
   46.2771   31.5031   44.0862 H   0  0  0  0  0  0  0  0  0  0  0  0
   45.2846   34.3072   47.1831 H   0  0  0  0  0  0  0  0  0  0  0  0
   45.0176   32.9988   49.6774 H   0  0  0  0  0  0  0  0  0  0  0  0
   45.2039   30.6135   50.5932 H   0  0  0  0  0  0  0  0  0  0  0  0
   45.8248   29.0245   48.5117 H   0  0  0  0  0  0  0  0  0  0  0  0
   46.2495   29.6443   45.7239 H   0  0  0  0  0  0  0  0  0  0  0  0
   45.9528   36.7890   41.8103 H   0  0  0  0  0  0  0  0  0  0  0  0
   44.1501   36.8302   43.5768 H   0  0  0  0  0  0  0  0  0  0  0  0
   48.6901   34.2633   39.8572 H   0  0  0  0  0  0  0  0  0  0  0  0
  1  2  2  0
  1  9  1  0
  2  3  1  0
  3  4  2  0
  4  5  1  0
  5  6  1  0
  7  6  2  0
  8  4  1  0
  8  7  1  0
  9  8  2  0
 10 15  2  0
 11 10  1  0
 11 12  2  0
 12 13  1  0
 13 14  2  0
 14  2  1  0
 15 14  1  0
 16 10  1  0
 17 16  2  0
 18 16  1  0
  1 19  1  0
  3 20  1  0
  5 21  1  0
  6 22  1  0
  7 23  1  0
  9 24  1  0
 11 25  1  0
 12 26  1  0
 18 27  1  0
M  ISO  8  19  14  20  14  21   9  22  14  23  14  24  14  25  14  26  14
M  ISO  1  27   3
M  END
>  <minimizedAffinity>  (1) 
-5.40009737

>  <minimizedRMSD>  (1) 
0.075346157

$$$$
