
     RDKit          3D

 32 34  0  0  0  0  0  0  0  0999 V2000
   47.1350   34.8710   42.6360 C   0  0  0  0  0  0  0  0  0  0  0  0
   46.1510   35.8400   42.4110 C   0  0  0  0  0  0  0  0  0  0  0  0
   45.0340   35.8180   43.2460 C   0  0  0  0  0  0  0  0  0  0  0  0
   44.9650   34.8760   44.2130 N   0  0  0  0  0  0  0  0  0  0  0  0
   45.9440   33.9490   44.4010 C   0  0  0  0  0  0  0  0  0  0  0  0
   47.0250   33.9560   43.6070 N   0  0  0  0  0  0  0  0  0  0  0  0
   46.0510   31.6170   45.1030 C   0  0  0  0  0  0  0  0  0  0  0  0
   45.8560   32.9360   45.4500 C   0  0  0  0  0  0  0  0  0  0  0  0
   45.5840   33.2730   46.7680 C   0  0  0  0  0  0  0  0  0  0  0  0
   45.5160   32.2610   47.7110 C   0  0  0  0  0  0  0  0  0  0  0  0
   45.2780   32.2550   49.0290 N   0  0  0  0  0  0  0  0  0  0  0  0
   45.3130   31.0160   49.5280 C   0  0  0  0  0  0  0  0  0  0  0  0
   45.5870   30.1480   48.4930 C   0  0  0  0  0  0  0  0  0  0  0  0
   45.7130   30.9310   47.3630 C   0  0  0  0  0  0  0  0  0  0  0  0
   45.9820   30.6180   46.0410 C   0  0  0  0  0  0  0  0  0  0  0  0
   48.2560   34.9560   41.7370 C   0  0  0  0  0  0  0  0  0  0  0  0
   49.0300   35.9590   41.5980 O   0  0  0  0  0  0  0  0  0  0  0  0
   48.6190   33.8960   40.8950 O   0  0  0  0  0  0  0  0  0  0  0  0
   48.2160   32.3030   38.8200 O   0  0  0  0  0  0  0  0  0  0  0  0
   47.9980   33.7270   39.3000 P   0  0  0  0  0  0  0  0  0  0  0  0
   48.7240   34.8570   38.2970 O   0  0  0  0  0  0  0  0  0  0  0  0
   46.3020   33.9490   39.2930 O   0  0  0  0  0  0  0  0  0  0  0  0
   46.2539   36.5870   41.6101 H   0  0  0  0  0  0  0  0  0  0  0  0
   44.2251   36.5528   43.1201 H   0  0  0  0  0  0  0  0  0  0  0  0
   46.2659   31.3602   44.0552 H   0  0  0  0  0  0  0  0  0  0  0  0
   45.4256   34.3222   47.0580 H   0  0  0  0  0  0  0  0  0  0  0  0
   45.0913   33.0998   49.5880 H   0  0  0  0  0  0  0  0  0  0  0  0
   45.1515   30.7377   50.5799 H   0  0  0  0  0  0  0  0  0  0  0  0
   45.6853   29.0541   48.5548 H   0  0  0  0  0  0  0  0  0  0  0  0
   46.1400   29.5708   45.7436 H   0  0  0  0  0  0  0  0  0  0  0  0
   49.1688   35.5493   38.8474 H   0  0  0  0  0  0  0  0  0  0  0  0
   45.9710   33.9923   40.2250 H   0  0  0  0  0  0  0  0  0  0  0  0
  1  6  2  0
  2  1  1  0
  2  3  2  0
  3  4  1  0
  4  5  2  0
  5  8  1  0
  6  5  1  0
  7  8  2  0
  7 15  1  0
  8  9  1  0
  9 10  2  0
 10 11  1  0
 11 12  1  0
 13 12  2  0
 14 10  1  0
 14 13  1  0
 15 14  2  0
 16  1  1  0
 17 16  2  0
 18 16  1  0
 19 20  2  0
 20 18  1  0
 21 20  1  0
 22 20  1  0
  2 23  1  0
  3 24  1  0
  7 25  1  0
  9 26  1  0
 11 27  1  0
 12 28  1  0
 13 29  1  0
 15 30  1  0
 21 31  1  0
 22 32  1  0
M  ISO  8  23  14  24  14  25  14  26  14  27   9  28  14  29  14  30  14
M  ISO  2  31   3  32   3
M  END
>  <minimizedAffinity>  (1) 
-6.04597807

>  <minimizedRMSD>  (1) 
0.639037609

$$$$
