
     RDKit          3D

 27 29  0  0  0  0  0  0  0  0999 V2000
   46.7210   34.6650   42.2200 C   0  0  0  0  0  0  0  0  0  0  0  0
   47.9240   35.3590   42.1460 C   0  0  0  0  0  0  0  0  0  0  0  0
   48.6790   35.3740   40.9700 C   0  0  0  0  0  0  0  0  0  0  0  0
   48.2180   34.6800   39.8530 C   0  0  0  0  0  0  0  0  0  0  0  0
   47.0240   33.9880   39.9150 C   0  0  0  0  0  0  0  0  0  0  0  0
   46.5170   33.2790   38.8340 C   0  0  0  0  0  0  0  0  0  0  0  0
   45.3370   32.6040   38.9240 C   0  0  0  0  0  0  0  0  0  0  0  0
   44.6140   32.6130   40.1100 C   0  0  0  0  0  0  0  0  0  0  0  0
   45.1320   33.3220   41.1770 C   0  0  0  0  0  0  0  0  0  0  0  0
   46.3120   33.9980   41.0870 C   0  0  0  0  0  0  0  0  0  0  0  0
   44.4650   35.7940   44.9460 C   0  0  0  0  0  0  0  0  0  0  0  0
   45.1180   35.7510   43.7070 C   0  0  0  0  0  0  0  0  0  0  0  0
   46.0370   34.7290   43.4950 C   0  0  0  0  0  0  0  0  0  0  0  0
   46.2610   33.8330   44.4760 N   0  0  0  0  0  0  0  0  0  0  0  0
   45.6160   33.8970   45.6670 C   0  0  0  0  0  0  0  0  0  0  0  0
   44.7120   34.8860   45.9010 N   0  0  0  0  0  0  0  0  0  0  0  0
   44.9030   36.6560   42.6930 O   0  0  0  0  0  0  0  0  0  0  0  0
   48.2876   35.9057   43.0286 H   0  0  0  0  0  0  0  0  0  0  0  0
   49.6281   35.9284   40.9265 H   0  0  0  0  0  0  0  0  0  0  0  0
   48.8045   34.6832   38.9224 H   0  0  0  0  0  0  0  0  0  0  0  0
   47.0782   33.2621   37.8881 H   0  0  0  0  0  0  0  0  0  0  0  0
   44.9553   32.0496   38.0539 H   0  0  0  0  0  0  0  0  0  0  0  0
   43.6596   32.0730   40.1971 H   0  0  0  0  0  0  0  0  0  0  0  0
   44.5761   33.3413   42.1260 H   0  0  0  0  0  0  0  0  0  0  0  0
   43.7325   36.5915   45.1397 H   0  0  0  0  0  0  0  0  0  0  0  0
   45.8242   33.1479   46.4452 H   0  0  0  0  0  0  0  0  0  0  0  0
   45.3976   36.5701   41.8397 H   0  0  0  0  0  0  0  0  0  0  0  0
  1 13  1  0
  2  1  2  0
  3  2  1  0
  4  5  1  0
  4  3  2  0
  5 10  2  0
  6  7  2  0
  6  5  1  0
  7  8  1  0
  8  9  2  0
 10  9  1  0
 10  1  1  0
 11 16  2  0
 12 11  1  0
 13 12  2  0
 13 14  1  0
 14 15  2  0
 15 16  1  0
 17 12  1  0
  2 18  1  0
  3 19  1  0
  4 20  1  0
  6 21  1  0
  7 22  1  0
  8 23  1  0
  9 24  1  0
 11 25  1  0
 15 26  1  0
 17 27  1  0
M  ISO  8  18  14  19  14  20  14  21  14  22  14  23  14  24  14  25  14
M  ISO  2  26  14  27   3
M  END
>  <minimizedAffinity>  (1) 
-5.83758879

>  <minimizedRMSD>  (1) 
0.796331644

$$$$
