
     RDKit          3D

 26 28  0  0  0  0  0  0  0  0999 V2000
   46.7660   34.7270   42.2410 C   0  0  0  0  0  0  0  0  0  0  0  0
   47.9700   35.2990   41.9240 C   0  0  0  0  0  0  0  0  0  0  0  0
   48.5020   35.1570   40.6610 C   0  0  0  0  0  0  0  0  0  0  0  0
   47.8650   34.4470   39.6650 C   0  0  0  0  0  0  0  0  0  0  0  0
   48.3740   34.3040   38.4360 N   0  0  0  0  0  0  0  0  0  0  0  0
   47.6950   33.5990   37.5240 C   0  0  0  0  0  0  0  0  0  0  0  0
   46.4770   32.9840   37.7400 C   0  0  0  0  0  0  0  0  0  0  0  0
   45.9650   33.1390   39.0110 C   0  0  0  0  0  0  0  0  0  0  0  0
   46.6400   33.8630   39.9840 C   0  0  0  0  0  0  0  0  0  0  0  0
   46.1020   34.0020   41.2450 C   0  0  0  0  0  0  0  0  0  0  0  0
   44.4890   35.6640   45.0960 C   0  0  0  0  0  0  0  0  0  0  0  0
   45.1040   35.7490   43.8260 C   0  0  0  0  0  0  0  0  0  0  0  0
   46.0490   34.7670   43.5150 C   0  0  0  0  0  0  0  0  0  0  0  0
   46.3230   33.8030   44.4230 N   0  0  0  0  0  0  0  0  0  0  0  0
   45.7090   33.7570   45.6320 C   0  0  0  0  0  0  0  0  0  0  0  0
   44.7980   34.6930   45.9520 N   0  0  0  0  0  0  0  0  0  0  0  0
   44.8420   36.7190   42.8850 O   0  0  0  0  0  0  0  0  0  0  0  0
   48.5165   35.8764   42.6842 H   0  0  0  0  0  0  0  0  0  0  0  0
   49.4711   35.6276   40.4388 H   0  0  0  0  0  0  0  0  0  0  0  0
   48.1417   33.5014   36.5235 H   0  0  0  0  0  0  0  0  0  0  0  0
   45.9551   32.4138   36.9574 H   0  0  0  0  0  0  0  0  0  0  0  0
   44.9980   32.6776   39.2598 H   0  0  0  0  0  0  0  0  0  0  0  0
   45.1327   33.5345   41.4729 H   0  0  0  0  0  0  0  0  0  0  0  0
   43.7393   36.4162   45.3827 H   0  0  0  0  0  0  0  0  0  0  0  0
   45.9552   32.9580   46.3469 H   0  0  0  0  0  0  0  0  0  0  0  0
   45.3175   36.7076   42.0167 H   0  0  0  0  0  0  0  0  0  0  0  0
  1 13  1  0
  2  1  2  0
  3  2  1  0
  4  9  1  0
  4  3  2  0
  5  4  1  0
  6  7  1  0
  6  5  2  0
  7  8  2  0
  8  9  1  0
  9 10  2  0
 10  1  1  0
 11 16  2  0
 12 11  1  0
 13 12  2  0
 13 14  1  0
 14 15  2  0
 15 16  1  0
 17 12  1  0
  2 18  1  0
  3 19  1  0
  6 20  1  0
  7 21  1  0
  8 22  1  0
 10 23  1  0
 11 24  1  0
 15 25  1  0
 17 26  1  0
M  ISO  8  18  14  19  14  20  14  21  14  22  14  23  14  24  14  25  14
M  ISO  1  26   3
M  END
>  <minimizedAffinity>  (1) 
-5.99625254

>  <minimizedRMSD>  (1) 
1.02590275

$$$$
