
     RDKit          3D

 21 22  0  0  0  0  0  0  0  0999 V2000
   44.4710   35.7270   45.0220 C   0  0  0  0  0  0  0  0  0  0  0  0
   45.0670   35.7370   43.7370 C   0  0  0  0  0  0  0  0  0  0  0  0
   45.9900   34.7290   43.4630 C   0  0  0  0  0  0  0  0  0  0  0  0
   46.2790   33.8050   44.3960 N   0  0  0  0  0  0  0  0  0  0  0  0
   45.6840   33.8260   45.6260 C   0  0  0  0  0  0  0  0  0  0  0  0
   44.7860   34.7930   45.9170 N   0  0  0  0  0  0  0  0  0  0  0  0
   46.6730   34.6380   42.1630 C   0  0  0  0  0  0  0  0  0  0  0  0
   46.2660   33.9810   41.0330 C   0  0  0  0  0  0  0  0  0  0  0  0
   47.0500   34.0100   39.9020 C   0  0  0  0  0  0  0  0  0  0  0  0
   48.2480   34.6950   39.8870 C   0  0  0  0  0  0  0  0  0  0  0  0
   48.6690   35.3580   41.0130 C   0  0  0  0  0  0  0  0  0  0  0  0
   47.8840   35.3370   42.1690 C   0  0  0  0  0  0  0  0  0  0  0  0
   44.7780   36.6880   42.7630 O   0  0  0  0  0  0  0  0  0  0  0  0
   43.7367   36.5028   45.2844 H   0  0  0  0  0  0  0  0  0  0  0  0
   45.9346   33.0602   46.3749 H   0  0  0  0  0  0  0  0  0  0  0  0
   45.3136   33.4306   41.0289 H   0  0  0  0  0  0  0  0  0  0  0  0
   46.7170   33.4798   38.9975 H   0  0  0  0  0  0  0  0  0  0  0  0
   48.8637   34.7097   38.9756 H   0  0  0  0  0  0  0  0  0  0  0  0
   49.6232   35.9052   41.0053 H   0  0  0  0  0  0  0  0  0  0  0  0
   48.2156   35.8653   43.0750 H   0  0  0  0  0  0  0  0  0  0  0  0
   45.2259   36.6453   41.8812 H   0  0  0  0  0  0  0  0  0  0  0  0
  1  6  2  0
  2  1  1  0
  3  2  2  0
  3  4  1  0
  4  5  2  0
  5  6  1  0
  7 12  1  0
  7  3  1  0
  8  7  2  0
  9  8  1  0
 10  9  2  0
 10 11  1  0
 11 12  2  0
 13  2  1  0
  1 14  1  0
  5 15  1  0
  8 16  1  0
  9 17  1  0
 10 18  1  0
 11 19  1  0
 12 20  1  0
 13 21  1  0
M  ISO  8  14  14  15  14  16  14  17  14  18  14  19  14  20  14  21   3
M  END
>  <minimizedAffinity>  (1) 
-5.2867794

>  <minimizedRMSD>  (1) 
0.745695412

$$$$
