
     RDKit          3D

 15 15  0  0  0  0  0  0  0  0999 V2000
   44.6130   35.6010   45.1290 C   0  0  0  0  0  0  0  0  0  0  0  0
   45.0440   35.7640   43.7930 C   0  0  0  0  0  0  0  0  0  0  0  0
   45.8810   34.7450   43.2940 C   0  0  0  0  0  0  0  0  0  0  0  0
   46.2210   33.7040   44.0750 N   0  0  0  0  0  0  0  0  0  0  0  0
   45.7810   33.5910   45.3550 C   0  0  0  0  0  0  0  0  0  0  0  0
   44.9750   34.5540   45.8620 N   0  0  0  0  0  0  0  0  0  0  0  0
   47.7720   34.9550   41.7260 C   0  0  0  0  0  0  0  0  0  0  0  0
   48.6020   34.9900   42.6710 O   0  0  0  0  0  0  0  0  0  0  0  0
   46.3610   34.8310   41.9570 N   0  0  0  0  0  0  0  0  0  0  0  0
   44.7070   36.8240   42.9810 O   0  0  0  0  0  0  0  0  0  0  0  0
   43.9582   36.3639   45.5752 H   0  0  0  0  0  0  0  0  0  0  0  0
   46.0754   32.7289   45.9715 H   0  0  0  0  0  0  0  0  0  0  0  0
   48.1391   35.0215   40.6912 H   0  0  0  0  0  0  0  0  0  0  0  0
   45.7035   34.8046   41.1646 H   0  0  0  0  0  0  0  0  0  0  0  0
   45.0507   36.8659   42.0535 H   0  0  0  0  0  0  0  0  0  0  0  0
  1  6  2  0
  2  1  1  0
  3  2  2  0
  3  4  1  0
  4  5  2  0
  5  6  1  0
  7  9  1  0
  7  8  2  0
  9  3  1  0
 10  2  1  0
  1 11  1  0
  5 12  1  0
  7 13  1  0
  9 14  1  0
 10 15  1  0
M  ISO  4  11  14  12  14  13   6  15   3
M  END
>  <minimizedAffinity>  (1) 
-3.64544678

>  <minimizedRMSD>  (1) 
0.51927191

$$$$
