
     RDKit          3D

 27 30  0  0  1  0  0  0  0  0999 V2000
   44.9310   34.2870   41.0530 C   0  0  1  0  0  0  0  0  0  0  0  0
   46.1520   34.1090   40.3190 C   0  0  2  0  0  0  0  0  0  0  0  0
   45.2040   32.9840   40.4750 C   0  0  0  0  0  0  0  0  0  0  0  0
   44.7640   35.8360   42.9280 C   0  0  0  0  0  0  0  0  0  0  0  0
   44.9920   34.5380   42.4980 C   0  0  0  0  0  0  0  0  0  0  0  0
   45.2160   33.5060   43.4210 C   0  0  0  0  0  0  0  0  0  0  0  0
   45.1910   33.8730   44.7440 N   0  0  0  0  0  0  0  0  0  0  0  0
   44.9680   35.1330   45.1570 C   0  0  0  0  0  0  0  0  0  0  0  0
   44.7540   36.1160   44.2380 N   0  0  0  0  0  0  0  0  0  0  0  0
   47.4710   33.8430   40.9230 C   0  0  1  0  0  0  0  0  0  0  0  0
   48.4400   33.9780   40.1530 O   0  0  0  0  0  0  0  0  0  0  0  0
   48.7570   34.1540   41.5480 C   0  0  2  0  0  0  0  0  0  0  0  0
   49.2120   33.0590   42.5100 C   0  0  0  0  0  0  0  0  0  0  0  0
   49.0730   34.4210   42.9350 C   0  0  1  0  0  0  0  0  0  0  0  0
   50.2110   35.2020   43.1550 O   0  0  0  0  0  0  0  0  0  0  0  0
   44.0682   34.9666   40.9932 H   0  0  0  0  0  0  0  0  0  0  0  0
   46.6077   34.7325   39.5357 H   0  0  0  0  0  0  0  0  0  0  0  0
   44.6211   32.6275   39.6129 H   0  0  0  0  0  0  0  0  0  0  0  0
   45.2637   31.9532   40.8543 H   0  0  0  0  0  0  0  0  0  0  0  0
   44.5912   36.6363   42.1933 H   0  0  0  0  0  0  0  0  0  0  0  0
   45.4000   32.4685   43.1052 H   0  0  0  0  0  0  0  0  0  0  0  0
   44.9584   35.3690   46.2313 H   0  0  0  0  0  0  0  0  0  0  0  0
   46.7031   33.3384   41.5278 H   0  0  0  0  0  0  0  0  0  0  0  0
   48.5006   32.2949   42.8565 H   0  0  0  0  0  0  0  0  0  0  0  0
   50.0160   32.3084   42.5243 H   0  0  0  0  0  0  0  0  0  0  0  0
   48.5362   34.8671   43.7852 H   0  0  0  0  0  0  0  0  0  0  0  0
   50.3586   35.3033   44.1287 H   0  0  0  0  0  0  0  0  0  0  0  0
  1  5  1  0
  2  3  1  0
  2 10  1  0
  2  1  1  0
  3  1  1  0
  4  9  2  0
  5  4  1  0
  5  6  2  0
  6  7  1  0
  7  8  2  0
  9  8  1  0
 10 12  1  0
 11 10  1  0
 12 11  1  6
 12 13  1  0
 12 14  1  0
 13 14  1  0
 14 15  1  0
  1 16  1  6
  2 17  1  6
  3 18  1  0
  3 19  1  0
  4 20  1  0
  6 21  1  0
  8 22  1  0
 10 23  1  1
 13 24  1  0
 13 25  1  0
 14 26  1  1
 15 27  1  0
M  ISO  8  16  13  17  13  18  13  19  13  20  14  21  14  22  14  23  13
M  ISO  4  24  13  25  13  26  13  27   3
M  END
>  <minimizedAffinity>  (1) 
-4.75636625

>  <minimizedRMSD>  (1) 
0.67669338

$$$$
