
     RDKit          3D

 17 17  0  0  0  0  0  0  0  0999 V2000
   45.0190   35.8420   43.7140 C   0  0  0  0  0  0  0  0  0  0  0  0
   45.9180   34.8970   43.2060 C   0  0  0  0  0  0  0  0  0  0  0  0
   46.2850   33.8390   44.0860 C   0  0  0  0  0  0  0  0  0  0  0  0
   45.7540   33.8210   45.3260 N   0  0  0  0  0  0  0  0  0  0  0  0
   44.8900   34.7600   45.7650 C   0  0  0  0  0  0  0  0  0  0  0  0
   44.5290   35.7580   44.9660 N   0  0  0  0  0  0  0  0  0  0  0  0
   44.6650   36.8660   42.8560 O   0  0  0  0  0  0  0  0  0  0  0  0
   46.5270   34.8830   41.8830 C   0  0  0  0  0  0  0  0  0  0  0  0
   48.0120   35.2520   41.9610 C   0  0  0  0  0  0  0  0  0  0  0  0
   46.9851   33.0548   43.7621 H   0  0  0  0  0  0  0  0  0  0  0  0
   44.4842   34.6990   46.7856 H   0  0  0  0  0  0  0  0  0  0  0  0
   45.0432   36.8988   41.9417 H   0  0  0  0  0  0  0  0  0  0  0  0
   46.0086   35.6096   41.2401 H   0  0  0  0  0  0  0  0  0  0  0  0
   46.4382   33.8691   41.4658 H   0  0  0  0  0  0  0  0  0  0  0  0
   48.3161   35.3276   43.0154 H   0  0  0  0  0  0  0  0  0  0  0  0
   48.6096   34.4750   41.4618 H   0  0  0  0  0  0  0  0  0  0  0  0
   48.1764   36.2183   41.4618 H   0  0  0  0  0  0  0  0  0  0  0  0
  1  6  2  0
  2  1  1  0
  2  3  2  0
  3  4  1  0
  4  5  2  0
  6  5  1  0
  7  1  1  0
  8  9  1  0
  8  2  1  0
  3 10  1  0
  5 11  1  0
  7 12  1  0
  8 13  1  0
  8 14  1  0
  9 15  1  0
  9 16  1  0
  9 17  1  0
M  ISO  8  10  14  11  14  12   3  13   8  14   8  15   8  16   8  17   8
M  END
>  <minimizedAffinity>  (1) 
-3.72044849

>  <minimizedRMSD>  (1) 
0.96215719

$$$$
