
     RDKit          3D

 36 40  0  0  1  0  0  0  0  0999 V2000
   45.8700   32.6950   38.1300 C   0  0  1  0  0  0  0  0  0  0  0  0
   46.5430   33.6310   37.6550 O   0  0  0  0  0  0  0  0  0  0  0  0
   47.0330   33.1180   38.9100 C   0  0  2  0  0  0  0  0  0  0  0  0
   48.0580   31.9950   39.0670 C   0  0  0  0  0  0  0  0  0  0  0  0
   47.4930   32.6550   40.2030 C   0  0  1  0  0  0  0  0  0  0  0  0
   48.3600   33.5850   40.9740 C   0  0  0  0  0  0  0  0  0  0  0  0
   49.2810   33.0190   41.8130 C   0  0  0  0  0  0  0  0  0  0  0  0
   50.0880   33.9030   42.5320 C   0  0  0  0  0  0  0  0  0  0  0  0
   49.9270   35.2560   42.3700 C   0  0  0  0  0  0  0  0  0  0  0  0
   48.9890   35.8170   41.5180 C   0  0  0  0  0  0  0  0  0  0  0  0
   48.1880   34.9430   40.8040 C   0  0  0  0  0  0  0  0  0  0  0  0
   43.3340   32.9100   38.5570 C   0  0  1  0  0  0  0  0  0  0  0  0
   44.4580   32.6640   37.6980 C   0  0  2  0  0  0  0  0  0  0  0  0
   43.7010   31.5340   38.2730 C   0  0  0  0  0  0  0  0  0  0  0  0
   43.3690   34.9060   39.9600 C   0  0  0  0  0  0  0  0  0  0  0  0
   43.5490   33.5330   39.8670 C   0  0  0  0  0  0  0  0  0  0  0  0
   43.8750   32.7680   41.0000 C   0  0  0  0  0  0  0  0  0  0  0  0
   43.9980   33.4700   42.1790 N   0  0  0  0  0  0  0  0  0  0  0  0
   43.8220   34.7920   42.2570 C   0  0  0  0  0  0  0  0  0  0  0  0
   43.5060   35.5180   41.1480 N   0  0  0  0  0  0  0  0  0  0  0  0
   45.4899   31.6724   38.2708 H   0  0  0  0  0  0  0  0  0  0  0  0
   47.7812   30.9559   38.8355 H   0  0  0  0  0  0  0  0  0  0  0  0
   49.0750   31.8008   38.6955 H   0  0  0  0  0  0  0  0  0  0  0  0
   46.9837   32.2821   41.1039 H   0  0  0  0  0  0  0  0  0  0  0  0
   49.3801   31.9283   41.9153 H   0  0  0  0  0  0  0  0  0  0  0  0
   50.8495   33.5164   43.2253 H   0  0  0  0  0  0  0  0  0  0  0  0
   50.5766   35.9308   42.9467 H   0  0  0  0  0  0  0  0  0  0  0  0
   48.8858   36.9072   41.4140 H   0  0  0  0  0  0  0  0  0  0  0  0
   47.4248   35.3259   40.1106 H   0  0  0  0  0  0  0  0  0  0  0  0
   42.3879   33.4655   38.4774 H   0  0  0  0  0  0  0  0  0  0  0  0
   44.7167   33.1007   36.7221 H   0  0  0  0  0  0  0  0  0  0  0  0
   43.0612   30.9119   37.6298 H   0  0  0  0  0  0  0  0  0  0  0  0
   43.9496   30.6473   38.8747 H   0  0  0  0  0  0  0  0  0  0  0  0
   43.1150   35.4912   39.0639 H   0  0  0  0  0  0  0  0  0  0  0  0
   44.0224   31.6791   40.9487 H   0  0  0  0  0  0  0  0  0  0  0  0
   43.9333   35.2997   43.2265 H   0  0  0  0  0  0  0  0  0  0  0  0
  1  3  1  0
  2  1  1  0
  3  2  1  6
  3  4  1  0
  3  5  1  0
  4  5  1  0
  5  6  1  0
  6  7  2  0
  7  8  1  0
  9  8  2  0
 10  9  1  0
 11  6  1  0
 11 10  2  0
 12 16  1  0
 13  1  1  0
 13 14  1  0
 13 12  1  0
 14 12  1  0
 15 20  2  0
 16 15  1  0
 16 17  2  0
 17 18  1  0
 18 19  2  0
 20 19  1  0
  1 21  1  6
  4 22  1  0
  4 23  1  0
  5 24  1  1
  7 25  1  0
  8 26  1  0
  9 27  1  0
 10 28  1  0
 11 29  1  0
 12 30  1  6
 13 31  1  6
 14 32  1  0
 14 33  1  0
 15 34  1  0
 17 35  1  0
 19 36  1  0
M  ISO  8  21  13  22  13  23  13  24  13  25  14  26  14  27  14  28  14
M  ISO  8  29  14  30  13  31  13  32  13  33  13  34  14  35  14  36  14
M  END
>  <minimizedAffinity>  (1) 
-4.75233698

>  <minimizedRMSD>  (1) 
3.58083272

$$$$
