
     RDKit          3D

 12 12  0  0  0  0  0  0  0  0999 V2000
   45.0440   35.7430   43.8380 C   0  0  0  0  0  0  0  0  0  0  0  0
   45.9670   34.7490   43.4760 C   0  0  0  0  0  0  0  0  0  0  0  0
   46.2590   33.7570   44.4210 C   0  0  0  0  0  0  0  0  0  0  0  0
   45.6410   33.8060   45.6280 N   0  0  0  0  0  0  0  0  0  0  0  0
   44.7640   34.7760   45.9290 C   0  0  0  0  0  0  0  0  0  0  0  0
   44.4610   35.7400   45.0530 N   0  0  0  0  0  0  0  0  0  0  0  0
   44.7660   36.7030   42.9100 O   0  0  0  0  0  0  0  0  0  0  0  0
   46.7140   34.7820   41.8730 S   0  0  0  0  0  0  0  0  0  0  0  0
   46.9748   32.9546   44.1893 H   0  0  0  0  0  0  0  0  0  0  0  0
   44.2835   34.7783   46.9185 H   0  0  0  0  0  0  0  0  0  0  0  0
   45.2098   36.6796   42.0254 H   0  0  0  0  0  0  0  0  0  0  0  0
   48.0763   34.8422   42.0052 H   0  0  0  0  0  0  0  0  0  0  0  0
  1  6  2  0
  2  1  1  0
  2  3  2  0
  3  4  1  0
  4  5  2  0
  6  5  1  0
  7  1  1  0
  8  2  1  0
  3  9  1  0
  5 10  1  0
  7 11  1  0
  8 12  1  0
M  ISO  4   9  14  10  14  11   3  12  11
M  END
>  <minimizedAffinity>  (1) 
-3.18475461

>  <minimizedRMSD>  (1) 
0.847681761

$$$$
