
     RDKit          3D

 20 20  0  0  0  0  0  0  0  0999 V2000
   48.2190   33.2740   40.7490 C   0  0  0  0  0  0  0  0  0  0  0  0
   49.0730   34.1040   41.5080 C   0  0  0  0  0  0  0  0  0  0  0  0
   50.0990   33.4900   42.2560 C   0  0  0  0  0  0  0  0  0  0  0  0
   50.2070   32.1260   42.2030 N   0  0  0  0  0  0  0  0  0  0  0  0
   49.3770   31.3810   41.4710 C   0  0  0  0  0  0  0  0  0  0  0  0
   48.3870   31.9420   40.7460 N   0  0  0  0  0  0  0  0  0  0  0  0
   48.8630   35.5750   41.4920 C   0  0  0  0  0  0  0  0  0  0  0  0
   48.8820   36.0250   40.1610 F   0  0  0  0  0  0  0  0  0  0  0  0
   47.6040   35.8360   41.9730 F   0  0  0  0  0  0  0  0  0  0  0  0
   49.8030   36.2830   42.1600 F   0  0  0  0  0  0  0  0  0  0  0  0
   47.2430   33.8860   40.0400 O   0  0  0  0  0  0  0  0  0  0  0  0
   45.9350   33.3320   40.0420 C   0  0  0  0  0  0  0  0  0  0  0  0
   45.0430   34.1800   40.9010 C   0  0  0  0  0  0  0  0  0  0  0  0
   50.7923   34.0894   42.8643 H   0  0  0  0  0  0  0  0  0  0  0  0
   49.5022   30.2882   41.4583 H   0  0  0  0  0  0  0  0  0  0  0  0
   45.5432   33.3091   39.0144 H   0  0  0  0  0  0  0  0  0  0  0  0
   45.9675   32.3072   40.4405 H   0  0  0  0  0  0  0  0  0  0  0  0
   45.2553   33.9782   41.9613 H   0  0  0  0  0  0  0  0  0  0  0  0
   45.2288   35.2426   40.6856 H   0  0  0  0  0  0  0  0  0  0  0  0
   43.9912   33.9407   40.6856 H   0  0  0  0  0  0  0  0  0  0  0  0
  1  2  2  0
  2  3  1  0
  4  3  2  0
  5  4  1  0
  6  1  1  0
  6  5  2  0
  7  2  1  0
  7  9  1  0
  7 10  1  0
  8  7  1  0
 11 12  1  0
 11  1  1  0
 12 13  1  0
  3 14  1  0
  5 15  1  0
 12 16  1  0
 12 17  1  0
 13 18  1  0
 13 19  1  0
 13 20  1  0
M  ISO  7  14  14  15  14  16   8  17   8  18   8  19   8  20   8
M  END
>  <minimizedAffinity>  (1) 
-3.74013519

>  <minimizedRMSD>  (1) 
5.13622284

$$$$
