
     RDKit          3D

 24 25  0  0  0  0  0  0  0  0999 V2000
   46.7280   33.7520   43.6480 C   0  0  0  0  0  0  0  0  0  0  0  0
   45.6490   34.5970   43.9460 C   0  0  0  0  0  0  0  0  0  0  0  0
   45.0940   34.5220   45.2250 C   0  0  0  0  0  0  0  0  0  0  0  0
   45.6180   33.6430   46.1180 N   0  0  0  0  0  0  0  0  0  0  0  0
   46.6570   32.8510   45.7820 C   0  0  0  0  0  0  0  0  0  0  0  0
   47.2150   32.8950   44.5650 N   0  0  0  0  0  0  0  0  0  0  0  0
   47.0980   31.9640   46.8540 C   0  0  0  0  0  0  0  0  0  0  0  0
   47.1590   30.5830   46.9170 C   0  0  0  0  0  0  0  0  0  0  0  0
   47.6500   30.2960   48.1570 N   0  0  0  0  0  0  0  0  0  0  0  0
   47.8900   31.4220   48.8430 C   0  0  0  0  0  0  0  0  0  0  0  0
   47.5490   32.4690   48.0390 N   0  0  0  0  0  0  0  0  0  0  0  0
   45.1400   35.5320   42.9000 C   0  0  0  0  0  0  0  0  0  0  0  0
   45.9900   36.6330   42.8090 F   0  0  0  0  0  0  0  0  0  0  0  0
   45.1980   34.8820   41.6800 F   0  0  0  0  0  0  0  0  0  0  0  0
   43.8850   35.9890   43.1220 F   0  0  0  0  0  0  0  0  0  0  0  0
   47.2550   33.8320   42.4130 O   0  0  0  0  0  0  0  0  0  0  0  0
   48.4760   34.4100   42.0340 C   0  0  0  0  0  0  0  0  0  0  0  0
   49.0650   34.9170   43.2060 F   0  0  0  0  0  0  0  0  0  0  0  0
   49.2580   33.4690   41.4180 F   0  0  0  0  0  0  0  0  0  0  0  0
   48.2520   35.5250   41.2430 F   0  0  0  0  0  0  0  0  0  0  0  0
   44.2461   35.1644   45.5049 H   0  0  0  0  0  0  0  0  0  0  0  0
   46.8720   29.8674   46.1325 H   0  0  0  0  0  0  0  0  0  0  0  0
   47.8137   29.3448   48.5165 H   0  0  0  0  0  0  0  0  0  0  0  0
   48.2886   31.4891   49.8660 H   0  0  0  0  0  0  0  0  0  0  0  0
  1  2  2  0
  1  6  1  0
  2  3  1  0
  3  4  2  0
  5  4  1  0
  5  7  1  0
  6  5  2  0
  7  8  2  0
  7 11  1  0
  8  9  1  0
  9 10  1  0
 11 10  2  0
 12 15  1  0
 12  2  1  0
 13 12  1  0
 14 12  1  0
 16  1  1  0
 17 16  1  0
 17 18  1  0
 19 17  1  0
 20 17  1  0
  3 21  1  0
  8 22  1  0
  9 23  1  0
 10 24  1  0
M  ISO  4  21  14  22  14  23   9  24  14
M  END
>  <minimizedAffinity>  (1) 
-5.23930883

>  <minimizedRMSD>  (1) 
1.54079199

$$$$
