
     RDKit          3D

 28 29  0  0  1  0  0  0  0  0999 V2000
   46.7710   33.7210   43.5540 C   0  0  0  0  0  0  0  0  0  0  0  0
   45.7400   34.5990   43.8510 C   0  0  0  0  0  0  0  0  0  0  0  0
   45.1520   34.5140   45.1330 C   0  0  0  0  0  0  0  0  0  0  0  0
   45.6220   33.5870   46.0010 N   0  0  0  0  0  0  0  0  0  0  0  0
   46.6320   32.7480   45.6670 C   0  0  0  0  0  0  0  0  0  0  0  0
   47.1970   32.8180   44.4580 N   0  0  0  0  0  0  0  0  0  0  0  0
   47.0690   31.7830   46.6690 C   0  0  2  0  0  0  0  0  0  0  0  0
   45.9840   30.8470   47.1640 C   0  0  0  0  0  0  0  0  0  0  0  0
   46.6680   30.3970   48.4440 C   0  0  0  0  0  0  0  0  0  0  0  0
   47.0010   31.6460   49.0080 O   0  0  0  0  0  0  0  0  0  0  0  0
   47.4850   32.4180   47.9790 C   0  0  0  0  0  0  0  0  0  0  0  0
   45.2910   35.5830   42.8360 C   0  0  0  0  0  0  0  0  0  0  0  0
   46.2130   36.6140   42.7490 F   0  0  0  0  0  0  0  0  0  0  0  0
   45.2860   34.9510   41.6040 F   0  0  0  0  0  0  0  0  0  0  0  0
   44.0750   36.1390   43.0730 F   0  0  0  0  0  0  0  0  0  0  0  0
   47.3230   33.8150   42.3220 O   0  0  0  0  0  0  0  0  0  0  0  0
   48.5820   34.3580   41.9970 C   0  0  0  0  0  0  0  0  0  0  0  0
   49.1080   34.9150   43.1670 F   0  0  0  0  0  0  0  0  0  0  0  0
   49.3800   33.3860   41.4740 F   0  0  0  0  0  0  0  0  0  0  0  0
   48.4190   35.4290   41.1350 F   0  0  0  0  0  0  0  0  0  0  0  0
   44.3301   35.1864   45.4198 H   0  0  0  0  0  0  0  0  0  0  0  0
   47.8764   31.2774   46.1190 H   0  0  0  0  0  0  0  0  0  0  0  0
   45.0370   31.3716   47.3589 H   0  0  0  0  0  0  0  0  0  0  0  0
   45.6791   30.0490   46.4710 H   0  0  0  0  0  0  0  0  0  0  0  0
   45.9847   29.8279   49.0915 H   0  0  0  0  0  0  0  0  0  0  0  0
   47.5209   29.7185   48.2948 H   0  0  0  0  0  0  0  0  0  0  0  0
   48.5824   32.4674   48.0360 H   0  0  0  0  0  0  0  0  0  0  0  0
   47.0808   33.4386   48.0496 H   0  0  0  0  0  0  0  0  0  0  0  0
  1  2  2  0
  1  6  1  0
  2  3  1  0
  3  4  2  0
  5  4  1  0
  6  5  2  0
  7  5  1  0
  7  8  1  0
  7 11  1  0
  8  9  1  0
  9 10  1  0
 11 10  1  0
 12 15  1  0
 12  2  1  0
 13 12  1  0
 14 12  1  0
 16  1  1  0
 17 16  1  0
 17 18  1  0
 19 17  1  0
 20 17  1  0
  3 21  1  0
  7 22  1  6
  8 23  1  0
  8 24  1  0
  9 25  1  0
  9 26  1  0
 11 27  1  0
 11 28  1  0
M  ISO  8  21  14  22  13  23  13  24  13  25  13  26  13  27  13  28  13
M  END
>  <minimizedAffinity>  (1) 
-5.18309879

>  <minimizedRMSD>  (1) 
1.43174732

$$$$
