
     RDKit          3D

 19 19  0  0  0  0  0  0  0  0999 V2000
   47.0490   34.2730   43.0330 C   0  0  0  0  0  0  0  0  0  0  0  0
   45.8310   34.6450   43.6180 C   0  0  0  0  0  0  0  0  0  0  0  0
   45.2820   33.7650   44.5710 C   0  0  0  0  0  0  0  0  0  0  0  0
   45.9530   32.6220   44.8660 N   0  0  0  0  0  0  0  0  0  0  0  0
   47.1220   32.3170   44.2700 C   0  0  0  0  0  0  0  0  0  0  0  0
   47.6670   33.1300   43.3630 N   0  0  0  0  0  0  0  0  0  0  0  0
   45.1790   35.9130   43.2280 C   0  0  0  0  0  0  0  0  0  0  0  0
   46.1300   36.9080   43.0890 F   0  0  0  0  0  0  0  0  0  0  0  0
   44.6030   35.7280   41.9770 F   0  0  0  0  0  0  0  0  0  0  0  0
   44.2360   36.3600   44.1060 F   0  0  0  0  0  0  0  0  0  0  0  0
   47.7930   31.0740   44.6310 C   0  0  0  0  0  0  0  0  0  0  0  0
   47.7020   30.5960   45.7910 O   0  0  0  0  0  0  0  0  0  0  0  0
   47.5640   35.1280   42.1190 O   0  0  0  0  0  0  0  0  0  0  0  0
   48.9090   35.2070   41.7020 C   0  0  0  0  0  0  0  0  0  0  0  0
   49.6890   35.3870   42.8360 F   0  0  0  0  0  0  0  0  0  0  0  0
   49.2350   34.0780   40.9990 F   0  0  0  0  0  0  0  0  0  0  0  0
   49.0890   36.3600   40.9500 F   0  0  0  0  0  0  0  0  0  0  0  0
   44.3283   33.9992   45.0666 H   0  0  0  0  0  0  0  0  0  0  0  0
   48.3903   30.5440   43.8745 H   0  0  0  0  0  0  0  0  0  0  0  0
  1  6  2  0
  1  2  1  0
  2  3  2  0
  3  4  1  0
  5 11  1  0
  5  4  2  0
  6  5  1  0
  7  2  1  0
  7 10  1  0
  8  7  1  0
  9  7  1  0
 11 12  2  0
 13  1  1  0
 14 13  1  0
 14 15  1  0
 16 14  1  0
 17 14  1  0
  3 18  1  0
 11 19  1  0
M  ISO  2  18  14  19   6
M  END
>  <minimizedAffinity>  (1) 
-4.54843092

>  <minimizedRMSD>  (1) 
0.525413394

$$$$
