
     RDKit          3D

 20 20  0  0  0  0  0  0  0  0999 V2000
   47.0970   34.2500   42.9710 C   0  0  0  0  0  0  0  0  0  0  0  0
   45.8260   34.5160   43.4850 C   0  0  0  0  0  0  0  0  0  0  0  0
   45.2610   33.5670   44.3510 C   0  0  0  0  0  0  0  0  0  0  0  0
   45.9690   32.4420   44.6490 N   0  0  0  0  0  0  0  0  0  0  0  0
   47.2030   32.2360   44.1180 C   0  0  0  0  0  0  0  0  0  0  0  0
   47.7650   33.1280   43.2880 N   0  0  0  0  0  0  0  0  0  0  0  0
   45.1190   35.7690   43.1110 C   0  0  0  0  0  0  0  0  0  0  0  0
   46.0230   36.8290   43.1010 F   0  0  0  0  0  0  0  0  0  0  0  0
   44.6660   35.6240   41.8160 F   0  0  0  0  0  0  0  0  0  0  0  0
   44.1020   36.1240   43.9370 F   0  0  0  0  0  0  0  0  0  0  0  0
   47.9690   30.9980   44.4530 C   0  0  0  0  0  0  0  0  0  0  0  0
   47.6180   35.1830   42.1370 O   0  0  0  0  0  0  0  0  0  0  0  0
   48.9300   35.1970   41.6080 C   0  0  0  0  0  0  0  0  0  0  0  0
   49.7820   35.4300   42.7080 F   0  0  0  0  0  0  0  0  0  0  0  0
   49.1990   34.0380   40.9590 F   0  0  0  0  0  0  0  0  0  0  0  0
   49.0860   36.3250   40.8150 F   0  0  0  0  0  0  0  0  0  0  0  0
   44.2622   33.7291   44.7823 H   0  0  0  0  0  0  0  0  0  0  0  0
   48.0346   30.8919   45.5459 H   0  0  0  0  0  0  0  0  0  0  0  0
   47.4544   30.1227   44.0299 H   0  0  0  0  0  0  0  0  0  0  0  0
   48.9820   31.0678   44.0299 H   0  0  0  0  0  0  0  0  0  0  0  0
  1  6  2  0
  1  2  1  0
  2  3  2  0
  3  4  1  0
  5 11  1  0
  5  4  2  0
  6  5  1  0
  7  2  1  0
  7 10  1  0
  8  7  1  0
  9  7  1  0
 12  1  1  0
 13 12  1  0
 13 14  1  0
 15 13  1  0
 16 13  1  0
  3 17  1  0
 11 18  1  0
 11 19  1  0
 11 20  1  0
M  ISO  4  17  14  18   8  19   8  20   8
M  END
>  <minimizedAffinity>  (1) 
-4.64134502

>  <minimizedRMSD>  (1) 
0.431100428

$$$$
