
     RDKit          3D

 28 31  0  0  1  0  0  0  0  0999 V2000
   44.1720   33.9440   41.2700 C   0  0  1  0  0  0  0  0  0  0  0  0
   45.1990   33.9000   40.2690 C   0  0  2  0  0  0  0  0  0  0  0  0
   44.4610   32.6690   40.6390 C   0  0  0  0  0  0  0  0  0  0  0  0
   44.2890   35.5220   43.1310 C   0  0  0  0  0  0  0  0  0  0  0  0
   44.5360   34.2400   42.6610 C   0  0  0  0  0  0  0  0  0  0  0  0
   45.0660   33.2650   43.5030 C   0  0  0  0  0  0  0  0  0  0  0  0
   45.3170   33.6550   44.8020 N   0  0  0  0  0  0  0  0  0  0  0  0
   45.0730   34.8990   45.2530 C   0  0  0  0  0  0  0  0  0  0  0  0
   44.5560   35.8330   44.4040 N   0  0  0  0  0  0  0  0  0  0  0  0
   46.6450   33.8080   40.5450 C   0  0  1  0  0  0  0  0  0  0  0  0
   47.3840   34.2230   39.6330 O   0  0  0  0  0  0  0  0  0  0  0  0
   47.9740   34.2680   40.9480 C   0  0  2  0  0  0  0  0  0  0  0  0
   48.8010   33.1550   41.5870 C   0  0  0  0  0  0  0  0  0  0  0  0
   48.5490   34.3830   42.2720 C   0  0  1  0  0  0  0  0  0  0  0  0
   49.6990   35.3190   42.4350 C   0  0  0  0  0  0  0  0  0  0  0  0
   49.3550   36.2480   41.6880 O   0  0  0  0  0  0  0  0  0  0  0  0
   43.2408   34.5105   41.4180 H   0  0  0  0  0  0  0  0  0  0  0  0
   45.3768   34.5569   39.4048 H   0  0  0  0  0  0  0  0  0  0  0  0
   43.7413   32.2225   39.9371 H   0  0  0  0  0  0  0  0  0  0  0  0
   44.7355   31.6629   40.9888 H   0  0  0  0  0  0  0  0  0  0  0  0
   43.8729   36.2838   42.4554 H   0  0  0  0  0  0  0  0  0  0  0  0
   45.2724   32.2431   43.1522 H   0  0  0  0  0  0  0  0  0  0  0  0
   45.2890   35.1610   46.2993 H   0  0  0  0  0  0  0  0  0  0  0  0
   46.1193   33.0923   41.1942 H   0  0  0  0  0  0  0  0  0  0  0  0
   48.3158   32.2255   41.9196 H   0  0  0  0  0  0  0  0  0  0  0  0
   49.6962   32.5807   41.3064 H   0  0  0  0  0  0  0  0  0  0  0  0
   48.1263   34.6224   43.2589 H   0  0  0  0  0  0  0  0  0  0  0  0
   50.6051   35.2142   43.0499 H   0  0  0  0  0  0  0  0  0  0  0  0
  1  5  1  0
  2 10  1  0
  2  3  1  0
  2  1  1  0
  3  1  1  0
  4  9  2  0
  5  4  1  0
  5  6  2  0
  6  7  1  0
  7  8  2  0
  9  8  1  0
 10 12  1  0
 11 10  1  0
 12 11  1  6
 12 13  1  0
 12 14  1  0
 13 14  1  0
 14 15  1  0
 16 15  2  0
  1 17  1  6
  2 18  1  6
  3 19  1  0
  3 20  1  0
  4 21  1  0
  6 22  1  0
  8 23  1  0
 10 24  1  6
 13 25  1  0
 13 26  1  0
 14 27  1  1
 15 28  1  0
M  ISO  8  17  13  18  13  19  13  20  13  21  14  22  14  23  14  24  13
M  ISO  4  25  13  26  13  27  13  28   6
M  END
>  <minimizedAffinity>  (1) 
-4.31064892

>  <minimizedRMSD>  (1) 
1.28064191

$$$$
