
     RDKit          3D

 27 28  0  0  0  0  0  0  0  0999 V2000
   46.8140   34.1040   43.0630 C   0  0  0  0  0  0  0  0  0  0  0  0
   45.6400   33.7110   42.4310 C   0  0  0  0  0  0  0  0  0  0  0  0
   44.9090   32.6580   43.0260 C   0  0  0  0  0  0  0  0  0  0  0  0
   45.3790   32.0900   44.1630 N   0  0  0  0  0  0  0  0  0  0  0  0
   46.5270   32.5130   44.7350 C   0  0  0  0  0  0  0  0  0  0  0  0
   47.2410   33.5160   44.1850 N   0  0  0  0  0  0  0  0  0  0  0  0
   47.6680   29.9170   44.8080 F   0  0  0  0  0  0  0  0  0  0  0  0
   47.5940   30.6410   45.9700 C   0  0  0  0  0  0  0  0  0  0  0  0
   47.0430   31.9080   45.9600 C   0  0  0  0  0  0  0  0  0  0  0  0
   47.0040   32.5750   47.1810 C   0  0  0  0  0  0  0  0  0  0  0  0
   47.4940   31.9890   48.3290 C   0  0  0  0  0  0  0  0  0  0  0  0
   48.0390   30.7070   48.2740 C   0  0  0  0  0  0  0  0  0  0  0  0
   48.1000   29.9980   47.0790 C   0  0  0  0  0  0  0  0  0  0  0  0
   45.1990   34.3840   41.1950 C   0  0  0  0  0  0  0  0  0  0  0  0
   44.9050   35.7090   41.4610 F   0  0  0  0  0  0  0  0  0  0  0  0
   46.2730   34.3850   40.3090 F   0  0  0  0  0  0  0  0  0  0  0  0
   44.1290   33.8250   40.5830 F   0  0  0  0  0  0  0  0  0  0  0  0
   47.5110   35.1180   42.4860 O   0  0  0  0  0  0  0  0  0  0  0  0
   48.8150   35.0500   41.9510 C   0  0  0  0  0  0  0  0  0  0  0  0
   49.6990   35.2900   43.0020 F   0  0  0  0  0  0  0  0  0  0  0  0
   49.0110   33.8330   41.3490 F   0  0  0  0  0  0  0  0  0  0  0  0
   49.0090   36.1040   41.0840 F   0  0  0  0  0  0  0  0  0  0  0  0
   43.9714   32.3043   42.5724 H   0  0  0  0  0  0  0  0  0  0  0  0
   46.5751   33.5867   47.2310 H   0  0  0  0  0  0  0  0  0  0  0  0
   47.4550   32.5314   49.2852 H   0  0  0  0  0  0  0  0  0  0  0  0
   48.4286   30.2470   49.1941 H   0  0  0  0  0  0  0  0  0  0  0  0
   48.5262   28.9855   47.0225 H   0  0  0  0  0  0  0  0  0  0  0  0
  1  6  2  0
  2  3  2  0
  2  1  1  0
  3  4  1  0
  4  5  2  0
  5  9  1  0
  6  5  1  0
  7  8  1  0
  8 13  2  0
  9  8  1  0
  9 10  2  0
 10 11  1  0
 12 11  2  0
 13 12  1  0
 14 15  1  0
 14  2  1  0
 16 14  1  0
 17 14  1  0
 18  1  1  0
 19 18  1  0
 19 20  1  0
 21 19  1  0
 22 19  1  0
  3 23  1  0
 10 24  1  0
 11 25  1  0
 12 26  1  0
 13 27  1  0
M  ISO  5  23  14  24  14  25  14  26  14  27  14
M  END
>  <minimizedAffinity>  (1) 
-5.3750782

>  <minimizedRMSD>  (1) 
1.7975812

$$$$
