
     RDKit          3D

 40 42  0  0  1  0  0  0  0  0999 V2000
   47.6080   30.0230   44.9410 F   0  0  0  0  0  0  0  0  0  0  0  0
   47.4860   30.8160   46.0540 C   0  0  0  0  0  0  0  0  0  0  0  0
   46.9270   32.0820   45.9510 C   0  0  0  0  0  0  0  0  0  0  0  0
   46.8350   32.8280   47.1130 C   0  0  0  0  0  0  0  0  0  0  0  0
   47.2880   32.3090   48.3160 C   0  0  0  0  0  0  0  0  0  0  0  0
   47.8380   31.0390   48.3660 C   0  0  0  0  0  0  0  0  0  0  0  0
   47.9520   30.2560   47.2310 C   0  0  0  0  0  0  0  0  0  0  0  0
   46.7740   34.1130   42.9210 C   0  0  0  0  0  0  0  0  0  0  0  0
   45.6530   33.6450   42.2540 C   0  0  0  0  0  0  0  0  0  0  0  0
   44.9310   32.5960   42.8720 C   0  0  0  0  0  0  0  0  0  0  0  0
   45.3600   32.1090   44.0620 N   0  0  0  0  0  0  0  0  0  0  0  0
   46.4560   32.6030   44.6650 C   0  0  0  0  0  0  0  0  0  0  0  0
   47.1650   33.6050   44.0980 N   0  0  0  0  0  0  0  0  0  0  0  0
   45.2660   34.2360   40.9660 C   0  0  0  0  0  0  0  0  0  0  0  0
   44.9290   35.5650   41.1340 F   0  0  0  0  0  0  0  0  0  0  0  0
   46.3810   34.2210   40.1340 F   0  0  0  0  0  0  0  0  0  0  0  0
   44.2360   33.6150   40.3340 F   0  0  0  0  0  0  0  0  0  0  0  0
   47.4760   35.1250   42.3300 O   0  0  0  0  0  0  0  0  0  0  0  0
   48.7980   35.0690   41.8580 C   0  0  0  0  0  0  0  0  0  0  0  0
   49.6270   35.3820   42.9330 F   0  0  0  0  0  0  0  0  0  0  0  0
   49.0540   33.8450   41.3190 F   0  0  0  0  0  0  0  0  0  0  0  0
   49.0030   36.0940   40.9610 F   0  0  0  0  0  0  0  0  0  0  0  0
   47.6060   27.7620   47.1860 C   0  0  1  0  0  0  0  0  0  0  0  0
   48.5310   28.9220   47.2900 C   0  0  2  0  0  0  0  0  0  0  0  0
   49.1530   28.6750   48.5130 O   0  0  0  0  0  0  0  0  0  0  0  0
   49.4830   27.3320   48.5140 C   0  0  0  0  0  0  0  0  0  0  0  0
   48.5620   26.6380   47.5450 C   0  0  1  0  0  0  0  0  0  0  0  0
   46.6080   27.7440   48.1530 O   0  0  0  0  0  0  0  0  0  0  0  0
   47.9020   25.5620   48.1530 O   0  0  0  0  0  0  0  0  0  0  0  0
   46.4002   33.8379   47.0819 H   0  0  0  0  0  0  0  0  0  0  0  0
   47.2102   32.9086   49.2349 H   0  0  0  0  0  0  0  0  0  0  0  0
   48.1921   30.6439   49.3296 H   0  0  0  0  0  0  0  0  0  0  0  0
   44.0324   32.1809   42.3922 H   0  0  0  0  0  0  0  0  0  0  0  0
   47.0893   27.7360   46.2152 H   0  0  0  0  0  0  0  0  0  0  0  0
   49.1893   28.9685   46.4100 H   0  0  0  0  0  0  0  0  0  0  0  0
   50.5283   27.2020   48.1971 H   0  0  0  0  0  0  0  0  0  0  0  0
   49.3745   26.9075   49.5230 H   0  0  0  0  0  0  0  0  0  0  0  0
   49.0673   26.1908   46.6763 H   0  0  0  0  0  0  0  0  0  0  0  0
   47.0204   27.7514   49.0530 H   0  0  0  0  0  0  0  0  0  0  0  0
   47.9583   25.6538   49.1371 H   0  0  0  0  0  0  0  0  0  0  0  0
  1  2  1  0
  2  7  2  0
  3  2  1  0
  3  4  2  0
  4  5  1  0
  5  6  2  0
  7  6  1  0
  8 13  2  0
  9 10  2  0
  9  8  1  0
 10 11  1  0
 11 12  2  0
 12  3  1  0
 13 12  1  0
 14 15  1  0
 14  9  1  0
 16 14  1  0
 17 14  1  0
 18  8  1  0
 19 18  1  0
 19 20  1  0
 21 19  1  0
 22 19  1  0
 23 24  1  0
 23 27  1  0
 23 28  1  0
 24  7  1  0
 24 25  1  0
 25 26  1  0
 27 29  1  0
 27 26  1  0
  4 30  1  0
  5 31  1  0
  6 32  1  0
 10 33  1  0
 23 34  1  6
 24 35  1  6
 26 36  1  0
 26 37  1  0
 27 38  1  6
 28 39  1  0
 29 40  1  0
M  ISO  8  30  14  31  14  32  14  33  14  34  13  35  13  36  13  37  13
M  ISO  3  38  13  39   3  40   3
M  END
>  <minimizedAffinity>  (1) 
-6.02479362

>  <minimizedRMSD>  (1) 
0.452542722

$$$$
