
     RDKit          3D

 37 39  0  0  0  0  0  0  0  0999 V2000
   47.7790   30.1080   44.9140 F   0  0  0  0  0  0  0  0  0  0  0  0
   47.5760   30.8570   46.0410 C   0  0  0  0  0  0  0  0  0  0  0  0
   46.9370   32.0750   45.9510 C   0  0  0  0  0  0  0  0  0  0  0  0
   46.7720   32.7720   47.1480 C   0  0  0  0  0  0  0  0  0  0  0  0
   47.2260   32.2630   48.3470 C   0  0  0  0  0  0  0  0  0  0  0  0
   47.8650   31.0240   48.3750 C   0  0  0  0  0  0  0  0  0  0  0  0
   48.0560   30.2860   47.2090 C   0  0  0  0  0  0  0  0  0  0  0  0
   48.7230   28.9880   47.2150 C   0  0  0  0  0  0  0  0  0  0  0  0
   50.0990   28.8550   47.0140 C   0  0  0  0  0  0  0  0  0  0  0  0
   50.6930   27.6050   47.0270 C   0  0  0  0  0  0  0  0  0  0  0  0
   49.9320   26.4550   47.2390 C   0  0  0  0  0  0  0  0  0  0  0  0
   48.5550   26.5830   47.4400 C   0  0  0  0  0  0  0  0  0  0  0  0
   47.9600   27.8410   47.4260 C   0  0  0  0  0  0  0  0  0  0  0  0
   46.7730   34.1180   42.9500 C   0  0  0  0  0  0  0  0  0  0  0  0
   45.6520   33.6590   42.2850 C   0  0  0  0  0  0  0  0  0  0  0  0
   44.9290   32.6100   42.8900 C   0  0  0  0  0  0  0  0  0  0  0  0
   45.3640   32.1150   44.0740 N   0  0  0  0  0  0  0  0  0  0  0  0
   46.4640   32.6000   44.6810 C   0  0  0  0  0  0  0  0  0  0  0  0
   47.1620   33.5980   44.1150 N   0  0  0  0  0  0  0  0  0  0  0  0
   45.2400   34.2490   40.9970 C   0  0  0  0  0  0  0  0  0  0  0  0
   44.9240   35.5750   41.1600 F   0  0  0  0  0  0  0  0  0  0  0  0
   46.3570   34.2140   40.1530 F   0  0  0  0  0  0  0  0  0  0  0  0
   44.2110   33.6340   40.3700 F   0  0  0  0  0  0  0  0  0  0  0  0
   47.4690   35.1350   42.3570 O   0  0  0  0  0  0  0  0  0  0  0  0
   48.7850   35.0910   41.8790 C   0  0  0  0  0  0  0  0  0  0  0  0
   49.6280   35.3570   42.9550 F   0  0  0  0  0  0  0  0  0  0  0  0
   49.0400   33.8610   41.3040 F   0  0  0  0  0  0  0  0  0  0  0  0
   49.0060   36.1170   41.0020 F   0  0  0  0  0  0  0  0  0  0  0  0
   46.2684   33.7498   47.1355 H   0  0  0  0  0  0  0  0  0  0  0  0
   47.0845   32.8324   49.2775 H   0  0  0  0  0  0  0  0  0  0  0  0
   48.2244   30.6225   49.3340 H   0  0  0  0  0  0  0  0  0  0  0  0
   50.7150   29.7504   46.8441 H   0  0  0  0  0  0  0  0  0  0  0  0
   51.7779   27.5172   46.8683 H   0  0  0  0  0  0  0  0  0  0  0  0
   50.4083   25.4635   47.2478 H   0  0  0  0  0  0  0  0  0  0  0  0
   47.9398   25.6871   47.6097 H   0  0  0  0  0  0  0  0  0  0  0  0
   46.8750   27.9311   47.5833 H   0  0  0  0  0  0  0  0  0  0  0  0
   44.0281   32.2010   42.4093 H   0  0  0  0  0  0  0  0  0  0  0  0
  1  2  1  0
  2  7  2  0
  3  2  1  0
  3  4  2  0
  4  5  1  0
  5  6  2  0
  7  8  1  0
  7  6  1  0
  8 13  2  0
  9 10  2  0
  9  8  1  0
 10 11  1  0
 11 12  2  0
 13 12  1  0
 14 19  2  0
 15 16  2  0
 15 14  1  0
 16 17  1  0
 17 18  2  0
 18  3  1  0
 19 18  1  0
 20 21  1  0
 20 15  1  0
 22 20  1  0
 23 20  1  0
 24 14  1  0
 25 24  1  0
 25 26  1  0
 27 25  1  0
 28 25  1  0
  4 29  1  0
  5 30  1  0
  6 31  1  0
  9 32  1  0
 10 33  1  0
 11 34  1  0
 12 35  1  0
 13 36  1  0
 16 37  1  0
M  ISO  8  29  14  30  14  31  14  32  14  33  14  34  14  35  14  36  14
M  ISO  1  37  14
M  END
>  <minimizedAffinity>  (1) 
-5.6184864

>  <minimizedRMSD>  (1) 
0.390995622

$$$$
