
     RDKit          3D

 41 43  0  0  0  0  0  0  0  0999 V2000
   47.9370   30.1830   44.8080 F   0  0  0  0  0  0  0  0  0  0  0  0
   47.7050   30.8550   45.9680 C   0  0  0  0  0  0  0  0  0  0  0  0
   47.0090   32.0370   45.9480 C   0  0  0  0  0  0  0  0  0  0  0  0
   46.8010   32.6890   47.1720 C   0  0  0  0  0  0  0  0  0  0  0  0
   47.2890   32.1370   48.3390 C   0  0  0  0  0  0  0  0  0  0  0  0
   47.9880   30.9320   48.2940 C   0  0  0  0  0  0  0  0  0  0  0  0
   48.2140   30.2610   47.1090 C   0  0  0  0  0  0  0  0  0  0  0  0
   48.9280   29.0390   47.0940 N   0  0  0  0  0  0  0  0  0  0  0  0
   48.4350   27.7880   47.5590 C   0  0  0  0  0  0  0  0  0  0  0  0
   49.4270   27.3190   48.6310 C   0  0  0  0  0  0  0  0  0  0  0  0
   50.5730   26.8330   47.9030 N   0  0  0  0  0  0  0  0  0  0  0  0
   50.8190   27.5250   46.6750 C   0  0  0  0  0  0  0  0  0  0  0  0
   50.2600   28.9090   46.6020 C   0  0  0  0  0  0  0  0  0  0  0  0
   46.7740   34.1490   42.9790 C   0  0  0  0  0  0  0  0  0  0  0  0
   45.6050   33.7280   42.3620 C   0  0  0  0  0  0  0  0  0  0  0  0
   44.8810   32.6970   42.9780 C   0  0  0  0  0  0  0  0  0  0  0  0
   45.3460   32.1630   44.1330 N   0  0  0  0  0  0  0  0  0  0  0  0
   46.4980   32.6090   44.7000 C   0  0  0  0  0  0  0  0  0  0  0  0
   47.2050   33.5930   44.1260 N   0  0  0  0  0  0  0  0  0  0  0  0
   45.1630   34.3610   41.1010 C   0  0  0  0  0  0  0  0  0  0  0  0
   44.8770   35.6950   41.3290 F   0  0  0  0  0  0  0  0  0  0  0  0
   46.2470   34.3320   40.2160 F   0  0  0  0  0  0  0  0  0  0  0  0
   44.0940   33.7900   40.5090 F   0  0  0  0  0  0  0  0  0  0  0  0
   47.4700   35.1450   42.3780 O   0  0  0  0  0  0  0  0  0  0  0  0
   48.7830   35.0770   41.8660 C   0  0  0  0  0  0  0  0  0  0  0  0
   49.6450   35.3620   42.9220 F   0  0  0  0  0  0  0  0  0  0  0  0
   49.0020   33.8350   41.3070 F   0  0  0  0  0  0  0  0  0  0  0  0
   48.9740   36.1040   40.9670 F   0  0  0  0  0  0  0  0  0  0  0  0
   46.2491   33.6401   47.2020 H   0  0  0  0  0  0  0  0  0  0  0  0
   47.1270   32.6459   49.3006 H   0  0  0  0  0  0  0  0  0  0  0  0
   48.3713   30.5026   49.2314 H   0  0  0  0  0  0  0  0  0  0  0  0
   47.4315   27.9093   47.9928 H   0  0  0  0  0  0  0  0  0  0  0  0
   48.3487   27.0579   46.7408 H   0  0  0  0  0  0  0  0  0  0  0  0
   49.7126   28.1565   49.2844 H   0  0  0  0  0  0  0  0  0  0  0  0
   48.9937   26.5429   49.2790 H   0  0  0  0  0  0  0  0  0  0  0  0
   51.4041   26.9329   48.5031 H   0  0  0  0  0  0  0  0  0  0  0  0
   51.9079   27.5898   46.5330 H   0  0  0  0  0  0  0  0  0  0  0  0
   50.3075   26.9472   45.8911 H   0  0  0  0  0  0  0  0  0  0  0  0
   50.9096   29.5727   47.1915 H   0  0  0  0  0  0  0  0  0  0  0  0
   50.2251   29.1747   45.5351 H   0  0  0  0  0  0  0  0  0  0  0  0
   43.9475   32.3266   42.5292 H   0  0  0  0  0  0  0  0  0  0  0  0
  1  2  1  0
  2  7  2  0
  3  2  1  0
  3  4  2  0
  4  5  1  0
  6  5  2  0
  7  6  1  0
  8  7  1  0
  8  9  1  0
  9 10  1  0
 11 10  1  0
 12 11  1  0
 13 12  1  0
 13  8  1  0
 14 19  2  0
 15 16  2  0
 15 14  1  0
 16 17  1  0
 17 18  2  0
 18  3  1  0
 19 18  1  0
 20 21  1  0
 20 15  1  0
 22 20  1  0
 23 20  1  0
 24 14  1  0
 25 24  1  0
 25 26  1  0
 27 25  1  0
 28 25  1  0
  4 29  1  0
  5 30  1  0
  6 31  1  0
  9 32  1  0
  9 33  1  0
 10 34  1  0
 10 35  1  0
 11 36  1  0
 12 37  1  0
 12 38  1  0
 13 39  1  0
 13 40  1  0
 16 41  1  0
M  ISO  8  29  14  30  14  31  14  32  13  33  13  34  13  35  13  36   5
M  ISO  5  37  13  38  13  39  13  40  13  41  14
M  END
>  <minimizedAffinity>  (1) 
-5.57122278

>  <minimizedRMSD>  (1) 
0.555764437

$$$$
