
     RDKit          3D

 42 44  0  0  0  0  0  0  0  0999 V2000
   47.7460   30.0710   44.8500 F   0  0  0  0  0  0  0  0  0  0  0  0
   47.5850   30.8050   46.0050 C   0  0  0  0  0  0  0  0  0  0  0  0
   46.9690   32.0290   45.9550 C   0  0  0  0  0  0  0  0  0  0  0  0
   46.8490   32.7060   47.1740 C   0  0  0  0  0  0  0  0  0  0  0  0
   47.3300   32.1520   48.3360 C   0  0  0  0  0  0  0  0  0  0  0  0
   47.9450   30.9050   48.3160 C   0  0  0  0  0  0  0  0  0  0  0  0
   48.0890   30.1960   47.1380 C   0  0  0  0  0  0  0  0  0  0  0  0
   46.7800   34.1550   43.0020 C   0  0  0  0  0  0  0  0  0  0  0  0
   45.6200   33.7350   42.3650 C   0  0  0  0  0  0  0  0  0  0  0  0
   44.8830   32.6880   42.9730 C   0  0  0  0  0  0  0  0  0  0  0  0
   45.3350   32.1500   44.1350 N   0  0  0  0  0  0  0  0  0  0  0  0
   46.4660   32.5950   44.7090 C   0  0  0  0  0  0  0  0  0  0  0  0
   47.1850   33.5910   44.1470 N   0  0  0  0  0  0  0  0  0  0  0  0
   45.1960   34.3710   41.1070 C   0  0  0  0  0  0  0  0  0  0  0  0
   44.8950   35.7060   41.3290 F   0  0  0  0  0  0  0  0  0  0  0  0
   46.2650   34.3370   40.2230 F   0  0  0  0  0  0  0  0  0  0  0  0
   44.1270   33.8010   40.5000 F   0  0  0  0  0  0  0  0  0  0  0  0
   47.4740   35.1520   42.4120 O   0  0  0  0  0  0  0  0  0  0  0  0
   48.7940   35.0760   41.8990 C   0  0  0  0  0  0  0  0  0  0  0  0
   49.6510   35.3100   42.9770 F   0  0  0  0  0  0  0  0  0  0  0  0
   49.0000   33.8620   41.3070 F   0  0  0  0  0  0  0  0  0  0  0  0
   49.0190   36.1330   41.0420 F   0  0  0  0  0  0  0  0  0  0  0  0
   48.7170   28.9180   47.1000 N   0  0  0  0  0  0  0  0  0  0  0  0
   47.9670   27.6840   47.2820 C   0  0  0  0  0  0  0  0  0  0  0  0
   48.7150   26.7020   48.1740 C   0  0  0  0  0  0  0  0  0  0  0  0
   50.0130   26.3590   47.4890 C   0  0  0  0  0  0  0  0  0  0  0  0
   50.3800   27.3470   46.4060 C   0  0  0  0  0  0  0  0  0  0  0  0
   50.1570   28.7710   46.8770 C   0  0  0  0  0  0  0  0  0  0  0  0
   46.3641   33.6929   47.2023 H   0  0  0  0  0  0  0  0  0  0  0  0
   47.2281   32.6973   49.2859 H   0  0  0  0  0  0  0  0  0  0  0  0
   48.3239   30.4748   49.2548 H   0  0  0  0  0  0  0  0  0  0  0  0
   43.9572   32.3162   42.5097 H   0  0  0  0  0  0  0  0  0  0  0  0
   46.9974   27.9201   47.7448 H   0  0  0  0  0  0  0  0  0  0  0  0
   47.8272   27.2168   46.2960 H   0  0  0  0  0  0  0  0  0  0  0  0
   48.9177   27.1634   49.1518 H   0  0  0  0  0  0  0  0  0  0  0  0
   48.1142   25.7953   48.3380 H   0  0  0  0  0  0  0  0  0  0  0  0
   50.8155   26.3473   48.2413 H   0  0  0  0  0  0  0  0  0  0  0  0
   49.8874   25.3755   47.0127 H   0  0  0  0  0  0  0  0  0  0  0  0
   49.7563   27.1586   45.5197 H   0  0  0  0  0  0  0  0  0  0  0  0
   51.4445   27.2202   46.1595 H   0  0  0  0  0  0  0  0  0  0  0  0
   50.7062   28.9515   47.8128 H   0  0  0  0  0  0  0  0  0  0  0  0
   50.5190   29.4959   46.1330 H   0  0  0  0  0  0  0  0  0  0  0  0
  1  2  1  0
  2  7  2  0
  3  2  1  0
  3  4  2  0
  4  5  1  0
  6  5  2  0
  7  6  1  0
  8 13  2  0
  9 10  2  0
  9  8  1  0
 10 11  1  0
 11 12  2  0
 12  3  1  0
 13 12  1  0
 14 15  1  0
 14  9  1  0
 16 14  1  0
 17 14  1  0
 18  8  1  0
 19 18  1  0
 19 20  1  0
 21 19  1  0
 22 19  1  0
 23  7  1  0
 23 24  1  0
 24 25  1  0
 26 25  1  0
 27 28  1  0
 27 26  1  0
 28 23  1  0
  4 29  1  0
  5 30  1  0
  6 31  1  0
 10 32  1  0
 24 33  1  0
 24 34  1  0
 25 35  1  0
 25 36  1  0
 26 37  1  0
 26 38  1  0
 27 39  1  0
 27 40  1  0
 28 41  1  0
 28 42  1  0
M  ISO  8  29  14  30  14  31  14  32  14  33  13  34  13  35  13  36  13
M  ISO  6  37  13  38  13  39  13  40  13  41  13  42  13
M  END
>  <minimizedAffinity>  (1) 
-5.57621765

>  <minimizedRMSD>  (1) 
0.627804875

$$$$
