
     RDKit          3D

 28 29  0  0  0  0  0  0  0  0999 V2000
   46.8110   34.1030   43.0680 C   0  0  0  0  0  0  0  0  0  0  0  0
   45.6410   33.7110   42.4370 C   0  0  0  0  0  0  0  0  0  0  0  0
   44.9120   32.6620   43.0260 C   0  0  0  0  0  0  0  0  0  0  0  0
   45.3820   32.0960   44.1610 N   0  0  0  0  0  0  0  0  0  0  0  0
   46.5330   32.5190   44.7380 C   0  0  0  0  0  0  0  0  0  0  0  0
   47.2400   33.5180   44.1890 N   0  0  0  0  0  0  0  0  0  0  0  0
   47.6460   29.9170   44.8210 F   0  0  0  0  0  0  0  0  0  0  0  0
   47.5760   30.6450   45.9770 C   0  0  0  0  0  0  0  0  0  0  0  0
   47.0410   31.9090   45.9660 C   0  0  0  0  0  0  0  0  0  0  0  0
   47.0030   32.5910   47.1850 C   0  0  0  0  0  0  0  0  0  0  0  0
   47.4860   32.0000   48.3290 C   0  0  0  0  0  0  0  0  0  0  0  0
   48.0170   30.7220   48.2950 C   0  0  0  0  0  0  0  0  0  0  0  0
   48.0690   30.0210   47.1060 C   0  0  0  0  0  0  0  0  0  0  0  0
   48.7520   28.3570   47.0190 S   0  0  0  0  0  0  0  0  0  0  0  0
   45.1920   34.3800   41.1930 C   0  0  0  0  0  0  0  0  0  0  0  0
   44.9060   35.7050   41.4540 F   0  0  0  0  0  0  0  0  0  0  0  0
   46.2740   34.3820   40.3120 F   0  0  0  0  0  0  0  0  0  0  0  0
   44.1270   33.8120   40.5790 F   0  0  0  0  0  0  0  0  0  0  0  0
   47.5050   35.1170   42.4880 O   0  0  0  0  0  0  0  0  0  0  0  0
   48.8160   35.0500   41.9520 C   0  0  0  0  0  0  0  0  0  0  0  0
   49.6920   35.2920   43.0010 F   0  0  0  0  0  0  0  0  0  0  0  0
   49.0090   33.8240   41.3500 F   0  0  0  0  0  0  0  0  0  0  0  0
   49.0100   36.0930   41.0850 F   0  0  0  0  0  0  0  0  0  0  0  0
   43.9752   32.3079   42.5711 H   0  0  0  0  0  0  0  0  0  0  0  0
   46.5841   33.6071   47.2299 H   0  0  0  0  0  0  0  0  0  0  0  0
   47.4500   32.5489   49.2816 H   0  0  0  0  0  0  0  0  0  0  0  0
   48.3991   30.2629   49.2187 H   0  0  0  0  0  0  0  0  0  0  0  0
   48.9489   27.8773   48.2871 H   0  0  0  0  0  0  0  0  0  0  0  0
  1  6  2  0
  2  3  2  0
  2  1  1  0
  3  4  1  0
  4  5  2  0
  5  9  1  0
  6  5  1  0
  7  8  1  0
  8 13  2  0
  9  8  1  0
  9 10  2  0
 10 11  1  0
 12 11  2  0
 13 12  1  0
 14 13  1  0
 15 16  1  0
 15  2  1  0
 17 15  1  0
 18 15  1  0
 19  1  1  0
 20 19  1  0
 20 21  1  0
 22 20  1  0
 23 20  1  0
  3 24  1  0
 10 25  1  0
 11 26  1  0
 12 27  1  0
 14 28  1  0
M  ISO  5  24  14  25  14  26  14  27  14  28  11
M  END
>  <minimizedAffinity>  (1) 
-5.43876314

>  <minimizedRMSD>  (1) 
0.0152916936

$$$$
