
     RDKit          3D

 30 31  0  0  0  0  0  0  0  0999 V2000
   46.8130   34.1140   43.0600 C   0  0  0  0  0  0  0  0  0  0  0  0
   45.6340   33.7090   42.4320 C   0  0  0  0  0  0  0  0  0  0  0  0
   44.9150   32.6620   43.0300 C   0  0  0  0  0  0  0  0  0  0  0  0
   45.3760   32.0940   44.1650 N   0  0  0  0  0  0  0  0  0  0  0  0
   46.5220   32.5180   44.7390 C   0  0  0  0  0  0  0  0  0  0  0  0
   47.2310   33.5180   44.1880 N   0  0  0  0  0  0  0  0  0  0  0  0
   47.6790   29.9350   44.8160 F   0  0  0  0  0  0  0  0  0  0  0  0
   47.5960   30.6630   45.9840 C   0  0  0  0  0  0  0  0  0  0  0  0
   47.0390   31.9170   45.9690 C   0  0  0  0  0  0  0  0  0  0  0  0
   46.9960   32.5780   47.1890 C   0  0  0  0  0  0  0  0  0  0  0  0
   47.4840   32.0020   48.3340 C   0  0  0  0  0  0  0  0  0  0  0  0
   48.0370   30.7320   48.2890 C   0  0  0  0  0  0  0  0  0  0  0  0
   48.1060   30.0230   47.0910 C   0  0  0  0  0  0  0  0  0  0  0  0
   48.6970   28.6500   47.0160 C   0  0  0  0  0  0  0  0  0  0  0  0
   45.2010   34.3770   41.2000 C   0  0  0  0  0  0  0  0  0  0  0  0
   44.9040   35.7060   41.4510 F   0  0  0  0  0  0  0  0  0  0  0  0
   46.2720   34.3700   40.3030 F   0  0  0  0  0  0  0  0  0  0  0  0
   44.1320   33.8210   40.5860 F   0  0  0  0  0  0  0  0  0  0  0  0
   47.5060   35.1190   42.4870 O   0  0  0  0  0  0  0  0  0  0  0  0
   48.8160   35.0540   41.9540 C   0  0  0  0  0  0  0  0  0  0  0  0
   49.7000   35.2900   42.9990 F   0  0  0  0  0  0  0  0  0  0  0  0
   49.0070   33.8400   41.3540 F   0  0  0  0  0  0  0  0  0  0  0  0
   49.0100   36.1050   41.0820 F   0  0  0  0  0  0  0  0  0  0  0  0
   43.9790   32.3054   42.5754 H   0  0  0  0  0  0  0  0  0  0  0  0
   46.5605   33.5869   47.2385 H   0  0  0  0  0  0  0  0  0  0  0  0
   47.4365   32.5479   49.2878 H   0  0  0  0  0  0  0  0  0  0  0  0
   48.4269   30.2772   49.2116 H   0  0  0  0  0  0  0  0  0  0  0  0
   48.8623   28.2659   48.0334 H   0  0  0  0  0  0  0  0  0  0  0  0
   48.0065   27.9824   46.4797 H   0  0  0  0  0  0  0  0  0  0  0  0
   49.6565   28.6926   46.4797 H   0  0  0  0  0  0  0  0  0  0  0  0
  1  6  2  0
  2  3  2  0
  2  1  1  0
  3  4  1  0
  4  5  2  0
  5  9  1  0
  6  5  1  0
  7  8  1  0
  8 13  2  0
  9  8  1  0
  9 10  2  0
 10 11  1  0
 12 11  2  0
 13 12  1  0
 14 13  1  0
 15 16  1  0
 15  2  1  0
 17 15  1  0
 18 15  1  0
 19  1  1  0
 20 19  1  0
 20 21  1  0
 22 20  1  0
 23 20  1  0
  3 24  1  0
 10 25  1  0
 11 26  1  0
 12 27  1  0
 14 28  1  0
 14 29  1  0
 14 30  1  0
M  ISO  7  24  14  25  14  26  14  27  14  28   8  29   8  30   8
M  END
>  <minimizedAffinity>  (1) 
-5.48745108

>  <minimizedRMSD>  (1) 
0.0164513197

$$$$
