
     RDKit          3D

 46 48  0  0  0  0  0  0  0  0999 V2000
   47.7750   30.1040   44.9260 F   0  0  0  0  0  0  0  0  0  0  0  0
   47.5690   30.8610   46.0590 C   0  0  0  0  0  0  0  0  0  0  0  0
   46.9330   32.0670   45.9710 C   0  0  0  0  0  0  0  0  0  0  0  0
   46.7680   32.7590   47.1530 C   0  0  0  0  0  0  0  0  0  0  0  0
   47.2240   32.2470   48.3460 C   0  0  0  0  0  0  0  0  0  0  0  0
   47.8600   31.0260   48.3820 C   0  0  0  0  0  0  0  0  0  0  0  0
   48.0520   30.2880   47.2170 C   0  0  0  0  0  0  0  0  0  0  0  0
   46.7870   34.1200   42.9430 C   0  0  0  0  0  0  0  0  0  0  0  0
   45.6630   33.6470   42.2830 C   0  0  0  0  0  0  0  0  0  0  0  0
   44.9450   32.6060   42.8890 C   0  0  0  0  0  0  0  0  0  0  0  0
   45.3600   32.1000   44.0770 N   0  0  0  0  0  0  0  0  0  0  0  0
   46.4540   32.5900   44.6800 C   0  0  0  0  0  0  0  0  0  0  0  0
   47.1650   33.5920   44.1200 N   0  0  0  0  0  0  0  0  0  0  0  0
   45.2680   34.2390   40.9970 C   0  0  0  0  0  0  0  0  0  0  0  0
   44.9270   35.5760   41.1760 F   0  0  0  0  0  0  0  0  0  0  0  0
   46.3770   34.2190   40.1590 F   0  0  0  0  0  0  0  0  0  0  0  0
   44.2390   33.6280   40.3690 F   0  0  0  0  0  0  0  0  0  0  0  0
   47.4760   35.1200   42.3580 O   0  0  0  0  0  0  0  0  0  0  0  0
   48.8110   35.0850   41.8980 C   0  0  0  0  0  0  0  0  0  0  0  0
   49.6350   35.3380   42.9730 F   0  0  0  0  0  0  0  0  0  0  0  0
   49.0430   33.8660   41.3060 F   0  0  0  0  0  0  0  0  0  0  0  0
   49.0260   36.1300   41.0230 F   0  0  0  0  0  0  0  0  0  0  0  0
   48.7410   28.9570   47.2220 C   0  0  0  0  0  0  0  0  0  0  0  0
   49.7890   28.8950   48.3050 C   0  0  0  0  0  0  0  0  0  0  0  0
   49.8720   27.5640   48.9690 C   0  0  0  0  0  0  0  0  0  0  0  0
   51.2730   27.0740   49.1760 C   0  0  0  0  0  0  0  0  0  0  0  0
   52.2400   28.1080   49.6470 C   0  0  0  0  0  0  0  0  0  0  0  0
   51.9690   29.5030   49.1180 C   0  0  0  0  0  0  0  0  0  0  0  0
   51.1450   29.3010   47.8380 C   0  0  0  0  0  0  0  0  0  0  0  0
   46.2635   33.7364   47.1416 H   0  0  0  0  0  0  0  0  0  0  0  0
   47.0797   32.8161   49.2762 H   0  0  0  0  0  0  0  0  0  0  0  0
   48.2206   30.6291   49.3424 H   0  0  0  0  0  0  0  0  0  0  0  0
   44.0463   32.2003   42.4015 H   0  0  0  0  0  0  0  0  0  0  0  0
   47.9959   28.1669   47.3968 H   0  0  0  0  0  0  0  0  0  0  0  0
   49.2336   28.8137   46.2490 H   0  0  0  0  0  0  0  0  0  0  0  0
   49.4458   29.6304   49.0476 H   0  0  0  0  0  0  0  0  0  0  0  0
   49.3818   27.6359   49.9511 H   0  0  0  0  0  0  0  0  0  0  0  0
   49.3774   26.8432   48.3013 H   0  0  0  0  0  0  0  0  0  0  0  0
   51.2453   26.2672   49.9232 H   0  0  0  0  0  0  0  0  0  0  0  0
   51.6320   26.7442   48.1899 H   0  0  0  0  0  0  0  0  0  0  0  0
   52.1996   28.1424   50.7457 H   0  0  0  0  0  0  0  0  0  0  0  0
   53.2281   27.8126   49.2645 H   0  0  0  0  0  0  0  0  0  0  0  0
   51.3994   30.0897   49.8538 H   0  0  0  0  0  0  0  0  0  0  0  0
   52.9005   30.0542   48.9220 H   0  0  0  0  0  0  0  0  0  0  0  0
   51.5899   28.5123   47.2135 H   0  0  0  0  0  0  0  0  0  0  0  0
   51.1118   30.2123   47.2228 H   0  0  0  0  0  0  0  0  0  0  0  0
  1  2  1  0
  2  7  2  0
  3  2  1  0
  3  4  2  0
  4  5  1  0
  5  6  2  0
  7 23  1  0
  7  6  1  0
  8 13  2  0
  9 10  2  0
  9  8  1  0
 10 11  1  0
 11 12  2  0
 12  3  1  0
 13 12  1  0
 14 15  1  0
 14  9  1  0
 16 14  1  0
 17 14  1  0
 18  8  1  0
 19 18  1  0
 19 20  1  0
 21 19  1  0
 22 19  1  0
 23 24  1  0
 24 25  1  0
 25 26  1  0
 26 27  1  0
 28 27  1  0
 29 24  1  0
 29 28  1  0
  4 30  1  0
  5 31  1  0
  6 32  1  0
 10 33  1  0
 23 34  1  0
 23 35  1  0
 24 36  1  0
 25 37  1  0
 25 38  1  0
 26 39  1  0
 26 40  1  0
 27 41  1  0
 27 42  1  0
 28 43  1  0
 28 44  1  0
 29 45  1  0
 29 46  1  0
M  ISO  8  30  14  31  14  32  14  33  14  34   8  35   8  36  13  37  13
M  ISO  8  38  13  39  13  40  13  41  13  42  13  43  13  44  13  45  13
M  ISO  1  46  13
M  END
>  <minimizedAffinity>  (1) 
-5.67926598

>  <minimizedRMSD>  (1) 
1.67573631

$$$$
