
     RDKit          3D

 44 46  0  0  0  0  0  0  0  0999 V2000
   47.7770   30.0650   44.9060 F   0  0  0  0  0  0  0  0  0  0  0  0
   47.5830   30.8200   46.0510 C   0  0  0  0  0  0  0  0  0  0  0  0
   46.9590   32.0370   45.9670 C   0  0  0  0  0  0  0  0  0  0  0  0
   46.8090   32.7180   47.1690 C   0  0  0  0  0  0  0  0  0  0  0  0
   47.2690   32.1820   48.3510 C   0  0  0  0  0  0  0  0  0  0  0  0
   47.8910   30.9490   48.3730 C   0  0  0  0  0  0  0  0  0  0  0  0
   48.0640   30.2270   47.1920 C   0  0  0  0  0  0  0  0  0  0  0  0
   46.8160   34.1250   42.9730 C   0  0  0  0  0  0  0  0  0  0  0  0
   45.6780   33.6710   42.3200 C   0  0  0  0  0  0  0  0  0  0  0  0
   44.9480   32.6240   42.9250 C   0  0  0  0  0  0  0  0  0  0  0  0
   45.3800   32.1170   44.0950 N   0  0  0  0  0  0  0  0  0  0  0  0
   46.4840   32.5790   44.7020 C   0  0  0  0  0  0  0  0  0  0  0  0
   47.2010   33.5800   44.1440 N   0  0  0  0  0  0  0  0  0  0  0  0
   45.2800   34.2780   41.0490 C   0  0  0  0  0  0  0  0  0  0  0  0
   44.9450   35.6180   41.2340 F   0  0  0  0  0  0  0  0  0  0  0  0
   46.3830   34.2750   40.1990 F   0  0  0  0  0  0  0  0  0  0  0  0
   44.2410   33.6920   40.4180 F   0  0  0  0  0  0  0  0  0  0  0  0
   47.5100   35.1220   42.3980 O   0  0  0  0  0  0  0  0  0  0  0  0
   48.8330   35.0710   41.9190 C   0  0  0  0  0  0  0  0  0  0  0  0
   49.6820   35.3370   42.9750 F   0  0  0  0  0  0  0  0  0  0  0  0
   49.0620   33.8440   41.3540 F   0  0  0  0  0  0  0  0  0  0  0  0
   49.0400   36.1080   41.0300 F   0  0  0  0  0  0  0  0  0  0  0  0
   48.7320   28.8830   47.1800 C   0  0  0  0  0  0  0  0  0  0  0  0
   49.8490   28.7800   48.0200 N   0  0  0  0  0  0  0  0  0  0  0  0
   51.0470   29.3430   47.5560 C   0  0  0  0  0  0  0  0  0  0  0  0
   52.1880   29.2730   48.5510 C   0  0  0  0  0  0  0  0  0  0  0  0
   51.6260   29.4120   49.8720 N   0  0  0  0  0  0  0  0  0  0  0  0
   50.8780   28.2120   50.1720 C   0  0  0  0  0  0  0  0  0  0  0  0
   49.8500   27.8990   49.1090 C   0  0  0  0  0  0  0  0  0  0  0  0
   46.3150   33.7008   47.1763 H   0  0  0  0  0  0  0  0  0  0  0  0
   47.1396   32.7423   49.2887 H   0  0  0  0  0  0  0  0  0  0  0  0
   48.2515   30.5345   49.3260 H   0  0  0  0  0  0  0  0  0  0  0  0
   44.0396   32.2286   42.4471 H   0  0  0  0  0  0  0  0  0  0  0  0
   47.9946   28.1303   47.4957 H   0  0  0  0  0  0  0  0  0  0  0  0
   49.0971   28.7251   46.1544 H   0  0  0  0  0  0  0  0  0  0  0  0
   51.3502   28.8077   46.6441 H   0  0  0  0  0  0  0  0  0  0  0  0
   50.8479   30.4096   47.3752 H   0  0  0  0  0  0  0  0  0  0  0  0
   52.7033   28.3052   48.4629 H   0  0  0  0  0  0  0  0  0  0  0  0
   52.9186   30.0721   48.3567 H   0  0  0  0  0  0  0  0  0  0  0  0
   52.3815   29.5337   50.5615 H   0  0  0  0  0  0  0  0  0  0  0  0
   51.5786   27.3673   50.2468 H   0  0  0  0  0  0  0  0  0  0  0  0
   50.3445   28.3749   51.1200 H   0  0  0  0  0  0  0  0  0  0  0  0
   48.8543   27.9293   49.5755 H   0  0  0  0  0  0  0  0  0  0  0  0
   50.1091   26.9082   48.7076 H   0  0  0  0  0  0  0  0  0  0  0  0
  1  2  1  0
  2  7  2  0
  3  2  1  0
  3  4  2  0
  4  5  1  0
  5  6  2  0
  7  6  1  0
  8 13  2  0
  9 10  2  0
  9  8  1  0
 10 11  1  0
 11 12  2  0
 12  3  1  0
 13 12  1  0
 14 15  1  0
 14  9  1  0
 16 14  1  0
 17 14  1  0
 18  8  1  0
 19 18  1  0
 19 20  1  0
 21 19  1  0
 22 19  1  0
 23  7  1  0
 23 24  1  0
 24 29  1  0
 25 24  1  0
 25 26  1  0
 26 27  1  0
 27 28  1  0
 29 28  1  0
  4 30  1  0
  5 31  1  0
  6 32  1  0
 10 33  1  0
 23 34  1  0
 23 35  1  0
 25 36  1  0
 25 37  1  0
 26 38  1  0
 26 39  1  0
 27 40  1  0
 28 41  1  0
 28 42  1  0
 29 43  1  0
 29 44  1  0
M  ISO  8  30  14  31  14  32  14  33  14  34   8  35   8  36  13  37  13
M  ISO  7  38  13  39  13  40   5  41  13  42  13  43  13  44  13
M  END
>  <minimizedAffinity>  (1) 
-5.67214823

>  <minimizedRMSD>  (1) 
1.49294329

$$$$
