
     RDKit          3D

 37 39  0  0  0  0  0  0  0  0999 V2000
   47.6520   30.0160   44.9240 F   0  0  0  0  0  0  0  0  0  0  0  0
   47.5140   30.7900   46.0570 C   0  0  0  0  0  0  0  0  0  0  0  0
   46.9440   32.0310   45.9710 C   0  0  0  0  0  0  0  0  0  0  0  0
   46.8420   32.7460   47.1610 C   0  0  0  0  0  0  0  0  0  0  0  0
   47.2940   32.2170   48.3460 C   0  0  0  0  0  0  0  0  0  0  0  0
   47.8620   30.9530   48.3700 C   0  0  0  0  0  0  0  0  0  0  0  0
   47.9850   30.1950   47.1930 C   0  0  0  0  0  0  0  0  0  0  0  0
   46.7930   34.1230   42.9710 C   0  0  0  0  0  0  0  0  0  0  0  0
   45.6550   33.6610   42.3120 C   0  0  0  0  0  0  0  0  0  0  0  0
   44.9320   32.6190   42.9110 C   0  0  0  0  0  0  0  0  0  0  0  0
   45.3510   32.0990   44.0850 N   0  0  0  0  0  0  0  0  0  0  0  0
   46.4680   32.5750   44.6990 C   0  0  0  0  0  0  0  0  0  0  0  0
   47.1700   33.5740   44.1390 N   0  0  0  0  0  0  0  0  0  0  0  0
   45.2720   34.2840   41.0380 C   0  0  0  0  0  0  0  0  0  0  0  0
   44.9480   35.6070   41.2170 F   0  0  0  0  0  0  0  0  0  0  0  0
   46.3760   34.2430   40.1880 F   0  0  0  0  0  0  0  0  0  0  0  0
   44.2290   33.6800   40.4050 F   0  0  0  0  0  0  0  0  0  0  0  0
   47.4930   35.1250   42.4020 O   0  0  0  0  0  0  0  0  0  0  0  0
   48.8240   35.0630   41.9120 C   0  0  0  0  0  0  0  0  0  0  0  0
   49.6640   35.3430   42.9780 F   0  0  0  0  0  0  0  0  0  0  0  0
   49.0490   33.8350   41.3500 F   0  0  0  0  0  0  0  0  0  0  0  0
   49.0280   36.0930   41.0190 F   0  0  0  0  0  0  0  0  0  0  0  0
   48.5880   28.8420   47.2270 C   0  0  0  0  0  0  0  0  0  0  0  0
   49.8410   28.7540   47.9810 C   0  0  0  0  0  0  0  0  0  0  0  0
   50.0840   28.1050   49.1620 C   0  0  0  0  0  0  0  0  0  0  0  0
   51.4180   28.3300   49.4440 C   0  0  0  0  0  0  0  0  0  0  0  0
   51.9560   29.0940   48.4510 N   0  0  0  0  0  0  0  0  0  0  0  0
   51.0030   29.3380   47.5880 N   0  0  0  0  0  0  0  0  0  0  0  0
   46.3926   33.7500   47.1527 H   0  0  0  0  0  0  0  0  0  0  0  0
   47.2049   32.7972   49.2763 H   0  0  0  0  0  0  0  0  0  0  0  0
   48.2213   30.5376   49.3230 H   0  0  0  0  0  0  0  0  0  0  0  0
   44.0262   32.2264   42.4259 H   0  0  0  0  0  0  0  0  0  0  0  0
   47.8623   28.1539   47.6851 H   0  0  0  0  0  0  0  0  0  0  0  0
   48.8303   28.5813   46.1862 H   0  0  0  0  0  0  0  0  0  0  0  0
   49.3667   27.5252   49.7615 H   0  0  0  0  0  0  0  0  0  0  0  0
   51.9578   27.9541   50.3257 H   0  0  0  0  0  0  0  0  0  0  0  0
   52.9316   29.4188   48.3912 H   0  0  0  0  0  0  0  0  0  0  0  0
  1  2  1  0
  2  7  2  0
  3  2  1  0
  3  4  2  0
  4  5  1  0
  5  6  2  0
  7 23  1  0
  7  6  1  0
  8 13  2  0
  9 10  2  0
  9  8  1  0
 10 11  1  0
 11 12  2  0
 12  3  1  0
 13 12  1  0
 14 15  1  0
 14  9  1  0
 16 14  1  0
 17 14  1  0
 18  8  1  0
 19 18  1  0
 19 20  1  0
 21 19  1  0
 22 19  1  0
 23 24  1  0
 24 25  1  0
 25 26  2  0
 27 26  1  0
 28 24  2  0
 28 27  1  0
  4 29  1  0
  5 30  1  0
  6 31  1  0
 10 32  1  0
 23 33  1  0
 23 34  1  0
 25 35  1  0
 26 36  1  0
 27 37  1  0
M  ISO  8  29  14  30  14  31  14  32  14  33   8  34   8  35  14  36  14
M  ISO  1  37   9
M  END
>  <minimizedAffinity>  (1) 
-5.5354948

>  <minimizedRMSD>  (1) 
1.16850102

$$$$
