
     RDKit          3D

 28 29  0  0  1  0  0  0  0  0999 V2000
   47.1850   32.0080   47.0200 C   0  0  2  0  0  0  0  0  0  0  0  0
   45.9820   32.1360   46.1440 C   0  0  2  0  0  0  0  0  0  0  0  0
   45.6680   30.8960   45.6460 O   0  0  0  0  0  0  0  0  0  0  0  0
   45.2910   29.9490   46.5530 C   0  0  0  0  0  0  0  0  0  0  0  0
   45.9130   30.0310   47.9030 C   0  0  2  0  0  0  0  0  0  0  0  0
   47.1050   30.9000   48.0110 C   0  0  2  0  0  0  0  0  0  0  0  0
   45.6610   34.7030   43.5050 C   0  0  0  0  0  0  0  0  0  0  0  0
   46.8930   34.6520   42.8530 C   0  0  0  0  0  0  0  0  0  0  0  0
   47.8480   33.7170   43.3310 C   0  0  0  0  0  0  0  0  0  0  0  0
   47.4920   32.9470   44.3820 N   0  0  0  0  0  0  0  0  0  0  0  0
   46.2900   33.0270   44.9880 C   0  0  0  0  0  0  0  0  0  0  0  0
   45.3650   33.9080   44.5500 N   0  0  0  0  0  0  0  0  0  0  0  0
   44.5070   35.9210   42.8290 S   0  0  0  0  0  0  0  0  0  0  0  0
   47.3580   33.2200   47.7000 O   0  0  0  0  0  0  0  0  0  0  0  0
   46.2680   28.7420   48.3210 O   0  0  0  0  0  0  0  0  0  0  0  0
   47.1330   31.3800   49.3400 O   0  0  0  0  0  0  0  0  0  0  0  0
   48.0366   31.7685   46.3662 H   0  0  0  0  0  0  0  0  0  0  0  0
   45.1495   32.5524   46.7301 H   0  0  0  0  0  0  0  0  0  0  0  0
   44.2015   30.0268   46.6827 H   0  0  0  0  0  0  0  0  0  0  0  0
   45.6366   28.9928   46.1331 H   0  0  0  0  0  0  0  0  0  0  0  0
   45.1470   30.4940   48.5424 H   0  0  0  0  0  0  0  0  0  0  0  0
   47.9928   30.2983   47.7666 H   0  0  0  0  0  0  0  0  0  0  0  0
   47.1160   35.3111   42.0010 H   0  0  0  0  0  0  0  0  0  0  0  0
   48.8394   33.6232   42.8637 H   0  0  0  0  0  0  0  0  0  0  0  0
   43.8837   36.5789   43.8564 H   0  0  0  0  0  0  0  0  0  0  0  0
   47.3347   33.0569   48.6762 H   0  0  0  0  0  0  0  0  0  0  0  0
   46.2777   28.7069   49.3103 H   0  0  0  0  0  0  0  0  0  0  0  0
   47.0884   30.6159   49.9679 H   0  0  0  0  0  0  0  0  0  0  0  0
  1 14  1  0
  1  6  1  0
  2 11  1  0
  2  1  1  0
  3  2  1  0
  3  4  1  0
  4  5  1  0
  5  6  1  0
  5 15  1  0
  6 16  1  0
  7 12  2  0
  8  9  2  0
  8  7  1  0
  9 10  1  0
 10 11  2  0
 12 11  1  0
 13  7  1  0
  1 17  1  6
  2 18  1  1
  4 19  1  0
  4 20  1  0
  5 21  1  1
  6 22  1  1
  8 23  1  0
  9 24  1  0
 13 25  1  0
 14 26  1  0
 15 27  1  0
 16 28  1  0
M  ISO  8  17  13  18  13  19  13  20  13  21  13  22  13  23  14  24  14
M  ISO  4  25  11  26   3  27   3  28   3
M  END
>  <minimizedAffinity>  (1) 
-5.07902622

>  <minimizedRMSD>  (1) 
2.41787791

$$$$
