
     RDKit          3D

 23 24  0  0  0  0  0  0  0  0999 V2000
   45.5170   34.4430   44.6500 C   0  0  0  0  0  0  0  0  0  0  0  0
   46.2850   33.8850   43.6030 C   0  0  0  0  0  0  0  0  0  0  0  0
   47.1430   32.8200   43.9180 C   0  0  0  0  0  0  0  0  0  0  0  0
   47.1890   32.3810   45.2130 N   0  0  0  0  0  0  0  0  0  0  0  0
   46.4420   32.9420   46.1720 C   0  0  0  0  0  0  0  0  0  0  0  0
   45.6110   33.9630   45.8990 N   0  0  0  0  0  0  0  0  0  0  0  0
   46.5340   32.4410   47.5030 N   0  0  0  0  0  0  0  0  0  0  0  0
   45.4440   32.4600   48.4770 C   0  0  0  0  0  0  0  0  0  0  0  0
   45.5610   31.0260   48.9930 C   0  0  0  0  0  0  0  0  0  0  0  0
   47.0520   30.8930   49.1220 C   0  0  0  0  0  0  0  0  0  0  0  0
   47.6940   31.8340   48.1300 C   0  0  0  0  0  0  0  0  0  0  0  0
   44.4500   35.7980   44.1580 S   0  0  0  0  0  0  0  0  0  0  0  0
   46.2127   34.2723   42.5760 H   0  0  0  0  0  0  0  0  0  0  0  0
   47.7641   32.3492   43.1418 H   0  0  0  0  0  0  0  0  0  0  0  0
   45.6145   33.2001   49.2727 H   0  0  0  0  0  0  0  0  0  0  0  0
   44.4579   32.7409   48.0787 H   0  0  0  0  0  0  0  0  0  0  0  0
   45.0583   30.9029   49.9636 H   0  0  0  0  0  0  0  0  0  0  0  0
   45.0909   30.2701   48.3468 H   0  0  0  0  0  0  0  0  0  0  0  0
   47.3632   31.1585   50.1431 H   0  0  0  0  0  0  0  0  0  0  0  0
   47.3613   29.8569   48.9201 H   0  0  0  0  0  0  0  0  0  0  0  0
   48.3053   31.2872   47.3970 H   0  0  0  0  0  0  0  0  0  0  0  0
   48.3843   32.5589   48.5860 H   0  0  0  0  0  0  0  0  0  0  0  0
   43.9591   36.4214   45.2748 H   0  0  0  0  0  0  0  0  0  0  0  0
  1  6  2  0
  2  3  2  0
  2  1  1  0
  3  4  1  0
  4  5  2  0
  5  7  1  0
  6  5  1  0
  7 11  1  0
  7  8  1  0
  8  9  1  0
  9 10  1  0
 11 10  1  0
 12  1  1  0
  2 13  1  0
  3 14  1  0
  8 15  1  0
  8 16  1  0
  9 17  1  0
  9 18  1  0
 10 19  1  0
 10 20  1  0
 11 21  1  0
 11 22  1  0
 12 23  1  0
M  ISO  8  13  14  14  14  15  13  16  13  17  13  18  13  19  13  20  13
M  ISO  3  21  13  22  13  23  11
M  END
>  <minimizedAffinity>  (1) 
-4.17567921

>  <minimizedRMSD>  (1) 
1.64243329

$$$$
