
     RDKit          3D

 34 37  0  0  0  0  0  0  0  0999 V2000
   46.7710   33.5190   39.5300 C   0  0  0  0  0  0  0  0  0  0  0  0
   48.1500   33.2960   39.6210 C   0  0  0  0  0  0  0  0  0  0  0  0
   48.7940   33.4640   40.8800 C   0  0  0  0  0  0  0  0  0  0  0  0
   48.0020   33.8390   41.9280 N   0  0  0  0  0  0  0  0  0  0  0  0
   46.6690   34.0440   41.7920 C   0  0  0  0  0  0  0  0  0  0  0  0
   46.0570   33.8870   40.6110 N   0  0  0  0  0  0  0  0  0  0  0  0
   45.9370   34.4330   42.9500 N   0  0  0  0  0  0  0  0  0  0  0  0
   45.0070   35.4190   43.0170 C   0  0  0  0  0  0  0  0  0  0  0  0
   44.5360   35.4880   44.2870 N   0  0  0  0  0  0  0  0  0  0  0  0
   45.1870   34.5400   44.9830 C   0  0  0  0  0  0  0  0  0  0  0  0
   45.1510   34.1220   46.2950 C   0  0  0  0  0  0  0  0  0  0  0  0
   45.9090   33.1430   46.7480 N   0  0  0  0  0  0  0  0  0  0  0  0
   46.7750   32.4780   45.9560 C   0  0  0  0  0  0  0  0  0  0  0  0
   46.8110   32.8830   44.6770 N   0  0  0  0  0  0  0  0  0  0  0  0
   46.0760   33.8600   44.1640 C   0  0  0  0  0  0  0  0  0  0  0  0
   44.2980   34.7220   47.2500 N   0  0  0  0  0  0  0  0  0  0  0  0
   46.0590   33.2770   37.9050 S   0  0  0  0  0  0  0  0  0  0  0  0
   48.5200   34.1980   36.3900 F   0  0  0  0  0  0  0  0  0  0  0  0
   48.3390   32.8610   36.2750 C   0  0  0  0  0  0  0  0  0  0  0  0
   47.2410   32.3580   36.9340 C   0  0  0  0  0  0  0  0  0  0  0  0
   46.9510   30.9950   36.8880 C   0  0  0  0  0  0  0  0  0  0  0  0
   47.7610   30.1030   36.1760 C   0  0  0  0  0  0  0  0  0  0  0  0
   48.8570   30.6360   35.5240 C   0  0  0  0  0  0  0  0  0  0  0  0
   49.1470   31.9920   35.5680 C   0  0  0  0  0  0  0  0  0  0  0  0
   48.7271   32.9957   38.7340 H   0  0  0  0  0  0  0  0  0  0  0  0
   49.8748   33.3001   41.0024 H   0  0  0  0  0  0  0  0  0  0  0  0
   44.6879   36.0569   42.1796 H   0  0  0  0  0  0  0  0  0  0  0  0
   47.4077   31.6606   46.3323 H   0  0  0  0  0  0  0  0  0  0  0  0
   44.2964   34.3845   48.2231 H   0  0  0  0  0  0  0  0  0  0  0  0
   43.6783   35.4965   46.9725 H   0  0  0  0  0  0  0  0  0  0  0  0
   46.0682   30.6133   37.4218 H   0  0  0  0  0  0  0  0  0  0  0  0
   47.5357   29.0270   36.1371 H   0  0  0  0  0  0  0  0  0  0  0  0
   49.5179   29.9662   34.9542 H   0  0  0  0  0  0  0  0  0  0  0  0
   50.0283   32.3785   35.0351 H   0  0  0  0  0  0  0  0  0  0  0  0
  1  2  2  0
  1  6  1  0
  2  3  1  0
  3  4  2  0
  5  4  1  0
  5  7  1  0
  6  5  2  0
  7  8  1  0
  7 15  1  0
  8  9  2  0
  9 10  1  0
 10 11  2  0
 11 12  1  0
 11 16  1  0
 13 12  2  0
 14 13  1  0
 15 14  2  0
 15 10  1  0
 17  1  1  0
 19 18  1  0
 19 20  2  0
 20 17  1  0
 21 20  1  0
 22 21  2  0
 23 24  2  0
 23 22  1  0
 24 19  1  0
  2 25  1  0
  3 26  1  0
  8 27  1  0
 13 28  1  0
 16 29  1  0
 16 30  1  0
 21 31  1  0
 22 32  1  0
 23 33  1  0
 24 34  1  0
M  ISO  8  25  14  26  14  27  14  28  14  31  14  32  14  33  14  34  14
M  END
>  <minimizedAffinity>  (1) 
-5.85727739

>  <minimizedRMSD>  (1) 
1.48438919

$$$$
