
     RDKit          3D

 29 30  0  0  0  0  0  0  0  0999 V2000
   44.3700   35.8900   43.7550 C   0  0  0  0  0  0  0  0  0  0  0  0
   44.2740   35.0420   42.6370 C   0  0  0  0  0  0  0  0  0  0  0  0
   44.7070   33.7320   42.7790 C   0  0  0  0  0  0  0  0  0  0  0  0
   45.1940   33.3400   43.9760 N   0  0  0  0  0  0  0  0  0  0  0  0
   45.2740   34.1760   45.0310 C   0  0  0  0  0  0  0  0  0  0  0  0
   44.8630   35.4610   44.9320 N   0  0  0  0  0  0  0  0  0  0  0  0
   43.7140   35.6580   41.4190 C   0  0  0  0  0  0  0  0  0  0  0  0
   42.4550   34.9860   40.9200 C   0  0  0  0  0  0  0  0  0  0  0  0
   41.2610   35.4860   41.7000 C   0  0  0  0  0  0  0  0  0  0  0  0
   40.0960   34.6300   41.2330 C   0  0  0  0  0  0  0  0  0  0  0  0
   39.8420   34.9370   39.8020 C   0  0  0  0  0  0  0  0  0  0  0  0
   40.9950   34.8420   38.8760 C   0  0  0  0  0  0  0  0  0  0  0  0
   42.3240   35.2180   39.4480 C   0  0  0  0  0  0  0  0  0  0  0  0
   44.0327   36.9332   43.6651 H   0  0  0  0  0  0  0  0  0  0  0  0
   44.6549   33.0280   41.9354 H   0  0  0  0  0  0  0  0  0  0  0  0
   45.6790   33.8080   45.9852 H   0  0  0  0  0  0  0  0  0  0  0  0
   43.4820   36.7108   41.6378 H   0  0  0  0  0  0  0  0  0  0  0  0
   44.4706   35.5497   40.6279 H   0  0  0  0  0  0  0  0  0  0  0  0
   42.5074   33.8991   41.0810 H   0  0  0  0  0  0  0  0  0  0  0  0
   41.4248   35.3590   42.7803 H   0  0  0  0  0  0  0  0  0  0  0  0
   41.0783   36.5576   41.5317 H   0  0  0  0  0  0  0  0  0  0  0  0
   40.3466   33.5650   41.3470 H   0  0  0  0  0  0  0  0  0  0  0  0
   39.2001   34.8454   41.8337 H   0  0  0  0  0  0  0  0  0  0  0  0
   39.0717   34.2377   39.4448 H   0  0  0  0  0  0  0  0  0  0  0  0
   39.5509   35.9977   39.7859 H   0  0  0  0  0  0  0  0  0  0  0  0
   40.7962   35.5049   38.0210 H   0  0  0  0  0  0  0  0  0  0  0  0
   41.0758   33.7779   38.6092 H   0  0  0  0  0  0  0  0  0  0  0  0
   43.0976   34.6262   38.9369 H   0  0  0  0  0  0  0  0  0  0  0  0
   42.4365   36.3009   39.2912 H   0  0  0  0  0  0  0  0  0  0  0  0
  1  6  2  0
  2  3  2  0
  2  1  1  0
  3  4  1  0
  4  5  2  0
  6  5  1  0
  7  2  1  0
  8  7  1  0
  8  9  1  0
 10  9  1  0
 11 10  1  0
 12 13  1  0
 12 11  1  0
 13  8  1  0
  1 14  1  0
  3 15  1  0
  5 16  1  0
  7 17  1  0
  7 18  1  0
  8 19  1  0
  9 20  1  0
  9 21  1  0
 10 22  1  0
 10 23  1  0
 11 24  1  0
 11 25  1  0
 12 26  1  0
 12 27  1  0
 13 28  1  0
 13 29  1  0
M  ISO  8  14  14  15  14  16  14  17   8  18   8  19  13  20  13  21  13
M  ISO  8  22  13  23  13  24  13  25  13  26  13  27  13  28  13  29  13
M  END
>  <minimizedAffinity>  (1) 
-4.50409365

>  <minimizedRMSD>  (1) 
1.0720849

$$$$
