
     RDKit          3D

 27 29  0  0  0  0  0  0  0  0999 V2000
   47.7240   33.5310   40.1240 C   0  0  0  0  0  0  0  0  0  0  0  0
   49.0700   33.2590   40.3980 C   0  0  0  0  0  0  0  0  0  0  0  0
   49.5280   33.3350   41.7250 C   0  0  0  0  0  0  0  0  0  0  0  0
   48.6160   33.6760   42.6860 N   0  0  0  0  0  0  0  0  0  0  0  0
   47.3300   33.9320   42.3880 C   0  0  0  0  0  0  0  0  0  0  0  0
   46.8810   33.8610   41.1160 N   0  0  0  0  0  0  0  0  0  0  0  0
   46.4380   34.2810   43.4480 N   0  0  0  0  0  0  0  0  0  0  0  0
   45.5310   35.2740   43.4460 C   0  0  0  0  0  0  0  0  0  0  0  0
   44.8840   35.2730   44.6510 N   0  0  0  0  0  0  0  0  0  0  0  0
   45.4150   34.2700   45.3680 C   0  0  0  0  0  0  0  0  0  0  0  0
   45.1980   33.7660   46.6280 C   0  0  0  0  0  0  0  0  0  0  0  0
   45.8630   32.7460   47.1270 N   0  0  0  0  0  0  0  0  0  0  0  0
   46.8260   32.1120   46.4150 C   0  0  0  0  0  0  0  0  0  0  0  0
   47.0460   32.6000   45.1770 N   0  0  0  0  0  0  0  0  0  0  0  0
   46.3930   33.6350   44.6300 C   0  0  0  0  0  0  0  0  0  0  0  0
   44.2120   34.3430   47.4790 N   0  0  0  0  0  0  0  0  0  0  0  0
   47.2380   33.4080   38.4040 S   0  0  0  0  0  0  0  0  0  0  0  0
   48.2610   34.4120   37.3320 C   0  0  0  0  0  0  0  0  0  0  0  0
   49.7603   32.9893   39.5852 H   0  0  0  0  0  0  0  0  0  0  0  0
   50.5778   33.1285   41.9804 H   0  0  0  0  0  0  0  0  0  0  0  0
   45.3415   35.9697   42.6153 H   0  0  0  0  0  0  0  0  0  0  0  0
   47.3896   31.2580   46.8189 H   0  0  0  0  0  0  0  0  0  0  0  0
   44.0565   33.9584   48.4218 H   0  0  0  0  0  0  0  0  0  0  0  0
   43.6546   35.1448   47.1516 H   0  0  0  0  0  0  0  0  0  0  0  0
   48.9139   35.0527   37.9429 H   0  0  0  0  0  0  0  0  0  0  0  0
   48.8780   33.7591   36.6971 H   0  0  0  0  0  0  0  0  0  0  0  0
   47.6198   35.0411   36.6971 H   0  0  0  0  0  0  0  0  0  0  0  0
  1  2  2  0
  1  6  1  0
  2  3  1  0
  3  4  2  0
  5  4  1  0
  5  7  1  0
  6  5  2  0
  7 15  1  0
  8  7  1  0
  8  9  2  0
  9 10  1  0
 10 11  2  0
 11 12  1  0
 11 16  1  0
 13 12  2  0
 14 13  1  0
 15 14  2  0
 15 10  1  0
 17  1  1  0
 18 17  1  0
  2 19  1  0
  3 20  1  0
  8 21  1  0
 13 22  1  0
 16 23  1  0
 16 24  1  0
 18 25  1  0
 18 26  1  0
 18 27  1  0
M  ISO  7  19  14  20  14  21  14  22  14  25   8  26   8  27   8
M  END
>  <minimizedAffinity>  (1) 
-5.45319748

>  <minimizedRMSD>  (1) 
0.243542075

$$$$
