
     RDKit          3D

 23 24  0  0  0  0  0  0  0  0999 V2000
   43.9350   35.2420   41.3980 C   0  0  0  0  0  0  0  0  0  0  0  0
   44.2200   35.8170   43.7440 C   0  0  0  0  0  0  0  0  0  0  0  0
   44.4080   34.8570   42.7330 C   0  0  0  0  0  0  0  0  0  0  0  0
   45.0110   33.6710   43.1170 C   0  0  0  0  0  0  0  0  0  0  0  0
   45.3820   33.4920   44.4010 N   0  0  0  0  0  0  0  0  0  0  0  0
   45.1860   34.4370   45.3460 C   0  0  0  0  0  0  0  0  0  0  0  0
   44.5980   35.6290   45.0420 N   0  0  0  0  0  0  0  0  0  0  0  0
   42.5310   34.8460   41.1760 C   0  0  0  0  0  0  0  0  0  0  0  0
   42.0450   33.5550   41.1220 C   0  0  0  0  0  0  0  0  0  0  0  0
   40.6910   33.3080   40.9060 C   0  0  0  0  0  0  0  0  0  0  0  0
   39.7860   34.3350   40.7370 C   0  0  0  0  0  0  0  0  0  0  0  0
   40.2220   35.6330   40.7820 C   0  0  0  0  0  0  0  0  0  0  0  0
   41.5680   35.8400   40.9990 C   0  0  0  0  0  0  0  0  0  0  0  0
   44.0174   36.3339   41.2928 H   0  0  0  0  0  0  0  0  0  0  0  0
   44.5571   34.7237   40.6535 H   0  0  0  0  0  0  0  0  0  0  0  0
   43.7427   36.7705   43.4739 H   0  0  0  0  0  0  0  0  0  0  0  0
   45.1869   32.8769   42.3764 H   0  0  0  0  0  0  0  0  0  0  0  0
   45.5067   34.2413   46.3799 H   0  0  0  0  0  0  0  0  0  0  0  0
   42.7366   32.7094   41.2513 H   0  0  0  0  0  0  0  0  0  0  0  0
   40.3348   32.2679   40.8693 H   0  0  0  0  0  0  0  0  0  0  0  0
   38.7220   34.1135   40.5673 H   0  0  0  0  0  0  0  0  0  0  0  0
   39.5270   36.4754   40.6504 H   0  0  0  0  0  0  0  0  0  0  0  0
   41.9139   36.8836   41.0359 H   0  0  0  0  0  0  0  0  0  0  0  0
  1  3  1  0
  2  7  2  0
  3  4  2  0
  3  2  1  0
  4  5  1  0
  5  6  2  0
  7  6  1  0
  8  1  1  0
  9  8  2  0
 10  9  1  0
 11 12  1  0
 11 10  2  0
 12 13  2  0
 13  8  1  0
  1 14  1  0
  1 15  1  0
  2 16  1  0
  4 17  1  0
  6 18  1  0
  9 19  1  0
 10 20  1  0
 11 21  1  0
 12 22  1  0
 13 23  1  0
M  ISO  8  14   8  15   8  16  14  17  14  18  14  19  14  20  14  21  14
M  ISO  2  22  14  23  14
M  END
>  <minimizedAffinity>  (1) 
-4.26165628

>  <minimizedRMSD>  (1) 
0.79004395

$$$$
