
     RDKit          3D

 14 14  0  0  0  0  0  0  0  0999 V2000
   44.3840   35.7680   44.4030 C   0  0  0  0  0  0  0  0  0  0  0  0
   44.6620   35.0550   43.2430 C   0  0  0  0  0  0  0  0  0  0  0  0
   45.2850   33.8190   43.3740 C   0  0  0  0  0  0  0  0  0  0  0  0
   45.5740   33.4010   44.6190 N   0  0  0  0  0  0  0  0  0  0  0  0
   45.2940   34.1100   45.7310 C   0  0  0  0  0  0  0  0  0  0  0  0
   44.6830   35.3310   45.6580 N   0  0  0  0  0  0  0  0  0  0  0  0
   44.2520   35.7170   41.9880 C   0  0  0  0  0  0  0  0  0  0  0  0
   42.9580   35.3820   41.5880 O   0  0  0  0  0  0  0  0  0  0  0  0
   43.8917   36.7464   44.3013 H   0  0  0  0  0  0  0  0  0  0  0  0
   45.5318   33.2071   42.4938 H   0  0  0  0  0  0  0  0  0  0  0  0
   45.5621   33.6985   46.7153 H   0  0  0  0  0  0  0  0  0  0  0  0
   44.3019   36.8060   42.1346 H   0  0  0  0  0  0  0  0  0  0  0  0
   44.9374   35.3749   41.1986 H   0  0  0  0  0  0  0  0  0  0  0  0
   42.3929   35.2357   42.3876 H   0  0  0  0  0  0  0  0  0  0  0  0
  1  6  2  0
  2  3  2  0
  2  1  1  0
  3  4  1  0
  4  5  2  0
  6  5  1  0
  7  2  1  0
  8  7  1  0
  1  9  1  0
  3 10  1  0
  5 11  1  0
  7 12  1  0
  7 13  1  0
  8 14  1  0
M  ISO  6   9  14  10  14  11  14  12   8  13   8  14   3
M  END
>  <minimizedAffinity>  (1) 
-2.78069925

>  <minimizedRMSD>  (1) 
0.0257363673

$$$$
