
     RDKit          3D

 16 16  0  0  0  0  0  0  0  0999 V2000
   44.4020   35.7680   44.3860 C   0  0  0  0  0  0  0  0  0  0  0  0
   44.6600   35.0780   43.2210 C   0  0  0  0  0  0  0  0  0  0  0  0
   45.2610   33.8420   43.3360 C   0  0  0  0  0  0  0  0  0  0  0  0
   45.5580   33.3910   44.5660 N   0  0  0  0  0  0  0  0  0  0  0  0
   45.3000   34.0770   45.7020 C   0  0  0  0  0  0  0  0  0  0  0  0
   44.7010   35.3140   45.6450 N   0  0  0  0  0  0  0  0  0  0  0  0
   44.2560   35.7590   41.9930 C   0  0  0  0  0  0  0  0  0  0  0  0
   43.0030   35.3920   41.5310 O   0  0  0  0  0  0  0  0  0  0  0  0
   42.8950   34.9390   40.2140 C   0  0  0  0  0  0  0  0  0  0  0  0
   42.0610   35.3370   39.3440 O   0  0  0  0  0  0  0  0  0  0  0  0
   43.9217   36.7538   44.2996 H   0  0  0  0  0  0  0  0  0  0  0  0
   45.4911   33.2412   42.4438 H   0  0  0  0  0  0  0  0  0  0  0  0
   45.5703   33.6440   46.6764 H   0  0  0  0  0  0  0  0  0  0  0  0
   44.2505   36.8423   42.1841 H   0  0  0  0  0  0  0  0  0  0  0  0
   44.9789   35.4694   41.2161 H   0  0  0  0  0  0  0  0  0  0  0  0
   43.6040   34.1590   39.8994 H   0  0  0  0  0  0  0  0  0  0  0  0
  1  6  2  0
  2  3  2  0
  2  1  1  0
  3  4  1  0
  4  5  2  0
  6  5  1  0
  7  2  1  0
  8  7  1  0
  9  8  1  0
 10  9  2  0
  1 11  1  0
  3 12  1  0
  5 13  1  0
  7 14  1  0
  7 15  1  0
  9 16  1  0
M  ISO  6  11  14  12  14  13  14  14   8  15   8  16   6
M  END
>  <minimizedAffinity>  (1) 
-3.02707028

>  <minimizedRMSD>  (1) 
0.743750095

$$$$
