
     RDKit          3D

 29 30  0  0  0  0  0  0  0  0999 V2000
   43.7760   35.3350   40.8640 O   0  0  0  0  0  0  0  0  0  0  0  0
   44.5070   34.2810   41.3480 C   0  0  0  0  0  0  0  0  0  0  0  0
   44.4030   35.5220   43.3780 C   0  0  0  0  0  0  0  0  0  0  0  0
   44.7380   34.2870   42.8060 C   0  0  0  0  0  0  0  0  0  0  0  0
   45.2260   33.3170   43.6340 C   0  0  0  0  0  0  0  0  0  0  0  0
   45.3500   33.6240   44.9370 N   0  0  0  0  0  0  0  0  0  0  0  0
   45.0330   34.7950   45.4750 C   0  0  0  0  0  0  0  0  0  0  0  0
   44.5300   35.8290   44.7010 N   0  0  0  0  0  0  0  0  0  0  0  0
   42.5310   35.3050   40.2650 C   0  0  0  0  0  0  0  0  0  0  0  0
   41.4830   35.7850   40.9560 C   0  0  0  0  0  0  0  0  0  0  0  0
   40.0530   35.8720   40.4750 C   0  0  0  0  0  0  0  0  0  0  0  0
   39.4800   34.5270   40.2160 C   0  0  0  0  0  0  0  0  0  0  0  0
   38.9570   34.1510   38.9770 C   0  0  0  0  0  0  0  0  0  0  0  0
   38.4350   32.8890   38.7800 C   0  0  0  0  0  0  0  0  0  0  0  0
   38.4310   32.0130   39.8020 N   0  0  0  0  0  0  0  0  0  0  0  0
   38.9390   32.3730   41.0180 C   0  0  0  0  0  0  0  0  0  0  0  0
   39.4480   33.6050   41.2070 N   0  0  0  0  0  0  0  0  0  0  0  0
   43.9745   33.3530   41.0926 H   0  0  0  0  0  0  0  0  0  0  0  0
   45.5007   34.3627   40.8834 H   0  0  0  0  0  0  0  0  0  0  0  0
   44.0082   36.3018   42.7102 H   0  0  0  0  0  0  0  0  0  0  0  0
   45.5062   32.3248   43.2505 H   0  0  0  0  0  0  0  0  0  0  0  0
   45.1720   34.9479   46.5554 H   0  0  0  0  0  0  0  0  0  0  0  0
   42.4014   34.8995   39.2507 H   0  0  0  0  0  0  0  0  0  0  0  0
   41.6864   36.1511   41.9732 H   0  0  0  0  0  0  0  0  0  0  0  0
   39.4481   36.3757   41.2434 H   0  0  0  0  0  0  0  0  0  0  0  0
   40.0414   36.4380   39.5319 H   0  0  0  0  0  0  0  0  0  0  0  0
   38.9612   34.8715   38.1458 H   0  0  0  0  0  0  0  0  0  0  0  0
   38.0270   32.6022   37.7995 H   0  0  0  0  0  0  0  0  0  0  0  0
   38.9321   31.6515   41.8483 H   0  0  0  0  0  0  0  0  0  0  0  0
  1  2  1  0
  2  4  1  0
  3  8  2  0
  4  3  1  0
  4  5  2  0
  5  6  1  0
  6  7  2  0
  8  7  1  0
  9  1  1  0
  9 10  2  0
 11 10  1  0
 12 11  1  0
 12 17  1  0
 13 12  2  0
 14 13  1  0
 14 15  2  0
 15 16  1  0
 16 17  2  0
  2 18  1  0
  2 19  1  0
  3 20  1  0
  5 21  1  0
  7 22  1  0
  9 23  1  0
 10 24  1  0
 11 25  1  0
 11 26  1  0
 13 27  1  0
 14 28  1  0
 16 29  1  0
M  ISO  8  18   8  19   8  20  14  21  14  22  14  25   8  26   8  27  14
M  ISO  2  28  14  29  14
M  END
>  <minimizedAffinity>  (1) 
-4.7794981

>  <minimizedRMSD>  (1) 
1.49193275

$$$$
