
     RDKit          3D

 22 22  0  0  0  0  0  0  0  0999 V2000
   44.1020   35.5700   41.8090 C   0  0  0  0  0  0  0  0  0  0  0  0
   44.3240   35.7570   44.1930 C   0  0  0  0  0  0  0  0  0  0  0  0
   44.5580   34.9510   43.0700 C   0  0  0  0  0  0  0  0  0  0  0  0
   45.1760   33.7500   43.2790 C   0  0  0  0  0  0  0  0  0  0  0  0
   45.5070   33.4400   44.5420 N   0  0  0  0  0  0  0  0  0  0  0  0
   45.2870   34.2030   45.6070 C   0  0  0  0  0  0  0  0  0  0  0  0
   44.6640   35.4330   45.4590 N   0  0  0  0  0  0  0  0  0  0  0  0
   42.7390   35.6210   41.6480 O   0  0  0  0  0  0  0  0  0  0  0  0
   41.8940   34.6450   41.1620 C   0  0  0  0  0  0  0  0  0  0  0  0
   40.5750   34.8520   41.1960 C   0  0  0  0  0  0  0  0  0  0  0  0
   39.4780   33.9430   40.6970 C   0  0  0  0  0  0  0  0  0  0  0  0
   38.7680   34.6890   39.7380 O   0  0  0  0  0  0  0  0  0  0  0  0
   44.4886   36.5993   41.7746 H   0  0  0  0  0  0  0  0  0  0  0  0
   44.4842   34.9331   40.9977 H   0  0  0  0  0  0  0  0  0  0  0  0
   43.8268   36.7247   44.0308 H   0  0  0  0  0  0  0  0  0  0  0  0
   45.3932   33.0654   42.4459 H   0  0  0  0  0  0  0  0  0  0  0  0
   45.5985   33.8597   46.6045 H   0  0  0  0  0  0  0  0  0  0  0  0
   42.3010   33.7089   40.7520 H   0  0  0  0  0  0  0  0  0  0  0  0
   40.2476   35.8023   41.6428 H   0  0  0  0  0  0  0  0  0  0  0  0
   39.9077   33.0401   40.2385 H   0  0  0  0  0  0  0  0  0  0  0  0
   38.8239   33.6105   41.5165 H   0  0  0  0  0  0  0  0  0  0  0  0
   38.1630   35.3247   40.1962 H   0  0  0  0  0  0  0  0  0  0  0  0
  1  3  1  0
  2  7  2  0
  3  4  2  0
  3  2  1  0
  4  5  1  0
  5  6  2  0
  7  6  1  0
  8  1  1  0
  9 10  2  0
  9  8  1  0
 11 10  1  0
 12 11  1  0
  1 13  1  0
  1 14  1  0
  2 15  1  0
  4 16  1  0
  6 17  1  0
  9 18  1  0
 10 19  1  0
 11 20  1  0
 11 21  1  0
 12 22  1  0
M  ISO  8  13   8  14   8  15  14  16  14  17  14  20   8  21   8  22   3
M  END
>  <minimizedAffinity>  (1) 
-3.55164766

>  <minimizedRMSD>  (1) 
0.659006536

$$$$
