
     RDKit          3D

 41 43  0  0  0  0  0  0  0  0999 V2000
   45.3250   35.6340   43.5600 C   0  0  0  0  0  0  0  0  0  0  0  0
   43.9350   35.3070   41.4610 C   0  0  0  0  0  0  0  0  0  0  0  0
   44.0390   35.6350   42.7550 C   0  0  0  0  0  0  0  0  0  0  0  0
   42.6680   35.3680   40.8980 O   0  0  0  0  0  0  0  0  0  0  0  0
   41.4760   35.5440   41.5640 C   0  0  0  0  0  0  0  0  0  0  0  0
   40.1260   33.5410   41.6310 C   0  0  0  0  0  0  0  0  0  0  0  0
   40.3500   34.7710   40.9780 C   0  0  0  0  0  0  0  0  0  0  0  0
   39.5330   35.0780   39.9370 C   0  0  0  0  0  0  0  0  0  0  0  0
   38.5880   34.1940   39.6160 N   0  0  0  0  0  0  0  0  0  0  0  0
   38.3750   33.0410   40.2260 C   0  0  0  0  0  0  0  0  0  0  0  0
   39.1670   32.6520   41.3010 N   0  0  0  0  0  0  0  0  0  0  0  0
   45.0740   34.9590   44.7280 O   0  0  0  0  0  0  0  0  0  0  0  0
   45.2310   32.5320   43.6570 O   0  0  0  0  0  0  0  0  0  0  0  0
   45.7980   33.4260   44.7170 P   0  0  1  0  0  0  0  0  0  0  0  0
   47.4640   33.5720   44.4570 O   0  0  0  0  0  0  0  0  0  0  0  0
   45.5980   32.7220   46.2500 O   0  0  0  0  0  0  0  0  0  0  0  0
   46.0900   31.4290   46.4120 C   0  0  0  0  0  0  0  0  0  0  0  0
   45.6230   30.3690   45.7250 N   0  0  0  0  0  0  0  0  0  0  0  0
   46.1330   29.1200   45.9150 C   0  0  0  0  0  0  0  0  0  0  0  0
   47.1180   28.9680   46.8060 N   0  0  0  0  0  0  0  0  0  0  0  0
   47.6380   29.9860   47.5320 C   0  0  0  0  0  0  0  0  0  0  0  0
   48.6530   29.6480   48.4080 C   0  0  0  0  0  0  0  0  0  0  0  0
   49.1710   30.7090   49.1410 C   0  0  0  0  0  0  0  0  0  0  0  0
   48.6820   31.9870   48.9790 C   0  0  0  0  0  0  0  0  0  0  0  0
   47.6660   32.2760   48.0900 C   0  0  0  0  0  0  0  0  0  0  0  0
   47.1070   31.2470   47.3260 C   0  0  0  0  0  0  0  0  0  0  0  0
   45.6320   36.6670   43.7806 H   0  0  0  0  0  0  0  0  0  0  0  0
   46.1368   35.1502   42.9970 H   0  0  0  0  0  0  0  0  0  0  0  0
   44.8128   35.0034   40.8717 H   0  0  0  0  0  0  0  0  0  0  0  0
   43.1166   35.9293   43.2771 H   0  0  0  0  0  0  0  0  0  0  0  0
   41.6104   35.2260   42.6084 H   0  0  0  0  0  0  0  0  0  0  0  0
   41.2141   36.6093   41.4828 H   0  0  0  0  0  0  0  0  0  0  0  0
   40.7845   33.2872   42.4748 H   0  0  0  0  0  0  0  0  0  0  0  0
   39.6468   36.0198   39.3802 H   0  0  0  0  0  0  0  0  0  0  0  0
   37.5640   32.3831   39.8803 H   0  0  0  0  0  0  0  0  0  0  0  0
   47.9317   33.6130   45.3286 H   0  0  0  0  0  0  0  0  0  0  0  0
   45.7446   28.2596   45.3503 H   0  0  0  0  0  0  0  0  0  0  0  0
   49.0224   28.6176   48.5165 H   0  0  0  0  0  0  0  0  0  0  0  0
   49.9827   30.5260   49.8605 H   0  0  0  0  0  0  0  0  0  0  0  0
   49.1148   32.8027   49.5768 H   0  0  0  0  0  0  0  0  0  0  0  0
   47.2992   33.3076   47.9836 H   0  0  0  0  0  0  0  0  0  0  0  0
  1 12  1  0
  2  3  2  0
  3  1  1  0
  4  2  1  0
  4  5  1  0
  7  5  1  0
  7  6  2  0
  8  7  1  0
  9  8  2  0
  9 10  1  0
 10 11  2  0
 11  6  1  0
 14 13  2  0
 14 12  1  0
 14 16  1  0
 15 14  1  0
 16 17  1  0
 17 26  2  0
 18 19  2  0
 18 17  1  0
 19 20  1  0
 20 21  2  0
 21 22  1  0
 22 23  2  0
 24 23  1  0
 25 24  2  0
 26 21  1  0
 26 25  1  0
  1 27  1  0
  1 28  1  0
  2 29  1  0
  3 30  1  0
  5 31  1  0
  5 32  1  0
  6 33  1  0
  8 34  1  0
 10 35  1  0
 15 36  1  0
 19 37  1  0
 22 38  1  0
 23 39  1  0
 24 40  1  0
 25 41  1  0
M  ISO  8  27   8  28   8  31   8  32   8  33  14  34  14  35  14  36   3
M  ISO  5  37  14  38  14  39  14  40  14  41  14
M  END
>  <minimizedAffinity>  (1) 
-5.60444117

>  <minimizedRMSD>  (1) 
1.21005797

$$$$
