
     RDKit          3D

 27 27  0  0  0  0  0  0  0  0999 V2000
   42.5470   35.2880   40.8650 O   0  0  0  0  0  0  0  0  0  0  0  0
   41.2770   35.7200   41.1580 C   0  0  0  0  0  0  0  0  0  0  0  0
   40.2570   33.6030   41.6230 C   0  0  0  0  0  0  0  0  0  0  0  0
   40.1980   34.7650   40.8390 C   0  0  0  0  0  0  0  0  0  0  0  0
   39.2030   34.8470   39.9050 C   0  0  0  0  0  0  0  0  0  0  0  0
   38.3590   33.8050   39.8130 N   0  0  0  0  0  0  0  0  0  0  0  0
   38.4170   32.7050   40.5590 C   0  0  0  0  0  0  0  0  0  0  0  0
   39.4010   32.5570   41.5230 N   0  0  0  0  0  0  0  0  0  0  0  0
   43.7290   35.6770   41.4740 C   0  0  0  0  0  0  0  0  0  0  0  0
   43.9570   35.2940   42.7330 C   0  0  0  0  0  0  0  0  0  0  0  0
   45.1920   35.5870   43.5520 C   0  0  0  0  0  0  0  0  0  0  0  0
   45.0450   34.9300   44.7500 O   0  0  0  0  0  0  0  0  0  0  0  0
   45.5580   32.3360   44.4090 O   0  0  0  0  0  0  0  0  0  0  0  0
   46.1480   33.6340   44.8720 P   0  0  0  0  0  0  0  0  0  0  0  0
   47.5260   33.9610   43.9440 O   0  0  0  0  0  0  0  0  0  0  0  0
   46.6540   33.5260   46.4950 O   0  0  0  0  0  0  0  0  0  0  0  0
   41.2317   35.9369   42.2355 H   0  0  0  0  0  0  0  0  0  0  0  0
   41.1011   36.6015   40.5239 H   0  0  0  0  0  0  0  0  0  0  0  0
   41.0574   33.5359   42.3746 H   0  0  0  0  0  0  0  0  0  0  0  0
   39.0976   35.7288   39.2560 H   0  0  0  0  0  0  0  0  0  0  0  0
   37.6767   31.9054   40.4090 H   0  0  0  0  0  0  0  0  0  0  0  0
   44.4648   36.2889   40.9316 H   0  0  0  0  0  0  0  0  0  0  0  0
   43.1664   34.7064   43.2225 H   0  0  0  0  0  0  0  0  0  0  0  0
   46.0879   35.2219   43.0284 H   0  0  0  0  0  0  0  0  0  0  0  0
   45.3107   36.6691   43.7098 H   0  0  0  0  0  0  0  0  0  0  0  0
   48.2923   34.1428   44.5439 H   0  0  0  0  0  0  0  0  0  0  0  0
   45.8823   33.6907   47.0929 H   0  0  0  0  0  0  0  0  0  0  0  0
  1  2  1  0
  1  9  1  0
  4  2  1  0
  4  3  2  0
  5  4  1  0
  6  5  2  0
  6  7  1  0
  7  8  2  0
  8  3  1  0
  9 10  2  0
 10 11  1  0
 11 12  1  0
 12 14  1  0
 13 14  2  0
 14 16  1  0
 15 14  1  0
  2 17  1  0
  2 18  1  0
  3 19  1  0
  5 20  1  0
  7 21  1  0
  9 22  1  0
 10 23  1  0
 11 24  1  0
 11 25  1  0
 15 26  1  0
 16 27  1  0
M  ISO  8  17   8  18   8  19  14  20  14  21  14  24   8  25   8  26   3
M  ISO  1  27   3
M  END
>  <minimizedAffinity>  (1) 
-4.59911489

>  <minimizedRMSD>  (1) 
7.88736153

$$$$
