
     RDKit          3D

 30 30  0  0  0  0  0  0  0  0999 V2000
   42.5390   35.2490   40.8300 O   0  0  0  0  0  0  0  0  0  0  0  0
   41.2850   35.6670   41.2200 C   0  0  0  0  0  0  0  0  0  0  0  0
   40.2450   33.5310   41.6240 C   0  0  0  0  0  0  0  0  0  0  0  0
   40.2050   34.7130   40.8600 C   0  0  0  0  0  0  0  0  0  0  0  0
   39.2160   34.8370   39.9300 C   0  0  0  0  0  0  0  0  0  0  0  0
   38.3560   33.8260   39.8130 N   0  0  0  0  0  0  0  0  0  0  0  0
   38.3800   32.7100   40.5260 C   0  0  0  0  0  0  0  0  0  0  0  0
   39.3560   32.5040   41.4940 N   0  0  0  0  0  0  0  0  0  0  0  0
   43.7570   35.6410   41.3640 C   0  0  0  0  0  0  0  0  0  0  0  0
   43.9890   35.3080   42.6420 C   0  0  0  0  0  0  0  0  0  0  0  0
   45.2500   35.6300   43.4290 C   0  0  0  0  0  0  0  0  0  0  0  0
   45.3280   34.7330   44.4600 O   0  0  0  0  0  0  0  0  0  0  0  0
   46.0240   32.5060   43.1850 O   0  0  0  0  0  0  0  0  0  0  0  0
   46.4880   33.5310   44.1760 P   0  0  1  0  0  0  0  0  0  0  0  0
   47.9060   34.2440   43.5890 O   0  0  0  0  0  0  0  0  0  0  0  0
   46.8790   32.7960   45.6570 O   0  0  0  0  0  0  0  0  0  0  0  0
   45.8640   33.0060   46.6100 C   0  0  0  0  0  0  0  0  0  0  0  0
   41.2852   35.7970   42.3123 H   0  0  0  0  0  0  0  0  0  0  0  0
   41.0771   36.6074   40.6885 H   0  0  0  0  0  0  0  0  0  0  0  0
   41.0438   33.4290   42.3734 H   0  0  0  0  0  0  0  0  0  0  0  0
   39.1313   35.7357   39.3014 H   0  0  0  0  0  0  0  0  0  0  0  0
   37.6180   31.9365   40.3499 H   0  0  0  0  0  0  0  0  0  0  0  0
   44.4961   36.1974   40.7689 H   0  0  0  0  0  0  0  0  0  0  0  0
   43.1977   34.7532   43.1674 H   0  0  0  0  0  0  0  0  0  0  0  0
   46.1330   35.5349   42.7800 H   0  0  0  0  0  0  0  0  0  0  0  0
   45.2169   36.6607   43.8119 H   0  0  0  0  0  0  0  0  0  0  0  0
   48.4718   34.5285   44.3500 H   0  0  0  0  0  0  0  0  0  0  0  0
   46.2871   32.9185   47.6216 H   0  0  0  0  0  0  0  0  0  0  0  0
   45.4380   34.0113   46.4765 H   0  0  0  0  0  0  0  0  0  0  0  0
   45.0740   32.2523   46.4765 H   0  0  0  0  0  0  0  0  0  0  0  0
  1  2  1  0
  1  9  1  0
  4  2  1  0
  4  3  2  0
  5  4  1  0
  6  5  2  0
  6  7  1  0
  7  8  2  0
  8  3  1  0
  9 10  2  0
 10 11  1  0
 11 12  1  0
 14 13  2  0
 14 12  1  0
 14 16  1  0
 15 14  1  0
 16 17  1  0
  2 18  1  0
  2 19  1  0
  3 20  1  0
  5 21  1  0
  7 22  1  0
  9 23  1  0
 10 24  1  0
 11 25  1  0
 11 26  1  0
 15 27  1  0
 17 28  1  0
 17 29  1  0
 17 30  1  0
M  ISO  8  18   8  19   8  20  14  21  14  22  14  25   8  26   8  27   3
M  ISO  3  28   8  29   8  30   8
M  END
>  <minimizedAffinity>  (1) 
-4.2372961

>  <minimizedRMSD>  (1) 
0.655877411

$$$$
