
     RDKit          3D

 37 38  0  0  0  0  0  0  0  0999 V2000
   45.1250   35.6590   43.5960 C   0  0  0  0  0  0  0  0  0  0  0  0
   43.7360   35.6860   41.4780 C   0  0  0  0  0  0  0  0  0  0  0  0
   43.9200   35.3100   42.7510 C   0  0  0  0  0  0  0  0  0  0  0  0
   42.5600   35.2630   40.8750 O   0  0  0  0  0  0  0  0  0  0  0  0
   41.2930   35.7370   41.1300 C   0  0  0  0  0  0  0  0  0  0  0  0
   40.2960   33.6090   41.6140 C   0  0  0  0  0  0  0  0  0  0  0  0
   40.2180   34.7660   40.8150 C   0  0  0  0  0  0  0  0  0  0  0  0
   39.2110   34.8320   39.9070 C   0  0  0  0  0  0  0  0  0  0  0  0
   38.3720   33.8000   39.8370 N   0  0  0  0  0  0  0  0  0  0  0  0
   38.4340   32.7080   40.5810 C   0  0  0  0  0  0  0  0  0  0  0  0
   39.4430   32.5720   41.5340 N   0  0  0  0  0  0  0  0  0  0  0  0
   45.0260   34.9300   44.7690 O   0  0  0  0  0  0  0  0  0  0  0  0
   45.4560   32.3640   44.2200 O   0  0  0  0  0  0  0  0  0  0  0  0
   46.0900   33.6090   44.7610 P   0  0  1  0  0  0  0  0  0  0  0  0
   47.4460   33.9730   43.8200 O   0  0  0  0  0  0  0  0  0  0  0  0
   46.6390   33.3480   46.3480 O   0  0  0  0  0  0  0  0  0  0  0  0
   46.2710   32.1610   47.0010 C   0  0  0  0  0  0  0  0  0  0  0  0
   46.7490   30.8870   46.8340 C   0  0  0  0  0  0  0  0  0  0  0  0
   46.2170   29.8760   47.6060 C   0  0  0  0  0  0  0  0  0  0  0  0
   45.2240   30.0930   48.5400 C   0  0  0  0  0  0  0  0  0  0  0  0
   44.7470   31.3900   48.7010 C   0  0  0  0  0  0  0  0  0  0  0  0
   45.2730   32.4140   47.9330 C   0  0  0  0  0  0  0  0  0  0  0  0
   45.1291   36.7359   43.8204 H   0  0  0  0  0  0  0  0  0  0  0  0
   46.0579   35.4197   43.0645 H   0  0  0  0  0  0  0  0  0  0  0  0
   44.4766   36.2965   40.9405 H   0  0  0  0  0  0  0  0  0  0  0  0
   43.1330   34.6997   43.2181 H   0  0  0  0  0  0  0  0  0  0  0  0
   41.2268   35.9939   42.1975 H   0  0  0  0  0  0  0  0  0  0  0  0
   41.1391   36.6092   40.4776 H   0  0  0  0  0  0  0  0  0  0  0  0
   41.1087   33.5493   42.3529 H   0  0  0  0  0  0  0  0  0  0  0  0
   39.0921   35.7075   39.2518 H   0  0  0  0  0  0  0  0  0  0  0  0
   37.6906   31.9082   40.4481 H   0  0  0  0  0  0  0  0  0  0  0  0
   48.2126   34.1788   44.4116 H   0  0  0  0  0  0  0  0  0  0  0  0
   47.5403   30.6758   46.0996 H   0  0  0  0  0  0  0  0  0  0  0  0
   46.6000   28.8536   47.4720 H   0  0  0  0  0  0  0  0  0  0  0  0
   44.8212   29.2638   49.1401 H   0  0  0  0  0  0  0  0  0  0  0  0
   43.9555   31.6005   49.4353 H   0  0  0  0  0  0  0  0  0  0  0  0
   44.8965   33.4395   48.0622 H   0  0  0  0  0  0  0  0  0  0  0  0
  1 12  1  0
  2  3  2  0
  3  1  1  0
  4  5  1  0
  4  2  1  0
  7  5  1  0
  7  6  2  0
  8  7  1  0
  9  8  2  0
  9 10  1  0
 10 11  2  0
 11  6  1  0
 14 13  2  0
 14 12  1  0
 14 16  1  0
 15 14  1  0
 16 17  1  0
 17 22  1  0
 18 17  2  0
 18 19  1  0
 19 20  2  0
 20 21  1  0
 22 21  2  0
  1 23  1  0
  1 24  1  0
  2 25  1  0
  3 26  1  0
  5 27  1  0
  5 28  1  0
  6 29  1  0
  8 30  1  0
 10 31  1  0
 15 32  1  0
 18 33  1  0
 19 34  1  0
 20 35  1  0
 21 36  1  0
 22 37  1  0
M  ISO  8  23   8  24   8  27   8  28   8  29  14  30  14  31  14  32   3
M  ISO  5  33  14  34  14  35  14  36  14  37  14
M  END
>  <minimizedAffinity>  (1) 
-5.4567914

>  <minimizedRMSD>  (1) 
0.720001459

$$$$
