
     RDKit          3D

 44 46  0  0  0  0  0  0  0  0999 V2000
   42.8300   35.4500   40.6720 O   0  0  0  0  0  0  0  0  0  0  0  0
   41.5920   35.6730   41.1940 C   0  0  0  0  0  0  0  0  0  0  0  0
   41.0610   33.2870   41.2540 C   0  0  0  0  0  0  0  0  0  0  0  0
   40.6200   34.5760   40.8790 C   0  0  0  0  0  0  0  0  0  0  0  0
   39.3980   34.6770   40.2970 C   0  0  0  0  0  0  0  0  0  0  0  0
   38.7090   33.5550   40.1260 N   0  0  0  0  0  0  0  0  0  0  0  0
   39.1100   32.3490   40.4730 C   0  0  0  0  0  0  0  0  0  0  0  0
   40.3530   32.1630   41.0750 N   0  0  0  0  0  0  0  0  0  0  0  0
   39.4470   31.0870   37.7470 Cl  0  0  0  0  0  0  0  0  0  0  0  0
   38.4060   30.5210   39.0340 C   0  0  0  0  0  0  0  0  0  0  0  0
   38.3010   31.1490   40.2570 C   0  0  0  0  0  0  0  0  0  0  0  0
   37.4570   30.6420   41.2230 C   0  0  0  0  0  0  0  0  0  0  0  0
   36.7060   29.5260   41.0150 C   0  0  0  0  0  0  0  0  0  0  0  0
   36.8060   28.8880   39.7870 C   0  0  0  0  0  0  0  0  0  0  0  0
   37.6480   29.3770   38.7970 C   0  0  0  0  0  0  0  0  0  0  0  0
   44.0400   35.3680   41.3470 C   0  0  0  0  0  0  0  0  0  0  0  0
   44.0010   35.6140   42.6520 C   0  0  0  0  0  0  0  0  0  0  0  0
   45.1900   35.5810   43.5910 C   0  0  0  0  0  0  0  0  0  0  0  0
   44.9380   34.6130   44.5410 O   0  0  0  0  0  0  0  0  0  0  0  0
   45.5650   32.4760   43.0770 O   0  0  0  0  0  0  0  0  0  0  0  0
   45.9320   33.2710   44.3080 P   0  0  1  0  0  0  0  0  0  0  0  0
   47.5490   33.7770   44.1040 O   0  0  0  0  0  0  0  0  0  0  0  0
   45.8980   32.2780   45.6700 O   0  0  0  0  0  0  0  0  0  0  0  0
   46.1970   32.9590   46.8280 C   0  0  0  0  0  0  0  0  0  0  0  0
   47.0730   32.3080   47.8550 C   0  0  0  0  0  0  0  0  0  0  0  0
   45.5840   32.4180   48.0940 C   0  0  0  0  0  0  0  0  0  0  0  0
   41.6822   35.7590   42.2869 H   0  0  0  0  0  0  0  0  0  0  0  0
   41.2044   36.5976   40.7413 H   0  0  0  0  0  0  0  0  0  0  0  0
   42.0516   33.2001   41.7243 H   0  0  0  0  0  0  0  0  0  0  0  0
   38.9945   35.6498   39.9796 H   0  0  0  0  0  0  0  0  0  0  0  0
   37.3886   31.1563   42.1930 H   0  0  0  0  0  0  0  0  0  0  0  0
   36.0379   29.1404   41.7992 H   0  0  0  0  0  0  0  0  0  0  0  0
   36.2106   27.9832   39.5952 H   0  0  0  0  0  0  0  0  0  0  0  0
   37.7162   28.8618   37.8275 H   0  0  0  0  0  0  0  0  0  0  0  0
   44.9776   35.1139   40.8310 H   0  0  0  0  0  0  0  0  0  0  0  0
   43.0223   35.8628   43.0881 H   0  0  0  0  0  0  0  0  0  0  0  0
   46.1038   35.3306   43.0321 H   0  0  0  0  0  0  0  0  0  0  0  0
   45.3377   36.5623   44.0657 H   0  0  0  0  0  0  0  0  0  0  0  0
   47.9682   33.9082   44.9912 H   0  0  0  0  0  0  0  0  0  0  0  0
   46.2268   33.9302   46.3124 H   0  0  0  0  0  0  0  0  0  0  0  0
   47.5258   31.3269   47.6491 H   0  0  0  0  0  0  0  0  0  0  0  0
   47.9738   32.6074   48.4109 H   0  0  0  0  0  0  0  0  0  0  0  0
   45.1978   33.1084   48.8583 H   0  0  0  0  0  0  0  0  0  0  0  0
   44.7767   31.7089   48.3293 H   0  0  0  0  0  0  0  0  0  0  0  0
  1  2  1  0
  1 16  1  0
  4  2  1  0
  4  3  2  0
  5  4  1  0
  6  5  2  0
  6  7  1  0
  7  8  2  0
  8  3  1  0
  9 10  1  0
 10 11  2  0
 11  7  1  0
 11 12  1  0
 13 12  2  0
 14 13  1  0
 15 10  1  0
 15 14  2  0
 16 17  2  0
 17 18  1  0
 18 19  1  0
 21 20  2  0
 21 19  1  0
 21 23  1  0
 22 21  1  0
 23 24  1  0
 24 25  1  0
 24 26  1  0
 25 26  1  0
  2 27  1  0
  2 28  1  0
  3 29  1  0
  5 30  1  0
 12 31  1  0
 13 32  1  0
 14 33  1  0
 15 34  1  0
 16 35  1  0
 17 36  1  0
 18 37  1  0
 18 38  1  0
 22 39  1  0
 24 40  1  0
 25 41  1  0
 25 42  1  0
 26 43  1  0
 26 44  1  0
M  ISO  8  27   8  28   8  29  14  30  14  31  14  32  14  33  14  34  14
M  ISO  8  37   8  38   8  39   3  40  13  41  13  42  13  43  13  44  13
M  END
>  <minimizedAffinity>  (1) 
-5.40793085

>  <minimizedRMSD>  (1) 
0.820950806

$$$$
