
     RDKit          3D

 48 50  0  0  0  0  0  0  0  0999 V2000
   41.3010   35.5510   41.2460 C   0  0  0  0  0  0  0  0  0  0  0  0
   40.6010   33.2630   41.6790 C   0  0  0  0  0  0  0  0  0  0  0  0
   40.3130   34.4520   40.9990 C   0  0  0  0  0  0  0  0  0  0  0  0
   39.2090   34.5150   40.2260 C   0  0  0  0  0  0  0  0  0  0  0  0
   38.4610   33.4100   40.1730 N   0  0  0  0  0  0  0  0  0  0  0  0
   38.7100   32.2760   40.8050 C   0  0  0  0  0  0  0  0  0  0  0  0
   39.8400   32.1550   41.6190 N   0  0  0  0  0  0  0  0  0  0  0  0
   37.8660   31.0530   40.7370 C   0  0  0  0  0  0  0  0  0  0  0  0
   38.3160   30.0380   41.7950 C   0  0  0  0  0  0  0  0  0  0  0  0
   37.7940   28.6700   41.5040 C   0  0  0  0  0  0  0  0  0  0  0  0
   36.7330   28.7790   40.6190 O   0  0  0  0  0  0  0  0  0  0  0  0
   37.3180   29.0790   39.3740 C   0  0  0  0  0  0  0  0  0  0  0  0
   38.0090   30.4050   39.3850 C   0  0  0  0  0  0  0  0  0  0  0  0
   42.4830   35.3890   40.6010 O   0  0  0  0  0  0  0  0  0  0  0  0
   43.7510   35.3330   41.1520 C   0  0  0  0  0  0  0  0  0  0  0  0
   43.8490   35.5930   42.4500 C   0  0  0  0  0  0  0  0  0  0  0  0
   45.1270   35.5890   43.2680 C   0  0  0  0  0  0  0  0  0  0  0  0
   44.9570   34.6800   44.2940 O   0  0  0  0  0  0  0  0  0  0  0  0
   45.6900   32.5670   42.8470 O   0  0  0  0  0  0  0  0  0  0  0  0
   45.9820   33.3540   44.1030 P   0  0  1  0  0  0  0  0  0  0  0  0
   47.6020   33.8720   43.9960 O   0  0  0  0  0  0  0  0  0  0  0  0
   45.8790   32.3470   45.4530 O   0  0  0  0  0  0  0  0  0  0  0  0
   46.1560   33.0140   46.6310 C   0  0  0  0  0  0  0  0  0  0  0  0
   47.0380   32.3530   47.6430 C   0  0  0  0  0  0  0  0  0  0  0  0
   45.5360   32.4050   47.8680 C   0  0  0  0  0  0  0  0  0  0  0  0
   40.8532   36.4991   40.9134 H   0  0  0  0  0  0  0  0  0  0  0  0
   41.5237   35.5408   42.3232 H   0  0  0  0  0  0  0  0  0  0  0  0
   41.5070   33.2325   42.3020 H   0  0  0  0  0  0  0  0  0  0  0  0
   38.9401   35.4256   39.6705 H   0  0  0  0  0  0  0  0  0  0  0  0
   36.8212   31.3480   40.9142 H   0  0  0  0  0  0  0  0  0  0  0  0
   39.4153   30.0041   41.8118 H   0  0  0  0  0  0  0  0  0  0  0  0
   37.9169   30.3577   42.7689 H   0  0  0  0  0  0  0  0  0  0  0  0
   38.5898   28.0579   41.0545 H   0  0  0  0  0  0  0  0  0  0  0  0
   37.4579   28.1908   42.4353 H   0  0  0  0  0  0  0  0  0  0  0  0
   36.5305   29.0953   38.6062 H   0  0  0  0  0  0  0  0  0  0  0  0
   38.0696   28.3059   39.1565 H   0  0  0  0  0  0  0  0  0  0  0  0
   39.0764   30.2607   39.1620 H   0  0  0  0  0  0  0  0  0  0  0  0
   37.5518   31.0551   38.6245 H   0  0  0  0  0  0  0  0  0  0  0  0
   44.6340   35.0853   40.5446 H   0  0  0  0  0  0  0  0  0  0  0  0
   42.9169   35.8338   42.9822 H   0  0  0  0  0  0  0  0  0  0  0  0
   45.9766   35.2893   42.6369 H   0  0  0  0  0  0  0  0  0  0  0  0
   45.3356   36.5922   43.6681 H   0  0  0  0  0  0  0  0  0  0  0  0
   47.9715   33.9902   44.9068 H   0  0  0  0  0  0  0  0  0  0  0  0
   46.1718   34.0041   46.1521 H   0  0  0  0  0  0  0  0  0  0  0  0
   47.5253   31.3958   47.4057 H   0  0  0  0  0  0  0  0  0  0  0  0
   47.9214   32.6599   48.2222 H   0  0  0  0  0  0  0  0  0  0  0  0
   45.1171   33.0529   48.6520 H   0  0  0  0  0  0  0  0  0  0  0  0
   44.7478   31.6633   48.0644 H   0  0  0  0  0  0  0  0  0  0  0  0
  3  1  1  0
  3  2  2  0
  4  3  1  0
  5  4  2  0
  5  6  1  0
  6  7  2  0
  7  2  1  0
  8  6  1  0
  8  9  1  0
 10  9  1  0
 11 10  1  0
 12 13  1  0
 12 11  1  0
 13  8  1  0
 14 15  1  0
 14  1  1  0
 15 16  2  0
 16 17  1  0
 17 18  1  0
 20 19  2  0
 20 18  1  0
 20 22  1  0
 21 20  1  0
 22 23  1  0
 23 24  1  0
 23 25  1  0
 24 25  1  0
  1 26  1  0
  1 27  1  0
  2 28  1  0
  4 29  1  0
  8 30  1  0
  9 31  1  0
  9 32  1  0
 10 33  1  0
 10 34  1  0
 12 35  1  0
 12 36  1  0
 13 37  1  0
 13 38  1  0
 15 39  1  0
 16 40  1  0
 17 41  1  0
 17 42  1  0
 21 43  1  0
 23 44  1  0
 24 45  1  0
 24 46  1  0
 25 47  1  0
 25 48  1  0
M  ISO  8  26   8  27   8  28  14  29  14  30  13  31  13  32  13  33  13
M  ISO  8  34  13  35  13  36  13  37  13  38  13  41   8  42   8  43   3
M  ISO  5  44  13  45  13  46  13  47  13  48  13
M  END
>  <minimizedAffinity>  (1) 
-5.24708366

>  <minimizedRMSD>  (1) 
0.840611875

$$$$
