
     RDKit          3D

 47 50  0  0  0  0  0  0  0  0999 V2000
   41.1610   35.5760   41.3810 C   0  0  0  0  0  0  0  0  0  0  0  0
   40.5860   33.2400   41.7560 C   0  0  0  0  0  0  0  0  0  0  0  0
   40.2610   34.4060   41.0800 C   0  0  0  0  0  0  0  0  0  0  0  0
   39.1930   34.4190   40.2440 C   0  0  0  0  0  0  0  0  0  0  0  0
   38.5210   33.2770   40.1360 N   0  0  0  0  0  0  0  0  0  0  0  0
   38.8070   32.1410   40.7720 C   0  0  0  0  0  0  0  0  0  0  0  0
   39.9000   32.1010   41.6360 N   0  0  0  0  0  0  0  0  0  0  0  0
   38.0080   30.9760   40.5750 N   0  0  0  0  0  0  0  0  0  0  0  0
   37.1270   30.3550   41.3800 C   0  0  0  0  0  0  0  0  0  0  0  0
   36.6110   29.2690   40.7440 N   0  0  0  0  0  0  0  0  0  0  0  0
   37.1740   29.2070   39.5230 C   0  0  0  0  0  0  0  0  0  0  0  0
   37.0530   28.3490   38.4500 C   0  0  0  0  0  0  0  0  0  0  0  0
   37.7370   28.4870   37.2970 N   0  0  0  0  0  0  0  0  0  0  0  0
   38.5810   29.5370   37.2240 C   0  0  0  0  0  0  0  0  0  0  0  0
   38.7160   30.3860   38.2590 N   0  0  0  0  0  0  0  0  0  0  0  0
   38.0500   30.2790   39.4230 C   0  0  0  0  0  0  0  0  0  0  0  0
   42.3340   35.5670   40.7060 O   0  0  0  0  0  0  0  0  0  0  0  0
   43.6300   35.4330   41.1860 C   0  0  0  0  0  0  0  0  0  0  0  0
   43.7670   35.6390   42.4940 C   0  0  0  0  0  0  0  0  0  0  0  0
   45.0660   35.5590   43.2650 C   0  0  0  0  0  0  0  0  0  0  0  0
   44.9090   34.6610   44.2910 O   0  0  0  0  0  0  0  0  0  0  0  0
   45.6670   32.5670   42.8370 O   0  0  0  0  0  0  0  0  0  0  0  0
   45.9540   33.3520   44.0930 P   0  0  1  0  0  0  0  0  0  0  0  0
   47.5660   33.9000   43.9820 O   0  0  0  0  0  0  0  0  0  0  0  0
   45.8680   32.3420   45.4400 O   0  0  0  0  0  0  0  0  0  0  0  0
   46.1510   33.0090   46.6180 C   0  0  0  0  0  0  0  0  0  0  0  0
   47.0390   32.3540   47.6300 C   0  0  0  0  0  0  0  0  0  0  0  0
   45.5430   32.3950   47.8580 C   0  0  0  0  0  0  0  0  0  0  0  0
   40.6225   36.4997   41.1227 H   0  0  0  0  0  0  0  0  0  0  0  0
   41.4132   35.5114   42.4497 H   0  0  0  0  0  0  0  0  0  0  0  0
   41.4568   33.2541   42.4280 H   0  0  0  0  0  0  0  0  0  0  0  0
   38.9000   35.3217   39.6879 H   0  0  0  0  0  0  0  0  0  0  0  0
   36.8638   30.6768   42.3984 H   0  0  0  0  0  0  0  0  0  0  0  0
   36.3571   27.5020   38.5406 H   0  0  0  0  0  0  0  0  0  0  0  0
   39.1660   29.7010   36.3070 H   0  0  0  0  0  0  0  0  0  0  0  0
   43.9732   34.4120   40.9630 H   0  0  0  0  0  0  0  0  0  0  0  0
   44.2260   36.2112   40.6869 H   0  0  0  0  0  0  0  0  0  0  0  0
   43.3870   36.6563   42.6694 H   0  0  0  0  0  0  0  0  0  0  0  0
   43.2562   34.7463   42.8841 H   0  0  0  0  0  0  0  0  0  0  0  0
   45.8733   35.2227   42.5978 H   0  0  0  0  0  0  0  0  0  0  0  0
   45.3270   36.5490   43.6673 H   0  0  0  0  0  0  0  0  0  0  0  0
   47.9353   34.0255   44.8919 H   0  0  0  0  0  0  0  0  0  0  0  0
   46.1613   33.9983   46.1371 H   0  0  0  0  0  0  0  0  0  0  0  0
   47.5325   31.4001   47.3923 H   0  0  0  0  0  0  0  0  0  0  0  0
   47.9212   32.6676   48.2074 H   0  0  0  0  0  0  0  0  0  0  0  0
   45.1220   33.0398   48.6435 H   0  0  0  0  0  0  0  0  0  0  0  0
   44.7618   31.6466   48.0572 H   0  0  0  0  0  0  0  0  0  0  0  0
  3  1  1  0
  3  2  2  0
  4  3  1  0
  5  4  2  0
  5  6  1  0
  6  7  2  0
  7  2  1  0
  8  6  1  0
  8  9  1  0
 10  9  2  0
 11 10  1  0
 12 11  2  0
 13 12  1  0
 14 13  2  0
 14 15  1  0
 15 16  2  0
 16 11  1  0
 16  8  1  0
 17 18  1  0
 17  1  1  0
 18 19  1  0
 19 20  1  0
 20 21  1  0
 23 22  2  0
 23 21  1  0
 23 25  1  0
 24 23  1  0
 25 26  1  0
 26 27  1  0
 26 28  1  0
 27 28  1  0
  1 29  1  0
  1 30  1  0
  2 31  1  0
  4 32  1  0
  9 33  1  0
 12 34  1  0
 14 35  1  0
 18 36  1  0
 18 37  1  0
 19 38  1  0
 19 39  1  0
 20 40  1  0
 20 41  1  0
 24 42  1  0
 26 43  1  0
 27 44  1  0
 27 45  1  0
 28 46  1  0
 28 47  1  0
M  ISO  8  29   8  30   8  31  14  32  14  33  14  34  14  35  14  36   8
M  ISO  8  37   8  38   8  39   8  40   8  41   8  42   3  43  13  44  13
M  ISO  3  45  13  46  13  47  13
M  END
>  <minimizedAffinity>  (1) 
-5.56537914

>  <minimizedRMSD>  (1) 
0.840602279

$$$$
