
     RDKit          3D

 24 25  0  0  0  0  0  0  0  0999 V2000
   45.0160   37.5570   43.2120 C   0  0  0  0  0  0  0  0  0  0  0  0
   45.4200   38.3900   44.1640 C   0  0  0  0  0  0  0  0  0  0  0  0
   45.0850   36.1120   43.5280 C   0  0  0  0  0  0  0  0  0  0  0  0
   45.2810   35.1690   42.4950 C   0  0  0  0  0  0  0  0  0  0  0  0
   45.3410   33.8300   42.8450 C   0  0  0  0  0  0  0  0  0  0  0  0
   45.2100   33.5080   44.1460 N   0  0  0  0  0  0  0  0  0  0  0  0
   45.0210   34.4220   45.1370 C   0  0  0  0  0  0  0  0  0  0  0  0
   44.9630   35.7080   44.8040 N   0  0  0  0  0  0  0  0  0  0  0  0
   45.3710   39.8540   43.9090 C   0  0  0  0  0  0  0  0  0  0  0  0
   44.9350   40.6100   45.0880 C   0  0  0  0  0  0  0  0  0  0  0  0
   44.3460   41.8490   45.2240 C   0  0  0  0  0  0  0  0  0  0  0  0
   44.1210   42.1290   46.5630 C   0  0  0  0  0  0  0  0  0  0  0  0
   44.5830   41.0360   47.2130 N   0  0  0  0  0  0  0  0  0  0  0  0
   45.0520   40.1590   46.3650 N   0  0  0  0  0  0  0  0  0  0  0  0
   44.6497   37.9209   42.2407 H   0  0  0  0  0  0  0  0  0  0  0  0
   45.7853   38.0028   45.1266 H   0  0  0  0  0  0  0  0  0  0  0  0
   45.3827   35.4873   41.4470 H   0  0  0  0  0  0  0  0  0  0  0  0
   45.4914   33.0520   42.0820 H   0  0  0  0  0  0  0  0  0  0  0  0
   44.9190   34.1051   46.1854 H   0  0  0  0  0  0  0  0  0  0  0  0
   46.3757   40.1967   43.6207 H   0  0  0  0  0  0  0  0  0  0  0  0
   44.6403   40.0315   43.1062 H   0  0  0  0  0  0  0  0  0  0  0  0
   44.0911   42.5192   44.3898 H   0  0  0  0  0  0  0  0  0  0  0  0
   43.6699   43.0332   46.9977 H   0  0  0  0  0  0  0  0  0  0  0  0
   44.5673   40.9121   48.2354 H   0  0  0  0  0  0  0  0  0  0  0  0
  1  3  1  0
  1  2  2  0
  3  8  2  0
  4  5  2  0
  4  3  1  0
  5  6  1  0
  6  7  2  0
  8  7  1  0
  9  2  1  0
  9 10  1  0
 10 11  1  0
 10 14  2  0
 11 12  2  0
 12 13  1  0
 14 13  1  0
  1 15  1  0
  2 16  1  0
  4 17  1  0
  5 18  1  0
  7 19  1  0
  9 20  1  0
  9 21  1  0
 11 22  1  0
 12 23  1  0
 13 24  1  0
M  ISO  8  17  14  18  14  19  14  20   8  21   8  22  14  23  14  24   9
M  END
>  <minimizedAffinity>  (1) 
-4.09041643

>  <minimizedRMSD>  (1) 
1.8524307

$$$$
