
     RDKit          3D

 42 43  0  0  0  0  0  0  0  0999 V2000
   44.9810   34.9270   41.8750 C   0  0  0  0  0  0  0  0  0  0  0  0
   44.4920   35.0620   43.1150 C   0  0  0  0  0  0  0  0  0  0  0  0
   45.3610   35.0920   44.3560 C   0  0  0  0  0  0  0  0  0  0  0  0
   45.1630   33.9010   45.0240 O   0  0  0  0  0  0  0  0  0  0  0  0
   45.9910   31.8720   43.5120 O   0  0  0  0  0  0  0  0  0  0  0  0
   46.3750   32.8060   44.6490 P   0  0  1  0  0  0  0  0  0  0  0  0
   47.7700   33.6490   44.1250 O   0  0  0  0  0  0  0  0  0  0  0  0
   46.8380   31.9120   45.9850 O   0  0  0  0  0  0  0  0  0  0  0  0
   46.9070   32.6870   47.1410 C   0  0  0  0  0  0  0  0  0  0  0  0
   47.6300   32.0810   48.3180 C   0  0  0  0  0  0  0  0  0  0  0  0
   46.1100   32.2050   48.3100 C   0  0  0  0  0  0  0  0  0  0  0  0
   44.0380   34.9280   40.8670 O   0  0  0  0  0  0  0  0  0  0  0  0
   43.0020   35.7630   40.6440 C   0  0  0  0  0  0  0  0  0  0  0  0
   41.0610   34.7150   41.7240 C   0  0  0  0  0  0  0  0  0  0  0  0
   41.6720   35.0400   40.5190 C   0  0  0  0  0  0  0  0  0  0  0  0
   41.0590   34.7130   39.3470 C   0  0  0  0  0  0  0  0  0  0  0  0
   39.8970   34.0930   39.4510 N   0  0  0  0  0  0  0  0  0  0  0  0
   39.3120   33.7830   40.5840 C   0  0  0  0  0  0  0  0  0  0  0  0
   39.8900   34.0910   41.8000 N   0  0  0  0  0  0  0  0  0  0  0  0
   38.0310   33.1230   40.5780 N   0  0  0  0  0  0  0  0  0  0  0  0
   41.7450   35.0710   38.0840 C   0  0  0  0  0  0  0  0  0  0  0  0
   41.1820   36.3200   37.4350 C   0  0  0  0  0  0  0  0  0  0  0  0
   46.0575   34.8228   41.6744 H   0  0  0  0  0  0  0  0  0  0  0  0
   43.4030   35.1560   43.2387 H   0  0  0  0  0  0  0  0  0  0  0  0
   46.4190   35.1933   44.0724 H   0  0  0  0  0  0  0  0  0  0  0  0
   45.0965   35.9465   44.9963 H   0  0  0  0  0  0  0  0  0  0  0  0
   48.2834   33.9592   44.9126 H   0  0  0  0  0  0  0  0  0  0  0  0
   46.9839   33.6394   46.5959 H   0  0  0  0  0  0  0  0  0  0  0  0
   48.1044   31.0928   48.2261 H   0  0  0  0  0  0  0  0  0  0  0  0
   48.4387   32.4025   48.9908 H   0  0  0  0  0  0  0  0  0  0  0  0
   45.6135   32.9285   48.9733 H   0  0  0  0  0  0  0  0  0  0  0  0
   45.2714   31.5061   48.4452 H   0  0  0  0  0  0  0  0  0  0  0  0
   42.9375   36.4728   41.4819 H   0  0  0  0  0  0  0  0  0  0  0  0
   43.1904   36.2722   39.6873 H   0  0  0  0  0  0  0  0  0  0  0  0
   41.5710   34.9872   42.6598 H   0  0  0  0  0  0  0  0  0  0  0  0
   37.5726   32.8801   41.4678 H   0  0  0  0  0  0  0  0  0  0  0  0
   37.5737   32.8942   39.6839 H   0  0  0  0  0  0  0  0  0  0  0  0
   42.8106   35.2384   38.2996 H   0  0  0  0  0  0  0  0  0  0  0  0
   41.5930   34.2389   37.3808 H   0  0  0  0  0  0  0  0  0  0  0  0
   40.8634   37.0269   38.2153 H   0  0  0  0  0  0  0  0  0  0  0  0
   41.9559   36.7888   36.8094 H   0  0  0  0  0  0  0  0  0  0  0  0
   40.3182   36.0506   36.8094 H   0  0  0  0  0  0  0  0  0  0  0  0
  1  2  2  0
  2  3  1  0
  3  4  1  0
  6  5  2  0
  6  4  1  0
  6  8  1  0
  7  6  1  0
  8  9  1  0
  9 11  1  0
  9 10  1  0
 11 10  1  0
 12  1  1  0
 13 12  1  0
 14 19  2  0
 15 13  1  0
 15 14  1  0
 16 17  1  0
 16 15  2  0
 17 18  2  0
 18 19  1  0
 20 18  1  0
 21 16  1  0
 22 21  1  0
  1 23  1  0
  2 24  1  0
  3 25  1  0
  3 26  1  0
  7 27  1  0
  9 28  1  0
 10 29  1  0
 10 30  1  0
 11 31  1  0
 11 32  1  0
 13 33  1  0
 13 34  1  0
 14 35  1  0
 20 36  1  0
 20 37  1  0
 21 38  1  0
 21 39  1  0
 22 40  1  0
 22 41  1  0
 22 42  1  0
M  ISO  8  25   8  26   8  27   3  28  13  29  13  30  13  31  13  32  13
M  ISO  8  33   8  34   8  35  14  38   8  39   8  40   8  41   8  42   8
M  END
>  <minimizedAffinity>  (1) 
-4.99227571

>  <minimizedRMSD>  (1) 
1.45032811

$$$$
