
     RDKit          3D

 29 30  0  0  1  0  0  0  0  0999 V2000
   47.1440   33.5840   44.1360 C   0  0  0  0  0  0  0  0  0  0  0  0
   44.7470   36.2040   43.4350 C   0  0  1  0  0  0  0  0  0  0  0  0
   45.9350   35.4050   42.8820 C   0  0  0  0  0  0  0  0  0  0  0  0
   45.8000   34.1440   43.6650 C   0  0  2  0  0  0  0  0  0  0  0  0
   44.9330   34.3410   44.7060 O   0  0  0  0  0  0  0  0  0  0  0  0
   44.6970   35.6860   44.8510 C   0  0  0  0  0  0  0  0  0  0  0  0
   45.0330   37.5680   43.3780 O   0  0  0  0  0  0  0  0  0  0  0  0
   48.6530   32.1490   42.8400 C   0  0  0  0  0  0  0  0  0  0  0  0
   48.0370   33.3090   42.9920 C   0  0  0  0  0  0  0  0  0  0  0  0
   49.5190   31.9560   41.6840 C   0  0  0  0  0  0  0  0  0  0  0  0
   50.9050   31.8950   41.9280 C   0  0  0  0  0  0  0  0  0  0  0  0
   51.7760   31.7100   40.8420 C   0  0  0  0  0  0  0  0  0  0  0  0
   51.2250   31.5980   39.6020 N   0  0  0  0  0  0  0  0  0  0  0  0
   49.8900   31.6620   39.4100 C   0  0  0  0  0  0  0  0  0  0  0  0
   49.0650   31.8380   40.4410 N   0  0  0  0  0  0  0  0  0  0  0  0
   47.6258   34.3172   44.7995 H   0  0  0  0  0  0  0  0  0  0  0  0
   46.9607   32.6401   44.6703 H   0  0  0  0  0  0  0  0  0  0  0  0
   43.7958   36.0894   42.8946 H   0  0  0  0  0  0  0  0  0  0  0  0
   45.8359   35.2249   41.8014 H   0  0  0  0  0  0  0  0  0  0  0  0
   46.9100   35.9046   42.9808 H   0  0  0  0  0  0  0  0  0  0  0  0
   45.3865   33.3750   42.9960 H   0  0  0  0  0  0  0  0  0  0  0  0
   45.4742   36.1575   45.4704 H   0  0  0  0  0  0  0  0  0  0  0  0
   43.7433   35.9030   45.3544 H   0  0  0  0  0  0  0  0  0  0  0  0
   45.1085   37.9280   44.2971 H   0  0  0  0  0  0  0  0  0  0  0  0
   48.5140   31.3422   43.5747 H   0  0  0  0  0  0  0  0  0  0  0  0
   48.1950   34.0966   42.2405 H   0  0  0  0  0  0  0  0  0  0  0  0
   51.2981   31.9906   42.9509 H   0  0  0  0  0  0  0  0  0  0  0  0
   52.8650   31.6574   40.9880 H   0  0  0  0  0  0  0  0  0  0  0  0
   49.4802   31.5680   38.3935 H   0  0  0  0  0  0  0  0  0  0  0  0
  2  7  1  0
  2  6  1  0
  3  2  1  0
  3  4  1  0
  4  1  1  0
  4  5  1  0
  5  6  1  0
  8  9  2  0
  9  1  1  0
 10 11  2  0
 10  8  1  0
 12 11  1  0
 13 12  2  0
 14 13  1  0
 14 15  2  0
 15 10  1  0
  1 16  1  0
  1 17  1  0
  2 18  1  6
  3 19  1  0
  3 20  1  0
  4 21  1  6
  6 22  1  0
  6 23  1  0
  7 24  1  0
  8 25  1  0
  9 26  1  0
 11 27  1  0
 12 28  1  0
 14 29  1  0
M  ISO  8  16   8  17   8  18  13  19  13  20  13  21  13  22  13  23  13
M  ISO  4  24   3  27  14  28  14  29  14
M  END
>  <minimizedAffinity>  (1) 
-4.1523037

>  <minimizedRMSD>  (1) 
6.156775

$$$$
