
     RDKit          3D

 38 39  0  0  0  0  0  0  0  0999 V2000
   44.2040   34.7230   40.8090 C   0  0  0  0  0  0  0  0  0  0  0  0
   44.1040   35.3970   41.9490 C   0  0  0  0  0  0  0  0  0  0  0  0
   45.1810   35.4290   43.0110 C   0  0  0  0  0  0  0  0  0  0  0  0
   44.8450   34.5030   43.9690 O   0  0  0  0  0  0  0  0  0  0  0  0
   45.9130   32.3710   42.7750 O   0  0  0  0  0  0  0  0  0  0  0  0
   45.9650   33.2550   44.0110 P   0  0  1  0  0  0  0  0  0  0  0  0
   47.5430   33.9130   44.0560 O   0  0  0  0  0  0  0  0  0  0  0  0
   45.8030   32.3150   45.3890 O   0  0  0  0  0  0  0  0  0  0  0  0
   46.0430   33.0440   46.5490 C   0  0  0  0  0  0  0  0  0  0  0  0
   47.0050   32.4250   47.5390 C   0  0  0  0  0  0  0  0  0  0  0  0
   45.5090   32.4840   47.8290 C   0  0  0  0  0  0  0  0  0  0  0  0
   43.1340   34.8060   39.9550 O   0  0  0  0  0  0  0  0  0  0  0  0
   41.9410   35.4280   40.1140 C   0  0  0  0  0  0  0  0  0  0  0  0
   40.6570   33.9070   41.5270 C   0  0  0  0  0  0  0  0  0  0  0  0
   40.7820   34.4930   40.2700 C   0  0  0  0  0  0  0  0  0  0  0  0
   39.8620   34.1710   39.3090 C   0  0  0  0  0  0  0  0  0  0  0  0
   38.9140   33.3150   39.6520 N   0  0  0  0  0  0  0  0  0  0  0  0
   38.7940   32.7610   40.8380 C   0  0  0  0  0  0  0  0  0  0  0  0
   39.6860   33.0400   41.8560 N   0  0  0  0  0  0  0  0  0  0  0  0
   37.7210   31.8480   41.0870 N   0  0  0  0  0  0  0  0  0  0  0  0
   40.0320   34.7880   38.0620 N   0  0  0  0  0  0  0  0  0  0  0  0
   45.0972   34.1300   40.5629 H   0  0  0  0  0  0  0  0  0  0  0  0
   43.1813   35.9671   42.1323 H   0  0  0  0  0  0  0  0  0  0  0  0
   46.1542   35.1732   42.5666 H   0  0  0  0  0  0  0  0  0  0  0  0
   45.2586   36.4331   43.4535 H   0  0  0  0  0  0  0  0  0  0  0  0
   47.8248   34.0305   44.9977 H   0  0  0  0  0  0  0  0  0  0  0  0
   45.9638   34.0186   46.0451 H   0  0  0  0  0  0  0  0  0  0  0  0
   47.4868   31.4622   47.3135 H   0  0  0  0  0  0  0  0  0  0  0  0
   47.9173   32.7558   48.0569 H   0  0  0  0  0  0  0  0  0  0  0  0
   45.1262   33.1603   48.6075 H   0  0  0  0  0  0  0  0  0  0  0  0
   44.7386   31.7443   48.0922 H   0  0  0  0  0  0  0  0  0  0  0  0
   41.9980   36.0609   41.0119 H   0  0  0  0  0  0  0  0  0  0  0  0
   41.7603   36.0082   39.1971 H   0  0  0  0  0  0  0  0  0  0  0  0
   41.3979   34.1701   42.2963 H   0  0  0  0  0  0  0  0  0  0  0  0
   37.6216   31.4107   42.0142 H   0  0  0  0  0  0  0  0  0  0  0  0
   37.0479   31.6281   40.3390 H   0  0  0  0  0  0  0  0  0  0  0  0
   40.8140   35.4417   37.9132 H   0  0  0  0  0  0  0  0  0  0  0  0
   39.3750   34.5877   37.2945 H   0  0  0  0  0  0  0  0  0  0  0  0
  1  2  2  0
  2  3  1  0
  3  4  1  0
  4  6  1  0
  6  5  2  0
  6  7  1  0
  6  8  1  0
  8  9  1  0
  9 10  1  0
  9 11  1  0
 10 11  1  0
 12 13  1  0
 12  1  1  0
 13 15  1  0
 14 19  2  0
 15 14  1  0
 16 17  1  0
 16 15  2  0
 17 18  2  0
 18 20  1  0
 18 19  1  0
 21 16  1  0
  1 22  1  0
  2 23  1  0
  3 24  1  0
  3 25  1  0
  7 26  1  0
  9 27  1  0
 10 28  1  0
 10 29  1  0
 11 30  1  0
 11 31  1  0
 13 32  1  0
 13 33  1  0
 14 34  1  0
 20 35  1  0
 20 36  1  0
 21 37  1  0
 21 38  1  0
M  ISO  8  24   8  25   8  26   3  27  13  28  13  29  13  30  13  31  13
M  ISO  3  32   8  33   8  34  14
M  END
>  <minimizedAffinity>  (1) 
-4.93801117

>  <minimizedRMSD>  (1) 
0.515662909

$$$$
