
     RDKit          3D

 24 25  0  0  0  0  0  0  0  0999 V2000
   46.3710   31.5410   45.3750 C   0  0  0  0  0  0  0  0  0  0  0  0
   46.1180   32.8170   45.1260 C   0  0  0  0  0  0  0  0  0  0  0  0
   47.1100   31.2490   46.6170 C   0  0  0  0  0  0  0  0  0  0  0  0
   47.6110   29.9350   46.8440 C   0  0  0  0  0  0  0  0  0  0  0  0
   48.2990   29.7160   48.0290 C   0  0  0  0  0  0  0  0  0  0  0  0
   48.4630   30.7410   48.9010 N   0  0  0  0  0  0  0  0  0  0  0  0
   47.9760   31.9780   48.6570 C   0  0  0  0  0  0  0  0  0  0  0  0
   47.3120   32.2170   47.5300 N   0  0  0  0  0  0  0  0  0  0  0  0
   45.3870   33.2730   43.9240 C   0  0  0  0  0  0  0  0  0  0  0  0
   45.1750   34.7630   43.9930 C   0  0  0  0  0  0  0  0  0  0  0  0
   44.6570   35.5020   45.0360 C   0  0  0  0  0  0  0  0  0  0  0  0
   44.6810   36.7630   44.5970 N   0  0  0  0  0  0  0  0  0  0  0  0
   45.1800   36.8690   43.3520 C   0  0  0  0  0  0  0  0  0  0  0  0
   45.4850   35.6060   42.9890 N   0  0  0  0  0  0  0  0  0  0  0  0
   46.0472   30.7420   44.6919 H   0  0  0  0  0  0  0  0  0  0  0  0
   46.4674   33.5718   45.8459 H   0  0  0  0  0  0  0  0  0  0  0  0
   47.4590   29.1286   46.1114 H   0  0  0  0  0  0  0  0  0  0  0  0
   48.7072   28.7207   48.2585 H   0  0  0  0  0  0  0  0  0  0  0  0
   48.1286   32.7849   49.3888 H   0  0  0  0  0  0  0  0  0  0  0  0
   44.4116   32.7668   43.8754 H   0  0  0  0  0  0  0  0  0  0  0  0
   45.9746   33.0300   43.0264 H   0  0  0  0  0  0  0  0  0  0  0  0
   44.3034   35.1350   46.0108 H   0  0  0  0  0  0  0  0  0  0  0  0
   44.3532   37.5669   45.1512 H   0  0  0  0  0  0  0  0  0  0  0  0
   45.3108   37.7862   42.7590 H   0  0  0  0  0  0  0  0  0  0  0  0
  1  3  1  0
  2  1  2  0
  3  4  2  0
  3  8  1  0
  4  5  1  0
  5  6  2  0
  7  6  1  0
  8  7  2  0
  9 10  1  0
  9  2  1  0
 10 11  2  0
 12 11  1  0
 13 12  1  0
 14 13  2  0
 14 10  1  0
  1 15  1  0
  2 16  1  0
  4 17  1  0
  5 18  1  0
  7 19  1  0
  9 20  1  0
  9 21  1  0
 11 22  1  0
 12 23  1  0
 13 24  1  0
M  ISO  8  17  14  18  14  19  14  20   8  21   8  22  14  23   9  24  14
M  END
>  <minimizedAffinity>  (1) 
-3.92341185

>  <minimizedRMSD>  (1) 
6.11885929

$$$$
