
     RDKit          3D

 26 27  0  0  0  0  0  0  0  0999 V2000
   46.8730   31.4340   46.9400 C   0  0  0  0  0  0  0  0  0  0  0  0
   45.9740   32.6240   46.8750 C   0  0  0  0  0  0  0  0  0  0  0  0
   45.1140   33.0290   47.8560 C   0  0  0  0  0  0  0  0  0  0  0  0
   44.5110   34.1330   47.3690 N   0  0  0  0  0  0  0  0  0  0  0  0
   44.9580   34.4370   46.1240 C   0  0  0  0  0  0  0  0  0  0  0  0
   45.8570   33.4820   45.8600 N   0  0  0  0  0  0  0  0  0  0  0  0
   44.5510   35.5490   45.2740 C   0  0  0  0  0  0  0  0  0  0  0  0
   45.0860   35.7300   44.1500 O   0  0  0  0  0  0  0  0  0  0  0  0
   48.6060   30.6070   48.4960 C   0  0  0  0  0  0  0  0  0  0  0  0
   47.8720   31.5980   48.0210 C   0  0  0  0  0  0  0  0  0  0  0  0
   49.5610   30.9310   49.5660 C   0  0  0  0  0  0  0  0  0  0  0  0
   49.8790   29.9390   50.5350 C   0  0  0  0  0  0  0  0  0  0  0  0
   50.7950   30.3040   51.5160 C   0  0  0  0  0  0  0  0  0  0  0  0
   51.3220   31.5540   51.4950 N   0  0  0  0  0  0  0  0  0  0  0  0
   50.9940   32.4680   50.5560 C   0  0  0  0  0  0  0  0  0  0  0  0
   50.1260   32.1400   49.6170 N   0  0  0  0  0  0  0  0  0  0  0  0
   47.3951   31.3216   45.9784 H   0  0  0  0  0  0  0  0  0  0  0  0
   46.2663   30.5404   47.1483 H   0  0  0  0  0  0  0  0  0  0  0  0
   44.9484   32.5555   48.8350 H   0  0  0  0  0  0  0  0  0  0  0  0
   43.8002   34.6773   47.8783 H   0  0  0  0  0  0  0  0  0  0  0  0
   43.7665   36.2383   45.6196 H   0  0  0  0  0  0  0  0  0  0  0  0
   48.5067   29.5828   48.1072 H   0  0  0  0  0  0  0  0  0  0  0  0
   48.0107   32.6003   48.4525 H   0  0  0  0  0  0  0  0  0  0  0  0
   49.4249   28.9374   50.5097 H   0  0  0  0  0  0  0  0  0  0  0  0
   51.0882   29.5887   52.2985 H   0  0  0  0  0  0  0  0  0  0  0  0
   51.4439   33.4716   50.5735 H   0  0  0  0  0  0  0  0  0  0  0  0
  1 10  1  0
  2  1  1  0
  2  3  2  0
  4  3  1  0
  5  4  1  0
  6  5  2  0
  6  2  1  0
  7  5  1  0
  8  7  2  0
  9 11  1  0
 10  9  2  0
 11 16  1  0
 11 12  2  0
 12 13  1  0
 14 13  2  0
 15 14  1  0
 16 15  2  0
  1 17  1  0
  1 18  1  0
  3 19  1  0
  4 20  1  0
  7 21  1  0
  9 22  1  0
 10 23  1  0
 12 24  1  0
 13 25  1  0
 15 26  1  0
M  ISO  8  17   8  18   8  19  14  20   9  21   6  24  14  25  14  26  14
M  END
>  <minimizedAffinity>  (1) 
-4.80849075

>  <minimizedRMSD>  (1) 
3.8167336

$$$$
