
     RDKit          3D

 43 45  0  0  0  0  0  0  0  0999 V2000
   46.1430   32.2450   48.0640 C   0  0  0  0  0  0  0  0  0  0  0  0
   45.7650   31.4900   49.1390 C   0  0  0  0  0  0  0  0  0  0  0  0
   46.8640   30.8810   49.5780 N   0  0  0  0  0  0  0  0  0  0  0  0
   47.9290   31.2150   48.8270 C   0  0  0  0  0  0  0  0  0  0  0  0
   47.4640   32.0710   47.8800 N   0  0  0  0  0  0  0  0  0  0  0  0
   49.2970   30.8240   48.9040 N   0  0  0  0  0  0  0  0  0  0  0  0
   50.1980   31.6170   49.7370 C   0  0  0  0  0  0  0  0  0  0  0  0
   50.4150   30.7740   50.9920 C   0  0  0  0  0  0  0  0  0  0  0  0
   50.7440   29.3520   50.6110 C   0  0  0  0  0  0  0  0  0  0  0  0
   51.1650   29.2990   49.1560 C   0  0  0  0  0  0  0  0  0  0  0  0
   50.0140   29.7360   48.2850 C   0  0  0  0  0  0  0  0  0  0  0  0
   45.2630   33.1140   47.2280 C   0  0  0  0  0  0  0  0  0  0  0  0
   45.5140   33.3720   44.7890 C   0  0  0  0  0  0  0  0  0  0  0  0
   45.9650   33.5700   46.0150 C   0  0  0  0  0  0  0  0  0  0  0  0
   46.3070   33.8760   43.6710 C   0  0  0  0  0  0  0  0  0  0  0  0
   45.7000   34.3200   42.4690 C   0  0  0  0  0  0  0  0  0  0  0  0
   46.5330   34.7800   41.4640 C   0  0  0  0  0  0  0  0  0  0  0  0
   47.8680   34.7930   41.6550 N   0  0  0  0  0  0  0  0  0  0  0  0
   48.4300   34.3620   42.8190 C   0  0  0  0  0  0  0  0  0  0  0  0
   47.6550   33.9150   43.7990 N   0  0  0  0  0  0  0  0  0  0  0  0
   50.8970   33.6120   42.4410 C   0  0  0  0  0  0  0  0  0  0  0  0
   50.4140   32.5380   42.0260 O   0  0  0  0  0  0  0  0  0  0  0  0
   49.8360   34.4590   42.8140 N   0  0  0  0  0  0  0  0  0  0  0  0
   44.7519   31.4029   49.5586 H   0  0  0  0  0  0  0  0  0  0  0  0
   46.8949   30.2404   50.3840 H   0  0  0  0  0  0  0  0  0  0  0  0
   51.1521   31.7915   49.2180 H   0  0  0  0  0  0  0  0  0  0  0  0
   49.7821   32.6083   49.9702 H   0  0  0  0  0  0  0  0  0  0  0  0
   51.2470   31.1963   51.5746 H   0  0  0  0  0  0  0  0  0  0  0  0
   49.4946   30.7815   51.5943 H   0  0  0  0  0  0  0  0  0  0  0  0
   51.5657   28.9845   51.2433 H   0  0  0  0  0  0  0  0  0  0  0  0
   49.8555   28.7202   50.7571 H   0  0  0  0  0  0  0  0  0  0  0  0
   52.0212   29.9710   48.9970 H   0  0  0  0  0  0  0  0  0  0  0  0
   51.4537   28.2703   48.8944 H   0  0  0  0  0  0  0  0  0  0  0  0
   49.3289   28.8881   48.1381 H   0  0  0  0  0  0  0  0  0  0  0  0
   50.4096   30.0759   47.3165 H   0  0  0  0  0  0  0  0  0  0  0  0
   44.3701   32.5432   46.9331 H   0  0  0  0  0  0  0  0  0  0  0  0
   44.9797   33.9967   47.8202 H   0  0  0  0  0  0  0  0  0  0  0  0
   44.5662   32.8415   44.6150 H   0  0  0  0  0  0  0  0  0  0  0  0
   46.9181   34.1053   46.1373 H   0  0  0  0  0  0  0  0  0  0  0  0
   44.6078   34.2996   42.3401 H   0  0  0  0  0  0  0  0  0  0  0  0
   46.1078   35.1336   40.5131 H   0  0  0  0  0  0  0  0  0  0  0  0
   51.9680   33.8548   42.5043 H   0  0  0  0  0  0  0  0  0  0  0  0
   50.1668   35.3678   43.1683 H   0  0  0  0  0  0  0  0  0  0  0  0
  1  2  2  0
  2  3  1  0
  4  6  1  0
  4  3  1  0
  5  1  1  0
  5  4  2  0
  6  7  1  0
  7  8  1  0
  9  8  1  0
 10  9  1  0
 11  6  1  0
 11 10  1  0
 12  1  1  0
 13 14  2  0
 14 12  1  0
 15 20  1  0
 15 13  1  0
 16 15  2  0
 17 18  2  0
 17 16  1  0
 18 19  1  0
 19 20  2  0
 21 23  1  0
 22 21  2  0
 23 19  1  0
  2 24  1  0
  3 25  1  0
  7 26  1  0
  7 27  1  0
  8 28  1  0
  8 29  1  0
  9 30  1  0
  9 31  1  0
 10 32  1  0
 10 33  1  0
 11 34  1  0
 11 35  1  0
 12 36  1  0
 12 37  1  0
 13 38  1  0
 14 39  1  0
 16 40  1  0
 17 41  1  0
 21 42  1  0
 23 43  1  0
M  ISO  8  24  14  25   9  26  13  27  13  28  13  29  13  30  13  31  13
M  ISO  8  32  13  33  13  34  13  35  13  36   8  37   8  40  14  41  14
M  ISO  1  42   6
M  END
>  <minimizedAffinity>  (1) 
-6.46480083

>  <minimizedRMSD>  (1) 
1.08097589

$$$$
