
     RDKit          3D

 55 58  0  0  0  0  0  0  0  0999 V2000
   46.0500   32.3070   48.2030 C   0  0  0  0  0  0  0  0  0  0  0  0
   45.6200   31.5240   49.2400 C   0  0  0  0  0  0  0  0  0  0  0  0
   46.6780   30.7930   49.6220 N   0  0  0  0  0  0  0  0  0  0  0  0
   47.7480   31.0820   48.8740 C   0  0  0  0  0  0  0  0  0  0  0  0
   47.3440   32.0300   47.9890 N   0  0  0  0  0  0  0  0  0  0  0  0
   49.0790   30.5780   48.8980 N   0  0  0  0  0  0  0  0  0  0  0  0
   50.0610   31.2640   49.7690 C   0  0  0  0  0  0  0  0  0  0  0  0
   50.2270   30.3390   50.9740 C   0  0  0  0  0  0  0  0  0  0  0  0
   50.4470   28.9210   50.4960 C   0  0  0  0  0  0  0  0  0  0  0  0
   50.8350   28.9100   49.0360 C   0  0  0  0  0  0  0  0  0  0  0  0
   49.7060   29.4880   48.2210 C   0  0  0  0  0  0  0  0  0  0  0  0
   45.2260   33.2890   47.4510 C   0  0  0  0  0  0  0  0  0  0  0  0
   45.2870   34.3370   45.2160 C   0  0  0  0  0  0  0  0  0  0  0  0
   45.6830   33.3880   46.0430 C   0  0  0  0  0  0  0  0  0  0  0  0
   45.8110   34.3220   43.8510 C   0  0  0  0  0  0  0  0  0  0  0  0
   45.1560   34.9800   42.7940 C   0  0  0  0  0  0  0  0  0  0  0  0
   45.7330   34.9080   41.5360 C   0  0  0  0  0  0  0  0  0  0  0  0
   46.8710   34.2280   41.3650 N   0  0  0  0  0  0  0  0  0  0  0  0
   47.4930   33.5970   42.3850 C   0  0  0  0  0  0  0  0  0  0  0  0
   46.9690   33.6500   43.5920 N   0  0  0  0  0  0  0  0  0  0  0  0
   48.7560   32.8650   42.0980 C   0  0  0  0  0  0  0  0  0  0  0  0
   48.9150   32.4720   40.6760 C   0  0  0  0  0  0  0  0  0  0  0  0
   50.3390   31.9880   40.4890 C   0  0  0  0  0  0  0  0  0  0  0  0
   50.9550   31.6060   41.8240 C   0  0  0  0  0  0  0  0  0  0  0  0
   49.9840   30.8440   42.6800 C   0  0  0  0  0  0  0  0  0  0  0  0
   48.7790   31.6690   43.0020 C   0  0  0  0  0  0  0  0  0  0  0  0
   44.6093   31.4991   49.6734 H   0  0  0  0  0  0  0  0  0  0  0  0
   46.6675   30.1034   50.3870 H   0  0  0  0  0  0  0  0  0  0  0  0
   51.0195   31.3937   49.2451 H   0  0  0  0  0  0  0  0  0  0  0  0
   49.7255   32.2701   50.0609 H   0  0  0  0  0  0  0  0  0  0  0  0
   51.0935   30.6638   51.5687 H   0  0  0  0  0  0  0  0  0  0  0  0
   49.3197   30.3796   51.5946 H   0  0  0  0  0  0  0  0  0  0  0  0
   51.2514   28.4599   51.0880 H   0  0  0  0  0  0  0  0  0  0  0  0
   49.5125   28.3542   50.6205 H   0  0  0  0  0  0  0  0  0  0  0  0
   51.7416   29.5160   48.8912 H   0  0  0  0  0  0  0  0  0  0  0  0
   51.0341   27.8774   48.7133 H   0  0  0  0  0  0  0  0  0  0  0  0
   48.9580   28.7025   48.0382 H   0  0  0  0  0  0  0  0  0  0  0  0
   50.1197   29.8616   47.2727 H   0  0  0  0  0  0  0  0  0  0  0  0
   44.1746   32.9659   47.4675 H   0  0  0  0  0  0  0  0  0  0  0  0
   45.3297   34.2754   47.9266 H   0  0  0  0  0  0  0  0  0  0  0  0
   44.5834   35.1164   45.5439 H   0  0  0  0  0  0  0  0  0  0  0  0
   46.3884   32.6312   45.6691 H   0  0  0  0  0  0  0  0  0  0  0  0
   44.2192   35.5320   42.9601 H   0  0  0  0  0  0  0  0  0  0  0  0
   45.2559   35.4090   40.6808 H   0  0  0  0  0  0  0  0  0  0  0  0
   49.6080   33.5341   42.2886 H   0  0  0  0  0  0  0  0  0  0  0  0
   48.2094   31.6651   40.4290 H   0  0  0  0  0  0  0  0  0  0  0  0
   48.7080   33.3261   40.0144 H   0  0  0  0  0  0  0  0  0  0  0  0
   50.3380   31.1095   39.8270 H   0  0  0  0  0  0  0  0  0  0  0  0
   50.9333   32.7998   40.0442 H   0  0  0  0  0  0  0  0  0  0  0  0
   51.8404   30.9789   41.6428 H   0  0  0  0  0  0  0  0  0  0  0  0
   51.2313   32.5296   42.3537 H   0  0  0  0  0  0  0  0  0  0  0  0
   49.6653   29.9393   42.1416 H   0  0  0  0  0  0  0  0  0  0  0  0
   50.4856   30.5799   43.6227 H   0  0  0  0  0  0  0  0  0  0  0  0
   48.8263   31.9989   44.0503 H   0  0  0  0  0  0  0  0  0  0  0  0
   47.8671   31.0717   42.8546 H   0  0  0  0  0  0  0  0  0  0  0  0
  1  2  2  0
  2  3  1  0
  4  6  1  0
  4  3  1  0
  5  1  1  0
  5  4  2  0
  6  7  1  0
  7  8  1  0
  9  8  1  0
 10  9  1  0
 11  6  1  0
 11 10  1  0
 12  1  1  0
 13 14  2  0
 14 12  1  0
 15 13  1  0
 16 15  2  0
 17 16  1  0
 18 17  2  0
 18 19  1  0
 19 20  2  0
 20 15  1  0
 21 19  1  0
 21 26  1  0
 22 21  1  0
 23 22  1  0
 23 24  1  0
 24 25  1  0
 25 26  1  0
  2 27  1  0
  3 28  1  0
  7 29  1  0
  7 30  1  0
  8 31  1  0
  8 32  1  0
  9 33  1  0
  9 34  1  0
 10 35  1  0
 10 36  1  0
 11 37  1  0
 11 38  1  0
 12 39  1  0
 12 40  1  0
 13 41  1  0
 14 42  1  0
 16 43  1  0
 17 44  1  0
 21 45  1  0
 22 46  1  0
 22 47  1  0
 23 48  1  0
 23 49  1  0
 24 50  1  0
 24 51  1  0
 25 52  1  0
 25 53  1  0
 26 54  1  0
 26 55  1  0
M  ISO  8  27  14  28   9  29  13  30  13  31  13  32  13  33  13  34  13
M  ISO  8  35  13  36  13  37  13  38  13  39   8  40   8  43  14  44  14
M  ISO  8  45  13  46  13  47  13  48  13  49  13  50  13  51  13  52  13
M  ISO  3  53  13  54  13  55  13
M  END
>  <minimizedAffinity>  (1) 
-6.20687532

>  <minimizedRMSD>  (1) 
1.39809012

$$$$
