
     RDKit          3D

 47 49  0  0  0  0  0  0  0  0999 V2000
   46.3900   32.1070   48.0810 C   0  0  0  0  0  0  0  0  0  0  0  0
   46.0660   31.2910   49.1320 C   0  0  0  0  0  0  0  0  0  0  0  0
   47.2110   30.8100   49.5970 N   0  0  0  0  0  0  0  0  0  0  0  0
   48.2620   31.2740   48.8980 C   0  0  0  0  0  0  0  0  0  0  0  0
   47.7300   32.0870   47.9490 N   0  0  0  0  0  0  0  0  0  0  0  0
   49.6550   31.0400   49.0260 N   0  0  0  0  0  0  0  0  0  0  0  0
   50.4060   31.9370   49.9360 C   0  0  0  0  0  0  0  0  0  0  0  0
   50.6760   31.0910   51.1760 C   0  0  0  0  0  0  0  0  0  0  0  0
   51.2040   29.7400   50.7880 C   0  0  0  0  0  0  0  0  0  0  0  0
   51.6950   29.7770   49.3500 C   0  0  0  0  0  0  0  0  0  0  0  0
   50.5300   30.0800   48.4360 C   0  0  0  0  0  0  0  0  0  0  0  0
   45.4480   32.8880   47.2210 C   0  0  0  0  0  0  0  0  0  0  0  0
   45.9400   34.0730   45.1250 C   0  0  0  0  0  0  0  0  0  0  0  0
   45.9400   32.9530   45.8280 C   0  0  0  0  0  0  0  0  0  0  0  0
   46.4530   34.0040   43.7580 C   0  0  0  0  0  0  0  0  0  0  0  0
   45.9940   34.8660   42.7290 C   0  0  0  0  0  0  0  0  0  0  0  0
   46.5310   34.7340   41.4630 C   0  0  0  0  0  0  0  0  0  0  0  0
   47.4690   33.7960   41.2430 N   0  0  0  0  0  0  0  0  0  0  0  0
   47.8960   32.9830   42.2340 C   0  0  0  0  0  0  0  0  0  0  0  0
   47.4020   33.0830   43.4560 N   0  0  0  0  0  0  0  0  0  0  0  0
   48.8920   32.0160   41.9180 N   0  0  0  0  0  0  0  0  0  0  0  0
   50.5870   32.3120   42.0420 S   0  0  0  0  0  0  0  0  0  0  0  0
   50.8640   33.6900   42.5110 O   0  0  0  0  0  0  0  0  0  0  0  0
   51.2700   31.2670   42.8820 O   0  0  0  0  0  0  0  0  0  0  0  0
   51.2810   32.1760   40.4960 O   0  0  0  0  0  0  0  0  0  0  0  0
   45.0570   31.0771   49.5143 H   0  0  0  0  0  0  0  0  0  0  0  0
   47.2860   30.1619   50.3940 H   0  0  0  0  0  0  0  0  0  0  0  0
   51.3503   32.2582   49.4722 H   0  0  0  0  0  0  0  0  0  0  0  0
   49.8469   32.8546   50.1714 H   0  0  0  0  0  0  0  0  0  0  0  0
   51.4179   31.6015   51.8077 H   0  0  0  0  0  0  0  0  0  0  0  0
   49.7336   30.9589   51.7278 H   0  0  0  0  0  0  0  0  0  0  0  0
   52.0375   29.4683   51.4524 H   0  0  0  0  0  0  0  0  0  0  0  0
   50.4008   28.9941   50.8802 H   0  0  0  0  0  0  0  0  0  0  0  0
   52.4605   30.5595   49.2424 H   0  0  0  0  0  0  0  0  0  0  0  0
   52.1315   28.8033   49.0828 H   0  0  0  0  0  0  0  0  0  0  0  0
   49.9707   29.1520   48.2461 H   0  0  0  0  0  0  0  0  0  0  0  0
   50.9208   30.4933   47.4945 H   0  0  0  0  0  0  0  0  0  0  0  0
   44.4614   32.4016   47.2327 H   0  0  0  0  0  0  0  0  0  0  0  0
   45.3750   33.9115   47.6173 H   0  0  0  0  0  0  0  0  0  0  0  0
   45.5695   35.0170   45.5511 H   0  0  0  0  0  0  0  0  0  0  0  0
   46.3207   32.0340   45.3584 H   0  0  0  0  0  0  0  0  0  0  0  0
   45.2251   35.6251   42.9353 H   0  0  0  0  0  0  0  0  0  0  0  0
   46.1953   35.3883   40.6449 H   0  0  0  0  0  0  0  0  0  0  0  0
   48.5831   31.0872   41.5972 H   0  0  0  0  0  0  0  0  0  0  0  0
   50.8675   33.7073   43.5008 H   0  0  0  0  0  0  0  0  0  0  0  0
   51.1347   31.4740   43.8406 H   0  0  0  0  0  0  0  0  0  0  0  0
   52.2487   31.9864   40.5842 H   0  0  0  0  0  0  0  0  0  0  0  0
  1  2  2  0
  2  3  1  0
  4  6  1  0
  4  3  1  0
  5  1  1  0
  5  4  2  0
  6  7  1  0
  7  8  1  0
  9  8  1  0
 10  9  1  0
 11  6  1  0
 11 10  1  0
 12  1  1  0
 13 14  2  0
 14 12  1  0
 15 13  1  0
 16 15  2  0
 17 16  1  0
 18 17  2  0
 18 19  1  0
 19 20  2  0
 20 15  1  0
 21 22  1  0
 21 19  1  0
 22 23  1  0
 22 24  1  0
 25 22  1  0
  2 26  1  0
  3 27  1  0
  7 28  1  0
  7 29  1  0
  8 30  1  0
  8 31  1  0
  9 32  1  0
  9 33  1  0
 10 34  1  0
 10 35  1  0
 11 36  1  0
 11 37  1  0
 12 38  1  0
 12 39  1  0
 13 40  1  0
 14 41  1  0
 16 42  1  0
 17 43  1  0
 21 44  1  0
 23 45  1  0
 24 46  1  0
 25 47  1  0
M  ISO  8  26  14  27   9  28  13  29  13  30  13  31  13  32  13  33  13
M  ISO  8  34  13  35  13  36  13  37  13  38   8  39   8  42  14  43  14
M  ISO  3  45   3  46   3  47   3
M  END
>  <minimizedAffinity>  (1) 
-6.25984907

>  <minimizedRMSD>  (1) 
1.13711607

$$$$
