
     RDKit          3D

 41 43  0  0  0  0  0  0  0  0999 V2000
   46.0380   32.3720   48.0940 C   0  0  0  0  0  0  0  0  0  0  0  0
   45.6230   31.6350   49.1650 C   0  0  0  0  0  0  0  0  0  0  0  0
   46.6880   30.9330   49.5740 N   0  0  0  0  0  0  0  0  0  0  0  0
   47.7490   31.1890   48.8170 C   0  0  0  0  0  0  0  0  0  0  0  0
   47.3390   32.1000   47.8790 N   0  0  0  0  0  0  0  0  0  0  0  0
   49.0850   30.7040   48.8510 N   0  0  0  0  0  0  0  0  0  0  0  0
   50.0680   31.4480   49.6720 C   0  0  0  0  0  0  0  0  0  0  0  0
   50.2520   30.5910   50.9220 C   0  0  0  0  0  0  0  0  0  0  0  0
   50.4830   29.1470   50.5300 C   0  0  0  0  0  0  0  0  0  0  0  0
   50.8720   29.0810   49.0650 C   0  0  0  0  0  0  0  0  0  0  0  0
   49.7220   29.5880   48.2280 C   0  0  0  0  0  0  0  0  0  0  0  0
   45.2030   33.3210   47.2930 C   0  0  0  0  0  0  0  0  0  0  0  0
   45.2660   34.3320   45.0500 C   0  0  0  0  0  0  0  0  0  0  0  0
   45.7380   33.4690   45.9340 C   0  0  0  0  0  0  0  0  0  0  0  0
   45.8890   34.3740   43.7230 C   0  0  0  0  0  0  0  0  0  0  0  0
   45.1370   34.5770   42.5420 C   0  0  0  0  0  0  0  0  0  0  0  0
   45.8100   34.5980   41.3370 C   0  0  0  0  0  0  0  0  0  0  0  0
   47.1470   34.4250   41.3160 N   0  0  0  0  0  0  0  0  0  0  0  0
   47.8440   34.2330   42.4610 C   0  0  0  0  0  0  0  0  0  0  0  0
   47.2420   34.2050   43.6430 N   0  0  0  0  0  0  0  0  0  0  0  0
   49.3010   34.0440   42.4520 C   0  0  0  0  0  0  0  0  0  0  0  0
   50.1230   34.9910   42.5550 O   0  0  0  0  0  0  0  0  0  0  0  0
   44.6148   31.6203   49.6048 H   0  0  0  0  0  0  0  0  0  0  0  0
   46.6846   30.2804   50.3709 H   0  0  0  0  0  0  0  0  0  0  0  0
   51.0204   31.5579   49.1328 H   0  0  0  0  0  0  0  0  0  0  0  0
   49.7270   32.4663   49.9105 H   0  0  0  0  0  0  0  0  0  0  0  0
   51.1195   30.9574   51.4905 H   0  0  0  0  0  0  0  0  0  0  0  0
   49.3454   30.6565   51.5415 H   0  0  0  0  0  0  0  0  0  0  0  0
   51.2917   28.7244   51.1443 H   0  0  0  0  0  0  0  0  0  0  0  0
   49.5613   28.5691   50.6928 H   0  0  0  0  0  0  0  0  0  0  0  0
   51.7594   29.7071   48.8904 H   0  0  0  0  0  0  0  0  0  0  0  0
   51.1034   28.0418   48.7883 H   0  0  0  0  0  0  0  0  0  0  0  0
   48.9867   28.7798   48.1007 H   0  0  0  0  0  0  0  0  0  0  0  0
   50.1155   29.9102   47.2526 H   0  0  0  0  0  0  0  0  0  0  0  0
   44.1744   32.9355   47.2353 H   0  0  0  0  0  0  0  0  0  0  0  0
   45.2171   34.3043   47.7858 H   0  0  0  0  0  0  0  0  0  0  0  0
   44.4293   34.9998   45.3030 H   0  0  0  0  0  0  0  0  0  0  0  0
   46.5786   32.8260   45.6341 H   0  0  0  0  0  0  0  0  0  0  0  0
   44.0464   34.7143   42.5829 H   0  0  0  0  0  0  0  0  0  0  0  0
   45.2582   34.7551   40.3985 H   0  0  0  0  0  0  0  0  0  0  0  0
   49.6936   33.0215   42.3499 H   0  0  0  0  0  0  0  0  0  0  0  0
  1  2  2  0
  2  3  1  0
  4  6  1  0
  4  3  1  0
  5  1  1  0
  5  4  2  0
  6  7  1  0
  7  8  1  0
  9  8  1  0
 10  9  1  0
 11  6  1  0
 11 10  1  0
 12  1  1  0
 13 14  2  0
 14 12  1  0
 15 13  1  0
 16 15  2  0
 17 16  1  0
 18 17  2  0
 18 19  1  0
 19 20  2  0
 20 15  1  0
 21 19  1  0
 21 22  2  0
  2 23  1  0
  3 24  1  0
  7 25  1  0
  7 26  1  0
  8 27  1  0
  8 28  1  0
  9 29  1  0
  9 30  1  0
 10 31  1  0
 10 32  1  0
 11 33  1  0
 11 34  1  0
 12 35  1  0
 12 36  1  0
 13 37  1  0
 14 38  1  0
 16 39  1  0
 17 40  1  0
 21 41  1  0
M  ISO  8  23  14  24   9  25  13  26  13  27  13  28  13  29  13  30  13
M  ISO  8  31  13  32  13  33  13  34  13  35   8  36   8  39  14  40  14
M  ISO  1  41   6
M  END
>  <minimizedAffinity>  (1) 
-6.00145626

>  <minimizedRMSD>  (1) 
1.22397316

$$$$
