
     RDKit          3D

 26 27  0  0  1  0  0  0  0  0999 V2000
   45.5260   34.7670   44.3530 C   0  0  0  0  0  0  0  0  0  0  0  0
   46.5260   34.5590   43.4050 C   0  0  0  0  0  0  0  0  0  0  0  0
   47.3360   33.4070   43.5410 C   0  0  0  0  0  0  0  0  0  0  0  0
   47.0880   32.5780   44.5890 N   0  0  0  0  0  0  0  0  0  0  0  0
   46.0930   32.8310   45.4900 C   0  0  0  0  0  0  0  0  0  0  0  0
   45.3110   33.9260   45.3710 N   0  0  0  0  0  0  0  0  0  0  0  0
   46.5430   32.3060   47.8850 C   0  0  1  0  0  0  0  0  0  0  0  0
   45.9330   31.8460   46.5780 C   0  0  2  0  0  0  0  0  0  0  0  0
   46.6360   30.6710   46.2620 O   0  0  0  0  0  0  0  0  0  0  0  0
   46.5900   29.9910   47.4790 C   0  0  0  0  0  0  0  0  0  0  0  0
   47.1610   31.0230   48.4540 C   0  0  2  0  0  0  0  0  0  0  0  0
   47.5030   33.2880   47.7140 O   0  0  0  0  0  0  0  0  0  0  0  0
   46.6870   30.7110   49.7070 O   0  0  0  0  0  0  0  0  0  0  0  0
   44.6770   36.0010   44.1840 C   0  0  0  0  0  0  0  0  0  0  0  0
   46.6806   35.2675   42.5778 H   0  0  0  0  0  0  0  0  0  0  0  0
   48.1399   33.1895   42.8223 H   0  0  0  0  0  0  0  0  0  0  0  0
   45.7969   32.7694   48.5473 H   0  0  0  0  0  0  0  0  0  0  0  0
   44.8477   31.7013   46.6837 H   0  0  0  0  0  0  0  0  0  0  0  0
   45.5574   29.7209   47.7451 H   0  0  0  0  0  0  0  0  0  0  0  0
   47.1427   29.0400   47.4722 H   0  0  0  0  0  0  0  0  0  0  0  0
   48.2551   31.0861   48.5489 H   0  0  0  0  0  0  0  0  0  0  0  0
   47.8125   33.6046   48.5995 H   0  0  0  0  0  0  0  0  0  0  0  0
   47.2835   31.1036   50.3927 H   0  0  0  0  0  0  0  0  0  0  0  0
   44.4046   36.3970   45.1734 H   0  0  0  0  0  0  0  0  0  0  0  0
   45.2434   36.7624   43.6276 H   0  0  0  0  0  0  0  0  0  0  0  0
   43.7635   35.7442   43.6276 H   0  0  0  0  0  0  0  0  0  0  0  0
  1  6  2  0
  2  3  2  0
  2  1  1  0
  3  4  1  0
  4  5  2  0
  6  5  1  0
  7 12  1  0
  7 11  1  0
  8  5  1  0
  8  7  1  0
  9  8  1  0
  9 10  1  0
 10 11  1  0
 11 13  1  0
 14  1  1  0
  2 15  1  0
  3 16  1  0
  7 17  1  1
  8 18  1  1
 10 19  1  0
 10 20  1  0
 11 21  1  1
 12 22  1  0
 13 23  1  0
 14 24  1  0
 14 25  1  0
 14 26  1  0
M  ISO  8  15  14  16  14  17  13  18  13  19  13  20  13  21  13  22   3
M  ISO  4  23   3  24   8  25   8  26   8
M  END
>  <minimizedAffinity>  (1) 
-4.95356321

>  <minimizedRMSD>  (1) 
1.90400541

$$$$
