
     RDKit          3D

 40 42  0  0  0  0  0  0  0  0999 V2000
   46.3790   32.1960   47.7780 C   0  0  0  0  0  0  0  0  0  0  0  0
   45.9130   31.8160   49.0070 C   0  0  0  0  0  0  0  0  0  0  0  0
   46.8980   31.1550   49.6050 N   0  0  0  0  0  0  0  0  0  0  0  0
   47.9780   31.0900   48.8220 C   0  0  0  0  0  0  0  0  0  0  0  0
   47.6400   31.7500   47.6740 N   0  0  0  0  0  0  0  0  0  0  0  0
   49.2570   30.5010   49.0120 N   0  0  0  0  0  0  0  0  0  0  0  0
   50.3090   31.3460   49.6260 C   0  0  0  0  0  0  0  0  0  0  0  0
   50.4220   30.8270   51.0560 C   0  0  0  0  0  0  0  0  0  0  0  0
   50.5090   29.3230   51.0660 C   0  0  0  0  0  0  0  0  0  0  0  0
   50.8650   28.8190   49.6790 C   0  0  0  0  0  0  0  0  0  0  0  0
   49.7620   29.1990   48.7180 C   0  0  0  0  0  0  0  0  0  0  0  0
   45.6280   32.9680   46.7400 C   0  0  0  0  0  0  0  0  0  0  0  0
   46.0410   33.8110   44.4670 C   0  0  0  0  0  0  0  0  0  0  0  0
   46.4900   33.2550   45.5840 C   0  0  0  0  0  0  0  0  0  0  0  0
   47.0080   34.0450   43.3800 C   0  0  0  0  0  0  0  0  0  0  0  0
   46.7940   35.0340   42.3920 C   0  0  0  0  0  0  0  0  0  0  0  0
   47.7710   35.1660   41.4160 C   0  0  0  0  0  0  0  0  0  0  0  0
   48.8530   34.3770   41.4360 N   0  0  0  0  0  0  0  0  0  0  0  0
   49.0310   33.4400   42.3930 C   0  0  0  0  0  0  0  0  0  0  0  0
   48.1310   33.2680   43.3540 N   0  0  0  0  0  0  0  0  0  0  0  0
   50.5230   32.4610   42.2970 S   0  0  0  0  0  0  0  0  0  0  0  0
   44.9141   32.0189   49.4206 H   0  0  0  0  0  0  0  0  0  0  0  0
   46.8368   30.7463   50.5485 H   0  0  0  0  0  0  0  0  0  0  0  0
   51.2637   31.2289   49.0923 H   0  0  0  0  0  0  0  0  0  0  0  0
   50.0641   32.4176   49.5858 H   0  0  0  0  0  0  0  0  0  0  0  0
   51.3263   31.2450   51.5224 H   0  0  0  0  0  0  0  0  0  0  0  0
   49.5282   31.1354   51.6181 H   0  0  0  0  0  0  0  0  0  0  0  0
   51.2842   29.0068   51.7795 H   0  0  0  0  0  0  0  0  0  0  0  0
   49.5366   28.9051   51.3657 H   0  0  0  0  0  0  0  0  0  0  0  0
   51.8114   29.2750   49.3528 H   0  0  0  0  0  0  0  0  0  0  0  0
   50.9789   27.7251   49.6995 H   0  0  0  0  0  0  0  0  0  0  0  0
   48.9441   28.4682   48.8012 H   0  0  0  0  0  0  0  0  0  0  0  0
   50.1712   29.2029   47.6969 H   0  0  0  0  0  0  0  0  0  0  0  0
   44.7615   32.3779   46.4071 H   0  0  0  0  0  0  0  0  0  0  0  0
   45.2943   33.9200   47.1785 H   0  0  0  0  0  0  0  0  0  0  0  0
   44.9823   34.0882   44.3556 H   0  0  0  0  0  0  0  0  0  0  0  0
   47.5572   32.9964   45.6487 H   0  0  0  0  0  0  0  0  0  0  0  0
   45.8955   35.6685   42.3972 H   0  0  0  0  0  0  0  0  0  0  0  0
   47.6567   35.9205   40.6238 H   0  0  0  0  0  0  0  0  0  0  0  0
   50.9623   32.1728   43.5623 H   0  0  0  0  0  0  0  0  0  0  0  0
  1  2  2  0
  2  3  1  0
  4  6  1  0
  4  3  1  0
  5  1  1  0
  5  4  2  0
  6  7  1  0
  7  8  1  0
  8  9  1  0
 10  9  1  0
 11  6  1  0
 11 10  1  0
 12  1  1  0
 13 14  2  0
 14 12  1  0
 15 13  1  0
 16 15  2  0
 17 18  2  0
 17 16  1  0
 18 19  1  0
 19 20  2  0
 20 15  1  0
 21 19  1  0
  2 22  1  0
  3 23  1  0
  7 24  1  0
  7 25  1  0
  8 26  1  0
  8 27  1  0
  9 28  1  0
  9 29  1  0
 10 30  1  0
 10 31  1  0
 11 32  1  0
 11 33  1  0
 12 34  1  0
 12 35  1  0
 13 36  1  0
 14 37  1  0
 16 38  1  0
 17 39  1  0
 21 40  1  0
M  ISO  8  22  14  23   9  24  13  25  13  26  13  27  13  28  13  29  13
M  ISO  8  30  13  31  13  32  13  33  13  34   8  35   8  38  14  39  14
M  ISO  1  40  11
M  END
>  <minimizedAffinity>  (1) 
-5.69200134

>  <minimizedRMSD>  (1) 
0.131345466

$$$$
