
     RDKit          3D

 16 16  0  0  0  0  0  0  0  0999 V2000
   45.3760   34.7960   44.5040 C   0  0  0  0  0  0  0  0  0  0  0  0
   46.3820   34.2890   43.6830 C   0  0  0  0  0  0  0  0  0  0  0  0
   47.1440   33.2220   44.1570 C   0  0  0  0  0  0  0  0  0  0  0  0
   46.8630   32.7340   45.3920 N   0  0  0  0  0  0  0  0  0  0  0  0
   45.8770   33.2560   46.1580 C   0  0  0  0  0  0  0  0  0  0  0  0
   45.1320   34.2870   45.7150 N   0  0  0  0  0  0  0  0  0  0  0  0
   44.5640   35.9410   43.9890 C   0  0  0  0  0  0  0  0  0  0  0  0
   45.6720   32.6300   47.4940 C   0  0  0  0  0  0  0  0  0  0  0  0
   46.5696   34.7191   42.6881 H   0  0  0  0  0  0  0  0  0  0  0  0
   47.9501   32.7879   43.5473 H   0  0  0  0  0  0  0  0  0  0  0  0
   44.1582   36.5132   44.8363 H   0  0  0  0  0  0  0  0  0  0  0  0
   45.2008   36.5957   43.3759 H   0  0  0  0  0  0  0  0  0  0  0  0
   43.7356   35.5565   43.3759 H   0  0  0  0  0  0  0  0  0  0  0  0
   45.9110   33.3599   48.2815 H   0  0  0  0  0  0  0  0  0  0  0  0
   44.6233   32.3134   47.5936 H   0  0  0  0  0  0  0  0  0  0  0  0
   46.3303   31.7544   47.5936 H   0  0  0  0  0  0  0  0  0  0  0  0
  1  6  2  0
  2  3  2  0
  2  1  1  0
  3  4  1  0
  4  5  2  0
  5  8  1  0
  6  5  1  0
  7  1  1  0
  2  9  1  0
  3 10  1  0
  7 11  1  0
  7 12  1  0
  7 13  1  0
  8 14  1  0
  8 15  1  0
  8 16  1  0
M  ISO  8   9  14  10  14  11   8  12   8  13   8  14   8  15   8  16   8
M  END
>  <minimizedAffinity>  (1) 
-2.99500394

>  <minimizedRMSD>  (1) 
0.753208637

$$$$
