
     RDKit          3D

 14 14  0  0  0  0  0  0  0  0999 V2000
   45.4010   34.7980   44.4650 C   0  0  0  0  0  0  0  0  0  0  0  0
   46.3820   34.3910   43.5600 C   0  0  0  0  0  0  0  0  0  0  0  0
   47.2110   33.3120   43.9210 C   0  0  0  0  0  0  0  0  0  0  0  0
   47.0080   32.7300   45.1250 N   0  0  0  0  0  0  0  0  0  0  0  0
   46.0370   33.1600   45.9780 C   0  0  0  0  0  0  0  0  0  0  0  0
   45.2300   34.1940   45.6560 N   0  0  0  0  0  0  0  0  0  0  0  0
   44.5300   35.9480   44.0640 C   0  0  0  0  0  0  0  0  0  0  0  0
   45.7770   32.3830   47.5700 S   0  0  0  0  0  0  0  0  0  0  0  0
   46.5041   34.8989   42.5919 H   0  0  0  0  0  0  0  0  0  0  0  0
   48.0003   32.9529   43.2442 H   0  0  0  0  0  0  0  0  0  0  0  0
   44.1490   36.4510   44.9650 H   0  0  0  0  0  0  0  0  0  0  0  0
   45.1165   36.6612   43.4662 H   0  0  0  0  0  0  0  0  0  0  0  0
   43.6846   35.5766   43.4662 H   0  0  0  0  0  0  0  0  0  0  0  0
   46.0751   33.2739   48.5671 H   0  0  0  0  0  0  0  0  0  0  0  0
  1  6  2  0
  2  3  2  0
  2  1  1  0
  3  4  1  0
  4  5  2  0
  5  8  1  0
  6  5  1  0
  7  1  1  0
  2  9  1  0
  3 10  1  0
  7 11  1  0
  7 12  1  0
  7 13  1  0
  8 14  1  0
M  ISO  6   9  14  10  14  11   8  12   8  13   8  14  11
M  END
>  <minimizedAffinity>  (1) 
-2.94645715

>  <minimizedRMSD>  (1) 
0.917378545

$$$$
