
     RDKit          3D

 32 34  0  0  0  0  0  0  0  0999 V2000
   45.4400   31.6940   49.4890 O   0  0  0  0  0  0  0  0  0  0  0  0
   45.6890   31.6090   47.9870 P   0  0  1  0  0  0  0  0  0  0  0  0
   44.6150   30.4330   47.4040 O   0  0  0  0  0  0  0  0  0  0  0  0
   45.3840   33.1450   47.3570 O   0  0  0  0  0  0  0  0  0  0  0  0
   45.4360   34.8800   44.1950 C   0  0  0  0  0  0  0  0  0  0  0  0
   46.4790   34.2140   43.5280 C   0  0  0  0  0  0  0  0  0  0  0  0
   47.1250   33.1750   44.2240 C   0  0  0  0  0  0  0  0  0  0  0  0
   46.7030   32.8870   45.4810 N   0  0  0  0  0  0  0  0  0  0  0  0
   45.6960   33.5630   46.0670 C   0  0  0  0  0  0  0  0  0  0  0  0
   45.0600   34.5630   45.4230 N   0  0  0  0  0  0  0  0  0  0  0  0
   44.7550   35.9910   43.4390 C   0  0  0  0  0  0  0  0  0  0  0  0
   47.2480   31.1070   47.6230 O   0  0  0  0  0  0  0  0  0  0  0  0
   48.5160   29.8850   49.4910 N   0  0  0  0  0  0  0  0  0  0  0  0
   48.1630   30.8500   48.6300 C   0  0  0  0  0  0  0  0  0  0  0  0
   48.9750   31.9040   48.8250 N   0  0  0  0  0  0  0  0  0  0  0  0
   49.8690   31.6620   49.8040 C   0  0  0  0  0  0  0  0  0  0  0  0
   50.9140   32.2830   50.4550 C   0  0  0  0  0  0  0  0  0  0  0  0
   51.6090   31.6750   51.4430 N   0  0  0  0  0  0  0  0  0  0  0  0
   51.2310   30.4190   51.7720 C   0  0  0  0  0  0  0  0  0  0  0  0
   50.2090   29.7470   51.1700 N   0  0  0  0  0  0  0  0  0  0  0  0
   49.5470   30.3880   50.1930 C   0  0  0  0  0  0  0  0  0  0  0  0
   51.2190   33.6060   50.0220 N   0  0  0  0  0  0  0  0  0  0  0  0
   44.1897   29.9673   48.1671 H   0  0  0  0  0  0  0  0  0  0  0  0
   46.7773   34.4927   42.5066 H   0  0  0  0  0  0  0  0  0  0  0  0
   47.9492   32.6121   43.7616 H   0  0  0  0  0  0  0  0  0  0  0  0
   44.3173   36.7051   44.1521 H   0  0  0  0  0  0  0  0  0  0  0  0
   45.4910   36.5089   42.8065 H   0  0  0  0  0  0  0  0  0  0  0  0
   43.9595   35.5702   42.8065 H   0  0  0  0  0  0  0  0  0  0  0  0
   48.0876   28.9539   49.5934 H   0  0  0  0  0  0  0  0  0  0  0  0
   51.7823   29.9079   52.5751 H   0  0  0  0  0  0  0  0  0  0  0  0
   51.9880   34.1285   50.4653 H   0  0  0  0  0  0  0  0  0  0  0  0
   50.6704   34.0397   49.2658 H   0  0  0  0  0  0  0  0  0  0  0  0
  2  1  2  0
  3  2  1  0
  4  2  1  0
  5 10  2  0
  6  5  1  0
  6  7  2  0
  7  8  1  0
  8  9  2  0
  9  4  1  0
 10  9  1  0
 11  5  1  0
 12  2  1  0
 12 14  1  0
 13 21  1  0
 14 15  2  0
 14 13  1  0
 15 16  1  0
 16 21  2  0
 16 17  1  0
 17 18  2  0
 18 19  1  0
 20 19  2  0
 21 20  1  0
 22 17  1  0
  3 23  1  0
  6 24  1  0
  7 25  1  0
 11 26  1  0
 11 27  1  0
 11 28  1  0
 13 29  1  0
 19 30  1  0
 22 31  1  0
 22 32  1  0
M  ISO  8  23   3  24  14  25  14  26   8  27   8  28   8  29   9  30  14
M  END
>  <minimizedAffinity>  (1) 
-6.31219387

>  <minimizedRMSD>  (1) 
0.794635594

$$$$
