
     RDKit          3D

 32 34  0  0  0  0  0  0  0  0999 V2000
   45.6800   30.7420   49.3480 O   0  0  0  0  0  0  0  0  0  0  0  0
   45.8730   30.9280   47.8450 P   0  0  1  0  0  0  0  0  0  0  0  0
   44.5700   30.1730   47.0790 O   0  0  0  0  0  0  0  0  0  0  0  0
   45.9590   32.5850   47.5660 O   0  0  0  0  0  0  0  0  0  0  0  0
   45.2970   34.7230   44.7360 C   0  0  0  0  0  0  0  0  0  0  0  0
   46.2360   34.2460   43.8050 C   0  0  0  0  0  0  0  0  0  0  0  0
   47.0620   33.1930   44.2100 C   0  0  0  0  0  0  0  0  0  0  0  0
   46.9090   32.7070   45.4530 N   0  0  0  0  0  0  0  0  0  0  0  0
   45.9840   33.2010   46.3260 C   0  0  0  0  0  0  0  0  0  0  0  0
   45.1740   34.2220   45.9500 N   0  0  0  0  0  0  0  0  0  0  0  0
   44.4280   35.8510   44.2710 C   0  0  0  0  0  0  0  0  0  0  0  0
   47.2960   30.1650   47.3120 O   0  0  0  0  0  0  0  0  0  0  0  0
   48.9670   28.7080   48.3570 C   0  0  0  0  0  0  0  0  0  0  0  0
   48.3070   29.9290   48.2560 C   0  0  0  0  0  0  0  0  0  0  0  0
   48.6390   30.9700   49.1010 C   0  0  0  0  0  0  0  0  0  0  0  0
   49.6170   30.7700   50.0260 C   0  0  0  0  0  0  0  0  0  0  0  0
   50.2110   31.4900   50.9940 N   0  0  0  0  0  0  0  0  0  0  0  0
   51.1510   30.8030   51.6460 C   0  0  0  0  0  0  0  0  0  0  0  0
   51.1840   29.5860   51.0960 N   0  0  0  0  0  0  0  0  0  0  0  0
   50.2720   29.5420   50.1220 C   0  0  0  0  0  0  0  0  0  0  0  0
   49.9520   28.4930   49.2840 C   0  0  0  0  0  0  0  0  0  0  0  0
   43.9494   29.8134   47.7613 H   0  0  0  0  0  0  0  0  0  0  0  0
   46.3176   34.6833   42.7990 H   0  0  0  0  0  0  0  0  0  0  0  0
   47.8171   32.7737   43.5288 H   0  0  0  0  0  0  0  0  0  0  0  0
   44.0188   36.3822   45.1430 H   0  0  0  0  0  0  0  0  0  0  0  0
   45.0250   36.5477   43.6642 H   0  0  0  0  0  0  0  0  0  0  0  0
   43.6020   35.4515   43.6642 H   0  0  0  0  0  0  0  0  0  0  0  0
   48.6897   27.8924   47.6729 H   0  0  0  0  0  0  0  0  0  0  0  0
   48.1242   31.9394   49.0279 H   0  0  0  0  0  0  0  0  0  0  0  0
   49.9666   32.4672   51.2092 H   0  0  0  0  0  0  0  0  0  0  0  0
   51.7764   31.1675   52.4743 H   0  0  0  0  0  0  0  0  0  0  0  0
   50.4671   27.5238   49.3577 H   0  0  0  0  0  0  0  0  0  0  0  0
  2  1  2  0
  3  2  1  0
  4  2  1  0
  5 10  2  0
  6  7  2  0
  6  5  1  0
  7  8  1  0
  8  9  2  0
  9  4  1  0
 10  9  1  0
 11  5  1  0
 12  2  1  0
 12 14  1  0
 13 21  2  0
 14 13  1  0
 14 15  2  0
 15 16  1  0
 16 20  2  0
 16 17  1  0
 17 18  1  0
 19 18  2  0
 20 19  1  0
 21 20  1  0
  3 22  1  0
  6 23  1  0
  7 24  1  0
 11 25  1  0
 11 26  1  0
 11 27  1  0
 13 28  1  0
 15 29  1  0
 17 30  1  0
 18 31  1  0
 21 32  1  0
M  ISO  8  22   3  23  14  24  14  25   8  26   8  27   8  28  14  29  14
M  ISO  3  30   9  31  14  32  14
M  END
>  <minimizedAffinity>  (1) 
-5.52722311

>  <minimizedRMSD>  (1) 
2.42092967

$$$$
