
     RDKit          3D

 28 29  0  0  0  0  0  0  0  0999 V2000
   45.7720   32.7120   47.5050 O   0  0  0  0  0  0  0  0  0  0  0  0
   45.4170   34.7150   44.5070 C   0  0  0  0  0  0  0  0  0  0  0  0
   46.3870   34.1530   43.6910 C   0  0  0  0  0  0  0  0  0  0  0  0
   47.1360   33.0890   44.2160 C   0  0  0  0  0  0  0  0  0  0  0  0
   46.8760   32.6680   45.4830 N   0  0  0  0  0  0  0  0  0  0  0  0
   45.9200   33.2550   46.2290 C   0  0  0  0  0  0  0  0  0  0  0  0
   45.1740   34.2890   45.7500 N   0  0  0  0  0  0  0  0  0  0  0  0
   44.6130   35.8460   43.9600 C   0  0  0  0  0  0  0  0  0  0  0  0
   46.0150   31.0190   49.4350 O   0  0  0  0  0  0  0  0  0  0  0  0
   46.7360   31.4920   48.1630 P   0  0  1  0  0  0  0  0  0  0  0  0
   46.8620   30.1420   47.1470 O   0  0  0  0  0  0  0  0  0  0  0  0
   48.2770   32.0550   48.5030 O   0  0  0  0  0  0  0  0  0  0  0  0
   49.1830   31.5170   49.3920 C   0  0  0  0  0  0  0  0  0  0  0  0
   50.2440   32.3250   49.7520 C   0  0  0  0  0  0  0  0  0  0  0  0
   51.2280   31.9260   50.6300 C   0  0  0  0  0  0  0  0  0  0  0  0
   51.1280   30.6390   51.1700 C   0  0  0  0  0  0  0  0  0  0  0  0
   50.0630   29.8420   50.8030 C   0  0  0  0  0  0  0  0  0  0  0  0
   49.1150   30.2680   49.9370 N   0  0  0  0  0  0  0  0  0  0  0  0
   46.5625   34.5268   42.6715 H   0  0  0  0  0  0  0  0  0  0  0  0
   47.9189   32.6043   43.6142 H   0  0  0  0  0  0  0  0  0  0  0  0
   44.1950   36.4340   44.7904 H   0  0  0  0  0  0  0  0  0  0  0  0
   45.2576   36.4894   43.3431 H   0  0  0  0  0  0  0  0  0  0  0  0
   43.7935   35.4487   43.3431 H   0  0  0  0  0  0  0  0  0  0  0  0
   46.9386   29.3218   47.6961 H   0  0  0  0  0  0  0  0  0  0  0  0
   50.3062   33.3337   49.3176 H   0  0  0  0  0  0  0  0  0  0  0  0
   52.0605   32.5938   50.8963 H   0  0  0  0  0  0  0  0  0  0  0  0
   51.8861   30.2686   51.8757 H   0  0  0  0  0  0  0  0  0  0  0  0
   49.9825   28.8303   51.2272 H   0  0  0  0  0  0  0  0  0  0  0  0
  1 10  1  0
  2  7  2  0
  3  4  2  0
  3  2  1  0
  4  5  1  0
  5  6  2  0
  6  1  1  0
  7  6  1  0
  8  2  1  0
 10 12  1  0
 10  9  2  0
 11 10  1  0
 12 13  1  0
 13 14  2  0
 13 18  1  0
 14 15  1  0
 15 16  2  0
 17 16  1  0
 18 17  2  0
  3 19  1  0
  4 20  1  0
  8 21  1  0
  8 22  1  0
  8 23  1  0
 11 24  1  0
 14 25  1  0
 15 26  1  0
 16 27  1  0
 17 28  1  0
M  ISO  8  19  14  20  14  21   8  22   8  23   8  24   3  25  14  26  14
M  ISO  2  27  14  28  14
M  END
>  <minimizedAffinity>  (1) 
-4.97340059

>  <minimizedRMSD>  (1) 
1.4804858

$$$$
