
     RDKit          3D

 17 17  0  0  0  0  0  0  0  0999 V2000
   45.2290   35.9550   43.2650 C   0  0  0  0  0  0  0  0  0  0  0  0
   46.0820   34.8810   43.0190 C   0  0  0  0  0  0  0  0  0  0  0  0
   46.2610   33.9540   44.0440 C   0  0  0  0  0  0  0  0  0  0  0  0
   45.5950   34.1470   45.2220 N   0  0  0  0  0  0  0  0  0  0  0  0
   44.7770   35.1950   45.4250 C   0  0  0  0  0  0  0  0  0  0  0  0
   44.5890   36.1110   44.4410 N   0  0  0  0  0  0  0  0  0  0  0  0
   46.7260   34.7810   41.7330 C   0  0  0  0  0  0  0  0  0  0  0  0
   48.1520   35.2870   41.8490 C   0  0  0  0  0  0  0  0  0  0  0  0
   44.2030   35.1990   46.6900 O   0  0  0  0  0  0  0  0  0  0  0  0
   45.0725   36.7013   42.4722 H   0  0  0  0  0  0  0  0  0  0  0  0
   46.9234   33.0864   43.9082 H   0  0  0  0  0  0  0  0  0  0  0  0
   46.1781   35.3898   40.9987 H   0  0  0  0  0  0  0  0  0  0  0  0
   46.7316   33.7317   41.4028 H   0  0  0  0  0  0  0  0  0  0  0  0
   48.4218   35.3827   42.9111 H   0  0  0  0  0  0  0  0  0  0  0  0
   48.8343   34.5761   41.3600 H   0  0  0  0  0  0  0  0  0  0  0  0
   48.2336   36.2690   41.3600 H   0  0  0  0  0  0  0  0  0  0  0  0
   43.5824   35.9253   46.9497 H   0  0  0  0  0  0  0  0  0  0  0  0
  1  6  2  0
  2  1  1  0
  2  3  2  0
  3  4  1  0
  4  5  2  0
  5  9  1  0
  6  5  1  0
  7  8  1  0
  7  2  1  0
  1 10  1  0
  3 11  1  0
  7 12  1  0
  7 13  1  0
  8 14  1  0
  8 15  1  0
  8 16  1  0
  9 17  1  0
M  ISO  8  10  14  11  14  12   8  13   8  14   8  15   8  16   8  17   3
M  END
>  <minimizedAffinity>  (1) 
-4.39543056

>  <minimizedRMSD>  (1) 
1.20880389

$$$$
