
     RDKit          3D

 29 30  0  0  1  0  0  0  0  0999 V2000
   47.1990   34.0690   42.4270 C   0  0  2  0  0  0  0  0  0  0  0  0
   48.5570   34.6930   42.5600 C   0  0  0  0  0  0  0  0  0  0  0  0
   48.8400   35.6980   41.4830 C   0  0  0  0  0  0  0  0  0  0  0  0
   48.6990   35.1030   40.0970 C   0  0  0  0  0  0  0  0  0  0  0  0
   47.4880   34.2370   39.9520 C   0  0  0  0  0  0  0  0  0  0  0  0
   46.5300   34.3410   41.1220 C   0  0  1  0  0  0  0  0  0  0  0  0
   46.3050   34.4980   43.5200 C   0  0  0  0  0  0  0  0  0  0  0  0
   45.5770   35.6840   43.3230 C   0  0  0  0  0  0  0  0  0  0  0  0
   44.6950   36.1110   44.3130 C   0  0  0  0  0  0  0  0  0  0  0  0
   44.5940   35.3240   45.4430 N   0  0  0  0  0  0  0  0  0  0  0  0
   45.3060   34.1910   45.6020 C   0  0  0  0  0  0  0  0  0  0  0  0
   46.1420   33.8030   44.6470 N   0  0  0  0  0  0  0  0  0  0  0  0
   45.4460   33.3160   40.8780 C   0  0  0  0  0  0  0  0  0  0  0  0
   45.6370   32.2020   41.7030 F   0  0  0  0  0  0  0  0  0  0  0  0
   44.2010   33.8520   41.1230 F   0  0  0  0  0  0  0  0  0  0  0  0
   45.4980   32.9320   39.5620 F   0  0  0  0  0  0  0  0  0  0  0  0
   47.3809   32.9856   42.4827 H   0  0  0  0  0  0  0  0  0  0  0  0
   48.6190   35.1963   43.5361 H   0  0  0  0  0  0  0  0  0  0  0  0
   49.3025   33.8893   42.4688 H   0  0  0  0  0  0  0  0  0  0  0  0
   48.1326   36.5344   41.5836 H   0  0  0  0  0  0  0  0  0  0  0  0
   49.8794   36.0379   41.6016 H   0  0  0  0  0  0  0  0  0  0  0  0
   48.6316   35.9243   39.3684 H   0  0  0  0  0  0  0  0  0  0  0  0
   49.5799   34.4682   39.9208 H   0  0  0  0  0  0  0  0  0  0  0  0
   46.9545   34.5340   39.0370 H   0  0  0  0  0  0  0  0  0  0  0  0
   47.8372   33.1948   39.9099 H   0  0  0  0  0  0  0  0  0  0  0  0
   46.1299   35.3636   41.1862 H   0  0  0  0  0  0  0  0  0  0  0  0
   45.7021   36.2675   42.3989 H   0  0  0  0  0  0  0  0  0  0  0  0
   44.1059   37.0330   44.1997 H   0  0  0  0  0  0  0  0  0  0  0  0
   45.1950   33.5915   46.5176 H   0  0  0  0  0  0  0  0  0  0  0  0
  1  2  1  0
  1  7  1  0
  3  2  1  0
  4  3  1  0
  5  4  1  0
  5  6  1  0
  6  1  1  0
  7 12  1  0
  8  7  2  0
  8  9  1  0
  9 10  2  0
 10 11  1  0
 12 11  2  0
 13  6  1  0
 13 15  1  0
 13 14  1  0
 16 13  1  0
  1 17  1  1
  2 18  1  0
  2 19  1  0
  3 20  1  0
  3 21  1  0
  4 22  1  0
  4 23  1  0
  5 24  1  0
  5 25  1  0
  6 26  1  1
  8 27  1  0
  9 28  1  0
 11 29  1  0
M  ISO  8  17  13  18  13  19  13  20  13  21  13  22  13  23  13  24  13
M  ISO  5  25  13  26  13  27  14  28  14  29  14
M  END
>  <minimizedAffinity>  (1) 
-5.18726063

>  <minimizedRMSD>  (1) 
5.04575109

$$$$
