
     RDKit          3D

 26 27  0  0  0  0  0  0  0  0999 V2000
   46.8510   34.8750   42.6980 C   0  0  0  0  0  0  0  0  0  0  0  0
   48.0560   34.5520   42.0760 C   0  0  0  0  0  0  0  0  0  0  0  0
   48.7640   33.4680   42.6020 C   0  0  0  0  0  0  0  0  0  0  0  0
   48.2390   32.8060   43.6720 N   0  0  0  0  0  0  0  0  0  0  0  0
   47.0760   33.1520   44.2390 C   0  0  0  0  0  0  0  0  0  0  0  0
   46.3760   34.1920   43.7500 N   0  0  0  0  0  0  0  0  0  0  0  0
   45.9840   30.3740   43.5990 Cl  0  0  0  0  0  0  0  0  0  0  0  0
   46.0540   31.1290   45.1920 C   0  0  0  0  0  0  0  0  0  0  0  0
   46.5700   32.4000   45.3840 C   0  0  0  0  0  0  0  0  0  0  0  0
   46.6150   32.9710   46.6410 C   0  0  0  0  0  0  0  0  0  0  0  0
   46.1330   32.2480   47.7260 C   0  0  0  0  0  0  0  0  0  0  0  0
   45.6270   30.9870   47.4940 C   0  0  0  0  0  0  0  0  0  0  0  0
   45.0270   30.1030   48.8820 Cl  0  0  0  0  0  0  0  0  0  0  0  0
   45.5680   30.3920   46.2530 C   0  0  0  0  0  0  0  0  0  0  0  0
   48.5040   35.3340   40.9450 C   0  0  0  0  0  0  0  0  0  0  0  0
   48.1560   34.5870   39.6700 C   0  0  0  0  0  0  0  0  0  0  0  0
   46.2670   35.7230   42.3110 H   0  0  0  0  0  0  0  0  0  0  0  0
   49.7230   33.1560   42.1627 H   0  0  0  0  0  0  0  0  0  0  0  0
   47.0257   33.9818   46.7812 H   0  0  0  0  0  0  0  0  0  0  0  0
   46.1548   32.6704   48.7414 H   0  0  0  0  0  0  0  0  0  0  0  0
   45.1550   29.3819   46.1148 H   0  0  0  0  0  0  0  0  0  0  0  0
   48.0022   36.3129   40.9495 H   0  0  0  0  0  0  0  0  0  0  0  0
   49.5913   35.4901   41.0037 H   0  0  0  0  0  0  0  0  0  0  0  0
   47.7041   33.6171   39.9250 H   0  0  0  0  0  0  0  0  0  0  0  0
   47.4417   35.1806   39.0806 H   0  0  0  0  0  0  0  0  0  0  0  0
   49.0700   34.4221   39.0806 H   0  0  0  0  0  0  0  0  0  0  0  0
  1  6  2  0
  2  3  2  0
  2  1  1  0
  3  4  1  0
  4  5  2  0
  5  9  1  0
  6  5  1  0
  7  8  1  0
  8  9  2  0
  8 14  1  0
  9 10  1  0
 10 11  2  0
 12 11  1  0
 12 13  1  0
 14 12  2  0
 15  2  1  0
 16 15  1  0
  1 17  1  0
  3 18  1  0
 10 19  1  0
 11 20  1  0
 14 21  1  0
 15 22  1  0
 15 23  1  0
 16 24  1  0
 16 25  1  0
 16 26  1  0
M  ISO  8  17  14  18  14  19  14  20  14  21  14  22   8  23   8  24   8
M  ISO  2  25   8  26   8
M  END
>  <minimizedAffinity>  (1) 
-4.56642342

>  <minimizedRMSD>  (1) 
2.71038032

$$$$
