
     RDKit          3D

 33 35  0  0  0  0  0  0  0  0999 V2000
   46.0900   34.7180   43.3740 C   0  0  0  0  0  0  0  0  0  0  0  0
   47.3180   34.5380   42.7180 C   0  0  0  0  0  0  0  0  0  0  0  0
   48.1310   33.5080   43.1770 C   0  0  0  0  0  0  0  0  0  0  0  0
   47.6870   32.7520   44.2210 N   0  0  0  0  0  0  0  0  0  0  0  0
   46.5170   32.9500   44.8210 C   0  0  0  0  0  0  0  0  0  0  0  0
   45.7030   33.9440   44.3960 N   0  0  0  0  0  0  0  0  0  0  0  0
   45.8670   30.0620   44.0770 Cl  0  0  0  0  0  0  0  0  0  0  0  0
   45.7830   30.7770   45.6890 C   0  0  0  0  0  0  0  0  0  0  0  0
   46.1000   32.1040   45.9330 C   0  0  0  0  0  0  0  0  0  0  0  0
   46.0250   32.6310   47.1990 C   0  0  0  0  0  0  0  0  0  0  0  0
   45.6250   31.8100   48.2490 C   0  0  0  0  0  0  0  0  0  0  0  0
   45.3190   30.4930   47.9670 C   0  0  0  0  0  0  0  0  0  0  0  0
   44.8220   29.5120   49.3270 Cl  0  0  0  0  0  0  0  0  0  0  0  0
   45.3830   29.9430   46.7150 C   0  0  0  0  0  0  0  0  0  0  0  0
   47.6510   35.4310   41.6170 C   0  0  0  0  0  0  0  0  0  0  0  0
   48.5880   34.7070   40.6870 C   0  0  0  0  0  0  0  0  0  0  0  0
   48.0270   34.2700   39.4460 C   0  0  0  0  0  0  0  0  0  0  0  0
   48.3820   34.4580   38.0630 C   0  0  0  0  0  0  0  0  0  0  0  0
   47.6080   33.8770   37.1180 C   0  0  0  0  0  0  0  0  0  0  0  0
   46.4580   33.0900   37.4680 C   0  0  0  0  0  0  0  0  0  0  0  0
   46.5070   33.2070   39.3510 S   0  0  0  0  0  0  0  0  0  0  0  0
   45.4216   35.5238   43.0364 H   0  0  0  0  0  0  0  0  0  0  0  0
   49.1068   33.3082   42.7102 H   0  0  0  0  0  0  0  0  0  0  0  0
   46.2773   33.6862   47.3803 H   0  0  0  0  0  0  0  0  0  0  0  0
   45.5545   32.1992   49.2754 H   0  0  0  0  0  0  0  0  0  0  0  0
   45.1283   28.8882   46.5348 H   0  0  0  0  0  0  0  0  0  0  0  0
   46.7352   35.7129   41.0768 H   0  0  0  0  0  0  0  0  0  0  0  0
   48.1293   36.3440   42.0013 H   0  0  0  0  0  0  0  0  0  0  0  0
   49.4245   35.3837   40.4583 H   0  0  0  0  0  0  0  0  0  0  0  0
   48.8827   33.7900   41.2182 H   0  0  0  0  0  0  0  0  0  0  0  0
   49.2599   35.0585   37.7824 H   0  0  0  0  0  0  0  0  0  0  0  0
   47.8650   34.0102   36.0568 H   0  0  0  0  0  0  0  0  0  0  0  0
   45.7446   32.5636   36.8169 H   0  0  0  0  0  0  0  0  0  0  0  0
  1  6  2  0
  2  3  2  0
  2  1  1  0
  3  4  1  0
  4  5  2  0
  5  9  1  0
  6  5  1  0
  7  8  1  0
  8  9  2  0
  8 14  1  0
  9 10  1  0
 10 11  2  0
 12 11  1  0
 12 13  1  0
 14 12  2  0
 15  2  1  0
 16 15  1  0
 17 16  1  0
 18 17  2  0
 19 20  2  0
 19 18  1  0
 20 21  1  0
 21 17  1  0
  1 22  1  0
  3 23  1  0
 10 24  1  0
 11 25  1  0
 14 26  1  0
 15 27  1  0
 15 28  1  0
 16 29  1  0
 16 30  1  0
 18 31  1  0
 19 32  1  0
 20 33  1  0
M  ISO  8  22  14  23  14  24  14  25  14  26  14  27   8  28   8  29   8
M  ISO  4  30   8  31  14  32  14  33  14
M  END
>  <minimizedAffinity>  (1) 
-4.80227613

>  <minimizedRMSD>  (1) 
1.51020992

$$$$
