
     RDKit          3D

 23 24  0  0  0  0  0  0  0  0999 V2000
   47.7400   33.7470   42.9780 C   0  0  0  0  0  0  0  0  0  0  0  0
   45.0530   34.5600   45.4450 C   0  0  0  0  0  0  0  0  0  0  0  0
   46.1570   33.9250   44.8400 C   0  0  0  0  0  0  0  0  0  0  0  0
   46.5920   34.4110   43.5960 C   0  0  0  0  0  0  0  0  0  0  0  0
   45.9230   35.4700   43.0440 N   0  0  0  0  0  0  0  0  0  0  0  0
   44.8700   36.0450   43.6630 C   0  0  0  0  0  0  0  0  0  0  0  0
   44.4430   35.5930   44.8520 N   0  0  0  0  0  0  0  0  0  0  0  0
   49.2280   35.9770   41.6030 Cl  0  0  0  0  0  0  0  0  0  0  0  0
   48.3080   34.6770   40.8450 C   0  0  0  0  0  0  0  0  0  0  0  0
   47.6180   33.6460   41.4930 C   0  0  0  0  0  0  0  0  0  0  0  0
   46.9510   32.7180   40.7240 C   0  0  0  0  0  0  0  0  0  0  0  0
   46.9520   32.7890   39.3620 C   0  0  0  0  0  0  0  0  0  0  0  0
   47.6310   33.8070   38.6810 C   0  0  0  0  0  0  0  0  0  0  0  0
   48.3010   34.7380   39.4470 C   0  0  0  0  0  0  0  0  0  0  0  0
   48.6484   34.3190   43.2182 H   0  0  0  0  0  0  0  0  0  0  0  0
   47.7858   32.7232   43.3776 H   0  0  0  0  0  0  0  0  0  0  0  0
   44.6878   34.2011   46.4186 H   0  0  0  0  0  0  0  0  0  0  0  0
   46.6611   33.0768   45.3263 H   0  0  0  0  0  0  0  0  0  0  0  0
   44.3564   36.8935   43.1873 H   0  0  0  0  0  0  0  0  0  0  0  0
   46.4054   31.9014   41.2195 H   0  0  0  0  0  0  0  0  0  0  0  0
   46.4063   32.0283   38.7845 H   0  0  0  0  0  0  0  0  0  0  0  0
   47.6301   33.8618   37.5824 H   0  0  0  0  0  0  0  0  0  0  0  0
   48.8452   35.5514   38.9448 H   0  0  0  0  0  0  0  0  0  0  0  0
  1  4  1  0
  3  2  2  0
  4  3  1  0
  5  4  2  0
  5  6  1  0
  6  7  2  0
  7  2  1  0
  9 10  2  0
  9  8  1  0
 10  1  1  0
 11 10  1  0
 12 11  2  0
 13 12  1  0
 13 14  2  0
 14  9  1  0
  1 15  1  0
  1 16  1  0
  2 17  1  0
  3 18  1  0
  6 19  1  0
 11 20  1  0
 12 21  1  0
 13 22  1  0
 14 23  1  0
M  ISO  8  15   8  16   8  17  14  18  14  19  14  20  14  21  14  22  14
M  ISO  1  23  14
M  END
>  <minimizedAffinity>  (1) 
-4.57009459

>  <minimizedRMSD>  (1) 
2.69742703

$$$$
