
     RDKit          3D

 23 24  0  0  0  0  0  0  0  0999 V2000
   45.0470   34.5800   42.8840 C   0  0  0  0  0  0  0  0  0  0  0  0
   45.3420   33.9250   44.1610 N   0  0  0  0  0  0  0  0  0  0  0  0
   45.8790   32.6730   44.2600 C   0  0  0  0  0  0  0  0  0  0  0  0
   46.1010   32.1880   45.5220 C   0  0  0  0  0  0  0  0  0  0  0  0
   45.8040   32.9130   46.6690 C   0  0  0  0  0  0  0  0  0  0  0  0
   46.0260   32.4260   47.7870 O   0  0  0  0  0  0  0  0  0  0  0  0
   45.2770   34.1430   46.5670 N   0  0  0  0  0  0  0  0  0  0  0  0
   45.0710   34.5920   45.3150 C   0  0  0  0  0  0  0  0  0  0  0  0
   44.5700   35.7590   45.2030 O   0  0  0  0  0  0  0  0  0  0  0  0
   47.2520   34.0600   39.9300 C   0  0  0  0  0  0  0  0  0  0  0  0
   46.1300   33.9990   40.7750 C   0  0  0  0  0  0  0  0  0  0  0  0
   46.2240   34.6530   42.0140 C   0  0  0  0  0  0  0  0  0  0  0  0
   47.3870   35.3080   42.3330 N   0  0  0  0  0  0  0  0  0  0  0  0
   48.4360   35.3350   41.4810 C   0  0  0  0  0  0  0  0  0  0  0  0
   48.3680   34.7130   40.2840 N   0  0  0  0  0  0  0  0  0  0  0  0
   44.2597   34.0111   42.3677 H   0  0  0  0  0  0  0  0  0  0  0  0
   44.7221   35.6086   43.0994 H   0  0  0  0  0  0  0  0  0  0  0  0
   46.1225   32.0802   43.3659 H   0  0  0  0  0  0  0  0  0  0  0  0
   46.5326   31.1821   45.6315 H   0  0  0  0  0  0  0  0  0  0  0  0
   45.0445   34.7086   47.3958 H   0  0  0  0  0  0  0  0  0  0  0  0
   47.2131   33.5583   38.9518 H   0  0  0  0  0  0  0  0  0  0  0  0
   45.2172   33.4617   40.4781 H   0  0  0  0  0  0  0  0  0  0  0  0
   49.3546   35.8691   41.7654 H   0  0  0  0  0  0  0  0  0  0  0  0
  1  2  1  0
  2  3  1  0
  2  8  1  0
  3  4  2  0
  4  5  1  0
  5  6  2  0
  7  5  1  0
  8  7  1  0
  9  8  2  0
 10 15  2  0
 10 11  1  0
 11 12  2  0
 12 13  1  0
 12  1  1  0
 14 13  2  0
 15 14  1  0
  1 16  1  0
  1 17  1  0
  3 18  1  0
  4 19  1  0
  7 20  1  0
 10 21  1  0
 11 22  1  0
 14 23  1  0
M  ISO  8  16   8  17   8  18  14  19  14  20   9  21  14  22  14  23  14
M  END
>  <minimizedAffinity>  (1) 
-4.67503929

>  <minimizedRMSD>  (1) 
5.67463636

$$$$
