
     RDKit          3D

 39 41  0  0  1  0  0  0  0  0999 V2000
   46.6360   33.5640   43.0210 C   0  0  2  0  0  0  0  0  0  0  0  0
   46.0350   34.6380   42.1670 C   0  0  0  0  0  0  0  0  0  0  0  0
   45.6270   35.8630   42.9300 C   0  0  0  0  0  0  0  0  0  0  0  0
   44.7380   35.5760   44.1160 C   0  0  0  0  0  0  0  0  0  0  0  0
   45.1260   34.3110   44.8610 C   0  0  0  0  0  0  0  0  0  0  0  0
   46.5120   33.8300   44.4940 C   0  0  1  0  0  0  0  0  0  0  0  0
   48.0810   33.4200   42.7200 C   0  0  0  0  0  0  0  0  0  0  0  0
   48.8860   34.5710   42.8080 C   0  0  0  0  0  0  0  0  0  0  0  0
   50.2490   34.4990   42.5340 C   0  0  0  0  0  0  0  0  0  0  0  0
   50.7430   33.2830   42.1850 N   0  0  0  0  0  0  0  0  0  0  0  0
   49.9640   32.1780   42.1030 C   0  0  0  0  0  0  0  0  0  0  0  0
   48.6560   32.2720   42.3710 N   0  0  0  0  0  0  0  0  0  0  0  0
   46.7770   32.6070   45.2160 N   0  0  0  0  0  0  0  0  0  0  0  0
   46.8950   32.8020   46.6260 C   0  0  0  0  0  0  0  0  0  0  0  0
   46.1660   31.8580   47.5050 C   0  0  0  0  0  0  0  0  0  0  0  0
   46.2960   30.4200   47.0290 C   0  0  0  0  0  0  0  0  0  0  0  0
   45.6990   30.3890   45.6630 C   0  0  0  0  0  0  0  0  0  0  0  0
   46.1130   31.4670   44.7460 C   0  0  0  0  0  0  0  0  0  0  0  0
   46.0730   32.6495   42.7827 H   0  0  0  0  0  0  0  0  0  0  0  0
   45.1442   34.2271   41.6694 H   0  0  0  0  0  0  0  0  0  0  0  0
   46.8111   34.9501   41.4527 H   0  0  0  0  0  0  0  0  0  0  0  0
   46.5365   36.3647   43.2921 H   0  0  0  0  0  0  0  0  0  0  0  0
   45.0455   36.4911   42.2391 H   0  0  0  0  0  0  0  0  0  0  0  0
   44.7994   36.4250   44.8127 H   0  0  0  0  0  0  0  0  0  0  0  0
   43.7175   35.4299   43.7323 H   0  0  0  0  0  0  0  0  0  0  0  0
   45.0968   34.5141   45.9417 H   0  0  0  0  0  0  0  0  0  0  0  0
   44.4115   33.5231   44.5804 H   0  0  0  0  0  0  0  0  0  0  0  0
   47.2356   34.6149   44.7591 H   0  0  0  0  0  0  0  0  0  0  0  0
   48.4358   35.5328   43.0948 H   0  0  0  0  0  0  0  0  0  0  0  0
   50.8961   35.3862   42.5973 H   0  0  0  0  0  0  0  0  0  0  0  0
   50.4031   31.2105   41.8182 H   0  0  0  0  0  0  0  0  0  0  0  0
   47.9629   32.7337   46.8810 H   0  0  0  0  0  0  0  0  0  0  0  0
   46.4310   33.7811   46.8159 H   0  0  0  0  0  0  0  0  0  0  0  0
   46.5749   31.9332   48.5234 H   0  0  0  0  0  0  0  0  0  0  0  0
   45.0999   32.1279   47.4831 H   0  0  0  0  0  0  0  0  0  0  0  0
   47.3545   30.1232   46.9913 H   0  0  0  0  0  0  0  0  0  0  0  0
   45.7876   29.7208   47.7091 H   0  0  0  0  0  0  0  0  0  0  0  0
   44.9897   29.6061   45.3566 H   0  0  0  0  0  0  0  0  0  0  0  0
   45.8960   31.3739   43.6716 H   0  0  0  0  0  0  0  0  0  0  0  0
  1  6  1  0
  2  3  1  0
  2  1  1  0
  3  4  1  0
  4  5  1  0
  6  5  1  0
  6 13  1  0
  7  8  2  0
  7  1  1  0
  9  8  1  0
 10  9  2  0
 11 10  1  0
 11 12  2  0
 12  7  1  0
 13 14  1  0
 14 15  1  0
 16 15  1  0
 17 16  1  0
 18 13  1  0
 18 17  2  0
  1 19  1  1
  2 20  1  0
  2 21  1  0
  3 22  1  0
  3 23  1  0
  4 24  1  0
  4 25  1  0
  5 26  1  0
  5 27  1  0
  6 28  1  1
  8 29  1  0
  9 30  1  0
 11 31  1  0
 14 32  1  0
 14 33  1  0
 15 34  1  0
 15 35  1  0
 16 36  1  0
 16 37  1  0
 17 38  1  0
 18 39  1  0
M  ISO  8  19  13  20  13  21  13  22  13  23  13  24  13  25  13  26  13
M  ISO  8  27  13  28  13  29  14  30  14  31  14  32  13  33  13  34  13
M  ISO  5  35  13  36  13  37  13  38  13  39  13
M  END
>  <minimizedAffinity>  (1) 
-4.96267366

>  <minimizedRMSD>  (1) 
1.63731301

$$$$
