
     RDKit          3D

 28 29  0  0  1  0  0  0  0  0999 V2000
   47.2460   34.0470   42.4810 C   0  0  2  0  0  0  0  0  0  0  0  0
   48.5770   34.6720   42.5840 C   0  0  0  0  0  0  0  0  0  0  0  0
   48.8450   35.6830   41.5090 C   0  0  0  0  0  0  0  0  0  0  0  0
   48.6800   35.0950   40.1200 C   0  0  0  0  0  0  0  0  0  0  0  0
   47.4520   34.2370   39.9790 C   0  0  0  0  0  0  0  0  0  0  0  0
   46.5390   34.3190   41.1660 C   0  0  1  0  0  0  0  0  0  0  0  0
   46.3310   34.4550   43.5640 C   0  0  0  0  0  0  0  0  0  0  0  0
   45.5780   35.6300   43.3300 C   0  0  0  0  0  0  0  0  0  0  0  0
   44.6840   36.0730   44.3050 C   0  0  0  0  0  0  0  0  0  0  0  0
   44.5940   35.3130   45.4550 N   0  0  0  0  0  0  0  0  0  0  0  0
   45.3270   34.1950   45.6460 C   0  0  0  0  0  0  0  0  0  0  0  0
   46.1840   33.7740   44.7120 N   0  0  0  0  0  0  0  0  0  0  0  0
   45.5140   33.2470   40.9960 C   0  0  0  0  0  0  0  0  0  0  0  0
   44.3420   33.4930   40.7110 O   0  0  0  0  0  0  0  0  0  0  0  0
   47.4696   32.9727   42.5574 H   0  0  0  0  0  0  0  0  0  0  0  0
   48.6524   35.1729   43.5604 H   0  0  0  0  0  0  0  0  0  0  0  0
   49.3218   33.8707   42.4692 H   0  0  0  0  0  0  0  0  0  0  0  0
   48.1412   36.5203   41.6258 H   0  0  0  0  0  0  0  0  0  0  0  0
   49.8868   36.0205   41.6129 H   0  0  0  0  0  0  0  0  0  0  0  0
   48.6136   35.9211   39.3967 H   0  0  0  0  0  0  0  0  0  0  0  0
   49.5513   34.4500   39.9336 H   0  0  0  0  0  0  0  0  0  0  0  0
   46.8971   34.5634   39.0870 H   0  0  0  0  0  0  0  0  0  0  0  0
   47.7885   33.1931   39.8948 H   0  0  0  0  0  0  0  0  0  0  0  0
   46.1241   35.3369   41.2075 H   0  0  0  0  0  0  0  0  0  0  0  0
   45.6963   36.1880   42.3895 H   0  0  0  0  0  0  0  0  0  0  0  0
   44.0808   36.9822   44.1650 H   0  0  0  0  0  0  0  0  0  0  0  0
   45.2171   33.6251   46.5805 H   0  0  0  0  0  0  0  0  0  0  0  0
   45.8173   32.1982   41.1304 H   0  0  0  0  0  0  0  0  0  0  0  0
  1  2  1  0
  1  7  1  0
  3  2  1  0
  4  3  1  0
  5  4  1  0
  5  6  1  0
  6  1  1  0
  7 12  1  0
  8  7  2  0
  8  9  1  0
  9 10  2  0
 10 11  1  0
 12 11  2  0
 13  6  1  0
 14 13  2  0
  1 15  1  1
  2 16  1  0
  2 17  1  0
  3 18  1  0
  3 19  1  0
  4 20  1  0
  4 21  1  0
  5 22  1  0
  5 23  1  0
  6 24  1  1
  8 25  1  0
  9 26  1  0
 11 27  1  0
 13 28  1  0
M  ISO  8  15  13  16  13  17  13  18  13  19  13  20  13  21  13  22  13
M  ISO  6  23  13  24  13  25  14  26  14  27  14  28   6
M  END
>  <minimizedAffinity>  (1) 
-4.95903969

>  <minimizedRMSD>  (1) 
4.95723724

$$$$
