
     RDKit          3D

 35 37  0  0  1  0  0  0  0  0999 V2000
   46.2980   33.6780   43.3130 C   0  0  2  0  0  0  0  0  0  0  0  0
   45.6580   34.6510   42.4090 C   0  0  0  0  0  0  0  0  0  0  0  0
   45.3590   35.9690   43.0620 C   0  0  0  0  0  0  0  0  0  0  0  0
   44.4920   35.7980   44.2920 C   0  0  0  0  0  0  0  0  0  0  0  0
   44.9500   34.6790   45.1860 C   0  0  0  0  0  0  0  0  0  0  0  0
   46.2630   34.0960   44.7730 C   0  0  1  0  0  0  0  0  0  0  0  0
   47.7060   33.4050   42.9610 C   0  0  0  0  0  0  0  0  0  0  0  0
   48.5600   34.5480   42.9040 C   0  0  0  0  0  0  0  0  0  0  0  0
   49.9030   34.3660   42.5860 C   0  0  0  0  0  0  0  0  0  0  0  0
   50.3230   33.0780   42.3450 N   0  0  0  0  0  0  0  0  0  0  0  0
   49.4860   32.0150   42.4090 C   0  0  0  0  0  0  0  0  0  0  0  0
   48.1810   32.1840   42.7160 N   0  0  0  0  0  0  0  0  0  0  0  0
   46.4380   32.8420   45.5620 C   0  0  0  0  0  0  0  0  0  0  0  0
   45.8760   31.6500   45.0910 C   0  0  0  0  0  0  0  0  0  0  0  0
   46.0840   30.5360   45.8800 C   0  0  0  0  0  0  0  0  0  0  0  0
   46.8090   30.6600   47.0470 C   0  0  0  0  0  0  0  0  0  0  0  0
   47.3550   31.8380   47.4970 C   0  0  0  0  0  0  0  0  0  0  0  0
   47.1380   32.9050   46.7130 N   0  0  0  0  0  0  0  0  0  0  0  0
   45.6956   32.7673   43.1800 H   0  0  0  0  0  0  0  0  0  0  0  0
   44.7132   34.2200   42.0463 H   0  0  0  0  0  0  0  0  0  0  0  0
   46.3676   34.8485   41.5920 H   0  0  0  0  0  0  0  0  0  0  0  0
   46.3062   36.4446   43.3563 H   0  0  0  0  0  0  0  0  0  0  0  0
   44.8129   36.5944   42.3404 H   0  0  0  0  0  0  0  0  0  0  0  0
   44.5113   36.7356   44.8669 H   0  0  0  0  0  0  0  0  0  0  0  0
   43.4782   35.5474   43.9463 H   0  0  0  0  0  0  0  0  0  0  0  0
   45.0465   35.0672   46.2107 H   0  0  0  0  0  0  0  0  0  0  0  0
   44.1999   33.8773   45.1172 H   0  0  0  0  0  0  0  0  0  0  0  0
   47.0386   34.8586   44.9369 H   0  0  0  0  0  0  0  0  0  0  0  0
   48.1639   35.5538   43.1076 H   0  0  0  0  0  0  0  0  0  0  0  0
   50.5991   35.2159   42.5298 H   0  0  0  0  0  0  0  0  0  0  0  0
   49.8723   31.0046   42.2092 H   0  0  0  0  0  0  0  0  0  0  0  0
   45.3049   31.6035   44.1520 H   0  0  0  0  0  0  0  0  0  0  0  0
   45.6756   29.5594   45.5809 H   0  0  0  0  0  0  0  0  0  0  0  0
   46.9599   29.7572   47.6570 H   0  0  0  0  0  0  0  0  0  0  0  0
   47.9290   31.9017   48.4332 H   0  0  0  0  0  0  0  0  0  0  0  0
  1  6  1  0
  2  3  1  0
  2  1  1  0
  3  4  1  0
  4  5  1  0
  6  5  1  0
  6 13  1  0
  7  1  1  0
  8  7  2  0
  9  8  1  0
 10 11  1  0
 10  9  2  0
 11 12  2  0
 12  7  1  0
 13 18  1  0
 14 13  2  0
 14 15  1  0
 15 16  2  0
 16 17  1  0
 18 17  2  0
  1 19  1  1
  2 20  1  0
  2 21  1  0
  3 22  1  0
  3 23  1  0
  4 24  1  0
  4 25  1  0
  5 26  1  0
  5 27  1  0
  6 28  1  6
  8 29  1  0
  9 30  1  0
 11 31  1  0
 14 32  1  0
 15 33  1  0
 16 34  1  0
 17 35  1  0
M  ISO  8  19  13  20  13  21  13  22  13  23  13  24  13  25  13  26  13
M  ISO  8  27  13  28  13  29  14  30  14  31  14  32  14  33  14  34  14
M  ISO  1  35  14
M  END
>  <minimizedAffinity>  (1) 
-4.95294905

>  <minimizedRMSD>  (1) 
1.73541081

$$$$
