
     RDKit          3D

 33 35  0  0  1  0  0  0  0  0999 V2000
   47.5880   33.8780   42.0710 N   0  0  0  0  0  0  0  0  0  0  0  0
   47.8550   34.5200   40.8320 C   0  0  0  0  0  0  0  0  0  0  0  0
   49.0470   35.3800   41.1690 C   0  0  0  0  0  0  0  0  0  0  0  0
   49.4290   35.1260   42.6140 C   0  0  0  0  0  0  0  0  0  0  0  0
   48.7200   33.7710   42.8570 C   0  0  2  0  0  0  0  0  0  0  0  0
   48.0590   31.0940   43.8820 Cl  0  0  0  0  0  0  0  0  0  0  0  0
   49.3900   31.4410   42.7770 C   0  0  0  0  0  0  0  0  0  0  0  0
   49.6410   32.7460   42.3350 C   0  0  0  0  0  0  0  0  0  0  0  0
   50.7130   32.8440   41.4790 C   0  0  0  0  0  0  0  0  0  0  0  0
   51.4700   31.7620   41.0890 C   0  0  0  0  0  0  0  0  0  0  0  0
   51.1910   30.4910   41.5460 C   0  0  0  0  0  0  0  0  0  0  0  0
   52.2220   29.1990   40.9820 Cl  0  0  0  0  0  0  0  0  0  0  0  0
   50.1260   30.3380   42.4070 C   0  0  0  0  0  0  0  0  0  0  0  0
   46.3150   33.5480   42.4100 C   0  0  0  0  0  0  0  0  0  0  0  0
   44.5260   36.0670   44.5750 C   0  0  0  0  0  0  0  0  0  0  0  0
   45.1080   35.5220   43.4010 C   0  0  0  0  0  0  0  0  0  0  0  0
   45.7110   34.2720   43.5240 C   0  0  0  0  0  0  0  0  0  0  0  0
   45.7130   33.6530   44.7240 N   0  0  0  0  0  0  0  0  0  0  0  0
   45.1400   34.2060   45.8480 C   0  0  0  0  0  0  0  0  0  0  0  0
   44.5520   35.4100   45.7580 N   0  0  0  0  0  0  0  0  0  0  0  0
   47.3273   34.4163   39.8725 H   0  0  0  0  0  0  0  0  0  0  0  0
   49.5537   36.0742   40.4825 H   0  0  0  0  0  0  0  0  0  0  0  0
   50.5188   35.0424   42.7376 H   0  0  0  0  0  0  0  0  0  0  0  0
   49.1421   35.9261   43.3123 H   0  0  0  0  0  0  0  0  0  0  0  0
   48.4655   33.5233   43.8981 H   0  0  0  0  0  0  0  0  0  0  0  0
   50.9790   33.8365   41.0863 H   0  0  0  0  0  0  0  0  0  0  0  0
   52.3136   31.9143   40.3996 H   0  0  0  0  0  0  0  0  0  0  0  0
   49.8660   29.3423   42.7956 H   0  0  0  0  0  0  0  0  0  0  0  0
   45.6832   33.7157   41.5253 H   0  0  0  0  0  0  0  0  0  0  0  0
   46.3746   32.5037   42.7504 H   0  0  0  0  0  0  0  0  0  0  0  0
   44.0396   37.0522   44.5220 H   0  0  0  0  0  0  0  0  0  0  0  0
   45.0842   36.0597   42.4417 H   0  0  0  0  0  0  0  0  0  0  0  0
   45.1638   33.6681   46.8072 H   0  0  0  0  0  0  0  0  0  0  0  0
  1 14  1  0
  1  5  1  0
  2  3  2  0
  2  1  1  0
  3  4  1  0
  4  5  1  0
  7  6  1  0
  8  7  2  0
  8  5  1  0
  9  8  1  0
 10  9  2  0
 10 11  1  0
 11 13  2  0
 12 11  1  0
 13  7  1  0
 14 17  1  0
 15 20  2  0
 16 17  2  0
 16 15  1  0
 17 18  1  0
 18 19  2  0
 20 19  1  0
  2 21  1  0
  3 22  1  0
  4 23  1  0
  4 24  1  0
  5 25  1  1
  9 26  1  0
 10 27  1  0
 13 28  1  0
 14 29  1  0
 14 30  1  0
 15 31  1  0
 16 32  1  0
 19 33  1  0
M  ISO  8  21  13  22  13  23  13  24  13  25  13  26  14  27  14  28  14
M  ISO  5  29   8  30   8  31  14  32  14  33  14
M  END
>  <minimizedAffinity>  (1) 
-5.08753347

>  <minimizedRMSD>  (1) 
1.74131942

$$$$
