
     RDKit          3D

 25 26  0  0  1  0  0  0  0  0999 V2000
   46.1410   34.1790   40.9120 N   0  0  0  0  0  0  0  0  0  0  0  0
   45.8580   33.3490   39.7900 C   0  0  0  0  0  0  0  0  0  0  0  0
   47.1180   33.5030   38.9710 C   0  0  0  0  0  0  0  0  0  0  0  0
   48.0910   34.3690   39.7290 C   0  0  0  0  0  0  0  0  0  0  0  0
   47.4950   34.3320   41.1590 C   0  0  1  0  0  0  0  0  0  0  0  0
   45.1100   34.7970   41.5430 C   0  0  0  0  0  0  0  0  0  0  0  0
   44.6110   35.5360   45.2100 C   0  0  0  0  0  0  0  0  0  0  0  0
   44.5810   35.7480   43.8100 C   0  0  0  0  0  0  0  0  0  0  0  0
   45.1030   34.7540   43.0000 C   0  0  0  0  0  0  0  0  0  0  0  0
   45.6090   33.6500   43.5950 N   0  0  0  0  0  0  0  0  0  0  0  0
   45.6340   33.4550   44.9440 C   0  0  0  0  0  0  0  0  0  0  0  0
   45.1300   34.4070   45.7540 N   0  0  0  0  0  0  0  0  0  0  0  0
   47.9580   35.4810   41.8420 N   0  0  0  0  0  0  0  0  0  0  0  0
   44.9587   32.7527   39.5760 H   0  0  0  0  0  0  0  0  0  0  0  0
   47.2963   33.0557   37.9820 H   0  0  0  0  0  0  0  0  0  0  0  0
   49.1062   33.9461   39.7065 H   0  0  0  0  0  0  0  0  0  0  0  0
   48.2017   35.3829   39.3171 H   0  0  0  0  0  0  0  0  0  0  0  0
   47.7905   33.5255   41.8462 H   0  0  0  0  0  0  0  0  0  0  0  0
   45.1237   35.8551   41.2426 H   0  0  0  0  0  0  0  0  0  0  0  0
   44.2128   34.2389   41.2370 H   0  0  0  0  0  0  0  0  0  0  0  0
   44.2013   36.3098   45.8759 H   0  0  0  0  0  0  0  0  0  0  0  0
   44.1583   36.6689   43.3818 H   0  0  0  0  0  0  0  0  0  0  0  0
   46.0600   32.5327   45.3659 H   0  0  0  0  0  0  0  0  0  0  0  0
   47.8951   35.3250   42.8582 H   0  0  0  0  0  0  0  0  0  0  0  0
   48.9380   35.6630   41.5826 H   0  0  0  0  0  0  0  0  0  0  0  0
  1  5  1  0
  1  6  1  0
  2  1  1  0
  3  4  1  0
  3  2  2  0
  4  5  1  0
  5 13  1  0
  6  9  1  0
  7 12  2  0
  8  7  1  0
  9 10  1  0
  9  8  2  0
 10 11  2  0
 11 12  1  0
  2 14  1  0
  3 15  1  0
  4 16  1  0
  4 17  1  0
  5 18  1  1
  6 19  1  0
  6 20  1  0
  7 21  1  0
  8 22  1  0
 11 23  1  0
 13 24  1  0
 13 25  1  0
M  ISO  8  14  13  15  13  16  13  17  13  18  13  19   8  20   8  21  14
M  ISO  4  22  14  23  14  24   5  25   5
M  END
>  <minimizedAffinity>  (1) 
-3.96764779

>  <minimizedRMSD>  (1) 
1.1747061

$$$$
