
     RDKit          3D

 40 43  0  0  1  0  0  0  0  0999 V2000
   47.9870   34.0890   42.0380 N   0  0  0  0  0  0  0  0  0  0  0  0
   48.0030   35.0230   40.9790 C   0  0  0  0  0  0  0  0  0  0  0  0
   49.1350   35.9060   41.3420 C   0  0  0  0  0  0  0  0  0  0  0  0
   49.7670   35.3750   42.6230 C   0  0  0  0  0  0  0  0  0  0  0  0
   49.2450   33.9340   42.6460 C   0  0  2  0  0  0  0  0  0  0  0  0
   46.8090   33.4750   42.3880 C   0  0  0  0  0  0  0  0  0  0  0  0
   44.6010   35.7850   44.4180 C   0  0  0  0  0  0  0  0  0  0  0  0
   45.3080   35.2740   43.2880 C   0  0  0  0  0  0  0  0  0  0  0  0
   46.0670   34.1150   43.4540 C   0  0  0  0  0  0  0  0  0  0  0  0
   46.0830   33.5520   44.6830 N   0  0  0  0  0  0  0  0  0  0  0  0
   45.3950   34.0600   45.7650 C   0  0  0  0  0  0  0  0  0  0  0  0
   44.6630   35.1650   45.6270 N   0  0  0  0  0  0  0  0  0  0  0  0
   50.0380   33.2190   41.7370 O   0  0  0  0  0  0  0  0  0  0  0  0
   49.2700   31.0870   43.1200 O   0  0  0  0  0  0  0  0  0  0  0  0
   50.2710   31.6280   42.1290 P   0  0  2  0  0  0  0  0  0  0  0  0
   51.8040   31.4730   42.8430 O   0  0  0  0  0  0  0  0  0  0  0  0
   50.3120   30.6420   40.7250 O   0  0  0  0  0  0  0  0  0  0  0  0
   49.6970   32.3780   39.0480 N   0  0  0  0  0  0  0  0  0  0  0  0
   49.8840   31.1040   39.4870 C   0  0  0  0  0  0  0  0  0  0  0  0
   49.5670   30.2650   38.4630 N   0  0  0  0  0  0  0  0  0  0  0  0
   49.1860   31.0180   37.3930 C   0  0  0  0  0  0  0  0  0  0  0  0
   48.7650   30.7400   36.1090 C   0  0  0  0  0  0  0  0  0  0  0  0
   48.4430   31.7040   35.2340 N   0  0  0  0  0  0  0  0  0  0  0  0
   48.5250   32.9960   35.6010 C   0  0  0  0  0  0  0  0  0  0  0  0
   48.9390   33.2990   36.8650 N   0  0  0  0  0  0  0  0  0  0  0  0
   49.2660   32.3440   37.7540 C   0  0  0  0  0  0  0  0  0  0  0  0
   47.3401   35.0803   40.1031 H   0  0  0  0  0  0  0  0  0  0  0  0
   49.4637   36.7940   40.7823 H   0  0  0  0  0  0  0  0  0  0  0  0
   50.8654   35.4038   42.5712 H   0  0  0  0  0  0  0  0  0  0  0  0
   49.5164   35.9574   43.5219 H   0  0  0  0  0  0  0  0  0  0  0  0
   49.2349   33.4474   43.6325 H   0  0  0  0  0  0  0  0  0  0  0  0
   46.1646   33.4445   41.4970 H   0  0  0  0  0  0  0  0  0  0  0  0
   47.0870   32.4806   42.7673 H   0  0  0  0  0  0  0  0  0  0  0  0
   43.9951   36.6966   44.3090 H   0  0  0  0  0  0  0  0  0  0  0  0
   45.2558   35.7802   42.3128 H   0  0  0  0  0  0  0  0  0  0  0  0
   45.4504   33.5540   46.7401 H   0  0  0  0  0  0  0  0  0  0  0  0
   51.7114   31.4824   43.8286 H   0  0  0  0  0  0  0  0  0  0  0  0
   49.8553   33.2310   39.6032 H   0  0  0  0  0  0  0  0  0  0  0  0
   48.6907   29.6895   35.7913 H   0  0  0  0  0  0  0  0  0  0  0  0
   48.2622   33.7955   34.8927 H   0  0  0  0  0  0  0  0  0  0  0  0
  1  6  1  0
  1  5  1  0
  2  3  2  0
  2  1  1  0
  3  4  1  0
  4  5  1  0
  6  9  1  0
  7 12  2  0
  8  9  2  0
  8  7  1  0
  9 10  1  0
 10 11  2  0
 12 11  1  0
 13 15  1  0
 13  5  1  0
 15 16  1  0
 15 14  2  0
 17 15  1  0
 18 19  1  0
 19 17  1  0
 20 19  2  0
 21 26  2  0
 21 20  1  0
 22 21  1  0
 23 24  1  0
 23 22  2  0
 24 25  2  0
 25 26  1  0
 26 18  1  0
  2 27  1  0
  3 28  1  0
  4 29  1  0
  4 30  1  0
  5 31  1  1
  6 32  1  0
  6 33  1  0
  7 34  1  0
  8 35  1  0
 11 36  1  0
 16 37  1  0
 18 38  1  0
 22 39  1  0
 24 40  1  0
M  ISO  8  27  13  28  13  29  13  30  13  31  13  32   8  33   8  34  14
M  ISO  6  35  14  36  14  37   3  38   9  39  14  40  14
M  END
>  <minimizedAffinity>  (1) 
-5.61942339

>  <minimizedRMSD>  (1) 
2.95372534

$$$$
