
     RDKit          3D

 29 30  0  0  1  0  0  0  0  0999 V2000
   47.8330   33.9690   41.9970 N   0  0  0  0  0  0  0  0  0  0  0  0
   47.8650   34.8670   40.8950 C   0  0  0  0  0  0  0  0  0  0  0  0
   49.0370   35.7410   41.2210 C   0  0  0  0  0  0  0  0  0  0  0  0
   49.6780   35.2340   42.4920 C   0  0  0  0  0  0  0  0  0  0  0  0
   49.0800   33.8030   42.5810 C   0  0  2  0  0  0  0  0  0  0  0  0
   46.6490   33.4600   42.4210 C   0  0  0  0  0  0  0  0  0  0  0  0
   44.6200   35.9460   44.4090 C   0  0  0  0  0  0  0  0  0  0  0  0
   45.2930   35.3880   43.2870 C   0  0  0  0  0  0  0  0  0  0  0  0
   45.9550   34.1780   43.4760 C   0  0  0  0  0  0  0  0  0  0  0  0
   45.9270   33.6050   44.7020 N   0  0  0  0  0  0  0  0  0  0  0  0
   45.2720   34.1630   45.7710 C   0  0  0  0  0  0  0  0  0  0  0  0
   44.6220   35.3280   45.6180 N   0  0  0  0  0  0  0  0  0  0  0  0
   49.8740   33.0420   41.7260 O   0  0  0  0  0  0  0  0  0  0  0  0
   49.1340   30.9930   43.2640 O   0  0  0  0  0  0  0  0  0  0  0  0
   50.0880   31.4590   42.1920 P   0  0  0  0  0  0  0  0  0  0  0  0
   51.6520   31.3740   42.8840 O   0  0  0  0  0  0  0  0  0  0  0  0
   50.1220   30.3870   40.8720 O   0  0  0  0  0  0  0  0  0  0  0  0
   47.1968   34.9093   40.0222 H   0  0  0  0  0  0  0  0  0  0  0  0
   49.3747   36.6073   40.6333 H   0  0  0  0  0  0  0  0  0  0  0  0
   50.7745   35.2083   42.4081 H   0  0  0  0  0  0  0  0  0  0  0  0
   49.4852   35.8598   43.3758 H   0  0  0  0  0  0  0  0  0  0  0  0
   49.0288   33.3497   43.5820 H   0  0  0  0  0  0  0  0  0  0  0  0
   45.9765   33.4191   41.5515 H   0  0  0  0  0  0  0  0  0  0  0  0
   46.9026   32.4849   42.8624 H   0  0  0  0  0  0  0  0  0  0  0  0
   44.0854   36.9005   44.2946 H   0  0  0  0  0  0  0  0  0  0  0  0
   45.2905   35.8922   42.3094 H   0  0  0  0  0  0  0  0  0  0  0  0
   45.2794   33.6584   46.7484 H   0  0  0  0  0  0  0  0  0  0  0  0
   51.5768   31.3781   43.8711 H   0  0  0  0  0  0  0  0  0  0  0  0
   50.1516   29.4550   41.2045 H   0  0  0  0  0  0  0  0  0  0  0  0
  1  6  1  0
  1  5  1  0
  2  3  2  0
  2  1  1  0
  3  4  1  0
  4  5  1  0
  6  9  1  0
  7 12  2  0
  8  9  2  0
  8  7  1  0
  9 10  1  0
 10 11  2  0
 12 11  1  0
 13 15  1  0
 13  5  1  0
 15 16  1  0
 15 14  2  0
 17 15  1  0
  2 18  1  0
  3 19  1  0
  4 20  1  0
  4 21  1  0
  5 22  1  1
  6 23  1  0
  6 24  1  0
  7 25  1  0
  8 26  1  0
 11 27  1  0
 16 28  1  0
 17 29  1  0
M  ISO  8  18  13  19  13  20  13  21  13  22  13  23   8  24   8  25  14
M  ISO  4  26  14  27  14  28   3  29   3
M  END
>  <minimizedAffinity>  (1) 
-4.755445

>  <minimizedRMSD>  (1) 
1.74636006

$$$$
