
     RDKit          3D

 39 41  0  0  1  0  0  0  0  0999 V2000
   47.8600   33.9400   41.9960 N   0  0  0  0  0  0  0  0  0  0  0  0
   47.8520   34.8690   40.9310 C   0  0  0  0  0  0  0  0  0  0  0  0
   49.0270   35.7180   41.2380 C   0  0  0  0  0  0  0  0  0  0  0  0
   49.7000   35.1770   42.4950 C   0  0  0  0  0  0  0  0  0  0  0  0
   49.1390   33.7480   42.5450 C   0  0  2  0  0  0  0  0  0  0  0  0
   46.6820   33.3630   42.4040 C   0  0  0  0  0  0  0  0  0  0  0  0
   44.5920   35.7960   44.4150 C   0  0  0  0  0  0  0  0  0  0  0  0
   45.2560   35.2310   43.2800 C   0  0  0  0  0  0  0  0  0  0  0  0
   45.9850   34.0570   43.4650 C   0  0  0  0  0  0  0  0  0  0  0  0
   46.0140   33.5300   44.7100 N   0  0  0  0  0  0  0  0  0  0  0  0
   45.3670   34.0880   45.7920 C   0  0  0  0  0  0  0  0  0  0  0  0
   44.6640   35.2100   45.6380 N   0  0  0  0  0  0  0  0  0  0  0  0
   49.8710   33.0100   41.6030 O   0  0  0  0  0  0  0  0  0  0  0  0
   49.2860   30.8120   42.9730 O   0  0  0  0  0  0  0  0  0  0  0  0
   50.3160   31.4960   42.1120 P   0  0  2  0  0  0  0  0  0  0  0  0
   51.7250   31.6460   43.0500 O   0  0  0  0  0  0  0  0  0  0  0  0
   50.7590   30.5130   40.7900 O   0  0  0  0  0  0  0  0  0  0  0  0
   50.1820   31.9790   38.4640 F   0  0  0  0  0  0  0  0  0  0  0  0
   51.4550   31.5520   38.6380 C   0  0  0  0  0  0  0  0  0  0  0  0
   51.6530   30.8360   39.8140 C   0  0  0  0  0  0  0  0  0  0  0  0
   52.9430   30.3620   40.0640 C   0  0  0  0  0  0  0  0  0  0  0  0
   53.9810   30.5920   39.1850 C   0  0  0  0  0  0  0  0  0  0  0  0
   53.7750   31.3080   38.0140 C   0  0  0  0  0  0  0  0  0  0  0  0
   52.5010   31.7780   37.7630 C   0  0  0  0  0  0  0  0  0  0  0  0
   47.1504   34.9431   40.0870 H   0  0  0  0  0  0  0  0  0  0  0  0
   49.3581   36.5914   40.6570 H   0  0  0  0  0  0  0  0  0  0  0  0
   50.7956   35.1763   42.3967 H   0  0  0  0  0  0  0  0  0  0  0  0
   49.5052   35.7696   43.4010 H   0  0  0  0  0  0  0  0  0  0  0  0
   49.1599   33.2608   43.5310 H   0  0  0  0  0  0  0  0  0  0  0  0
   46.0106   33.3112   41.5342 H   0  0  0  0  0  0  0  0  0  0  0  0
   46.9529   32.3785   42.8131 H   0  0  0  0  0  0  0  0  0  0  0  0
   44.0121   36.7229   44.2944 H   0  0  0  0  0  0  0  0  0  0  0  0
   45.1931   35.7087   42.2912 H   0  0  0  0  0  0  0  0  0  0  0  0
   45.4307   33.6085   46.7799 H   0  0  0  0  0  0  0  0  0  0  0  0
   51.4863   31.6206   44.0105 H   0  0  0  0  0  0  0  0  0  0  0  0
   53.1359   29.7913   40.9844 H   0  0  0  0  0  0  0  0  0  0  0  0
   54.9840   30.2033   39.4149 H   0  0  0  0  0  0  0  0  0  0  0  0
   54.5989   31.4948   37.3095 H   0  0  0  0  0  0  0  0  0  0  0  0
   52.3133   32.3481   36.8412 H   0  0  0  0  0  0  0  0  0  0  0  0
  1  6  1  0
  1  5  1  0
  2  3  2  0
  2  1  1  0
  3  4  1  0
  4  5  1  0
  6  9  1  0
  7 12  2  0
  8  9  2  0
  8  7  1  0
  9 10  1  0
 10 11  2  0
 12 11  1  0
 13 15  1  0
 13  5  1  0
 15 14  2  0
 15 16  1  0
 17 15  1  0
 18 19  1  0
 19 20  2  0
 20 21  1  0
 20 17  1  0
 22 21  2  0
 23 22  1  0
 24 23  2  0
 24 19  1  0
  2 25  1  0
  3 26  1  0
  4 27  1  0
  4 28  1  0
  5 29  1  1
  6 30  1  0
  6 31  1  0
  7 32  1  0
  8 33  1  0
 11 34  1  0
 16 35  1  0
 21 36  1  0
 22 37  1  0
 23 38  1  0
 24 39  1  0
M  ISO  8  25  13  26  13  27  13  28  13  29  13  30   8  31   8  32  14
M  ISO  7  33  14  34  14  35   3  36  14  37  14  38  14  39  14
M  END
>  <minimizedAffinity>  (1) 
-5.41627216

>  <minimizedRMSD>  (1) 
2.70780921

$$$$
