
     RDKit          3D

 40 42  0  0  1  0  0  0  0  0999 V2000
   47.9020   33.9940   42.0540 N   0  0  0  0  0  0  0  0  0  0  0  0
   47.8900   34.9490   41.0140 C   0  0  0  0  0  0  0  0  0  0  0  0
   49.0530   35.8050   41.3470 C   0  0  0  0  0  0  0  0  0  0  0  0
   49.7260   35.2370   42.5930 C   0  0  0  0  0  0  0  0  0  0  0  0
   49.1800   33.8030   42.6040 C   0  0  2  0  0  0  0  0  0  0  0  0
   46.7280   33.3930   42.4380 C   0  0  0  0  0  0  0  0  0  0  0  0
   44.6070   35.7340   44.5230 C   0  0  0  0  0  0  0  0  0  0  0  0
   45.2770   35.2100   43.3740 C   0  0  0  0  0  0  0  0  0  0  0  0
   46.0240   34.0420   43.5230 C   0  0  0  0  0  0  0  0  0  0  0  0
   46.0650   33.4790   44.7530 N   0  0  0  0  0  0  0  0  0  0  0  0
   45.4130   33.9960   45.8490 C   0  0  0  0  0  0  0  0  0  0  0  0
   44.6920   35.1120   45.7330 N   0  0  0  0  0  0  0  0  0  0  0  0
   49.9250   33.0970   41.6450 O   0  0  0  0  0  0  0  0  0  0  0  0
   49.2890   30.9040   43.0060 O   0  0  0  0  0  0  0  0  0  0  0  0
   50.2920   31.5400   42.0780 P   0  0  2  0  0  0  0  0  0  0  0  0
   51.7800   31.5540   42.8970 O   0  0  0  0  0  0  0  0  0  0  0  0
   50.5360   30.5570   40.6940 O   0  0  0  0  0  0  0  0  0  0  0  0
   51.0280   31.3900   39.7270 C   0  0  1  0  0  0  0  0  0  0  0  0
   52.4210   30.9510   39.2520 C   0  0  0  0  0  0  0  0  0  0  0  0
   52.4590   31.7570   37.9540 C   0  0  0  0  0  0  0  0  0  0  0  0
   51.1870   31.7270   37.4350 O   0  0  0  0  0  0  0  0  0  0  0  0
   50.2930   31.3240   38.4160 C   0  0  0  0  0  0  0  0  0  0  0  0
   47.1920   35.0359   40.1682 H   0  0  0  0  0  0  0  0  0  0  0  0
   49.3759   36.6974   40.7909 H   0  0  0  0  0  0  0  0  0  0  0  0
   50.8220   35.2497   42.4997 H   0  0  0  0  0  0  0  0  0  0  0  0
   49.5208   35.8037   43.5132 H   0  0  0  0  0  0  0  0  0  0  0  0
   49.2014   33.2917   43.5777 H   0  0  0  0  0  0  0  0  0  0  0  0
   46.0583   33.3683   41.5657 H   0  0  0  0  0  0  0  0  0  0  0  0
   47.0058   32.3960   42.8106 H   0  0  0  0  0  0  0  0  0  0  0  0
   44.0127   36.6549   44.4291 H   0  0  0  0  0  0  0  0  0  0  0  0
   45.2052   35.7144   42.3991 H   0  0  0  0  0  0  0  0  0  0  0  0
   45.4866   33.4882   46.8220 H   0  0  0  0  0  0  0  0  0  0  0  0
   51.6191   31.5525   43.8738 H   0  0  0  0  0  0  0  0  0  0  0  0
   50.9666   32.3705   40.2219 H   0  0  0  0  0  0  0  0  0  0  0  0
   53.2147   31.2497   39.9526 H   0  0  0  0  0  0  0  0  0  0  0  0
   52.5815   29.8671   39.1551 H   0  0  0  0  0  0  0  0  0  0  0  0
   52.7602   32.7946   38.1604 H   0  0  0  0  0  0  0  0  0  0  0  0
   53.1862   31.3335   37.2456 H   0  0  0  0  0  0  0  0  0  0  0  0
   49.4231   31.9969   38.4352 H   0  0  0  0  0  0  0  0  0  0  0  0
   49.9248   30.3060   38.2206 H   0  0  0  0  0  0  0  0  0  0  0  0
  1  6  1  0
  1  5  1  0
  2  3  2  0
  2  1  1  0
  3  4  1  0
  4  5  1  0
  6  9  1  0
  7 12  2  0
  8  9  2  0
  8  7  1  0
  9 10  1  0
 10 11  2  0
 12 11  1  0
 13 15  1  0
 13  5  1  0
 15 16  1  0
 15 14  2  0
 17 15  1  0
 18 17  1  0
 19 18  1  0
 20 19  1  0
 21 20  1  0
 21 22  1  0
 22 18  1  0
  2 23  1  0
  3 24  1  0
  4 25  1  0
  4 26  1  0
  5 27  1  1
  6 28  1  0
  6 29  1  0
  7 30  1  0
  8 31  1  0
 11 32  1  0
 16 33  1  0
 18 34  1  1
 19 35  1  0
 19 36  1  0
 20 37  1  0
 20 38  1  0
 22 39  1  0
 22 40  1  0
M  ISO  8  23  13  24  13  25  13  26  13  27  13  28   8  29   8  30  14
M  ISO  8  31  14  32  14  33   3  34  13  35  13  36  13  37  13  38  13
M  ISO  2  39  13  40  13
M  END
>  <minimizedAffinity>  (1) 
-5.09964037

>  <minimizedRMSD>  (1) 
2.57481623

$$$$
