
     RDKit          3D

 31 32  0  0  1  0  0  0  0  0999 V2000
   47.8980   33.9840   42.0530 N   0  0  0  0  0  0  0  0  0  0  0  0
   47.8820   34.9580   41.0280 C   0  0  0  0  0  0  0  0  0  0  0  0
   49.0500   35.7980   41.3660 C   0  0  0  0  0  0  0  0  0  0  0  0
   49.7350   35.2110   42.5890 C   0  0  0  0  0  0  0  0  0  0  0  0
   49.1810   33.7770   42.5870 C   0  0  2  0  0  0  0  0  0  0  0  0
   46.7260   33.3850   42.4420 C   0  0  0  0  0  0  0  0  0  0  0  0
   44.6060   35.7320   44.5260 C   0  0  0  0  0  0  0  0  0  0  0  0
   45.2740   35.2080   43.3780 C   0  0  0  0  0  0  0  0  0  0  0  0
   46.0220   34.0400   43.5250 C   0  0  0  0  0  0  0  0  0  0  0  0
   46.0640   33.4800   44.7540 N   0  0  0  0  0  0  0  0  0  0  0  0
   45.4110   33.9990   45.8520 C   0  0  0  0  0  0  0  0  0  0  0  0
   44.6910   35.1150   45.7330 N   0  0  0  0  0  0  0  0  0  0  0  0
   49.9120   33.0820   41.6120 O   0  0  0  0  0  0  0  0  0  0  0  0
   49.2860   30.8470   42.9060 O   0  0  0  0  0  0  0  0  0  0  0  0
   50.3120   31.5300   42.0380 P   0  0  2  0  0  0  0  0  0  0  0  0
   51.7600   31.5790   42.9240 O   0  0  0  0  0  0  0  0  0  0  0  0
   50.6510   30.5790   40.6530 O   0  0  0  0  0  0  0  0  0  0  0  0
   51.6850   30.8160   39.7850 C   0  0  0  0  0  0  0  0  0  0  0  0
   52.6460   31.5460   40.1150 O   0  0  0  0  0  0  0  0  0  0  0  0
   47.1774   35.0638   40.1899 H   0  0  0  0  0  0  0  0  0  0  0  0
   49.3705   36.6990   40.8223 H   0  0  0  0  0  0  0  0  0  0  0  0
   50.8296   35.2197   42.4802 H   0  0  0  0  0  0  0  0  0  0  0  0
   49.5457   35.7652   43.5201 H   0  0  0  0  0  0  0  0  0  0  0  0
   49.2095   33.2511   43.5527 H   0  0  0  0  0  0  0  0  0  0  0  0
   46.0552   33.3546   41.5708 H   0  0  0  0  0  0  0  0  0  0  0  0
   47.0055   32.3907   42.8204 H   0  0  0  0  0  0  0  0  0  0  0  0
   44.0114   36.6526   44.4311 H   0  0  0  0  0  0  0  0  0  0  0  0
   45.2006   35.7123   42.4032 H   0  0  0  0  0  0  0  0  0  0  0  0
   45.4840   33.4926   46.8257 H   0  0  0  0  0  0  0  0  0  0  0  0
   51.5547   31.5721   43.8925 H   0  0  0  0  0  0  0  0  0  0  0  0
   51.6697   30.3583   38.7849 H   0  0  0  0  0  0  0  0  0  0  0  0
  1  6  1  0
  1  5  1  0
  2  3  2  0
  2  1  1  0
  3  4  1  0
  5  4  1  0
  6  9  1  0
  7 12  2  0
  8  9  2  0
  8  7  1  0
  9 10  1  0
 10 11  2  0
 12 11  1  0
 13 15  1  0
 13  5  1  0
 15 14  2  0
 15 16  1  0
 17 15  1  0
 18 19  2  0
 18 17  1  0
  2 20  1  0
  3 21  1  0
  4 22  1  0
  4 23  1  0
  5 24  1  1
  6 25  1  0
  6 26  1  0
  7 27  1  0
  8 28  1  0
 11 29  1  0
 16 30  1  0
 18 31  1  0
M  ISO  8  20  13  21  13  22  13  23  13  24  13  25   8  26   8  27  14
M  ISO  4  28  14  29  14  30   3  31   6
M  END
>  <minimizedAffinity>  (1) 
-4.61627579

>  <minimizedRMSD>  (1) 
1.30996251

$$$$
