
     RDKit          3D

 28 29  0  0  1  0  0  0  0  0999 V2000
   47.0230   32.6520   45.0650 C   0  0  2  0  0  0  0  0  0  0  0  0
   46.7550   31.6520   44.0070 C   0  0  0  0  0  0  0  0  0  0  0  0
   45.8710   30.5000   44.4420 C   0  0  0  0  0  0  0  0  0  0  0  0
   46.6570   29.8620   45.5760 C   0  0  0  0  0  0  0  0  0  0  0  0
   46.6890   30.7640   46.7650 C   0  0  0  0  0  0  0  0  0  0  0  0
   46.8570   32.2250   46.4580 C   0  0  0  0  0  0  0  0  0  0  0  0
   44.5620   35.3740   45.4280 C   0  0  0  0  0  0  0  0  0  0  0  0
   44.6220   36.0290   44.1930 C   0  0  0  0  0  0  0  0  0  0  0  0
   45.5080   35.5290   43.2480 C   0  0  0  0  0  0  0  0  0  0  0  0
   46.2670   34.4370   43.5660 N   0  0  0  0  0  0  0  0  0  0  0  0
   46.1830   33.8290   44.7690 C   0  0  0  0  0  0  0  0  0  0  0  0
   45.3290   34.3110   45.6800 N   0  0  0  0  0  0  0  0  0  0  0  0
   45.9860   32.3160   48.9040 C   0  0  0  0  0  0  0  0  0  0  0  0
   45.0650   31.5860   49.2870 O   0  0  0  0  0  0  0  0  0  0  0  0
   46.7920   32.6650   47.8020 N   0  0  0  0  0  0  0  0  0  0  0  0
   48.1016   32.8635   45.0217 H   0  0  0  0  0  0  0  0  0  0  0  0
   47.7181   31.2390   43.6724 H   0  0  0  0  0  0  0  0  0  0  0  0
   46.2127   32.1788   43.2080 H   0  0  0  0  0  0  0  0  0  0  0  0
   44.8952   30.8643   44.7956 H   0  0  0  0  0  0  0  0  0  0  0  0
   45.6480   29.7975   43.6254 H   0  0  0  0  0  0  0  0  0  0  0  0
   46.1802   28.9111   45.8562 H   0  0  0  0  0  0  0  0  0  0  0  0
   47.6884   29.6849   45.2371 H   0  0  0  0  0  0  0  0  0  0  0  0
   46.5961   30.3855   47.7937 H   0  0  0  0  0  0  0  0  0  0  0  0
   43.8725   35.7405   46.2028 H   0  0  0  0  0  0  0  0  0  0  0  0
   43.9923   36.9052   43.9792 H   0  0  0  0  0  0  0  0  0  0  0  0
   45.5978   36.0036   42.2597 H   0  0  0  0  0  0  0  0  0  0  0  0
   46.2989   32.9357   49.7572 H   0  0  0  0  0  0  0  0  0  0  0  0
   47.4820   33.3975   48.0215 H   0  0  0  0  0  0  0  0  0  0  0  0
  1  6  1  0
  2  3  1  0
  2  1  1  0
  3  4  1  0
  4  5  1  0
  6  5  2  0
  6 15  1  0
  7 12  2  0
  8  7  1  0
  9 10  1  0
  9  8  2  0
 10 11  2  0
 11  1  1  0
 11 12  1  0
 13 14  2  0
 15 13  1  0
  1 16  1  1
  2 17  1  0
  2 18  1  0
  3 19  1  0
  3 20  1  0
  4 21  1  0
  4 22  1  0
  5 23  1  0
  7 24  1  0
  8 25  1  0
  9 26  1  0
 13 27  1  0
 15 28  1  0
M  ISO  8  16  13  17  13  18  13  19  13  20  13  21  13  22  13  23  13
M  ISO  4  24  14  25  14  26  14  27   6
M  END
>  <minimizedAffinity>  (1) 
-4.60563755

>  <minimizedRMSD>  (1) 
2.13086534

$$$$
