
     RDKit          3D

 27 28  0  0  1  0  0  0  0  0999 V2000
   46.7380   32.4850   45.9610 C   0  0  2  0  0  0  0  0  0  0  0  0
   47.1900   31.5590   44.8910 C   0  0  0  0  0  0  0  0  0  0  0  0
   46.3850   30.3130   44.7350 C   0  0  0  0  0  0  0  0  0  0  0  0
   46.4260   29.6420   46.0990 C   0  0  0  0  0  0  0  0  0  0  0  0
   45.7110   30.4420   47.1110 C   0  0  0  0  0  0  0  0  0  0  0  0
   45.8840   31.9250   46.9980 C   0  0  0  0  0  0  0  0  0  0  0  0
   44.5740   35.4060   45.3070 C   0  0  0  0  0  0  0  0  0  0  0  0
   44.9160   35.7500   43.9860 C   0  0  0  0  0  0  0  0  0  0  0  0
   45.8880   34.9690   43.3330 C   0  0  0  0  0  0  0  0  0  0  0  0
   46.4330   33.9380   44.0150 N   0  0  0  0  0  0  0  0  0  0  0  0
   46.0830   33.6330   45.2820 C   0  0  0  0  0  0  0  0  0  0  0  0
   45.1570   34.3590   45.9370 N   0  0  0  0  0  0  0  0  0  0  0  0
   45.1530   32.7110   47.9760 C   0  0  0  0  0  0  0  0  0  0  0  0
   47.6305   32.7757   46.5345 H   0  0  0  0  0  0  0  0  0  0  0  0
   47.1586   32.1041   43.9361 H   0  0  0  0  0  0  0  0  0  0  0  0
   48.1987   31.2312   45.1828 H   0  0  0  0  0  0  0  0  0  0  0  0
   45.3492   30.5549   44.4545 H   0  0  0  0  0  0  0  0  0  0  0  0
   46.7828   29.6616   43.9429 H   0  0  0  0  0  0  0  0  0  0  0  0
   45.9531   28.6515   46.0255 H   0  0  0  0  0  0  0  0  0  0  0  0
   47.4773   29.5491   46.4090 H   0  0  0  0  0  0  0  0  0  0  0  0
   45.0928   29.9807   47.8952 H   0  0  0  0  0  0  0  0  0  0  0  0
   43.8168   36.0005   45.8391 H   0  0  0  0  0  0  0  0  0  0  0  0
   44.4389   36.6021   43.4798 H   0  0  0  0  0  0  0  0  0  0  0  0
   46.1942   35.1911   42.3001 H   0  0  0  0  0  0  0  0  0  0  0  0
   45.4441   32.3980   48.9896 H   0  0  0  0  0  0  0  0  0  0  0  0
   45.3883   33.7769   47.8396 H   0  0  0  0  0  0  0  0  0  0  0  0
   44.0729   32.5535   47.8396 H   0  0  0  0  0  0  0  0  0  0  0  0
  1  6  1  0
  2  1  1  0
  3  2  1  0
  3  4  1  0
  4  5  1  0
  6  5  2  0
  6 13  1  0
  7 12  2  0
  8  7  1  0
  9  8  2  0
  9 10  1  0
 10 11  2  0
 11 12  1  0
 11  1  1  0
  1 14  1  1
  2 15  1  0
  2 16  1  0
  3 17  1  0
  3 18  1  0
  4 19  1  0
  4 20  1  0
  5 21  1  0
  7 22  1  0
  8 23  1  0
  9 24  1  0
 13 25  1  0
 13 26  1  0
 13 27  1  0
M  ISO  8  14  13  15  13  16  13  17  13  18  13  19  13  20  13  21  13
M  ISO  6  22  14  23  14  24  14  25   8  26   8  27   8
M  END
>  <minimizedAffinity>  (1) 
-4.10333252

>  <minimizedRMSD>  (1) 
1.12601352

$$$$
