
     RDKit          3D

 30 31  0  0  1  0  0  0  0  0999 V2000
   47.2630   33.8010   42.5760 C   0  0  2  0  0  0  0  0  0  0  0  0
   48.4910   34.6340   42.6440 C   0  0  0  0  0  0  0  0  0  0  0  0
   48.6260   35.6290   41.5400 C   0  0  0  0  0  0  0  0  0  0  0  0
   48.6020   34.8240   40.2610 C   0  0  0  0  0  0  0  0  0  0  0  0
   47.2830   34.1930   40.0600 C   0  0  0  0  0  0  0  0  0  0  0  0
   46.5900   33.6720   41.2790 C   0  0  0  0  0  0  0  0  0  0  0  0
   45.3620   34.1360   45.7270 C   0  0  0  0  0  0  0  0  0  0  0  0
   44.6080   35.3160   45.5110 C   0  0  0  0  0  0  0  0  0  0  0  0
   44.7740   35.9700   44.2730 C   0  0  0  0  0  0  0  0  0  0  0  0
   45.6340   35.4430   43.3720 N   0  0  0  0  0  0  0  0  0  0  0  0
   46.3360   34.3170   43.6120 C   0  0  0  0  0  0  0  0  0  0  0  0
   46.1920   33.6780   44.7840 N   0  0  0  0  0  0  0  0  0  0  0  0
   45.2960   33.0540   40.9890 C   0  0  0  0  0  0  0  0  0  0  0  0
   44.3030   34.0180   40.3710 C   0  0  0  0  0  0  0  0  0  0  0  0
   47.5877   32.7649   42.7524 H   0  0  0  0  0  0  0  0  0  0  0  0
   48.4836   35.1796   43.5992 H   0  0  0  0  0  0  0  0  0  0  0  0
   49.3425   33.9441   42.5491 H   0  0  0  0  0  0  0  0  0  0  0  0
   47.7882   36.3415   41.5609 H   0  0  0  0  0  0  0  0  0  0  0  0
   49.5510   36.2169   41.6332 H   0  0  0  0  0  0  0  0  0  0  0  0
   48.8155   35.4902   39.4122 H   0  0  0  0  0  0  0  0  0  0  0  0
   49.3631   34.0328   40.3296 H   0  0  0  0  0  0  0  0  0  0  0  0
   46.8308   34.1097   39.0607 H   0  0  0  0  0  0  0  0  0  0  0  0
   45.2638   33.5923   46.6782 H   0  0  0  0  0  0  0  0  0  0  0  0
   43.9217   35.7056   46.2773 H   0  0  0  0  0  0  0  0  0  0  0  0
   44.2156   36.8898   44.0447 H   0  0  0  0  0  0  0  0  0  0  0  0
   45.4552   32.2194   40.2904 H   0  0  0  0  0  0  0  0  0  0  0  0
   44.8724   32.7146   41.9457 H   0  0  0  0  0  0  0  0  0  0  0  0
   43.7594   34.5458   41.1685 H   0  0  0  0  0  0  0  0  0  0  0  0
   44.8401   34.7484   39.7480 H   0  0  0  0  0  0  0  0  0  0  0  0
   43.5889   33.4595   39.7480 H   0  0  0  0  0  0  0  0  0  0  0  0
  1  2  1  0
  1 11  1  0
  3  2  1  0
  4  3  1  0
  5  4  1  0
  5  6  2  0
  6  1  1  0
  8  7  2  0
  9  8  1  0
 10 11  1  0
 10  9  2  0
 11 12  2  0
 12  7  1  0
 13  6  1  0
 14 13  1  0
  1 15  1  1
  2 16  1  0
  2 17  1  0
  3 18  1  0
  3 19  1  0
  4 20  1  0
  4 21  1  0
  5 22  1  0
  7 23  1  0
  8 24  1  0
  9 25  1  0
 13 26  1  0
 13 27  1  0
 14 28  1  0
 14 29  1  0
 14 30  1  0
M  ISO  8  15  13  16  13  17  13  18  13  19  13  20  13  21  13  22  13
M  ISO  8  23  14  24  14  25  14  26   8  27   8  28   8  29   8  30   8
M  END
>  <minimizedAffinity>  (1) 
-4.72248697

>  <minimizedRMSD>  (1) 
5.83772326

$$$$
