
     RDKit          3D

 25 26  0  0  1  0  0  0  0  0999 V2000
   46.3960   32.9260   46.6160 C   0  0  2  0  0  0  0  0  0  0  0  0
   46.8750   31.6190   46.1180 C   0  0  0  0  0  0  0  0  0  0  0  0
   45.9170   30.4830   46.2380 C   0  0  0  0  0  0  0  0  0  0  0  0
   45.5500   30.4150   47.7090 C   0  0  0  0  0  0  0  0  0  0  0  0
   44.8120   31.6110   48.1490 C   0  0  0  0  0  0  0  0  0  0  0  0
   45.2690   32.9020   47.5520 C   0  0  0  0  0  0  0  0  0  0  0  0
   44.7720   35.3710   44.3700 C   0  0  0  0  0  0  0  0  0  0  0  0
   45.5520   35.2730   43.2010 C   0  0  0  0  0  0  0  0  0  0  0  0
   46.6230   34.3710   43.2000 C   0  0  0  0  0  0  0  0  0  0  0  0
   46.8420   33.6470   44.3200 N   0  0  0  0  0  0  0  0  0  0  0  0
   46.0810   33.7570   45.4270 C   0  0  0  0  0  0  0  0  0  0  0  0
   45.0390   34.6190   45.4640 N   0  0  0  0  0  0  0  0  0  0  0  0
   44.6060   34.0250   47.9090 O   0  0  0  0  0  0  0  0  0  0  0  0
   47.2059   33.3456   47.2308 H   0  0  0  0  0  0  0  0  0  0  0  0
   47.7818   31.3556   46.6823 H   0  0  0  0  0  0  0  0  0  0  0  0
   47.0400   31.7551   45.0390 H   0  0  0  0  0  0  0  0  0  0  0  0
   45.0216   30.6691   45.6267 H   0  0  0  0  0  0  0  0  0  0  0  0
   46.3570   29.5393   45.8834 H   0  0  0  0  0  0  0  0  0  0  0  0
   44.9218   29.5279   47.8777 H   0  0  0  0  0  0  0  0  0  0  0  0
   46.4825   30.3583   48.2897 H   0  0  0  0  0  0  0  0  0  0  0  0
   43.9812   31.5575   48.8680 H   0  0  0  0  0  0  0  0  0  0  0  0
   43.9267   36.0745   44.3947 H   0  0  0  0  0  0  0  0  0  0  0  0
   45.3266   35.8863   42.3161 H   0  0  0  0  0  0  0  0  0  0  0  0
   47.2661   34.2553   42.3151 H   0  0  0  0  0  0  0  0  0  0  0  0
   43.8486   33.9719   48.5443 H   0  0  0  0  0  0  0  0  0  0  0  0
  1  6  1  0
  2  3  1  0
  2  1  1  0
  3  4  1  0
  4  5  1  0
  6 13  1  0
  6  5  2  0
  7 12  2  0
  8  7  1  0
  9  8  2  0
  9 10  1  0
 10 11  2  0
 11 12  1  0
 11  1  1  0
  1 14  1  1
  2 15  1  0
  2 16  1  0
  3 17  1  0
  3 18  1  0
  4 19  1  0
  4 20  1  0
  5 21  1  0
  7 22  1  0
  8 23  1  0
  9 24  1  0
 13 25  1  0
M  ISO  8  14  13  15  13  16  13  17  13  18  13  19  13  20  13  21  13
M  ISO  4  22  14  23  14  24  14  25   3
M  END
>  <minimizedAffinity>  (1) 
-5.06678581

>  <minimizedRMSD>  (1) 
0.353870124

$$$$
