
     RDKit          3D

 33 34  0  0  1  0  0  0  0  0999 V2000
   46.2420   34.0950   43.7300 C   0  0  2  0  0  0  0  0  0  0  0  0
   44.8560   34.4260   43.3390 C   0  0  0  0  0  0  0  0  0  0  0  0
   44.4750   33.9350   41.9850 C   0  0  0  0  0  0  0  0  0  0  0  0
   45.4280   34.3790   40.8950 C   0  0  0  0  0  0  0  0  0  0  0  0
   46.8750   34.3430   41.3150 C   0  0  0  0  0  0  0  0  0  0  0  0
   47.0630   33.5350   42.5820 C   0  0  1  0  0  0  0  0  0  0  0  0
   46.2930   33.1120   44.8300 C   0  0  0  0  0  0  0  0  0  0  0  0
   45.9900   31.7790   44.4880 C   0  0  0  0  0  0  0  0  0  0  0  0
   46.0200   30.7910   45.4680 C   0  0  0  0  0  0  0  0  0  0  0  0
   46.3470   31.1780   46.7300 N   0  0  0  0  0  0  0  0  0  0  0  0
   46.6340   32.4690   47.0340 C   0  0  0  0  0  0  0  0  0  0  0  0
   46.6070   33.4340   46.0860 N   0  0  0  0  0  0  0  0  0  0  0  0
   48.4970   33.6620   42.9460 C   0  0  0  0  0  0  0  0  0  0  0  0
   49.3000   34.6470   42.5700 C   0  0  0  0  0  0  0  0  0  0  0  0
   49.0870   35.8560   41.7360 C   0  0  0  0  0  0  0  0  0  0  0  0
   46.6711   35.0540   44.0558 H   0  0  0  0  0  0  0  0  0  0  0  0
   44.1724   33.9772   44.0747 H   0  0  0  0  0  0  0  0  0  0  0  0
   44.7866   35.5234   43.3109 H   0  0  0  0  0  0  0  0  0  0  0  0
   44.4561   32.8353   42.0052 H   0  0  0  0  0  0  0  0  0  0  0  0
   43.4895   34.3630   41.7494 H   0  0  0  0  0  0  0  0  0  0  0  0
   45.1736   35.4100   40.6079 H   0  0  0  0  0  0  0  0  0  0  0  0
   45.3149   33.6747   40.0576 H   0  0  0  0  0  0  0  0  0  0  0  0
   47.4703   33.8887   40.5092 H   0  0  0  0  0  0  0  0  0  0  0  0
   47.2045   35.3742   41.5101 H   0  0  0  0  0  0  0  0  0  0  0  0
   46.7465   32.4958   42.4089 H   0  0  0  0  0  0  0  0  0  0  0  0
   45.7308   31.5203   43.4508 H   0  0  0  0  0  0  0  0  0  0  0  0
   45.7890   29.7418   45.2317 H   0  0  0  0  0  0  0  0  0  0  0  0
   46.8931   32.7356   48.0693 H   0  0  0  0  0  0  0  0  0  0  0  0
   48.9284   32.8734   43.5801 H   0  0  0  0  0  0  0  0  0  0  0  0
   50.3271   34.5491   42.9513 H   0  0  0  0  0  0  0  0  0  0  0  0
   48.9333   36.7286   42.3878 H   0  0  0  0  0  0  0  0  0  0  0  0
   49.9695   36.0236   41.1010 H   0  0  0  0  0  0  0  0  0  0  0  0
   48.2004   35.7119   41.1010 H   0  0  0  0  0  0  0  0  0  0  0  0
  1  7  1  0
  2  1  1  0
  3  2  1  0
  4  5  1  0
  4  3  1  0
  5  6  1  0
  6 13  1  0
  6  1  1  0
  7 12  1  0
  8  7  2  0
  8  9  1  0
  9 10  2  0
 10 11  1  0
 12 11  2  0
 14 13  2  0
 15 14  1  0
  1 16  1  1
  2 17  1  0
  2 18  1  0
  3 19  1  0
  3 20  1  0
  4 21  1  0
  4 22  1  0
  5 23  1  0
  5 24  1  0
  6 25  1  6
  8 26  1  0
  9 27  1  0
 11 28  1  0
 13 29  1  0
 14 30  1  0
 15 31  1  0
 15 32  1  0
 15 33  1  0
M  ISO  8  16  13  17  13  18  13  19  13  20  13  21  13  22  13  23  13
M  ISO  8  24  13  25  13  26  14  27  14  28  14  31   8  32   8  33   8
M  END
>  <minimizedAffinity>  (1) 
-4.47287416

>  <minimizedRMSD>  (1) 
4.08961487

$$$$
