
     RDKit          3D

 26 27  0  0  1  0  0  0  0  0999 V2000
   46.4930   32.7460   46.7560 C   0  0  2  0  0  0  0  0  0  0  0  0
   47.0280   31.4220   46.3660 C   0  0  0  0  0  0  0  0  0  0  0  0
   46.0870   30.2800   46.4850 C   0  0  0  0  0  0  0  0  0  0  0  0
   45.5960   30.2830   47.9160 C   0  0  0  0  0  0  0  0  0  0  0  0
   44.8160   31.4780   48.2460 C   0  0  0  0  0  0  0  0  0  0  0  0
   45.3000   32.7570   47.6090 C   0  0  0  0  0  0  0  0  0  0  0  0
   45.0110   35.0530   44.2770 C   0  0  0  0  0  0  0  0  0  0  0  0
   45.8550   34.8840   43.1620 C   0  0  0  0  0  0  0  0  0  0  0  0
   46.9220   33.9780   43.2790 C   0  0  0  0  0  0  0  0  0  0  0  0
   47.0800   33.3120   44.4620 N   0  0  0  0  0  0  0  0  0  0  0  0
   46.2520   33.5020   45.5020 C   0  0  0  0  0  0  0  0  0  0  0  0
   45.2080   34.3750   45.4200 N   0  0  0  0  0  0  0  0  0  0  0  0
   44.6120   33.9750   47.8290 N   0  0  0  0  0  0  0  0  0  0  0  0
   47.2498   33.2109   47.4050 H   0  0  0  0  0  0  0  0  0  0  0  0
   47.8982   31.2092   47.0043 H   0  0  0  0  0  0  0  0  0  0  0  0
   47.2648   31.5013   45.2947 H   0  0  0  0  0  0  0  0  0  0  0  0
   45.2424   30.4084   45.7921 H   0  0  0  0  0  0  0  0  0  0  0  0
   46.5782   29.3287   46.2324 H   0  0  0  0  0  0  0  0  0  0  0  0
   44.9639   29.3964   48.0725 H   0  0  0  0  0  0  0  0  0  0  0  0
   46.4807   30.2740   48.5697 H   0  0  0  0  0  0  0  0  0  0  0  0
   43.9401   31.4452   48.9106 H   0  0  0  0  0  0  0  0  0  0  0  0
   44.1693   35.7580   44.2102 H   0  0  0  0  0  0  0  0  0  0  0  0
   45.6841   35.4432   42.2303 H   0  0  0  0  0  0  0  0  0  0  0  0
   47.6128   33.8088   42.4399 H   0  0  0  0  0  0  0  0  0  0  0  0
   43.7733   33.9920   48.4266 H   0  0  0  0  0  0  0  0  0  0  0  0
   44.9503   34.8439   47.3914 H   0  0  0  0  0  0  0  0  0  0  0  0
  1  6  1  0
  2  3  1  0
  2  1  1  0
  3  4  1  0
  4  5  1  0
  6 13  1  0
  6  5  2  0
  7 12  2  0
  8  9  2  0
  8  7  1  0
  9 10  1  0
 10 11  2  0
 11  1  1  0
 12 11  1  0
  1 14  1  1
  2 15  1  0
  2 16  1  0
  3 17  1  0
  3 18  1  0
  4 19  1  0
  4 20  1  0
  5 21  1  0
  7 22  1  0
  8 23  1  0
  9 24  1  0
 13 25  1  0
 13 26  1  0
M  ISO  8  14  13  15  13  16  13  17  13  18  13  19  13  20  13  21  13
M  ISO  3  22  14  23  14  24  14
M  END
>  <minimizedAffinity>  (1) 
-5.00420237

>  <minimizedRMSD>  (1) 
0.602729797

$$$$
