
     RDKit          3D

 32 33  0  0  1  0  0  0  0  0999 V2000
   46.5570   33.6160   42.9450 C   0  0  2  0  0  0  0  0  0  0  0  0
   45.8880   34.6740   42.1690 C   0  0  0  0  0  0  0  0  0  0  0  0
   45.5620   35.8990   42.9680 C   0  0  0  0  0  0  0  0  0  0  0  0
   44.7680   35.5950   44.2220 C   0  0  0  0  0  0  0  0  0  0  0  0
   45.1630   34.3140   44.9040 C   0  0  0  0  0  0  0  0  0  0  0  0
   46.5220   33.8530   44.4480 C   0  0  1  0  0  0  0  0  0  0  0  0
   47.9680   33.4150   42.5620 C   0  0  0  0  0  0  0  0  0  0  0  0
   48.8300   34.5100   42.8030 C   0  0  0  0  0  0  0  0  0  0  0  0
   50.1810   34.3930   42.4730 C   0  0  0  0  0  0  0  0  0  0  0  0
   50.5880   33.1970   41.9260 N   0  0  0  0  0  0  0  0  0  0  0  0
   49.7350   32.1720   41.7080 C   0  0  0  0  0  0  0  0  0  0  0  0
   48.4340   32.2810   42.0240 N   0  0  0  0  0  0  0  0  0  0  0  0
   46.9300   32.6160   45.1910 C   0  0  0  0  0  0  0  0  0  0  0  0
   46.6060   32.8230   46.6520 C   0  0  0  0  0  0  0  0  0  0  0  0
   45.9733   32.7165   42.6998 H   0  0  0  0  0  0  0  0  0  0  0  0
   46.5497   34.9668   41.3405 H   0  0  0  0  0  0  0  0  0  0  0  0
   44.9320   34.2573   41.8190 H   0  0  0  0  0  0  0  0  0  0  0  0
   46.5033   36.3881   43.2593 H   0  0  0  0  0  0  0  0  0  0  0  0
   44.9400   36.5486   42.3346 H   0  0  0  0  0  0  0  0  0  0  0  0
   44.9128   36.4229   44.9316 H   0  0  0  0  0  0  0  0  0  0  0  0
   43.7188   35.4789   43.9125 H   0  0  0  0  0  0  0  0  0  0  0  0
   45.1857   34.4783   45.9914 H   0  0  0  0  0  0  0  0  0  0  0  0
   44.4265   33.5391   44.6450 H   0  0  0  0  0  0  0  0  0  0  0  0
   47.2427   34.6532   44.6725 H   0  0  0  0  0  0  0  0  0  0  0  0
   48.4415   35.4399   43.2439 H   0  0  0  0  0  0  0  0  0  0  0  0
   50.8881   35.2185   42.6422 H   0  0  0  0  0  0  0  0  0  0  0  0
   50.1105   31.2371   41.2665 H   0  0  0  0  0  0  0  0  0  0  0  0
   46.3755   31.7481   44.8046 H   0  0  0  0  0  0  0  0  0  0  0  0
   48.0059   32.4282   45.0603 H   0  0  0  0  0  0  0  0  0  0  0  0
   47.3725   32.3333   47.2705 H   0  0  0  0  0  0  0  0  0  0  0  0
   46.5883   33.9001   46.8746 H   0  0  0  0  0  0  0  0  0  0  0  0
   45.6212   32.3864   46.8746 H   0  0  0  0  0  0  0  0  0  0  0  0
  1  6  1  0
  2  1  1  0
  2  3  1  0
  3  4  1  0
  4  5  1  0
  6  5  1  0
  6 13  1  0
  7  8  2  0
  7  1  1  0
  9  8  1  0
 10  9  2  0
 11 10  1  0
 11 12  2  0
 12  7  1  0
 13 14  1  0
  1 15  1  1
  2 16  1  0
  2 17  1  0
  3 18  1  0
  3 19  1  0
  4 20  1  0
  4 21  1  0
  5 22  1  0
  5 23  1  0
  6 24  1  6
  8 25  1  0
  9 26  1  0
 11 27  1  0
 13 28  1  0
 13 29  1  0
 14 30  1  0
 14 31  1  0
 14 32  1  0
M  ISO  8  15  13  16  13  17  13  18  13  19  13  20  13  21  13  22  13
M  ISO  8  23  13  24  13  25  14  26  14  27  14  28   8  29   8  30   8
M  ISO  2  31   8  32   8
M  END
>  <minimizedAffinity>  (1) 
-4.31303024

>  <minimizedRMSD>  (1) 
1.70445347

$$$$
