
     RDKit          3D

 42 44  0  0  1  0  0  0  0  0999 V2000
   46.4920   32.8580   46.3420 C   0  0  2  0  0  0  0  0  0  0  0  0
   46.9510   31.7110   45.5030 C   0  0  0  0  0  0  0  0  0  0  0  0
   46.0990   30.5090   45.5100 C   0  0  0  0  0  0  0  0  0  0  0  0
   45.9560   30.1190   46.9760 C   0  0  0  0  0  0  0  0  0  0  0  0
   45.2130   31.1180   47.7590 C   0  0  0  0  0  0  0  0  0  0  0  0
   45.5290   32.5460   47.3880 C   0  0  0  0  0  0  0  0  0  0  0  0
   44.4890   35.6420   44.9530 C   0  0  0  0  0  0  0  0  0  0  0  0
   45.0010   35.7440   43.6310 C   0  0  0  0  0  0  0  0  0  0  0  0
   46.0280   34.8450   43.2500 C   0  0  0  0  0  0  0  0  0  0  0  0
   46.4700   33.9370   44.1560 N   0  0  0  0  0  0  0  0  0  0  0  0
   45.9540   33.8770   45.4010 C   0  0  0  0  0  0  0  0  0  0  0  0
   44.9720   34.7170   45.8060 N   0  0  0  0  0  0  0  0  0  0  0  0
   46.6300   34.8650   41.8980 C   0  0  0  0  0  0  0  0  0  0  0  0
   46.5330   33.4820   41.2370 C   0  0  0  0  0  0  0  0  0  0  0  0
   46.7820   33.7110   39.7700 C   0  0  0  0  0  0  0  0  0  0  0  0
   48.2450   34.1050   39.6500 C   0  0  0  0  0  0  0  0  0  0  0  0
   48.6030   35.2670   40.5150 C   0  0  0  0  0  0  0  0  0  0  0  0
   48.0920   35.1960   41.9210 C   0  0  0  0  0  0  0  0  0  0  0  0
   44.8850   33.6170   48.0600 N   0  0  0  0  0  0  0  0  0  0  0  0
   47.3578   33.2177   46.9174 H   0  0  0  0  0  0  0  0  0  0  0  0
   47.9491   31.4153   45.8585 H   0  0  0  0  0  0  0  0  0  0  0  0
   46.9257   32.0797   44.4669 H   0  0  0  0  0  0  0  0  0  0  0  0
   45.1143   30.7334   45.0742 H   0  0  0  0  0  0  0  0  0  0  0  0
   46.5364   29.6956   44.9124 H   0  0  0  0  0  0  0  0  0  0  0  0
   45.4228   29.1586   47.0343 H   0  0  0  0  0  0  0  0  0  0  0  0
   46.9680   30.0489   47.4015 H   0  0  0  0  0  0  0  0  0  0  0  0
   44.4917   30.8483   48.5445 H   0  0  0  0  0  0  0  0  0  0  0  0
   43.6915   36.3240   45.2829 H   0  0  0  0  0  0  0  0  0  0  0  0
   44.6132   36.4954   42.9274 H   0  0  0  0  0  0  0  0  0  0  0  0
   46.0697   35.6336   41.3454 H   0  0  0  0  0  0  0  0  0  0  0  0
   47.2927   32.8042   41.6534 H   0  0  0  0  0  0  0  0  0  0  0  0
   45.5522   33.0164   41.4136 H   0  0  0  0  0  0  0  0  0  0  0  0
   46.5862   32.7903   39.2008 H   0  0  0  0  0  0  0  0  0  0  0  0
   46.1201   34.4912   39.3659 H   0  0  0  0  0  0  0  0  0  0  0  0
   48.8658   33.2451   39.9418 H   0  0  0  0  0  0  0  0  0  0  0  0
   48.4239   34.4014   38.6059 H   0  0  0  0  0  0  0  0  0  0  0  0
   49.7001   35.3366   40.5546 H   0  0  0  0  0  0  0  0  0  0  0  0
   48.1234   36.1460   40.0597 H   0  0  0  0  0  0  0  0  0  0  0  0
   48.2417   36.1667   42.4163 H   0  0  0  0  0  0  0  0  0  0  0  0
   48.6385   34.4178   42.4740 H   0  0  0  0  0  0  0  0  0  0  0  0
   44.1999   33.4207   48.8036 H   0  0  0  0  0  0  0  0  0  0  0  0
   45.1026   34.5907   47.8042 H   0  0  0  0  0  0  0  0  0  0  0  0
  1  6  1  0
  2  3  1  0
  2  1  1  0
  3  4  1  0
  4  5  1  0
  6  5  2  0
  6 19  1  0
  7 12  2  0
  8  7  1  0
  9  8  2  0
  9 10  1  0
 10 11  2  0
 11 12  1  0
 11  1  1  0
 13 18  1  0
 13  9  1  0
 14 13  1  0
 15 14  1  0
 16 15  1  0
 16 17  1  0
 17 18  1  0
  1 20  1  1
  2 21  1  0
  2 22  1  0
  3 23  1  0
  3 24  1  0
  4 25  1  0
  4 26  1  0
  5 27  1  0
  7 28  1  0
  8 29  1  0
 13 30  1  0
 14 31  1  0
 14 32  1  0
 15 33  1  0
 15 34  1  0
 16 35  1  0
 16 36  1  0
 17 37  1  0
 17 38  1  0
 18 39  1  0
 18 40  1  0
 19 41  1  0
 19 42  1  0
M  ISO  8  20  13  21  13  22  13  23  13  24  13  25  13  26  13  27  13
M  ISO  8  28  14  29  14  30  13  31  13  32  13  33  13  34  13  35  13
M  ISO  5  36  13  37  13  38  13  39  13  40  13
M  END
>  <minimizedAffinity>  (1) 
-6.74826193

>  <minimizedRMSD>  (1) 
1.50489938

$$$$
