
     RDKit          3D

 36 38  0  0  1  0  0  0  0  0999 V2000
   46.4330   32.9640   46.4520 C   0  0  2  0  0  0  0  0  0  0  0  0
   46.9500   31.7540   45.7430 C   0  0  0  0  0  0  0  0  0  0  0  0
   46.0830   30.5600   45.7770 C   0  0  0  0  0  0  0  0  0  0  0  0
   45.8210   30.2850   47.2500 C   0  0  0  0  0  0  0  0  0  0  0  0
   45.0310   31.3560   47.8710 C   0  0  0  0  0  0  0  0  0  0  0  0
   45.3790   32.7410   47.4290 C   0  0  0  0  0  0  0  0  0  0  0  0
   44.5630   35.6130   44.6540 C   0  0  0  0  0  0  0  0  0  0  0  0
   45.2190   35.6290   43.3930 C   0  0  0  0  0  0  0  0  0  0  0  0
   46.2860   34.7230   43.1970 C   0  0  0  0  0  0  0  0  0  0  0  0
   46.6300   33.8910   44.2120 N   0  0  0  0  0  0  0  0  0  0  0  0
   45.9870   33.9040   45.3900 C   0  0  0  0  0  0  0  0  0  0  0  0
   44.9440   34.7690   45.6220 N   0  0  0  0  0  0  0  0  0  0  0  0
   45.3670   33.2410   40.9520 F   0  0  0  0  0  0  0  0  0  0  0  0
   46.4860   33.9670   40.8870 C   0  0  0  0  0  0  0  0  0  0  0  0
   46.9890   34.7040   41.9250 C   0  0  0  0  0  0  0  0  0  0  0  0
   48.1400   35.3770   41.6720 C   0  0  0  0  0  0  0  0  0  0  0  0
   48.8120   35.3550   40.4550 C   0  0  0  0  0  0  0  0  0  0  0  0
   48.2860   34.6020   39.4180 C   0  0  0  0  0  0  0  0  0  0  0  0
   47.1040   33.8940   39.6330 C   0  0  0  0  0  0  0  0  0  0  0  0
   44.6810   33.8600   47.9570 N   0  0  0  0  0  0  0  0  0  0  0  0
   47.2490   33.3614   47.0734 H   0  0  0  0  0  0  0  0  0  0  0  0
   47.9131   31.4828   46.2001 H   0  0  0  0  0  0  0  0  0  0  0  0
   47.0171   32.0396   44.6828 H   0  0  0  0  0  0  0  0  0  0  0  0
   45.1381   30.7567   45.2493 H   0  0  0  0  0  0  0  0  0  0  0  0
   46.5561   29.6998   45.2807 H   0  0  0  0  0  0  0  0  0  0  0  0
   45.2713   29.3368   47.3432 H   0  0  0  0  0  0  0  0  0  0  0  0
   46.7908   30.2312   47.7663 H   0  0  0  0  0  0  0  0  0  0  0  0
   44.2401   31.1536   48.6083 H   0  0  0  0  0  0  0  0  0  0  0  0
   43.7283   36.3054   44.8380 H   0  0  0  0  0  0  0  0  0  0  0  0
   44.9072   36.3221   42.5977 H   0  0  0  0  0  0  0  0  0  0  0  0
   48.5703   35.9807   42.4846 H   0  0  0  0  0  0  0  0  0  0  0  0
   49.7432   35.9244   40.3183 H   0  0  0  0  0  0  0  0  0  0  0  0
   48.7919   34.5632   38.4420 H   0  0  0  0  0  0  0  0  0  0  0  0
   46.6634   33.2867   38.8286 H   0  0  0  0  0  0  0  0  0  0  0  0
   43.9318   33.7196   48.6498 H   0  0  0  0  0  0  0  0  0  0  0  0
   44.9241   34.8117   47.6471 H   0  0  0  0  0  0  0  0  0  0  0  0
  1  6  1  0
  2  3  1  0
  2  1  1  0
  3  4  1  0
  4  5  1  0
  6  5  2  0
  6 20  1  0
  7 12  2  0
  8  7  1  0
  9  8  2  0
  9 10  1  0
 10 11  2  0
 11 12  1  0
 11  1  1  0
 14 13  1  0
 14 15  2  0
 15  9  1  0
 16 15  1  0
 17 16  2  0
 18 19  2  0
 18 17  1  0
 19 14  1  0
  1 21  1  1
  2 22  1  0
  2 23  1  0
  3 24  1  0
  3 25  1  0
  4 26  1  0
  4 27  1  0
  5 28  1  0
  7 29  1  0
  8 30  1  0
 16 31  1  0
 17 32  1  0
 18 33  1  0
 19 34  1  0
 20 35  1  0
 20 36  1  0
M  ISO  8  21  13  22  13  23  13  24  13  25  13  26  13  27  13  28  13
M  ISO  6  29  14  30  14  31  14  32  14  33  14  34  14
M  END
>  <minimizedAffinity>  (1) 
-7.00777102

>  <minimizedRMSD>  (1) 
1.14675677

$$$$
