
     RDKit          3D

 33 35  0  0  1  0  0  0  0  0999 V2000
   46.5090   32.7950   46.7110 C   0  0  2  0  0  0  0  0  0  0  0  0
   47.0330   31.4710   46.2620 C   0  0  0  0  0  0  0  0  0  0  0  0
   46.0910   30.3350   46.3330 C   0  0  0  0  0  0  0  0  0  0  0  0
   45.6380   30.3070   47.7880 C   0  0  0  0  0  0  0  0  0  0  0  0
   44.8230   31.4850   48.1360 C   0  0  0  0  0  0  0  0  0  0  0  0
   45.3190   32.7650   47.5470 C   0  0  0  0  0  0  0  0  0  0  0  0
   44.9650   35.0850   44.2380 C   0  0  0  0  0  0  0  0  0  0  0  0
   45.9040   35.0340   43.1750 C   0  0  0  0  0  0  0  0  0  0  0  0
   47.0460   34.2150   43.3290 C   0  0  0  0  0  0  0  0  0  0  0  0
   47.1840   33.5190   44.4860 N   0  0  0  0  0  0  0  0  0  0  0  0
   46.2780   33.5860   45.4720 C   0  0  0  0  0  0  0  0  0  0  0  0
   45.1560   34.3700   45.3620 N   0  0  0  0  0  0  0  0  0  0  0  0
   48.0700   34.1140   42.2560 C   0  0  0  0  0  0  0  0  0  0  0  0
   48.4770   35.2640   41.4540 C   0  0  0  0  0  0  0  0  0  0  0  0
   49.3550   34.8650   42.5890 C   0  0  0  0  0  0  0  0  0  0  0  0
   44.6280   33.9810   47.7980 N   0  0  0  0  0  0  0  0  0  0  0  0
   47.2557   33.2459   47.3812 H   0  0  0  0  0  0  0  0  0  0  0  0
   47.9026   31.2248   46.8891 H   0  0  0  0  0  0  0  0  0  0  0  0
   47.2633   31.5942   45.1935 H   0  0  0  0  0  0  0  0  0  0  0  0
   45.2346   30.4972   45.6620 H   0  0  0  0  0  0  0  0  0  0  0  0
   46.5534   29.3873   46.0200 H   0  0  0  0  0  0  0  0  0  0  0  0
   45.0399   29.3993   47.9562 H   0  0  0  0  0  0  0  0  0  0  0  0
   46.5359   30.3157   48.4234 H   0  0  0  0  0  0  0  0  0  0  0  0
   43.9283   31.4266   48.7733 H   0  0  0  0  0  0  0  0  0  0  0  0
   44.0698   35.7169   44.1419 H   0  0  0  0  0  0  0  0  0  0  0  0
   45.7473   35.6166   42.2552 H   0  0  0  0  0  0  0  0  0  0  0  0
   47.7461   33.1043   41.9633 H   0  0  0  0  0  0  0  0  0  0  0  0
   48.8215   35.1115   40.4205 H   0  0  0  0  0  0  0  0  0  0  0  0
   47.9860   36.2038   41.1613 H   0  0  0  0  0  0  0  0  0  0  0  0
   49.4149   35.4906   43.4918 H   0  0  0  0  0  0  0  0  0  0  0  0
   50.4155   34.6000   42.7119 H   0  0  0  0  0  0  0  0  0  0  0  0
   43.7833   33.9811   48.3874 H   0  0  0  0  0  0  0  0  0  0  0  0
   44.9718   34.8623   47.3906 H   0  0  0  0  0  0  0  0  0  0  0  0
  1  6  1  0
  2  3  1  0
  2  1  1  0
  3  4  1  0
  4  5  1  0
  6 16  1  0
  6  5  2  0
  7 12  2  0
  8  9  2  0
  8  7  1  0
  9 10  1  0
 10 11  2  0
 11  1  1  0
 12 11  1  0
 13 15  1  0
 13  9  1  0
 14 13  1  0
 14 15  1  0
  1 17  1  1
  2 18  1  0
  2 19  1  0
  3 20  1  0
  3 21  1  0
  4 22  1  0
  4 23  1  0
  5 24  1  0
  7 25  1  0
  8 26  1  0
 13 27  1  0
 14 28  1  0
 14 29  1  0
 15 30  1  0
 15 31  1  0
 16 32  1  0
 16 33  1  0
M  ISO  8  17  13  18  13  19  13  20  13  21  13  22  13  23  13  24  13
M  ISO  7  25  14  26  14  27  13  28  13  29  13  30  13  31  13
M  END
>  <minimizedAffinity>  (1) 
-6.02178478

>  <minimizedRMSD>  (1) 
0.48986432

$$$$
