
     RDKit          3D

 39 41  0  0  1  0  0  0  0  0999 V2000
   46.4980   32.7630   46.7570 C   0  0  2  0  0  0  0  0  0  0  0  0
   47.0460   31.4400   46.3380 C   0  0  0  0  0  0  0  0  0  0  0  0
   46.1030   30.3060   46.4070 C   0  0  0  0  0  0  0  0  0  0  0  0
   45.6080   30.2740   47.8480 C   0  0  0  0  0  0  0  0  0  0  0  0
   44.8140   31.4570   48.1810 C   0  0  0  0  0  0  0  0  0  0  0  0
   45.3050   32.7490   47.5920 C   0  0  0  0  0  0  0  0  0  0  0  0
   44.9900   35.0350   44.2590 C   0  0  0  0  0  0  0  0  0  0  0  0
   45.9290   34.9690   43.2010 C   0  0  0  0  0  0  0  0  0  0  0  0
   47.0640   34.1420   43.3660 C   0  0  0  0  0  0  0  0  0  0  0  0
   47.1970   33.4550   44.5280 N   0  0  0  0  0  0  0  0  0  0  0  0
   46.2830   33.5430   45.5110 C   0  0  0  0  0  0  0  0  0  0  0  0
   45.1690   34.3300   45.3960 N   0  0  0  0  0  0  0  0  0  0  0  0
   48.0670   34.0020   42.3700 N   0  0  0  0  0  0  0  0  0  0  0  0
   49.3060   34.7490   42.4250 C   0  0  0  0  0  0  0  0  0  0  0  0
   50.4630   33.7890   42.4320 C   0  0  0  0  0  0  0  0  0  0  0  0
   50.0960   32.5360   41.9110 O   0  0  0  0  0  0  0  0  0  0  0  0
   49.2950   32.7030   40.7790 C   0  0  0  0  0  0  0  0  0  0  0  0
   47.8950   33.1050   41.2530 C   0  0  0  0  0  0  0  0  0  0  0  0
   44.6270   33.9740   47.8290 N   0  0  0  0  0  0  0  0  0  0  0  0
   47.2354   33.2219   47.4320 H   0  0  0  0  0  0  0  0  0  0  0  0
   47.9024   31.2076   46.9881 H   0  0  0  0  0  0  0  0  0  0  0  0
   47.3091   31.5472   45.2753 H   0  0  0  0  0  0  0  0  0  0  0  0
   45.2622   30.4628   45.7153 H   0  0  0  0  0  0  0  0  0  0  0  0
   46.5827   29.3588   46.1195 H   0  0  0  0  0  0  0  0  0  0  0  0
   44.9866   29.3776   47.9902 H   0  0  0  0  0  0  0  0  0  0  0  0
   46.4871   30.2576   48.5090 H   0  0  0  0  0  0  0  0  0  0  0  0
   43.9192   31.4041   48.8187 H   0  0  0  0  0  0  0  0  0  0  0  0
   44.0994   35.6718   44.1524 H   0  0  0  0  0  0  0  0  0  0  0  0
   45.7795   35.5454   42.2761 H   0  0  0  0  0  0  0  0  0  0  0  0
   49.3786   35.4061   41.5458 H   0  0  0  0  0  0  0  0  0  0  0  0
   49.3281   35.3606   43.3390 H   0  0  0  0  0  0  0  0  0  0  0  0
   51.2770   34.2058   41.8207 H   0  0  0  0  0  0  0  0  0  0  0  0
   50.7881   33.6480   43.4734 H   0  0  0  0  0  0  0  0  0  0  0  0
   49.2429   31.7602   40.2147 H   0  0  0  0  0  0  0  0  0  0  0  0
   49.7156   33.4775   40.1208 H   0  0  0  0  0  0  0  0  0  0  0  0
   47.3530   33.6125   40.4414 H   0  0  0  0  0  0  0  0  0  0  0  0
   47.3120   32.2199   41.5476 H   0  0  0  0  0  0  0  0  0  0  0  0
   43.7810   33.9891   48.4163 H   0  0  0  0  0  0  0  0  0  0  0  0
   44.9812   34.8474   47.4136 H   0  0  0  0  0  0  0  0  0  0  0  0
  1  6  1  0
  2  3  1  0
  2  1  1  0
  3  4  1  0
  4  5  1  0
  6 19  1  0
  6  5  2  0
  7 12  2  0
  8  9  2  0
  8  7  1  0
  9 10  1  0
 10 11  2  0
 11  1  1  0
 12 11  1  0
 13 14  1  0
 13  9  1  0
 14 15  1  0
 16 15  1  0
 17 18  1  0
 17 16  1  0
 18 13  1  0
  1 20  1  1
  2 21  1  0
  2 22  1  0
  3 23  1  0
  3 24  1  0
  4 25  1  0
  4 26  1  0
  5 27  1  0
  7 28  1  0
  8 29  1  0
 14 30  1  0
 14 31  1  0
 15 32  1  0
 15 33  1  0
 17 34  1  0
 17 35  1  0
 18 36  1  0
 18 37  1  0
 19 38  1  0
 19 39  1  0
M  ISO  8  20  13  21  13  22  13  23  13  24  13  25  13  26  13  27  13
M  ISO  8  28  14  29  14  30  13  31  13  32  13  33  13  34  13  35  13
M  ISO  2  36  13  37  13
M  END
>  <minimizedAffinity>  (1) 
-6.15415239

>  <minimizedRMSD>  (1) 
0.57134968

$$$$
