
     RDKit          3D

 29 30  0  0  1  0  0  0  0  0999 V2000
   46.4330   32.9840   46.4100 C   0  0  2  0  0  0  0  0  0  0  0  0
   46.9770   31.7630   45.7460 C   0  0  0  0  0  0  0  0  0  0  0  0
   46.1000   30.5750   45.7730 C   0  0  0  0  0  0  0  0  0  0  0  0
   45.7980   30.3210   47.2420 C   0  0  0  0  0  0  0  0  0  0  0  0
   45.0080   31.3940   47.8350 C   0  0  0  0  0  0  0  0  0  0  0  0
   45.3620   32.7830   47.3740 C   0  0  0  0  0  0  0  0  0  0  0  0
   44.5960   35.5840   44.5240 C   0  0  0  0  0  0  0  0  0  0  0  0
   45.2930   35.5970   43.2870 C   0  0  0  0  0  0  0  0  0  0  0  0
   46.3810   34.7050   43.1310 C   0  0  0  0  0  0  0  0  0  0  0  0
   46.6960   33.8900   44.1710 N   0  0  0  0  0  0  0  0  0  0  0  0
   46.0180   33.9060   45.3210 C   0  0  0  0  0  0  0  0  0  0  0  0
   44.9570   34.7520   45.5150 N   0  0  0  0  0  0  0  0  0  0  0  0
   47.1500   34.6730   41.8580 C   0  0  0  0  0  0  0  0  0  0  0  0
   47.9730   35.7790   41.8470 F   0  0  0  0  0  0  0  0  0  0  0  0
   46.3310   34.6320   40.7470 F   0  0  0  0  0  0  0  0  0  0  0  0
   47.9840   33.5520   41.8200 F   0  0  0  0  0  0  0  0  0  0  0  0
   44.6630   33.9180   47.8680 N   0  0  0  0  0  0  0  0  0  0  0  0
   47.2326   33.3965   47.0428 H   0  0  0  0  0  0  0  0  0  0  0  0
   47.9203   31.4982   46.2460 H   0  0  0  0  0  0  0  0  0  0  0  0
   47.0935   32.0257   44.6842 H   0  0  0  0  0  0  0  0  0  0  0  0
   45.1705   30.7715   45.2186 H   0  0  0  0  0  0  0  0  0  0  0  0
   46.5794   29.7051   45.3003 H   0  0  0  0  0  0  0  0  0  0  0  0
   45.2383   29.3782   47.3308 H   0  0  0  0  0  0  0  0  0  0  0  0
   46.7561   30.2697   47.7800 H   0  0  0  0  0  0  0  0  0  0  0  0
   44.2099   31.2021   48.5673 H   0  0  0  0  0  0  0  0  0  0  0  0
   43.7464   36.2665   44.6733 H   0  0  0  0  0  0  0  0  0  0  0  0
   44.9969   36.2785   42.4758 H   0  0  0  0  0  0  0  0  0  0  0  0
   43.9016   33.7968   48.5510 H   0  0  0  0  0  0  0  0  0  0  0  0
   44.9179   34.8615   47.5429 H   0  0  0  0  0  0  0  0  0  0  0  0
  1  6  1  0
  2  3  1  0
  2  1  1  0
  3  4  1  0
  4  5  1  0
  6  5  2  0
  6 17  1  0
  7 12  2  0
  8  7  1  0
  9  8  2  0
  9 10  1  0
 10 11  2  0
 11 12  1  0
 11  1  1  0
 13  9  1  0
 14 13  1  0
 15 13  1  0
 16 13  1  0
  1 18  1  1
  2 19  1  0
  2 20  1  0
  3 21  1  0
  3 22  1  0
  4 23  1  0
  4 24  1  0
  5 25  1  0
  7 26  1  0
  8 27  1  0
 17 28  1  0
 17 29  1  0
M  ISO  8  18  13  19  13  20  13  21  13  22  13  23  13  24  13  25  13
M  ISO  2  26  14  27  14
M  END
>  <minimizedAffinity>  (1) 
-5.97499943

>  <minimizedRMSD>  (1) 
0.875121474

$$$$
