
     RDKit          3D

 32 33  0  0  1  0  0  0  0  0999 V2000
   46.5560   32.8390   46.3950 C   0  0  2  0  0  0  0  0  0  0  0  0
   47.0660   31.6510   45.6500 C   0  0  0  0  0  0  0  0  0  0  0  0
   46.1980   30.4580   45.6550 C   0  0  0  0  0  0  0  0  0  0  0  0
   45.9320   30.1340   47.1130 C   0  0  0  0  0  0  0  0  0  0  0  0
   45.1570   31.1830   47.7860 C   0  0  0  0  0  0  0  0  0  0  0  0
   45.5140   32.5890   47.3800 C   0  0  0  0  0  0  0  0  0  0  0  0
   44.6280   35.5050   44.6950 C   0  0  0  0  0  0  0  0  0  0  0  0
   45.2780   35.5770   43.4340 C   0  0  0  0  0  0  0  0  0  0  0  0
   46.3520   34.7130   43.2070 C   0  0  0  0  0  0  0  0  0  0  0  0
   46.7320   33.8500   44.1790 N   0  0  0  0  0  0  0  0  0  0  0  0
   46.0920   33.8050   45.3700 C   0  0  0  0  0  0  0  0  0  0  0  0
   45.0350   34.6340   45.6350 N   0  0  0  0  0  0  0  0  0  0  0  0
   46.9870   34.7840   41.9740 O   0  0  0  0  0  0  0  0  0  0  0  0
   49.0890   33.4430   41.1020 O   0  0  0  0  0  0  0  0  0  0  0  0
   48.6680   34.7400   41.7800 P   0  0  0  0  0  0  0  0  0  0  0  0
   49.1990   35.9870   40.7520 O   0  0  0  0  0  0  0  0  0  0  0  0
   49.4950   34.8050   43.2540 O   0  0  0  0  0  0  0  0  0  0  0  0
   44.8280   33.6920   47.9640 N   0  0  0  0  0  0  0  0  0  0  0  0
   47.3825   33.2198   47.0130 H   0  0  0  0  0  0  0  0  0  0  0  0
   48.0314   31.3657   46.0934 H   0  0  0  0  0  0  0  0  0  0  0  0
   47.1270   31.9667   44.5980 H   0  0  0  0  0  0  0  0  0  0  0  0
   45.2534   30.6716   45.1334 H   0  0  0  0  0  0  0  0  0  0  0  0
   46.6753   29.6129   45.1373 H   0  0  0  0  0  0  0  0  0  0  0  0
   45.3710   29.1895   47.1685 H   0  0  0  0  0  0  0  0  0  0  0  0
   46.9039   30.0555   47.6222 H   0  0  0  0  0  0  0  0  0  0  0  0
   44.3767   30.9600   48.5286 H   0  0  0  0  0  0  0  0  0  0  0  0
   43.7789   36.1718   44.9056 H   0  0  0  0  0  0  0  0  0  0  0  0
   44.9471   36.2884   42.6630 H   0  0  0  0  0  0  0  0  0  0  0  0
   49.5230   36.7479   41.2962 H   0  0  0  0  0  0  0  0  0  0  0  0
   48.8454   34.7539   43.9994 H   0  0  0  0  0  0  0  0  0  0  0  0
   44.0888   33.5276   48.6621 H   0  0  0  0  0  0  0  0  0  0  0  0
   45.0711   34.6542   47.6882 H   0  0  0  0  0  0  0  0  0  0  0  0
  1  6  1  0
  2  3  1  0
  2  1  1  0
  3  4  1  0
  4  5  1  0
  6  5  2  0
  6 18  1  0
  7 12  2  0
  8  7  1  0
  9  8  2  0
  9 10  1  0
 10 11  2  0
 11 12  1  0
 11  1  1  0
 13  9  1  0
 14 15  2  0
 15 13  1  0
 15 17  1  0
 16 15  1  0
  1 19  1  1
  2 20  1  0
  2 21  1  0
  3 22  1  0
  3 23  1  0
  4 24  1  0
  4 25  1  0
  5 26  1  0
  7 27  1  0
  8 28  1  0
 16 29  1  0
 17 30  1  0
 18 31  1  0
 18 32  1  0
M  ISO  8  19  13  20  13  21  13  22  13  23  13  24  13  25  13  26  13
M  ISO  4  27  14  28  14  29   3  30   3
M  END
>  <minimizedAffinity>  (1) 
-6.38604975

>  <minimizedRMSD>  (1) 
1.20435047

$$$$
