
     RDKit          3D

 32 33  0  0  1  0  0  0  0  0999 V2000
   46.4000   33.1160   46.3320 C   0  0  2  0  0  0  0  0  0  0  0  0
   46.9640   31.9030   45.6720 C   0  0  0  0  0  0  0  0  0  0  0  0
   46.1270   30.6890   45.7110 C   0  0  0  0  0  0  0  0  0  0  0  0
   45.8200   30.4430   47.1800 C   0  0  0  0  0  0  0  0  0  0  0  0
   44.9970   31.5030   47.7720 C   0  0  0  0  0  0  0  0  0  0  0  0
   45.3340   32.8930   47.2970 C   0  0  0  0  0  0  0  0  0  0  0  0
   44.5250   35.7070   44.4650 C   0  0  0  0  0  0  0  0  0  0  0  0
   45.1720   35.6730   43.2020 C   0  0  0  0  0  0  0  0  0  0  0  0
   46.2390   34.7610   43.0180 C   0  0  0  0  0  0  0  0  0  0  0  0
   46.5810   33.9680   44.0620 N   0  0  0  0  0  0  0  0  0  0  0  0
   45.9520   34.0220   45.2400 C   0  0  0  0  0  0  0  0  0  0  0  0
   44.9260   34.8830   45.4530 N   0  0  0  0  0  0  0  0  0  0  0  0
   46.9270   34.7070   41.7170 C   0  0  0  0  0  0  0  0  0  0  0  0
   48.2960   35.3660   41.7670 C   0  0  0  0  0  0  0  0  0  0  0  0
   44.6040   33.9990   47.7980 N   0  0  0  0  0  0  0  0  0  0  0  0
   47.1959   33.5501   46.9550 H   0  0  0  0  0  0  0  0  0  0  0  0
   47.9193   31.6674   46.1639 H   0  0  0  0  0  0  0  0  0  0  0  0
   47.0536   32.1634   44.6070 H   0  0  0  0  0  0  0  0  0  0  0  0
   45.1962   30.8475   45.1467 H   0  0  0  0  0  0  0  0  0  0  0  0
   46.6402   29.8292   45.2556 H   0  0  0  0  0  0  0  0  0  0  0  0
   45.2826   29.4876   47.2719 H   0  0  0  0  0  0  0  0  0  0  0  0
   46.7777   30.4250   47.7209 H   0  0  0  0  0  0  0  0  0  0  0  0
   44.1998   31.3002   48.5023 H   0  0  0  0  0  0  0  0  0  0  0  0
   43.6946   36.4074   44.6376 H   0  0  0  0  0  0  0  0  0  0  0  0
   44.8523   36.3386   42.3867 H   0  0  0  0  0  0  0  0  0  0  0  0
   46.3107   35.2257   40.9679 H   0  0  0  0  0  0  0  0  0  0  0  0
   47.0696   33.6488   41.4526 H   0  0  0  0  0  0  0  0  0  0  0  0
   48.5955   35.5102   42.8156 H   0  0  0  0  0  0  0  0  0  0  0  0
   49.0311   34.7231   41.2608 H   0  0  0  0  0  0  0  0  0  0  0  0
   48.2520   36.3416   41.2608 H   0  0  0  0  0  0  0  0  0  0  0  0
   43.8478   33.8501   48.4813 H   0  0  0  0  0  0  0  0  0  0  0  0
   44.8294   34.9520   47.4789 H   0  0  0  0  0  0  0  0  0  0  0  0
  1  6  1  0
  2  3  1  0
  2  1  1  0
  3  4  1  0
  4  5  1  0
  6  5  2  0
  6 15  1  0
  7 12  2  0
  8  7  1  0
  9  8  2  0
  9 10  1  0
 10 11  2  0
 11 12  1  0
 11  1  1  0
 13 14  1  0
 13  9  1  0
  1 16  1  1
  2 17  1  0
  2 18  1  0
  3 19  1  0
  3 20  1  0
  4 21  1  0
  4 22  1  0
  5 23  1  0
  7 24  1  0
  8 25  1  0
 13 26  1  0
 13 27  1  0
 14 28  1  0
 14 29  1  0
 14 30  1  0
 15 31  1  0
 15 32  1  0
M  ISO  8  16  13  17  13  18  13  19  13  20  13  21  13  22  13  23  13
M  ISO  7  24  14  25  14  26   8  27   8  28   8  29   8  30   8
M  END
>  <minimizedAffinity>  (1) 
-5.60580587

>  <minimizedRMSD>  (1) 
1.12246871

$$$$
