
     RDKit          3D

 38 40  0  0  1  0  0  0  0  0999 V2000
   46.4410   32.9190   46.5080 C   0  0  2  0  0  0  0  0  0  0  0  0
   46.9610   31.6650   45.8880 C   0  0  0  0  0  0  0  0  0  0  0  0
   46.0670   30.4940   45.9370 C   0  0  0  0  0  0  0  0  0  0  0  0
   45.7130   30.3060   47.4040 C   0  0  0  0  0  0  0  0  0  0  0  0
   44.9170   31.4200   47.9320 C   0  0  0  0  0  0  0  0  0  0  0  0
   45.3310   32.7740   47.4370 C   0  0  0  0  0  0  0  0  0  0  0  0
   44.6730   35.4340   44.4380 C   0  0  0  0  0  0  0  0  0  0  0  0
   45.4730   35.4690   43.2670 C   0  0  0  0  0  0  0  0  0  0  0  0
   46.6040   34.6200   43.2220 C   0  0  0  0  0  0  0  0  0  0  0  0
   46.8660   33.8210   44.2870 N   0  0  0  0  0  0  0  0  0  0  0  0
   46.0820   33.8170   45.3790 C   0  0  0  0  0  0  0  0  0  0  0  0
   44.9870   34.6160   45.4650 N   0  0  0  0  0  0  0  0  0  0  0  0
   47.3940   34.6560   42.0640 N   0  0  0  0  0  0  0  0  0  0  0  0
   46.9100   34.2350   40.7640 C   0  0  0  0  0  0  0  0  0  0  0  0
   48.0470   34.4530   39.7980 C   0  0  0  0  0  0  0  0  0  0  0  0
   48.8470   35.5230   40.5040 C   0  0  0  0  0  0  0  0  0  0  0  0
   48.7690   35.0960   41.9500 C   0  0  0  0  0  0  0  0  0  0  0  0
   44.6420   33.9430   47.8650 N   0  0  0  0  0  0  0  0  0  0  0  0
   47.2328   33.3243   47.1552 H   0  0  0  0  0  0  0  0  0  0  0  0
   47.8937   31.3967   46.4057 H   0  0  0  0  0  0  0  0  0  0  0  0
   47.0853   31.8952   44.8196 H   0  0  0  0  0  0  0  0  0  0  0  0
   45.1591   30.6798   45.3444 H   0  0  0  0  0  0  0  0  0  0  0  0
   46.5488   29.5982   45.5181 H   0  0  0  0  0  0  0  0  0  0  0  0
   45.1355   29.3761   47.5122 H   0  0  0  0  0  0  0  0  0  0  0  0
   46.6527   30.2639   47.9742 H   0  0  0  0  0  0  0  0  0  0  0  0
   44.0834   31.2738   48.6346 H   0  0  0  0  0  0  0  0  0  0  0  0
   43.7863   36.0810   44.5100 H   0  0  0  0  0  0  0  0  0  0  0  0
   45.2233   36.1316   42.4252 H   0  0  0  0  0  0  0  0  0  0  0  0
   46.6293   33.1717   40.7882 H   0  0  0  0  0  0  0  0  0  0  0  0
   46.0175   34.8048   40.4660 H   0  0  0  0  0  0  0  0  0  0  0  0
   47.6819   34.8038   38.8215 H   0  0  0  0  0  0  0  0  0  0  0  0
   48.6211   33.5426   39.5709 H   0  0  0  0  0  0  0  0  0  0  0  0
   49.8885   35.5378   40.1504 H   0  0  0  0  0  0  0  0  0  0  0  0
   48.4665   36.5400   40.3281 H   0  0  0  0  0  0  0  0  0  0  0  0
   49.4696   34.2749   42.1620 H   0  0  0  0  0  0  0  0  0  0  0  0
   49.0392   35.8908   42.6608 H   0  0  0  0  0  0  0  0  0  0  0  0
   43.8531   33.8641   48.5224 H   0  0  0  0  0  0  0  0  0  0  0  0
   44.9322   34.8681   47.5174 H   0  0  0  0  0  0  0  0  0  0  0  0
  1  6  1  0
  2  3  1  0
  2  1  1  0
  3  4  1  0
  4  5  1  0
  6 18  1  0
  6  5  2  0
  7 12  2  0
  8  7  1  0
  9  8  2  0
  9 10  1  0
 10 11  2  0
 11 12  1  0
 11  1  1  0
 13  9  1  0
 14 13  1  0
 15 16  1  0
 15 14  1  0
 16 17  1  0
 17 13  1  0
  1 19  1  1
  2 20  1  0
  2 21  1  0
  3 22  1  0
  3 23  1  0
  4 24  1  0
  4 25  1  0
  5 26  1  0
  7 27  1  0
  8 28  1  0
 14 29  1  0
 14 30  1  0
 15 31  1  0
 15 32  1  0
 16 33  1  0
 16 34  1  0
 17 35  1  0
 17 36  1  0
 18 37  1  0
 18 38  1  0
M  ISO  8  19  13  20  13  21  13  22  13  23  13  24  13  25  13  26  13
M  ISO  8  27  14  28  14  29  13  30  13  31  13  32  13  33  13  34  13
M  ISO  2  35  13  36  13
M  END
>  <minimizedAffinity>  (1) 
-6.42637634

>  <minimizedRMSD>  (1) 
1.25366366

$$$$
