
     RDKit          3D

 28 29  0  0  1  0  0  0  0  0999 V2000
   46.5040   32.7590   46.7650 C   0  0  2  0  0  0  0  0  0  0  0  0
   47.0360   31.4250   46.3570 C   0  0  0  0  0  0  0  0  0  0  0  0
   46.0970   30.2930   46.4620 C   0  0  0  0  0  0  0  0  0  0  0  0
   45.6140   30.2890   47.9040 C   0  0  0  0  0  0  0  0  0  0  0  0
   44.8060   31.4790   48.2250 C   0  0  0  0  0  0  0  0  0  0  0  0
   45.3130   32.7570   47.6020 C   0  0  0  0  0  0  0  0  0  0  0  0
   45.0030   35.0480   44.2680 C   0  0  0  0  0  0  0  0  0  0  0  0
   45.8810   34.8880   43.1640 C   0  0  0  0  0  0  0  0  0  0  0  0
   46.9690   33.9940   43.3030 C   0  0  0  0  0  0  0  0  0  0  0  0
   47.1110   33.3400   44.4840 N   0  0  0  0  0  0  0  0  0  0  0  0
   46.2670   33.5120   45.5050 C   0  0  0  0  0  0  0  0  0  0  0  0
   45.2070   34.3650   45.4100 N   0  0  0  0  0  0  0  0  0  0  0  0
   47.8760   33.8050   42.2150 N   0  0  0  0  0  0  0  0  0  0  0  0
   44.6210   33.9670   47.8340 N   0  0  0  0  0  0  0  0  0  0  0  0
   47.2520   33.2267   47.4221 H   0  0  0  0  0  0  0  0  0  0  0  0
   47.9052   31.2009   46.9929 H   0  0  0  0  0  0  0  0  0  0  0  0
   47.2716   31.5155   45.2863 H   0  0  0  0  0  0  0  0  0  0  0  0
   45.2498   30.4328   45.7745 H   0  0  0  0  0  0  0  0  0  0  0  0
   46.5782   29.3411   46.1931 H   0  0  0  0  0  0  0  0  0  0  0  0
   45.0019   29.3902   48.0698 H   0  0  0  0  0  0  0  0  0  0  0  0
   46.4997   30.2969   48.5563 H   0  0  0  0  0  0  0  0  0  0  0  0
   43.9110   31.4393   48.8633 H   0  0  0  0  0  0  0  0  0  0  0  0
   44.1484   35.7362   44.1896 H   0  0  0  0  0  0  0  0  0  0  0  0
   45.7202   35.4428   42.2279 H   0  0  0  0  0  0  0  0  0  0  0  0
   48.6691   33.1551   42.3126 H   0  0  0  0  0  0  0  0  0  0  0  0
   47.7367   34.3187   41.3332 H   0  0  0  0  0  0  0  0  0  0  0  0
   43.7776   33.9727   48.4252 H   0  0  0  0  0  0  0  0  0  0  0  0
   44.9600   34.8432   47.4119 H   0  0  0  0  0  0  0  0  0  0  0  0
  1  6  1  0
  2  3  1  0
  2  1  1  0
  3  4  1  0
  4  5  1  0
  6 14  1  0
  6  5  2  0
  7 12  2  0
  8  9  2  0
  8  7  1  0
  9 10  1  0
 10 11  2  0
 11  1  1  0
 12 11  1  0
 13  9  1  0
  1 15  1  1
  2 16  1  0
  2 17  1  0
  3 18  1  0
  3 19  1  0
  4 20  1  0
  4 21  1  0
  5 22  1  0
  7 23  1  0
  8 24  1  0
 13 25  1  0
 13 26  1  0
 14 27  1  0
 14 28  1  0
M  ISO  8  15  13  16  13  17  13  18  13  19  13  20  13  21  13  22  13
M  ISO  2  23  14  24  14
M  END
>  <minimizedAffinity>  (1) 
-5.17219639

>  <minimizedRMSD>  (1) 
0.0305072721

$$$$
