
     RDKit          3D

 50 53  0  0  1  0  0  0  0  0999 V2000
   44.5820   35.5680   44.6010 C   0  0  0  0  0  0  0  0  0  0  0  0
   45.2500   35.5860   43.3520 C   0  0  0  0  0  0  0  0  0  0  0  0
   46.3340   34.6920   43.1780 C   0  0  0  0  0  0  0  0  0  0  0  0
   46.6790   33.8700   44.2040 N   0  0  0  0  0  0  0  0  0  0  0  0
   46.0170   33.8850   45.3740 C   0  0  0  0  0  0  0  0  0  0  0  0
   44.9650   34.7330   45.5810 N   0  0  0  0  0  0  0  0  0  0  0  0
   47.0440   34.6800   41.9070 C   0  0  0  0  0  0  0  0  0  0  0  0
   48.1530   35.4500   41.7740 C   0  0  0  0  0  0  0  0  0  0  0  0
   48.7960   35.3990   40.5290 C   0  0  0  0  0  0  0  0  0  0  0  0
   48.2490   34.5810   39.5650 C   0  0  0  0  0  0  0  0  0  0  0  0
   47.1350   33.8120   39.7120 C   0  0  0  0  0  0  0  0  0  0  0  0
   46.5420   33.8920   40.9360 N   0  0  0  0  0  0  0  0  0  0  0  0
   46.5400   32.9620   38.7570 N   0  0  0  0  0  0  0  0  0  0  0  0
   45.5430   31.9480   39.1230 C   0  0  0  0  0  0  0  0  0  0  0  0
   44.2400   32.2610   38.4270 C   0  0  0  0  0  0  0  0  0  0  0  0
   44.5050   31.9840   36.9420 C   0  0  0  0  0  0  0  0  0  0  0  0
   45.5700   32.9340   36.4830 C   0  0  0  0  0  0  0  0  0  0  0  0
   46.8010   32.9530   37.3550 C   0  0  0  0  0  0  0  0  0  0  0  0
   46.4430   32.9640   46.4640 C   0  0  2  0  0  0  0  0  0  0  0  0
   46.9750   31.7380   45.7780 C   0  0  0  0  0  0  0  0  0  0  0  0
   46.1090   30.5470   45.7920 C   0  0  0  0  0  0  0  0  0  0  0  0
   45.7940   30.2870   47.2590 C   0  0  0  0  0  0  0  0  0  0  0  0
   45.0050   31.3630   47.8640 C   0  0  0  0  0  0  0  0  0  0  0  0
   45.3810   32.7320   47.4170 C   0  0  0  0  0  0  0  0  0  0  0  0
   44.6880   33.8710   47.9290 N   0  0  0  0  0  0  0  0  0  0  0  0
   43.7353   36.2493   44.7712 H   0  0  0  0  0  0  0  0  0  0  0  0
   44.9383   36.2687   42.5478 H   0  0  0  0  0  0  0  0  0  0  0  0
   48.5265   36.0785   42.5959 H   0  0  0  0  0  0  0  0  0  0  0  0
   49.7024   35.9895   40.3297 H   0  0  0  0  0  0  0  0  0  0  0  0
   48.7572   34.5460   38.5901 H   0  0  0  0  0  0  0  0  0  0  0  0
   45.8972   30.9542   38.8117 H   0  0  0  0  0  0  0  0  0  0  0  0
   45.3915   31.9542   40.2125 H   0  0  0  0  0  0  0  0  0  0  0  0
   43.4353   31.6123   38.8034 H   0  0  0  0  0  0  0  0  0  0  0  0
   43.9174   33.2979   38.6021 H   0  0  0  0  0  0  0  0  0  0  0  0
   44.8462   30.9467   36.8097 H   0  0  0  0  0  0  0  0  0  0  0  0
   43.5856   32.1236   36.3545 H   0  0  0  0  0  0  0  0  0  0  0  0
   45.8729   32.6468   35.4653 H   0  0  0  0  0  0  0  0  0  0  0  0
   45.1344   33.9430   36.5299 H   0  0  0  0  0  0  0  0  0  0  0  0
   47.3982   32.0586   37.1237 H   0  0  0  0  0  0  0  0  0  0  0  0
   47.3248   33.8940   37.1312 H   0  0  0  0  0  0  0  0  0  0  0  0
   47.2370   33.3906   47.0946 H   0  0  0  0  0  0  0  0  0  0  0  0
   47.9229   31.4672   46.2660 H   0  0  0  0  0  0  0  0  0  0  0  0
   47.0688   32.0162   44.7179 H   0  0  0  0  0  0  0  0  0  0  0  0
   45.1838   30.7383   45.2287 H   0  0  0  0  0  0  0  0  0  0  0  0
   46.5990   29.6819   45.3214 H   0  0  0  0  0  0  0  0  0  0  0  0
   45.2270   29.3476   47.3367 H   0  0  0  0  0  0  0  0  0  0  0  0
   46.7498   30.2292   47.8003 H   0  0  0  0  0  0  0  0  0  0  0  0
   44.2001   31.1745   48.5897 H   0  0  0  0  0  0  0  0  0  0  0  0
   43.9252   33.7466   48.6099 H   0  0  0  0  0  0  0  0  0  0  0  0
   44.9510   34.8168   47.6174 H   0  0  0  0  0  0  0  0  0  0  0  0
  1  6  2  0
  2  1  1  0
  3  2  2  0
  3  4  1  0
  4  5  2  0
  5  6  1  0
  5 19  1  0
  7  3  1  0
  8  7  2  0
  9  8  1  0
 10 11  1  0
 10  9  2  0
 11 12  2  0
 12  7  1  0
 13 14  1  0
 13 11  1  0
 15 14  1  0
 16 15  1  0
 17 16  1  0
 17 18  1  0
 18 13  1  0
 19 24  1  0
 20 21  1  0
 20 19  1  0
 21 22  1  0
 22 23  1  0
 24 23  2  0
 24 25  1  0
  1 26  1  0
  2 27  1  0
  8 28  1  0
  9 29  1  0
 10 30  1  0
 14 31  1  0
 14 32  1  0
 15 33  1  0
 15 34  1  0
 16 35  1  0
 16 36  1  0
 17 37  1  0
 17 38  1  0
 18 39  1  0
 18 40  1  0
 19 41  1  1
 20 42  1  0
 20 43  1  0
 21 44  1  0
 21 45  1  0
 22 46  1  0
 22 47  1  0
 23 48  1  0
 25 49  1  0
 25 50  1  0
M  ISO  8  26  14  27  14  28  14  29  14  30  14  31  13  32  13  33  13
M  ISO  8  34  13  35  13  36  13  37  13  38  13  39  13  40  13  41  13
M  ISO  7  42  13  43  13  44  13  45  13  46  13  47  13  48  13
M  END
>  <minimizedAffinity>  (1) 
-7.72852993

>  <minimizedRMSD>  (1) 
0.105455622

$$$$
