
     RDKit          3D

 42 45  0  0  1  0  0  0  0  0999 V2000
   44.5690   35.5710   44.6140 C   0  0  0  0  0  0  0  0  0  0  0  0
   45.2400   35.5990   43.3620 C   0  0  0  0  0  0  0  0  0  0  0  0
   46.3350   34.6970   43.1900 C   0  0  0  0  0  0  0  0  0  0  0  0
   46.6790   33.8730   44.2080 N   0  0  0  0  0  0  0  0  0  0  0  0
   46.0080   33.8900   45.3720 C   0  0  0  0  0  0  0  0  0  0  0  0
   44.9580   34.7290   45.5850 N   0  0  0  0  0  0  0  0  0  0  0  0
   46.4310   32.9670   46.4530 C   0  0  2  0  0  0  0  0  0  0  0  0
   46.9650   31.7410   45.7660 C   0  0  0  0  0  0  0  0  0  0  0  0
   46.0970   30.5500   45.7850 C   0  0  0  0  0  0  0  0  0  0  0  0
   45.8030   30.2890   47.2630 C   0  0  0  0  0  0  0  0  0  0  0  0
   45.0150   31.3530   47.8730 C   0  0  0  0  0  0  0  0  0  0  0  0
   45.3800   32.7280   47.4160 C   0  0  0  0  0  0  0  0  0  0  0  0
   44.6860   33.8720   47.9300 N   0  0  0  0  0  0  0  0  0  0  0  0
   47.0400   34.7020   41.9160 C   0  0  0  0  0  0  0  0  0  0  0  0
   48.1900   35.4170   41.8150 C   0  0  0  0  0  0  0  0  0  0  0  0
   48.8270   35.3870   40.5650 C   0  0  0  0  0  0  0  0  0  0  0  0
   48.2310   34.6440   39.5710 C   0  0  0  0  0  0  0  0  0  0  0  0
   47.0790   33.9290   39.6770 C   0  0  0  0  0  0  0  0  0  0  0  0
   46.4930   33.9870   40.9140 N   0  0  0  0  0  0  0  0  0  0  0  0
   46.4910   33.1660   38.6150 C   0  0  0  0  0  0  0  0  0  0  0  0
   46.6850   33.3270   37.2710 C   0  0  0  0  0  0  0  0  0  0  0  0
   45.8990   32.3490   36.6550 C   0  0  0  0  0  0  0  0  0  0  0  0
   45.2710   31.6470   37.6220 N   0  0  0  0  0  0  0  0  0  0  0  0
   45.6350   32.1490   38.7870 N   0  0  0  0  0  0  0  0  0  0  0  0
   43.7199   36.2478   44.7902 H   0  0  0  0  0  0  0  0  0  0  0  0
   44.9301   36.2851   42.5600 H   0  0  0  0  0  0  0  0  0  0  0  0
   47.2243   33.3997   47.0802 H   0  0  0  0  0  0  0  0  0  0  0  0
   47.9142   31.4714   46.2521 H   0  0  0  0  0  0  0  0  0  0  0  0
   47.0595   32.0175   44.7055 H   0  0  0  0  0  0  0  0  0  0  0  0
   45.1644   30.7440   45.2350 H   0  0  0  0  0  0  0  0  0  0  0  0
   46.5764   29.6852   45.3031 H   0  0  0  0  0  0  0  0  0  0  0  0
   45.2468   29.3440   47.3503 H   0  0  0  0  0  0  0  0  0  0  0  0
   46.7665   30.2422   47.7917 H   0  0  0  0  0  0  0  0  0  0  0  0
   44.2192   31.1600   48.6074 H   0  0  0  0  0  0  0  0  0  0  0  0
   43.9297   33.7492   48.6184 H   0  0  0  0  0  0  0  0  0  0  0  0
   44.9436   34.8169   47.6110 H   0  0  0  0  0  0  0  0  0  0  0  0
   48.5982   35.9862   42.6631 H   0  0  0  0  0  0  0  0  0  0  0  0
   49.7641   35.9347   40.3867 H   0  0  0  0  0  0  0  0  0  0  0  0
   48.7367   34.6270   38.5943 H   0  0  0  0  0  0  0  0  0  0  0  0
   47.3265   34.0717   36.7771 H   0  0  0  0  0  0  0  0  0  0  0  0
   45.8081   32.1808   35.5717 H   0  0  0  0  0  0  0  0  0  0  0  0
   44.6230   30.8597   37.4765 H   0  0  0  0  0  0  0  0  0  0  0  0
  1  6  2  0
  2  1  1  0
  3  2  2  0
  3  4  1  0
  4  5  2  0
  5  6  1  0
  5  7  1  0
  7 12  1  0
  8  9  1  0
  8  7  1  0
  9 10  1  0
 10 11  1  0
 12 11  2  0
 12 13  1  0
 14  3  1  0
 15 14  2  0
 16 15  1  0
 17 18  1  0
 17 16  2  0
 18 19  2  0
 19 14  1  0
 20 24  2  0
 20 18  1  0
 21 20  1  0
 22 21  2  0
 22 23  1  0
 23 24  1  0
  1 25  1  0
  2 26  1  0
  7 27  1  1
  8 28  1  0
  8 29  1  0
  9 30  1  0
  9 31  1  0
 10 32  1  0
 10 33  1  0
 11 34  1  0
 13 35  1  0
 13 36  1  0
 15 37  1  0
 16 38  1  0
 17 39  1  0
 21 40  1  0
 22 41  1  0
 23 42  1  0
M  ISO  8  25  14  26  14  27  13  28  13  29  13  30  13  31  13  32  13
M  ISO  8  33  13  34  13  37  14  38  14  39  14  40  14  41  14  42   9
M  END
>  <minimizedAffinity>  (1) 
-7.22399902

>  <minimizedRMSD>  (1) 
0.171587139

$$$$
