
     RDKit          3D

 32 33  0  0  1  0  0  0  0  0999 V2000
   45.7110   32.7660   41.8860 C   0  0  2  0  0  0  0  0  0  0  0  0
   44.4120   33.2400   42.3990 C   0  0  0  0  0  0  0  0  0  0  0  0
   44.4870   34.5820   43.0670 C   0  0  0  0  0  0  0  0  0  0  0  0
   45.4840   34.5610   44.2150 C   0  0  0  0  0  0  0  0  0  0  0  0
   46.7840   33.8900   43.8580 C   0  0  0  0  0  0  0  0  0  0  0  0
   46.8920   33.5710   42.3980 C   0  0  2  0  0  0  0  0  0  0  0  0
   45.7720   32.7590   40.4100 C   0  0  0  0  0  0  0  0  0  0  0  0
   44.6450   33.2750   39.7460 C   0  0  0  0  0  0  0  0  0  0  0  0
   44.6220   33.3170   38.3520 C   0  0  0  0  0  0  0  0  0  0  0  0
   45.7420   32.8340   37.7040 N   0  0  0  0  0  0  0  0  0  0  0  0
   46.8080   32.3460   38.3670 C   0  0  0  0  0  0  0  0  0  0  0  0
   46.8190   32.3090   39.7160 N   0  0  0  0  0  0  0  0  0  0  0  0
   47.1270   34.7240   41.6290 O   0  0  0  0  0  0  0  0  0  0  0  0
   49.5180   35.3560   42.5800 O   0  0  0  0  0  0  0  0  0  0  0  0
   48.7850   34.8860   41.3410 P   0  0  0  0  0  0  0  0  0  0  0  0
   49.1160   35.9190   40.0500 O   0  0  0  0  0  0  0  0  0  0  0  0
   49.4170   33.3480   40.9410 O   0  0  0  0  0  0  0  0  0  0  0  0
   45.7858   31.7370   42.2676 H   0  0  0  0  0  0  0  0  0  0  0  0
   43.7088   33.3093   41.5560 H   0  0  0  0  0  0  0  0  0  0  0  0
   44.0808   32.5175   43.1595 H   0  0  0  0  0  0  0  0  0  0  0  0
   44.8027   35.3345   42.3294 H   0  0  0  0  0  0  0  0  0  0  0  0
   43.4936   34.8311   43.4684 H   0  0  0  0  0  0  0  0  0  0  0  0
   45.6961   35.5984   44.5132 H   0  0  0  0  0  0  0  0  0  0  0  0
   45.0300   33.9814   45.0323 H   0  0  0  0  0  0  0  0  0  0  0  0
   47.6122   34.5595   44.1335 H   0  0  0  0  0  0  0  0  0  0  0  0
   46.8273   32.9387   44.4085 H   0  0  0  0  0  0  0  0  0  0  0  0
   47.7727   32.9223   42.2818 H   0  0  0  0  0  0  0  0  0  0  0  0
   43.7848   33.6441   40.3237 H   0  0  0  0  0  0  0  0  0  0  0  0
   43.7581   33.7136   37.7984 H   0  0  0  0  0  0  0  0  0  0  0  0
   47.6770   31.9745   37.8042 H   0  0  0  0  0  0  0  0  0  0  0  0
   49.3988   36.8017   40.3978 H   0  0  0  0  0  0  0  0  0  0  0  0
   49.6219   32.8493   41.7713 H   0  0  0  0  0  0  0  0  0  0  0  0
  1  6  1  0
  1  2  1  0
  2  3  1  0
  3  4  1  0
  5  4  1  0
  6  5  1  0
  7  1  1  0
  8  7  2  0
  9  8  1  0
 10  9  2  0
 10 11  1  0
 11 12  2  0
 12  7  1  0
 13  6  1  0
 15 13  1  0
 15 14  2  0
 16 15  1  0
 17 15  1  0
  1 18  1  1
  2 19  1  0
  2 20  1  0
  3 21  1  0
  3 22  1  0
  4 23  1  0
  4 24  1  0
  5 25  1  0
  5 26  1  0
  6 27  1  1
  8 28  1  0
  9 29  1  0
 11 30  1  0
 16 31  1  0
 17 32  1  0
M  ISO  8  18  13  19  13  20  13  21  13  22  13  23  13  24  13  25  13
M  ISO  7  26  13  27  13  28  14  29  14  30  14  31   3  32   3
M  END
>  <minimizedAffinity>  (1) 
-3.91155887

>  <minimizedRMSD>  (1) 
3.82346416

$$$$
