
     RDKit          3D

 41 44  0  0  1  0  0  0  0  0999 V2000
   44.5750   35.5880   44.6130 C   0  0  0  0  0  0  0  0  0  0  0  0
   45.2310   35.6040   43.3570 C   0  0  0  0  0  0  0  0  0  0  0  0
   46.3110   34.6970   43.1790 C   0  0  0  0  0  0  0  0  0  0  0  0
   46.6640   33.8670   44.2000 N   0  0  0  0  0  0  0  0  0  0  0  0
   46.0070   33.8920   45.3750 C   0  0  0  0  0  0  0  0  0  0  0  0
   44.9600   34.7500   45.5880 N   0  0  0  0  0  0  0  0  0  0  0  0
   46.4350   32.9670   46.4600 C   0  0  2  0  0  0  0  0  0  0  0  0
   46.9610   31.7430   45.7630 C   0  0  0  0  0  0  0  0  0  0  0  0
   46.0890   30.5550   45.7790 C   0  0  0  0  0  0  0  0  0  0  0  0
   45.8020   30.2960   47.2620 C   0  0  0  0  0  0  0  0  0  0  0  0
   45.0140   31.3720   47.8650 C   0  0  0  0  0  0  0  0  0  0  0  0
   45.3770   32.7410   47.4180 C   0  0  0  0  0  0  0  0  0  0  0  0
   44.6820   33.8740   47.9310 N   0  0  0  0  0  0  0  0  0  0  0  0
   47.0050   34.6820   41.9020 C   0  0  0  0  0  0  0  0  0  0  0  0
   48.1580   35.3880   41.7830 C   0  0  0  0  0  0  0  0  0  0  0  0
   48.7970   35.3490   40.5350 C   0  0  0  0  0  0  0  0  0  0  0  0
   48.1900   34.5950   39.5520 C   0  0  0  0  0  0  0  0  0  0  0  0
   47.0320   33.8840   39.6700 C   0  0  0  0  0  0  0  0  0  0  0  0
   46.4550   33.9610   40.9070 N   0  0  0  0  0  0  0  0  0  0  0  0
   46.4330   33.1090   38.6110 C   0  0  0  0  0  0  0  0  0  0  0  0
   46.6520   33.3870   37.2990 N   0  0  0  0  0  0  0  0  0  0  0  0
   45.9530   32.4840   36.5900 C   0  0  0  0  0  0  0  0  0  0  0  0
   45.3150   31.6660   37.4460 N   0  0  0  0  0  0  0  0  0  0  0  0
   45.6140   32.0550   38.6760 N   0  0  0  0  0  0  0  0  0  0  0  0
   43.7348   36.2750   44.7921 H   0  0  0  0  0  0  0  0  0  0  0  0
   44.9181   36.2885   42.5547 H   0  0  0  0  0  0  0  0  0  0  0  0
   47.2338   33.3833   47.0914 H   0  0  0  0  0  0  0  0  0  0  0  0
   47.9116   31.4670   46.2428 H   0  0  0  0  0  0  0  0  0  0  0  0
   47.0510   32.0256   44.7037 H   0  0  0  0  0  0  0  0  0  0  0  0
   45.1549   30.7533   45.2330 H   0  0  0  0  0  0  0  0  0  0  0  0
   46.5603   29.6890   45.2912 H   0  0  0  0  0  0  0  0  0  0  0  0
   45.2447   29.3523   47.3562 H   0  0  0  0  0  0  0  0  0  0  0  0
   46.7655   30.2441   47.7901 H   0  0  0  0  0  0  0  0  0  0  0  0
   44.2131   31.1810   48.5944 H   0  0  0  0  0  0  0  0  0  0  0  0
   43.9229   33.7461   48.6153 H   0  0  0  0  0  0  0  0  0  0  0  0
   44.9387   34.8210   47.6176 H   0  0  0  0  0  0  0  0  0  0  0  0
   48.5714   35.9630   42.6247 H   0  0  0  0  0  0  0  0  0  0  0  0
   49.7352   35.8924   40.3493 H   0  0  0  0  0  0  0  0  0  0  0  0
   48.6910   34.5640   38.5732 H   0  0  0  0  0  0  0  0  0  0  0  0
   45.9099   32.4240   35.4925 H   0  0  0  0  0  0  0  0  0  0  0  0
   44.7031   30.8778   37.1905 H   0  0  0  0  0  0  0  0  0  0  0  0
  1  6  2  0
  2  1  1  0
  3  2  2  0
  3  4  1  0
  4  5  2  0
  5  6  1  0
  5  7  1  0
  7 12  1  0
  8  9  1  0
  8  7  1  0
  9 10  1  0
 10 11  1  0
 12 11  2  0
 12 13  1  0
 14  3  1  0
 15 14  2  0
 16 15  1  0
 17 18  1  0
 17 16  2  0
 18 19  2  0
 19 14  1  0
 20 24  2  0
 20 18  1  0
 21 20  1  0
 22 21  2  0
 22 23  1  0
 23 24  1  0
  1 25  1  0
  2 26  1  0
  7 27  1  1
  8 28  1  0
  8 29  1  0
  9 30  1  0
  9 31  1  0
 10 32  1  0
 10 33  1  0
 11 34  1  0
 13 35  1  0
 13 36  1  0
 15 37  1  0
 16 38  1  0
 17 39  1  0
 22 40  1  0
 23 41  1  0
M  ISO  8  25  14  26  14  27  13  28  13  29  13  30  13  31  13  32  13
M  ISO  7  33  13  34  13  37  14  38  14  39  14  40  14  41   9
M  END
>  <minimizedAffinity>  (1) 
-7.22605419

>  <minimizedRMSD>  (1) 
0.298668802

$$$$
