
     RDKit          3D

 42 44  0  0  1  0  0  0  0  0999 V2000
   44.5750   35.5870   44.6080 C   0  0  0  0  0  0  0  0  0  0  0  0
   45.2350   35.5990   43.3560 C   0  0  0  0  0  0  0  0  0  0  0  0
   46.3210   34.6890   43.1800 C   0  0  0  0  0  0  0  0  0  0  0  0
   46.6660   33.8680   44.2020 N   0  0  0  0  0  0  0  0  0  0  0  0
   46.0070   33.8950   45.3710 C   0  0  0  0  0  0  0  0  0  0  0  0
   44.9610   34.7480   45.5890 N   0  0  0  0  0  0  0  0  0  0  0  0
   46.4350   32.9720   46.4580 C   0  0  2  0  0  0  0  0  0  0  0  0
   46.9650   31.7490   45.7610 C   0  0  0  0  0  0  0  0  0  0  0  0
   46.1020   30.5560   45.7740 C   0  0  0  0  0  0  0  0  0  0  0  0
   45.8090   30.2920   47.2530 C   0  0  0  0  0  0  0  0  0  0  0  0
   45.0140   31.3540   47.8650 C   0  0  0  0  0  0  0  0  0  0  0  0
   45.3790   32.7330   47.4150 C   0  0  0  0  0  0  0  0  0  0  0  0
   44.6820   33.8770   47.9270 N   0  0  0  0  0  0  0  0  0  0  0  0
   47.0170   34.6780   41.9010 C   0  0  0  0  0  0  0  0  0  0  0  0
   48.1610   35.4000   41.7790 C   0  0  0  0  0  0  0  0  0  0  0  0
   48.7940   35.3570   40.5250 C   0  0  0  0  0  0  0  0  0  0  0  0
   48.1910   34.5910   39.5530 C   0  0  0  0  0  0  0  0  0  0  0  0
   47.0430   33.8670   39.6750 C   0  0  0  0  0  0  0  0  0  0  0  0
   46.4690   33.9430   40.9140 N   0  0  0  0  0  0  0  0  0  0  0  0
   46.4260   33.0730   38.6530 C   0  0  0  0  0  0  0  0  0  0  0  0
   46.6600   33.3040   37.3730 C   0  0  0  0  0  0  0  0  0  0  0  0
   46.0810   32.5530   36.2550 C   0  0  0  0  0  0  0  0  0  0  0  0
   43.7335   36.2736   44.7829 H   0  0  0  0  0  0  0  0  0  0  0  0
   44.9239   36.2816   42.5514 H   0  0  0  0  0  0  0  0  0  0  0  0
   47.2276   33.3987   47.0903 H   0  0  0  0  0  0  0  0  0  0  0  0
   47.9167   31.4775   46.2411 H   0  0  0  0  0  0  0  0  0  0  0  0
   47.0504   32.0333   44.7018 H   0  0  0  0  0  0  0  0  0  0  0  0
   45.1691   30.7482   45.2238 H   0  0  0  0  0  0  0  0  0  0  0  0
   46.5831   29.6939   45.2889 H   0  0  0  0  0  0  0  0  0  0  0  0
   45.2574   29.3442   47.3395 H   0  0  0  0  0  0  0  0  0  0  0  0
   46.7726   30.2494   47.7818 H   0  0  0  0  0  0  0  0  0  0  0  0
   44.2149   31.1563   48.5947 H   0  0  0  0  0  0  0  0  0  0  0  0
   43.9221   33.7534   48.6112 H   0  0  0  0  0  0  0  0  0  0  0  0
   44.9413   34.8222   47.6105 H   0  0  0  0  0  0  0  0  0  0  0  0
   48.5695   35.9860   42.6155 H   0  0  0  0  0  0  0  0  0  0  0  0
   49.7256   35.9084   40.3297 H   0  0  0  0  0  0  0  0  0  0  0  0
   48.6893   34.5600   38.5728 H   0  0  0  0  0  0  0  0  0  0  0  0
   45.7459   32.2572   38.9393 H   0  0  0  0  0  0  0  0  0  0  0  0
   47.3458   34.1278   37.1261 H   0  0  0  0  0  0  0  0  0  0  0  0
   45.4533   31.7388   36.6462 H   0  0  0  0  0  0  0  0  0  0  0  0
   45.4663   33.2267   35.6400 H   0  0  0  0  0  0  0  0  0  0  0  0
   46.8889   32.1300   35.6400 H   0  0  0  0  0  0  0  0  0  0  0  0
  1  6  2  0
  2  1  1  0
  3  2  2  0
  3  4  1  0
  4  5  2  0
  5  6  1  0
  5  7  1  0
  7 12  1  0
  8  9  1  0
  8  7  1  0
  9 10  1  0
 10 11  1  0
 12 11  2  0
 12 13  1  0
 14  3  1  0
 15 14  2  0
 16 15  1  0
 17 18  1  0
 17 16  2  0
 18 19  2  0
 19 14  1  0
 20 18  1  0
 21 20  2  0
 22 21  1  0
  1 23  1  0
  2 24  1  0
  7 25  1  1
  8 26  1  0
  8 27  1  0
  9 28  1  0
  9 29  1  0
 10 30  1  0
 10 31  1  0
 11 32  1  0
 13 33  1  0
 13 34  1  0
 15 35  1  0
 16 36  1  0
 17 37  1  0
 20 38  1  0
 21 39  1  0
 22 40  1  0
 22 41  1  0
 22 42  1  0
M  ISO  8  23  14  24  14  25  13  26  13  27  13  28  13  29  13  30  13
M  ISO  8  31  13  32  13  35  14  36  14  37  14  40   8  41   8  42   8
M  END
>  <minimizedAffinity>  (1) 
-7.06112432

>  <minimizedRMSD>  (1) 
0.310045511

$$$$
