
     RDKit          3D

 38 40  0  0  1  0  0  0  0  0999 V2000
   44.5770   35.5880   44.6180 C   0  0  0  0  0  0  0  0  0  0  0  0
   45.2320   35.6020   43.3610 C   0  0  0  0  0  0  0  0  0  0  0  0
   46.3160   34.6910   43.1780 C   0  0  0  0  0  0  0  0  0  0  0  0
   46.6620   33.8680   44.2040 N   0  0  0  0  0  0  0  0  0  0  0  0
   46.0100   33.8920   45.3790 C   0  0  0  0  0  0  0  0  0  0  0  0
   44.9640   34.7510   45.5950 N   0  0  0  0  0  0  0  0  0  0  0  0
   46.4390   32.9700   46.4630 C   0  0  2  0  0  0  0  0  0  0  0  0
   46.9710   31.7440   45.7750 C   0  0  0  0  0  0  0  0  0  0  0  0
   46.1040   30.5560   45.7820 C   0  0  0  0  0  0  0  0  0  0  0  0
   45.7920   30.2940   47.2570 C   0  0  0  0  0  0  0  0  0  0  0  0
   45.0090   31.3560   47.8600 C   0  0  0  0  0  0  0  0  0  0  0  0
   45.3800   32.7310   47.4180 C   0  0  0  0  0  0  0  0  0  0  0  0
   44.6840   33.8700   47.9360 N   0  0  0  0  0  0  0  0  0  0  0  0
   47.0060   34.6770   41.9050 C   0  0  0  0  0  0  0  0  0  0  0  0
   48.1500   35.3960   41.7760 C   0  0  0  0  0  0  0  0  0  0  0  0
   48.7870   35.3540   40.5280 C   0  0  0  0  0  0  0  0  0  0  0  0
   48.1840   34.5850   39.5570 C   0  0  0  0  0  0  0  0  0  0  0  0
   47.0360   33.8590   39.6790 C   0  0  0  0  0  0  0  0  0  0  0  0
   46.4600   33.9390   40.9190 N   0  0  0  0  0  0  0  0  0  0  0  0
   46.4540   33.0540   38.5730 C   0  0  0  0  0  0  0  0  0  0  0  0
   43.7366   36.2749   44.7967 H   0  0  0  0  0  0  0  0  0  0  0  0
   44.9180   36.2867   42.5594 H   0  0  0  0  0  0  0  0  0  0  0  0
   47.2339   33.3997   47.0904 H   0  0  0  0  0  0  0  0  0  0  0  0
   47.9166   31.4699   46.2657 H   0  0  0  0  0  0  0  0  0  0  0  0
   47.0687   32.0253   44.7161 H   0  0  0  0  0  0  0  0  0  0  0  0
   45.1782   30.7511   45.2209 H   0  0  0  0  0  0  0  0  0  0  0  0
   46.5885   29.6913   45.3049 H   0  0  0  0  0  0  0  0  0  0  0  0
   45.2283   29.3527   47.3358 H   0  0  0  0  0  0  0  0  0  0  0  0
   46.7499   30.2403   47.7952 H   0  0  0  0  0  0  0  0  0  0  0  0
   44.2054   31.1623   48.5857 H   0  0  0  0  0  0  0  0  0  0  0  0
   43.9232   33.7421   48.6184 H   0  0  0  0  0  0  0  0  0  0  0  0
   44.9442   34.8172   47.6262 H   0  0  0  0  0  0  0  0  0  0  0  0
   48.5580   35.9839   42.6114 H   0  0  0  0  0  0  0  0  0  0  0  0
   49.7187   35.9057   40.3343 H   0  0  0  0  0  0  0  0  0  0  0  0
   48.6825   34.5531   38.5770 H   0  0  0  0  0  0  0  0  0  0  0  0
   45.8584   32.2302   38.9932 H   0  0  0  0  0  0  0  0  0  0  0  0
   45.8086   33.6943   37.9537 H   0  0  0  0  0  0  0  0  0  0  0  0
   47.2643   32.6419   37.9537 H   0  0  0  0  0  0  0  0  0  0  0  0
  1  6  2  0
  2  1  1  0
  3  2  2  0
  3  4  1  0
  4  5  2  0
  5  6  1  0
  5  7  1  0
  7 12  1  0
  8  9  1  0
  8  7  1  0
  9 10  1  0
 10 11  1  0
 12 11  2  0
 12 13  1  0
 14  3  1  0
 15 14  2  0
 16 15  1  0
 17 18  1  0
 17 16  2  0
 18 19  2  0
 19 14  1  0
 20 18  1  0
  1 21  1  0
  2 22  1  0
  7 23  1  1
  8 24  1  0
  8 25  1  0
  9 26  1  0
  9 27  1  0
 10 28  1  0
 10 29  1  0
 11 30  1  0
 13 31  1  0
 13 32  1  0
 15 33  1  0
 16 34  1  0
 17 35  1  0
 20 36  1  0
 20 37  1  0
 20 38  1  0
M  ISO  8  21  14  22  14  23  13  24  13  25  13  26  13  27  13  28  13
M  ISO  8  29  13  30  13  33  14  34  14  35  14  36   8  37   8  38   8
M  END
>  <minimizedAffinity>  (1) 
-6.98207378

>  <minimizedRMSD>  (1) 
0.0274832621

$$$$
