
     RDKit          3D

 41 43  0  0  1  0  0  0  0  0999 V2000
   44.5770   35.5760   44.6210 C   0  0  0  0  0  0  0  0  0  0  0  0
   45.2380   35.6050   43.3700 C   0  0  0  0  0  0  0  0  0  0  0  0
   46.3250   34.7040   43.1940 C   0  0  0  0  0  0  0  0  0  0  0  0
   46.6710   33.8750   44.2150 N   0  0  0  0  0  0  0  0  0  0  0  0
   46.0100   33.8850   45.3910 C   0  0  0  0  0  0  0  0  0  0  0  0
   44.9570   34.7360   45.6020 N   0  0  0  0  0  0  0  0  0  0  0  0
   46.4340   32.9630   46.4700 C   0  0  2  0  0  0  0  0  0  0  0  0
   46.9550   31.7330   45.7790 C   0  0  0  0  0  0  0  0  0  0  0  0
   46.0670   30.5520   45.7930 C   0  0  0  0  0  0  0  0  0  0  0  0
   45.7940   30.2930   47.2740 C   0  0  0  0  0  0  0  0  0  0  0  0
   45.0010   31.3680   47.8840 C   0  0  0  0  0  0  0  0  0  0  0  0
   45.3770   32.7330   47.4280 C   0  0  0  0  0  0  0  0  0  0  0  0
   44.6870   33.8640   47.9410 N   0  0  0  0  0  0  0  0  0  0  0  0
   47.0260   34.7000   41.9260 C   0  0  0  0  0  0  0  0  0  0  0  0
   48.1630   35.4350   41.8110 C   0  0  0  0  0  0  0  0  0  0  0  0
   48.8340   35.4300   40.5940 C   0  0  0  0  0  0  0  0  0  0  0  0
   48.2680   34.6610   39.5990 C   0  0  0  0  0  0  0  0  0  0  0  0
   47.1290   33.9210   39.7040 C   0  0  0  0  0  0  0  0  0  0  0  0
   46.5050   33.9610   40.9270 N   0  0  0  0  0  0  0  0  0  0  0  0
   46.5940   33.1210   38.5700 C   0  0  0  0  0  0  0  0  0  0  0  0
   47.1970   33.5410   37.2560 C   0  0  0  0  0  0  0  0  0  0  0  0
   43.7312   36.2571   44.7963 H   0  0  0  0  0  0  0  0  0  0  0  0
   44.9257   36.2927   42.5703 H   0  0  0  0  0  0  0  0  0  0  0  0
   47.2341   33.3856   47.0956 H   0  0  0  0  0  0  0  0  0  0  0  0
   47.8993   31.4488   46.2663 H   0  0  0  0  0  0  0  0  0  0  0  0
   47.0582   32.0115   44.7199 H   0  0  0  0  0  0  0  0  0  0  0  0
   45.1303   30.7640   45.2567 H   0  0  0  0  0  0  0  0  0  0  0  0
   46.5206   29.6829   45.2941 H   0  0  0  0  0  0  0  0  0  0  0  0
   45.2437   29.3457   47.3732 H   0  0  0  0  0  0  0  0  0  0  0  0
   46.7618   30.2476   47.7948 H   0  0  0  0  0  0  0  0  0  0  0  0
   44.1996   31.1803   48.6138 H   0  0  0  0  0  0  0  0  0  0  0  0
   43.9279   33.7373   48.6256 H   0  0  0  0  0  0  0  0  0  0  0  0
   44.9458   34.8106   47.6283 H   0  0  0  0  0  0  0  0  0  0  0  0
   48.5434   36.0202   42.6612 H   0  0  0  0  0  0  0  0  0  0  0  0
   49.7589   36.0037   40.4343 H   0  0  0  0  0  0  0  0  0  0  0  0
   48.7853   34.6434   38.6284 H   0  0  0  0  0  0  0  0  0  0  0  0
   46.8233   32.0593   38.7438 H   0  0  0  0  0  0  0  0  0  0  0  0
   45.5080   33.2873   38.5166 H   0  0  0  0  0  0  0  0  0  0  0  0
   48.0866   34.1606   37.4422 H   0  0  0  0  0  0  0  0  0  0  0  0
   47.4858   32.6476   36.6829 H   0  0  0  0  0  0  0  0  0  0  0  0
   46.4592   34.1216   36.6829 H   0  0  0  0  0  0  0  0  0  0  0  0
  1  6  2  0
  2  1  1  0
  3  2  2  0
  3  4  1  0
  4  5  2  0
  5  6  1  0
  5  7  1  0
  7 12  1  0
  8  9  1  0
  8  7  1  0
  9 10  1  0
 10 11  1  0
 12 11  2  0
 12 13  1  0
 14  3  1  0
 15 14  2  0
 16 15  1  0
 17 18  1  0
 17 16  2  0
 18 19  2  0
 19 14  1  0
 20 18  1  0
 21 20  1  0
  1 22  1  0
  2 23  1  0
  7 24  1  1
  8 25  1  0
  8 26  1  0
  9 27  1  0
  9 28  1  0
 10 29  1  0
 10 30  1  0
 11 31  1  0
 13 32  1  0
 13 33  1  0
 15 34  1  0
 16 35  1  0
 17 36  1  0
 20 37  1  0
 20 38  1  0
 21 39  1  0
 21 40  1  0
 21 41  1  0
M  ISO  8  22  14  23  14  24  13  25  13  26  13  27  13  28  13  29  13
M  ISO  8  30  13  31  13  34  14  35  14  36  14  37   8  38   8  39   8
M  ISO  2  40   8  41   8
M  END
>  <minimizedAffinity>  (1) 
-6.91278887

>  <minimizedRMSD>  (1) 
0.10989064

$$$$
