
     RDKit          3D

 36 38  0  0  1  0  0  0  0  0999 V2000
   44.5780   35.5900   44.6170 C   0  0  0  0  0  0  0  0  0  0  0  0
   45.2300   35.5980   43.3640 C   0  0  0  0  0  0  0  0  0  0  0  0
   46.3110   34.6880   43.1790 C   0  0  0  0  0  0  0  0  0  0  0  0
   46.6600   33.8650   44.2010 N   0  0  0  0  0  0  0  0  0  0  0  0
   46.0080   33.8940   45.3770 C   0  0  0  0  0  0  0  0  0  0  0  0
   44.9650   34.7520   45.5950 N   0  0  0  0  0  0  0  0  0  0  0  0
   46.4350   32.9710   46.4650 C   0  0  2  0  0  0  0  0  0  0  0  0
   46.9640   31.7510   45.7640 C   0  0  0  0  0  0  0  0  0  0  0  0
   46.1100   30.5570   45.7830 C   0  0  0  0  0  0  0  0  0  0  0  0
   45.8170   30.2920   47.2610 C   0  0  0  0  0  0  0  0  0  0  0  0
   45.0170   31.3520   47.8730 C   0  0  0  0  0  0  0  0  0  0  0  0
   45.3810   32.7320   47.4230 C   0  0  0  0  0  0  0  0  0  0  0  0
   44.6810   33.8740   47.9320 N   0  0  0  0  0  0  0  0  0  0  0  0
   47.0010   34.6700   41.9010 C   0  0  0  0  0  0  0  0  0  0  0  0
   48.1470   35.3890   41.7720 C   0  0  0  0  0  0  0  0  0  0  0  0
   48.7770   35.3390   40.5160 C   0  0  0  0  0  0  0  0  0  0  0  0
   48.1710   34.5700   39.5460 C   0  0  0  0  0  0  0  0  0  0  0  0
   47.0200   33.8500   39.6770 C   0  0  0  0  0  0  0  0  0  0  0  0
   46.4500   33.9330   40.9170 N   0  0  0  0  0  0  0  0  0  0  0  0
   46.4690   33.0970   38.6530 O   0  0  0  0  0  0  0  0  0  0  0  0
   43.7403   36.2802   44.7957 H   0  0  0  0  0  0  0  0  0  0  0  0
   44.9152   36.2810   42.5612 H   0  0  0  0  0  0  0  0  0  0  0  0
   47.2261   33.3963   47.1001 H   0  0  0  0  0  0  0  0  0  0  0  0
   47.9208   31.4839   46.2363 H   0  0  0  0  0  0  0  0  0  0  0  0
   47.0384   32.0362   44.7042 H   0  0  0  0  0  0  0  0  0  0  0  0
   45.1759   30.7429   45.2326 H   0  0  0  0  0  0  0  0  0  0  0  0
   46.5980   29.6967   45.3016 H   0  0  0  0  0  0  0  0  0  0  0  0
   45.2688   29.3422   47.3470 H   0  0  0  0  0  0  0  0  0  0  0  0
   46.7804   30.2529   47.7905 H   0  0  0  0  0  0  0  0  0  0  0  0
   44.2170   31.1523   48.6011 H   0  0  0  0  0  0  0  0  0  0  0  0
   43.9221   33.7496   48.6172 H   0  0  0  0  0  0  0  0  0  0  0  0
   44.9368   34.8193   47.6127 H   0  0  0  0  0  0  0  0  0  0  0  0
   48.5592   35.9779   42.6047 H   0  0  0  0  0  0  0  0  0  0  0  0
   49.7094   35.8877   40.3170 H   0  0  0  0  0  0  0  0  0  0  0  0
   48.6668   34.5331   38.5648 H   0  0  0  0  0  0  0  0  0  0  0  0
   45.6302   32.5935   38.8049 H   0  0  0  0  0  0  0  0  0  0  0  0
  1  6  2  0
  2  1  1  0
  3  2  2  0
  3  4  1  0
  4  5  2  0
  5  6  1  0
  5  7  1  0
  7 12  1  0
  8  9  1  0
  8  7  1  0
  9 10  1  0
 10 11  1  0
 12 11  2  0
 12 13  1  0
 14  3  1  0
 15 14  2  0
 16 15  1  0
 17 18  1  0
 17 16  2  0
 18 19  2  0
 19 14  1  0
 20 18  1  0
  1 21  1  0
  2 22  1  0
  7 23  1  1
  8 24  1  0
  8 25  1  0
  9 26  1  0
  9 27  1  0
 10 28  1  0
 10 29  1  0
 11 30  1  0
 13 31  1  0
 13 32  1  0
 15 33  1  0
 16 34  1  0
 17 35  1  0
 20 36  1  0
M  ISO  8  21  14  22  14  23  13  24  13  25  13  26  13  27  13  28  13
M  ISO  6  29  13  30  13  33  14  34  14  35  14  36   3
M  END
>  <minimizedAffinity>  (1) 
-6.96583652

>  <minimizedRMSD>  (1) 
0.0251431353

$$$$
