
     RDKit          3D

 51 54  0  0  1  0  0  0  0  0999 V2000
   44.5600   35.5520   44.5520 C   0  0  0  0  0  0  0  0  0  0  0  0
   45.2470   35.5800   43.3200 C   0  0  0  0  0  0  0  0  0  0  0  0
   46.3630   34.6950   43.1550 C   0  0  0  0  0  0  0  0  0  0  0  0
   46.6960   33.8820   44.1910 N   0  0  0  0  0  0  0  0  0  0  0  0
   46.0210   33.8840   45.3430 C   0  0  0  0  0  0  0  0  0  0  0  0
   44.9440   34.7230   45.5310 N   0  0  0  0  0  0  0  0  0  0  0  0
   46.4270   32.9790   46.4480 C   0  0  2  0  0  0  0  0  0  0  0  0
   46.9620   31.7450   45.7550 C   0  0  0  0  0  0  0  0  0  0  0  0
   46.0830   30.5610   45.7810 C   0  0  0  0  0  0  0  0  0  0  0  0
   45.7800   30.3070   47.2550 C   0  0  0  0  0  0  0  0  0  0  0  0
   44.9990   31.3810   47.8450 C   0  0  0  0  0  0  0  0  0  0  0  0
   45.3730   32.7450   47.3940 C   0  0  0  0  0  0  0  0  0  0  0  0
   44.6840   33.8870   47.8970 N   0  0  0  0  0  0  0  0  0  0  0  0
   47.0830   34.7010   41.9010 C   0  0  0  0  0  0  0  0  0  0  0  0
   48.1940   35.4930   41.8010 C   0  0  0  0  0  0  0  0  0  0  0  0
   48.8540   35.4590   40.5600 C   0  0  0  0  0  0  0  0  0  0  0  0
   48.3150   34.6360   39.5810 C   0  0  0  0  0  0  0  0  0  0  0  0
   47.2070   33.8520   39.6970 C   0  0  0  0  0  0  0  0  0  0  0  0
   46.5980   33.9120   40.9070 N   0  0  0  0  0  0  0  0  0  0  0  0
   46.7380   33.0670   38.6770 O   0  0  0  0  0  0  0  0  0  0  0  0
   46.7100   32.5250   34.6500 N   0  0  0  0  0  0  0  0  0  0  0  0
   47.7490   32.0070   35.5190 C   0  0  0  0  0  0  0  0  0  0  0  0
   47.9500   32.9740   36.6620 C   0  0  0  0  0  0  0  0  0  0  0  0
   46.6470   33.3450   37.3270 C   0  0  0  0  0  0  0  0  0  0  0  0
   45.4820   32.5420   36.7950 C   0  0  0  0  0  0  0  0  0  0  0  0
   45.4560   32.3760   35.3170 C   0  0  0  0  0  0  0  0  0  0  0  0
   43.6994   36.2186   44.7101 H   0  0  0  0  0  0  0  0  0  0  0  0
   44.9365   36.2589   42.5121 H   0  0  0  0  0  0  0  0  0  0  0  0
   47.2032   33.4171   47.0926 H   0  0  0  0  0  0  0  0  0  0  0  0
   47.9111   31.4711   46.2390 H   0  0  0  0  0  0  0  0  0  0  0  0
   47.0625   32.0186   44.6943 H   0  0  0  0  0  0  0  0  0  0  0  0
   45.1539   30.7603   45.2268 H   0  0  0  0  0  0  0  0  0  0  0  0
   46.5594   29.6899   45.3075 H   0  0  0  0  0  0  0  0  0  0  0  0
   45.2153   29.3673   47.3443 H   0  0  0  0  0  0  0  0  0  0  0  0
   46.7378   30.2494   47.7929 H   0  0  0  0  0  0  0  0  0  0  0  0
   44.1925   31.1974   48.5702 H   0  0  0  0  0  0  0  0  0  0  0  0
   43.9202   33.7691   48.5779 H   0  0  0  0  0  0  0  0  0  0  0  0
   44.9499   34.8301   47.5795 H   0  0  0  0  0  0  0  0  0  0  0  0
   48.5476   36.1153   42.6363 H   0  0  0  0  0  0  0  0  0  0  0  0
   49.7575   36.0581   40.3733 H   0  0  0  0  0  0  0  0  0  0  0  0
   48.8358   34.6146   38.6123 H   0  0  0  0  0  0  0  0  0  0  0  0
   46.6996   31.9970   33.7657 H   0  0  0  0  0  0  0  0  0  0  0  0
   47.4469   31.0255   35.9131 H   0  0  0  0  0  0  0  0  0  0  0  0
   48.6867   31.8922   34.9555 H   0  0  0  0  0  0  0  0  0  0  0  0
   48.6095   32.5082   37.4090 H   0  0  0  0  0  0  0  0  0  0  0  0
   48.3960   33.8930   36.2540 H   0  0  0  0  0  0  0  0  0  0  0  0
   46.4740   34.4124   37.1254 H   0  0  0  0  0  0  0  0  0  0  0  0
   45.5210   31.5414   37.2502 H   0  0  0  0  0  0  0  0  0  0  0  0
   44.5746   33.1058   37.0572 H   0  0  0  0  0  0  0  0  0  0  0  0
   44.7644   33.1261   34.9058 H   0  0  0  0  0  0  0  0  0  0  0  0
   45.1467   31.3353   35.1399 H   0  0  0  0  0  0  0  0  0  0  0  0
  1  6  2  0
  2  1  1  0
  3  2  2  0
  3  4  1  0
  4  5  2  0
  5  6  1  0
  5  7  1  0
  7 12  1  0
  8  9  1  0
  8  7  1  0
  9 10  1  0
 10 11  1  0
 12 11  2  0
 12 13  1  0
 14  3  1  0
 15 14  2  0
 16 15  1  0
 17 18  1  0
 17 16  2  0
 18 19  2  0
 19 14  1  0
 20 18  1  0
 21 26  1  0
 21 22  1  0
 22 23  1  0
 23 24  1  0
 24 20  1  0
 25 24  1  0
 26 25  1  0
  1 27  1  0
  2 28  1  0
  7 29  1  1
  8 30  1  0
  8 31  1  0
  9 32  1  0
  9 33  1  0
 10 34  1  0
 10 35  1  0
 11 36  1  0
 13 37  1  0
 13 38  1  0
 15 39  1  0
 16 40  1  0
 17 41  1  0
 21 42  1  0
 22 43  1  0
 22 44  1  0
 23 45  1  0
 23 46  1  0
 24 47  1  0
 25 48  1  0
 25 49  1  0
 26 50  1  0
 26 51  1  0
M  ISO  8  27  14  28  14  29  13  30  13  31  13  32  13  33  13  34  13
M  ISO  8  35  13  36  13  39  14  40  14  41  14  42   5  43  13  44  13
M  ISO  7  45  13  46  13  47  13  48  13  49  13  50  13  51  13
M  END
>  <minimizedAffinity>  (1) 
-7.49765158

>  <minimizedRMSD>  (1) 
0.767287374

$$$$
