
     RDKit          3D

 49 52  0  0  1  0  0  0  0  0999 V2000
   44.5820   35.5990   44.6180 C   0  0  0  0  0  0  0  0  0  0  0  0
   45.2320   35.6000   43.3650 C   0  0  0  0  0  0  0  0  0  0  0  0
   46.3140   34.6760   43.1760 C   0  0  0  0  0  0  0  0  0  0  0  0
   46.6560   33.8530   44.2070 N   0  0  0  0  0  0  0  0  0  0  0  0
   46.0090   33.8920   45.3740 C   0  0  0  0  0  0  0  0  0  0  0  0
   44.9740   34.7560   45.5930 N   0  0  0  0  0  0  0  0  0  0  0  0
   46.4210   32.9800   46.4670 C   0  0  2  0  0  0  0  0  0  0  0  0
   46.9660   31.7530   45.7760 C   0  0  0  0  0  0  0  0  0  0  0  0
   46.0950   30.5610   45.7800 C   0  0  0  0  0  0  0  0  0  0  0  0
   45.8110   30.2990   47.2670 C   0  0  0  0  0  0  0  0  0  0  0  0
   45.0180   31.3580   47.8780 C   0  0  0  0  0  0  0  0  0  0  0  0
   45.3810   32.7300   47.4210 C   0  0  0  0  0  0  0  0  0  0  0  0
   44.6830   33.8720   47.9310 N   0  0  0  0  0  0  0  0  0  0  0  0
   46.9950   34.6500   41.9000 C   0  0  0  0  0  0  0  0  0  0  0  0
   48.1410   35.3850   41.7620 C   0  0  0  0  0  0  0  0  0  0  0  0
   48.7540   35.3200   40.4940 C   0  0  0  0  0  0  0  0  0  0  0  0
   48.1430   34.5340   39.5410 C   0  0  0  0  0  0  0  0  0  0  0  0
   47.0080   33.8080   39.6810 C   0  0  0  0  0  0  0  0  0  0  0  0
   46.4390   33.8910   40.9190 N   0  0  0  0  0  0  0  0  0  0  0  0
   46.4580   33.0460   38.6800 O   0  0  0  0  0  0  0  0  0  0  0  0
   46.7250   33.1630   37.3110 C   0  0  0  0  0  0  0  0  0  0  0  0
   47.5680   31.9910   36.8290 C   0  0  0  0  0  0  0  0  0  0  0  0
   47.3350   32.0820   35.3240 C   0  0  0  0  0  0  0  0  0  0  0  0
   45.8350   32.2750   35.2420 C   0  0  0  0  0  0  0  0  0  0  0  0
   45.4350   32.9060   36.5510 C   0  0  0  0  0  0  0  0  0  0  0  0
   43.7480   36.2927   44.8000 H   0  0  0  0  0  0  0  0  0  0  0  0
   44.9205   36.2844   42.5622 H   0  0  0  0  0  0  0  0  0  0  0  0
   47.1963   33.4283   47.1058 H   0  0  0  0  0  0  0  0  0  0  0  0
   47.9098   31.4805   46.2711 H   0  0  0  0  0  0  0  0  0  0  0  0
   47.0740   32.0348   44.7182 H   0  0  0  0  0  0  0  0  0  0  0  0
   45.1607   30.7600   45.2346 H   0  0  0  0  0  0  0  0  0  0  0  0
   46.5638   29.6980   45.2847 H   0  0  0  0  0  0  0  0  0  0  0  0
   45.2632   29.3496   47.3597 H   0  0  0  0  0  0  0  0  0  0  0  0
   46.7777   30.2605   47.7905 H   0  0  0  0  0  0  0  0  0  0  0  0
   44.2220   31.1624   48.6115 H   0  0  0  0  0  0  0  0  0  0  0  0
   43.9266   33.7483   48.6191 H   0  0  0  0  0  0  0  0  0  0  0  0
   44.9375   34.8169   47.6097 H   0  0  0  0  0  0  0  0  0  0  0  0
   48.5559   35.9859   42.5847 H   0  0  0  0  0  0  0  0  0  0  0  0
   49.6796   35.8725   40.2749 H   0  0  0  0  0  0  0  0  0  0  0  0
   48.6317   34.4914   38.5564 H   0  0  0  0  0  0  0  0  0  0  0  0
   47.1924   34.1466   37.1561 H   0  0  0  0  0  0  0  0  0  0  0  0
   48.6299   32.1223   37.0843 H   0  0  0  0  0  0  0  0  0  0  0  0
   47.3036   31.0214   37.2762 H   0  0  0  0  0  0  0  0  0  0  0  0
   47.8714   32.9380   34.8887 H   0  0  0  0  0  0  0  0  0  0  0  0
   47.6978   31.2051   34.7678 H   0  0  0  0  0  0  0  0  0  0  0  0
   45.5785   32.9375   34.4022 H   0  0  0  0  0  0  0  0  0  0  0  0
   45.3109   31.3229   35.0724 H   0  0  0  0  0  0  0  0  0  0  0  0
   44.9036   33.8522   36.3713 H   0  0  0  0  0  0  0  0  0  0  0  0
   44.7585   32.2518   37.1205 H   0  0  0  0  0  0  0  0  0  0  0  0
  1  6  2  0
  2  1  1  0
  3  2  2  0
  3  4  1  0
  4  5  2  0
  5  6  1  0
  5  7  1  0
  7 12  1  0
  8  9  1  0
  8  7  1  0
  9 10  1  0
 10 11  1  0
 12 11  2  0
 12 13  1  0
 14  3  1  0
 15 14  2  0
 16 15  1  0
 17 18  1  0
 17 16  2  0
 18 19  2  0
 19 14  1  0
 20 18  1  0
 21 20  1  0
 22 21  1  0
 23 22  1  0
 24 23  1  0
 24 25  1  0
 25 21  1  0
  1 26  1  0
  2 27  1  0
  7 28  1  1
  8 29  1  0
  8 30  1  0
  9 31  1  0
  9 32  1  0
 10 33  1  0
 10 34  1  0
 11 35  1  0
 13 36  1  0
 13 37  1  0
 15 38  1  0
 16 39  1  0
 17 40  1  0
 21 41  1  0
 22 42  1  0
 22 43  1  0
 23 44  1  0
 23 45  1  0
 24 46  1  0
 24 47  1  0
 25 48  1  0
 25 49  1  0
M  ISO  8  26  14  27  14  28  13  29  13  30  13  31  13  32  13  33  13
M  ISO  8  34  13  35  13  38  14  39  14  40  14  41  13  42  13  43  13
M  ISO  6  44  13  45  13  46  13  47  13  48  13  49  13
M  END
>  <minimizedAffinity>  (1) 
-7.19774008

>  <minimizedRMSD>  (1) 
0.518922329

$$$$
