
     RDKit          3D

 33 36  0  0  0  0  0  0  0  0999 V2000
   44.9410   35.4050   44.1720 C   0  0  0  0  0  0  0  0  0  0  0  0
   45.6550   35.7190   42.9910 C   0  0  0  0  0  0  0  0  0  0  0  0
   46.6680   34.8470   42.6490 C   0  0  0  0  0  0  0  0  0  0  0  0
   46.8850   33.7890   43.4550 N   0  0  0  0  0  0  0  0  0  0  0  0
   46.2110   33.4890   44.5720 C   0  0  0  0  0  0  0  0  0  0  0  0
   45.2320   34.3330   44.9010 N   0  0  0  0  0  0  0  0  0  0  0  0
   46.6980   32.2730   45.2040 C   0  0  0  0  0  0  0  0  0  0  0  0
   47.4820   31.3670   44.5250 C   0  0  0  0  0  0  0  0  0  0  0  0
   47.9700   30.2060   45.0720 C   0  0  0  0  0  0  0  0  0  0  0  0
   47.6870   29.8790   46.3780 C   0  0  0  0  0  0  0  0  0  0  0  0
   46.9060   30.7530   47.1040 C   0  0  0  0  0  0  0  0  0  0  0  0
   46.6260   30.4230   48.4140 C   0  0  0  0  0  0  0  0  0  0  0  0
   45.8550   31.2490   49.1970 C   0  0  0  0  0  0  0  0  0  0  0  0
   45.3850   32.4110   48.6000 C   0  0  0  0  0  0  0  0  0  0  0  0
   45.6890   32.6940   47.3000 C   0  0  0  0  0  0  0  0  0  0  0  0
   46.4570   31.8880   46.4940 C   0  0  0  0  0  0  0  0  0  0  0  0
   47.4920   35.0530   41.4080 C   0  0  0  0  0  0  0  0  0  0  0  0
   48.8260   35.7100   41.6890 C   0  0  0  0  0  0  0  0  0  0  0  0
   48.6860   34.2310   41.2380 C   0  0  0  0  0  0  0  0  0  0  0  0
   44.1233   36.0661   44.4950 H   0  0  0  0  0  0  0  0  0  0  0  0
   45.4168   36.6042   42.3830 H   0  0  0  0  0  0  0  0  0  0  0  0
   47.7334   31.5876   43.4771 H   0  0  0  0  0  0  0  0  0  0  0  0
   48.5910   29.5333   44.4623 H   0  0  0  0  0  0  0  0  0  0  0  0
   48.0709   28.9515   46.8279 H   0  0  0  0  0  0  0  0  0  0  0  0
   47.0241   29.4887   48.8366 H   0  0  0  0  0  0  0  0  0  0  0  0
   45.6223   31.0019   50.2433 H   0  0  0  0  0  0  0  0  0  0  0  0
   44.7627   33.1090   49.1793 H   0  0  0  0  0  0  0  0  0  0  0  0
   45.2943   33.6264   46.8699 H   0  0  0  0  0  0  0  0  0  0  0  0
   46.6374   35.2504   40.7442 H   0  0  0  0  0  0  0  0  0  0  0  0
   49.2313   36.4675   41.0020 H   0  0  0  0  0  0  0  0  0  0  0  0
   49.2880   36.2447   42.5320 H   0  0  0  0  0  0  0  0  0  0  0  0
   48.8987   33.4178   41.9475 H   0  0  0  0  0  0  0  0  0  0  0  0
   49.1022   33.6263   40.4188 H   0  0  0  0  0  0  0  0  0  0  0  0
  1  6  2  0
  2  1  1  0
  3  2  2  0
  3  4  1  0
  4  5  2  0
  5  6  1  0
  5  7  1  0
  7 16  2  0
  8  9  2  0
  8  7  1  0
  9 10  1  0
 10 11  2  0
 11 12  1  0
 12 13  2  0
 14 13  1  0
 15 14  2  0
 16 11  1  0
 16 15  1  0
 17 18  1  0
 17  3  1  0
 19 17  1  0
 19 18  1  0
  1 20  1  0
  2 21  1  0
  8 22  1  0
  9 23  1  0
 10 24  1  0
 12 25  1  0
 13 26  1  0
 14 27  1  0
 15 28  1  0
 17 29  1  0
 18 30  1  0
 18 31  1  0
 19 32  1  0
 19 33  1  0
M  ISO  8  20  14  21  14  22  14  23  14  24  14  25  14  26  14  27  14
M  ISO  6  28  14  29  13  30  13  31  13  32  13  33  13
M  END
>  <minimizedAffinity>  (1) 
-6.00987148

>  <minimizedRMSD>  (1) 
1.36504745

$$$$
