
     RDKit          3D

 32 34  0  0  0  0  0  0  0  0999 V2000
   44.5440   35.8110   44.8080 C   0  0  0  0  0  0  0  0  0  0  0  0
   45.1710   35.7490   43.5530 C   0  0  0  0  0  0  0  0  0  0  0  0
   46.0530   34.6910   43.3760 C   0  0  0  0  0  0  0  0  0  0  0  0
   46.2640   33.7930   44.3940 N   0  0  0  0  0  0  0  0  0  0  0  0
   45.6280   33.9020   45.5920 C   0  0  0  0  0  0  0  0  0  0  0  0
   44.7730   34.9200   45.7770 N   0  0  0  0  0  0  0  0  0  0  0  0
   45.8840   32.9430   46.6110 N   0  0  0  0  0  0  0  0  0  0  0  0
   44.9890   32.8700   47.7260 C   0  0  0  0  0  0  0  0  0  0  0  0
   45.3930   32.0040   48.8390 C   0  0  0  0  0  0  0  0  0  0  0  0
   46.8140   31.5720   48.8880 C   0  0  0  0  0  0  0  0  0  0  0  0
   47.7190   32.1720   47.8600 C   0  0  0  0  0  0  0  0  0  0  0  0
   47.0180   32.0670   46.5180 C   0  0  0  0  0  0  0  0  0  0  0  0
   46.7670   34.5050   42.0670 C   0  0  0  0  0  0  0  0  0  0  0  0
   48.0460   35.3100   41.9810 C   0  0  0  0  0  0  0  0  0  0  0  0
   48.0140   33.7560   42.0620 C   0  0  0  0  0  0  0  0  0  0  0  0
   43.8337   36.6283   45.0017 H   0  0  0  0  0  0  0  0  0  0  0  0
   44.9765   36.4891   42.7628 H   0  0  0  0  0  0  0  0  0  0  0  0
   44.8675   33.8886   48.1232 H   0  0  0  0  0  0  0  0  0  0  0  0
   44.0677   32.4192   47.3284 H   0  0  0  0  0  0  0  0  0  0  0  0
   45.1803   32.5456   49.7725 H   0  0  0  0  0  0  0  0  0  0  0  0
   44.8213   31.0753   48.6949 H   0  0  0  0  0  0  0  0  0  0  0  0
   47.2111   31.8342   49.8797 H   0  0  0  0  0  0  0  0  0  0  0  0
   46.8024   30.4923   48.6779 H   0  0  0  0  0  0  0  0  0  0  0  0
   47.9131   33.2276   48.1007 H   0  0  0  0  0  0  0  0  0  0  0  0
   48.6829   31.6426   47.8361 H   0  0  0  0  0  0  0  0  0  0  0  0
   46.6914   31.0328   46.3342 H   0  0  0  0  0  0  0  0  0  0  0  0
   47.6824   32.3445   45.6864 H   0  0  0  0  0  0  0  0  0  0  0  0
   45.8535   34.4002   41.4633 H   0  0  0  0  0  0  0  0  0  0  0  0
   48.3893   35.9078   42.8382 H   0  0  0  0  0  0  0  0  0  0  0  0
   48.4692   36.0647   41.3018 H   0  0  0  0  0  0  0  0  0  0  0  0
   48.2899   33.1543   41.1834 H   0  0  0  0  0  0  0  0  0  0  0  0
   48.4703   33.0034   42.7219 H   0  0  0  0  0  0  0  0  0  0  0  0
  1  6  2  0
  2  1  1  0
  3  2  2  0
  3  4  1  0
  4  5  2  0
  5  6  1  0
  5  7  1  0
  7  8  1  0
  8  9  1  0
  9 10  1  0
 11 10  1  0
 12  7  1  0
 12 11  1  0
 13  3  1  0
 14 15  1  0
 14 13  1  0
 15 13  1  0
  1 16  1  0
  2 17  1  0
  8 18  1  0
  8 19  1  0
  9 20  1  0
  9 21  1  0
 10 22  1  0
 10 23  1  0
 11 24  1  0
 11 25  1  0
 12 26  1  0
 12 27  1  0
 13 28  1  0
 14 29  1  0
 14 30  1  0
 15 31  1  0
 15 32  1  0
M  ISO  8  16  14  17  14  18  13  19  13  20  13  21  13  22  13  23  13
M  ISO  8  24  13  25  13  26  13  27  13  28  13  29  13  30  13  31  13
M  ISO  1  32  13
M  END
>  <minimizedAffinity>  (1) 
-5.49493694

>  <minimizedRMSD>  (1) 
0.459964573

$$$$
