
     RDKit          3D

 23 24  0  0  0  0  0  0  0  0999 V2000
   45.2610   35.2950   43.5630 C   0  0  0  0  0  0  0  0  0  0  0  0
   46.3580   35.4100   42.6940 C   0  0  0  0  0  0  0  0  0  0  0  0
   47.3390   34.4380   42.8260 C   0  0  0  0  0  0  0  0  0  0  0  0
   47.1980   33.4450   43.7660 N   0  0  0  0  0  0  0  0  0  0  0  0
   46.1110   33.3800   44.5870 C   0  0  0  0  0  0  0  0  0  0  0  0
   45.1560   34.3160   44.4650 N   0  0  0  0  0  0  0  0  0  0  0  0
   48.5510   34.4350   41.9390 C   0  0  0  0  0  0  0  0  0  0  0  0
   48.9700   35.8270   41.5120 C   0  0  0  0  0  0  0  0  0  0  0  0
   49.8020   34.9500   42.4800 C   0  0  0  0  0  0  0  0  0  0  0  0
   45.9730   32.3740   45.5350 O   0  0  0  0  0  0  0  0  0  0  0  0
   45.7000   31.2390   47.8370 O   0  0  0  0  0  0  0  0  0  0  0  0
   45.9460   32.6090   47.2010 P   0  0  0  0  0  0  0  0  0  0  0  0
   47.3870   33.2070   47.7940 O   0  0  0  0  0  0  0  0  0  0  0  0
   44.6800   33.6500   47.6000 O   0  0  0  0  0  0  0  0  0  0  0  0
   44.4557   36.0415   43.4981 H   0  0  0  0  0  0  0  0  0  0  0  0
   46.4347   36.2206   41.9544 H   0  0  0  0  0  0  0  0  0  0  0  0
   48.3073   33.4887   41.4339 H   0  0  0  0  0  0  0  0  0  0  0  0
   49.3211   36.0149   40.4866 H   0  0  0  0  0  0  0  0  0  0  0  0
   48.5260   36.8332   41.5314 H   0  0  0  0  0  0  0  0  0  0  0  0
   49.8698   35.2199   43.5442 H   0  0  0  0  0  0  0  0  0  0  0  0
   50.8421   34.5928   42.5025 H   0  0  0  0  0  0  0  0  0  0  0  0
   47.3656   33.1981   48.7837 H   0  0  0  0  0  0  0  0  0  0  0  0
   44.6029   33.7134   48.5850 H   0  0  0  0  0  0  0  0  0  0  0  0
  1  6  2  0
  2  3  2  0
  2  1  1  0
  3  4  1  0
  4  5  2  0
  5 10  1  0
  6  5  1  0
  7  9  1  0
  7  3  1  0
  8  7  1  0
  8  9  1  0
 10 12  1  0
 12 14  1  0
 12 13  1  0
 12 11  2  0
  1 15  1  0
  2 16  1  0
  7 17  1  0
  8 18  1  0
  8 19  1  0
  9 20  1  0
  9 21  1  0
 13 22  1  0
 14 23  1  0
M  ISO  8  15  14  16  14  17  13  18  13  19  13  20  13  21  13  22   3
M  ISO  1  23   3
M  END
>  <minimizedAffinity>  (1) 
-5.46374559

>  <minimizedRMSD>  (1) 
1.51707196

$$$$
