
     RDKit          3D

 31 33  0  0  0  0  0  0  0  0999 V2000
   44.5590   35.6480   44.7990 C   0  0  0  0  0  0  0  0  0  0  0  0
   45.1420   35.7090   43.5210 C   0  0  0  0  0  0  0  0  0  0  0  0
   46.1350   34.7780   43.2650 C   0  0  0  0  0  0  0  0  0  0  0  0
   46.4980   33.8690   44.2290 N   0  0  0  0  0  0  0  0  0  0  0  0
   45.9010   33.8500   45.4550 C   0  0  0  0  0  0  0  0  0  0  0  0
   44.9360   34.7410   45.7290 N   0  0  0  0  0  0  0  0  0  0  0  0
   46.2830   32.8720   46.5020 C   0  0  0  0  0  0  0  0  0  0  0  0
   45.3060   32.8530   47.6530 C   0  0  0  0  0  0  0  0  0  0  0  0
   45.0630   31.4490   48.1270 C   0  0  0  0  0  0  0  0  0  0  0  0
   46.2290   30.6970   48.1940 O   0  0  0  0  0  0  0  0  0  0  0  0
   46.8840   30.5430   46.9970 C   0  0  0  0  0  0  0  0  0  0  0  0
   46.3670   31.4650   45.9420 C   0  0  0  0  0  0  0  0  0  0  0  0
   46.8150   34.7240   41.9250 C   0  0  0  0  0  0  0  0  0  0  0  0
   48.1840   35.3750   41.9350 C   0  0  0  0  0  0  0  0  0  0  0  0
   47.9650   33.8460   41.7650 C   0  0  0  0  0  0  0  0  0  0  0  0
   43.7652   36.3660   45.0525 H   0  0  0  0  0  0  0  0  0  0  0  0
   44.8289   36.4502   42.7709 H   0  0  0  0  0  0  0  0  0  0  0  0
   47.2688   33.1978   46.8653 H   0  0  0  0  0  0  0  0  0  0  0  0
   45.7157   33.4474   48.4829 H   0  0  0  0  0  0  0  0  0  0  0  0
   44.3512   33.2783   47.3103 H   0  0  0  0  0  0  0  0  0  0  0  0
   44.6118   31.4890   49.1294 H   0  0  0  0  0  0  0  0  0  0  0  0
   44.3955   30.9634   47.3999 H   0  0  0  0  0  0  0  0  0  0  0  0
   47.9539   30.7471   47.1510 H   0  0  0  0  0  0  0  0  0  0  0  0
   46.7156   29.5119   46.6529 H   0  0  0  0  0  0  0  0  0  0  0  0
   45.3666   31.1357   45.6245 H   0  0  0  0  0  0  0  0  0  0  0  0
   47.0467   31.4529   45.0772 H   0  0  0  0  0  0  0  0  0  0  0  0
   45.8904   34.8267   41.3380 H   0  0  0  0  0  0  0  0  0  0  0  0
   48.5170   35.9900   41.0859 H   0  0  0  0  0  0  0  0  0  0  0  0
   48.7511   36.0285   42.6142 H   0  0  0  0  0  0  0  0  0  0  0  0
   48.2470   33.1576   42.5753 H   0  0  0  0  0  0  0  0  0  0  0  0
   48.2710   33.0968   41.0200 H   0  0  0  0  0  0  0  0  0  0  0  0
  1  6  2  0
  2  1  1  0
  3  2  2  0
  3  4  1  0
  4  5  2  0
  5  6  1  0
  5  7  1  0
  7  8  1  0
  8  9  1  0
  9 10  1  0
 11 10  1  0
 12  7  1  0
 12 11  1  0
 13 14  1  0
 13  3  1  0
 15 13  1  0
 15 14  1  0
  1 16  1  0
  2 17  1  0
  7 18  1  0
  8 19  1  0
  8 20  1  0
  9 21  1  0
  9 22  1  0
 11 23  1  0
 11 24  1  0
 12 25  1  0
 12 26  1  0
 13 27  1  0
 14 28  1  0
 14 29  1  0
 15 30  1  0
 15 31  1  0
M  ISO  8  16  14  17  14  18  13  19  13  20  13  21  13  22  13  23  13
M  ISO  8  24  13  25  13  26  13  27  13  28  13  29  13  30  13  31  13
M  END
>  <minimizedAffinity>  (1) 
-5.05145597

>  <minimizedRMSD>  (1) 
0.543076098

$$$$
