
     RDKit          3D

 24 26  0  0  0  0  0  0  0  0999 V2000
   44.6850   35.8860   44.4700 C   0  0  0  0  0  0  0  0  0  0  0  0
   45.4100   35.9270   43.2420 C   0  0  0  0  0  0  0  0  0  0  0  0
   46.2660   34.8570   43.0300 C   0  0  0  0  0  0  0  0  0  0  0  0
   46.3910   33.8440   43.9480 N   0  0  0  0  0  0  0  0  0  0  0  0
   45.6720   33.8580   45.1080 C   0  0  0  0  0  0  0  0  0  0  0  0
   44.8300   34.8750   45.3520 N   0  0  0  0  0  0  0  0  0  0  0  0
   47.0600   34.7720   41.7620 C   0  0  0  0  0  0  0  0  0  0  0  0
   48.3850   35.4980   41.8190 C   0  0  0  0  0  0  0  0  0  0  0  0
   48.2670   33.9590   41.7470 C   0  0  0  0  0  0  0  0  0  0  0  0
   45.9430   32.6810   45.9680 C   0  0  0  0  0  0  0  0  0  0  0  0
   45.5260   32.7070   47.4180 C   0  0  0  0  0  0  0  0  0  0  0  0
   46.9630   32.7350   47.0280 C   0  0  0  0  0  0  0  0  0  0  0  0
   43.9869   36.7030   44.7049 H   0  0  0  0  0  0  0  0  0  0  0  0
   45.2982   36.7467   42.5171 H   0  0  0  0  0  0  0  0  0  0  0  0
   46.1771   34.7883   41.1061 H   0  0  0  0  0  0  0  0  0  0  0  0
   48.7453   36.0717   40.9524 H   0  0  0  0  0  0  0  0  0  0  0  0
   48.8638   36.2291   42.4870 H   0  0  0  0  0  0  0  0  0  0  0  0
   48.5274   33.3470   42.6232 H   0  0  0  0  0  0  0  0  0  0  0  0
   48.6694   33.1808   41.0818 H   0  0  0  0  0  0  0  0  0  0  0  0
   45.7605   32.0192   45.1085 H   0  0  0  0  0  0  0  0  0  0  0  0
   45.0499   33.6040   47.8408 H   0  0  0  0  0  0  0  0  0  0  0  0
   44.9009   32.0753   48.0663 H   0  0  0  0  0  0  0  0  0  0  0  0
   47.5985   31.8579   47.2200 H   0  0  0  0  0  0  0  0  0  0  0  0
   47.8086   33.4026   47.2501 H   0  0  0  0  0  0  0  0  0  0  0  0
  1  6  2  0
  2  1  1  0
  3  2  2  0
  3  4  1  0
  4  5  2  0
  5  6  1  0
  5 10  1  0
  7  8  1  0
  7  3  1  0
  9  7  1  0
  9  8  1  0
 10 12  1  0
 10 11  1  0
 12 11  1  0
  1 13  1  0
  2 14  1  0
  7 15  1  0
  8 16  1  0
  8 17  1  0
  9 18  1  0
  9 19  1  0
 10 20  1  0
 11 21  1  0
 11 22  1  0
 12 23  1  0
 12 24  1  0
M  ISO  8  13  14  14  14  15  13  16  13  17  13  18  13  19  13  20  13
M  ISO  4  21  13  22  13  23  13  24  13
M  END
>  <minimizedAffinity>  (1) 
-4.40529728

>  <minimizedRMSD>  (1) 
0.283670515

$$$$
