
     RDKit          3D

 36 39  0  0  0  0  0  0  0  0999 V2000
   46.1410   32.6900   47.0710 C   0  0  0  0  0  0  0  0  0  0  0  0
   45.0310   32.4210   47.8280 C   0  0  0  0  0  0  0  0  0  0  0  0
   45.1400   31.6310   48.9510 C   0  0  0  0  0  0  0  0  0  0  0  0
   46.3840   31.1360   49.2700 C   0  0  0  0  0  0  0  0  0  0  0  0
   47.4870   31.4230   48.4870 C   0  0  0  0  0  0  0  0  0  0  0  0
   47.3460   32.2090   47.3830 N   0  0  0  0  0  0  0  0  0  0  0  0
   48.6400   28.7270   47.3200 Cl  0  0  0  0  0  0  0  0  0  0  0  0
   49.5020   29.8660   48.3160 C   0  0  0  0  0  0  0  0  0  0  0  0
   48.8510   30.9820   48.7280 C   0  0  0  0  0  0  0  0  0  0  0  0
   49.6980   31.8010   49.4780 C   0  0  0  0  0  0  0  0  0  0  0  0
   51.0060   31.5260   49.7670 C   0  0  0  0  0  0  0  0  0  0  0  0
   51.5780   30.3800   49.3130 C   0  0  0  0  0  0  0  0  0  0  0  0
   50.8040   29.5370   48.5720 C   0  0  0  0  0  0  0  0  0  0  0  0
   44.9110   35.1450   44.6200 C   0  0  0  0  0  0  0  0  0  0  0  0
   45.7970   35.0240   43.5510 C   0  0  0  0  0  0  0  0  0  0  0  0
   46.8070   34.1030   43.7000 C   0  0  0  0  0  0  0  0  0  0  0  0
   46.9140   33.3540   44.8520 N   0  0  0  0  0  0  0  0  0  0  0  0
   46.0120   33.5140   45.8740 C   0  0  0  0  0  0  0  0  0  0  0  0
   45.0200   34.4090   45.7490 N   0  0  0  0  0  0  0  0  0  0  0  0
   47.8050   33.8590   42.6010 C   0  0  0  0  0  0  0  0  0  0  0  0
   48.0290   35.0980   41.7320 C   0  0  0  0  0  0  0  0  0  0  0  0
   49.1040   34.4770   42.6820 C   0  0  0  0  0  0  0  0  0  0  0  0
   44.0539   32.8355   47.5392 H   0  0  0  0  0  0  0  0  0  0  0  0
   44.2615   31.4031   49.5726 H   0  0  0  0  0  0  0  0  0  0  0  0
   46.5026   30.5024   50.1614 H   0  0  0  0  0  0  0  0  0  0  0  0
   49.2800   32.7413   49.8668 H   0  0  0  0  0  0  0  0  0  0  0  0
   51.5961   32.2336   50.3679 H   0  0  0  0  0  0  0  0  0  0  0  0
   52.6284   30.1409   49.5355 H   0  0  0  0  0  0  0  0  0  0  0  0
   51.2245   28.5981   48.1826 H   0  0  0  0  0  0  0  0  0  0  0  0
   44.0877   35.8704   44.5419 H   0  0  0  0  0  0  0  0  0  0  0  0
   45.6941   35.6311   42.6395 H   0  0  0  0  0  0  0  0  0  0  0  0
   47.5170   32.8101   42.4373 H   0  0  0  0  0  0  0  0  0  0  0  0
   48.1252   35.0086   40.6399 H   0  0  0  0  0  0  0  0  0  0  0  0
   47.5505   36.0786   41.5928 H   0  0  0  0  0  0  0  0  0  0  0  0
   49.3995   35.0113   43.5970 H   0  0  0  0  0  0  0  0  0  0  0  0
   50.1368   34.1219   42.5507 H   0  0  0  0  0  0  0  0  0  0  0  0
  1  6  1  0
  1  2  2  0
  2  3  1  0
  3  4  2  0
  5  9  1  0
  5  4  1  0
  6  5  2  0
  7  8  1  0
  8 13  2  0
  8  9  1  0
  9 10  2  0
 10 11  1  0
 12 11  2  0
 13 12  1  0
 14 19  2  0
 15 16  2  0
 15 14  1  0
 16 17  1  0
 17 18  2  0
 18  1  1  0
 19 18  1  0
 20 22  1  0
 20 16  1  0
 21 20  1  0
 21 22  1  0
  2 23  1  0
  3 24  1  0
  4 25  1  0
 10 26  1  0
 11 27  1  0
 12 28  1  0
 13 29  1  0
 14 30  1  0
 15 31  1  0
 20 32  1  0
 21 33  1  0
 21 34  1  0
 22 35  1  0
 22 36  1  0
M  ISO  8  23  14  24  14  25  14  26  14  27  14  28  14  29  14  30  14
M  ISO  6  31  14  32  13  33  13  34  13  35  13  36  13
M  END
>  <minimizedAffinity>  (1) 
-6.49369335

>  <minimizedRMSD>  (1) 
1.63479853

$$$$
