
     RDKit          3D

 32 35  0  0  0  0  0  0  0  0999 V2000
   45.0290   35.0560   44.4350 C   0  0  0  0  0  0  0  0  0  0  0  0
   45.9920   34.9680   43.4060 C   0  0  0  0  0  0  0  0  0  0  0  0
   47.0140   34.0750   43.6250 C   0  0  0  0  0  0  0  0  0  0  0  0
   47.0770   33.3240   44.7780 N   0  0  0  0  0  0  0  0  0  0  0  0
   46.1110   33.4520   45.7430 C   0  0  0  0  0  0  0  0  0  0  0  0
   45.1030   34.3140   45.5590 N   0  0  0  0  0  0  0  0  0  0  0  0
   46.2000   32.6300   46.9480 C   0  0  0  0  0  0  0  0  0  0  0  0
   45.1110   32.5640   47.7900 C   0  0  0  0  0  0  0  0  0  0  0  0
   45.1630   31.7980   48.9340 C   0  0  0  0  0  0  0  0  0  0  0  0
   46.3400   31.1100   49.1930 C   0  0  0  0  0  0  0  0  0  0  0  0
   47.4070   31.2130   48.3080 C   0  0  0  0  0  0  0  0  0  0  0  0
   47.3420   31.9700   47.1890 N   0  0  0  0  0  0  0  0  0  0  0  0
   48.6640   30.4930   48.5620 C   0  0  0  0  0  0  0  0  0  0  0  0
   49.0400   30.5480   49.8660 N   0  0  0  0  0  0  0  0  0  0  0  0
   50.2050   29.8560   49.9920 C   0  0  0  0  0  0  0  0  0  0  0  0
   50.5030   29.4030   48.7600 N   0  0  0  0  0  0  0  0  0  0  0  0
   49.5650   29.7910   47.8920 N   0  0  0  0  0  0  0  0  0  0  0  0
   48.0800   33.8670   42.5890 C   0  0  0  0  0  0  0  0  0  0  0  0
   48.1550   35.0260   41.5900 C   0  0  0  0  0  0  0  0  0  0  0  0
   49.2700   34.6750   42.6320 C   0  0  0  0  0  0  0  0  0  0  0  0
   44.1880   35.7550   44.3156 H   0  0  0  0  0  0  0  0  0  0  0  0
   45.9286   35.5738   42.4900 H   0  0  0  0  0  0  0  0  0  0  0  0
   44.1965   33.1252   47.5477 H   0  0  0  0  0  0  0  0  0  0  0  0
   44.3031   31.7341   49.6170 H   0  0  0  0  0  0  0  0  0  0  0  0
   46.4282   30.4860   50.0945 H   0  0  0  0  0  0  0  0  0  0  0  0
   50.7851   29.6988   50.9133 H   0  0  0  0  0  0  0  0  0  0  0  0
   51.3321   28.8402   48.5218 H   0  0  0  0  0  0  0  0  0  0  0  0
   47.9558   32.7752   42.5380 H   0  0  0  0  0  0  0  0  0  0  0  0
   48.3073   34.8351   40.5175 H   0  0  0  0  0  0  0  0  0  0  0  0
   47.5454   35.9038   41.3295 H   0  0  0  0  0  0  0  0  0  0  0  0
   49.4475   35.3419   43.4886 H   0  0  0  0  0  0  0  0  0  0  0  0
   50.3477   34.4646   42.5668 H   0  0  0  0  0  0  0  0  0  0  0  0
  1  6  2  0
  2  3  2  0
  2  1  1  0
  3  4  1  0
  4  5  2  0
  5  7  1  0
  6  5  1  0
  7 12  1  0
  7  8  2  0
  8  9  1  0
  9 10  2  0
 11 13  1  0
 11 10  1  0
 12 11  2  0
 13 14  1  0
 14 15  2  0
 16 15  1  0
 17 13  2  0
 17 16  1  0
 18 20  1  0
 18  3  1  0
 19 18  1  0
 19 20  1  0
  1 21  1  0
  2 22  1  0
  8 23  1  0
  9 24  1  0
 10 25  1  0
 15 26  1  0
 16 27  1  0
 18 28  1  0
 19 29  1  0
 19 30  1  0
 20 31  1  0
 20 32  1  0
M  ISO  8  21  14  22  14  23  14  24  14  25  14  26  14  27   9  28  13
M  ISO  4  29  13  30  13  31  13  32  13
M  END
>  <minimizedAffinity>  (1) 
-5.93502998

>  <minimizedRMSD>  (1) 
1.4199847

$$$$
