
     RDKit          3D

 33 36  0  0  0  0  0  0  0  0999 V2000
   44.6010   35.6920   44.7100 C   0  0  0  0  0  0  0  0  0  0  0  0
   45.2650   35.5970   43.4910 C   0  0  0  0  0  0  0  0  0  0  0  0
   46.1790   34.5740   43.3810 C   0  0  0  0  0  0  0  0  0  0  0  0
   46.4060   33.7100   44.4270 N   0  0  0  0  0  0  0  0  0  0  0  0
   45.7160   33.8550   45.6070 C   0  0  0  0  0  0  0  0  0  0  0  0
   44.8170   34.8480   45.7400 N   0  0  0  0  0  0  0  0  0  0  0  0
   45.9680   32.9120   46.6870 C   0  0  0  0  0  0  0  0  0  0  0  0
   45.1570   32.9020   47.7870 C   0  0  0  0  0  0  0  0  0  0  0  0
   45.3750   32.0060   48.8220 C   0  0  0  0  0  0  0  0  0  0  0  0
   46.4280   31.1300   48.7060 C   0  0  0  0  0  0  0  0  0  0  0  0
   47.2100   31.1840   47.5790 C   0  0  0  0  0  0  0  0  0  0  0  0
   47.0100   32.0510   46.5630 N   0  0  0  0  0  0  0  0  0  0  0  0
   48.3300   30.2860   47.4050 C   0  0  0  0  0  0  0  0  0  0  0  0
   48.8260   29.3900   46.4350 C   0  0  0  0  0  0  0  0  0  0  0  0
   49.9740   28.7210   46.7050 C   0  0  0  0  0  0  0  0  0  0  0  0
   50.6840   28.8910   47.9220 C   0  0  0  0  0  0  0  0  0  0  0  0
   49.5800   30.1670   48.7950 S   0  0  0  0  0  0  0  0  0  0  0  0
   46.9400   34.3490   42.0990 C   0  0  0  0  0  0  0  0  0  0  0  0
   48.0920   35.3460   41.9480 C   0  0  0  0  0  0  0  0  0  0  0  0
   48.2770   33.8190   42.1720 C   0  0  0  0  0  0  0  0  0  0  0  0
   43.8622   36.4964   44.8405 H   0  0  0  0  0  0  0  0  0  0  0  0
   45.0711   36.2972   42.6651 H   0  0  0  0  0  0  0  0  0  0  0  0
   44.3209   33.6138   47.8519 H   0  0  0  0  0  0  0  0  0  0  0  0
   44.7250   31.9963   49.7094 H   0  0  0  0  0  0  0  0  0  0  0  0
   46.6399   30.3998   49.5009 H   0  0  0  0  0  0  0  0  0  0  0  0
   48.2950   29.2379   45.4838 H   0  0  0  0  0  0  0  0  0  0  0  0
   50.3692   28.0214   45.9538 H   0  0  0  0  0  0  0  0  0  0  0  0
   51.6150   28.4159   48.2647 H   0  0  0  0  0  0  0  0  0  0  0  0
   46.0705   34.0293   41.5059 H   0  0  0  0  0  0  0  0  0  0  0  0
   48.3161   35.8018   40.9723 H   0  0  0  0  0  0  0  0  0  0  0  0
   48.4192   36.2745   42.4387 H   0  0  0  0  0  0  0  0  0  0  0  0
   48.6670   33.4512   43.1325 H   0  0  0  0  0  0  0  0  0  0  0  0
   48.8197   33.0232   41.6407 H   0  0  0  0  0  0  0  0  0  0  0  0
  1  6  2  0
  2  1  1  0
  3  2  2  0
  3  4  1  0
  4  5  2  0
  5  6  1  0
  5  7  1  0
  7  8  2  0
  8  9  1  0
 10  9  2  0
 11 10  1  0
 12  7  1  0
 12 11  2  0
 13 11  1  0
 13 17  1  0
 14 15  1  0
 14 13  2  0
 15 16  2  0
 16 17  1  0
 18 20  1  0
 18  3  1  0
 19 18  1  0
 19 20  1  0
  1 21  1  0
  2 22  1  0
  8 23  1  0
  9 24  1  0
 10 25  1  0
 14 26  1  0
 15 27  1  0
 16 28  1  0
 18 29  1  0
 19 30  1  0
 19 31  1  0
 20 32  1  0
 20 33  1  0
M  ISO  8  21  14  22  14  23  14  24  14  25  14  26  14  27  14  28  14
M  ISO  5  29  13  30  13  31  13  32  13  33  13
M  END
>  <minimizedAffinity>  (1) 
-5.68126202

>  <minimizedRMSD>  (1) 
0.40593642

$$$$
