
     RDKit          3D

 32 35  0  0  0  0  0  0  0  0999 V2000
   45.0730   35.0370   44.4430 C   0  0  0  0  0  0  0  0  0  0  0  0
   46.0630   34.9130   43.4420 C   0  0  0  0  0  0  0  0  0  0  0  0
   47.0580   33.9950   43.6880 C   0  0  0  0  0  0  0  0  0  0  0  0
   47.0660   33.2600   44.8430 N   0  0  0  0  0  0  0  0  0  0  0  0
   46.0850   33.4120   45.7910 C   0  0  0  0  0  0  0  0  0  0  0  0
   45.1020   34.2950   45.5820 N   0  0  0  0  0  0  0  0  0  0  0  0
   46.1380   32.6020   47.0040 C   0  0  0  0  0  0  0  0  0  0  0  0
   45.0160   32.4950   47.7810 C   0  0  0  0  0  0  0  0  0  0  0  0
   45.0420   31.7400   48.9300 C   0  0  0  0  0  0  0  0  0  0  0  0
   46.2230   31.1060   49.2600 C   0  0  0  0  0  0  0  0  0  0  0  0
   47.3500   31.2410   48.4380 C   0  0  0  0  0  0  0  0  0  0  0  0
   47.2830   31.9930   47.3160 N   0  0  0  0  0  0  0  0  0  0  0  0
   48.6130   30.5580   48.8010 C   0  0  0  0  0  0  0  0  0  0  0  0
   49.3150   29.7720   47.8200 C   0  0  0  0  0  0  0  0  0  0  0  0
   50.7450   29.1770   48.7490 S   0  0  0  0  0  0  0  0  0  0  0  0
   50.1790   30.0810   50.3230 C   0  0  0  0  0  0  0  0  0  0  0  0
   49.1580   30.6210   49.9940 N   0  0  0  0  0  0  0  0  0  0  0  0
   48.1320   33.7720   42.6690 C   0  0  0  0  0  0  0  0  0  0  0  0
   48.1250   34.8180   41.5590 C   0  0  0  0  0  0  0  0  0  0  0  0
   49.2580   34.6720   42.6290 C   0  0  0  0  0  0  0  0  0  0  0  0
   44.2536   35.7561   44.2961 H   0  0  0  0  0  0  0  0  0  0  0  0
   46.0395   35.5144   42.5213 H   0  0  0  0  0  0  0  0  0  0  0  0
   44.0921   33.0138   47.4857 H   0  0  0  0  0  0  0  0  0  0  0  0
   44.1498   31.6443   49.5662 H   0  0  0  0  0  0  0  0  0  0  0  0
   46.2797   30.4927   50.1714 H   0  0  0  0  0  0  0  0  0  0  0  0
   49.0479   29.5819   46.7700 H   0  0  0  0  0  0  0  0  0  0  0  0
   50.6720   30.1040   51.3061 H   0  0  0  0  0  0  0  0  0  0  0  0
   48.0877   32.6743   42.7254 H   0  0  0  0  0  0  0  0  0  0  0  0
   47.4271   35.6676   41.5922 H   0  0  0  0  0  0  0  0  0  0  0  0
   48.0534   34.8231   40.4613 H   0  0  0  0  0  0  0  0  0  0  0  0
   50.2483   34.2975   42.3306 H   0  0  0  0  0  0  0  0  0  0  0  0
   49.7300   35.3524   43.3530 H   0  0  0  0  0  0  0  0  0  0  0  0
  1  6  2  0
  2  3  2  0
  2  1  1  0
  3  4  1  0
  4  5  2  0
  5  7  1  0
  6  5  1  0
  7 12  1  0
  7  8  2  0
  8  9  1  0
  9 10  2  0
 11 13  1  0
 11 10  1  0
 12 11  2  0
 13 17  1  0
 14 15  1  0
 14 13  2  0
 15 16  1  0
 17 16  2  0
 18  3  1  0
 19 20  1  0
 19 18  1  0
 20 18  1  0
  1 21  1  0
  2 22  1  0
  8 23  1  0
  9 24  1  0
 10 25  1  0
 14 26  1  0
 16 27  1  0
 18 28  1  0
 19 29  1  0
 19 30  1  0
 20 31  1  0
 20 32  1  0
M  ISO  8  21  14  22  14  23  14  24  14  25  14  26  14  27  14  28  13
M  ISO  4  29  13  30  13  31  13  32  13
M  END
>  <minimizedAffinity>  (1) 
-5.93015862

>  <minimizedRMSD>  (1) 
1.59315014

$$$$
