
     RDKit          3D

 28 30  0  0  0  0  0  0  0  0999 V2000
   44.5670   35.8810   44.6030 C   0  0  0  0  0  0  0  0  0  0  0  0
   45.2240   35.8570   43.3680 C   0  0  0  0  0  0  0  0  0  0  0  0
   46.1360   34.8420   43.1920 C   0  0  0  0  0  0  0  0  0  0  0  0
   46.3650   33.9210   44.1980 N   0  0  0  0  0  0  0  0  0  0  0  0
   45.6960   33.9920   45.3790 C   0  0  0  0  0  0  0  0  0  0  0  0
   44.8030   34.9680   45.5770 N   0  0  0  0  0  0  0  0  0  0  0  0
   45.9730   32.9740   46.4020 C   0  0  0  0  0  0  0  0  0  0  0  0
   45.2350   33.0100   47.5690 C   0  0  0  0  0  0  0  0  0  0  0  0
   45.4650   32.0620   48.5560 C   0  0  0  0  0  0  0  0  0  0  0  0
   46.4340   31.1150   48.3220 C   0  0  0  0  0  0  0  0  0  0  0  0
   47.1520   31.1220   47.1230 C   0  0  0  0  0  0  0  0  0  0  0  0
   46.9240   32.0520   46.1580 N   0  0  0  0  0  0  0  0  0  0  0  0
   48.1720   30.1600   46.8250 N   0  0  0  0  0  0  0  0  0  0  0  0
   46.8810   34.7000   41.8920 C   0  0  0  0  0  0  0  0  0  0  0  0
   48.2440   35.3950   41.9220 C   0  0  0  0  0  0  0  0  0  0  0  0
   48.0380   33.8460   41.8320 C   0  0  0  0  0  0  0  0  0  0  0  0
   43.8281   36.6738   44.7916 H   0  0  0  0  0  0  0  0  0  0  0  0
   45.0237   36.6039   42.5857 H   0  0  0  0  0  0  0  0  0  0  0  0
   44.4691   33.7859   47.7152 H   0  0  0  0  0  0  0  0  0  0  0  0
   44.8911   32.0680   49.4944 H   0  0  0  0  0  0  0  0  0  0  0  0
   46.6451   30.3483   49.0820 H   0  0  0  0  0  0  0  0  0  0  0  0
   48.6753   30.2043   45.9275 H   0  0  0  0  0  0  0  0  0  0  0  0
   48.4016   29.4244   47.5084 H   0  0  0  0  0  0  0  0  0  0  0  0
   45.9810   34.7336   41.2605 H   0  0  0  0  0  0  0  0  0  0  0  0
   48.6033   35.9659   41.0531 H   0  0  0  0  0  0  0  0  0  0  0  0
   48.7732   36.0985   42.5815 H   0  0  0  0  0  0  0  0  0  0  0  0
   48.2932   33.2093   42.6920 H   0  0  0  0  0  0  0  0  0  0  0  0
   48.3823   33.0607   41.1430 H   0  0  0  0  0  0  0  0  0  0  0  0
  1  6  2  0
  2  1  1  0
  3  2  2  0
  3  4  1  0
  4  5  2  0
  5  6  1  0
  5  7  1  0
  7  8  2  0
  8  9  1  0
 10  9  2  0
 11 10  1  0
 12  7  1  0
 12 11  2  0
 13 11  1  0
 14 15  1  0
 14  3  1  0
 16 14  1  0
 16 15  1  0
  1 17  1  0
  2 18  1  0
  8 19  1  0
  9 20  1  0
 10 21  1  0
 13 22  1  0
 13 23  1  0
 14 24  1  0
 15 25  1  0
 15 26  1  0
 16 27  1  0
 16 28  1  0
M  ISO  8  17  14  18  14  19  14  20  14  21  14  24  13  25  13  26  13
M  ISO  2  27  13  28  13
M  END
>  <minimizedAffinity>  (1) 
-5.41605377

>  <minimizedRMSD>  (1) 
0.169586077

$$$$
