
     RDKit          3D

 22 23  0  0  0  0  0  0  0  0999 V2000
   44.8420   33.7570   47.4340 F   0  0  0  0  0  0  0  0  0  0  0  0
   45.6950   32.7980   46.9730 C   0  0  0  0  0  0  0  0  0  0  0  0
   46.1860   32.9090   45.6930 C   0  0  0  0  0  0  0  0  0  0  0  0
   47.0370   31.9490   45.2390 C   0  0  0  0  0  0  0  0  0  0  0  0
   47.4020   30.8920   46.0330 C   0  0  0  0  0  0  0  0  0  0  0  0
   46.9180   30.7640   47.3200 C   0  0  0  0  0  0  0  0  0  0  0  0
   46.0510   31.7480   47.7780 C   0  0  0  0  0  0  0  0  0  0  0  0
   44.4850   35.9510   44.5520 C   0  0  0  0  0  0  0  0  0  0  0  0
   45.0540   36.1670   43.2810 C   0  0  0  0  0  0  0  0  0  0  0  0
   46.0200   35.2530   42.8360 C   0  0  0  0  0  0  0  0  0  0  0  0
   46.3540   34.2110   43.6550 N   0  0  0  0  0  0  0  0  0  0  0  0
   45.7780   34.0520   44.8640 C   0  0  0  0  0  0  0  0  0  0  0  0
   44.8570   34.9100   45.3060 N   0  0  0  0  0  0  0  0  0  0  0  0
   45.5200   31.6450   49.1340 C   0  0  0  0  0  0  0  0  0  0  0  0
   44.9930   30.6130   49.5980 O   0  0  0  0  0  0  0  0  0  0  0  0
   47.4390   32.0220   44.2177 H   0  0  0  0  0  0  0  0  0  0  0  0
   48.0926   30.1326   45.6376 H   0  0  0  0  0  0  0  0  0  0  0  0
   47.2077   29.9158   47.9577 H   0  0  0  0  0  0  0  0  0  0  0  0
   43.7234   36.6488   44.9301 H   0  0  0  0  0  0  0  0  0  0  0  0
   44.7510   37.0226   42.6597 H   0  0  0  0  0  0  0  0  0  0  0  0
   46.4972   35.3718   41.8520 H   0  0  0  0  0  0  0  0  0  0  0  0
   45.5884   32.5289   49.7852 H   0  0  0  0  0  0  0  0  0  0  0  0
  2  1  1  0
  2  7  2  0
  3  2  1  0
  4  3  2  0
  4  5  1  0
  5  6  2  0
  6  7  1  0
  7 14  1  0
  8 13  2  0
  9  8  1  0
 10  9  2  0
 10 11  1  0
 11 12  2  0
 12 13  1  0
 12  3  1  0
 14 15  2  0
  4 16  1  0
  5 17  1  0
  6 18  1  0
  8 19  1  0
  9 20  1  0
 10 21  1  0
 14 22  1  0
M  ISO  7  16  14  17  14  18  14  19  14  20  14  21  14  22   6
M  END
>  <minimizedAffinity>  (1) 
-4.94171524

>  <minimizedRMSD>  (1) 
0.830403626

$$$$
