
     RDKit          3D

 24 25  0  0  0  0  0  0  0  0999 V2000
   44.8470   33.9600   47.2630 F   0  0  0  0  0  0  0  0  0  0  0  0
   45.7320   32.9980   46.8920 C   0  0  0  0  0  0  0  0  0  0  0  0
   46.2300   33.0680   45.6080 C   0  0  0  0  0  0  0  0  0  0  0  0
   47.1230   32.1100   45.2120 C   0  0  0  0  0  0  0  0  0  0  0  0
   47.5000   31.1130   46.0820 C   0  0  0  0  0  0  0  0  0  0  0  0
   47.0100   31.0320   47.3670 C   0  0  0  0  0  0  0  0  0  0  0  0
   46.1020   32.0070   47.7680 C   0  0  0  0  0  0  0  0  0  0  0  0
   44.4430   35.9630   44.2590 C   0  0  0  0  0  0  0  0  0  0  0  0
   45.0380   36.1470   42.9890 C   0  0  0  0  0  0  0  0  0  0  0  0
   46.0560   35.2550   42.6260 C   0  0  0  0  0  0  0  0  0  0  0  0
   46.4130   34.2700   43.5040 N   0  0  0  0  0  0  0  0  0  0  0  0
   45.8140   34.1330   44.7080 C   0  0  0  0  0  0  0  0  0  0  0  0
   44.8320   34.9750   45.0860 N   0  0  0  0  0  0  0  0  0  0  0  0
   44.9810   30.8070   49.4670 C   0  0  0  0  0  0  0  0  0  0  0  0
   44.8400   29.6350   49.0610 O   0  0  0  0  0  0  0  0  0  0  0  0
   45.5170   32.0470   49.0600 N   0  0  0  0  0  0  0  0  0  0  0  0
   47.5409   32.1370   44.1948 H   0  0  0  0  0  0  0  0  0  0  0  0
   48.2182   30.3536   45.7393 H   0  0  0  0  0  0  0  0  0  0  0  0
   47.3242   30.2282   48.0491 H   0  0  0  0  0  0  0  0  0  0  0  0
   43.6416   36.6451   44.5790 H   0  0  0  0  0  0  0  0  0  0  0  0
   44.7157   36.9550   42.3157 H   0  0  0  0  0  0  0  0  0  0  0  0
   46.5588   35.3458   41.6519 H   0  0  0  0  0  0  0  0  0  0  0  0
   44.5440   30.9052   50.4717 H   0  0  0  0  0  0  0  0  0  0  0  0
   45.4867   32.8960   49.6423 H   0  0  0  0  0  0  0  0  0  0  0  0
  2  1  1  0
  2  7  2  0
  3  2  1  0
  4  3  2  0
  4  5  1  0
  5  6  2  0
  6  7  1  0
  7 16  1  0
  8 13  2  0
  9  8  1  0
 10  9  2  0
 10 11  1  0
 11 12  2  0
 12 13  1  0
 12  3  1  0
 15 14  2  0
 16 14  1  0
  4 17  1  0
  5 18  1  0
  6 19  1  0
  8 20  1  0
  9 21  1  0
 10 22  1  0
 14 23  1  0
 16 24  1  0
M  ISO  7  17  14  18  14  19  14  20  14  21  14  22  14  23   6
M  END
>  <minimizedAffinity>  (1) 
-5.01382589

>  <minimizedRMSD>  (1) 
0.997618318

$$$$
