
     RDKit          3D

 22 23  0  0  0  0  0  0  0  0999 V2000
   44.4920   33.7280   47.6180 F   0  0  0  0  0  0  0  0  0  0  0  0
   45.4510   32.8010   47.2970 C   0  0  0  0  0  0  0  0  0  0  0  0
   46.0750   32.9240   46.0780 C   0  0  0  0  0  0  0  0  0  0  0  0
   47.0330   32.0070   45.7490 C   0  0  0  0  0  0  0  0  0  0  0  0
   47.3510   30.9890   46.6340 C   0  0  0  0  0  0  0  0  0  0  0  0
   46.7360   30.8600   47.8490 C   0  0  0  0  0  0  0  0  0  0  0  0
   45.7640   31.7970   48.1750 C   0  0  0  0  0  0  0  0  0  0  0  0
   44.4980   35.9440   44.7340 C   0  0  0  0  0  0  0  0  0  0  0  0
   45.0430   36.0550   43.4410 C   0  0  0  0  0  0  0  0  0  0  0  0
   45.9520   35.0710   43.0630 C   0  0  0  0  0  0  0  0  0  0  0  0
   46.2610   34.0700   43.9510 N   0  0  0  0  0  0  0  0  0  0  0  0
   45.7150   34.0080   45.1700 C   0  0  0  0  0  0  0  0  0  0  0  0
   44.8300   34.9440   45.5700 N   0  0  0  0  0  0  0  0  0  0  0  0
   45.0370   31.7790   49.4180 N   0  0  0  0  0  0  0  0  0  0  0  0
   47.5519   32.0768   44.7816 H   0  0  0  0  0  0  0  0  0  0  0  0
   48.1242   30.2600   46.3497 H   0  0  0  0  0  0  0  0  0  0  0  0
   47.0007   30.0465   48.5404 H   0  0  0  0  0  0  0  0  0  0  0  0
   43.7756   36.7013   45.0725 H   0  0  0  0  0  0  0  0  0  0  0  0
   44.7650   36.8766   42.7645 H   0  0  0  0  0  0  0  0  0  0  0  0
   46.4167   35.0948   42.0663 H   0  0  0  0  0  0  0  0  0  0  0  0
   45.2298   31.0474   50.1169 H   0  0  0  0  0  0  0  0  0  0  0  0
   44.3242   32.4978   49.6082 H   0  0  0  0  0  0  0  0  0  0  0  0
  2  1  1  0
  2  7  2  0
  3  2  1  0
  4  3  2  0
  4  5  1  0
  5  6  2  0
  6  7  1  0
  7 14  1  0
  8 13  2  0
  9  8  1  0
 10  9  2  0
 10 11  1  0
 11 12  2  0
 12 13  1  0
 12  3  1  0
  4 15  1  0
  5 16  1  0
  6 17  1  0
  8 18  1  0
  9 19  1  0
 10 20  1  0
 14 21  1  0
 14 22  1  0
M  ISO  6  15  14  16  14  17  14  18  14  19  14  20  14
M  END
>  <minimizedAffinity>  (1) 
-5.27291346

>  <minimizedRMSD>  (1) 
0.422361284

$$$$
