
     RDKit          3D

 33 35  0  0  1  0  0  0  0  0999 V2000
   47.2180   34.0410   42.4890 C   0  0  2  0  0  0  0  0  0  0  0  0
   48.5400   34.6920   42.5900 C   0  0  0  0  0  0  0  0  0  0  0  0
   48.8220   35.6750   41.5030 C   0  0  0  0  0  0  0  0  0  0  0  0
   48.6410   35.0960   40.1180 C   0  0  0  0  0  0  0  0  0  0  0  0
   47.4290   34.2080   39.9920 C   0  0  0  0  0  0  0  0  0  0  0  0
   46.5140   34.3110   41.1710 C   0  0  1  0  0  0  0  0  0  0  0  0
   46.3020   34.4610   43.5710 C   0  0  0  0  0  0  0  0  0  0  0  0
   45.6030   35.6650   43.3560 C   0  0  0  0  0  0  0  0  0  0  0  0
   44.7110   36.1380   44.3270 C   0  0  0  0  0  0  0  0  0  0  0  0
   44.5790   35.3650   45.4590 N   0  0  0  0  0  0  0  0  0  0  0  0
   45.2620   34.2140   45.6400 C   0  0  0  0  0  0  0  0  0  0  0  0
   46.1200   33.7660   44.6940 N   0  0  0  0  0  0  0  0  0  0  0  0
   45.4750   33.2190   41.0140 C   0  0  0  0  0  0  0  0  0  0  0  0
   44.4950   33.2940   39.8750 C   0  0  0  0  0  0  0  0  0  0  0  0
   44.0450   33.4370   41.2790 C   0  0  0  0  0  0  0  0  0  0  0  0
   47.4418   32.9670   42.5697 H   0  0  0  0  0  0  0  0  0  0  0  0
   48.5923   35.2192   43.5540 H   0  0  0  0  0  0  0  0  0  0  0  0
   49.2928   33.8951   42.4989 H   0  0  0  0  0  0  0  0  0  0  0  0
   48.1384   36.5292   41.6174 H   0  0  0  0  0  0  0  0  0  0  0  0
   49.8759   35.9754   41.5977 H   0  0  0  0  0  0  0  0  0  0  0  0
   48.5402   35.9264   39.4037 H   0  0  0  0  0  0  0  0  0  0  0  0
   49.5227   34.4721   39.9099 H   0  0  0  0  0  0  0  0  0  0  0  0
   46.8728   34.4976   39.0883 H   0  0  0  0  0  0  0  0  0  0  0  0
   47.7830   33.1680   39.9354 H   0  0  0  0  0  0  0  0  0  0  0  0
   46.1030   35.3310   41.1960 H   0  0  0  0  0  0  0  0  0  0  0  0
   45.7574   36.2330   42.4268 H   0  0  0  0  0  0  0  0  0  0  0  0
   44.1481   37.0735   44.1929 H   0  0  0  0  0  0  0  0  0  0  0  0
   45.1197   33.6354   46.5647 H   0  0  0  0  0  0  0  0  0  0  0  0
   46.2144   32.4950   41.3870 H   0  0  0  0  0  0  0  0  0  0  0  0
   44.4943   34.1648   39.2029 H   0  0  0  0  0  0  0  0  0  0  0  0
   44.2265   32.6451   39.0283 H   0  0  0  0  0  0  0  0  0  0  0  0
   43.4479   32.6395   41.7453 H   0  0  0  0  0  0  0  0  0  0  0  0
   43.4708   34.1963   41.8302 H   0  0  0  0  0  0  0  0  0  0  0  0
  1  2  1  0
  1  7  1  0
  3  2  1  0
  4  3  1  0
  5  4  1  0
  5  6  1  0
  6  1  1  0
  7 12  1  0
  8  7  2  0
  8  9  1  0
  9 10  2  0
 10 11  1  0
 12 11  2  0
 13  6  1  0
 13 15  1  0
 14 13  1  0
 14 15  1  0
  1 16  1  1
  2 17  1  0
  2 18  1  0
  3 19  1  0
  3 20  1  0
  4 21  1  0
  4 22  1  0
  5 23  1  0
  5 24  1  0
  6 25  1  1
  8 26  1  0
  9 27  1  0
 11 28  1  0
 13 29  1  0
 14 30  1  0
 14 31  1  0
 15 32  1  0
 15 33  1  0
M  ISO  8  16  13  17  13  18  13  19  13  20  13  21  13  22  13  23  13
M  ISO  8  24  13  25  13  26  14  27  14  28  14  29  13  30  13  31  13
M  ISO  2  32  13  33  13
M  END
>  <minimizedAffinity>  (1) 
-5.13181877

>  <minimizedRMSD>  (1) 
5.04697514

$$$$
