
     RDKit          3D

 32 34  0  0  0  0  0  0  0  0999 V2000
   46.4550   33.6020   44.9650 F   0  0  0  0  0  0  0  0  0  0  0  0
   47.0390   32.3900   44.7870 C   0  0  0  0  0  0  0  0  0  0  0  0
   47.8860   32.2170   43.7210 C   0  0  0  0  0  0  0  0  0  0  0  0
   48.4690   30.9900   43.5520 C   0  0  0  0  0  0  0  0  0  0  0  0
   48.1910   29.9710   44.4480 C   0  0  0  0  0  0  0  0  0  0  0  0
   47.3460   30.1340   45.5170 C   0  0  0  0  0  0  0  0  0  0  0  0
   46.7620   31.3870   45.6760 C   0  0  0  0  0  0  0  0  0  0  0  0
   49.4440   35.1610   42.1820 C   0  0  0  0  0  0  0  0  0  0  0  0
   48.6000   35.4110   41.0680 C   0  0  0  0  0  0  0  0  0  0  0  0
   47.5050   34.5420   40.8840 C   0  0  0  0  0  0  0  0  0  0  0  0
   47.3260   33.5280   41.7730 N   0  0  0  0  0  0  0  0  0  0  0  0
   48.1420   33.3250   42.8090 C   0  0  0  0  0  0  0  0  0  0  0  0
   49.1970   34.1370   43.0150 N   0  0  0  0  0  0  0  0  0  0  0  0
   45.8910   31.5210   46.7920 N   0  0  0  0  0  0  0  0  0  0  0  0
   45.1290   30.5270   47.5130 C   0  0  0  0  0  0  0  0  0  0  0  0
   45.4880   30.8230   48.9760 C   0  0  0  0  0  0  0  0  0  0  0  0
   45.9190   32.2670   48.9510 C   0  0  0  0  0  0  0  0  0  0  0  0
   45.4950   32.6940   47.5590 C   0  0  0  0  0  0  0  0  0  0  0  0
   49.1542   30.8144   42.7096 H   0  0  0  0  0  0  0  0  0  0  0  0
   48.6670   28.9910   44.2965 H   0  0  0  0  0  0  0  0  0  0  0  0
   47.1396   29.3109   46.2169 H   0  0  0  0  0  0  0  0  0  0  0  0
   50.3103   35.8137   42.3649 H   0  0  0  0  0  0  0  0  0  0  0  0
   48.7920   36.2463   40.3785 H   0  0  0  0  0  0  0  0  0  0  0  0
   46.8117   34.6807   40.0413 H   0  0  0  0  0  0  0  0  0  0  0  0
   44.0501   30.6493   47.3367 H   0  0  0  0  0  0  0  0  0  0  0  0
   45.3575   29.4953   47.2074 H   0  0  0  0  0  0  0  0  0  0  0  0
   44.6144   30.6853   49.6302 H   0  0  0  0  0  0  0  0  0  0  0  0
   46.2659   30.1519   49.3690 H   0  0  0  0  0  0  0  0  0  0  0  0
   45.4011   32.8529   49.7247 H   0  0  0  0  0  0  0  0  0  0  0  0
   46.9895   32.4157   49.1555 H   0  0  0  0  0  0  0  0  0  0  0  0
   46.0319   33.5956   47.2292 H   0  0  0  0  0  0  0  0  0  0  0  0
   44.4335   32.9670   47.4657 H   0  0  0  0  0  0  0  0  0  0  0  0
  2  1  1  0
  2  7  2  0
  3  2  1  0
  4  3  2  0
  4  5  1  0
  5  6  2  0
  6  7  1  0
  7 14  1  0
  8 13  2  0
  9  8  1  0
 10  9  2  0
 10 11  1  0
 11 12  2  0
 12 13  1  0
 12  3  1  0
 14 15  1  0
 14 18  1  0
 15 16  1  0
 17 16  1  0
 18 17  1  0
  4 19  1  0
  5 20  1  0
  6 21  1  0
  8 22  1  0
  9 23  1  0
 10 24  1  0
 15 25  1  0
 15 26  1  0
 16 27  1  0
 16 28  1  0
 17 29  1  0
 17 30  1  0
 18 31  1  0
 18 32  1  0
M  ISO  8  19  14  20  14  21  14  22  14  23  14  24  14  25  13  26  13
M  ISO  6  27  13  28  13  29  13  30  13  31  13  32  13
M  END
>  <minimizedAffinity>  (1) 
-5.00467825

>  <minimizedRMSD>  (1) 
3.5443399

$$$$
