
     RDKit          3D

 35 37  0  0  1  0  0  0  0  0999 V2000
   46.7200   33.4750   44.9060 F   0  0  0  0  0  0  0  0  0  0  0  0
   47.2970   32.2650   44.6400 C   0  0  0  0  0  0  0  0  0  0  0  0
   48.0940   32.1610   43.5250 C   0  0  0  0  0  0  0  0  0  0  0  0
   48.6700   30.9480   43.2640 C   0  0  0  0  0  0  0  0  0  0  0  0
   48.4380   29.8810   44.1130 C   0  0  0  0  0  0  0  0  0  0  0  0
   47.6440   29.9840   45.2260 C   0  0  0  0  0  0  0  0  0  0  0  0
   47.0610   31.2270   45.4840 C   0  0  0  0  0  0  0  0  0  0  0  0
   46.2450   31.2880   46.6470 N   0  0  0  0  0  0  0  0  0  0  0  0
   45.1670   30.4460   47.0940 C   0  0  0  0  0  0  0  0  0  0  0  0
   45.5550   30.1440   48.5510 C   0  0  0  0  0  0  0  0  0  0  0  0
   46.4520   31.2950   48.9230 C   0  0  0  0  0  0  0  0  0  0  0  0
   46.2580   32.2380   47.7550 C   0  0  2  0  0  0  0  0  0  0  0  0
   45.0410   33.0850   47.8430 C   0  0  0  0  0  0  0  0  0  0  0  0
   49.4820   35.2660   42.1550 C   0  0  0  0  0  0  0  0  0  0  0  0
   48.6910   35.4920   41.0120 C   0  0  0  0  0  0  0  0  0  0  0  0
   47.6890   34.5480   40.7520 C   0  0  0  0  0  0  0  0  0  0  0  0
   47.5430   33.4970   41.5940 N   0  0  0  0  0  0  0  0  0  0  0  0
   48.3060   33.3150   42.6610 C   0  0  0  0  0  0  0  0  0  0  0  0
   49.2740   34.1930   42.9460 N   0  0  0  0  0  0  0  0  0  0  0  0
   49.3153   30.8216   42.3822 H   0  0  0  0  0  0  0  0  0  0  0  0
   48.9085   28.9128   43.8866 H   0  0  0  0  0  0  0  0  0  0  0  0
   47.4730   29.1229   45.8888 H   0  0  0  0  0  0  0  0  0  0  0  0
   44.2034   30.9740   47.0415 H   0  0  0  0  0  0  0  0  0  0  0  0
   45.0364   29.5421   46.4809 H   0  0  0  0  0  0  0  0  0  0  0  0
   44.6649   30.1148   49.1967 H   0  0  0  0  0  0  0  0  0  0  0  0
   46.0430   29.1654   48.6699 H   0  0  0  0  0  0  0  0  0  0  0  0
   46.1345   31.7594   49.8682 H   0  0  0  0  0  0  0  0  0  0  0  0
   47.5000   31.0042   49.0880 H   0  0  0  0  0  0  0  0  0  0  0  0
   47.0318   33.0158   47.6757 H   0  0  0  0  0  0  0  0  0  0  0  0
   44.7910   33.2590   48.9000 H   0  0  0  0  0  0  0  0  0  0  0  0
   45.2284   34.0488   47.3471 H   0  0  0  0  0  0  0  0  0  0  0  0
   44.2023   32.5745   47.3471 H   0  0  0  0  0  0  0  0  0  0  0  0
   50.2831   35.9764   42.4072 H   0  0  0  0  0  0  0  0  0  0  0  0
   48.8512   36.3625   40.3588 H   0  0  0  0  0  0  0  0  0  0  0  0
   47.0309   34.6586   39.8775 H   0  0  0  0  0  0  0  0  0  0  0  0
  2  1  1  0
  2  7  2  0
  3  2  1  0
  4  3  2  0
  4  5  1  0
  5  6  2  0
  6  7  1  0
  7  8  1  0
  8  9  1  0
  8 12  1  0
  9 10  1  0
 10 11  1  0
 12 13  1  0
 12 11  1  0
 14 19  2  0
 15 14  1  0
 16 15  2  0
 16 17  1  0
 17 18  2  0
 18 19  1  0
 18  3  1  0
  4 20  1  0
  5 21  1  0
  6 22  1  0
  9 23  1  0
  9 24  1  0
 10 25  1  0
 10 26  1  0
 11 27  1  0
 11 28  1  0
 12 29  1  6
 13 30  1  0
 13 31  1  0
 13 32  1  0
 14 33  1  0
 15 34  1  0
 16 35  1  0
M  ISO  8  20  14  21  14  22  14  23  13  24  13  25  13  26  13  27  13
M  ISO  8  28  13  29  13  30   8  31   8  32   8  33  14  34  14  35  14
M  END
>  <minimizedAffinity>  (1) 
-4.89558554

>  <minimizedRMSD>  (1) 
0.527299583

$$$$
