
     RDKit          3D

 45 48  0  0  1  0  0  0  0  0999 V2000
   48.2700   30.6960   45.9560 F   0  0  0  0  0  0  0  0  0  0  0  0
   47.3780   31.2540   46.8430 C   0  0  0  0  0  0  0  0  0  0  0  0
   47.4750   30.8960   48.1740 C   0  0  0  0  0  0  0  0  0  0  0  0
   46.5870   31.4550   49.0340 C   0  0  0  0  0  0  0  0  0  0  0  0
   45.6290   32.3450   48.5800 C   0  0  0  0  0  0  0  0  0  0  0  0
   45.5340   32.6990   47.2570 C   0  0  0  0  0  0  0  0  0  0  0  0
   46.4460   32.1260   46.3650 C   0  0  0  0  0  0  0  0  0  0  0  0
   46.3160   32.5170   45.0110 N   0  0  0  0  0  0  0  0  0  0  0  0
   45.7440   31.8090   43.8840 C   0  0  0  0  0  0  0  0  0  0  0  0
   44.8090   32.8650   43.2710 C   0  0  0  0  0  0  0  0  0  0  0  0
   45.3820   34.1650   43.7460 C   0  0  0  0  0  0  0  0  0  0  0  0
   46.7100   33.7370   44.3340 C   0  0  2  0  0  0  0  0  0  0  0  0
   47.7920   33.5400   43.3280 C   0  0  0  0  0  0  0  0  0  0  0  0
   49.4610   27.8380   48.4950 C   0  0  0  0  0  0  0  0  0  0  0  0
   50.4470   28.1970   49.4340 C   0  0  0  0  0  0  0  0  0  0  0  0
   50.3810   29.4950   49.9210 C   0  0  0  0  0  0  0  0  0  0  0  0
   49.4080   30.3130   49.4810 N   0  0  0  0  0  0  0  0  0  0  0  0
   48.4960   29.9620   48.6040 C   0  0  0  0  0  0  0  0  0  0  0  0
   48.5100   28.7140   48.0970 N   0  0  0  0  0  0  0  0  0  0  0  0
   50.2110   28.7970   52.5900 F   0  0  0  0  0  0  0  0  0  0  0  0
   51.2360   29.6310   52.2240 C   0  0  0  0  0  0  0  0  0  0  0  0
   51.3410   29.9920   50.8980 C   0  0  0  0  0  0  0  0  0  0  0  0
   52.3960   30.8300   50.6130 C   0  0  0  0  0  0  0  0  0  0  0  0
   53.2840   31.2790   51.5680 C   0  0  0  0  0  0  0  0  0  0  0  0
   53.1270   30.8820   52.8770 C   0  0  0  0  0  0  0  0  0  0  0  0
   52.0900   30.0440   53.2260 C   0  0  0  0  0  0  0  0  0  0  0  0
   46.6287   31.1984   50.1028 H   0  0  0  0  0  0  0  0  0  0  0  0
   44.9224   32.7818   49.3011 H   0  0  0  0  0  0  0  0  0  0  0  0
   44.7677   33.4082   46.9108 H   0  0  0  0  0  0  0  0  0  0  0  0
   46.5224   31.5036   43.1692 H   0  0  0  0  0  0  0  0  0  0  0  0
   45.2309   30.8774   44.1646 H   0  0  0  0  0  0  0  0  0  0  0  0
   43.7787   32.7346   43.6337 H   0  0  0  0  0  0  0  0  0  0  0  0
   44.7525   32.7993   42.1744 H   0  0  0  0  0  0  0  0  0  0  0  0
   45.5238   34.8666   42.9108 H   0  0  0  0  0  0  0  0  0  0  0  0
   44.7354   34.6967   44.4596 H   0  0  0  0  0  0  0  0  0  0  0  0
   47.1725   34.4926   44.9861 H   0  0  0  0  0  0  0  0  0  0  0  0
   48.7468   33.3662   43.8458 H   0  0  0  0  0  0  0  0  0  0  0  0
   47.5530   32.6706   42.6979 H   0  0  0  0  0  0  0  0  0  0  0  0
   47.8747   34.4378   42.6979 H   0  0  0  0  0  0  0  0  0  0  0  0
   49.4641   26.8213   48.0752 H   0  0  0  0  0  0  0  0  0  0  0  0
   51.2236   27.4905   49.7622 H   0  0  0  0  0  0  0  0  0  0  0  0
   52.5374   31.1574   49.5724 H   0  0  0  0  0  0  0  0  0  0  0  0
   54.1103   31.9483   51.2864 H   0  0  0  0  0  0  0  0  0  0  0  0
   53.8306   31.2343   53.6457 H   0  0  0  0  0  0  0  0  0  0  0  0
   51.9482   29.7161   54.2664 H   0  0  0  0  0  0  0  0  0  0  0  0
  1  2  1  0
  2  3  2  0
  3 18  1  0
  3  4  1  0
  5  4  2  0
  6  5  1  0
  7  2  1  0
  7  6  2  0
  8  7  1  0
  9  8  1  0
 10 11  1  0
 10  9  1  0
 11 12  1  0
 12  8  1  0
 13 12  1  0
 14 15  2  0
 15 16  1  0
 16 22  1  0
 17 16  2  0
 18 17  1  0
 19 14  1  0
 19 18  2  0
 21 20  1  0
 21 26  2  0
 22 21  1  0
 23 22  2  0
 23 24  1  0
 24 25  2  0
 25 26  1  0
  4 27  1  0
  5 28  1  0
  6 29  1  0
  9 30  1  0
  9 31  1  0
 10 32  1  0
 10 33  1  0
 11 34  1  0
 11 35  1  0
 12 36  1  1
 13 37  1  0
 13 38  1  0
 13 39  1  0
 14 40  1  0
 15 41  1  0
 23 42  1  0
 24 43  1  0
 25 44  1  0
 26 45  1  0
M  ISO  8  27  14  28  14  29  14  30  13  31  13  32  13  33  13  34  13
M  ISO  8  35  13  36  13  37   8  38   8  39   8  40  14  41  14  42  14
M  ISO  3  43  14  44  14  45  14
M  END
>  <minimizedAffinity>  (1) 
-5.77424765

>  <minimizedRMSD>  (1) 
9.82478714

$$$$
