
     RDKit          3D

 42 45  0  0  1  0  0  0  0  0999 V2000
   46.7950   33.4470   44.5900 F   0  0  0  0  0  0  0  0  0  0  0  0
   47.4490   32.2630   44.3960 C   0  0  0  0  0  0  0  0  0  0  0  0
   48.2590   32.1460   43.2980 C   0  0  0  0  0  0  0  0  0  0  0  0
   48.9140   30.9540   43.1060 C   0  0  0  0  0  0  0  0  0  0  0  0
   48.7380   29.9260   44.0160 C   0  0  0  0  0  0  0  0  0  0  0  0
   47.9310   30.0450   45.1110 C   0  0  0  0  0  0  0  0  0  0  0  0
   47.2700   31.2620   45.2930 C   0  0  0  0  0  0  0  0  0  0  0  0
   46.4420   31.3350   46.4490 N   0  0  0  0  0  0  0  0  0  0  0  0
   45.3890   30.4690   46.9200 C   0  0  0  0  0  0  0  0  0  0  0  0
   45.7940   30.2370   48.3950 C   0  0  0  0  0  0  0  0  0  0  0  0
   46.6310   31.4330   48.7220 C   0  0  0  0  0  0  0  0  0  0  0  0
   46.4160   32.3340   47.5200 C   0  0  2  0  0  0  0  0  0  0  0  0
   45.1720   33.1250   47.5690 C   0  0  0  0  0  0  0  0  0  0  0  0
   49.0630   35.4590   41.9500 C   0  0  0  0  0  0  0  0  0  0  0  0
   48.6860   35.3540   40.5990 C   0  0  0  0  0  0  0  0  0  0  0  0
   48.1640   34.1250   40.2080 C   0  0  0  0  0  0  0  0  0  0  0  0
   48.0410   33.1240   41.0970 N   0  0  0  0  0  0  0  0  0  0  0  0
   48.4090   33.2550   42.3730 C   0  0  0  0  0  0  0  0  0  0  0  0
   48.9200   34.4230   42.8010 N   0  0  0  0  0  0  0  0  0  0  0  0
   47.7520   33.9520   38.8180 C   0  0  0  0  0  0  0  0  0  0  0  0
   48.3860   34.4800   37.7120 C   0  0  0  0  0  0  0  0  0  0  0  0
   47.6450   34.0500   36.6510 N   0  0  0  0  0  0  0  0  0  0  0  0
   46.6060   33.2940   37.0620 C   0  0  0  0  0  0  0  0  0  0  0  0
   46.6820   33.2380   38.4240 N   0  0  0  0  0  0  0  0  0  0  0  0
   49.5731   30.8175   42.2360 H   0  0  0  0  0  0  0  0  0  0  0  0
   49.2686   28.9767   43.8507 H   0  0  0  0  0  0  0  0  0  0  0  0
   47.8063   29.2150   45.8220 H   0  0  0  0  0  0  0  0  0  0  0  0
   44.4069   30.9593   46.8482 H   0  0  0  0  0  0  0  0  0  0  0  0
   45.2865   29.5410   46.3384 H   0  0  0  0  0  0  0  0  0  0  0  0
   44.9065   30.1896   49.0432 H   0  0  0  0  0  0  0  0  0  0  0  0
   46.3275   29.2872   48.5475 H   0  0  0  0  0  0  0  0  0  0  0  0
   46.2851   31.9175   49.6470 H   0  0  0  0  0  0  0  0  0  0  0  0
   47.6888   31.1885   48.8988 H   0  0  0  0  0  0  0  0  0  0  0  0
   47.1597   33.1380   47.4176 H   0  0  0  0  0  0  0  0  0  0  0  0
   44.8918   33.3031   48.6177 H   0  0  0  0  0  0  0  0  0  0  0  0
   45.3301   34.0888   47.0629 H   0  0  0  0  0  0  0  0  0  0  0  0
   44.3663   32.5730   47.0629 H   0  0  0  0  0  0  0  0  0  0  0  0
   49.4832   36.4059   42.3199 H   0  0  0  0  0  0  0  0  0  0  0  0
   48.7970   36.1919   39.8950 H   0  0  0  0  0  0  0  0  0  0  0  0
   49.2887   35.1083   37.6908 H   0  0  0  0  0  0  0  0  0  0  0  0
   47.8512   34.2728   35.6667 H   0  0  0  0  0  0  0  0  0  0  0  0
   45.8469   32.8166   36.4250 H   0  0  0  0  0  0  0  0  0  0  0  0
  2  1  1  0
  2  7  2  0
  3  2  1  0
  4  3  2  0
  4  5  1  0
  5  6  2  0
  6  7  1  0
  7  8  1  0
  8  9  1  0
  8 12  1  0
  9 10  1  0
 10 11  1  0
 12 13  1  0
 12 11  1  0
 14 19  2  0
 15 14  1  0
 16 15  2  0
 16 17  1  0
 17 18  2  0
 18 19  1  0
 18  3  1  0
 20 16  1  0
 21 20  2  0
 22 23  1  0
 22 21  1  0
 23 24  2  0
 24 20  1  0
  4 25  1  0
  5 26  1  0
  6 27  1  0
  9 28  1  0
  9 29  1  0
 10 30  1  0
 10 31  1  0
 11 32  1  0
 11 33  1  0
 12 34  1  6
 13 35  1  0
 13 36  1  0
 13 37  1  0
 14 38  1  0
 15 39  1  0
 21 40  1  0
 22 41  1  0
 23 42  1  0
M  ISO  8  25  14  26  14  27  14  28  13  29  13  30  13  31  13  32  13
M  ISO  8  33  13  34  13  35   8  36   8  37   8  38  14  39  14  40  14
M  ISO  2  41   9  42  14
M  END
>  <minimizedAffinity>  (1) 
-5.93847322

>  <minimizedRMSD>  (1) 
0.945458174

$$$$
