
     RDKit          3D

 42 45  0  0  1  0  0  0  0  0999 V2000
   46.8200   33.4670   44.6030 F   0  0  0  0  0  0  0  0  0  0  0  0
   47.4600   32.2690   44.4030 C   0  0  0  0  0  0  0  0  0  0  0  0
   48.2640   32.1630   43.3010 C   0  0  0  0  0  0  0  0  0  0  0  0
   48.9100   30.9650   43.0920 C   0  0  0  0  0  0  0  0  0  0  0  0
   48.7290   29.9270   43.9860 C   0  0  0  0  0  0  0  0  0  0  0  0
   47.9220   30.0410   45.0880 C   0  0  0  0  0  0  0  0  0  0  0  0
   47.2710   31.2580   45.2920 C   0  0  0  0  0  0  0  0  0  0  0  0
   46.4470   31.3340   46.4430 N   0  0  0  0  0  0  0  0  0  0  0  0
   45.3960   30.4660   46.9190 C   0  0  0  0  0  0  0  0  0  0  0  0
   45.8010   30.2390   48.3940 C   0  0  0  0  0  0  0  0  0  0  0  0
   46.6310   31.4450   48.7220 C   0  0  0  0  0  0  0  0  0  0  0  0
   46.4090   32.3300   47.5150 C   0  0  2  0  0  0  0  0  0  0  0  0
   45.1680   33.1350   47.5670 C   0  0  0  0  0  0  0  0  0  0  0  0
   49.1390   35.4620   41.9700 C   0  0  0  0  0  0  0  0  0  0  0  0
   48.7260   35.3820   40.6190 C   0  0  0  0  0  0  0  0  0  0  0  0
   48.1540   34.1750   40.2240 C   0  0  0  0  0  0  0  0  0  0  0  0
   48.0350   33.1820   41.1300 N   0  0  0  0  0  0  0  0  0  0  0  0
   48.4280   33.2840   42.3800 C   0  0  0  0  0  0  0  0  0  0  0  0
   48.9770   34.4180   42.7970 N   0  0  0  0  0  0  0  0  0  0  0  0
   47.6760   33.9620   38.8220 C   0  0  0  0  0  0  0  0  0  0  0  0
   48.6400   33.0820   37.9710 C   0  0  0  0  0  0  0  0  0  0  0  0
   48.3870   34.5160   37.6630 C   0  0  0  0  0  0  0  0  0  0  0  0
   49.5661   30.8351   42.2187 H   0  0  0  0  0  0  0  0  0  0  0  0
   49.2511   28.9755   43.8069 H   0  0  0  0  0  0  0  0  0  0  0  0
   47.7921   29.2020   45.7874 H   0  0  0  0  0  0  0  0  0  0  0  0
   44.4127   30.9536   46.8461 H   0  0  0  0  0  0  0  0  0  0  0  0
   45.2966   29.5356   46.3407 H   0  0  0  0  0  0  0  0  0  0  0  0
   44.9132   30.1855   49.0412 H   0  0  0  0  0  0  0  0  0  0  0  0
   46.3417   29.2935   48.5479 H   0  0  0  0  0  0  0  0  0  0  0  0
   46.2784   31.9323   49.6430 H   0  0  0  0  0  0  0  0  0  0  0  0
   47.6900   31.2125   48.9078 H   0  0  0  0  0  0  0  0  0  0  0  0
   47.1511   33.1342   47.4030 H   0  0  0  0  0  0  0  0  0  0  0  0
   44.8911   33.3146   48.6163 H   0  0  0  0  0  0  0  0  0  0  0  0
   45.3341   34.0978   47.0617 H   0  0  0  0  0  0  0  0  0  0  0  0
   44.3565   32.5908   47.0617 H   0  0  0  0  0  0  0  0  0  0  0  0
   49.5972   36.3888   42.3457 H   0  0  0  0  0  0  0  0  0  0  0  0
   48.8494   36.2237   39.9216 H   0  0  0  0  0  0  0  0  0  0  0  0
   46.6173   33.9956   39.1187 H   0  0  0  0  0  0  0  0  0  0  0  0
   49.6100   32.7633   38.3802 H   0  0  0  0  0  0  0  0  0  0  0  0
   48.5684   32.1301   37.4244 H   0  0  0  0  0  0  0  0  0  0  0  0
   49.1887   35.2520   37.8229 H   0  0  0  0  0  0  0  0  0  0  0  0
   48.0584   35.0484   36.7582 H   0  0  0  0  0  0  0  0  0  0  0  0
  2  1  1  0
  2  7  2  0
  3  2  1  0
  4  3  2  0
  4  5  1  0
  5  6  2  0
  6  7  1  0
  7  8  1  0
  8  9  1  0
  8 12  1  0
  9 10  1  0
 10 11  1  0
 12 13  1  0
 12 11  1  0
 14 19  2  0
 15 14  1  0
 16 15  2  0
 16 17  1  0
 17 18  2  0
 18 19  1  0
 18  3  1  0
 20 16  1  0
 21 20  1  0
 22 21  1  0
 22 20  1  0
  4 23  1  0
  5 24  1  0
  6 25  1  0
  9 26  1  0
  9 27  1  0
 10 28  1  0
 10 29  1  0
 11 30  1  0
 11 31  1  0
 12 32  1  6
 13 33  1  0
 13 34  1  0
 13 35  1  0
 14 36  1  0
 15 37  1  0
 20 38  1  0
 21 39  1  0
 21 40  1  0
 22 41  1  0
 22 42  1  0
M  ISO  8  23  14  24  14  25  14  26  13  27  13  28  13  29  13  30  13
M  ISO  8  31  13  32  13  33   8  34   8  35   8  36  14  37  14  38  13
M  ISO  4  39  13  40  13  41  13  42  13
M  END
>  <minimizedAffinity>  (1) 
-5.37086773

>  <minimizedRMSD>  (1) 
0.711865544

$$$$
