
     RDKit          3D

 45 48  0  0  1  0  0  0  0  0999 V2000
   47.7380   31.4360   45.0500 F   0  0  0  0  0  0  0  0  0  0  0  0
   47.9640   30.1340   45.4350 C   0  0  0  0  0  0  0  0  0  0  0  0
   48.8790   29.3900   44.7140 C   0  0  0  0  0  0  0  0  0  0  0  0
   49.0860   28.1090   45.1100 C   0  0  0  0  0  0  0  0  0  0  0  0
   48.4000   27.5850   46.1960 C   0  0  0  0  0  0  0  0  0  0  0  0
   47.4960   28.3230   46.9070 C   0  0  0  0  0  0  0  0  0  0  0  0
   47.2840   29.6340   46.5010 C   0  0  0  0  0  0  0  0  0  0  0  0
   46.3310   30.3720   47.2710 N   0  0  0  0  0  0  0  0  0  0  0  0
   44.9740   30.0430   47.6450 C   0  0  0  0  0  0  0  0  0  0  0  0
   44.9620   30.3130   49.1480 C   0  0  0  0  0  0  0  0  0  0  0  0
   46.0810   31.3080   49.3280 C   0  0  0  0  0  0  0  0  0  0  0  0
   46.4320   31.6730   47.9070 C   0  0  2  0  0  0  0  0  0  0  0  0
   45.5300   32.7020   47.3110 C   0  0  0  0  0  0  0  0  0  0  0  0
   51.1530   29.8090   41.8830 C   0  0  0  0  0  0  0  0  0  0  0  0
   50.8800   31.1290   41.4480 C   0  0  0  0  0  0  0  0  0  0  0  0
   49.9090   31.8190   42.1640 C   0  0  0  0  0  0  0  0  0  0  0  0
   49.3060   31.2060   43.1970 N   0  0  0  0  0  0  0  0  0  0  0  0
   49.5700   29.9810   43.5890 C   0  0  0  0  0  0  0  0  0  0  0  0
   50.5010   29.2670   42.9320 N   0  0  0  0  0  0  0  0  0  0  0  0
   47.9760   32.0260   39.9610 Cl  0  0  0  0  0  0  0  0  0  0  0  0
   48.6340   33.4180   40.8020 C   0  0  0  0  0  0  0  0  0  0  0  0
   49.5340   33.1840   41.8200 C   0  0  0  0  0  0  0  0  0  0  0  0
   50.0180   34.3110   42.4450 C   0  0  0  0  0  0  0  0  0  0  0  0
   49.6380   35.5890   42.0910 C   0  0  0  0  0  0  0  0  0  0  0  0
   48.7330   35.7570   41.0630 C   0  0  0  0  0  0  0  0  0  0  0  0
   48.2110   34.6680   40.3960 C   0  0  0  0  0  0  0  0  0  0  0  0
   49.8048   27.4797   44.5647 H   0  0  0  0  0  0  0  0  0  0  0  0
   48.5896   26.5432   46.4940 H   0  0  0  0  0  0  0  0  0  0  0  0
   46.9580   27.8959   47.7662 H   0  0  0  0  0  0  0  0  0  0  0  0
   44.2517   30.6863   47.1212 H   0  0  0  0  0  0  0  0  0  0  0  0
   44.6884   29.0129   47.3854 H   0  0  0  0  0  0  0  0  0  0  0  0
   43.9992   30.7406   49.4643 H   0  0  0  0  0  0  0  0  0  0  0  0
   45.0931   29.4024   49.7510 H   0  0  0  0  0  0  0  0  0  0  0  0
   45.7412   32.1894   49.8916 H   0  0  0  0  0  0  0  0  0  0  0  0
   46.9322   30.9090   49.8992 H   0  0  0  0  0  0  0  0  0  0  0  0
   47.4126   32.1584   47.7939 H   0  0  0  0  0  0  0  0  0  0  0  0
   45.0354   33.2662   48.1154 H   0  0  0  0  0  0  0  0  0  0  0  0
   46.1203   33.3911   46.6892 H   0  0  0  0  0  0  0  0  0  0  0  0
   44.7695   32.2070   46.6892 H   0  0  0  0  0  0  0  0  0  0  0  0
   51.9122   29.2137   41.3546 H   0  0  0  0  0  0  0  0  0  0  0  0
   51.4054   31.5813   40.5940 H   0  0  0  0  0  0  0  0  0  0  0  0
   50.7411   34.1868   43.2645 H   0  0  0  0  0  0  0  0  0  0  0  0
   50.0502   36.4609   42.6202 H   0  0  0  0  0  0  0  0  0  0  0  0
   48.4240   36.7717   40.7717 H   0  0  0  0  0  0  0  0  0  0  0  0
   47.4885   34.7904   39.5756 H   0  0  0  0  0  0  0  0  0  0  0  0
  1  2  1  0
  2  7  2  0
  3  4  2  0
  3  2  1  0
  4  5  1  0
  5  6  2  0
  7  6  1  0
  7  8  1  0
  8  9  1  0
  8 12  1  0
  9 10  1  0
 10 11  1  0
 12 11  1  0
 13 12  1  0
 14 19  2  0
 15 14  1  0
 15 16  2  0
 16 17  1  0
 17 18  2  0
 18  3  1  0
 19 18  1  0
 20 21  1  0
 21 22  2  0
 22 16  1  0
 22 23  1  0
 24 23  2  0
 25 24  1  0
 26 21  1  0
 26 25  2  0
  4 27  1  0
  5 28  1  0
  6 29  1  0
  9 30  1  0
  9 31  1  0
 10 32  1  0
 10 33  1  0
 11 34  1  0
 11 35  1  0
 12 36  1  1
 13 37  1  0
 13 38  1  0
 13 39  1  0
 14 40  1  0
 15 41  1  0
 23 42  1  0
 24 43  1  0
 25 44  1  0
 26 45  1  0
M  ISO  8  27  14  28  14  29  14  30  13  31  13  32  13  33  13  34  13
M  ISO  8  35  13  36  13  37   8  38   8  39   8  40  14  41  14  42  14
M  ISO  3  43  14  44  14  45  14
M  END
>  <minimizedAffinity>  (1) 
-5.72178078

>  <minimizedRMSD>  (1) 
3.55065894

$$$$
