
     RDKit          3D

 38 40  0  0  1  0  0  0  0  0999 V2000
   46.8400   33.4900   44.6240 F   0  0  0  0  0  0  0  0  0  0  0  0
   47.4650   32.2930   44.3970 C   0  0  0  0  0  0  0  0  0  0  0  0
   48.2740   32.1950   43.2900 C   0  0  0  0  0  0  0  0  0  0  0  0
   48.8980   31.0040   43.0650 C   0  0  0  0  0  0  0  0  0  0  0  0
   48.6980   29.9430   43.9460 C   0  0  0  0  0  0  0  0  0  0  0  0
   47.8870   30.0460   45.0500 C   0  0  0  0  0  0  0  0  0  0  0  0
   47.2540   31.2850   45.2660 C   0  0  0  0  0  0  0  0  0  0  0  0
   46.4340   31.3230   46.4210 N   0  0  0  0  0  0  0  0  0  0  0  0
   45.4030   30.4640   46.9090 C   0  0  0  0  0  0  0  0  0  0  0  0
   45.7990   30.2330   48.3760 C   0  0  0  0  0  0  0  0  0  0  0  0
   46.6550   31.4170   48.7060 C   0  0  0  0  0  0  0  0  0  0  0  0
   46.4090   32.3140   47.5050 C   0  0  2  0  0  0  0  0  0  0  0  0
   45.1780   33.1200   47.5750 C   0  0  0  0  0  0  0  0  0  0  0  0
   49.0460   35.5590   42.0700 C   0  0  0  0  0  0  0  0  0  0  0  0
   48.7670   35.4650   40.6830 C   0  0  0  0  0  0  0  0  0  0  0  0
   48.3190   34.2290   40.2200 C   0  0  0  0  0  0  0  0  0  0  0  0
   48.1770   33.2090   41.1010 N   0  0  0  0  0  0  0  0  0  0  0  0
   48.4500   33.3330   42.4010 C   0  0  0  0  0  0  0  0  0  0  0  0
   48.8810   34.5000   42.8830 N   0  0  0  0  0  0  0  0  0  0  0  0
   47.9780   33.9350   38.8160 C   0  0  0  0  0  0  0  0  0  0  0  0
   48.7120   32.7900   38.4800 F   0  0  0  0  0  0  0  0  0  0  0  0
   48.4530   34.9760   38.0450 F   0  0  0  0  0  0  0  0  0  0  0  0
   46.6480   33.7650   38.5890 F   0  0  0  0  0  0  0  0  0  0  0  0
   49.5562   30.8811   42.1922 H   0  0  0  0  0  0  0  0  0  0  0  0
   49.2081   28.9883   43.7503 H   0  0  0  0  0  0  0  0  0  0  0  0
   47.7387   29.1981   45.7349 H   0  0  0  0  0  0  0  0  0  0  0  0
   44.4189   30.9503   46.8385 H   0  0  0  0  0  0  0  0  0  0  0  0
   45.3141   29.5297   46.3352 H   0  0  0  0  0  0  0  0  0  0  0  0
   44.9090   30.2008   49.0217 H   0  0  0  0  0  0  0  0  0  0  0  0
   46.3189   29.2760   48.5305 H   0  0  0  0  0  0  0  0  0  0  0  0
   46.3311   31.8989   49.6403 H   0  0  0  0  0  0  0  0  0  0  0  0
   47.7143   31.1716   48.8725 H   0  0  0  0  0  0  0  0  0  0  0  0
   47.1475   33.1214   47.3923 H   0  0  0  0  0  0  0  0  0  0  0  0
   44.9128   33.2936   48.6283 H   0  0  0  0  0  0  0  0  0  0  0  0
   45.3430   34.0855   47.0745 H   0  0  0  0  0  0  0  0  0  0  0  0
   44.3590   32.5827   47.0745 H   0  0  0  0  0  0  0  0  0  0  0  0
   49.4027   36.5121   42.4875 H   0  0  0  0  0  0  0  0  0  0  0  0
   48.8974   36.3232   40.0073 H   0  0  0  0  0  0  0  0  0  0  0  0
  2  1  1  0
  2  7  2  0
  3  2  1  0
  4  3  2  0
  4  5  1  0
  5  6  2  0
  6  7  1  0
  7  8  1  0
  8  9  1  0
  8 12  1  0
  9 10  1  0
 10 11  1  0
 12 13  1  0
 12 11  1  0
 14 19  2  0
 15 14  1  0
 16 15  2  0
 16 17  1  0
 17 18  2  0
 18 19  1  0
 18  3  1  0
 20 16  1  0
 21 20  1  0
 22 20  1  0
 23 20  1  0
  4 24  1  0
  5 25  1  0
  6 26  1  0
  9 27  1  0
  9 28  1  0
 10 29  1  0
 10 30  1  0
 11 31  1  0
 11 32  1  0
 12 33  1  6
 13 34  1  0
 13 35  1  0
 13 36  1  0
 14 37  1  0
 15 38  1  0
M  ISO  8  24  14  25  14  26  14  27  13  28  13  29  13  30  13  31  13
M  ISO  7  32  13  33  13  34   8  35   8  36   8  37  14  38  14
M  END
>  <minimizedAffinity>  (1) 
-5.40642929

>  <minimizedRMSD>  (1) 
0.92413342

$$$$
