
     RDKit          3D

 37 39  0  0  1  0  0  0  0  0999 V2000
   46.8080   33.4580   44.6180 F   0  0  0  0  0  0  0  0  0  0  0  0
   47.4550   32.2640   44.4070 C   0  0  0  0  0  0  0  0  0  0  0  0
   48.2580   32.1590   43.3060 C   0  0  0  0  0  0  0  0  0  0  0  0
   48.9040   30.9600   43.1010 C   0  0  0  0  0  0  0  0  0  0  0  0
   48.7190   29.9240   43.9980 C   0  0  0  0  0  0  0  0  0  0  0  0
   47.9130   30.0380   45.0980 C   0  0  0  0  0  0  0  0  0  0  0  0
   47.2590   31.2630   45.2990 C   0  0  0  0  0  0  0  0  0  0  0  0
   46.4340   31.3280   46.4540 N   0  0  0  0  0  0  0  0  0  0  0  0
   45.3810   30.4630   46.9100 C   0  0  0  0  0  0  0  0  0  0  0  0
   45.7460   30.2350   48.3840 C   0  0  0  0  0  0  0  0  0  0  0  0
   46.6290   31.3990   48.7220 C   0  0  0  0  0  0  0  0  0  0  0  0
   46.4130   32.3040   47.5270 C   0  0  2  0  0  0  0  0  0  0  0  0
   45.1680   33.1200   47.5800 C   0  0  0  0  0  0  0  0  0  0  0  0
   49.1260   35.4520   41.9730 C   0  0  0  0  0  0  0  0  0  0  0  0
   48.7220   35.3860   40.6330 C   0  0  0  0  0  0  0  0  0  0  0  0
   48.1550   34.1790   40.2390 C   0  0  0  0  0  0  0  0  0  0  0  0
   48.0300   33.1740   41.1400 N   0  0  0  0  0  0  0  0  0  0  0  0
   48.4210   33.2750   42.3930 C   0  0  0  0  0  0  0  0  0  0  0  0
   48.9760   34.4130   42.8330 N   0  0  0  0  0  0  0  0  0  0  0  0
   47.7030   34.0100   38.8620 C   0  0  0  0  0  0  0  0  0  0  0  0
   48.3140   34.5750   37.9250 O   0  0  0  0  0  0  0  0  0  0  0  0
   49.5625   30.8275   42.2299 H   0  0  0  0  0  0  0  0  0  0  0  0
   49.2398   28.9715   43.8205 H   0  0  0  0  0  0  0  0  0  0  0  0
   47.7826   29.2002   45.7988 H   0  0  0  0  0  0  0  0  0  0  0  0
   44.3990   30.9495   46.8152 H   0  0  0  0  0  0  0  0  0  0  0  0
   45.3001   29.5311   46.3311 H   0  0  0  0  0  0  0  0  0  0  0  0
   44.8445   30.2318   49.0143 H   0  0  0  0  0  0  0  0  0  0  0  0
   46.2384   29.2661   48.5538 H   0  0  0  0  0  0  0  0  0  0  0  0
   46.3115   31.8854   49.6562 H   0  0  0  0  0  0  0  0  0  0  0  0
   47.6812   31.1272   48.8924 H   0  0  0  0  0  0  0  0  0  0  0  0
   47.1634   33.1028   47.4331 H   0  0  0  0  0  0  0  0  0  0  0  0
   44.8924   33.3006   48.6295 H   0  0  0  0  0  0  0  0  0  0  0  0
   45.3384   34.0822   47.0748 H   0  0  0  0  0  0  0  0  0  0  0  0
   44.3538   32.5798   47.0748 H   0  0  0  0  0  0  0  0  0  0  0  0
   49.5825   36.3822   42.3423 H   0  0  0  0  0  0  0  0  0  0  0  0
   48.8450   36.2313   39.9400 H   0  0  0  0  0  0  0  0  0  0  0  0
   46.8239   33.3852   38.6458 H   0  0  0  0  0  0  0  0  0  0  0  0
  2  1  1  0
  2  7  2  0
  3  2  1  0
  4  3  2  0
  4  5  1  0
  5  6  2  0
  6  7  1  0
  7  8  1  0
  8  9  1  0
  8 12  1  0
  9 10  1  0
 10 11  1  0
 12 13  1  0
 12 11  1  0
 14 19  2  0
 15 14  1  0
 16 15  2  0
 16 17  1  0
 17 18  2  0
 18 19  1  0
 18  3  1  0
 20 16  1  0
 21 20  2  0
  4 22  1  0
  5 23  1  0
  6 24  1  0
  9 25  1  0
  9 26  1  0
 10 27  1  0
 10 28  1  0
 11 29  1  0
 11 30  1  0
 12 31  1  6
 13 32  1  0
 13 33  1  0
 13 34  1  0
 14 35  1  0
 15 36  1  0
 20 37  1  0
M  ISO  8  22  14  23  14  24  14  25  13  26  13  27  13  28  13  29  13
M  ISO  8  30  13  31  13  32   8  33   8  34   8  35  14  36  14  37   6
M  END
>  <minimizedAffinity>  (1) 
-5.0183754

>  <minimizedRMSD>  (1) 
0.533514321

$$$$
