
     RDKit          3D

 41 43  0  0  1  0  0  0  0  0999 V2000
   46.7120   33.3520   44.6720 F   0  0  0  0  0  0  0  0  0  0  0  0
   47.3800   32.1760   44.4940 C   0  0  0  0  0  0  0  0  0  0  0  0
   48.2060   32.0560   43.4030 C   0  0  0  0  0  0  0  0  0  0  0  0
   48.8750   30.8750   43.2270 C   0  0  0  0  0  0  0  0  0  0  0  0
   48.7070   29.8490   44.1340 C   0  0  0  0  0  0  0  0  0  0  0  0
   47.8840   29.9610   45.2250 C   0  0  0  0  0  0  0  0  0  0  0  0
   47.2040   31.1800   45.3930 C   0  0  0  0  0  0  0  0  0  0  0  0
   46.3610   31.2420   46.5450 N   0  0  0  0  0  0  0  0  0  0  0  0
   45.2880   30.3950   46.9750 C   0  0  0  0  0  0  0  0  0  0  0  0
   45.6430   30.1280   48.4510 C   0  0  0  0  0  0  0  0  0  0  0  0
   46.5370   31.2900   48.8180 C   0  0  0  0  0  0  0  0  0  0  0  0
   46.3500   32.2020   47.6290 C   0  0  2  0  0  0  0  0  0  0  0  0
   45.1340   33.0550   47.6900 C   0  0  0  0  0  0  0  0  0  0  0  0
   49.1230   35.3290   42.0140 C   0  0  0  0  0  0  0  0  0  0  0  0
   48.6170   35.2590   40.6920 C   0  0  0  0  0  0  0  0  0  0  0  0
   47.9780   34.0770   40.3330 C   0  0  0  0  0  0  0  0  0  0  0  0
   47.8770   33.0840   41.2470 N   0  0  0  0  0  0  0  0  0  0  0  0
   48.3520   33.1680   42.4720 C   0  0  0  0  0  0  0  0  0  0  0  0
   48.9770   34.2920   42.8590 N   0  0  0  0  0  0  0  0  0  0  0  0
   47.4030   33.8660   38.9880 C   0  0  0  0  0  0  0  0  0  0  0  0
   48.3690   34.4370   37.9740 C   0  0  0  0  0  0  0  0  0  0  0  0
   49.5450   30.7442   42.3645 H   0  0  0  0  0  0  0  0  0  0  0  0
   49.2530   28.9072   43.9762 H   0  0  0  0  0  0  0  0  0  0  0  0
   47.7611   29.1326   45.9382 H   0  0  0  0  0  0  0  0  0  0  0  0
   44.3181   30.9062   46.8858 H   0  0  0  0  0  0  0  0  0  0  0  0
   45.1869   29.4779   46.3760 H   0  0  0  0  0  0  0  0  0  0  0  0
   44.7382   30.1159   49.0765 H   0  0  0  0  0  0  0  0  0  0  0  0
   46.1266   29.1520   48.6042 H   0  0  0  0  0  0  0  0  0  0  0  0
   46.2068   31.7722   49.7499 H   0  0  0  0  0  0  0  0  0  0  0  0
   47.5835   31.0083   49.0065 H   0  0  0  0  0  0  0  0  0  0  0  0
   47.1215   32.9809   47.5393 H   0  0  0  0  0  0  0  0  0  0  0  0
   44.8689   33.2409   48.7413 H   0  0  0  0  0  0  0  0  0  0  0  0
   45.3324   34.0129   47.1869 H   0  0  0  0  0  0  0  0  0  0  0  0
   44.3009   32.5423   47.1869 H   0  0  0  0  0  0  0  0  0  0  0  0
   49.6397   36.2392   42.3524 H   0  0  0  0  0  0  0  0  0  0  0  0
   48.7241   36.0961   39.9865 H   0  0  0  0  0  0  0  0  0  0  0  0
   47.2630   32.7902   38.8061 H   0  0  0  0  0  0  0  0  0  0  0  0
   46.4250   34.3631   38.9074 H   0  0  0  0  0  0  0  0  0  0  0  0
   49.2018   34.9292   38.4976 H   0  0  0  0  0  0  0  0  0  0  0  0
   48.7609   33.6254   37.3434 H   0  0  0  0  0  0  0  0  0  0  0  0
   47.8469   35.1717   37.3434 H   0  0  0  0  0  0  0  0  0  0  0  0
  2  1  1  0
  2  7  2  0
  3  2  1  0
  4  3  2  0
  4  5  1  0
  5  6  2  0
  6  7  1  0
  7  8  1  0
  8  9  1  0
  8 12  1  0
  9 10  1  0
 10 11  1  0
 12 13  1  0
 12 11  1  0
 14 19  2  0
 15 14  1  0
 16 15  2  0
 16 17  1  0
 17 18  2  0
 18 19  1  0
 18  3  1  0
 20 16  1  0
 21 20  1  0
  4 22  1  0
  5 23  1  0
  6 24  1  0
  9 25  1  0
  9 26  1  0
 10 27  1  0
 10 28  1  0
 11 29  1  0
 11 30  1  0
 12 31  1  6
 13 32  1  0
 13 33  1  0
 13 34  1  0
 14 35  1  0
 15 36  1  0
 20 37  1  0
 20 38  1  0
 21 39  1  0
 21 40  1  0
 21 41  1  0
M  ISO  8  22  14  23  14  24  14  25  13  26  13  27  13  28  13  29  13
M  ISO  8  30  13  31  13  32   8  33   8  34   8  35  14  36  14  37   8
M  ISO  4  38   8  39   8  40   8  41   8
M  END
>  <minimizedAffinity>  (1) 
-5.11942673

>  <minimizedRMSD>  (1) 
0.535139084

$$$$
