
     RDKit          3D

 26 27  0  0  0  0  0  0  0  0999 V2000
   46.9430   32.4060   48.2900 O   0  0  0  0  0  0  0  0  0  0  0  0
   45.9010   32.6180   47.1900 P   0  0  1  0  0  0  0  0  0  0  0  0
   44.5960   33.5340   47.7360 O   0  0  0  0  0  0  0  0  0  0  0  0
   46.6850   33.3880   45.9150 O   0  0  0  0  0  0  0  0  0  0  0  0
   44.4240   35.7330   44.4790 C   0  0  0  0  0  0  0  0  0  0  0  0
   44.8310   35.8530   43.1480 C   0  0  0  0  0  0  0  0  0  0  0  0
   45.9430   35.0720   42.7560 C   0  0  0  0  0  0  0  0  0  0  0  0
   46.5250   34.2780   43.6830 N   0  0  0  0  0  0  0  0  0  0  0  0
   46.0920   34.2000   44.9580 C   0  0  0  0  0  0  0  0  0  0  0  0
   45.0450   34.9220   45.3640 N   0  0  0  0  0  0  0  0  0  0  0  0
   45.3180   31.0890   46.7680 O   0  0  0  0  0  0  0  0  0  0  0  0
   48.1010   28.7520   46.1500 N   0  0  0  0  0  0  0  0  0  0  0  0
   47.3370   29.8450   46.0050 C   0  0  0  0  0  0  0  0  0  0  0  0
   46.2140   30.0260   46.7860 C   0  0  0  0  0  0  0  0  0  0  0  0
   45.8980   29.0450   47.7280 C   0  0  0  0  0  0  0  0  0  0  0  0
   44.9070   29.0500   48.5270 O   0  0  0  0  0  0  0  0  0  0  0  0
   46.6650   27.9560   47.8690 N   0  0  0  0  0  0  0  0  0  0  0  0
   47.7510   27.8230   47.0830 C   0  0  0  0  0  0  0  0  0  0  0  0
   48.5560   26.8370   47.1210 O   0  0  0  0  0  0  0  0  0  0  0  0
   44.5880   33.5396   48.7260 H   0  0  0  0  0  0  0  0  0  0  0  0
   43.5615   36.3237   44.8213 H   0  0  0  0  0  0  0  0  0  0  0  0
   44.3139   36.5197   42.4422 H   0  0  0  0  0  0  0  0  0  0  0  0
   46.3242   35.1094   41.7248 H   0  0  0  0  0  0  0  0  0  0  0  0
   48.9384   28.6173   45.5656 H   0  0  0  0  0  0  0  0  0  0  0  0
   47.6083   30.6041   45.2565 H   0  0  0  0  0  0  0  0  0  0  0  0
   46.4291   27.2342   48.5649 H   0  0  0  0  0  0  0  0  0  0  0  0
  2  3  1  0
  2  1  2  0
  4  2  1  0
  5 10  2  0
  6  5  1  0
  7  6  2  0
  7  8  1  0
  8  9  2  0
  9 10  1  0
  9  4  1  0
 11 14  1  0
 11  2  1  0
 12 18  1  0
 13 12  1  0
 13 14  2  0
 14 15  1  0
 15 17  1  0
 15 16  2  0
 18 19  2  0
 18 17  1  0
  3 20  1  0
  5 21  1  0
  6 22  1  0
  7 23  1  0
 12 24  1  0
 13 25  1  0
 17 26  1  0
M  ISO  7  20   3  21  14  22  14  23  14  24   9  25  14  26   9
M  END
>  <minimizedAffinity>  (1) 
-4.74335289

>  <minimizedRMSD>  (1) 
1.92380416

$$$$
