
     RDKit          3D

 45 48  0  0  1  0  0  0  0  0999 V2000
   47.1140   34.0630   42.4720 C   0  0  2  0  0  0  0  0  0  0  0  0
   48.5130   34.5360   42.6530 C   0  0  0  0  0  0  0  0  0  0  0  0
   48.9260   35.5610   41.6610 C   0  0  0  0  0  0  0  0  0  0  0  0
   48.7360   35.0810   40.2410 C   0  0  0  0  0  0  0  0  0  0  0  0
   47.4270   34.3760   40.0130 C   0  0  0  0  0  0  0  0  0  0  0  0
   46.4850   34.4800   41.1780 C   0  0  1  0  0  0  0  0  0  0  0  0
   46.2300   34.4670   43.5850 C   0  0  0  0  0  0  0  0  0  0  0  0
   45.5270   35.6540   43.3680 C   0  0  0  0  0  0  0  0  0  0  0  0
   44.6510   36.1430   44.3470 C   0  0  0  0  0  0  0  0  0  0  0  0
   44.5530   35.3760   45.5010 N   0  0  0  0  0  0  0  0  0  0  0  0
   45.2510   34.2340   45.6760 C   0  0  0  0  0  0  0  0  0  0  0  0
   46.0860   33.7890   44.7110 N   0  0  0  0  0  0  0  0  0  0  0  0
   45.3250   33.5530   40.9090 C   0  0  2  0  0  0  0  0  0  0  0  0
   45.0400   33.1730   39.4700 C   0  0  0  0  0  0  0  0  0  0  0  0
   44.0940   34.0040   40.2520 C   0  0  1  0  0  0  0  0  0  0  0  0
   41.7880   33.7800   41.3680 C   0  0  0  0  0  0  0  0  0  0  0  0
   42.7690   33.4310   40.4640 C   0  0  0  0  0  0  0  0  0  0  0  0
   42.3970   32.3800   39.6440 C   0  0  0  0  0  0  0  0  0  0  0  0
   41.1740   31.7480   39.7200 C   0  0  0  0  0  0  0  0  0  0  0  0
   40.2360   32.1530   40.6540 C   0  0  0  0  0  0  0  0  0  0  0  0
   40.5660   33.1870   41.4820 C   0  0  0  0  0  0  0  0  0  0  0  0
   42.0930   34.8260   42.2250 O   0  0  0  0  0  0  0  0  0  0  0  0
   39.6650   33.6510   42.4530 O   0  0  0  0  0  0  0  0  0  0  0  0
   47.2121   32.9675   42.4581 H   0  0  0  0  0  0  0  0  0  0  0  0
   48.6064   34.9688   43.6600 H   0  0  0  0  0  0  0  0  0  0  0  0
   49.1695   33.6651   42.5100 H   0  0  0  0  0  0  0  0  0  0  0  0
   48.3216   36.4673   41.8137 H   0  0  0  0  0  0  0  0  0  0  0  0
   49.9961   35.7676   41.8103 H   0  0  0  0  0  0  0  0  0  0  0  0
   48.7833   35.9517   39.5705 H   0  0  0  0  0  0  0  0  0  0  0  0
   49.5343   34.3521   40.0377 H   0  0  0  0  0  0  0  0  0  0  0  0
   46.9413   34.8184   39.1308 H   0  0  0  0  0  0  0  0  0  0  0  0
   47.6524   33.3088   39.8708 H   0  0  0  0  0  0  0  0  0  0  0  0
   46.1804   35.5324   41.2766 H   0  0  0  0  0  0  0  0  0  0  0  0
   45.6610   36.2067   42.4264 H   0  0  0  0  0  0  0  0  0  0  0  0
   44.0790   37.0726   44.2105 H   0  0  0  0  0  0  0  0  0  0  0  0
   45.1396   33.6624   46.6092 H   0  0  0  0  0  0  0  0  0  0  0  0
   45.5261   33.0316   41.8565 H   0  0  0  0  0  0  0  0  0  0  0  0
   44.7827   32.1352   39.2117 H   0  0  0  0  0  0  0  0  0  0  0  0
   45.5683   33.2750   38.5106 H   0  0  0  0  0  0  0  0  0  0  0  0
   43.6417   35.0053   40.1998 H   0  0  0  0  0  0  0  0  0  0  0  0
   43.1170   32.0295   38.8898 H   0  0  0  0  0  0  0  0  0  0  0  0
   40.9427   30.9185   39.0356 H   0  0  0  0  0  0  0  0  0  0  0  0
   39.2565   31.6577   40.7267 H   0  0  0  0  0  0  0  0  0  0  0  0
   42.9733   35.2750   42.1644 H   0  0  0  0  0  0  0  0  0  0  0  0
   38.7747   33.2278   42.5447 H   0  0  0  0  0  0  0  0  0  0  0  0
  1  2  1  0
  1  7  1  0
  3  2  1  0
  4  3  1  0
  5  4  1  0
  5  6  1  0
  6  1  1  0
  7 12  1  0
  8  7  2  0
  8  9  1  0
  9 10  2  0
 10 11  1  0
 12 11  2  0
 13  6  1  0
 14 15  1  0
 14 13  1  0
 15 17  1  0
 15 13  1  0
 16 21  2  0
 16 22  1  0
 17 16  1  0
 18 19  1  0
 18 17  2  0
 19 20  2  0
 20 21  1  0
 21 23  1  0
  1 24  1  6
  2 25  1  0
  2 26  1  0
  3 27  1  0
  3 28  1  0
  4 29  1  0
  4 30  1  0
  5 31  1  0
  5 32  1  0
  6 33  1  1
  8 34  1  0
  9 35  1  0
 11 36  1  0
 13 37  1  1
 14 38  1  0
 14 39  1  0
 15 40  1  6
 18 41  1  0
 19 42  1  0
 20 43  1  0
 22 44  1  0
 23 45  1  0
M  ISO  8  24  13  25  13  26  13  27  13  28  13  29  13  30  13  31  13
M  ISO  8  32  13  33  13  34  14  35  14  36  14  37  13  38  13  39  13
M  ISO  6  40  13  41  14  42  14  43  14  44   3  45   3
M  END
>  <minimizedAffinity>  (1) 
-7.07997036

>  <minimizedRMSD>  (1) 
2.1573348

$$$$
