
     RDKit          3D

 23 24  0  0  0  0  0  0  0  0999 V2000
   47.2600   32.3230   47.9200 O   0  0  0  0  0  0  0  0  0  0  0  0
   46.1360   32.5430   46.8980 P   0  0  1  0  0  0  0  0  0  0  0  0
   44.8560   33.3880   47.5640 O   0  0  0  0  0  0  0  0  0  0  0  0
   46.8230   33.3910   45.6090 O   0  0  0  0  0  0  0  0  0  0  0  0
   44.4000   35.6940   44.4020 C   0  0  0  0  0  0  0  0  0  0  0  0
   44.7460   35.8910   43.0420 C   0  0  0  0  0  0  0  0  0  0  0  0
   45.8570   35.1830   42.5840 C   0  0  0  0  0  0  0  0  0  0  0  0
   46.5260   34.3720   43.4280 N   0  0  0  0  0  0  0  0  0  0  0  0
   46.1530   34.2180   44.7210 C   0  0  0  0  0  0  0  0  0  0  0  0
   45.0990   34.8740   45.1990 N   0  0  0  0  0  0  0  0  0  0  0  0
   45.6080   31.0160   46.4220 O   0  0  0  0  0  0  0  0  0  0  0  0
   45.3350   30.0080   47.3350 C   0  0  0  0  0  0  0  0  0  0  0  0
   45.0660   29.8460   48.6660 C   0  0  0  0  0  0  0  0  0  0  0  0
   44.8840   28.5560   48.9580 N   0  0  0  0  0  0  0  0  0  0  0  0
   45.0380   27.8930   47.8060 C   0  0  0  0  0  0  0  0  0  0  0  0
   45.3160   28.7590   46.7880 N   0  0  0  0  0  0  0  0  0  0  0  0
   44.9136   33.3499   48.5516 H   0  0  0  0  0  0  0  0  0  0  0  0
   43.5327   36.2296   44.8155 H   0  0  0  0  0  0  0  0  0  0  0  0
   44.1723   36.5626   42.3863 H   0  0  0  0  0  0  0  0  0  0  0  0
   46.1857   35.2858   41.5393 H   0  0  0  0  0  0  0  0  0  0  0  0
   45.0076   30.6665   49.3963 H   0  0  0  0  0  0  0  0  0  0  0  0
   44.6690   28.1534   49.8814 H   0  0  0  0  0  0  0  0  0  0  0  0
   44.9525   26.8020   47.6947 H   0  0  0  0  0  0  0  0  0  0  0  0
  2  3  1  0
  2  1  2  0
  4  2  1  0
  5 10  2  0
  6  5  1  0
  7  6  2  0
  7  8  1  0
  8  9  2  0
  9 10  1  0
  9  4  1  0
 11  2  1  0
 11 12  1  0
 12 13  2  0
 13 14  1  0
 15 14  1  0
 16 12  1  0
 16 15  2  0
  3 17  1  0
  5 18  1  0
  6 19  1  0
  7 20  1  0
 13 21  1  0
 14 22  1  0
 15 23  1  0
M  ISO  7  17   3  18  14  19  14  20  14  21  14  22   9  23  14
M  END
>  <minimizedAffinity>  (1) 
-4.58222055

>  <minimizedRMSD>  (1) 
0.47030893

$$$$
