
     RDKit          3D

 26 27  0  0  0  0  0  0  0  0999 V2000
   46.8540   32.2360   48.4100 O   0  0  0  0  0  0  0  0  0  0  0  0
   45.8270   32.5160   47.3130 P   0  0  1  0  0  0  0  0  0  0  0  0
   44.5420   33.4440   47.8670 O   0  0  0  0  0  0  0  0  0  0  0  0
   46.6360   33.2780   46.0640 O   0  0  0  0  0  0  0  0  0  0  0  0
   44.4590   35.6710   44.5920 C   0  0  0  0  0  0  0  0  0  0  0  0
   44.8950   35.7820   43.2600 C   0  0  0  0  0  0  0  0  0  0  0  0
   45.9820   34.9860   42.9000 C   0  0  0  0  0  0  0  0  0  0  0  0
   46.5500   34.1690   43.8120 N   0  0  0  0  0  0  0  0  0  0  0  0
   46.0940   34.0950   45.0880 C   0  0  0  0  0  0  0  0  0  0  0  0
   45.0520   34.8410   45.4830 N   0  0  0  0  0  0  0  0  0  0  0  0
   45.2240   30.9920   46.8440 O   0  0  0  0  0  0  0  0  0  0  0  0
   44.9110   28.7250   48.4680 F   0  0  0  0  0  0  0  0  0  0  0  0
   45.8930   28.6960   47.5540 C   0  0  0  0  0  0  0  0  0  0  0  0
   45.9850   29.8510   46.7900 C   0  0  0  0  0  0  0  0  0  0  0  0
   46.9810   29.9080   45.8100 C   0  0  0  0  0  0  0  0  0  0  0  0
   47.8600   28.8510   45.5950 C   0  0  0  0  0  0  0  0  0  0  0  0
   47.7540   27.7090   46.3630 C   0  0  0  0  0  0  0  0  0  0  0  0
   46.7740   27.6510   47.3290 C   0  0  0  0  0  0  0  0  0  0  0  0
   44.5391   33.4461   48.8570 H   0  0  0  0  0  0  0  0  0  0  0  0
   43.6051   36.2805   44.9226 H   0  0  0  0  0  0  0  0  0  0  0  0
   44.4066   36.4581   42.5428 H   0  0  0  0  0  0  0  0  0  0  0  0
   46.3761   35.0239   41.8737 H   0  0  0  0  0  0  0  0  0  0  0  0
   47.0721   30.8135   45.1920 H   0  0  0  0  0  0  0  0  0  0  0  0
   48.6347   28.9250   44.8176 H   0  0  0  0  0  0  0  0  0  0  0  0
   48.4385   26.8622   46.2067 H   0  0  0  0  0  0  0  0  0  0  0  0
   46.6879   26.7428   47.9436 H   0  0  0  0  0  0  0  0  0  0  0  0
  2  3  1  0
  2  1  2  0
  4  2  1  0
  5 10  2  0
  6  5  1  0
  7  6  2  0
  7  8  1  0
  8  9  2  0
  9 10  1  0
  9  4  1  0
 11  2  1  0
 13 12  1  0
 14 11  1  0
 14 13  2  0
 15 14  1  0
 16 15  2  0
 16 17  1  0
 17 18  2  0
 18 13  1  0
  3 19  1  0
  5 20  1  0
  6 21  1  0
  7 22  1  0
 15 23  1  0
 16 24  1  0
 17 25  1  0
 18 26  1  0
M  ISO  8  19   3  20  14  21  14  22  14  23  14  24  14  25  14  26  14
M  END
>  <minimizedAffinity>  (1) 
-4.60683489

>  <minimizedRMSD>  (1) 
2.5221777

$$$$
