
     RDKit          3D

 18 18  0  0  0  0  0  0  0  0999 V2000
   44.5050   35.7300   44.7490 C   0  0  0  0  0  0  0  0  0  0  0  0
   44.9280   35.9950   43.4250 C   0  0  0  0  0  0  0  0  0  0  0  0
   45.9600   35.2030   42.9150 C   0  0  0  0  0  0  0  0  0  0  0  0
   46.4870   34.2430   43.7000 N   0  0  0  0  0  0  0  0  0  0  0  0
   46.0670   34.0100   44.9580 C   0  0  0  0  0  0  0  0  0  0  0  0
   45.0770   34.7540   45.4790 N   0  0  0  0  0  0  0  0  0  0  0  0
   46.5950   33.0250   45.7900 O   0  0  0  0  0  0  0  0  0  0  0  0
   47.0570   32.4270   48.2600 O   0  0  0  0  0  0  0  0  0  0  0  0
   45.9430   32.4820   47.2360 P   0  0  1  0  0  0  0  0  0  0  0  0
   44.6690   33.4570   47.7520 O   0  0  0  0  0  0  0  0  0  0  0  0
   45.3610   30.8850   47.1000 O   0  0  0  0  0  0  0  0  0  0  0  0
   45.1330   30.1980   48.3090 C   0  0  0  0  0  0  0  0  0  0  0  0
   45.0580   28.9480   48.2050 O   0  0  0  0  0  0  0  0  0  0  0  0
   43.6957   36.3312   45.1890 H   0  0  0  0  0  0  0  0  0  0  0  0
   44.4643   36.7904   42.8230 H   0  0  0  0  0  0  0  0  0  0  0  0
   46.3348   35.3601   41.8928 H   0  0  0  0  0  0  0  0  0  0  0  0
   44.6465   33.4742   48.7416 H   0  0  0  0  0  0  0  0  0  0  0  0
   45.0284   30.7177   49.2728 H   0  0  0  0  0  0  0  0  0  0  0  0
  1  6  2  0
  2  1  1  0
  3  2  2  0
  3  4  1  0
  4  5  2  0
  5  6  1  0
  5  7  1  0
  7  9  1  0
  9 10  1  0
  9  8  2  0
 11  9  1  0
 11 12  1  0
 13 12  2  0
  1 14  1  0
  2 15  1  0
  3 16  1  0
 10 17  1  0
 12 18  1  0
M  ISO  5  14  14  15  14  16  14  17   3  18   6
M  END
>  <minimizedAffinity>  (1) 
-4.29905939

>  <minimizedRMSD>  (1) 
0.734309435

$$$$
