
     RDKit          3D

 20 20  0  0  0  0  0  0  0  0999 V2000
   46.6790   33.0670   46.3250 O   0  0  0  0  0  0  0  0  0  0  0  0
   44.5110   35.4980   44.8940 C   0  0  0  0  0  0  0  0  0  0  0  0
   44.9050   35.5830   43.5550 C   0  0  0  0  0  0  0  0  0  0  0  0
   45.9610   34.7600   43.1540 C   0  0  0  0  0  0  0  0  0  0  0  0
   46.5380   33.9340   44.0790 N   0  0  0  0  0  0  0  0  0  0  0  0
   46.1160   33.8940   45.3570 C   0  0  0  0  0  0  0  0  0  0  0  0
   45.1060   34.6740   45.7670 N   0  0  0  0  0  0  0  0  0  0  0  0
   46.7970   32.0450   48.7010 O   0  0  0  0  0  0  0  0  0  0  0  0
   45.8300   32.2250   47.5210 P   0  0  1  0  0  0  0  0  0  0  0  0
   44.4410   33.0270   47.9870 O   0  0  0  0  0  0  0  0  0  0  0  0
   45.4180   30.6670   47.0270 O   0  0  0  0  0  0  0  0  0  0  0  0
   45.6540   30.1050   45.7930 C   0  0  0  0  0  0  0  0  0  0  0  0
   46.2410   28.9960   45.7110 O   0  0  0  0  0  0  0  0  0  0  0  0
   45.2120   30.8210   44.6470 N   0  0  0  0  0  0  0  0  0  0  0  0
   43.6820   36.1310   45.2435 H   0  0  0  0  0  0  0  0  0  0  0  0
   44.4072   36.2655   42.8505 H   0  0  0  0  0  0  0  0  0  0  0  0
   46.3211   34.7762   42.1147 H   0  0  0  0  0  0  0  0  0  0  0  0
   44.3921   33.0552   48.9754 H   0  0  0  0  0  0  0  0  0  0  0  0
   45.3697   30.4341   43.7055 H   0  0  0  0  0  0  0  0  0  0  0  0
   44.7341   31.7266   44.7582 H   0  0  0  0  0  0  0  0  0  0  0  0
  1  9  1  0
  2  7  2  0
  3  2  1  0
  4  3  2  0
  4  5  1  0
  5  6  2  0
  6  7  1  0
  6  1  1  0
  9 10  1  0
  9  8  2  0
 11  9  1  0
 12 11  1  0
 13 12  2  0
 14 12  1  0
  2 15  1  0
  3 16  1  0
  4 17  1  0
 10 18  1  0
 14 19  1  0
 14 20  1  0
M  ISO  4  15  14  16  14  17  14  18   3
M  END
>  <minimizedAffinity>  (1) 
-4.12649536

>  <minimizedRMSD>  (1) 
0.838052988

$$$$
