
     RDKit          3D

 26 27  0  0  0  0  0  0  0  0999 V2000
   45.0060   34.6650   45.6620 O   0  0  0  0  0  0  0  0  0  0  0  0
   45.5310   33.7510   44.5680 P   0  0  1  0  0  0  0  0  0  0  0  0
   44.3540   33.4140   43.4040 O   0  0  0  0  0  0  0  0  0  0  0  0
   46.8680   34.5130   43.8630 O   0  0  0  0  0  0  0  0  0  0  0  0
   46.9510   33.4200   40.4870 C   0  0  0  0  0  0  0  0  0  0  0  0
   47.9020   34.2620   39.8660 C   0  0  0  0  0  0  0  0  0  0  0  0
   48.5080   35.2240   40.6890 C   0  0  0  0  0  0  0  0  0  0  0  0
   48.1490   35.2880   42.0100 N   0  0  0  0  0  0  0  0  0  0  0  0
   47.2350   34.4570   42.5370 C   0  0  0  0  0  0  0  0  0  0  0  0
   46.6470   33.5390   41.7880 N   0  0  0  0  0  0  0  0  0  0  0  0
   45.9410   32.2790   45.2850 O   0  0  0  0  0  0  0  0  0  0  0  0
   46.8130   32.5370   46.3180 C   0  0  0  0  0  0  0  0  0  0  0  0
   46.4000   31.9680   47.6210 C   0  0  0  0  0  0  0  0  0  0  0  0
   45.1560   31.9850   48.2330 C   0  0  0  0  0  0  0  0  0  0  0  0
   45.3270   31.3160   49.4260 C   0  0  0  0  0  0  0  0  0  0  0  0
   46.6020   30.9190   49.5280 N   0  0  0  0  0  0  0  0  0  0  0  0
   47.2550   31.3060   48.4500 N   0  0  0  0  0  0  0  0  0  0  0  0
   43.5058   33.1711   43.8531 H   0  0  0  0  0  0  0  0  0  0  0  0
   46.4473   32.6473   39.8877 H   0  0  0  0  0  0  0  0  0  0  0  0
   48.1526   34.1685   38.7990 H   0  0  0  0  0  0  0  0  0  0  0  0
   49.2593   35.9157   40.2801 H   0  0  0  0  0  0  0  0  0  0  0  0
   47.7942   32.1159   46.0537 H   0  0  0  0  0  0  0  0  0  0  0  0
   46.8365   33.6294   46.4448 H   0  0  0  0  0  0  0  0  0  0  0  0
   44.2296   32.4364   47.8483 H   0  0  0  0  0  0  0  0  0  0  0  0
   44.5415   31.1368   50.1749 H   0  0  0  0  0  0  0  0  0  0  0  0
   47.0061   30.3971   50.3187 H   0  0  0  0  0  0  0  0  0  0  0  0
  2 11  1  0
  2  1  2  0
  3  2  1  0
  4  2  1  0
  5 10  2  0
  6  5  1  0
  6  7  2  0
  7  8  1  0
  8  9  2  0
  9  4  1  0
 10  9  1  0
 11 12  1  0
 12 13  1  0
 13 14  1  0
 13 17  2  0
 14 15  2  0
 15 16  1  0
 17 16  1  0
  3 18  1  0
  5 19  1  0
  6 20  1  0
  7 21  1  0
 12 22  1  0
 12 23  1  0
 14 24  1  0
 15 25  1  0
 16 26  1  0
M  ISO  8  18   3  19  14  20  14  21  14  22   8  23   8  24  14  25  14
M  ISO  1  26   9
M  END
>  <minimizedAffinity>  (1) 
-4.89337301

>  <minimizedRMSD>  (1) 
3.5939889

$$$$
