
     RDKit          3D

 25 25  0  0  0  0  0  0  0  0999 V2000
   46.9590   32.1630   48.3980 O   0  0  0  0  0  0  0  0  0  0  0  0
   45.9220   32.4000   47.3050 P   0  0  1  0  0  0  0  0  0  0  0  0
   44.6310   33.3070   47.8780 O   0  0  0  0  0  0  0  0  0  0  0  0
   46.7070   33.1790   46.0130 O   0  0  0  0  0  0  0  0  0  0  0  0
   44.4880   35.6250   44.7230 C   0  0  0  0  0  0  0  0  0  0  0  0
   44.8710   35.7970   43.3790 C   0  0  0  0  0  0  0  0  0  0  0  0
   45.9570   35.0020   42.9520 C   0  0  0  0  0  0  0  0  0  0  0  0
   46.5480   34.1410   43.8480 N   0  0  0  0  0  0  0  0  0  0  0  0
   46.1200   34.0410   45.1050 C   0  0  0  0  0  0  0  0  0  0  0  0
   45.1040   34.7690   45.5490 N   0  0  0  0  0  0  0  0  0  0  0  0
   45.3520   30.8860   46.8450 O   0  0  0  0  0  0  0  0  0  0  0  0
   45.0720   30.1690   47.9910 C   0  0  0  0  0  0  0  0  0  0  0  0
   44.8800   28.8270   47.7280 O   0  0  0  0  0  0  0  0  0  0  0  0
   46.6110   27.9530   45.9770 O   0  0  0  0  0  0  0  0  0  0  0  0
   46.3880   28.1150   47.4610 P   0  0  0  0  0  0  0  0  0  0  0  0
   47.5490   29.1960   48.0900 O   0  0  0  0  0  0  0  0  0  0  0  0
   46.4980   26.6240   48.2790 O   0  0  0  0  0  0  0  0  0  0  0  0
   44.6379   33.3021   48.8680 H   0  0  0  0  0  0  0  0  0  0  0  0
   43.6473   36.2187   45.1112 H   0  0  0  0  0  0  0  0  0  0  0  0
   44.3593   36.5023   42.7077 H   0  0  0  0  0  0  0  0  0  0  0  0
   46.3254   35.0700   41.9177 H   0  0  0  0  0  0  0  0  0  0  0  0
   45.9131   30.2767   48.6916 H   0  0  0  0  0  0  0  0  0  0  0  0
   44.1415   30.5672   48.4219 H   0  0  0  0  0  0  0  0  0  0  0  0
   47.5217   29.1706   49.0793 H   0  0  0  0  0  0  0  0  0  0  0  0
   46.4863   26.7821   49.2562 H   0  0  0  0  0  0  0  0  0  0  0  0
  2  3  1  0
  2  1  2  0
  4  2  1  0
  5 10  2  0
  6  5  1  0
  7  6  2  0
  7  8  1  0
  8  9  2  0
  9 10  1  0
  9  4  1  0
 11  2  1  0
 11 12  1  0
 13 12  1  0
 14 15  2  0
 15 13  1  0
 15 16  1  0
 15 17  1  0
  3 18  1  0
  5 19  1  0
  6 20  1  0
  7 21  1  0
 12 22  1  0
 12 23  1  0
 16 24  1  0
 17 25  1  0
M  ISO  8  18   3  19  14  20  14  21  14  22   8  23   8  24   3  25   3
M  END
>  <minimizedAffinity>  (1) 
-4.43206692

>  <minimizedRMSD>  (1) 
0.661812067

$$$$
