
     RDKit          3D

 48 51  0  0  1  0  0  0  0  0999 V2000
   46.9970   34.0190   42.5450 C   0  0  2  0  0  0  0  0  0  0  0  0
   48.4190   34.4240   42.7120 C   0  0  0  0  0  0  0  0  0  0  0  0
   48.8660   35.4240   41.7140 C   0  0  0  0  0  0  0  0  0  0  0  0
   48.6120   35.0160   40.2870 C   0  0  0  0  0  0  0  0  0  0  0  0
   47.2840   34.3270   40.0850 C   0  0  0  0  0  0  0  0  0  0  0  0
   46.3660   34.4730   41.2630 C   0  0  1  0  0  0  0  0  0  0  0  0
   46.1500   34.4520   43.6750 C   0  0  0  0  0  0  0  0  0  0  0  0
   45.4760   35.6550   43.4660 C   0  0  0  0  0  0  0  0  0  0  0  0
   44.6320   36.1740   44.4560 C   0  0  0  0  0  0  0  0  0  0  0  0
   44.5320   35.4160   45.6160 N   0  0  0  0  0  0  0  0  0  0  0  0
   45.2000   34.2540   45.7850 C   0  0  0  0  0  0  0  0  0  0  0  0
   46.0050   33.7830   44.8080 N   0  0  0  0  0  0  0  0  0  0  0  0
   45.1690   33.5810   41.0190 C   0  0  2  0  0  0  0  0  0  0  0  0
   44.7010   33.3730   39.6030 C   0  0  0  0  0  0  0  0  0  0  0  0
   43.8830   34.1550   40.5560 C   0  0  1  0  0  0  0  0  0  0  0  0
   42.6220   33.7050   41.0670 N   0  0  0  0  0  0  0  0  0  0  0  0
   41.8170   33.0210   40.0790 C   0  0  0  0  0  0  0  0  0  0  0  0
   40.6770   32.3620   40.8690 C   0  0  0  0  0  0  0  0  0  0  0  0
   39.9100   33.3720   41.6790 C   0  0  0  0  0  0  0  0  0  0  0  0
   40.3950   34.7480   41.3310 C   0  0  0  0  0  0  0  0  0  0  0  0
   41.8780   34.9010   41.4880 C   0  0  0  0  0  0  0  0  0  0  0  0
   47.0459   32.9204   42.5169 H   0  0  0  0  0  0  0  0  0  0  0  0
   48.5436   34.8540   43.7168 H   0  0  0  0  0  0  0  0  0  0  0  0
   49.0330   33.5229   42.5670 H   0  0  0  0  0  0  0  0  0  0  0  0
   48.3324   36.3667   41.9051 H   0  0  0  0  0  0  0  0  0  0  0  0
   49.9553   35.5252   41.8286 H   0  0  0  0  0  0  0  0  0  0  0  0
   48.6357   35.9178   39.6575 H   0  0  0  0  0  0  0  0  0  0  0  0
   49.3958   34.2948   40.0123 H   0  0  0  0  0  0  0  0  0  0  0  0
   46.7936   34.7619   39.2016 H   0  0  0  0  0  0  0  0  0  0  0  0
   47.4853   33.2535   39.9540 H   0  0  0  0  0  0  0  0  0  0  0  0
   46.1065   35.5374   41.3611 H   0  0  0  0  0  0  0  0  0  0  0  0
   45.6079   36.1989   42.5190 H   0  0  0  0  0  0  0  0  0  0  0  0
   44.0847   37.1190   44.3238 H   0  0  0  0  0  0  0  0  0  0  0  0
   45.0879   33.6891   46.7222 H   0  0  0  0  0  0  0  0  0  0  0  0
   45.4667   32.9357   41.8586 H   0  0  0  0  0  0  0  0  0  0  0  0
   44.3644   32.3788   39.2741 H   0  0  0  0  0  0  0  0  0  0  0  0
   45.1264   33.5570   38.6054 H   0  0  0  0  0  0  0  0  0  0  0  0
   43.4405   35.1619   40.5357 H   0  0  0  0  0  0  0  0  0  0  0  0
   42.4139   32.2591   39.5564 H   0  0  0  0  0  0  0  0  0  0  0  0
   41.4376   33.7109   39.3109 H   0  0  0  0  0  0  0  0  0  0  0  0
   39.9891   31.8735   40.1632 H   0  0  0  0  0  0  0  0  0  0  0  0
   41.1163   31.6278   41.5603 H   0  0  0  0  0  0  0  0  0  0  0  0
   38.8372   33.2903   41.4499 H   0  0  0  0  0  0  0  0  0  0  0  0
   40.0659   33.1835   42.7515 H   0  0  0  0  0  0  0  0  0  0  0  0
   39.8956   35.4733   41.9902 H   0  0  0  0  0  0  0  0  0  0  0  0
   40.1553   34.9245   40.2720 H   0  0  0  0  0  0  0  0  0  0  0  0
   42.1007   35.0988   42.5469 H   0  0  0  0  0  0  0  0  0  0  0  0
   42.1953   35.7328   40.8419 H   0  0  0  0  0  0  0  0  0  0  0  0
  1  2  1  0
  1  7  1  0
  3  2  1  0
  4  3  1  0
  5  4  1  0
  5  6  1  0
  6  1  1  0
  7 12  1  0
  8  7  2  0
  8  9  1  0
  9 10  2  0
 10 11  1  0
 12 11  2  0
 13  6  1  0
 14 15  1  0
 14 13  1  0
 15 13  1  0
 15 16  1  0
 16 21  1  0
 17 18  1  0
 17 16  1  0
 18 19  1  0
 20 21  1  0
 20 19  1  0
  1 22  1  6
  2 23  1  0
  2 24  1  0
  3 25  1  0
  3 26  1  0
  4 27  1  0
  4 28  1  0
  5 29  1  0
  5 30  1  0
  6 31  1  1
  8 32  1  0
  9 33  1  0
 11 34  1  0
 13 35  1  1
 14 36  1  0
 14 37  1  0
 15 38  1  6
 17 39  1  0
 17 40  1  0
 18 41  1  0
 18 42  1  0
 19 43  1  0
 19 44  1  0
 20 45  1  0
 20 46  1  0
 21 47  1  0
 21 48  1  0
M  ISO  8  22  13  23  13  24  13  25  13  26  13  27  13  28  13  29  13
M  ISO  8  30  13  31  13  32  14  33  14  34  14  35  13  36  13  37  13
M  ISO  8  38  13  39  13  40  13  41  13  42  13  43  13  44  13  45  13
M  ISO  3  46  13  47  13  48  13
M  END
>  <minimizedAffinity>  (1) 
-6.39884615

>  <minimizedRMSD>  (1) 
1.22887659

$$$$
