
     RDKit          3D

 39 41  0  0  1  0  0  0  0  0999 V2000
   46.6020   34.7630   42.1290 C   0  0  0  0  0  0  0  0  0  0  0  0
   47.8420   35.3720   41.9940 C   0  0  0  0  0  0  0  0  0  0  0  0
   48.6190   35.2250   40.8330 C   0  0  0  0  0  0  0  0  0  0  0  0
   48.1380   34.4460   39.7830 C   0  0  0  0  0  0  0  0  0  0  0  0
   46.9000   33.8550   39.9530 C   0  0  0  0  0  0  0  0  0  0  0  0
   46.1460   34.0010   41.0880 C   0  0  0  0  0  0  0  0  0  0  0  0
   44.4400   36.1790   44.8570 C   0  0  0  0  0  0  0  0  0  0  0  0
   45.0820   36.0790   43.6060 C   0  0  0  0  0  0  0  0  0  0  0  0
   45.8960   34.9790   43.3550 C   0  0  0  0  0  0  0  0  0  0  0  0
   46.0330   34.0460   44.3420 N   0  0  0  0  0  0  0  0  0  0  0  0
   45.3940   34.1790   45.5350 C   0  0  0  0  0  0  0  0  0  0  0  0
   44.6050   35.2350   45.7920 N   0  0  0  0  0  0  0  0  0  0  0  0
   45.5480   33.2090   46.5570 N   0  0  0  0  0  0  0  0  0  0  0  0
   43.7390   34.3560   41.2750 C   0  0  2  0  0  0  0  0  0  0  0  0
   44.8240   33.3350   41.1970 C   0  0  1  0  0  0  0  0  0  0  0  0
   44.6220   32.3630   40.2530 O   0  0  0  0  0  0  0  0  0  0  0  0
   43.6270   32.6010   39.3550 C   0  0  0  0  0  0  0  0  0  0  0  0
   42.2990   32.9980   39.9080 C   0  0  2  0  0  0  0  0  0  0  0  0
   42.4140   33.5850   41.3110 C   0  0  2  0  0  0  0  0  0  0  0  0
   43.6800   35.1430   40.1130 O   0  0  0  0  0  0  0  0  0  0  0  0
   41.3230   32.0040   39.8380 O   0  0  0  0  0  0  0  0  0  0  0  0
   41.3400   34.4410   41.5510 O   0  0  0  0  0  0  0  0  0  0  0  0
   48.2274   35.9876   42.8201 H   0  0  0  0  0  0  0  0  0  0  0  0
   49.5980   35.7203   40.7537 H   0  0  0  0  0  0  0  0  0  0  0  0
   48.7181   34.3072   38.8588 H   0  0  0  0  0  0  0  0  0  0  0  0
   46.4999   33.2364   39.1361 H   0  0  0  0  0  0  0  0  0  0  0  0
   43.7946   37.0445   45.0679 H   0  0  0  0  0  0  0  0  0  0  0  0
   44.9418   36.8573   42.8414 H   0  0  0  0  0  0  0  0  0  0  0  0
   45.0570   33.3246   47.4550 H   0  0  0  0  0  0  0  0  0  0  0  0
   46.1509   32.3885   46.4017 H   0  0  0  0  0  0  0  0  0  0  0  0
   43.9218   34.9969   42.1501 H   0  0  0  0  0  0  0  0  0  0  0  0
   44.8028   32.7717   42.1416 H   0  0  0  0  0  0  0  0  0  0  0  0
   43.4815   31.6816   38.7689 H   0  0  0  0  0  0  0  0  0  0  0  0
   43.9672   33.4708   38.7740 H   0  0  0  0  0  0  0  0  0  0  0  0
   41.9427   33.7946   39.2384 H   0  0  0  0  0  0  0  0  0  0  0  0
   42.3950   32.8279   42.1088 H   0  0  0  0  0  0  0  0  0  0  0  0
   43.6084   36.0979   40.3644 H   0  0  0  0  0  0  0  0  0  0  0  0
   41.0593   31.7354   40.7536 H   0  0  0  0  0  0  0  0  0  0  0  0
   41.2114   34.5435   42.5273 H   0  0  0  0  0  0  0  0  0  0  0  0
  1  9  1  0
  2  1  2  0
  3  2  1  0
  4  5  1  0
  4  3  2  0
  5  6  2  0
  6  1  1  0
  7 12  2  0
  8  7  1  0
  9  8  2  0
  9 10  1  0
 10 11  2  0
 11 12  1  0
 11 13  1  0
 14 20  1  0
 14 19  1  0
 15  6  1  0
 15 14  1  0
 16 15  1  0
 17 18  1  0
 17 16  1  0
 18 21  1  0
 18 19  1  0
 19 22  1  0
  2 23  1  0
  3 24  1  0
  4 25  1  0
  5 26  1  0
  7 27  1  0
  8 28  1  0
 13 29  1  0
 13 30  1  0
 14 31  1  1
 15 32  1  1
 17 33  1  0
 17 34  1  0
 18 35  1  6
 19 36  1  1
 20 37  1  0
 21 38  1  0
 22 39  1  0
M  ISO  8  23  14  24  14  25  14  26  14  27  14  28  14  31  13  32  13
M  ISO  7  33  13  34  13  35  13  36  13  37   3  38   3  39   3
M  END
>  <minimizedAffinity>  (1) 
-7.00934601

>  <minimizedRMSD>  (1) 
0.618784249

$$$$
