
     RDKit          3D

 31 33  0  0  0  0  0  0  0  0999 V2000
   46.5640   34.7560   42.1290 C   0  0  0  0  0  0  0  0  0  0  0  0
   47.8760   35.1840   42.0290 C   0  0  0  0  0  0  0  0  0  0  0  0
   48.6270   34.9970   40.8630 C   0  0  0  0  0  0  0  0  0  0  0  0
   48.0600   34.3700   39.7700 C   0  0  0  0  0  0  0  0  0  0  0  0
   46.7490   33.9500   39.8870 C   0  0  0  0  0  0  0  0  0  0  0  0
   46.0250   34.1390   41.0350 C   0  0  0  0  0  0  0  0  0  0  0  0
   44.4120   36.2360   44.8310 C   0  0  0  0  0  0  0  0  0  0  0  0
   45.0530   36.1050   43.5870 C   0  0  0  0  0  0  0  0  0  0  0  0
   45.8640   34.9860   43.3560 C   0  0  0  0  0  0  0  0  0  0  0  0
   46.0030   34.0630   44.3490 N   0  0  0  0  0  0  0  0  0  0  0  0
   45.3630   34.2320   45.5410 C   0  0  0  0  0  0  0  0  0  0  0  0
   44.5750   35.3080   45.7800 N   0  0  0  0  0  0  0  0  0  0  0  0
   45.5160   33.2710   46.5720 N   0  0  0  0  0  0  0  0  0  0  0  0
   44.6490   33.6590   41.0520 C   0  0  0  0  0  0  0  0  0  0  0  0
   44.0930   32.5020   41.5550 C   0  0  0  0  0  0  0  0  0  0  0  0
   42.7520   32.2780   41.4530 C   0  0  0  0  0  0  0  0  0  0  0  0
   41.9290   33.1940   40.8500 C   0  0  0  0  0  0  0  0  0  0  0  0
   42.4810   34.3430   40.3530 C   0  0  0  0  0  0  0  0  0  0  0  0
   43.8220   34.5650   40.4550 N   0  0  0  0  0  0  0  0  0  0  0  0
   48.3418   35.6853   42.8902 H   0  0  0  0  0  0  0  0  0  0  0  0
   49.6681   35.3490   40.8167 H   0  0  0  0  0  0  0  0  0  0  0  0
   48.6302   34.2114   38.8428 H   0  0  0  0  0  0  0  0  0  0  0  0
   46.2717   33.4484   39.0323 H   0  0  0  0  0  0  0  0  0  0  0  0
   43.7712   37.1087   45.0255 H   0  0  0  0  0  0  0  0  0  0  0  0
   44.9200   36.8691   42.8069 H   0  0  0  0  0  0  0  0  0  0  0  0
   45.0320   33.3998   47.4720 H   0  0  0  0  0  0  0  0  0  0  0  0
   46.1112   32.4440   46.4210 H   0  0  0  0  0  0  0  0  0  0  0  0
   44.7360   31.7542   42.0422 H   0  0  0  0  0  0  0  0  0  0  0  0
   42.3245   31.3498   41.8600 H   0  0  0  0  0  0  0  0  0  0  0  0
   40.8478   33.0090   40.7676 H   0  0  0  0  0  0  0  0  0  0  0  0
   41.8384   35.0925   39.8679 H   0  0  0  0  0  0  0  0  0  0  0  0
  1  9  1  0
  2  1  2  0
  3  2  1  0
  4  5  1  0
  4  3  2  0
  5  6  2  0
  6 14  1  0
  6  1  1  0
  7 12  2  0
  8  7  1  0
  9  8  2  0
  9 10  1  0
 10 11  2  0
 11 12  1  0
 11 13  1  0
 14 15  2  0
 16 15  1  0
 17 16  2  0
 18 19  2  0
 18 17  1  0
 19 14  1  0
  2 20  1  0
  3 21  1  0
  4 22  1  0
  5 23  1  0
  7 24  1  0
  8 25  1  0
 13 26  1  0
 13 27  1  0
 15 28  1  0
 16 29  1  0
 17 30  1  0
 18 31  1  0
M  ISO  8  20  14  21  14  22  14  23  14  24  14  25  14  28  14  29  14
M  ISO  2  30  14  31  14
M  END
>  <minimizedAffinity>  (1) 
-6.16983604

>  <minimizedRMSD>  (1) 
0.919454992

$$$$
