
     RDKit          3D

 29 31  0  0  0  0  0  0  0  0999 V2000
   46.6570   34.8380   42.0960 C   0  0  0  0  0  0  0  0  0  0  0  0
   47.9600   35.3130   42.0480 C   0  0  0  0  0  0  0  0  0  0  0  0
   48.7610   35.1590   40.9200 C   0  0  0  0  0  0  0  0  0  0  0  0
   48.2460   34.5110   39.8040 C   0  0  0  0  0  0  0  0  0  0  0  0
   46.9580   34.0500   39.8720 C   0  0  0  0  0  0  0  0  0  0  0  0
   46.1520   34.1960   40.9870 C   0  0  0  0  0  0  0  0  0  0  0  0
   44.4060   36.2090   44.7830 C   0  0  0  0  0  0  0  0  0  0  0  0
   45.0720   36.1320   43.5390 C   0  0  0  0  0  0  0  0  0  0  0  0
   45.9080   35.0510   43.3210 C   0  0  0  0  0  0  0  0  0  0  0  0
   46.0490   34.1250   44.3030 N   0  0  0  0  0  0  0  0  0  0  0  0
   45.3900   34.2330   45.4880 C   0  0  0  0  0  0  0  0  0  0  0  0
   44.5710   35.2770   45.7220 N   0  0  0  0  0  0  0  0  0  0  0  0
   45.5480   33.2540   46.5070 N   0  0  0  0  0  0  0  0  0  0  0  0
   44.7710   33.7160   41.0970 C   0  0  0  0  0  0  0  0  0  0  0  0
   43.6290   34.4860   40.5430 C   0  0  0  0  0  0  0  0  0  0  0  0
   44.0790   33.2350   39.8540 C   0  0  0  0  0  0  0  0  0  0  0  0
   48.3727   35.8271   42.9286 H   0  0  0  0  0  0  0  0  0  0  0  0
   49.7906   35.5461   40.9122 H   0  0  0  0  0  0  0  0  0  0  0  0
   48.8522   34.3729   38.8965 H   0  0  0  0  0  0  0  0  0  0  0  0
   46.5421   33.5361   38.9929 H   0  0  0  0  0  0  0  0  0  0  0  0
   43.7355   37.0581   44.9813 H   0  0  0  0  0  0  0  0  0  0  0  0
   44.9306   36.9054   42.7697 H   0  0  0  0  0  0  0  0  0  0  0  0
   45.0411   33.3519   47.3983 H   0  0  0  0  0  0  0  0  0  0  0  0
   46.1694   32.4469   46.3539 H   0  0  0  0  0  0  0  0  0  0  0  0
   44.9958   33.3058   42.0926 H   0  0  0  0  0  0  0  0  0  0  0  0
   42.6677   34.5026   41.0774 H   0  0  0  0  0  0  0  0  0  0  0  0
   43.4763   35.5300   40.2320 H   0  0  0  0  0  0  0  0  0  0  0  0
   43.4523   32.3315   39.8858 H   0  0  0  0  0  0  0  0  0  0  0  0
   44.3964   32.9758   38.8332 H   0  0  0  0  0  0  0  0  0  0  0  0
  1  9  1  0
  2  1  2  0
  3  2  1  0
  4  5  1  0
  4  3  2  0
  5  6  2  0
  6 14  1  0
  6  1  1  0
  7 12  2  0
  8  7  1  0
  9  8  2  0
  9 10  1  0
 10 11  2  0
 11 12  1  0
 11 13  1  0
 15 14  1  0
 16 15  1  0
 16 14  1  0
  2 17  1  0
  3 18  1  0
  4 19  1  0
  5 20  1  0
  7 21  1  0
  8 22  1  0
 13 23  1  0
 13 24  1  0
 14 25  1  0
 15 26  1  0
 15 27  1  0
 16 28  1  0
 16 29  1  0
M  ISO  8  17  14  18  14  19  14  20  14  21  14  22  14  25  13  26  13
M  ISO  3  27  13  28  13  29  13
M  END
>  <minimizedAffinity>  (1) 
-5.730165

>  <minimizedRMSD>  (1) 
0.880586326

$$$$
