
     RDKit          3D

 28 29  0  0  0  0  0  0  0  0999 V2000
   47.0430   34.3240   42.4700 C   0  0  0  0  0  0  0  0  0  0  0  0
   48.1780   35.1210   42.3540 C   0  0  0  0  0  0  0  0  0  0  0  0
   48.7900   35.3670   41.1200 C   0  0  0  0  0  0  0  0  0  0  0  0
   48.2780   34.8220   39.9750 C   0  0  0  0  0  0  0  0  0  0  0  0
   47.1550   34.0340   40.0860 C   0  0  0  0  0  0  0  0  0  0  0  0
   46.5350   33.7800   41.3100 C   0  0  0  0  0  0  0  0  0  0  0  0
   45.0200   34.5110   45.6010 C   0  0  0  0  0  0  0  0  0  0  0  0
   45.4580   34.8540   44.2800 C   0  0  0  0  0  0  0  0  0  0  0  0
   46.5040   34.1170   43.7730 C   0  0  0  0  0  0  0  0  0  0  0  0
   47.0580   33.1320   44.5370 N   0  0  0  0  0  0  0  0  0  0  0  0
   46.6080   32.8520   45.7870 C   0  0  0  0  0  0  0  0  0  0  0  0
   45.5930   33.5330   46.3190 N   0  0  0  0  0  0  0  0  0  0  0  0
   47.2180   31.8620   46.5910 N   0  0  0  0  0  0  0  0  0  0  0  0
   44.8770   36.0610   43.7230 C   0  0  0  0  0  0  0  0  0  0  0  0
   43.5550   35.8080   43.3320 F   0  0  0  0  0  0  0  0  0  0  0  0
   44.7640   36.9920   44.8370 F   0  0  0  0  0  0  0  0  0  0  0  0
   45.5810   36.7290   42.8280 F   0  0  0  0  0  0  0  0  0  0  0  0
   45.3420   32.9270   41.4010 C   0  0  0  0  0  0  0  0  0  0  0  0
   45.2500   32.1850   40.2250 F   0  0  0  0  0  0  0  0  0  0  0  0
   44.2190   33.7130   41.5470 F   0  0  0  0  0  0  0  0  0  0  0  0
   45.3440   32.0690   42.4690 F   0  0  0  0  0  0  0  0  0  0  0  0
   48.6074   35.5717   43.2609 H   0  0  0  0  0  0  0  0  0  0  0  0
   49.6871   36.0017   41.0707 H   0  0  0  0  0  0  0  0  0  0  0  0
   48.7480   35.0072   38.9979 H   0  0  0  0  0  0  0  0  0  0  0  0
   46.7300   33.5874   39.1750 H   0  0  0  0  0  0  0  0  0  0  0  0
   44.1824   35.0707   46.0428 H   0  0  0  0  0  0  0  0  0  0  0  0
   46.8554   31.6705   47.5359 H   0  0  0  0  0  0  0  0  0  0  0  0
   48.0250   31.3322   46.2319 H   0  0  0  0  0  0  0  0  0  0  0  0
  1  9  1  0
  2  1  2  0
  3  2  1  0
  4  5  1  0
  4  3  2  0
  5  6  2  0
  6 18  1  0
  6  1  1  0
  7 12  2  0
  8  7  1  0
  9  8  2  0
  9 10  1  0
 10 11  2  0
 11 12  1  0
 11 13  1  0
 14  8  1  0
 14 16  1  0
 15 14  1  0
 17 14  1  0
 18 20  1  0
 18 21  1  0
 19 18  1  0
  2 22  1  0
  3 23  1  0
  4 24  1  0
  5 25  1  0
  7 26  1  0
 13 27  1  0
 13 28  1  0
M  ISO  5  22  14  23  14  24  14  25  14  26  14
M  END
>  <minimizedAffinity>  (1) 
-6.01386118

>  <minimizedRMSD>  (1) 
1.4972688

$$$$
