
     RDKit          3D

 35 37  0  0  0  0  0  0  0  0999 V2000
   44.9290   35.1000   45.2630 C   0  0  0  0  0  0  0  0  0  0  0  0
   45.4340   33.8190   44.9370 C   0  0  0  0  0  0  0  0  0  0  0  0
   45.3750   33.4060   43.6260 C   0  0  0  0  0  0  0  0  0  0  0  0
   44.8370   34.2460   42.7240 N   0  0  0  0  0  0  0  0  0  0  0  0
   44.3560   35.4720   43.0600 C   0  0  0  0  0  0  0  0  0  0  0  0
   44.4030   35.8950   44.3260 N   0  0  0  0  0  0  0  0  0  0  0  0
   43.7820   36.3260   42.0750 N   0  0  0  0  0  0  0  0  0  0  0  0
   45.8580   32.1400   43.1770 C   0  0  0  0  0  0  0  0  0  0  0  0
   45.0250   31.0320   43.3380 C   0  0  0  0  0  0  0  0  0  0  0  0
   45.3870   29.7500   42.9280 C   0  0  0  0  0  0  0  0  0  0  0  0
   46.6110   29.5600   42.3420 C   0  0  0  0  0  0  0  0  0  0  0  0
   47.4430   30.6380   42.1760 C   0  0  0  0  0  0  0  0  0  0  0  0
   47.0740   31.9130   42.5870 C   0  0  0  0  0  0  0  0  0  0  0  0
   47.9690   33.0730   42.3950 C   0  0  0  0  0  0  0  0  0  0  0  0
   49.1750   32.6000   41.8820 F   0  0  0  0  0  0  0  0  0  0  0  0
   48.1790   33.7040   43.6040 F   0  0  0  0  0  0  0  0  0  0  0  0
   47.4790   34.0330   41.5390 F   0  0  0  0  0  0  0  0  0  0  0  0
   45.9320   33.1250   46.0690 N   0  0  0  0  0  0  0  0  0  0  0  0
   46.9550   32.2610   46.1650 C   0  0  0  0  0  0  0  0  0  0  0  0
   47.3540   31.6350   47.3020 C   0  0  0  0  0  0  0  0  0  0  0  0
   46.6830   31.8740   48.4820 C   0  0  0  0  0  0  0  0  0  0  0  0
   47.0030   31.3270   49.5670 O   0  0  0  0  0  0  0  0  0  0  0  0
   45.6540   32.7320   48.4270 N   0  0  0  0  0  0  0  0  0  0  0  0
   45.3110   33.3180   47.2730 C   0  0  0  0  0  0  0  0  0  0  0  0
   44.3140   34.1110   47.3680 O   0  0  0  0  0  0  0  0  0  0  0  0
   44.9700   35.4477   46.3058 H   0  0  0  0  0  0  0  0  0  0  0  0
   43.4214   37.2526   42.3438 H   0  0  0  0  0  0  0  0  0  0  0  0
   43.7276   36.0169   41.0940 H   0  0  0  0  0  0  0  0  0  0  0  0
   44.0412   31.1765   43.8083 H   0  0  0  0  0  0  0  0  0  0  0  0
   44.7001   28.9031   43.0727 H   0  0  0  0  0  0  0  0  0  0  0  0
   46.9217   28.5584   42.0098 H   0  0  0  0  0  0  0  0  0  0  0  0
   48.4264   30.4894   41.7060 H   0  0  0  0  0  0  0  0  0  0  0  0
   47.5172   32.0417   45.2453 H   0  0  0  0  0  0  0  0  0  0  0  0
   48.2075   30.9414   47.2815 H   0  0  0  0  0  0  0  0  0  0  0  0
   45.1210   32.9428   49.2828 H   0  0  0  0  0  0  0  0  0  0  0  0
  2  1  2  0
  2 18  1  0
  3  2  1  0
  4  5  1  0
  4  3  2  0
  5  6  2  0
  6  1  1  0
  7  5  1  0
  8  9  2  0
  8  3  1  0
 10  9  1  0
 11 10  2  0
 12 11  1  0
 12 13  2  0
 13  8  1  0
 14 13  1  0
 14 16  1  0
 15 14  1  0
 17 14  1  0
 18 19  1  0
 18 24  1  0
 19 20  2  0
 20 21  1  0
 21 22  2  0
 23 21  1  0
 24 25  2  0
 24 23  1  0
  1 26  1  0
  7 27  1  0
  7 28  1  0
  9 29  1  0
 10 30  1  0
 11 31  1  0
 12 32  1  0
 19 33  1  0
 20 34  1  0
 23 35  1  0
M  ISO  8  26  14  29  14  30  14  31  14  32  14  33  14  34  14  35   9
M  END
>  <minimizedAffinity>  (1) 
-5.6132803

>  <minimizedRMSD>  (1) 
6.0013423

$$$$
