
     RDKit          3D

 28 29  0  0  0  0  0  0  0  0999 V2000
   46.6870   34.7020   42.2030 C   0  0  0  0  0  0  0  0  0  0  0  0
   47.9620   35.2690   42.1380 C   0  0  0  0  0  0  0  0  0  0  0  0
   48.7210   35.2180   40.9500 C   0  0  0  0  0  0  0  0  0  0  0  0
   48.2110   34.6050   39.8380 C   0  0  0  0  0  0  0  0  0  0  0  0
   46.9650   34.0530   39.9140 C   0  0  0  0  0  0  0  0  0  0  0  0
   46.2050   34.0940   41.0690 C   0  0  0  0  0  0  0  0  0  0  0  0
   44.5320   35.8150   45.0520 C   0  0  0  0  0  0  0  0  0  0  0  0
   45.1700   35.8480   43.7910 C   0  0  0  0  0  0  0  0  0  0  0  0
   45.9900   34.7950   43.4480 C   0  0  0  0  0  0  0  0  0  0  0  0
   46.1540   33.7720   44.3370 N   0  0  0  0  0  0  0  0  0  0  0  0
   45.5250   33.7780   45.5400 C   0  0  0  0  0  0  0  0  0  0  0  0
   44.7160   34.7940   45.8990 N   0  0  0  0  0  0  0  0  0  0  0  0
   45.7270   32.7210   46.4650 N   0  0  0  0  0  0  0  0  0  0  0  0
   44.9460   37.0330   42.9390 C   0  0  0  0  0  0  0  0  0  0  0  0
   44.8600   33.4820   41.1320 C   0  0  0  0  0  0  0  0  0  0  0  0
   44.6730   32.7390   39.9680 F   0  0  0  0  0  0  0  0  0  0  0  0
   43.9090   34.4780   41.2100 F   0  0  0  0  0  0  0  0  0  0  0  0
   44.6610   32.6670   42.2160 F   0  0  0  0  0  0  0  0  0  0  0  0
   48.3807   35.7630   43.0272 H   0  0  0  0  0  0  0  0  0  0  0  0
   49.7229   35.6710   40.9176 H   0  0  0  0  0  0  0  0  0  0  0  0
   48.7915   34.5582   38.9048 H   0  0  0  0  0  0  0  0  0  0  0  0
   46.5500   33.5573   39.0240 H   0  0  0  0  0  0  0  0  0  0  0  0
   43.8711   36.6446   45.3435 H   0  0  0  0  0  0  0  0  0  0  0  0
   45.2454   32.7342   47.3754 H   0  0  0  0  0  0  0  0  0  0  0  0
   46.3552   31.9405   46.2260 H   0  0  0  0  0  0  0  0  0  0  0  0
   44.7792   37.9153   43.5745 H   0  0  0  0  0  0  0  0  0  0  0  0
   45.8285   37.2001   42.3039 H   0  0  0  0  0  0  0  0  0  0  0  0
   44.0634   36.8664   42.3039 H   0  0  0  0  0  0  0  0  0  0  0  0
  1  9  1  0
  2  1  2  0
  3  2  1  0
  4  5  1  0
  4  3  2  0
  5  6  2  0
  6 15  1  0
  6  1  1  0
  7 12  2  0
  8  7  1  0
  9  8  2  0
  9 10  1  0
 10 11  2  0
 11 12  1  0
 11 13  1  0
 14  8  1  0
 15 17  1  0
 15 18  1  0
 16 15  1  0
  2 19  1  0
  3 20  1  0
  4 21  1  0
  5 22  1  0
  7 23  1  0
 13 24  1  0
 13 25  1  0
 14 26  1  0
 14 27  1  0
 14 28  1  0
M  ISO  8  19  14  20  14  21  14  22  14  23  14  26   8  27   8  28   8
M  END
>  <minimizedAffinity>  (1) 
-5.51920462

>  <minimizedRMSD>  (1) 
0.375796556

$$$$
