
     RDKit          3D

 16 16  0  0  0  0  0  0  0  0999 V2000
   45.6270   34.7780   44.3220 C   0  0  0  0  0  0  0  0  0  0  0  0
   46.6510   34.2270   43.5170 C   0  0  0  0  0  0  0  0  0  0  0  0
   47.3220   33.1190   44.0140 C   0  0  0  0  0  0  0  0  0  0  0  0
   46.9750   32.6210   45.2290 N   0  0  0  0  0  0  0  0  0  0  0  0
   45.9950   33.1740   45.9650 C   0  0  0  0  0  0  0  0  0  0  0  0
   45.3190   34.2560   45.5110 N   0  0  0  0  0  0  0  0  0  0  0  0
   45.7520   32.4940   47.2700 C   0  0  0  0  0  0  0  0  0  0  0  0
   44.6700   33.0000   47.9330 F   0  0  0  0  0  0  0  0  0  0  0  0
   46.8970   32.6300   48.0720 F   0  0  0  0  0  0  0  0  0  0  0  0
   45.6280   31.1330   47.0650 F   0  0  0  0  0  0  0  0  0  0  0  0
   44.8900   35.9620   43.8190 C   0  0  0  0  0  0  0  0  0  0  0  0
   44.7290   36.8540   44.8540 F   0  0  0  0  0  0  0  0  0  0  0  0
   45.6190   36.5960   42.8370 F   0  0  0  0  0  0  0  0  0  0  0  0
   43.6320   35.5940   43.3290 F   0  0  0  0  0  0  0  0  0  0  0  0
   46.9049   34.6589   42.5377 H   0  0  0  0  0  0  0  0  0  0  0  0
   48.1268   32.6487   43.4300 H   0  0  0  0  0  0  0  0  0  0  0  0
  1  6  2  0
  2  3  2  0
  2  1  1  0
  3  4  1  0
  4  5  2  0
  5  7  1  0
  6  5  1  0
  7  8  1  0
  7  9  1  0
 10  7  1  0
 11  1  1  0
 11 12  1  0
 13 11  1  0
 14 11  1  0
  2 15  1  0
  3 16  1  0
M  ISO  2  15  14  16  14
M  END
>  <minimizedAffinity>  (1) 
-4.65813017

>  <minimizedRMSD>  (1) 
1.67163908

$$$$
