
     RDKit          3D

 16 16  0  0  0  0  0  0  0  0999 V2000
   45.4180   34.9150   44.2600 C   0  0  0  0  0  0  0  0  0  0  0  0
   46.4320   34.4720   43.3820 C   0  0  0  0  0  0  0  0  0  0  0  0
   47.2380   33.4010   43.8080 C   0  0  0  0  0  0  0  0  0  0  0  0
   46.9920   32.8610   45.0320 N   0  0  0  0  0  0  0  0  0  0  0  0
   46.0210   33.3100   45.8340 C   0  0  0  0  0  0  0  0  0  0  0  0
   45.2330   34.3400   45.4460 N   0  0  0  0  0  0  0  0  0  0  0  0
   45.9140   32.5870   47.1320 C   0  0  0  0  0  0  0  0  0  0  0  0
   44.9180   33.0910   47.9310 F   0  0  0  0  0  0  0  0  0  0  0  0
   47.1380   32.6840   47.8100 F   0  0  0  0  0  0  0  0  0  0  0  0
   45.7490   31.2350   46.9000 F   0  0  0  0  0  0  0  0  0  0  0  0
   44.5700   36.0470   43.8050 C   0  0  0  0  0  0  0  0  0  0  0  0
   46.5855   34.9469   42.4017 H   0  0  0  0  0  0  0  0  0  0  0  0
   48.0444   33.0111   43.1695 H   0  0  0  0  0  0  0  0  0  0  0  0
   44.1703   36.5805   44.6800 H   0  0  0  0  0  0  0  0  0  0  0  0
   45.1748   36.7377   43.1991 H   0  0  0  0  0  0  0  0  0  0  0  0
   43.7371   35.6608   43.1991 H   0  0  0  0  0  0  0  0  0  0  0  0
  1  6  2  0
  2  3  2  0
  2  1  1  0
  3  4  1  0
  4  5  2  0
  5  7  1  0
  6  5  1  0
  7  9  1  0
  7  8  1  0
 10  7  1  0
 11  1  1  0
  2 12  1  0
  3 13  1  0
 11 14  1  0
 11 15  1  0
 11 16  1  0
M  ISO  5  12  14  13  14  14   8  15   8  16   8
M  END
>  <minimizedAffinity>  (1) 
-3.83188295

>  <minimizedRMSD>  (1) 
1.29498982

$$$$
