
     RDKit          3D

 27 29  0  0  1  0  0  0  0  0999 V2000
   46.8040   33.0840   43.1290 C   0  0  1  0  0  0  0  0  0  0  0  0
   47.2660   34.5440   43.2310 C   0  0  0  0  0  0  0  0  0  0  0  0
   48.0630   33.4950   42.5050 C   0  0  2  0  0  0  0  0  0  0  0  0
   46.7750   32.3600   44.4260 C   0  0  0  0  0  0  0  0  0  0  0  0
   47.5570   31.1840   44.5550 C   0  0  0  0  0  0  0  0  0  0  0  0
   47.5370   30.5140   45.7810 C   0  0  0  0  0  0  0  0  0  0  0  0
   46.7650   31.0360   46.7700 N   0  0  0  0  0  0  0  0  0  0  0  0
   46.0360   32.1570   46.6070 C   0  0  0  0  0  0  0  0  0  0  0  0
   46.0500   32.8060   45.4310 N   0  0  0  0  0  0  0  0  0  0  0  0
   45.2720   32.5510   47.8330 C   0  0  0  0  0  0  0  0  0  0  0  0
   44.5790   33.7280   47.6400 F   0  0  0  0  0  0  0  0  0  0  0  0
   46.1530   32.7340   48.9020 F   0  0  0  0  0  0  0  0  0  0  0  0
   44.4310   31.5050   48.1940 F   0  0  0  0  0  0  0  0  0  0  0  0
   48.1790   33.4960   41.0680 C   0  0  0  0  0  0  0  0  0  0  0  0
   47.8560   34.3590   40.0760 C   0  0  0  0  0  0  0  0  0  0  0  0
   48.0960   34.0690   38.7690 C   0  0  0  0  0  0  0  0  0  0  0  0
   48.7270   32.7570   38.5310 C   0  0  0  0  0  0  0  0  0  0  0  0
   48.9210   32.0440   40.2570 S   0  0  0  0  0  0  0  0  0  0  0  0
   45.9418   32.5215   42.7413 H   0  0  0  0  0  0  0  0  0  0  0  0
   46.7439   35.3334   42.6704 H   0  0  0  0  0  0  0  0  0  0  0  0
   47.4549   35.2596   44.0448 H   0  0  0  0  0  0  0  0  0  0  0  0
   49.1089   33.1616   42.5752 H   0  0  0  0  0  0  0  0  0  0  0  0
   48.1612   30.8105   43.7151 H   0  0  0  0  0  0  0  0  0  0  0  0
   48.1246   29.5977   45.9397 H   0  0  0  0  0  0  0  0  0  0  0  0
   47.3871   35.3201   40.3339 H   0  0  0  0  0  0  0  0  0  0  0  0
   47.8393   34.7597   37.9522 H   0  0  0  0  0  0  0  0  0  0  0  0
   49.0152   32.3042   37.5709 H   0  0  0  0  0  0  0  0  0  0  0  0
  1  2  1  0
  1  4  1  0
  3  1  1  0
  3  2  1  0
  4  5  2  0
  4  9  1  0
  5  6  1  0
  6  7  2  0
  8  7  1  0
  8 10  1  0
  9  8  2  0
 10 13  1  0
 10 12  1  0
 11 10  1  0
 14  3  1  0
 15 14  2  0
 16 15  1  0
 17 16  2  0
 17 18  1  0
 18 14  1  0
  1 19  1  6
  2 20  1  0
  2 21  1  0
  3 22  1  1
  5 23  1  0
  6 24  1  0
 15 25  1  0
 16 26  1  0
 17 27  1  0
M  ISO  8  19  13  20  13  21  13  22  13  23  14  24  14  25  14  26  14
M  ISO  1  27  14
M  END
>  <minimizedAffinity>  (1) 
-4.66147661

>  <minimizedRMSD>  (1) 
3.94049406

$$$$
