
     RDKit          3D

 22 23  0  0  1  0  0  0  0  0999 V2000
   45.9690   33.3180   43.7880 C   0  0  0  0  0  0  0  0  0  0  0  0
   47.0140   32.4050   43.4870 C   0  0  0  0  0  0  0  0  0  0  0  0
   47.5050   31.6090   44.5170 C   0  0  0  0  0  0  0  0  0  0  0  0
   46.9580   31.7510   45.7490 N   0  0  0  0  0  0  0  0  0  0  0  0
   45.9650   32.6320   45.9970 C   0  0  0  0  0  0  0  0  0  0  0  0
   45.4800   33.4070   45.0110 N   0  0  0  0  0  0  0  0  0  0  0  0
   45.4590   34.1750   42.6940 C   0  0  1  0  0  0  0  0  0  0  0  0
   45.5400   35.6820   42.9840 C   0  0  0  0  0  0  0  0  0  0  0  0
   46.3470   35.0330   41.9030 C   0  0  1  0  0  0  0  0  0  0  0  0
   47.8030   35.1330   42.1550 C   0  0  0  0  0  0  0  0  0  0  0  0
   48.5810   35.5810   41.3330 O   0  0  0  0  0  0  0  0  0  0  0  0
   45.5140   32.6330   47.4270 C   0  0  0  0  0  0  0  0  0  0  0  0
   44.6650   33.6910   47.6910 F   0  0  0  0  0  0  0  0  0  0  0  0
   46.6220   32.7440   48.2700 F   0  0  0  0  0  0  0  0  0  0  0  0
   44.9200   31.4100   47.7180 F   0  0  0  0  0  0  0  0  0  0  0  0
   47.4235   32.3293   42.4689 H   0  0  0  0  0  0  0  0  0  0  0  0
   48.3137   30.8854   44.3368 H   0  0  0  0  0  0  0  0  0  0  0  0
   44.7032   33.4313   42.4013 H   0  0  0  0  0  0  0  0  0  0  0  0
   44.6988   36.3433   42.7290 H   0  0  0  0  0  0  0  0  0  0  0  0
   45.7542   36.3075   43.8631 H   0  0  0  0  0  0  0  0  0  0  0  0
   46.4701   35.0971   40.8118 H   0  0  0  0  0  0  0  0  0  0  0  0
   48.1967   34.7890   43.1228 H   0  0  0  0  0  0  0  0  0  0  0  0
  1  6  1  0
  2  1  2  0
  2  3  1  0
  3  4  2  0
  4  5  1  0
  5 12  1  0
  6  5  2  0
  7  8  1  0
  7  1  1  0
  9 10  1  0
  9  7  1  0
  9  8  1  0
 11 10  2  0
 12 13  1  0
 12 15  1  0
 12 14  1  0
  2 16  1  0
  3 17  1  0
  7 18  1  6
  8 19  1  0
  8 20  1  0
  9 21  1  6
 10 22  1  0
M  ISO  7  16  14  17  14  18  13  19  13  20  13  21  13  22   6
M  END
>  <minimizedAffinity>  (1) 
-4.04649258

>  <minimizedRMSD>  (1) 
1.43283129

$$$$
