
     RDKit          3D

 35 38  0  0  1  0  0  0  0  0999 V2000
   43.9080   34.6640   42.3530 C   0  0  1  0  0  0  0  0  0  0  0  0
   44.1550   36.1230   41.8620 C   0  0  0  0  0  0  0  0  0  0  0  0
   43.9620   34.9510   40.9350 C   0  0  2  0  0  0  0  0  0  0  0  0
   45.0650   34.0990   43.0890 C   0  0  0  0  0  0  0  0  0  0  0  0
   46.3140   33.9660   42.4100 C   0  0  0  0  0  0  0  0  0  0  0  0
   47.4000   33.4440   43.1020 C   0  0  0  0  0  0  0  0  0  0  0  0
   47.2120   33.0850   44.4010 N   0  0  0  0  0  0  0  0  0  0  0  0
   46.0110   33.2260   45.0140 C   0  0  0  0  0  0  0  0  0  0  0  0
   44.9570   33.7330   44.3400 N   0  0  0  0  0  0  0  0  0  0  0  0
   46.0140   32.7790   46.4440 C   0  0  0  0  0  0  0  0  0  0  0  0
   45.0490   33.4220   47.1810 F   0  0  0  0  0  0  0  0  0  0  0  0
   47.2550   33.1030   47.0240 F   0  0  0  0  0  0  0  0  0  0  0  0
   45.9280   31.4040   46.4930 F   0  0  0  0  0  0  0  0  0  0  0  0
   42.6450   34.8230   40.2230 C   0  0  0  0  0  0  0  0  0  0  0  0
   42.4840   35.2430   38.9140 C   0  0  0  0  0  0  0  0  0  0  0  0
   41.3020   35.1380   38.2370 C   0  0  0  0  0  0  0  0  0  0  0  0
   40.2470   34.5950   38.8890 N   0  0  0  0  0  0  0  0  0  0  0  0
   40.3890   34.1790   40.1730 C   0  0  0  0  0  0  0  0  0  0  0  0
   41.5610   34.2840   40.8420 N   0  0  0  0  0  0  0  0  0  0  0  0
   39.2410   33.5840   40.8920 C   0  0  0  0  0  0  0  0  0  0  0  0
   38.6380   32.3870   40.1390 C   0  0  0  0  0  0  0  0  0  0  0  0
   39.2970   32.2370   41.4680 C   0  0  0  0  0  0  0  0  0  0  0  0
   43.1770   34.0999   42.9509 H   0  0  0  0  0  0  0  0  0  0  0  0
   43.3725   36.8890   41.9665 H   0  0  0  0  0  0  0  0  0  0  0  0
   44.9174   36.9002   42.0188 H   0  0  0  0  0  0  0  0  0  0  0  0
   44.5558   34.5773   40.0878 H   0  0  0  0  0  0  0  0  0  0  0  0
   46.4147   34.2713   41.3580 H   0  0  0  0  0  0  0  0  0  0  0  0
   48.3795   33.3249   42.6157 H   0  0  0  0  0  0  0  0  0  0  0  0
   43.3484   35.6820   38.3943 H   0  0  0  0  0  0  0  0  0  0  0  0
   41.2105   35.4832   37.1966 H   0  0  0  0  0  0  0  0  0  0  0  0
   38.9278   34.5456   41.3247 H   0  0  0  0  0  0  0  0  0  0  0  0
   37.5471   32.2822   40.0446 H   0  0  0  0  0  0  0  0  0  0  0  0
   38.7592   31.9385   39.1419 H   0  0  0  0  0  0  0  0  0  0  0  0
   40.2637   31.7169   41.5386 H   0  0  0  0  0  0  0  0  0  0  0  0
   38.9827   31.8060   42.4300 H   0  0  0  0  0  0  0  0  0  0  0  0
  1  4  1  0
  2  1  1  0
  3  2  1  0
  3  1  1  0
  4  9  1  0
  5  4  2  0
  5  6  1  0
  6  7  2  0
  7  8  1  0
  8 10  1  0
  9  8  2  0
 10 13  1  0
 10 12  1  0
 10 11  1  0
 14 19  1  0
 14  3  1  0
 15 14  2  0
 16 17  2  0
 16 15  1  0
 17 18  1  0
 18 19  2  0
 18 20  1  0
 20 22  1  0
 21 20  1  0
 21 22  1  0
  1 23  1  6
  2 24  1  0
  2 25  1  0
  3 26  1  6
  5 27  1  0
  6 28  1  0
 15 29  1  0
 16 30  1  0
 20 31  1  0
 21 32  1  0
 21 33  1  0
 22 34  1  0
 22 35  1  0
M  ISO  8  23  13  24  13  25  13  26  13  27  14  28  14  29  14  30  14
M  ISO  5  31  13  32  13  33  13  34  13  35  13
M  END
>  <minimizedAffinity>  (1) 
-5.42255163

>  <minimizedRMSD>  (1) 
1.57095742

$$$$
