
     RDKit          3D

 46 49  0  0  1  0  0  0  0  0999 V2000
   46.9330   33.9950   42.5680 C   0  0  2  0  0  0  0  0  0  0  0  0
   48.3660   34.3490   42.7370 C   0  0  0  0  0  0  0  0  0  0  0  0
   48.8420   35.3540   41.7540 C   0  0  0  0  0  0  0  0  0  0  0  0
   48.5820   34.9340   40.3240 C   0  0  0  0  0  0  0  0  0  0  0  0
   47.2200   34.3350   40.1100 C   0  0  0  0  0  0  0  0  0  0  0  0
   46.3140   34.4850   41.2920 C   0  0  1  0  0  0  0  0  0  0  0  0
   46.1010   34.4450   43.7060 C   0  0  0  0  0  0  0  0  0  0  0  0
   45.4370   35.6530   43.4920 C   0  0  0  0  0  0  0  0  0  0  0  0
   44.6120   36.1830   44.4970 C   0  0  0  0  0  0  0  0  0  0  0  0
   44.5210   35.4330   45.6620 N   0  0  0  0  0  0  0  0  0  0  0  0
   45.1800   34.2670   45.8320 C   0  0  0  0  0  0  0  0  0  0  0  0
   45.9610   33.7920   44.8480 N   0  0  0  0  0  0  0  0  0  0  0  0
   45.0980   33.6160   41.0420 C   0  0  2  0  0  0  0  0  0  0  0  0
   44.6410   33.4300   39.6110 C   0  0  0  0  0  0  0  0  0  0  0  0
   43.8240   34.1940   40.5640 C   0  0  1  0  0  0  0  0  0  0  0  0
   42.5310   33.6100   41.0140 C   0  0  0  0  0  0  0  0  0  0  0  0
   41.7150   32.9270   39.9710 C   0  0  0  0  0  0  0  0  0  0  0  0
   40.3160   32.8730   40.6060 C   0  0  0  0  0  0  0  0  0  0  0  0
   40.2060   34.1750   41.3730 C   0  0  0  0  0  0  0  0  0  0  0  0
   41.6120   34.7340   41.4930 C   0  0  0  0  0  0  0  0  0  0  0  0
   46.9460   32.8958   42.5270 H   0  0  0  0  0  0  0  0  0  0  0  0
   48.5082   34.7558   43.7491 H   0  0  0  0  0  0  0  0  0  0  0  0
   48.9499   33.4312   42.5736 H   0  0  0  0  0  0  0  0  0  0  0  0
   48.3226   36.3052   41.9423 H   0  0  0  0  0  0  0  0  0  0  0  0
   49.9300   35.4555   41.8800 H   0  0  0  0  0  0  0  0  0  0  0  0
   48.6775   35.8197   39.6787 H   0  0  0  0  0  0  0  0  0  0  0  0
   49.3188   34.1552   40.0779 H   0  0  0  0  0  0  0  0  0  0  0  0
   46.7524   34.8310   39.2467 H   0  0  0  0  0  0  0  0  0  0  0  0
   47.3612   33.2570   39.9429 H   0  0  0  0  0  0  0  0  0  0  0  0
   46.0836   35.5548   41.4035 H   0  0  0  0  0  0  0  0  0  0  0  0
   45.5593   36.1886   42.5390 H   0  0  0  0  0  0  0  0  0  0  0  0
   44.0717   37.1327   44.3694 H   0  0  0  0  0  0  0  0  0  0  0  0
   45.0776   33.7077   46.7736 H   0  0  0  0  0  0  0  0  0  0  0  0
   45.3750   32.9705   41.8885 H   0  0  0  0  0  0  0  0  0  0  0  0
   44.3041   32.4422   39.2634 H   0  0  0  0  0  0  0  0  0  0  0  0
   45.0755   33.6279   38.6200 H   0  0  0  0  0  0  0  0  0  0  0  0
   43.3970   35.2076   40.5818 H   0  0  0  0  0  0  0  0  0  0  0  0
   42.8389   32.8743   41.7716 H   0  0  0  0  0  0  0  0  0  0  0  0
   42.0971   31.9153   39.7699 H   0  0  0  0  0  0  0  0  0  0  0  0
   41.7307   33.4449   39.0007 H   0  0  0  0  0  0  0  0  0  0  0  0
   39.5379   32.8097   39.8310 H   0  0  0  0  0  0  0  0  0  0  0  0
   40.1790   31.9917   41.2498 H   0  0  0  0  0  0  0  0  0  0  0  0
   39.5627   34.8819   40.8286 H   0  0  0  0  0  0  0  0  0  0  0  0
   39.7603   34.0118   42.3653 H   0  0  0  0  0  0  0  0  0  0  0  0
   41.8352   34.9963   42.5377 H   0  0  0  0  0  0  0  0  0  0  0  0
   41.7418   35.6522   40.9014 H   0  0  0  0  0  0  0  0  0  0  0  0
  1  2  1  0
  1  7  1  0
  3  2  1  0
  4  3  1  0
  5  4  1  0
  5  6  1  0
  6  1  1  0
  7 12  1  0
  8  7  2  0
  8  9  1  0
  9 10  2  0
 10 11  1  0
 12 11  2  0
 13  6  1  0
 14 15  1  0
 14 13  1  0
 15 16  1  0
 15 13  1  0
 16 20  1  0
 17 18  1  0
 17 16  1  0
 18 19  1  0
 19 20  1  0
  1 21  1  6
  2 22  1  0
  2 23  1  0
  3 24  1  0
  3 25  1  0
  4 26  1  0
  4 27  1  0
  5 28  1  0
  5 29  1  0
  6 30  1  1
  8 31  1  0
  9 32  1  0
 11 33  1  0
 13 34  1  1
 14 35  1  0
 14 36  1  0
 15 37  1  6
 16 38  1  0
 17 39  1  0
 17 40  1  0
 18 41  1  0
 18 42  1  0
 19 43  1  0
 19 44  1  0
 20 45  1  0
 20 46  1  0
M  ISO  8  21  13  22  13  23  13  24  13  25  13  26  13  27  13  28  13
M  ISO  8  29  13  30  13  31  14  32  14  33  14  34  13  35  13  36  13
M  ISO  8  37  13  38  13  39  13  40  13  41  13  42  13  43  13  44  13
M  ISO  2  45  13  46  13
M  END
>  <minimizedAffinity>  (1) 
-6.01967764

>  <minimizedRMSD>  (1) 
1.29755163

$$$$
