
     RDKit          3D

 44 47  0  0  1  0  0  0  0  0999 V2000
   43.1430   34.8960   40.5310 C   0  0  0  0  0  0  0  0  0  0  0  0
   43.1670   35.1660   39.1820 C   0  0  0  0  0  0  0  0  0  0  0  0
   42.0310   35.1330   38.4000 C   0  0  0  0  0  0  0  0  0  0  0  0
   40.8680   34.8220   38.9960 N   0  0  0  0  0  0  0  0  0  0  0  0
   40.8300   34.5510   40.3290 C   0  0  0  0  0  0  0  0  0  0  0  0
   41.9420   34.5840   41.1010 N   0  0  0  0  0  0  0  0  0  0  0  0
   44.2480   34.4550   42.6990 C   0  0  1  0  0  0  0  0  0  0  0  0
   44.4980   35.9810   42.4390 C   0  0  0  0  0  0  0  0  0  0  0  0
   44.4120   34.9160   41.3520 C   0  0  2  0  0  0  0  0  0  0  0  0
   45.3140   33.8070   43.4920 C   0  0  0  0  0  0  0  0  0  0  0  0
   46.5220   33.5080   42.8360 C   0  0  0  0  0  0  0  0  0  0  0  0
   47.5390   32.9000   43.5670 C   0  0  0  0  0  0  0  0  0  0  0  0
   47.3130   32.6270   44.8750 N   0  0  0  0  0  0  0  0  0  0  0  0
   46.1540   32.9250   45.4660 C   0  0  0  0  0  0  0  0  0  0  0  0
   45.1930   33.5070   44.7480 N   0  0  0  0  0  0  0  0  0  0  0  0
   46.0930   32.5490   46.9190 C   0  0  0  0  0  0  0  0  0  0  0  0
   45.1070   33.2590   47.5860 F   0  0  0  0  0  0  0  0  0  0  0  0
   47.3150   32.9280   47.5300 F   0  0  0  0  0  0  0  0  0  0  0  0
   45.9920   31.1910   47.0480 F   0  0  0  0  0  0  0  0  0  0  0  0
   39.5710   34.1840   41.0470 C   0  0  0  0  0  0  0  0  0  0  0  0
   38.4950   33.8430   40.0440 C   0  0  0  0  0  0  0  0  0  0  0  0
   38.3820   32.4040   39.8120 C   0  0  0  0  0  0  0  0  0  0  0  0
   38.1300   31.6810   40.9670 C   0  0  0  0  0  0  0  0  0  0  0  0
   37.9950   30.2930   40.9210 C   0  0  0  0  0  0  0  0  0  0  0  0
   38.1110   29.6430   39.7130 C   0  0  0  0  0  0  0  0  0  0  0  0
   38.3620   30.3600   38.5510 C   0  0  0  0  0  0  0  0  0  0  0  0
   38.4960   31.7420   38.6080 C   0  0  0  0  0  0  0  0  0  0  0  0
   44.1279   35.4176   38.7094 H   0  0  0  0  0  0  0  0  0  0  0  0
   42.0761   35.3542   37.3234 H   0  0  0  0  0  0  0  0  0  0  0  0
   43.4831   33.7966   43.1366 H   0  0  0  0  0  0  0  0  0  0  0  0
   43.6895   36.7147   42.5733 H   0  0  0  0  0  0  0  0  0  0  0  0
   45.2207   36.7448   42.7622 H   0  0  0  0  0  0  0  0  0  0  0  0
   45.0822   34.6443   40.5232 H   0  0  0  0  0  0  0  0  0  0  0  0
   46.6597   33.7487   41.7715 H   0  0  0  0  0  0  0  0  0  0  0  0
   48.5003   32.6479   43.0954 H   0  0  0  0  0  0  0  0  0  0  0  0
   39.7586   33.3133   41.6925 H   0  0  0  0  0  0  0  0  0  0  0  0
   39.2405   35.0345   41.6614 H   0  0  0  0  0  0  0  0  0  0  0  0
   37.5311   34.2165   40.4199 H   0  0  0  0  0  0  0  0  0  0  0  0
   38.7668   34.3154   39.0885 H   0  0  0  0  0  0  0  0  0  0  0  0
   38.0355   32.2061   41.9289 H   0  0  0  0  0  0  0  0  0  0  0  0
   37.7978   29.7235   41.8412 H   0  0  0  0  0  0  0  0  0  0  0  0
   38.0042   28.5491   39.6682 H   0  0  0  0  0  0  0  0  0  0  0  0
   38.4545   29.8359   37.5883 H   0  0  0  0  0  0  0  0  0  0  0  0
   38.6941   32.3108   37.6876 H   0  0  0  0  0  0  0  0  0  0  0  0
  1  6  1  0
  1  9  1  0
  2  1  2  0
  3  4  2  0
  3  2  1  0
  4  5  1  0
  5 20  1  0
  5  6  2  0
  7 10  1  0
  8  7  1  0
  9  8  1  0
  9  7  1  0
 10 15  1  0
 11 10  2  0
 11 12  1  0
 12 13  2  0
 13 14  1  0
 14 16  1  0
 15 14  2  0
 16 19  1  0
 16 18  1  0
 16 17  1  0
 21 20  1  0
 22 21  1  0
 22 23  2  0
 24 23  1  0
 25 24  2  0
 26 27  2  0
 26 25  1  0
 27 22  1  0
  2 28  1  0
  3 29  1  0
  7 30  1  6
  8 31  1  0
  8 32  1  0
  9 33  1  6
 11 34  1  0
 12 35  1  0
 20 36  1  0
 20 37  1  0
 21 38  1  0
 21 39  1  0
 23 40  1  0
 24 41  1  0
 25 42  1  0
 26 43  1  0
 27 44  1  0
M  ISO  8  28  14  29  14  30  13  31  13  32  13  33  13  34  14  35  14
M  ISO  8  36   8  37   8  38   8  39   8  40  14  41  14  42  14  43  14
M  ISO  1  44  14
M  END
>  <minimizedAffinity>  (1) 
-6.12319756

>  <minimizedRMSD>  (1) 
1.5882746

$$$$
