
     RDKit          3D

 46 49  0  0  1  0  0  0  0  0999 V2000
   42.7680   34.8020   40.3580 C   0  0  0  0  0  0  0  0  0  0  0  0
   42.6040   35.1580   39.0430 C   0  0  0  0  0  0  0  0  0  0  0  0
   41.4170   35.0400   38.3700 C   0  0  0  0  0  0  0  0  0  0  0  0
   40.3620   34.5460   39.0530 N   0  0  0  0  0  0  0  0  0  0  0  0
   40.5030   34.1870   40.3550 C   0  0  0  0  0  0  0  0  0  0  0  0
   41.6840   34.3130   40.9970 N   0  0  0  0  0  0  0  0  0  0  0  0
   44.0670   34.6360   42.4580 C   0  0  1  0  0  0  0  0  0  0  0  0
   44.2780   36.1170   41.9870 C   0  0  0  0  0  0  0  0  0  0  0  0
   44.1020   34.9230   41.0540 C   0  0  2  0  0  0  0  0  0  0  0  0
   45.2040   34.0880   43.2240 C   0  0  0  0  0  0  0  0  0  0  0  0
   46.4490   34.0110   42.5800 C   0  0  0  0  0  0  0  0  0  0  0  0
   47.5350   33.5000   43.2880 C   0  0  0  0  0  0  0  0  0  0  0  0
   47.3290   33.1020   44.5660 N   0  0  0  0  0  0  0  0  0  0  0  0
   46.1320   33.1880   45.1500 C   0  0  0  0  0  0  0  0  0  0  0  0
   45.0960   33.6800   44.4630 N   0  0  0  0  0  0  0  0  0  0  0  0
   46.1150   32.6990   46.5710 C   0  0  0  0  0  0  0  0  0  0  0  0
   45.1350   33.3400   47.3140 F   0  0  0  0  0  0  0  0  0  0  0  0
   47.3450   33.0350   47.1810 F   0  0  0  0  0  0  0  0  0  0  0  0
   46.0180   31.3360   46.5960 F   0  0  0  0  0  0  0  0  0  0  0  0
   39.3750   33.6170   41.1560 C   0  0  0  0  0  0  0  0  0  0  0  0
   38.4750   32.8000   40.2610 C   0  0  0  0  0  0  0  0  0  0  0  0
   38.2460   31.4650   40.7730 N   0  0  0  0  0  0  0  0  0  0  0  0
   39.2890   30.9500   41.5980 C   0  0  0  0  0  0  0  0  0  0  0  0
   40.0030   29.8630   40.8160 C   0  0  0  0  0  0  0  0  0  0  0  0
   39.4560   29.9780   39.4010 C   0  0  0  0  0  0  0  0  0  0  0  0
   38.0780   30.5480   39.6790 C   0  0  0  0  0  0  0  0  0  0  0  0
   43.4724   35.5597   38.5003 H   0  0  0  0  0  0  0  0  0  0  0  0
   41.3266   35.3360   37.3145 H   0  0  0  0  0  0  0  0  0  0  0  0
   43.3515   34.0404   43.0440 H   0  0  0  0  0  0  0  0  0  0  0  0
   43.4786   36.8637   42.1025 H   0  0  0  0  0  0  0  0  0  0  0  0
   45.0202   36.9136   42.1438 H   0  0  0  0  0  0  0  0  0  0  0  0
   44.6957   34.5468   40.2078 H   0  0  0  0  0  0  0  0  0  0  0  0
   46.5648   34.3468   41.5389 H   0  0  0  0  0  0  0  0  0  0  0  0
   48.5289   33.4223   42.8232 H   0  0  0  0  0  0  0  0  0  0  0  0
   39.7801   32.9743   41.9515 H   0  0  0  0  0  0  0  0  0  0  0  0
   38.7951   34.4381   41.6027 H   0  0  0  0  0  0  0  0  0  0  0  0
   38.9422   32.7215   39.2682 H   0  0  0  0  0  0  0  0  0  0  0  0
   37.5016   33.3100   40.2114 H   0  0  0  0  0  0  0  0  0  0  0  0
   39.9957   31.7533   41.8533 H   0  0  0  0  0  0  0  0  0  0  0  0
   38.8752   30.5432   42.5325 H   0  0  0  0  0  0  0  0  0  0  0  0
   41.0903   30.0294   40.8257 H   0  0  0  0  0  0  0  0  0  0  0  0
   39.8353   28.8644   41.2458 H   0  0  0  0  0  0  0  0  0  0  0  0
   39.3969   28.9964   38.9080 H   0  0  0  0  0  0  0  0  0  0  0  0
   40.0724   30.5838   38.7205 H   0  0  0  0  0  0  0  0  0  0  0  0
   37.6958   31.0754   38.7926 H   0  0  0  0  0  0  0  0  0  0  0  0
   37.3543   29.7562   39.9224 H   0  0  0  0  0  0  0  0  0  0  0  0
  1  6  1  0
  1  9  1  0
  2  1  2  0
  3  2  1  0
  3  4  2  0
  4  5  1  0
  5  6  2  0
  5 20  1  0
  7 10  1  0
  8  7  1  0
  9  8  1  0
  9  7  1  0
 10 15  1  0
 11 10  2  0
 11 12  1  0
 12 13  2  0
 13 14  1  0
 14 16  1  0
 15 14  2  0
 16 19  1  0
 16 18  1  0
 16 17  1  0
 21 22  1  0
 21 20  1  0
 22 23  1  0
 24 23  1  0
 25 26  1  0
 25 24  1  0
 26 22  1  0
  2 27  1  0
  3 28  1  0
  7 29  1  1
  8 30  1  0
  8 31  1  0
  9 32  1  6
 11 33  1  0
 12 34  1  0
 20 35  1  0
 20 36  1  0
 21 37  1  0
 21 38  1  0
 23 39  1  0
 23 40  1  0
 24 41  1  0
 24 42  1  0
 25 43  1  0
 25 44  1  0
 26 45  1  0
 26 46  1  0
M  ISO  8  27  14  28  14  29  13  30  13  31  13  32  13  33  14  34  14
M  ISO  8  35   8  36   8  37   8  38   8  39  13  40  13  41  13  42  13
M  ISO  4  43  13  44  13  45  13  46  13
M  END
>  <minimizedAffinity>  (1) 
-5.4830389

>  <minimizedRMSD>  (1) 
0.938861966

$$$$
