
     RDKit          3D

 47 50  0  0  1  0  0  0  0  0999 V2000
   42.6580   34.8340   40.2580 C   0  0  0  0  0  0  0  0  0  0  0  0
   42.5050   35.1740   38.9360 C   0  0  0  0  0  0  0  0  0  0  0  0
   41.3210   35.0670   38.2610 C   0  0  0  0  0  0  0  0  0  0  0  0
   40.2560   34.5960   38.9480 N   0  0  0  0  0  0  0  0  0  0  0  0
   40.3850   34.2560   40.2470 C   0  0  0  0  0  0  0  0  0  0  0  0
   41.5620   34.3700   40.8990 N   0  0  0  0  0  0  0  0  0  0  0  0
   43.9580   34.6540   42.3600 C   0  0  1  0  0  0  0  0  0  0  0  0
   44.1530   36.1340   41.9050 C   0  0  0  0  0  0  0  0  0  0  0  0
   43.9870   34.9460   40.9570 C   0  0  2  0  0  0  0  0  0  0  0  0
   45.0940   34.1040   43.1200 C   0  0  0  0  0  0  0  0  0  0  0  0
   46.3320   33.9970   42.4590 C   0  0  0  0  0  0  0  0  0  0  0  0
   47.4220   33.4850   43.1510 C   0  0  0  0  0  0  0  0  0  0  0  0
   47.2300   33.1110   44.4430 N   0  0  0  0  0  0  0  0  0  0  0  0
   46.0470   33.2250   45.0410 C   0  0  0  0  0  0  0  0  0  0  0  0
   44.9890   33.7220   44.3680 N   0  0  0  0  0  0  0  0  0  0  0  0
   46.0350   32.7620   46.4750 C   0  0  0  0  0  0  0  0  0  0  0  0
   45.0550   33.4040   47.2150 F   0  0  0  0  0  0  0  0  0  0  0  0
   47.2770   33.0990   47.0610 F   0  0  0  0  0  0  0  0  0  0  0  0
   45.9620   31.3990   46.5210 F   0  0  0  0  0  0  0  0  0  0  0  0
   39.2640   33.7040   41.0620 C   0  0  0  0  0  0  0  0  0  0  0  0
   38.6450   32.5220   40.3970 C   0  0  0  0  0  0  0  0  0  0  0  0
   38.4800   31.4470   41.3350 N   0  0  0  0  0  0  0  0  0  0  0  0
   39.7200   30.9290   41.8340 C   0  0  0  0  0  0  0  0  0  0  0  0
   39.9340   29.4800   41.4340 C   0  0  0  0  0  0  0  0  0  0  0  0
   38.9390   28.6590   41.9470 O   0  0  0  0  0  0  0  0  0  0  0  0
   37.7160   29.3170   42.0410 C   0  0  0  0  0  0  0  0  0  0  0  0
   37.5740   30.4140   40.9760 C   0  0  0  0  0  0  0  0  0  0  0  0
   43.3823   35.5527   38.3911 H   0  0  0  0  0  0  0  0  0  0  0  0
   41.2381   35.3525   37.2019 H   0  0  0  0  0  0  0  0  0  0  0  0
   43.2480   34.0506   42.9447 H   0  0  0  0  0  0  0  0  0  0  0  0
   43.3465   36.8717   42.0292 H   0  0  0  0  0  0  0  0  0  0  0  0
   44.8879   36.9359   42.0689 H   0  0  0  0  0  0  0  0  0  0  0  0
   44.5805   34.5732   40.1092 H   0  0  0  0  0  0  0  0  0  0  0  0
   46.4347   34.3139   41.4107 H   0  0  0  0  0  0  0  0  0  0  0  0
   48.4062   33.3858   42.6699 H   0  0  0  0  0  0  0  0  0  0  0  0
   39.6513   33.4002   42.0457 H   0  0  0  0  0  0  0  0  0  0  0  0
   38.4960   34.4839   41.1714 H   0  0  0  0  0  0  0  0  0  0  0  0
   37.6612   32.8064   39.9955 H   0  0  0  0  0  0  0  0  0  0  0  0
   39.3039   32.1860   39.5827 H   0  0  0  0  0  0  0  0  0  0  0  0
   40.5454   31.5342   41.4309 H   0  0  0  0  0  0  0  0  0  0  0  0
   39.6905   30.9771   42.9326 H   0  0  0  0  0  0  0  0  0  0  0  0
   39.9270   29.4073   40.3364 H   0  0  0  0  0  0  0  0  0  0  0  0
   40.9001   29.1481   41.8419 H   0  0  0  0  0  0  0  0  0  0  0  0
   36.9065   28.5843   41.9073 H   0  0  0  0  0  0  0  0  0  0  0  0
   37.6596   29.7930   43.0311 H   0  0  0  0  0  0  0  0  0  0  0  0
   36.5440   30.7998   40.9634 H   0  0  0  0  0  0  0  0  0  0  0  0
   37.7952   30.0233   39.9718 H   0  0  0  0  0  0  0  0  0  0  0  0
  1  6  1  0
  1  9  1  0
  2  1  2  0
  3  2  1  0
  3  4  2  0
  4  5  1  0
  5  6  2  0
  5 20  1  0
  7 10  1  0
  8  7  1  0
  9  8  1  0
  9  7  1  0
 10 15  1  0
 11 10  2  0
 11 12  1  0
 12 13  2  0
 13 14  1  0
 14 16  1  0
 15 14  2  0
 16 19  1  0
 16 18  1  0
 16 17  1  0
 21 20  1  0
 21 22  1  0
 22 23  1  0
 24 23  1  0
 24 25  1  0
 25 26  1  0
 27 22  1  0
 27 26  1  0
  2 28  1  0
  3 29  1  0
  7 30  1  1
  8 31  1  0
  8 32  1  0
  9 33  1  6
 11 34  1  0
 12 35  1  0
 20 36  1  0
 20 37  1  0
 21 38  1  0
 21 39  1  0
 23 40  1  0
 23 41  1  0
 24 42  1  0
 24 43  1  0
 26 44  1  0
 26 45  1  0
 27 46  1  0
 27 47  1  0
M  ISO  8  28  14  29  14  30  13  31  13  32  13  33  13  34  14  35  14
M  ISO  8  36   8  37   8  38   8  39   8  40  13  41  13  42  13  43  13
M  ISO  4  44  13  45  13  46  13  47  13
M  END
>  <minimizedAffinity>  (1) 
-5.76615953

>  <minimizedRMSD>  (1) 
1.30903995

$$$$
