
     RDKit          3D

 20 21  0  0  1  0  0  0  0  0999 V2000
   46.0760   34.8820   43.2520 C   0  0  0  0  0  0  0  0  0  0  0  0
   46.1940   33.8960   44.2530 C   0  0  0  0  0  0  0  0  0  0  0  0
   45.4770   34.0120   45.4460 C   0  0  0  0  0  0  0  0  0  0  0  0
   44.6780   35.1210   45.5660 N   0  0  0  0  0  0  0  0  0  0  0  0
   44.5890   36.0500   44.5820 C   0  0  0  0  0  0  0  0  0  0  0  0
   45.2750   35.9300   43.4480 N   0  0  0  0  0  0  0  0  0  0  0  0
   46.8640   34.7170   42.0100 C   0  0  1  0  0  0  0  0  0  0  0  0
   48.3780   34.9670   42.2220 C   0  0  1  0  0  0  0  0  0  0  0  0
   47.8130   33.6420   41.8160 C   0  0  0  0  0  0  0  0  0  0  0  0
   48.9980   35.8250   41.1500 C   0  0  0  0  0  0  0  0  0  0  0  0
   46.8543   33.0308   44.0935 H   0  0  0  0  0  0  0  0  0  0  0  0
   45.5487   33.2577   46.2434 H   0  0  0  0  0  0  0  0  0  0  0  0
   43.9348   36.9227   44.7245 H   0  0  0  0  0  0  0  0  0  0  0  0
   46.0366   35.0703   41.3772 H   0  0  0  0  0  0  0  0  0  0  0  0
   49.0519   35.3079   43.0218 H   0  0  0  0  0  0  0  0  0  0  0  0
   47.8338   32.8046   42.5290 H   0  0  0  0  0  0  0  0  0  0  0  0
   48.0185   32.9553   40.9816 H   0  0  0  0  0  0  0  0  0  0  0  0
   49.5811   36.6319   41.6178 H   0  0  0  0  0  0  0  0  0  0  0  0
   49.6608   35.2087   40.5247 H   0  0  0  0  0  0  0  0  0  0  0  0
   48.2048   36.2608   40.5247 H   0  0  0  0  0  0  0  0  0  0  0  0
  1  6  1  0
  1  2  2  0
  2  3  1  0
  3  4  2  0
  5  4  1  0
  6  5  2  0
  7  8  1  0
  7  1  1  0
  9  7  1  0
  9  8  1  0
 10  8  1  0
  2 11  1  0
  3 12  1  0
  5 13  1  0
  7 14  1  6
  8 15  1  1
  9 16  1  0
  9 17  1  0
 10 18  1  0
 10 19  1  0
 10 20  1  0
M  ISO  8  11  14  12  14  13  14  14  13  15  13  16  13  17  13  18   8
M  ISO  2  19   8  20   8
M  END
>  <minimizedAffinity>  (1) 
-4.16722298

>  <minimizedRMSD>  (1) 
3.66943145

$$$$
