
     RDKit          3D

 19 20  0  0  1  0  0  0  0  0999 V2000
   44.8040   34.6060   43.6080 C   0  0  1  0  0  0  0  0  0  0  0  0
   45.6040   35.8890   43.2410 C   0  0  1  0  0  0  0  0  0  0  0  0
   45.1950   34.8770   42.2440 C   0  0  0  0  0  0  0  0  0  0  0  0
   45.5730   33.7020   44.5020 C   0  0  0  0  0  0  0  0  0  0  0  0
   46.4130   32.7220   43.9170 C   0  0  0  0  0  0  0  0  0  0  0  0
   47.1510   31.8850   44.7540 C   0  0  0  0  0  0  0  0  0  0  0  0
   47.0090   32.0730   46.1040 N   0  0  0  0  0  0  0  0  0  0  0  0
   46.1940   33.0220   46.6250 C   0  0  0  0  0  0  0  0  0  0  0  0
   45.4840   33.8270   45.8440 N   0  0  0  0  0  0  0  0  0  0  0  0
   44.8230   37.1070   43.2230 N   0  0  0  0  0  0  0  0  0  0  0  0
   43.8368   34.3061   44.0376 H   0  0  0  0  0  0  0  0  0  0  0  0
   46.5450   36.3610   43.5599 H   0  0  0  0  0  0  0  0  0  0  0  0
   44.4224   35.1329   41.5039 H   0  0  0  0  0  0  0  0  0  0  0  0
   45.7490   34.2966   41.4915 H   0  0  0  0  0  0  0  0  0  0  0  0
   46.4818   32.6232   42.8236 H   0  0  0  0  0  0  0  0  0  0  0  0
   47.8170   31.1090   44.3487 H   0  0  0  0  0  0  0  0  0  0  0  0
   46.1192   33.1274   47.7174 H   0  0  0  0  0  0  0  0  0  0  0  0
   44.6312   37.4062   44.1897 H   0  0  0  0  0  0  0  0  0  0  0  0
   45.3489   37.8449   42.7332 H   0  0  0  0  0  0  0  0  0  0  0  0
  1  4  1  0
  2  1  1  0
  3  2  1  0
  3  1  1  0
  4  9  1  0
  5  4  2  0
  5  6  1  0
  6  7  2  0
  7  8  1  0
  9  8  2  0
 10  2  1  0
  1 11  1  6
  2 12  1  1
  3 13  1  0
  3 14  1  0
  5 15  1  0
  6 16  1  0
  8 17  1  0
 10 18  1  0
 10 19  1  0
M  ISO  8  11  13  12  13  13  13  14  13  15  14  16  14  17  14  18   5
M  ISO  1  19   5
M  END
>  <minimizedAffinity>  (1) 
-3.16798997

>  <minimizedRMSD>  (1) 
0.907495022

$$$$
