
     RDKit          3D

 36 38  0  0  1  0  0  0  0  0999 V2000
   46.2330   32.8300   43.5560 C   0  0  0  0  0  0  0  0  0  0  0  0
   47.0100   31.8840   42.8330 C   0  0  0  0  0  0  0  0  0  0  0  0
   47.8070   30.9510   43.4970 C   0  0  0  0  0  0  0  0  0  0  0  0
   47.7890   31.0110   44.8620 N   0  0  0  0  0  0  0  0  0  0  0  0
   47.0300   31.9360   45.5230 C   0  0  0  0  0  0  0  0  0  0  0  0
   46.2770   32.8140   44.8790 N   0  0  0  0  0  0  0  0  0  0  0  0
   45.4160   33.7970   42.8070 C   0  0  1  0  0  0  0  0  0  0  0  0
   45.9680   35.2510   42.9560 C   0  0  1  0  0  0  0  0  0  0  0  0
   45.8610   34.5110   41.6530 C   0  0  0  0  0  0  0  0  0  0  0  0
   44.8950   36.2880   43.1840 C   0  0  0  0  0  0  0  0  0  0  0  0
   45.4050   37.5660   43.2570 F   0  0  0  0  0  0  0  0  0  0  0  0
   44.0170   36.2560   42.0890 F   0  0  0  0  0  0  0  0  0  0  0  0
   44.1370   35.9780   44.2910 F   0  0  0  0  0  0  0  0  0  0  0  0
   47.0340   31.9740   47.0120 C   0  0  0  0  0  0  0  0  0  0  0  0
   47.3350   30.6580   47.6500 C   0  0  0  0  0  0  0  0  0  0  0  0
   46.0880   29.8570   47.9740 C   0  0  0  0  0  0  0  0  0  0  0  0
   45.1780   30.5750   48.9510 C   0  0  0  0  0  0  0  0  0  0  0  0
   45.4800   32.0620   48.9670 C   0  0  0  0  0  0  0  0  0  0  0  0
   45.6840   32.4710   47.5340 C   0  0  0  0  0  0  0  0  0  0  0  0
   46.9824   31.8877   41.7334 H   0  0  0  0  0  0  0  0  0  0  0  0
   48.4136   30.2113   42.9541 H   0  0  0  0  0  0  0  0  0  0  0  0
   44.4959   33.2140   42.9604 H   0  0  0  0  0  0  0  0  0  0  0  0
   46.7595   35.7642   43.5218 H   0  0  0  0  0  0  0  0  0  0  0  0
   46.7796   34.1872   41.1418 H   0  0  0  0  0  0  0  0  0  0  0  0
   45.3877   34.7511   40.6895 H   0  0  0  0  0  0  0  0  0  0  0  0
   47.8448   32.6648   47.2865 H   0  0  0  0  0  0  0  0  0  0  0  0
   47.9604   30.0699   46.9622 H   0  0  0  0  0  0  0  0  0  0  0  0
   47.8502   30.8632   48.6000 H   0  0  0  0  0  0  0  0  0  0  0  0
   45.5327   29.6754   47.0420 H   0  0  0  0  0  0  0  0  0  0  0  0
   46.4070   28.9146   48.4431 H   0  0  0  0  0  0  0  0  0  0  0  0
   44.1312   30.4218   48.6497 H   0  0  0  0  0  0  0  0  0  0  0  0
   45.3471   30.1676   49.9587 H   0  0  0  0  0  0  0  0  0  0  0  0
   44.6366   32.6165   49.4042 H   0  0  0  0  0  0  0  0  0  0  0  0
   46.3708   32.2808   49.5741 H   0  0  0  0  0  0  0  0  0  0  0  0
   45.6527   33.5684   47.4646 H   0  0  0  0  0  0  0  0  0  0  0  0
   44.8850   32.0249   46.9237 H   0  0  0  0  0  0  0  0  0  0  0  0
  1  6  2  0
  2  3  2  0
  2  1  1  0
  3  4  1  0
  4  5  2  0
  5 14  1  0
  6  5  1  0
  7  8  1  0
  7  1  1  0
  8 10  1  0
  9  7  1  0
  9  8  1  0
 10 11  1  0
 10 13  1  0
 12 10  1  0
 14 19  1  0
 14 15  1  0
 15 16  1  0
 16 17  1  0
 17 18  1  0
 19 18  1  0
  2 20  1  0
  3 21  1  0
  7 22  1  6
  8 23  1  1
  9 24  1  0
  9 25  1  0
 14 26  1  0
 15 27  1  0
 15 28  1  0
 16 29  1  0
 16 30  1  0
 17 31  1  0
 17 32  1  0
 18 33  1  0
 18 34  1  0
 19 35  1  0
 19 36  1  0
M  ISO  8  20  14  21  14  22  13  23  13  24  13  25  13  26  13  27  13
M  ISO  8  28  13  29  13  30  13  31  13  32  13  33  13  34  13  35  13
M  ISO  1  36  13
M  END
>  <minimizedAffinity>  (1) 
-5.29862928

>  <minimizedRMSD>  (1) 
1.66217422

$$$$
