
     RDKit          3D

 40 43  0  0  1  0  0  0  0  0999 V2000
   47.0820   34.0530   42.5050 C   0  0  2  0  0  0  0  0  0  0  0  0
   48.4890   34.4990   42.6870 C   0  0  0  0  0  0  0  0  0  0  0  0
   48.9170   35.5130   41.6940 C   0  0  0  0  0  0  0  0  0  0  0  0
   48.6890   35.0990   40.2610 C   0  0  0  0  0  0  0  0  0  0  0  0
   47.4030   34.3380   40.0490 C   0  0  0  0  0  0  0  0  0  0  0  0
   46.4560   34.4810   41.2100 C   0  0  1  0  0  0  0  0  0  0  0  0
   46.2050   34.4670   43.6210 C   0  0  0  0  0  0  0  0  0  0  0  0
   45.5130   35.6600   43.3990 C   0  0  0  0  0  0  0  0  0  0  0  0
   44.6450   36.1560   44.3840 C   0  0  0  0  0  0  0  0  0  0  0  0
   44.5420   35.3930   45.5390 N   0  0  0  0  0  0  0  0  0  0  0  0
   45.2300   34.2430   45.7150 C   0  0  0  0  0  0  0  0  0  0  0  0
   46.0530   33.7970   44.7500 N   0  0  0  0  0  0  0  0  0  0  0  0
   45.2960   33.5530   40.9490 C   0  0  2  0  0  0  0  0  0  0  0  0
   44.9130   33.2610   39.5170 C   0  0  0  0  0  0  0  0  0  0  0  0
   44.0150   34.0410   40.3940 C   0  0  1  0  0  0  0  0  0  0  0  0
   42.7750   33.4870   41.0180 C   0  0  0  0  0  0  0  0  0  0  0  0
   41.5970   34.3390   41.3000 C   0  0  0  0  0  0  0  0  0  0  0  0
   41.5240   33.2550   40.2430 C   0  0  0  0  0  0  0  0  0  0  0  0
   47.1634   32.9562   42.4869 H   0  0  0  0  0  0  0  0  0  0  0  0
   48.5905   34.9315   43.6933 H   0  0  0  0  0  0  0  0  0  0  0  0
   49.1306   33.6164   42.5478 H   0  0  0  0  0  0  0  0  0  0  0  0
   48.3544   36.4397   41.8806 H   0  0  0  0  0  0  0  0  0  0  0  0
   50.0018   35.6453   41.8196 H   0  0  0  0  0  0  0  0  0  0  0  0
   48.6640   36.0047   39.6372 H   0  0  0  0  0  0  0  0  0  0  0  0
   49.5125   34.4237   39.9855 H   0  0  0  0  0  0  0  0  0  0  0  0
   46.9112   34.7203   39.1423 H   0  0  0  0  0  0  0  0  0  0  0  0
   47.6555   33.2719   39.9503 H   0  0  0  0  0  0  0  0  0  0  0  0
   46.1618   35.5374   41.2965 H   0  0  0  0  0  0  0  0  0  0  0  0
   45.6480   36.2088   42.4553 H   0  0  0  0  0  0  0  0  0  0  0  0
   44.0815   37.0910   44.2492 H   0  0  0  0  0  0  0  0  0  0  0  0
   45.1165   33.6718   46.6482 H   0  0  0  0  0  0  0  0  0  0  0  0
   45.5680   32.9697   41.8411 H   0  0  0  0  0  0  0  0  0  0  0  0
   44.6397   32.2388   39.2162 H   0  0  0  0  0  0  0  0  0  0  0  0
   45.3801   33.4224   38.5343 H   0  0  0  0  0  0  0  0  0  0  0  0
   43.5093   35.0053   40.2375 H   0  0  0  0  0  0  0  0  0  0  0  0
   43.4297   32.8447   41.6253 H   0  0  0  0  0  0  0  0  0  0  0  0
   41.0476   34.2241   42.2460 H   0  0  0  0  0  0  0  0  0  0  0  0
   41.4046   35.4218   41.3215 H   0  0  0  0  0  0  0  0  0  0  0  0
   41.4759   33.5243   39.1776 H   0  0  0  0  0  0  0  0  0  0  0  0
   40.8705   32.3914   40.0503 H   0  0  0  0  0  0  0  0  0  0  0  0
  1  2  1  0
  1  7  1  0
  3  2  1  0
  4  3  1  0
  5  4  1  0
  5  6  1  0
  6  1  1  0
  7 12  1  0
  8  7  2  0
  8  9  1  0
  9 10  2  0
 10 11  1  0
 12 11  2  0
 13  6  1  0
 14 15  1  0
 14 13  1  0
 15 13  1  0
 15 16  1  0
 16 17  1  0
 18 16  1  0
 18 17  1  0
  1 19  1  6
  2 20  1  0
  2 21  1  0
  3 22  1  0
  3 23  1  0
  4 24  1  0
  4 25  1  0
  5 26  1  0
  5 27  1  0
  6 28  1  1
  8 29  1  0
  9 30  1  0
 11 31  1  0
 13 32  1  1
 14 33  1  0
 14 34  1  0
 15 35  1  6
 16 36  1  0
 17 37  1  0
 17 38  1  0
 18 39  1  0
 18 40  1  0
M  ISO  8  19  13  20  13  21  13  22  13  23  13  24  13  25  13  26  13
M  ISO  8  27  13  28  13  29  14  30  14  31  14  32  13  33  13  34  13
M  ISO  6  35  13  36  13  37  13  38  13  39  13  40  13
M  END
>  <minimizedAffinity>  (1) 
-5.58811903

>  <minimizedRMSD>  (1) 
1.04157615

$$$$
