
     RDKit          3D

 31 33  0  0  1  0  0  0  0  0999 V2000
   46.4380   32.9580   39.3090 C   0  0  0  0  0  0  0  0  0  0  0  0
   46.3510   31.5550   39.4700 C   0  0  0  0  0  0  0  0  0  0  0  0
   45.1260   30.8860   39.3070 C   0  0  0  0  0  0  0  0  0  0  0  0
   44.0550   31.6680   38.9920 N   0  0  0  0  0  0  0  0  0  0  0  0
   44.1830   33.0140   38.8460 C   0  0  0  0  0  0  0  0  0  0  0  0
   45.3350   33.6460   38.9980 N   0  0  0  0  0  0  0  0  0  0  0  0
   47.7480   33.5970   39.5090 C   0  0  1  0  0  0  0  0  0  0  0  0
   47.9960   33.9060   41.0320 C   0  0  1  0  0  0  0  0  0  0  0  0
   48.8540   33.0110   40.1660 C   0  0  0  0  0  0  0  0  0  0  0  0
   48.6000   35.2660   41.2850 C   0  0  0  0  0  0  0  0  0  0  0  0
   47.8450   36.0540   42.1040 F   0  0  0  0  0  0  0  0  0  0  0  0
   49.8560   35.0910   41.8990 F   0  0  0  0  0  0  0  0  0  0  0  0
   48.8830   35.9100   40.0890 F   0  0  0  0  0  0  0  0  0  0  0  0
   43.0010   33.6730   38.5270 O   0  0  0  0  0  0  0  0  0  0  0  0
   41.0040   35.2620   37.5620 F   0  0  0  0  0  0  0  0  0  0  0  0
   41.3120   35.1810   38.8980 C   0  0  0  0  0  0  0  0  0  0  0  0
   42.3140   34.3960   39.4790 C   0  0  0  0  0  0  0  0  0  0  0  0
   42.4620   34.4580   40.8410 C   0  0  0  0  0  0  0  0  0  0  0  0
   41.6540   35.2600   41.6040 C   0  0  0  0  0  0  0  0  0  0  0  0
   40.6640   36.0370   41.0440 C   0  0  0  0  0  0  0  0  0  0  0  0
   40.4990   35.9890   39.6730 C   0  0  0  0  0  0  0  0  0  0  0  0
   47.2536   30.9807   39.7260 H   0  0  0  0  0  0  0  0  0  0  0  0
   45.0368   29.7962   39.4265 H   0  0  0  0  0  0  0  0  0  0  0  0
   47.7105   34.0912   38.5270 H   0  0  0  0  0  0  0  0  0  0  0  0
   47.4385   33.8283   41.9770 H   0  0  0  0  0  0  0  0  0  0  0  0
   48.8542   31.9267   40.3512 H   0  0  0  0  0  0  0  0  0  0  0  0
   49.9315   32.9945   39.9454 H   0  0  0  0  0  0  0  0  0  0  0  0
   43.2416   33.8544   41.3288 H   0  0  0  0  0  0  0  0  0  0  0  0
   41.8001   35.2839   42.6940 H   0  0  0  0  0  0  0  0  0  0  0  0
   40.0239   36.6766   41.6695 H   0  0  0  0  0  0  0  0  0  0  0  0
   39.7167   36.5967   39.1948 H   0  0  0  0  0  0  0  0  0  0  0  0
  1  2  2  0
  1  7  1  0
  3  2  1  0
  4  3  2  0
  5  4  1  0
  5  6  2  0
  6  1  1  0
  7  9  1  0
  7  8  1  0
  8 10  1  0
  9  8  1  0
 10 12  1  0
 10 11  1  0
 13 10  1  0
 14  5  1  0
 14 17  1  0
 15 16  1  0
 16 17  2  0
 16 21  1  0
 17 18  1  0
 18 19  2  0
 20 19  1  0
 21 20  2  0
  2 22  1  0
  3 23  1  0
  7 24  1  6
  8 25  1  1
  9 26  1  0
  9 27  1  0
 18 28  1  0
 19 29  1  0
 20 30  1  0
 21 31  1  0
M  ISO  8  22  14  23  14  24  13  25  13  26  13  27  13  28  14  29  14
M  ISO  2  30  14  31  14
M  END
>  <minimizedAffinity>  (1) 
-5.12701797

>  <minimizedRMSD>  (1) 
8.94113064

$$$$
