
     RDKit          3D

 21 22  0  0  1  0  0  0  0  0999 V2000
   45.2310   33.5750   43.7160 C   0  0  1  0  0  0  0  0  0  0  0  0
   45.8510   34.9920   43.4750 C   0  0  1  0  0  0  0  0  0  0  0  0
   45.8420   33.8820   42.4610 C   0  0  0  0  0  0  0  0  0  0  0  0
   45.9010   32.8670   44.8180 C   0  0  0  0  0  0  0  0  0  0  0  0
   46.7200   31.7470   44.4980 C   0  0  0  0  0  0  0  0  0  0  0  0
   47.3870   31.0440   45.5060 C   0  0  0  0  0  0  0  0  0  0  0  0
   47.1980   31.5020   46.7850 N   0  0  0  0  0  0  0  0  0  0  0  0
   46.4050   32.5780   47.0430 C   0  0  0  0  0  0  0  0  0  0  0  0
   45.7750   33.2400   46.0830 N   0  0  0  0  0  0  0  0  0  0  0  0
   46.3300   32.9010   48.4010 O   0  0  0  0  0  0  0  0  0  0  0  0
   44.8150   36.0670   43.2390 C   0  0  0  0  0  0  0  0  0  0  0  0
   45.3690   37.3290   43.2210 F   0  0  0  0  0  0  0  0  0  0  0  0
   44.2360   35.8500   41.9810 F   0  0  0  0  0  0  0  0  0  0  0  0
   43.7920   35.9710   44.1550 F   0  0  0  0  0  0  0  0  0  0  0  0
   44.2657   33.0928   43.9296 H   0  0  0  0  0  0  0  0  0  0  0  0
   46.6061   35.6394   43.9448 H   0  0  0  0  0  0  0  0  0  0  0  0
   45.2107   33.9777   41.5653 H   0  0  0  0  0  0  0  0  0  0  0  0
   46.6346   33.3959   41.8732 H   0  0  0  0  0  0  0  0  0  0  0  0
   46.8288   31.4324   43.4496 H   0  0  0  0  0  0  0  0  0  0  0  0
   48.0252   30.1754   45.2863 H   0  0  0  0  0  0  0  0  0  0  0  0
   45.7790   33.6681   48.6977 H   0  0  0  0  0  0  0  0  0  0  0  0
  1  4  1  0
  2  1  1  0
  3  2  1  0
  3  1  1  0
  4  9  1  0
  5  4  2  0
  5  6  1  0
  6  7  2  0
  7  8  1  0
  8 10  1  0
  9  8  2  0
 11  2  1  0
 11 14  1  0
 12 11  1  0
 13 11  1  0
  1 15  1  6
  2 16  1  1
  3 17  1  0
  3 18  1  0
  5 19  1  0
  6 20  1  0
 10 21  1  0
M  ISO  7  15  13  16  13  17  13  18  13  19  14  20  14  21   3
M  END
>  <minimizedAffinity>  (1) 
-4.27531624

>  <minimizedRMSD>  (1) 
0.195184812

$$$$
