
     RDKit          3D

 23 24  0  0  0  0  0  0  0  0999 V2000
   44.5970   35.4490   45.1640 C   0  0  0  0  0  0  0  0  0  0  0  0
   45.3150   35.1240   44.0220 C   0  0  0  0  0  0  0  0  0  0  0  0
   46.1110   33.9850   44.0640 C   0  0  0  0  0  0  0  0  0  0  0  0
   46.1420   33.2580   45.2030 N   0  0  0  0  0  0  0  0  0  0  0  0
   45.4290   33.6080   46.2910 C   0  0  0  0  0  0  0  0  0  0  0  0
   44.6570   34.6950   46.2840 N   0  0  0  0  0  0  0  0  0  0  0  0
   45.1680   36.0350   42.8500 C   0  0  0  0  0  0  0  0  0  0  0  0
   45.2460   37.3230   43.3490 F   0  0  0  0  0  0  0  0  0  0  0  0
   43.9510   35.8040   42.2660 F   0  0  0  0  0  0  0  0  0  0  0  0
   46.2110   35.7440   41.9690 F   0  0  0  0  0  0  0  0  0  0  0  0
   45.4670   32.8550   47.4620 O   0  0  0  0  0  0  0  0  0  0  0  0
   46.3360   31.8320   47.7190 C   0  0  0  0  0  0  0  0  0  0  0  0
   47.4720   32.2690   48.4100 C   0  0  0  0  0  0  0  0  0  0  0  0
   48.4860   31.4010   48.7740 C   0  0  0  0  0  0  0  0  0  0  0  0
   48.4000   30.0580   48.4620 C   0  0  0  0  0  0  0  0  0  0  0  0
   47.2590   29.6810   47.7800 C   0  0  0  0  0  0  0  0  0  0  0  0
   46.2700   30.5100   47.4210 N   0  0  0  0  0  0  0  0  0  0  0  0
   43.9606   36.3462   45.1576 H   0  0  0  0  0  0  0  0  0  0  0  0
   46.7034   33.6817   43.1882 H   0  0  0  0  0  0  0  0  0  0  0  0
   47.5612   33.3338   48.6713 H   0  0  0  0  0  0  0  0  0  0  0  0
   49.3650   31.7821   49.3145 H   0  0  0  0  0  0  0  0  0  0  0  0
   49.1853   29.3387   48.7374 H   0  0  0  0  0  0  0  0  0  0  0  0
   47.1549   28.6194   47.5114 H   0  0  0  0  0  0  0  0  0  0  0  0
  1  6  2  0
  2  3  2  0
  2  1  1  0
  3  4  1  0
  4  5  2  0
  5 11  1  0
  6  5  1  0
  7  8  1  0
  7  2  1  0
  9  7  1  0
 10  7  1  0
 11 12  1  0
 12 13  2  0
 13 14  1  0
 15 14  2  0
 16 15  1  0
 17 12  1  0
 17 16  2  0
  1 18  1  0
  3 19  1  0
 13 20  1  0
 14 21  1  0
 15 22  1  0
 16 23  1  0
M  ISO  6  18  14  19  14  20  14  21  14  22  14  23  14
M  END
>  <minimizedAffinity>  (1) 
-4.97464466

>  <minimizedRMSD>  (1) 
1.03287852

$$$$
