
     RDKit          3D

 34 36  0  0  1  0  0  0  0  0999 V2000
   47.1980   34.0720   42.4600 C   0  0  2  0  0  0  0  0  0  0  0  0
   48.5450   34.6940   42.5750 C   0  0  0  0  0  0  0  0  0  0  0  0
   48.8320   35.6720   41.4960 C   0  0  0  0  0  0  0  0  0  0  0  0
   48.6370   35.1160   40.1060 C   0  0  0  0  0  0  0  0  0  0  0  0
   47.4510   34.2000   39.9830 C   0  0  0  0  0  0  0  0  0  0  0  0
   46.5100   34.3120   41.1520 C   0  0  1  0  0  0  0  0  0  0  0  0
   46.2940   34.4660   43.5590 C   0  0  0  0  0  0  0  0  0  0  0  0
   45.6080   35.6620   43.3440 C   0  0  0  0  0  0  0  0  0  0  0  0
   44.7140   36.1430   44.3120 C   0  0  0  0  0  0  0  0  0  0  0  0
   44.5810   35.3590   45.4500 N   0  0  0  0  0  0  0  0  0  0  0  0
   45.2620   34.2060   45.6230 C   0  0  0  0  0  0  0  0  0  0  0  0
   46.1130   33.7740   44.6710 N   0  0  0  0  0  0  0  0  0  0  0  0
   45.4640   33.2380   40.9900 C   0  0  2  0  0  0  0  0  0  0  0  0
   44.4880   33.3570   39.8380 C   0  0  0  0  0  0  0  0  0  0  0  0
   44.0310   33.4970   41.2400 C   0  0  1  0  0  0  0  0  0  0  0  0
   43.2850   32.4610   41.7930 O   0  0  0  0  0  0  0  0  0  0  0  0
   47.4103   32.9947   42.5263 H   0  0  0  0  0  0  0  0  0  0  0  0
   48.6090   35.2127   43.5429 H   0  0  0  0  0  0  0  0  0  0  0  0
   49.2864   33.8859   42.4891 H   0  0  0  0  0  0  0  0  0  0  0  0
   48.1617   36.5350   41.6221 H   0  0  0  0  0  0  0  0  0  0  0  0
   49.8929   35.9482   41.5861 H   0  0  0  0  0  0  0  0  0  0  0  0
   48.4994   35.9577   39.4113 H   0  0  0  0  0  0  0  0  0  0  0  0
   49.5303   34.5192   39.8699 H   0  0  0  0  0  0  0  0  0  0  0  0
   46.9030   34.4546   39.0639 H   0  0  0  0  0  0  0  0  0  0  0  0
   47.8288   33.1672   39.9570 H   0  0  0  0  0  0  0  0  0  0  0  0
   46.0901   35.3286   41.1634 H   0  0  0  0  0  0  0  0  0  0  0  0
   45.7684   36.2281   42.4146 H   0  0  0  0  0  0  0  0  0  0  0  0
   44.1546   37.0806   44.1781 H   0  0  0  0  0  0  0  0  0  0  0  0
   45.1221   33.6183   46.5422 H   0  0  0  0  0  0  0  0  0  0  0  0
   46.1774   32.4894   41.3650 H   0  0  0  0  0  0  0  0  0  0  0  0
   44.5185   34.2353   39.1765 H   0  0  0  0  0  0  0  0  0  0  0  0
   44.2065   32.7264   38.9818 H   0  0  0  0  0  0  0  0  0  0  0  0
   43.4671   34.2678   41.7857 H   0  0  0  0  0  0  0  0  0  0  0  0
   43.3248   32.5163   42.7806 H   0  0  0  0  0  0  0  0  0  0  0  0
  1  2  1  0
  1  7  1  0
  3  2  1  0
  4  3  1  0
  5  4  1  0
  5  6  1  0
  6  1  1  0
  7 12  1  0
  8  7  2  0
  8  9  1  0
  9 10  2  0
 10 11  1  0
 12 11  2  0
 13  6  1  0
 13 15  1  0
 14 13  1  0
 14 15  1  0
 15 16  1  0
  1 17  1  1
  2 18  1  0
  2 19  1  0
  3 20  1  0
  3 21  1  0
  4 22  1  0
  4 23  1  0
  5 24  1  0
  5 25  1  0
  6 26  1  1
  8 27  1  0
  9 28  1  0
 11 29  1  0
 13 30  1  1
 14 31  1  0
 14 32  1  0
 15 33  1  6
 16 34  1  0
M  ISO  8  17  13  18  13  19  13  20  13  21  13  22  13  23  13  24  13
M  ISO  8  25  13  26  13  27  14  28  14  29  14  30  13  31  13  32  13
M  ISO  2  33  13  34   3
M  END
>  <minimizedAffinity>  (1) 
-5.3046298

>  <minimizedRMSD>  (1) 
0.0373818167

$$$$
