
     RDKit          3D

 14 14  0  0  0  0  0  0  0  0999 V2000
   44.9190   35.1140   44.9440 C   0  0  0  0  0  0  0  0  0  0  0  0
   45.8270   34.7580   43.9480 C   0  0  0  0  0  0  0  0  0  0  0  0
   46.6840   33.6890   44.2120 C   0  0  0  0  0  0  0  0  0  0  0  0
   46.5990   33.0570   45.4030 N   0  0  0  0  0  0  0  0  0  0  0  0
   45.7050   33.4340   46.3430 C   0  0  0  0  0  0  0  0  0  0  0  0
   44.8650   34.4530   46.1290 N   0  0  0  0  0  0  0  0  0  0  0  0
   45.7920   35.5540   42.6870 C   0  0  0  0  0  0  0  0  0  0  0  0
   45.3430   36.8050   43.0320 F   0  0  0  0  0  0  0  0  0  0  0  0
   44.9160   34.9360   41.8190 F   0  0  0  0  0  0  0  0  0  0  0  0
   47.0750   35.5560   42.1610 F   0  0  0  0  0  0  0  0  0  0  0  0
   45.6210   32.7790   47.5700 O   0  0  0  0  0  0  0  0  0  0  0  0
   44.2287   35.9516   44.7655 H   0  0  0  0  0  0  0  0  0  0  0  0
   47.4190   33.3652   43.4604 H   0  0  0  0  0  0  0  0  0  0  0  0
   44.9578   33.0730   48.2437 H   0  0  0  0  0  0  0  0  0  0  0  0
  1  6  2  0
  2  3  2  0
  2  1  1  0
  3  4  1  0
  4  5  2  0
  5 11  1  0
  6  5  1  0
  7  8  1  0
  7  2  1  0
  9  7  1  0
 10  7  1  0
  1 12  1  0
  3 13  1  0
 11 14  1  0
M  ISO  3  12  14  13  14  14   3
M  END
>  <minimizedAffinity>  (1) 
-3.93905044

>  <minimizedRMSD>  (1) 
0.13868849

$$$$
