
     RDKit          3D

 20 20  0  0  0  0  0  0  0  0999 V2000
   45.1330   34.7960   44.9690 C   0  0  0  0  0  0  0  0  0  0  0  0
   45.9970   34.5830   43.9080 C   0  0  0  0  0  0  0  0  0  0  0  0
   46.9370   33.5590   44.0440 C   0  0  0  0  0  0  0  0  0  0  0  0
   46.9640   32.8350   45.1800 N   0  0  0  0  0  0  0  0  0  0  0  0
   46.1070   33.0700   46.1900 C   0  0  0  0  0  0  0  0  0  0  0  0
   45.1960   34.0370   46.0990 N   0  0  0  0  0  0  0  0  0  0  0  0
   45.8450   35.4630   42.7230 C   0  0  0  0  0  0  0  0  0  0  0  0
   47.0930   35.6230   42.1940 F   0  0  0  0  0  0  0  0  0  0  0  0
   45.3340   36.6720   43.1500 F   0  0  0  0  0  0  0  0  0  0  0  0
   44.9550   34.8470   41.8520 F   0  0  0  0  0  0  0  0  0  0  0  0
   46.1570   32.3070   47.3500 O   0  0  0  0  0  0  0  0  0  0  0  0
   45.0540   31.9710   48.1330 C   0  0  0  0  0  0  0  0  0  0  0  0
   45.3710   31.3570   49.4570 C   0  0  0  0  0  0  0  0  0  0  0  0
   44.3800   35.5947   44.8982 H   0  0  0  0  0  0  0  0  0  0  0  0
   47.6479   33.3458   43.2321 H   0  0  0  0  0  0  0  0  0  0  0  0
   44.4746   32.8883   48.3144 H   0  0  0  0  0  0  0  0  0  0  0  0
   44.5034   31.2046   47.5677 H   0  0  0  0  0  0  0  0  0  0  0  0
   45.0270   32.0232   50.2619 H   0  0  0  0  0  0  0  0  0  0  0  0
   44.8617   30.3858   49.5421 H   0  0  0  0  0  0  0  0  0  0  0  0
   46.4578   31.2098   49.5421 H   0  0  0  0  0  0  0  0  0  0  0  0
  1  6  2  0
  2  3  2  0
  2  1  1  0
  3  4  1  0
  4  5  2  0
  5 11  1  0
  6  5  1  0
  7  9  1  0
  7  2  1  0
  8  7  1  0
 10  7  1  0
 11 12  1  0
 12 13  1  0
  1 14  1  0
  3 15  1  0
 12 16  1  0
 12 17  1  0
 13 18  1  0
 13 19  1  0
 13 20  1  0
M  ISO  7  14  14  15  14  16   8  17   8  18   8  19   8  20   8
M  END
>  <minimizedAffinity>  (1) 
-4.29740191

>  <minimizedRMSD>  (1) 
1.52661431

$$$$
