
     RDKit          3D

 35 37  0  0  1  0  0  0  0  0999 V2000
   47.1660   34.0740   42.4840 C   0  0  2  0  0  0  0  0  0  0  0  0
   48.5210   34.6790   42.6000 C   0  0  0  0  0  0  0  0  0  0  0  0
   48.8140   35.6640   41.5300 C   0  0  0  0  0  0  0  0  0  0  0  0
   48.6530   35.0570   40.1560 C   0  0  0  0  0  0  0  0  0  0  0  0
   47.3970   34.2470   40.0010 C   0  0  0  0  0  0  0  0  0  0  0  0
   46.4760   34.3360   41.1800 C   0  0  1  0  0  0  0  0  0  0  0  0
   46.2710   34.4680   43.5900 C   0  0  0  0  0  0  0  0  0  0  0  0
   45.5830   35.6620   43.3760 C   0  0  0  0  0  0  0  0  0  0  0  0
   44.6960   36.1440   44.3490 C   0  0  0  0  0  0  0  0  0  0  0  0
   44.5710   35.3630   45.4910 N   0  0  0  0  0  0  0  0  0  0  0  0
   45.2570   34.2110   45.6640 C   0  0  0  0  0  0  0  0  0  0  0  0
   46.1000   33.7790   44.7050 N   0  0  0  0  0  0  0  0  0  0  0  0
   45.4250   33.2640   41.0140 C   0  0  2  0  0  0  0  0  0  0  0  0
   44.5750   33.2930   39.7590 C   0  0  0  0  0  0  0  0  0  0  0  0
   43.9820   33.5660   41.0890 C   0  0  1  0  0  0  0  0  0  0  0  0
   43.1310   32.4410   41.6080 C   0  0  0  0  0  0  0  0  0  0  0  0
   41.9140   32.4800   41.5190 O   0  0  0  0  0  0  0  0  0  0  0  0
   47.3652   32.9936   42.5390 H   0  0  0  0  0  0  0  0  0  0  0  0
   48.5951   35.1870   43.5729 H   0  0  0  0  0  0  0  0  0  0  0  0
   49.2528   33.8635   42.5033 H   0  0  0  0  0  0  0  0  0  0  0  0
   48.1225   36.5139   41.6281 H   0  0  0  0  0  0  0  0  0  0  0  0
   49.8580   35.9921   41.6410 H   0  0  0  0  0  0  0  0  0  0  0  0
   48.6359   35.8706   39.4159 H   0  0  0  0  0  0  0  0  0  0  0  0
   49.5001   34.3719   40.0041 H   0  0  0  0  0  0  0  0  0  0  0  0
   46.8589   34.6066   39.1115 H   0  0  0  0  0  0  0  0  0  0  0  0
   47.7017   33.1941   39.9086 H   0  0  0  0  0  0  0  0  0  0  0  0
   46.0661   35.3564   41.2084 H   0  0  0  0  0  0  0  0  0  0  0  0
   45.7362   36.2256   42.4439 H   0  0  0  0  0  0  0  0  0  0  0  0
   44.1349   37.0808   44.2165 H   0  0  0  0  0  0  0  0  0  0  0  0
   45.1273   33.6265   46.5868 H   0  0  0  0  0  0  0  0  0  0  0  0
   46.0760   32.5426   41.5296 H   0  0  0  0  0  0  0  0  0  0  0  0
   44.6943   34.1074   39.0293 H   0  0  0  0  0  0  0  0  0  0  0  0
   44.3669   32.5922   38.9370 H   0  0  0  0  0  0  0  0  0  0  0  0
   43.3954   34.3881   41.5250 H   0  0  0  0  0  0  0  0  0  0  0  0
   43.6121   31.5691   42.0752 H   0  0  0  0  0  0  0  0  0  0  0  0
  1  2  1  0
  1  7  1  0
  3  2  1  0
  4  3  1  0
  5  4  1  0
  5  6  1  0
  6  1  1  0
  7 12  1  0
  8  7  2  0
  8  9  1  0
  9 10  2  0
 10 11  1  0
 12 11  2  0
 13 15  1  0
 13  6  1  0
 14 13  1  0
 14 15  1  0
 15 16  1  0
 17 16  2  0
  1 18  1  1
  2 19  1  0
  2 20  1  0
  3 21  1  0
  3 22  1  0
  4 23  1  0
  4 24  1  0
  5 25  1  0
  5 26  1  0
  6 27  1  1
  8 28  1  0
  9 29  1  0
 11 30  1  0
 13 31  1  1
 14 32  1  0
 14 33  1  0
 15 34  1  6
 16 35  1  0
M  ISO  8  18  13  19  13  20  13  21  13  22  13  23  13  24  13  25  13
M  ISO  8  26  13  27  13  28  14  29  14  30  14  31  13  32  13  33  13
M  ISO  2  34  13  35   6
M  END
>  <minimizedAffinity>  (1) 
-5.2378931

>  <minimizedRMSD>  (1) 
0.183154836

$$$$
