
     RDKit          3D

 30 31  0  0  0  0  0  0  0  0999 V2000
   46.1840   32.2000   48.2920 C   0  0  0  0  0  0  0  0  0  0  0  0
   47.2640   30.0370   47.9770 C   0  0  0  0  0  0  0  0  0  0  0  0
   46.0820   30.7680   47.9170 C   0  0  0  0  0  0  0  0  0  0  0  0
   44.9170   30.1470   47.5200 C   0  0  0  0  0  0  0  0  0  0  0  0
   44.8360   28.8180   47.1690 C   0  0  0  0  0  0  0  0  0  0  0  0
   46.0080   28.0570   47.2180 C   0  0  0  0  0  0  0  0  0  0  0  0
   47.1540   28.7070   47.6190 C   0  0  0  0  0  0  0  0  0  0  0  0
   48.8280   30.6040   48.4480 S   0  0  0  0  0  0  0  0  0  0  0  0
   49.9330   29.7620   47.8690 O   0  0  0  0  0  0  0  0  0  0  0  0
   48.9670   30.5560   49.9630 O   0  0  0  0  0  0  0  0  0  0  0  0
   45.1520   32.9950   47.7400 O   0  0  0  0  0  0  0  0  0  0  0  0
   44.6330   35.4230   45.1910 C   0  0  0  0  0  0  0  0  0  0  0  0
   45.4760   35.0120   44.1640 C   0  0  0  0  0  0  0  0  0  0  0  0
   46.2440   33.8520   44.3770 C   0  0  0  0  0  0  0  0  0  0  0  0
   46.1300   33.1970   45.5570 N   0  0  0  0  0  0  0  0  0  0  0  0
   45.2920   33.6400   46.5240 C   0  0  0  0  0  0  0  0  0  0  0  0
   44.5550   34.7350   46.3460 N   0  0  0  0  0  0  0  0  0  0  0  0
   45.5100   35.8260   42.9080 C   0  0  0  0  0  0  0  0  0  0  0  0
   45.2130   37.1100   43.3130 F   0  0  0  0  0  0  0  0  0  0  0  0
   44.5290   35.3230   42.0820 F   0  0  0  0  0  0  0  0  0  0  0  0
   46.7640   35.7010   42.3490 F   0  0  0  0  0  0  0  0  0  0  0  0
   46.1377   32.2786   49.3882 H   0  0  0  0  0  0  0  0  0  0  0  0
   47.1367   32.5761   47.8910 H   0  0  0  0  0  0  0  0  0  0  0  0
   43.9972   30.7491   47.4813 H   0  0  0  0  0  0  0  0  0  0  0  0
   43.8803   28.3695   46.8601 H   0  0  0  0  0  0  0  0  0  0  0  0
   46.0144   26.9904   46.9492 H   0  0  0  0  0  0  0  0  0  0  0  0
   48.0749   28.1067   47.6583 H   0  0  0  0  0  0  0  0  0  0  0  0
   48.9383   31.8855   47.9763 H   0  0  0  0  0  0  0  0  0  0  0  0
   44.0192   36.3260   45.0575 H   0  0  0  0  0  0  0  0  0  0  0  0
   46.9264   33.4830   43.5971 H   0  0  0  0  0  0  0  0  0  0  0  0
  2  8  1  0
  3  2  2  0
  3  1  1  0
  4  3  1  0
  5  6  1  0
  5  4  2  0
  6  7  2  0
  7  2  1  0
  8 10  2  0
  9  8  2  0
 11  1  1  0
 12 17  2  0
 13 14  2  0
 13 12  1  0
 14 15  1  0
 15 16  2  0
 16 11  1  0
 17 16  1  0
 18 19  1  0
 18 13  1  0
 20 18  1  0
 21 18  1  0
  1 22  1  0
  1 23  1  0
  4 24  1  0
  5 25  1  0
  6 26  1  0
  7 27  1  0
  8 28  1  0
 12 29  1  0
 14 30  1  0
M  ISO  8  22   8  23   8  24  14  25  14  26  14  27  14  28  11  29  14
M  ISO  1  30  14
M  END
>  <minimizedAffinity>  (1) 
-5.27458954

>  <minimizedRMSD>  (1) 
1.04942703

$$$$
