
     RDKit          3D

 35 37  0  0  0  0  0  0  0  0999 V2000
   46.9010   30.4910   47.9360 C   0  0  0  0  0  0  0  0  0  0  0  0
   47.2240   29.2710   47.3890 C   0  0  0  0  0  0  0  0  0  0  0  0
   48.4120   28.6860   47.6700 C   0  0  0  0  0  0  0  0  0  0  0  0
   49.2860   29.2720   48.4700 N   0  0  0  0  0  0  0  0  0  0  0  0
   48.9970   30.4770   49.0250 C   0  0  0  0  0  0  0  0  0  0  0  0
   47.8060   31.0830   48.7560 N   0  0  0  0  0  0  0  0  0  0  0  0
   49.9430   29.1920   51.2590 F   0  0  0  0  0  0  0  0  0  0  0  0
   50.3830   30.4520   51.0280 C   0  0  0  0  0  0  0  0  0  0  0  0
   49.9540   31.1620   49.9280 C   0  0  0  0  0  0  0  0  0  0  0  0
   50.3750   32.4470   49.6520 C   0  0  0  0  0  0  0  0  0  0  0  0
   51.2760   33.0360   50.5390 C   0  0  0  0  0  0  0  0  0  0  0  0
   51.6920   32.3070   51.6350 C   0  0  0  0  0  0  0  0  0  0  0  0
   51.2730   31.0160   51.9180 C   0  0  0  0  0  0  0  0  0  0  0  0
   45.6940   31.3050   47.7800 C   0  0  0  0  0  0  0  0  0  0  0  0
   46.0960   32.6470   47.6330 O   0  0  0  0  0  0  0  0  0  0  0  0
   44.9680   34.8690   45.0990 C   0  0  0  0  0  0  0  0  0  0  0  0
   45.7900   34.5950   44.0150 C   0  0  0  0  0  0  0  0  0  0  0  0
   46.7630   33.6030   44.1870 C   0  0  0  0  0  0  0  0  0  0  0  0
   46.8610   32.9690   45.3680 N   0  0  0  0  0  0  0  0  0  0  0  0
   46.0330   33.2760   46.3900 C   0  0  0  0  0  0  0  0  0  0  0  0
   45.0970   34.2160   46.2580 N   0  0  0  0  0  0  0  0  0  0  0  0
   45.5900   35.3650   42.7430 C   0  0  0  0  0  0  0  0  0  0  0  0
   45.3110   36.6540   43.1640 F   0  0  0  0  0  0  0  0  0  0  0  0
   44.4710   34.8050   42.1260 F   0  0  0  0  0  0  0  0  0  0  0  0
   46.7160   35.2630   41.9880 F   0  0  0  0  0  0  0  0  0  0  0  0
   46.5121   28.7672   46.7186 H   0  0  0  0  0  0  0  0  0  0  0  0
   48.6535   27.7089   47.2262 H   0  0  0  0  0  0  0  0  0  0  0  0
   50.0131   32.9871   48.7647 H   0  0  0  0  0  0  0  0  0  0  0  0
   51.6465   34.0577   50.3691 H   0  0  0  0  0  0  0  0  0  0  0  0
   52.4019   32.7811   52.3287 H   0  0  0  0  0  0  0  0  0  0  0  0
   51.6309   30.4712   52.8041 H   0  0  0  0  0  0  0  0  0  0  0  0
   45.1370   30.9814   46.8884 H   0  0  0  0  0  0  0  0  0  0  0  0
   45.0394   31.1937   48.6570 H   0  0  0  0  0  0  0  0  0  0  0  0
   44.1916   35.6422   45.0020 H   0  0  0  0  0  0  0  0  0  0  0  0
   47.4424   33.3444   43.3614 H   0  0  0  0  0  0  0  0  0  0  0  0
  1  6  2  0
  2  3  2  0
  2  1  1  0
  3  4  1  0
  4  5  2  0
  5  9  1  0
  6  5  1  0
  8  7  1  0
  8 13  2  0
  9  8  1  0
 10  9  2  0
 10 11  1  0
 11 12  2  0
 12 13  1  0
 14  1  1  0
 15 14  1  0
 16 21  2  0
 17 18  2  0
 17 16  1  0
 18 19  1  0
 19 20  2  0
 20 15  1  0
 21 20  1  0
 22 23  1  0
 22 17  1  0
 24 22  1  0
 25 22  1  0
  2 26  1  0
  3 27  1  0
 10 28  1  0
 11 29  1  0
 12 30  1  0
 13 31  1  0
 14 32  1  0
 14 33  1  0
 16 34  1  0
 18 35  1  0
M  ISO  8  26  14  27  14  28  14  29  14  30  14  31  14  32   8  33   8
M  ISO  2  34  14  35  14
M  END
>  <minimizedAffinity>  (1) 
-6.0360775

>  <minimizedRMSD>  (1) 
0.839889944

$$$$
