
     RDKit          3D

 33 35  0  0  0  0  0  0  0  0999 V2000
   45.3770   31.3190   47.7490 C   0  0  0  0  0  0  0  0  0  0  0  0
   46.5430   30.4220   47.8140 C   0  0  0  0  0  0  0  0  0  0  0  0
   46.7990   29.2550   47.1450 C   0  0  0  0  0  0  0  0  0  0  0  0
   47.9570   28.5860   47.3640 C   0  0  0  0  0  0  0  0  0  0  0  0
   48.8670   29.0520   48.2350 N   0  0  0  0  0  0  0  0  0  0  0  0
   48.6280   30.1950   48.8960 C   0  0  0  0  0  0  0  0  0  0  0  0
   47.4760   30.8840   48.6940 N   0  0  0  0  0  0  0  0  0  0  0  0
   49.6320   30.7070   49.8550 C   0  0  0  0  0  0  0  0  0  0  0  0
   50.1000   31.9960   49.7040 C   0  0  0  0  0  0  0  0  0  0  0  0
   51.0470   32.4260   50.6380 C   0  0  0  0  0  0  0  0  0  0  0  0
   51.4400   31.5640   51.6200 N   0  0  0  0  0  0  0  0  0  0  0  0
   50.9340   30.3290   51.6910 C   0  0  0  0  0  0  0  0  0  0  0  0
   50.0080   29.8530   50.8090 N   0  0  0  0  0  0  0  0  0  0  0  0
   45.8620   32.6360   47.6360 O   0  0  0  0  0  0  0  0  0  0  0  0
   44.9730   34.9250   45.0630 C   0  0  0  0  0  0  0  0  0  0  0  0
   45.8540   34.6170   44.0250 C   0  0  0  0  0  0  0  0  0  0  0  0
   46.7700   33.5890   44.2430 C   0  0  0  0  0  0  0  0  0  0  0  0
   46.7700   32.9430   45.4240 N   0  0  0  0  0  0  0  0  0  0  0  0
   45.8880   33.2810   46.4070 C   0  0  0  0  0  0  0  0  0  0  0  0
   45.0030   34.2570   46.2290 N   0  0  0  0  0  0  0  0  0  0  0  0
   45.7530   35.4110   42.7550 C   0  0  0  0  0  0  0  0  0  0  0  0
   45.3030   36.6510   43.1410 F   0  0  0  0  0  0  0  0  0  0  0  0
   44.7640   34.7720   41.9900 F   0  0  0  0  0  0  0  0  0  0  0  0
   46.9530   35.4040   42.1270 F   0  0  0  0  0  0  0  0  0  0  0  0
   44.7597   31.0697   46.8733 H   0  0  0  0  0  0  0  0  0  0  0  0
   44.7546   31.2113   48.6496 H   0  0  0  0  0  0  0  0  0  0  0  0
   46.0636   28.8599   46.4287 H   0  0  0  0  0  0  0  0  0  0  0  0
   48.1541   27.6496   46.8216 H   0  0  0  0  0  0  0  0  0  0  0  0
   49.7472   32.6498   48.8928 H   0  0  0  0  0  0  0  0  0  0  0  0
   51.4677   33.4408   50.5823 H   0  0  0  0  0  0  0  0  0  0  0  0
   51.2799   29.6658   52.4975 H   0  0  0  0  0  0  0  0  0  0  0  0
   44.2383   35.7318   44.9238 H   0  0  0  0  0  0  0  0  0  0  0  0
   47.4864   33.3082   43.4569 H   0  0  0  0  0  0  0  0  0  0  0  0
  1  2  1  0
  2  7  2  0
  3  4  2  0
  3  2  1  0
  4  5  1  0
  5  6  2  0
  6  8  1  0
  7  6  1  0
  8 13  1  0
  9  8  2  0
  9 10  1  0
 10 11  2  0
 11 12  1  0
 13 12  2  0
 14  1  1  0
 15 20  2  0
 16 17  2  0
 16 15  1  0
 17 18  1  0
 18 19  2  0
 19 14  1  0
 20 19  1  0
 21 22  1  0
 21 16  1  0
 23 21  1  0
 24 21  1  0
  1 25  1  0
  1 26  1  0
  3 27  1  0
  4 28  1  0
  9 29  1  0
 10 30  1  0
 12 31  1  0
 15 32  1  0
 17 33  1  0
M  ISO  8  25   8  26   8  27  14  28  14  29  14  30  14  31  14  32  14
M  ISO  1  33  14
M  END
>  <minimizedAffinity>  (1) 
-5.81021118

>  <minimizedRMSD>  (1) 
0.869549453

$$$$
