
     RDKit          3D

 35 37  0  0  0  0  0  0  0  0999 V2000
   46.2380   30.6440   48.0030 C   0  0  0  0  0  0  0  0  0  0  0  0
   46.4300   29.4850   47.3000 C   0  0  0  0  0  0  0  0  0  0  0  0
   47.5970   28.8070   47.3970 C   0  0  0  0  0  0  0  0  0  0  0  0
   48.5850   29.2600   48.1840 N   0  0  0  0  0  0  0  0  0  0  0  0
   48.4190   30.3920   48.8820 C   0  0  0  0  0  0  0  0  0  0  0  0
   47.2510   31.0880   48.7980 N   0  0  0  0  0  0  0  0  0  0  0  0
   49.5100   30.8910   49.7510 C   0  0  0  0  0  0  0  0  0  0  0  0
   49.9980   32.1640   49.5390 C   0  0  0  0  0  0  0  0  0  0  0  0
   51.0250   32.6040   50.3750 C   0  0  0  0  0  0  0  0  0  0  0  0
   51.5000   31.7440   51.3710 C   0  0  0  0  0  0  0  0  0  0  0  0
   50.9590   30.4850   51.5200 C   0  0  0  0  0  0  0  0  0  0  0  0
   49.9430   30.0100   50.7150 C   0  0  0  0  0  0  0  0  0  0  0  0
   45.0800   31.5420   48.0620 C   0  0  0  0  0  0  0  0  0  0  0  0
   45.5500   32.8610   47.9290 O   0  0  0  0  0  0  0  0  0  0  0  0
   44.6010   35.2280   45.4430 C   0  0  0  0  0  0  0  0  0  0  0  0
   45.3600   34.8740   44.3390 C   0  0  0  0  0  0  0  0  0  0  0  0
   46.2250   33.7780   44.4720 C   0  0  0  0  0  0  0  0  0  0  0  0
   46.2790   33.1290   45.6440 N   0  0  0  0  0  0  0  0  0  0  0  0
   45.5220   33.5100   46.6930 C   0  0  0  0  0  0  0  0  0  0  0  0
   44.6870   34.5510   46.6020 N   0  0  0  0  0  0  0  0  0  0  0  0
   45.2160   35.6710   43.0820 C   0  0  0  0  0  0  0  0  0  0  0  0
   45.1780   36.9810   43.4940 F   0  0  0  0  0  0  0  0  0  0  0  0
   43.9790   35.3060   42.5280 F   0  0  0  0  0  0  0  0  0  0  0  0
   46.2430   35.3820   42.2420 F   0  0  0  0  0  0  0  0  0  0  0  0
   45.6289   29.1017   46.6509 H   0  0  0  0  0  0  0  0  0  0  0  0
   47.7369   27.8771   46.8262 H   0  0  0  0  0  0  0  0  0  0  0  0
   49.5937   32.8064   48.7428 H   0  0  0  0  0  0  0  0  0  0  0  0
   51.4537   33.6097   50.2530 H   0  0  0  0  0  0  0  0  0  0  0  0
   52.3094   32.0742   52.0387 H   0  0  0  0  0  0  0  0  0  0  0  0
   51.3529   29.8320   52.3128 H   0  0  0  0  0  0  0  0  0  0  0  0
   49.5128   29.0047   50.8350 H   0  0  0  0  0  0  0  0  0  0  0  0
   44.3838   31.3087   47.2430 H   0  0  0  0  0  0  0  0  0  0  0  0
   44.5473   31.4189   49.0165 H   0  0  0  0  0  0  0  0  0  0  0  0
   43.9122   36.0825   45.3698 H   0  0  0  0  0  0  0  0  0  0  0  0
   46.8504   33.4554   43.6266 H   0  0  0  0  0  0  0  0  0  0  0  0
  1 13  1  0
  1  6  2  0
  2  3  2  0
  2  1  1  0
  3  4  1  0
  4  5  2  0
  5  7  1  0
  6  5  1  0
  7 12  1  0
  8  7  2  0
  8  9  1  0
  9 10  2  0
 10 11  1  0
 12 11  2  0
 14 13  1  0
 15 20  2  0
 16 17  2  0
 16 15  1  0
 17 18  1  0
 18 19  2  0
 19 14  1  0
 20 19  1  0
 21 22  1  0
 21 16  1  0
 23 21  1  0
 24 21  1  0
  2 25  1  0
  3 26  1  0
  8 27  1  0
  9 28  1  0
 10 29  1  0
 11 30  1  0
 12 31  1  0
 13 32  1  0
 13 33  1  0
 15 34  1  0
 17 35  1  0
M  ISO  8  25  14  26  14  27  14  28  14  29  14  30  14  31  14  32   8
M  ISO  3  33   8  34  14  35  14
M  END
>  <minimizedAffinity>  (1) 
-5.9642396

>  <minimizedRMSD>  (1) 
0.919008851

$$$$
