
     RDKit          3D

 38 40  0  0  0  0  0  0  0  0999 V2000
   48.0370   30.1780   47.9240 C   0  0  0  0  0  0  0  0  0  0  0  0
   48.7860   29.6040   46.9300 C   0  0  0  0  0  0  0  0  0  0  0  0
   50.0550   29.2150   47.2220 C   0  0  0  0  0  0  0  0  0  0  0  0
   50.5840   29.3750   48.4340 N   0  0  0  0  0  0  0  0  0  0  0  0
   49.8460   29.9410   49.4200 C   0  0  0  0  0  0  0  0  0  0  0  0
   48.5800   30.3340   49.1460 N   0  0  0  0  0  0  0  0  0  0  0  0
   51.3030   31.1110   51.1130 C   0  0  0  0  0  0  0  0  0  0  0  0
   50.5220   30.0560   50.7050 C   0  0  0  0  0  0  0  0  0  0  0  0
   50.3910   29.0450   51.6190 C   0  0  0  0  0  0  0  0  0  0  0  0
   50.9750   29.0360   52.8640 C   0  0  0  0  0  0  0  0  0  0  0  0
   51.7550   30.0930   53.2690 C   0  0  0  0  0  0  0  0  0  0  0  0
   51.9020   31.1210   52.3680 C   0  0  0  0  0  0  0  0  0  0  0  0
   51.5430   32.4500   50.0280 S   0  0  0  0  0  0  0  0  0  0  0  0
   50.2940   33.1050   49.5700 O   0  0  0  0  0  0  0  0  0  0  0  0
   52.4840   32.0830   48.9090 O   0  0  0  0  0  0  0  0  0  0  0  0
   46.6490   30.6890   47.9330 C   0  0  0  0  0  0  0  0  0  0  0  0
   46.6730   32.0720   47.8930 O   0  0  0  0  0  0  0  0  0  0  0  0
   45.0460   34.4110   45.7760 C   0  0  0  0  0  0  0  0  0  0  0  0
   45.7120   34.2840   44.5640 C   0  0  0  0  0  0  0  0  0  0  0  0
   46.7670   33.3450   44.4920 C   0  0  0  0  0  0  0  0  0  0  0  0
   47.0640   32.6320   45.5970 N   0  0  0  0  0  0  0  0  0  0  0  0
   46.3850   32.7930   46.7500 C   0  0  0  0  0  0  0  0  0  0  0  0
   45.3850   33.6710   46.8470 N   0  0  0  0  0  0  0  0  0  0  0  0
   45.2830   35.1380   43.4120 C   0  0  0  0  0  0  0  0  0  0  0  0
   44.5850   36.1810   43.9870 F   0  0  0  0  0  0  0  0  0  0  0  0
   44.4210   34.3390   42.6470 F   0  0  0  0  0  0  0  0  0  0  0  0
   46.3730   35.5250   42.7030 F   0  0  0  0  0  0  0  0  0  0  0  0
   48.3705   29.4618   45.9215 H   0  0  0  0  0  0  0  0  0  0  0  0
   50.6651   28.7530   46.4318 H   0  0  0  0  0  0  0  0  0  0  0  0
   49.7748   28.1784   51.3374 H   0  0  0  0  0  0  0  0  0  0  0  0
   50.8176   28.1807   53.5376 H   0  0  0  0  0  0  0  0  0  0  0  0
   52.2347   30.1151   54.2586 H   0  0  0  0  0  0  0  0  0  0  0  0
   52.5186   31.9867   52.6514 H   0  0  0  0  0  0  0  0  0  0  0  0
   52.1546   33.4314   50.7627 H   0  0  0  0  0  0  0  0  0  0  0  0
   46.1098   30.3048   47.0545 H   0  0  0  0  0  0  0  0  0  0  0  0
   46.1380   30.3546   48.8479 H   0  0  0  0  0  0  0  0  0  0  0  0
   44.2215   35.1340   45.8623 H   0  0  0  0  0  0  0  0  0  0  0  0
   47.3307   33.2001   43.5586 H   0  0  0  0  0  0  0  0  0  0  0  0
  1 16  1  0
  1  6  2  0
  2  3  2  0
  2  1  1  0
  3  4  1  0
  4  5  2  0
  5  8  1  0
  6  5  1  0
  7 12  2  0
  8  7  1  0
  8  9  2  0
  9 10  1  0
 10 11  2  0
 12 11  1  0
 13  7  1  0
 14 13  2  0
 15 13  2  0
 17 16  1  0
 18 23  2  0
 19 18  1  0
 20 19  2  0
 20 21  1  0
 21 22  2  0
 22 23  1  0
 22 17  1  0
 24 25  1  0
 24 19  1  0
 26 24  1  0
 27 24  1  0
  2 28  1  0
  3 29  1  0
  9 30  1  0
 10 31  1  0
 11 32  1  0
 12 33  1  0
 13 34  1  0
 16 35  1  0
 16 36  1  0
 18 37  1  0
 20 38  1  0
M  ISO  8  28  14  29  14  30  14  31  14  32  14  33  14  34  11  35   8
M  ISO  3  36   8  37  14  38  14
M  END
>  <minimizedAffinity>  (1) 
-5.34957933

>  <minimizedRMSD>  (1) 
1.74256897

$$$$
