
     RDKit          3D

 31 32  0  0  0  0  0  0  0  0999 V2000
   45.1810   31.4840   47.9120 C   0  0  0  0  0  0  0  0  0  0  0  0
   46.3980   30.6680   47.9580 C   0  0  0  0  0  0  0  0  0  0  0  0
   46.7490   29.4860   47.3190 C   0  0  0  0  0  0  0  0  0  0  0  0
   47.9640   28.9370   47.5490 C   0  0  0  0  0  0  0  0  0  0  0  0
   48.8390   29.4960   48.3720 N   0  0  0  0  0  0  0  0  0  0  0  0
   48.5130   30.6390   48.9970 C   0  0  0  0  0  0  0  0  0  0  0  0
   47.2990   31.2460   48.8080 N   0  0  0  0  0  0  0  0  0  0  0  0
   49.5640   31.1920   49.9030 C   0  0  0  0  0  0  0  0  0  0  0  0
   50.1600   30.1560   50.8090 C   0  0  0  0  0  0  0  0  0  0  0  0
   45.5600   32.8320   47.8100 O   0  0  0  0  0  0  0  0  0  0  0  0
   44.6270   35.2440   45.3620 C   0  0  0  0  0  0  0  0  0  0  0  0
   45.3760   34.8940   44.2540 C   0  0  0  0  0  0  0  0  0  0  0  0
   46.2220   33.7910   44.3720 C   0  0  0  0  0  0  0  0  0  0  0  0
   46.2770   33.1210   45.5360 N   0  0  0  0  0  0  0  0  0  0  0  0
   45.5260   33.5020   46.5930 C   0  0  0  0  0  0  0  0  0  0  0  0
   44.7070   34.5480   46.5190 N   0  0  0  0  0  0  0  0  0  0  0  0
   45.2250   35.7210   43.0080 C   0  0  0  0  0  0  0  0  0  0  0  0
   45.2310   37.0220   43.4350 F   0  0  0  0  0  0  0  0  0  0  0  0
   43.9750   35.3790   42.4700 F   0  0  0  0  0  0  0  0  0  0  0  0
   46.2430   35.4210   42.1590 F   0  0  0  0  0  0  0  0  0  0  0  0
   44.5754   31.2004   47.0386 H   0  0  0  0  0  0  0  0  0  0  0  0
   44.5827   31.3254   48.8213 H   0  0  0  0  0  0  0  0  0  0  0  0
   46.0433   28.9990   46.6299 H   0  0  0  0  0  0  0  0  0  0  0  0
   48.2329   28.0005   47.0385 H   0  0  0  0  0  0  0  0  0  0  0  0
   50.3670   31.6227   49.2868 H   0  0  0  0  0  0  0  0  0  0  0  0
   49.0843   31.9498   50.5399 H   0  0  0  0  0  0  0  0  0  0  0  0
   49.9933   30.4458   51.8570 H   0  0  0  0  0  0  0  0  0  0  0  0
   49.6834   29.1833   50.6173 H   0  0  0  0  0  0  0  0  0  0  0  0
   51.2404   30.0791   50.6173 H   0  0  0  0  0  0  0  0  0  0  0  0
   43.9500   36.1089   45.3012 H   0  0  0  0  0  0  0  0  0  0  0  0
   46.8392   33.4721   43.5192 H   0  0  0  0  0  0  0  0  0  0  0  0
  1  2  1  0
  2  7  2  0
  3  4  2  0
  3  2  1  0
  4  5  1  0
  5  6  2  0
  6  8  1  0
  7  6  1  0
  8  9  1  0
 10  1  1  0
 11 16  2  0
 12 13  2  0
 12 11  1  0
 13 14  1  0
 14 15  2  0
 15 10  1  0
 16 15  1  0
 17 18  1  0
 17 12  1  0
 19 17  1  0
 20 17  1  0
  1 21  1  0
  1 22  1  0
  3 23  1  0
  4 24  1  0
  8 25  1  0
  8 26  1  0
  9 27  1  0
  9 28  1  0
  9 29  1  0
 11 30  1  0
 13 31  1  0
M  ISO  8  21   8  22   8  23  14  24  14  25   8  26   8  27   8  28   8
M  ISO  3  29   8  30  14  31  14
M  END
>  <minimizedAffinity>  (1) 
-5.09383202

>  <minimizedRMSD>  (1) 
0.483356714

$$$$
