
     RDKit          3D

 28 29  0  0  0  0  0  0  0  0999 V2000
   45.4000   31.3520   47.7480 C   0  0  0  0  0  0  0  0  0  0  0  0
   46.5830   30.4820   47.8570 C   0  0  0  0  0  0  0  0  0  0  0  0
   46.8290   29.2080   47.3670 C   0  0  0  0  0  0  0  0  0  0  0  0
   48.0420   28.6440   47.6340 C   0  0  0  0  0  0  0  0  0  0  0  0
   48.9830   29.2650   48.3390 N   0  0  0  0  0  0  0  0  0  0  0  0
   48.7400   30.4980   48.8100 C   0  0  0  0  0  0  0  0  0  0  0  0
   47.5430   31.1240   48.5800 N   0  0  0  0  0  0  0  0  0  0  0  0
   49.8530   31.1130   49.5870 C   0  0  0  0  0  0  0  0  0  0  0  0
   49.8290   32.4830   49.4970 F   0  0  0  0  0  0  0  0  0  0  0  0
   51.0850   30.6430   49.1130 F   0  0  0  0  0  0  0  0  0  0  0  0
   49.7810   30.7800   50.9270 F   0  0  0  0  0  0  0  0  0  0  0  0
   45.8410   32.6760   47.6220 O   0  0  0  0  0  0  0  0  0  0  0  0
   44.9080   34.9850   45.0820 C   0  0  0  0  0  0  0  0  0  0  0  0
   45.7720   34.6800   44.0230 C   0  0  0  0  0  0  0  0  0  0  0  0
   46.6930   33.6390   44.2270 C   0  0  0  0  0  0  0  0  0  0  0  0
   46.7090   32.9920   45.4000 N   0  0  0  0  0  0  0  0  0  0  0  0
   45.8570   33.3220   46.3920 C   0  0  0  0  0  0  0  0  0  0  0  0
   44.9630   34.3070   46.2400 N   0  0  0  0  0  0  0  0  0  0  0  0
   45.6620   35.4700   42.7590 C   0  0  0  0  0  0  0  0  0  0  0  0
   45.3080   36.7350   43.1680 F   0  0  0  0  0  0  0  0  0  0  0  0
   44.6270   34.8960   42.0280 F   0  0  0  0  0  0  0  0  0  0  0  0
   46.8540   35.4260   42.1060 F   0  0  0  0  0  0  0  0  0  0  0  0
   44.8105   31.0700   46.8632 H   0  0  0  0  0  0  0  0  0  0  0  0
   44.7663   31.2457   48.6408 H   0  0  0  0  0  0  0  0  0  0  0  0
   46.0696   28.6692   46.7813 H   0  0  0  0  0  0  0  0  0  0  0  0
   48.2502   27.6343   47.2505 H   0  0  0  0  0  0  0  0  0  0  0  0
   44.1718   35.7936   44.9634 H   0  0  0  0  0  0  0  0  0  0  0  0
   47.3960   33.3571   43.4293 H   0  0  0  0  0  0  0  0  0  0  0  0
  1  2  1  0
  2  7  2  0
  3  4  2  0
  3  2  1  0
  4  5  1  0
  5  6  2  0
  6  8  1  0
  7  6  1  0
  8 11  1  0
  9  8  1  0
 10  8  1  0
 12  1  1  0
 13 18  2  0
 14 15  2  0
 14 13  1  0
 15 16  1  0
 16 17  2  0
 17 12  1  0
 18 17  1  0
 19 20  1  0
 19 14  1  0
 21 19  1  0
 22 19  1  0
  1 23  1  0
  1 24  1  0
  3 25  1  0
  4 26  1  0
 13 27  1  0
 15 28  1  0
M  ISO  6  23   8  24   8  25  14  26  14  27  14  28  14
M  END
>  <minimizedAffinity>  (1) 
-5.36198997

>  <minimizedRMSD>  (1) 
0.641455293

$$$$
