
     RDKit          3D

 34 35  0  0  0  0  0  0  0  0999 V2000
   45.2120   34.7450   44.9380 C   0  0  0  0  0  0  0  0  0  0  0  0
   45.9200   34.4760   43.7690 C   0  0  0  0  0  0  0  0  0  0  0  0
   46.8560   33.4310   43.8180 C   0  0  0  0  0  0  0  0  0  0  0  0
   47.0280   32.7480   44.9590 N   0  0  0  0  0  0  0  0  0  0  0  0
   46.3270   33.0370   46.0630 C   0  0  0  0  0  0  0  0  0  0  0  0
   45.4230   34.0290   46.0590 N   0  0  0  0  0  0  0  0  0  0  0  0
   45.6430   35.3050   42.5570 C   0  0  0  0  0  0  0  0  0  0  0  0
   44.6600   36.1780   42.9580 F   0  0  0  0  0  0  0  0  0  0  0  0
   45.1780   34.4290   41.5910 F   0  0  0  0  0  0  0  0  0  0  0  0
   46.8010   35.9220   42.1720 F   0  0  0  0  0  0  0  0  0  0  0  0
   46.4770   32.3560   47.2550 O   0  0  0  0  0  0  0  0  0  0  0  0
   46.1820   30.9780   47.3510 C   0  0  0  0  0  0  0  0  0  0  0  0
   47.4160   30.2900   47.7590 C   0  0  0  0  0  0  0  0  0  0  0  0
   47.8410   28.9900   47.5100 C   0  0  0  0  0  0  0  0  0  0  0  0
   49.0370   28.6070   48.0130 C   0  0  0  0  0  0  0  0  0  0  0  0
   49.8130   29.4230   48.7280 N   0  0  0  0  0  0  0  0  0  0  0  0
   49.3980   30.6810   48.9670 C   0  0  0  0  0  0  0  0  0  0  0  0
   48.2030   31.1320   48.4910 N   0  0  0  0  0  0  0  0  0  0  0  0
   50.3230   31.5160   49.7700 C   0  0  0  0  0  0  0  0  0  0  0  0
   50.1150   32.8630   49.5380 F   0  0  0  0  0  0  0  0  0  0  0  0
   51.6600   31.2020   49.4540 F   0  0  0  0  0  0  0  0  0  0  0  0
   50.1660   31.3010   51.1240 F   0  0  0  0  0  0  0  0  0  0  0  0
   47.5250   33.2130   42.6350 O   0  0  0  0  0  0  0  0  0  0  0  0
   50.0450   32.2860   42.6370 O   0  0  0  0  0  0  0  0  0  0  0  0
   49.1740   33.4680   42.3560 P   0  0  0  0  0  0  0  0  0  0  0  0
   49.6620   34.7630   43.3570 O   0  0  0  0  0  0  0  0  0  0  0  0
   49.4030   33.9740   40.7410 O   0  0  0  0  0  0  0  0  0  0  0  0
   44.4684   35.5555   44.9457 H   0  0  0  0  0  0  0  0  0  0  0  0
   45.3946   30.8137   48.1013 H   0  0  0  0  0  0  0  0  0  0  0  0
   45.8226   30.5902   46.3864 H   0  0  0  0  0  0  0  0  0  0  0  0
   47.2240   28.2944   46.9223 H   0  0  0  0  0  0  0  0  0  0  0  0
   49.3839   27.5803   47.8246 H   0  0  0  0  0  0  0  0  0  0  0  0
   49.5634   34.5013   44.3067 H   0  0  0  0  0  0  0  0  0  0  0  0
   49.8112   34.8759   40.7325 H   0  0  0  0  0  0  0  0  0  0  0  0
  1  6  2  0
  2  3  2  0
  2  1  1  0
  3  4  1  0
  4  5  2  0
  5 11  1  0
  6  5  1  0
  7  8  1  0
  7  2  1  0
  9  7  1  0
 10  7  1  0
 11 12  1  0
 12 13  1  0
 13 18  1  0
 14 13  2  0
 14 15  1  0
 15 16  2  0
 16 17  1  0
 17 19  1  0
 18 17  2  0
 19 22  1  0
 20 19  1  0
 21 19  1  0
 23  3  1  0
 25 23  1  0
 25 24  2  0
 25 26  1  0
 27 25  1  0
  1 28  1  0
 12 29  1  0
 12 30  1  0
 14 31  1  0
 15 32  1  0
 26 33  1  0
 27 34  1  0
M  ISO  7  28  14  29   8  30   8  31  14  32  14  33   3  34   3
M  END
>  <minimizedAffinity>  (1) 
-5.89322567

>  <minimizedRMSD>  (1) 
0.983867705

$$$$
