
     RDKit          3D

 31 32  0  0  0  0  0  0  0  0999 V2000
   45.4060   31.3430   47.7070 C   0  0  0  0  0  0  0  0  0  0  0  0
   46.5740   30.4540   47.8180 C   0  0  0  0  0  0  0  0  0  0  0  0
   46.7920   29.1870   47.3120 C   0  0  0  0  0  0  0  0  0  0  0  0
   47.9850   28.5990   47.5800 C   0  0  0  0  0  0  0  0  0  0  0  0
   48.9400   29.1890   48.3020 N   0  0  0  0  0  0  0  0  0  0  0  0
   48.7160   30.4240   48.7890 C   0  0  0  0  0  0  0  0  0  0  0  0
   47.5370   31.0630   48.5520 N   0  0  0  0  0  0  0  0  0  0  0  0
   49.8370   31.0070   49.5840 C   0  0  0  0  0  0  0  0  0  0  0  0
   49.8210   32.3700   49.5300 F   0  0  0  0  0  0  0  0  0  0  0  0
   51.0560   30.5290   49.1100 F   0  0  0  0  0  0  0  0  0  0  0  0
   49.7530   30.6320   50.9160 F   0  0  0  0  0  0  0  0  0  0  0  0
   45.8700   32.6590   47.5650 O   0  0  0  0  0  0  0  0  0  0  0  0
   45.0340   34.8800   44.9210 C   0  0  0  0  0  0  0  0  0  0  0  0
   45.9460   34.5520   43.8970 C   0  0  0  0  0  0  0  0  0  0  0  0
   46.8470   33.5290   44.1880 C   0  0  0  0  0  0  0  0  0  0  0  0
   46.8190   32.9180   45.3780 N   0  0  0  0  0  0  0  0  0  0  0  0
   45.9240   33.2710   46.3280 C   0  0  0  0  0  0  0  0  0  0  0  0
   45.0400   34.2450   46.0960 N   0  0  0  0  0  0  0  0  0  0  0  0
   45.8910   35.2930   42.6120 C   0  0  0  0  0  0  0  0  0  0  0  0
   45.0430   36.3560   42.8590 F   0  0  0  0  0  0  0  0  0  0  0  0
   45.2940   34.4380   41.6900 F   0  0  0  0  0  0  0  0  0  0  0  0
   47.1370   35.6860   42.2690 F   0  0  0  0  0  0  0  0  0  0  0  0
   47.8150   33.1630   43.1340 C   0  0  0  0  0  0  0  0  0  0  0  0
   44.8065   31.0625   46.8284 H   0  0  0  0  0  0  0  0  0  0  0  0
   44.7756   31.2567   48.6043 H   0  0  0  0  0  0  0  0  0  0  0  0
   46.0256   28.6732   46.7131 H   0  0  0  0  0  0  0  0  0  0  0  0
   48.1737   27.5902   47.1842 H   0  0  0  0  0  0  0  0  0  0  0  0
   44.2986   35.6795   44.7477 H   0  0  0  0  0  0  0  0  0  0  0  0
   48.7475   32.8104   43.5990 H   0  0  0  0  0  0  0  0  0  0  0  0
   47.3916   32.3629   42.5091 H   0  0  0  0  0  0  0  0  0  0  0  0
   48.0268   34.0431   42.5091 H   0  0  0  0  0  0  0  0  0  0  0  0
  1  2  1  0
  2  7  2  0
  3  4  2  0
  3  2  1  0
  4  5  1  0
  5  6  2  0
  6  8  1  0
  7  6  1  0
  8 11  1  0
  9  8  1  0
 10  8  1  0
 12  1  1  0
 13 18  2  0
 14 15  2  0
 14 13  1  0
 15 16  1  0
 16 17  2  0
 17 12  1  0
 18 17  1  0
 19 20  1  0
 19 14  1  0
 21 19  1  0
 22 19  1  0
 23 15  1  0
  1 24  1  0
  1 25  1  0
  3 26  1  0
  4 27  1  0
 13 28  1  0
 23 29  1  0
 23 30  1  0
 23 31  1  0
M  ISO  8  24   8  25   8  26  14  27  14  28  14  29   8  30   8  31   8
M  END
>  <minimizedAffinity>  (1) 
-5.55483341

>  <minimizedRMSD>  (1) 
0.271820903

$$$$
