
     RDKit          3D

 30 32  0  0  0  0  0  0  0  0999 V2000
   44.8090   36.3410   42.9080 Cl  0  0  0  0  0  0  0  0  0  0  0  0
   45.4190   35.1100   43.9680 C   0  0  0  0  0  0  0  0  0  0  0  0
   46.4590   34.3010   43.5700 C   0  0  0  0  0  0  0  0  0  0  0  0
   46.8570   33.3630   44.4850 C   0  0  0  0  0  0  0  0  0  0  0  0
   46.3290   33.1590   45.7350 C   0  0  0  0  0  0  0  0  0  0  0  0
   45.2870   33.9900   46.1010 C   0  0  0  0  0  0  0  0  0  0  0  0
   44.6190   33.7490   47.6970 Cl  0  0  0  0  0  0  0  0  0  0  0  0
   44.8330   34.9600   45.2250 C   0  0  0  0  0  0  0  0  0  0  0  0
   48.7820   35.4110   40.9780 C   0  0  0  0  0  0  0  0  0  0  0  0
   48.3300   34.7190   39.8400 C   0  0  0  0  0  0  0  0  0  0  0  0
   47.2190   33.8660   39.9690 C   0  0  0  0  0  0  0  0  0  0  0  0
   46.6410   33.7580   41.1960 N   0  0  0  0  0  0  0  0  0  0  0  0
   47.0920   34.4310   42.2700 C   0  0  0  0  0  0  0  0  0  0  0  0
   48.1600   35.2530   42.1570 N   0  0  0  0  0  0  0  0  0  0  0  0
   46.8880   32.1020   46.5760 C   0  0  0  0  0  0  0  0  0  0  0  0
   46.8590   30.7620   46.2470 C   0  0  0  0  0  0  0  0  0  0  0  0
   47.3900   29.7740   47.0500 C   0  0  0  0  0  0  0  0  0  0  0  0
   47.9660   30.2120   48.2290 C   0  0  0  0  0  0  0  0  0  0  0  0
   48.0400   31.5280   48.6380 C   0  0  0  0  0  0  0  0  0  0  0  0
   47.4860   32.4820   47.7860 C   0  0  0  0  0  0  0  0  0  0  0  0
   47.6862   32.7046   44.1869 H   0  0  0  0  0  0  0  0  0  0  0  0
   44.0033   35.6182   45.5222 H   0  0  0  0  0  0  0  0  0  0  0  0
   49.6485   36.0843   40.9016 H   0  0  0  0  0  0  0  0  0  0  0  0
   48.8343   34.8422   38.8702 H   0  0  0  0  0  0  0  0  0  0  0  0
   46.8303   33.3048   39.1064 H   0  0  0  0  0  0  0  0  0  0  0  0
   46.3891   30.4671   45.2972 H   0  0  0  0  0  0  0  0  0  0  0  0
   47.3576   28.7103   46.7718 H   0  0  0  0  0  0  0  0  0  0  0  0
   48.3997   29.4504   48.8937 H   0  0  0  0  0  0  0  0  0  0  0  0
   48.5132   31.8103   49.5901 H   0  0  0  0  0  0  0  0  0  0  0  0
   47.5183   33.5452   48.0661 H   0  0  0  0  0  0  0  0  0  0  0  0
  1  2  1  0
  2  8  2  0
  3  2  1  0
  3  4  2  0
  4  5  1  0
  5  6  2  0
  5 15  1  0
  6  7  1  0
  8  6  1  0
  9 14  2  0
 10 11  2  0
 10  9  1  0
 11 12  1  0
 12 13  2  0
 13  3  1  0
 14 13  1  0
 15 20  1  0
 16 15  2  0
 16 17  1  0
 17 18  2  0
 18 19  1  0
 20 19  2  0
  4 21  1  0
  8 22  1  0
  9 23  1  0
 10 24  1  0
 11 25  1  0
 16 26  1  0
 17 27  1  0
 18 28  1  0
 19 29  1  0
 20 30  1  0
M  ISO  8  21  14  22  14  23  14  24  14  25  14  26  14  27  14  28  14
M  ISO  2  29  14  30  14
M  END
>  <minimizedAffinity>  (1) 
-5.98704815

>  <minimizedRMSD>  (1) 
1.04101121

$$$$
