
     RDKit          3D

 33 35  0  0  0  0  0  0  0  0999 V2000
   44.8340   36.2120   43.0000 Cl  0  0  0  0  0  0  0  0  0  0  0  0
   45.4950   34.9720   43.9960 C   0  0  0  0  0  0  0  0  0  0  0  0
   46.5280   34.1740   43.5600 C   0  0  0  0  0  0  0  0  0  0  0  0
   46.9850   33.2170   44.4260 C   0  0  0  0  0  0  0  0  0  0  0  0
   46.5040   32.9830   45.6900 C   0  0  0  0  0  0  0  0  0  0  0  0
   45.4580   33.8020   46.1110 C   0  0  0  0  0  0  0  0  0  0  0  0
   44.8370   33.4990   47.7260 Cl  0  0  0  0  0  0  0  0  0  0  0  0
   44.9580   34.7830   45.2810 C   0  0  0  0  0  0  0  0  0  0  0  0
   48.7420   35.3910   40.9150 C   0  0  0  0  0  0  0  0  0  0  0  0
   48.2570   34.7340   39.7620 C   0  0  0  0  0  0  0  0  0  0  0  0
   47.1630   33.8660   39.9080 C   0  0  0  0  0  0  0  0  0  0  0  0
   46.6320   33.7110   41.1560 N   0  0  0  0  0  0  0  0  0  0  0  0
   47.1130   34.3470   42.2240 C   0  0  0  0  0  0  0  0  0  0  0  0
   48.1760   35.1980   42.1200 N   0  0  0  0  0  0  0  0  0  0  0  0
   47.0380   31.9390   46.5650 C   0  0  0  0  0  0  0  0  0  0  0  0
   47.1840   32.2930   47.9940 C   0  0  0  0  0  0  0  0  0  0  0  0
   46.8700   30.9970   48.7140 C   0  0  0  0  0  0  0  0  0  0  0  0
   45.6840   30.4760   47.8960 C   0  0  0  0  0  0  0  0  0  0  0  0
   46.2360   30.6580   46.4960 C   0  0  0  0  0  0  0  0  0  0  0  0
   47.8108   32.5792   44.0779 H   0  0  0  0  0  0  0  0  0  0  0  0
   44.1326   35.4225   45.6272 H   0  0  0  0  0  0  0  0  0  0  0  0
   49.5996   36.0740   40.8255 H   0  0  0  0  0  0  0  0  0  0  0  0
   48.7227   34.8977   38.7790 H   0  0  0  0  0  0  0  0  0  0  0  0
   46.7468   33.3277   39.0437 H   0  0  0  0  0  0  0  0  0  0  0  0
   48.0500   31.8042   46.1555 H   0  0  0  0  0  0  0  0  0  0  0  0
   48.2090   32.6263   48.2136 H   0  0  0  0  0  0  0  0  0  0  0  0
   46.5284   33.1220   48.2989 H   0  0  0  0  0  0  0  0  0  0  0  0
   47.7206   30.3004   48.6778 H   0  0  0  0  0  0  0  0  0  0  0  0
   46.6576   31.1186   49.7864 H   0  0  0  0  0  0  0  0  0  0  0  0
   45.4675   29.4203   48.1163 H   0  0  0  0  0  0  0  0  0  0  0  0
   44.7273   30.9837   48.0885 H   0  0  0  0  0  0  0  0  0  0  0  0
   45.4188   30.7504   45.7654 H   0  0  0  0  0  0  0  0  0  0  0  0
   46.8458   29.8011   46.1736 H   0  0  0  0  0  0  0  0  0  0  0  0
  1  2  1  0
  2  8  2  0
  3  2  1  0
  3  4  2  0
  4  5  1  0
  5  6  2  0
  5 15  1  0
  6  7  1  0
  8  6  1  0
  9 14  2  0
 10 11  2  0
 10  9  1  0
 11 12  1  0
 12 13  2  0
 13  3  1  0
 14 13  1  0
 15 16  1  0
 16 17  1  0
 18 17  1  0
 19 15  1  0
 19 18  1  0
  4 20  1  0
  8 21  1  0
  9 22  1  0
 10 23  1  0
 11 24  1  0
 15 25  1  0
 16 26  1  0
 16 27  1  0
 17 28  1  0
 17 29  1  0
 18 30  1  0
 18 31  1  0
 19 32  1  0
 19 33  1  0
M  ISO  8  20  14  21  14  22  14  23  14  24  14  25  13  26  13  27  13
M  ISO  6  28  13  29  13  30  13  31  13  32  13  33  13
M  END
>  <minimizedAffinity>  (1) 
-5.95973969

>  <minimizedRMSD>  (1) 
0.677925766

$$$$
