
     RDKit          3D

 30 31  0  0  0  0  0  0  0  0999 V2000
   45.4120   31.3880   47.7320 C   0  0  0  0  0  0  0  0  0  0  0  0
   46.5990   30.5250   47.8610 C   0  0  0  0  0  0  0  0  0  0  0  0
   46.8280   29.2480   47.3690 C   0  0  0  0  0  0  0  0  0  0  0  0
   48.0320   28.6710   47.6400 C   0  0  0  0  0  0  0  0  0  0  0  0
   48.9770   29.2800   48.3480 N   0  0  0  0  0  0  0  0  0  0  0  0
   48.7410   30.5180   48.8190 C   0  0  0  0  0  0  0  0  0  0  0  0
   47.5560   31.1610   48.5870 N   0  0  0  0  0  0  0  0  0  0  0  0
   49.8550   31.1270   49.6020 C   0  0  0  0  0  0  0  0  0  0  0  0
   49.8410   32.5010   49.5210 F   0  0  0  0  0  0  0  0  0  0  0  0
   51.0910   30.6620   49.1320 F   0  0  0  0  0  0  0  0  0  0  0  0
   49.7860   30.7800   50.9350 F   0  0  0  0  0  0  0  0  0  0  0  0
   45.8590   32.7110   47.5680 O   0  0  0  0  0  0  0  0  0  0  0  0
   45.0380   34.8920   44.8920 C   0  0  0  0  0  0  0  0  0  0  0  0
   45.9470   34.5450   43.8860 C   0  0  0  0  0  0  0  0  0  0  0  0
   46.8560   33.5250   44.1710 C   0  0  0  0  0  0  0  0  0  0  0  0
   46.8250   32.9260   45.3780 N   0  0  0  0  0  0  0  0  0  0  0  0
   45.9320   33.2970   46.3060 C   0  0  0  0  0  0  0  0  0  0  0  0
   45.0510   34.2660   46.0690 N   0  0  0  0  0  0  0  0  0  0  0  0
   45.8880   35.2790   42.5840 C   0  0  0  0  0  0  0  0  0  0  0  0
   45.0160   36.3170   42.8100 F   0  0  0  0  0  0  0  0  0  0  0  0
   45.3440   34.3870   41.6520 F   0  0  0  0  0  0  0  0  0  0  0  0
   47.1480   35.6750   42.2430 F   0  0  0  0  0  0  0  0  0  0  0  0
   47.7820   33.1670   43.1540 N   0  0  0  0  0  0  0  0  0  0  0  0
   44.8199   31.0818   46.8570 H   0  0  0  0  0  0  0  0  0  0  0  0
   44.7771   31.3048   48.6264 H   0  0  0  0  0  0  0  0  0  0  0  0
   46.0636   28.7196   46.7803 H   0  0  0  0  0  0  0  0  0  0  0  0
   48.2299   27.6591   47.2568 H   0  0  0  0  0  0  0  0  0  0  0  0
   44.3041   35.6908   44.7094 H   0  0  0  0  0  0  0  0  0  0  0  0
   48.4697   32.4192   43.3237 H   0  0  0  0  0  0  0  0  0  0  0  0
   47.7654   33.6553   42.2473 H   0  0  0  0  0  0  0  0  0  0  0  0
  1  2  1  0
  2  7  2  0
  3  4  2  0
  3  2  1  0
  4  5  1  0
  5  6  2  0
  6  8  1  0
  7  6  1  0
  8 11  1  0
  9  8  1  0
 10  8  1  0
 12  1  1  0
 13 18  2  0
 14 15  2  0
 14 13  1  0
 15 16  1  0
 16 17  2  0
 17 12  1  0
 18 17  1  0
 19 20  1  0
 19 14  1  0
 21 19  1  0
 22 19  1  0
 23 15  1  0
  1 24  1  0
  1 25  1  0
  3 26  1  0
  4 27  1  0
 13 28  1  0
 23 29  1  0
 23 30  1  0
M  ISO  5  24   8  25   8  26  14  27  14  28  14
M  END
>  <minimizedAffinity>  (1) 
-5.50900364

>  <minimizedRMSD>  (1) 
0.288303941

$$$$
