
     RDKit          3D

 30 32  0  0  0  0  0  0  0  0999 V2000
   44.8420   36.4030   42.9550 Cl  0  0  0  0  0  0  0  0  0  0  0  0
   45.4150   35.1530   44.0080 C   0  0  0  0  0  0  0  0  0  0  0  0
   46.4270   34.3340   43.6160 C   0  0  0  0  0  0  0  0  0  0  0  0
   46.8230   33.3590   44.5230 C   0  0  0  0  0  0  0  0  0  0  0  0
   46.2590   33.1770   45.7750 C   0  0  0  0  0  0  0  0  0  0  0  0
   45.2400   34.0220   46.1390 C   0  0  0  0  0  0  0  0  0  0  0  0
   44.5510   33.7660   47.7220 Cl  0  0  0  0  0  0  0  0  0  0  0  0
   44.8200   34.9990   45.2660 C   0  0  0  0  0  0  0  0  0  0  0  0
   48.7930   35.4050   41.0410 C   0  0  0  0  0  0  0  0  0  0  0  0
   48.3570   34.7370   39.8980 C   0  0  0  0  0  0  0  0  0  0  0  0
   47.2310   33.9060   40.0200 C   0  0  0  0  0  0  0  0  0  0  0  0
   46.6360   33.8030   41.2390 N   0  0  0  0  0  0  0  0  0  0  0  0
   47.0750   34.4550   42.3190 C   0  0  0  0  0  0  0  0  0  0  0  0
   48.1660   35.2670   42.2250 N   0  0  0  0  0  0  0  0  0  0  0  0
   45.5690   30.4990   44.7410 Cl  0  0  0  0  0  0  0  0  0  0  0  0
   46.5480   30.7990   46.1640 C   0  0  0  0  0  0  0  0  0  0  0  0
   46.8240   32.0890   46.5800 C   0  0  0  0  0  0  0  0  0  0  0  0
   47.5920   32.3800   47.6980 C   0  0  0  0  0  0  0  0  0  0  0  0
   48.1140   31.3360   48.4410 C   0  0  0  0  0  0  0  0  0  0  0  0
   47.8330   30.0580   48.0180 C   0  0  0  0  0  0  0  0  0  0  0  0
   47.0800   29.7690   46.9240 C   0  0  0  0  0  0  0  0  0  0  0  0
   47.6405   32.6853   44.2266 H   0  0  0  0  0  0  0  0  0  0  0  0
   44.0015   35.6717   45.5619 H   0  0  0  0  0  0  0  0  0  0  0  0
   49.6725   36.0623   40.9743 H   0  0  0  0  0  0  0  0  0  0  0  0
   48.8758   34.8562   38.9354 H   0  0  0  0  0  0  0  0  0  0  0  0
   46.8407   33.3532   39.1528 H   0  0  0  0  0  0  0  0  0  0  0  0
   47.7828   33.4235   47.9890 H   0  0  0  0  0  0  0  0  0  0  0  0
   48.7290   31.5208   49.3341 H   0  0  0  0  0  0  0  0  0  0  0  0
   48.2423   29.2191   48.6001 H   0  0  0  0  0  0  0  0  0  0  0  0
   46.8935   28.7220   46.6428 H   0  0  0  0  0  0  0  0  0  0  0  0
  1  2  1  0
  2  8  2  0
  3  2  1  0
  3  4  2  0
  4  5  1  0
  5  6  2  0
  5 17  1  0
  6  7  1  0
  8  6  1  0
  9 14  2  0
 10 11  2  0
 10  9  1  0
 11 12  1  0
 12 13  2  0
 13  3  1  0
 14 13  1  0
 15 16  1  0
 16 17  2  0
 16 21  1  0
 17 18  1  0
 18 19  2  0
 20 19  1  0
 21 20  2  0
  4 22  1  0
  8 23  1  0
  9 24  1  0
 10 25  1  0
 11 26  1  0
 18 27  1  0
 19 28  1  0
 20 29  1  0
 21 30  1  0
M  ISO  8  22  14  23  14  24  14  25  14  26  14  27  14  28  14  29  14
M  ISO  1  30  14
M  END
>  <minimizedAffinity>  (1) 
-5.87367296

>  <minimizedRMSD>  (1) 
1.08379793

$$$$
