
     RDKit          3D

 27 29  0  0  0  0  0  0  0  0999 V2000
   44.7460   36.2890   42.8220 Cl  0  0  0  0  0  0  0  0  0  0  0  0
   45.3990   35.0960   43.9060 C   0  0  0  0  0  0  0  0  0  0  0  0
   46.4570   34.3120   43.5300 C   0  0  0  0  0  0  0  0  0  0  0  0
   46.8880   33.4080   44.4630 C   0  0  0  0  0  0  0  0  0  0  0  0
   46.3520   33.2350   45.7110 C   0  0  0  0  0  0  0  0  0  0  0  0
   45.2950   34.0270   46.0700 C   0  0  0  0  0  0  0  0  0  0  0  0
   44.6240   33.7930   47.6650 Cl  0  0  0  0  0  0  0  0  0  0  0  0
   44.8110   34.9620   45.1740 C   0  0  0  0  0  0  0  0  0  0  0  0
   48.7300   35.4090   40.8810 C   0  0  0  0  0  0  0  0  0  0  0  0
   48.2750   34.6740   39.7650 C   0  0  0  0  0  0  0  0  0  0  0  0
   47.1850   33.8010   39.9230 C   0  0  0  0  0  0  0  0  0  0  0  0
   46.6320   33.7200   41.1610 N   0  0  0  0  0  0  0  0  0  0  0  0
   47.0850   34.4330   42.2190 C   0  0  0  0  0  0  0  0  0  0  0  0
   48.1270   35.2700   42.0730 N   0  0  0  0  0  0  0  0  0  0  0  0
   46.8990   32.2370   46.6200 C   0  0  0  0  0  0  0  0  0  0  0  0
   46.8260   30.8700   46.4530 C   0  0  0  0  0  0  0  0  0  0  0  0
   47.4340   30.2300   47.4780 N   0  0  0  0  0  0  0  0  0  0  0  0
   47.8920   31.2190   48.3010 C   0  0  0  0  0  0  0  0  0  0  0  0
   47.5610   32.4320   47.7690 N   0  0  0  0  0  0  0  0  0  0  0  0
   47.7373   32.7658   44.1867 H   0  0  0  0  0  0  0  0  0  0  0  0
   43.9625   35.6030   45.4554 H   0  0  0  0  0  0  0  0  0  0  0  0
   49.5810   36.0977   40.7740 H   0  0  0  0  0  0  0  0  0  0  0  0
   48.7660   34.7829   38.7867 H   0  0  0  0  0  0  0  0  0  0  0  0
   46.7967   33.2092   39.0810 H   0  0  0  0  0  0  0  0  0  0  0  0
   46.3400   30.3688   45.6029 H   0  0  0  0  0  0  0  0  0  0  0  0
   47.5309   29.2131   47.6098 H   0  0  0  0  0  0  0  0  0  0  0  0
   48.4399   31.0632   49.2420 H   0  0  0  0  0  0  0  0  0  0  0  0
  1  2  1  0
  2  8  2  0
  3  2  1  0
  3  4  2  0
  4  5  1  0
  5  6  2  0
  5 15  1  0
  6  7  1  0
  8  6  1  0
  9 14  2  0
 10 11  2  0
 10  9  1  0
 11 12  1  0
 12 13  2  0
 13  3  1  0
 14 13  1  0
 15 19  1  0
 16 15  2  0
 16 17  1  0
 17 18  1  0
 19 18  2  0
  4 20  1  0
  8 21  1  0
  9 22  1  0
 10 23  1  0
 11 24  1  0
 16 25  1  0
 17 26  1  0
 18 27  1  0
M  ISO  8  20  14  21  14  22  14  23  14  24  14  25  14  26   9  27  14
M  END
>  <minimizedAffinity>  (1) 
-5.54262257

>  <minimizedRMSD>  (1) 
0.714714408

$$$$
