
     RDKit          3D

 26 28  0  0  0  0  0  0  0  0999 V2000
   44.7610   36.2910   42.8380 Cl  0  0  0  0  0  0  0  0  0  0  0  0
   45.4090   35.0910   43.9100 C   0  0  0  0  0  0  0  0  0  0  0  0
   46.4610   34.3050   43.5270 C   0  0  0  0  0  0  0  0  0  0  0  0
   46.8880   33.3930   44.4540 C   0  0  0  0  0  0  0  0  0  0  0  0
   46.3650   33.2030   45.7060 C   0  0  0  0  0  0  0  0  0  0  0  0
   45.3030   34.0180   46.0560 C   0  0  0  0  0  0  0  0  0  0  0  0
   44.6450   33.7610   47.6660 Cl  0  0  0  0  0  0  0  0  0  0  0  0
   44.8240   34.9580   45.1680 C   0  0  0  0  0  0  0  0  0  0  0  0
   48.7800   35.4330   40.9400 C   0  0  0  0  0  0  0  0  0  0  0  0
   48.3630   34.7560   39.7980 C   0  0  0  0  0  0  0  0  0  0  0  0
   47.2630   33.8960   39.9260 C   0  0  0  0  0  0  0  0  0  0  0  0
   46.6670   33.7710   41.1460 N   0  0  0  0  0  0  0  0  0  0  0  0
   47.0900   34.4330   42.2220 C   0  0  0  0  0  0  0  0  0  0  0  0
   48.1610   35.2750   42.1180 N   0  0  0  0  0  0  0  0  0  0  0  0
   46.9090   32.1840   46.6300 C   0  0  0  0  0  0  0  0  0  0  0  0
   46.7630   30.8150   46.3520 C   0  0  0  0  0  0  0  0  0  0  0  0
   47.5960   30.0190   47.7820 S   0  0  0  0  0  0  0  0  0  0  0  0
   48.0060   31.7220   48.5220 C   0  0  0  0  0  0  0  0  0  0  0  0
   47.5550   32.4380   47.7520 N   0  0  0  0  0  0  0  0  0  0  0  0
   47.7330   32.7503   44.1659 H   0  0  0  0  0  0  0  0  0  0  0  0
   43.9798   35.6032   45.4527 H   0  0  0  0  0  0  0  0  0  0  0  0
   49.6401   36.1156   40.8741 H   0  0  0  0  0  0  0  0  0  0  0  0
   48.8755   34.8901   38.8340 H   0  0  0  0  0  0  0  0  0  0  0  0
   46.8880   33.3329   39.0587 H   0  0  0  0  0  0  0  0  0  0  0  0
   46.2716   30.3380   45.4912 H   0  0  0  0  0  0  0  0  0  0  0  0
   48.5409   31.9586   49.4536 H   0  0  0  0  0  0  0  0  0  0  0  0
  1  2  1  0
  2  8  2  0
  3  2  1  0
  3  4  2  0
  4  5  1  0
  5  6  2  0
  5 15  1  0
  6  7  1  0
  8  6  1  0
  9 14  2  0
 10 11  2  0
 10  9  1  0
 11 12  1  0
 12 13  2  0
 13  3  1  0
 14 13  1  0
 15 19  1  0
 16 15  2  0
 16 17  1  0
 17 18  1  0
 19 18  2  0
  4 20  1  0
  8 21  1  0
  9 22  1  0
 10 23  1  0
 11 24  1  0
 16 25  1  0
 18 26  1  0
M  ISO  7  20  14  21  14  22  14  23  14  24  14  25  14  26  14
M  END
>  <minimizedAffinity>  (1) 
-5.62191868

>  <minimizedRMSD>  (1) 
0.95562464

$$$$
