
     RDKit          3D

 32 34  0  0  0  0  0  0  0  0999 V2000
   44.7920   36.3190   42.8990 Cl  0  0  0  0  0  0  0  0  0  0  0  0
   45.4050   35.1080   43.9660 C   0  0  0  0  0  0  0  0  0  0  0  0
   46.4440   34.3070   43.5840 C   0  0  0  0  0  0  0  0  0  0  0  0
   46.8830   33.3560   44.4970 C   0  0  0  0  0  0  0  0  0  0  0  0
   46.3300   33.1770   45.7590 C   0  0  0  0  0  0  0  0  0  0  0  0
   45.2890   33.9950   46.1110 C   0  0  0  0  0  0  0  0  0  0  0  0
   44.6160   33.7390   47.7120 Cl  0  0  0  0  0  0  0  0  0  0  0  0
   44.8360   34.9420   45.2300 C   0  0  0  0  0  0  0  0  0  0  0  0
   48.7650   35.3860   40.9630 C   0  0  0  0  0  0  0  0  0  0  0  0
   48.3170   34.6900   39.8360 C   0  0  0  0  0  0  0  0  0  0  0  0
   47.1990   33.8340   39.9720 C   0  0  0  0  0  0  0  0  0  0  0  0
   46.6420   33.7530   41.1970 N   0  0  0  0  0  0  0  0  0  0  0  0
   47.0860   34.4300   42.2710 C   0  0  0  0  0  0  0  0  0  0  0  0
   48.1500   35.2460   42.1470 N   0  0  0  0  0  0  0  0  0  0  0  0
   46.9220   32.1480   46.5420 N   0  0  0  0  0  0  0  0  0  0  0  0
   46.9770   30.7300   46.2230 C   0  0  0  0  0  0  0  0  0  0  0  0
   46.7380   30.0990   47.5770 C   0  0  0  0  0  0  0  0  0  0  0  0
   47.3390   31.0900   48.5460 C   0  0  0  0  0  0  0  0  0  0  0  0
   47.5800   32.3740   47.8150 C   0  0  0  0  0  0  0  0  0  0  0  0
   47.7195   32.7051   44.2027 H   0  0  0  0  0  0  0  0  0  0  0  0
   43.9990   35.5907   45.5277 H   0  0  0  0  0  0  0  0  0  0  0  0
   49.6326   36.0568   40.8777 H   0  0  0  0  0  0  0  0  0  0  0  0
   48.8224   34.8055   38.8658 H   0  0  0  0  0  0  0  0  0  0  0  0
   46.8034   33.2622   39.1196 H   0  0  0  0  0  0  0  0  0  0  0  0
   46.1910   30.4499   45.5062 H   0  0  0  0  0  0  0  0  0  0  0  0
   47.9170   30.4169   45.7452 H   0  0  0  0  0  0  0  0  0  0  0  0
   45.6619   29.9700   47.7650 H   0  0  0  0  0  0  0  0  0  0  0  0
   47.1813   29.0960   47.6637 H   0  0  0  0  0  0  0  0  0  0  0  0
   46.6441   31.2621   49.3811 H   0  0  0  0  0  0  0  0  0  0  0  0
   48.2850   30.6999   48.9495 H   0  0  0  0  0  0  0  0  0  0  0  0
   48.6562   32.5558   47.6779 H   0  0  0  0  0  0  0  0  0  0  0  0
   47.2012   33.2573   48.3501 H   0  0  0  0  0  0  0  0  0  0  0  0
  1  2  1  0
  2  8  2  0
  3  2  1  0
  3  4  2  0
  4  5  1  0
  5  6  2  0
  5 15  1  0
  6  7  1  0
  8  6  1  0
  9 14  2  0
 10 11  2  0
 10  9  1  0
 11 12  1  0
 12 13  2  0
 13  3  1  0
 14 13  1  0
 15 19  1  0
 16 15  1  0
 16 17  1  0
 17 18  1  0
 19 18  1  0
  4 20  1  0
  8 21  1  0
  9 22  1  0
 10 23  1  0
 11 24  1  0
 16 25  1  0
 16 26  1  0
 17 27  1  0
 17 28  1  0
 18 29  1  0
 18 30  1  0
 19 31  1  0
 19 32  1  0
M  ISO  8  20  14  21  14  22  14  23  14  24  14  25  13  26  13  27  13
M  ISO  5  28  13  29  13  30  13  31  13  32  13
M  END
>  <minimizedAffinity>  (1) 
-5.52246189

>  <minimizedRMSD>  (1) 
0.776530266

$$$$
