
     RDKit          3D

 28 30  0  0  0  0  0  0  0  0999 V2000
   44.7830   36.3240   42.8510 Cl  0  0  0  0  0  0  0  0  0  0  0  0
   45.4060   35.1120   43.9170 C   0  0  0  0  0  0  0  0  0  0  0  0
   46.4470   34.3080   43.5240 C   0  0  0  0  0  0  0  0  0  0  0  0
   46.8700   33.3780   44.4350 C   0  0  0  0  0  0  0  0  0  0  0  0
   46.3520   33.1790   45.6910 C   0  0  0  0  0  0  0  0  0  0  0  0
   45.3110   33.9960   46.0600 C   0  0  0  0  0  0  0  0  0  0  0  0
   44.6400   33.7710   47.6600 Cl  0  0  0  0  0  0  0  0  0  0  0  0
   44.8380   34.9520   45.1890 C   0  0  0  0  0  0  0  0  0  0  0  0
   48.7370   35.4140   40.8940 C   0  0  0  0  0  0  0  0  0  0  0  0
   48.2900   34.7000   39.7640 C   0  0  0  0  0  0  0  0  0  0  0  0
   47.1810   33.8220   39.9120 C   0  0  0  0  0  0  0  0  0  0  0  0
   46.6240   33.7330   41.1460 N   0  0  0  0  0  0  0  0  0  0  0  0
   47.0740   34.4310   42.2140 C   0  0  0  0  0  0  0  0  0  0  0  0
   48.1300   35.2710   42.0850 N   0  0  0  0  0  0  0  0  0  0  0  0
   46.8440   32.1680   46.6200 C   0  0  0  0  0  0  0  0  0  0  0  0
   46.6470   30.8140   46.4660 C   0  0  0  0  0  0  0  0  0  0  0  0
   47.1480   29.9040   47.3970 C   0  0  0  0  0  0  0  0  0  0  0  0
   47.8390   30.3230   48.4750 N   0  0  0  0  0  0  0  0  0  0  0  0
   48.0220   31.6490   48.6100 C   0  0  0  0  0  0  0  0  0  0  0  0
   47.5400   32.5300   47.7130 N   0  0  0  0  0  0  0  0  0  0  0  0
   47.7043   32.7282   44.1321 H   0  0  0  0  0  0  0  0  0  0  0  0
   44.0029   35.5992   45.4954 H   0  0  0  0  0  0  0  0  0  0  0  0
   49.5939   36.0973   40.8002 H   0  0  0  0  0  0  0  0  0  0  0  0
   48.7874   34.8191   38.7901 H   0  0  0  0  0  0  0  0  0  0  0  0
   46.7919   33.2405   39.0632 H   0  0  0  0  0  0  0  0  0  0  0  0
   46.0858   30.4441   45.5952 H   0  0  0  0  0  0  0  0  0  0  0  0
   46.9762   28.8277   47.2487 H   0  0  0  0  0  0  0  0  0  0  0  0
   48.5821   32.0246   49.4790 H   0  0  0  0  0  0  0  0  0  0  0  0
  1  2  1  0
  2  8  2  0
  3  2  1  0
  3  4  2  0
  4  5  1  0
  5  6  2  0
  5 15  1  0
  6  7  1  0
  8  6  1  0
  9 14  2  0
 10 11  2  0
 10  9  1  0
 11 12  1  0
 12 13  2  0
 13  3  1  0
 14 13  1  0
 15 20  1  0
 16 15  2  0
 16 17  1  0
 17 18  2  0
 18 19  1  0
 20 19  2  0
  4 21  1  0
  8 22  1  0
  9 23  1  0
 10 24  1  0
 11 25  1  0
 16 26  1  0
 17 27  1  0
 19 28  1  0
M  ISO  8  21  14  22  14  23  14  24  14  25  14  26  14  27  14  28  14
M  END
>  <minimizedAffinity>  (1) 
-5.85700417

>  <minimizedRMSD>  (1) 
0.725206256

$$$$
