
     RDKit          3D

 22 23  0  0  0  0  0  0  0  0999 V2000
   44.9940   36.0560   43.4560 Cl  0  0  0  0  0  0  0  0  0  0  0  0
   45.6660   34.6970   44.2930 C   0  0  0  0  0  0  0  0  0  0  0  0
   46.6590   33.9480   43.7200 C   0  0  0  0  0  0  0  0  0  0  0  0
   47.1230   32.8870   44.4740 C   0  0  0  0  0  0  0  0  0  0  0  0
   46.6690   32.5460   45.7210 C   0  0  0  0  0  0  0  0  0  0  0  0
   45.6750   33.3100   46.2750 C   0  0  0  0  0  0  0  0  0  0  0  0
   45.1150   32.8510   47.8680 Cl  0  0  0  0  0  0  0  0  0  0  0  0
   45.1770   34.3760   45.5690 C   0  0  0  0  0  0  0  0  0  0  0  0
   48.7680   35.3990   41.1220 C   0  0  0  0  0  0  0  0  0  0  0  0
   48.2570   34.8580   39.9440 C   0  0  0  0  0  0  0  0  0  0  0  0
   47.1660   33.9760   40.0490 C   0  0  0  0  0  0  0  0  0  0  0  0
   46.6710   33.7030   41.2880 N   0  0  0  0  0  0  0  0  0  0  0  0
   47.1940   34.2460   42.3990 C   0  0  0  0  0  0  0  0  0  0  0  0
   48.2520   35.1040   42.3270 N   0  0  0  0  0  0  0  0  0  0  0  0
   47.2350   31.4250   46.3900 N   0  0  0  0  0  0  0  0  0  0  0  0
   47.9203   32.2668   44.0384 H   0  0  0  0  0  0  0  0  0  0  0  0
   44.3793   34.9908   46.0114 H   0  0  0  0  0  0  0  0  0  0  0  0
   49.6217   36.0902   41.0635 H   0  0  0  0  0  0  0  0  0  0  0  0
   48.6916   35.1117   38.9658 H   0  0  0  0  0  0  0  0  0  0  0  0
   46.7235   33.5180   39.1521 H   0  0  0  0  0  0  0  0  0  0  0  0
   46.8997   31.1616   47.3276 H   0  0  0  0  0  0  0  0  0  0  0  0
   47.9800   30.8769   45.9367 H   0  0  0  0  0  0  0  0  0  0  0  0
  1  2  1  0
  2  8  2  0
  3  2  1  0
  3  4  2  0
  4  5  1  0
  5  6  2  0
  5 15  1  0
  6  7  1  0
  8  6  1  0
  9 14  2  0
 10 11  2  0
 10  9  1  0
 11 12  1  0
 12 13  2  0
 13  3  1  0
 14 13  1  0
  4 16  1  0
  8 17  1  0
  9 18  1  0
 10 19  1  0
 11 20  1  0
 15 21  1  0
 15 22  1  0
M  ISO  5  16  14  17  14  18  14  19  14  20  14
M  END
>  <minimizedAffinity>  (1) 
-4.91025305

>  <minimizedRMSD>  (1) 
0.140939116

$$$$
