
     RDKit          3D

 24 25  0  0  0  0  0  0  0  0999 V2000
   44.9180   36.0640   43.3010 Cl  0  0  0  0  0  0  0  0  0  0  0  0
   45.6110   34.7410   44.2100 C   0  0  0  0  0  0  0  0  0  0  0  0
   46.6330   33.9860   43.6810 C   0  0  0  0  0  0  0  0  0  0  0  0
   47.1070   32.9750   44.4730 C   0  0  0  0  0  0  0  0  0  0  0  0
   46.6410   32.6700   45.7320 C   0  0  0  0  0  0  0  0  0  0  0  0
   45.6190   33.4430   46.2360 C   0  0  0  0  0  0  0  0  0  0  0  0
   45.0540   33.0220   47.8460 Cl  0  0  0  0  0  0  0  0  0  0  0  0
   45.1060   34.4710   45.4830 C   0  0  0  0  0  0  0  0  0  0  0  0
   48.7600   35.3900   41.0580 C   0  0  0  0  0  0  0  0  0  0  0  0
   48.2370   34.7950   39.8880 C   0  0  0  0  0  0  0  0  0  0  0  0
   47.1400   33.8990   40.0060 C   0  0  0  0  0  0  0  0  0  0  0  0
   46.6650   33.6760   41.2560 N   0  0  0  0  0  0  0  0  0  0  0  0
   47.1760   34.2510   42.3520 C   0  0  0  0  0  0  0  0  0  0  0  0
   48.2180   35.1020   42.2480 N   0  0  0  0  0  0  0  0  0  0  0  0
   46.5760   30.3530   46.1370 C   0  0  0  0  0  0  0  0  0  0  0  0
   45.6120   30.4560   45.3170 O   0  0  0  0  0  0  0  0  0  0  0  0
   47.2350   31.5860   46.4390 N   0  0  0  0  0  0  0  0  0  0  0  0
   47.9245   32.3578   44.0719 H   0  0  0  0  0  0  0  0  0  0  0  0
   44.2894   35.0873   45.8871 H   0  0  0  0  0  0  0  0  0  0  0  0
   49.6086   36.0867   40.9915 H   0  0  0  0  0  0  0  0  0  0  0  0
   48.6713   35.0213   38.9030 H   0  0  0  0  0  0  0  0  0  0  0  0
   46.6977   33.4101   39.1255 H   0  0  0  0  0  0  0  0  0  0  0  0
   46.8798   29.3928   46.5795 H   0  0  0  0  0  0  0  0  0  0  0  0
   48.0337   31.6777   47.0828 H   0  0  0  0  0  0  0  0  0  0  0  0
  1  2  1  0
  2  8  2  0
  3  2  1  0
  3  4  2  0
  4  5  1  0
  5  6  2  0
  5 17  1  0
  6  7  1  0
  8  6  1  0
  9 14  2  0
 10 11  2  0
 10  9  1  0
 11 12  1  0
 12 13  2  0
 13  3  1  0
 14 13  1  0
 15 17  1  0
 16 15  2  0
  4 18  1  0
  8 19  1  0
  9 20  1  0
 10 21  1  0
 11 22  1  0
 15 23  1  0
 17 24  1  0
M  ISO  6  18  14  19  14  20  14  21  14  22  14  23   6
M  END
>  <minimizedAffinity>  (1) 
-4.97894335

>  <minimizedRMSD>  (1) 
0.528331578

$$$$
