
     RDKit          3D

 37 40  0  0  0  0  0  0  0  0999 V2000
   44.7930   35.9810   43.2630 Cl  0  0  0  0  0  0  0  0  0  0  0  0
   45.5380   34.7410   44.2140 C   0  0  0  0  0  0  0  0  0  0  0  0
   46.6300   34.0480   43.7190 C   0  0  0  0  0  0  0  0  0  0  0  0
   47.1450   33.0830   44.5590 C   0  0  0  0  0  0  0  0  0  0  0  0
   46.6590   32.7750   45.8150 C   0  0  0  0  0  0  0  0  0  0  0  0
   45.5780   33.4900   46.2590 C   0  0  0  0  0  0  0  0  0  0  0  0
   44.9890   33.0690   47.8630 Cl  0  0  0  0  0  0  0  0  0  0  0  0
   45.0210   34.4580   45.4780 C   0  0  0  0  0  0  0  0  0  0  0  0
   47.3470   31.7200   46.5450 C   0  0  0  0  0  0  0  0  0  0  0  0
   47.4610   30.4250   46.0830 C   0  0  0  0  0  0  0  0  0  0  0  0
   48.1050   29.4090   46.7510 C   0  0  0  0  0  0  0  0  0  0  0  0
   48.6870   29.6850   47.9800 C   0  0  0  0  0  0  0  0  0  0  0  0
   49.3100   28.6850   48.6180 N   0  0  0  0  0  0  0  0  0  0  0  0
   49.9020   28.8530   49.8110 C   0  0  0  0  0  0  0  0  0  0  0  0
   49.8380   30.1390   50.3620 C   0  0  0  0  0  0  0  0  0  0  0  0
   49.2020   31.1480   49.7040 C   0  0  0  0  0  0  0  0  0  0  0  0
   48.5970   30.9570   48.4790 C   0  0  0  0  0  0  0  0  0  0  0  0
   47.9470   31.9530   47.7880 C   0  0  0  0  0  0  0  0  0  0  0  0
   48.7610   35.4510   41.1220 C   0  0  0  0  0  0  0  0  0  0  0  0
   48.2890   34.8440   39.9540 C   0  0  0  0  0  0  0  0  0  0  0  0
   47.2180   33.9330   40.0600 C   0  0  0  0  0  0  0  0  0  0  0  0
   46.7300   33.7210   41.3040 N   0  0  0  0  0  0  0  0  0  0  0  0
   47.1950   34.3140   42.4110 C   0  0  0  0  0  0  0  0  0  0  0  0
   48.2220   35.1900   42.3290 N   0  0  0  0  0  0  0  0  0  0  0  0
   46.6980   33.2800   38.8780 C   0  0  0  0  0  0  0  0  0  0  0  0
   47.1500   33.5930   37.7460 O   0  0  0  0  0  0  0  0  0  0  0  0
   48.0137   32.5119   44.1996 H   0  0  0  0  0  0  0  0  0  0  0  0
   44.1532   35.0230   45.8490 H   0  0  0  0  0  0  0  0  0  0  0  0
   47.0043   30.1877   45.1108 H   0  0  0  0  0  0  0  0  0  0  0  0
   48.1574   28.3985   46.3195 H   0  0  0  0  0  0  0  0  0  0  0  0
   50.4099   28.0254   50.3279 H   0  0  0  0  0  0  0  0  0  0  0  0
   50.3067   30.3365   51.3373 H   0  0  0  0  0  0  0  0  0  0  0  0
   49.1698   32.1467   50.1640 H   0  0  0  0  0  0  0  0  0  0  0  0
   47.8973   32.9614   48.2247 H   0  0  0  0  0  0  0  0  0  0  0  0
   49.5970   36.1626   41.0534 H   0  0  0  0  0  0  0  0  0  0  0  0
   48.7416   35.0714   38.9776 H   0  0  0  0  0  0  0  0  0  0  0  0
   45.9127   32.5150   38.9684 H   0  0  0  0  0  0  0  0  0  0  0  0
  1  2  1  0
  2  8  2  0
  3  2  1  0
  3  4  2  0
  4  5  1  0
  5  6  2  0
  5  9  1  0
  6  7  1  0
  8  6  1  0
  9 18  1  0
 10  9  2  0
 10 11  1  0
 11 12  2  0
 12 17  1  0
 12 13  1  0
 13 14  2  0
 14 15  1  0
 16 15  2  0
 17 16  1  0
 18 17  2  0
 19 24  2  0
 20 21  2  0
 20 19  1  0
 21 22  1  0
 22 23  2  0
 23  3  1  0
 24 23  1  0
 25 21  1  0
 26 25  2  0
  4 27  1  0
  8 28  1  0
 10 29  1  0
 11 30  1  0
 14 31  1  0
 15 32  1  0
 16 33  1  0
 18 34  1  0
 19 35  1  0
 20 36  1  0
 25 37  1  0
M  ISO  8  27  14  28  14  29  14  30  14  31  14  32  14  33  14  34  14
M  ISO  3  35  14  36  14  37   6
M  END
>  <minimizedAffinity>  (1) 
-6.62018585

>  <minimizedRMSD>  (1) 
0.0362739563

$$$$
