
     RDKit          3D

 37 40  0  0  0  0  0  0  0  0999 V2000
   44.7990   35.9960   43.3760 Cl  0  0  0  0  0  0  0  0  0  0  0  0
   45.5490   34.7460   44.3070 C   0  0  0  0  0  0  0  0  0  0  0  0
   46.6630   34.0790   43.8240 C   0  0  0  0  0  0  0  0  0  0  0  0
   47.1790   33.1060   44.6390 C   0  0  0  0  0  0  0  0  0  0  0  0
   46.6830   32.7570   45.8670 C   0  0  0  0  0  0  0  0  0  0  0  0
   45.5720   33.4380   46.3220 C   0  0  0  0  0  0  0  0  0  0  0  0
   44.9590   32.9720   47.8940 Cl  0  0  0  0  0  0  0  0  0  0  0  0
   45.0120   34.4190   45.5520 C   0  0  0  0  0  0  0  0  0  0  0  0
   47.3760   31.6870   46.5920 C   0  0  0  0  0  0  0  0  0  0  0  0
   47.4870   30.4110   46.1070 C   0  0  0  0  0  0  0  0  0  0  0  0
   48.1360   29.3750   46.7670 C   0  0  0  0  0  0  0  0  0  0  0  0
   48.7110   29.6360   47.9900 C   0  0  0  0  0  0  0  0  0  0  0  0
   49.3290   28.6300   48.6070 N   0  0  0  0  0  0  0  0  0  0  0  0
   49.9250   28.7920   49.8170 C   0  0  0  0  0  0  0  0  0  0  0  0
   49.8640   30.0660   50.3920 C   0  0  0  0  0  0  0  0  0  0  0  0
   49.2200   31.0880   49.7370 C   0  0  0  0  0  0  0  0  0  0  0  0
   48.6270   30.8970   48.5160 C   0  0  0  0  0  0  0  0  0  0  0  0
   47.9680   31.9070   47.8260 C   0  0  0  0  0  0  0  0  0  0  0  0
   48.8830   35.4920   41.3080 C   0  0  0  0  0  0  0  0  0  0  0  0
   48.3730   35.0230   40.1090 C   0  0  0  0  0  0  0  0  0  0  0  0
   47.2180   34.1840   40.1540 C   0  0  0  0  0  0  0  0  0  0  0  0
   46.7230   33.9230   41.3790 N   0  0  0  0  0  0  0  0  0  0  0  0
   47.2470   34.3980   42.5240 C   0  0  0  0  0  0  0  0  0  0  0  0
   48.3300   35.1860   42.4920 N   0  0  0  0  0  0  0  0  0  0  0  0
   46.5690   33.6190   39.0320 N   0  0  0  0  0  0  0  0  0  0  0  0
   48.0635   32.5609   44.2777 H   0  0  0  0  0  0  0  0  0  0  0  0
   44.1260   34.9577   45.9192 H   0  0  0  0  0  0  0  0  0  0  0  0
   47.0320   30.1918   45.1298 H   0  0  0  0  0  0  0  0  0  0  0  0
   48.1891   28.3701   46.3228 H   0  0  0  0  0  0  0  0  0  0  0  0
   50.4334   27.9578   50.3226 H   0  0  0  0  0  0  0  0  0  0  0  0
   50.3324   30.2499   51.3702 H   0  0  0  0  0  0  0  0  0  0  0  0
   49.1794   32.0833   50.2037 H   0  0  0  0  0  0  0  0  0  0  0  0
   47.9144   32.9110   48.2722 H   0  0  0  0  0  0  0  0  0  0  0  0
   49.7729   36.1383   41.2894 H   0  0  0  0  0  0  0  0  0  0  0  0
   48.8433   35.2886   39.1507 H   0  0  0  0  0  0  0  0  0  0  0  0
   45.7386   33.0238   39.1630 H   0  0  0  0  0  0  0  0  0  0  0  0
   46.9266   33.8026   38.0837 H   0  0  0  0  0  0  0  0  0  0  0  0
  1  2  1  0
  2  8  2  0
  3  2  1  0
  3  4  2  0
  4  5  1  0
  5  6  2  0
  5  9  1  0
  6  7  1  0
  8  6  1  0
  9 18  1  0
 10  9  2  0
 10 11  1  0
 11 12  2  0
 12 17  1  0
 12 13  1  0
 13 14  2  0
 14 15  1  0
 16 15  2  0
 17 16  1  0
 18 17  2  0
 19 24  2  0
 20 21  2  0
 20 19  1  0
 21 22  1  0
 22 23  2  0
 23  3  1  0
 24 23  1  0
 25 21  1  0
  4 26  1  0
  8 27  1  0
 10 28  1  0
 11 29  1  0
 14 30  1  0
 15 31  1  0
 16 32  1  0
 18 33  1  0
 19 34  1  0
 20 35  1  0
 25 36  1  0
 25 37  1  0
M  ISO  8  26  14  27  14  28  14  29  14  30  14  31  14  32  14  33  14
M  ISO  2  34  14  35  14
M  END
>  <minimizedAffinity>  (1) 
-6.88862371

>  <minimizedRMSD>  (1) 
0.117753178

$$$$
