
     RDKit          3D

 38 41  0  0  0  0  0  0  0  0999 V2000
   44.7870   35.9680   43.2880 Cl  0  0  0  0  0  0  0  0  0  0  0  0
   45.5380   34.7260   44.2370 C   0  0  0  0  0  0  0  0  0  0  0  0
   46.6290   34.0340   43.7410 C   0  0  0  0  0  0  0  0  0  0  0  0
   47.1440   33.0710   44.5790 C   0  0  0  0  0  0  0  0  0  0  0  0
   46.6640   32.7630   45.8270 C   0  0  0  0  0  0  0  0  0  0  0  0
   45.5790   33.4710   46.2860 C   0  0  0  0  0  0  0  0  0  0  0  0
   44.9900   33.0530   47.8830 Cl  0  0  0  0  0  0  0  0  0  0  0  0
   45.0230   34.4410   45.4990 C   0  0  0  0  0  0  0  0  0  0  0  0
   47.3580   31.7010   46.5600 C   0  0  0  0  0  0  0  0  0  0  0  0
   47.4720   30.4080   46.0950 C   0  0  0  0  0  0  0  0  0  0  0  0
   48.1180   29.3880   46.7630 C   0  0  0  0  0  0  0  0  0  0  0  0
   48.6990   29.6640   47.9880 C   0  0  0  0  0  0  0  0  0  0  0  0
   49.3260   28.6720   48.6330 N   0  0  0  0  0  0  0  0  0  0  0  0
   49.9200   28.8480   49.8300 C   0  0  0  0  0  0  0  0  0  0  0  0
   49.8530   30.1290   50.3770 C   0  0  0  0  0  0  0  0  0  0  0  0
   49.2170   31.1350   49.7210 C   0  0  0  0  0  0  0  0  0  0  0  0
   48.6130   30.9280   48.4890 C   0  0  0  0  0  0  0  0  0  0  0  0
   47.9540   31.9280   47.7880 C   0  0  0  0  0  0  0  0  0  0  0  0
   48.7530   35.4430   41.1390 C   0  0  0  0  0  0  0  0  0  0  0  0
   48.2880   34.8600   39.9740 C   0  0  0  0  0  0  0  0  0  0  0  0
   47.2040   33.9470   40.0790 C   0  0  0  0  0  0  0  0  0  0  0  0
   46.7040   33.7160   41.3230 N   0  0  0  0  0  0  0  0  0  0  0  0
   47.1930   34.3090   42.4240 C   0  0  0  0  0  0  0  0  0  0  0  0
   48.2110   35.1680   42.3380 N   0  0  0  0  0  0  0  0  0  0  0  0
   46.6380   33.2760   38.9020 C   0  0  0  0  0  0  0  0  0  0  0  0
   48.0127   32.5009   44.2181 H   0  0  0  0  0  0  0  0  0  0  0  0
   44.1544   35.0056   45.8689 H   0  0  0  0  0  0  0  0  0  0  0  0
   47.0155   30.1728   45.1222 H   0  0  0  0  0  0  0  0  0  0  0  0
   48.1699   28.3777   46.3311 H   0  0  0  0  0  0  0  0  0  0  0  0
   50.4313   28.0237   50.3487 H   0  0  0  0  0  0  0  0  0  0  0  0
   50.3211   30.3278   51.3524 H   0  0  0  0  0  0  0  0  0  0  0  0
   49.1802   32.1355   50.1767 H   0  0  0  0  0  0  0  0  0  0  0  0
   47.9036   32.9367   48.2239 H   0  0  0  0  0  0  0  0  0  0  0  0
   49.5914   36.1529   41.0826 H   0  0  0  0  0  0  0  0  0  0  0  0
   48.7416   35.0950   38.9998 H   0  0  0  0  0  0  0  0  0  0  0  0
   45.9606   32.4730   39.2281 H   0  0  0  0  0  0  0  0  0  0  0  0
   46.0781   34.0053   38.2981 H   0  0  0  0  0  0  0  0  0  0  0  0
   47.4512   32.8471   38.2981 H   0  0  0  0  0  0  0  0  0  0  0  0
  1  2  1  0
  2  8  2  0
  3  2  1  0
  3  4  2  0
  4  5  1  0
  5  6  2  0
  5  9  1  0
  6  7  1  0
  8  6  1  0
  9 18  1  0
 10  9  2  0
 10 11  1  0
 11 12  2  0
 12 17  1  0
 12 13  1  0
 13 14  2  0
 14 15  1  0
 16 15  2  0
 17 16  1  0
 18 17  2  0
 19 24  2  0
 20 21  2  0
 20 19  1  0
 21 22  1  0
 22 23  2  0
 23  3  1  0
 24 23  1  0
 25 21  1  0
  4 26  1  0
  8 27  1  0
 10 28  1  0
 11 29  1  0
 14 30  1  0
 15 31  1  0
 16 32  1  0
 18 33  1  0
 19 34  1  0
 20 35  1  0
 25 36  1  0
 25 37  1  0
 25 38  1  0
M  ISO  8  26  14  27  14  28  14  29  14  30  14  31  14  32  14  33  14
M  ISO  5  34  14  35  14  36   8  37   8  38   8
M  END
>  <minimizedAffinity>  (1) 
-6.77130318

>  <minimizedRMSD>  (1) 
0.0226633511

$$$$
