
     RDKit          3D

 36 39  0  0  0  0  0  0  0  0999 V2000
   44.7990   36.0080   43.3790 Cl  0  0  0  0  0  0  0  0  0  0  0  0
   45.5430   34.7530   44.3160 C   0  0  0  0  0  0  0  0  0  0  0  0
   46.6550   34.0840   43.8350 C   0  0  0  0  0  0  0  0  0  0  0  0
   47.1760   33.1050   44.6460 C   0  0  0  0  0  0  0  0  0  0  0  0
   46.6680   32.7590   45.8800 C   0  0  0  0  0  0  0  0  0  0  0  0
   45.5690   33.4410   46.3270 C   0  0  0  0  0  0  0  0  0  0  0  0
   44.9530   32.9710   47.9020 Cl  0  0  0  0  0  0  0  0  0  0  0  0
   45.0100   34.4270   45.5570 C   0  0  0  0  0  0  0  0  0  0  0  0
   47.3610   31.6900   46.5970 C   0  0  0  0  0  0  0  0  0  0  0  0
   47.4660   30.4060   46.1090 C   0  0  0  0  0  0  0  0  0  0  0  0
   48.1190   29.3830   46.7740 C   0  0  0  0  0  0  0  0  0  0  0  0
   48.7040   29.6340   47.9940 C   0  0  0  0  0  0  0  0  0  0  0  0
   49.3250   28.6270   48.6110 N   0  0  0  0  0  0  0  0  0  0  0  0
   49.9260   28.7920   49.8140 C   0  0  0  0  0  0  0  0  0  0  0  0
   49.8670   30.0690   50.3850 C   0  0  0  0  0  0  0  0  0  0  0  0
   49.2290   31.0860   49.7410 C   0  0  0  0  0  0  0  0  0  0  0  0
   48.6200   30.9010   48.5130 C   0  0  0  0  0  0  0  0  0  0  0  0
   47.9670   31.9060   47.8360 C   0  0  0  0  0  0  0  0  0  0  0  0
   48.8880   35.4930   41.3160 C   0  0  0  0  0  0  0  0  0  0  0  0
   48.3720   35.0270   40.1200 C   0  0  0  0  0  0  0  0  0  0  0  0
   47.2260   34.2050   40.1630 C   0  0  0  0  0  0  0  0  0  0  0  0
   46.7180   33.9360   41.3880 N   0  0  0  0  0  0  0  0  0  0  0  0
   47.2400   34.4020   42.5340 C   0  0  0  0  0  0  0  0  0  0  0  0
   48.3250   35.1800   42.4950 N   0  0  0  0  0  0  0  0  0  0  0  0
   46.6690   33.7120   38.9910 O   0  0  0  0  0  0  0  0  0  0  0  0
   48.0603   32.5591   44.2855 H   0  0  0  0  0  0  0  0  0  0  0  0
   44.1266   34.9682   45.9267 H   0  0  0  0  0  0  0  0  0  0  0  0
   47.0048   30.1812   45.1360 H   0  0  0  0  0  0  0  0  0  0  0  0
   48.1700   28.3774   46.3310 H   0  0  0  0  0  0  0  0  0  0  0  0
   50.4375   27.9597   50.3196 H   0  0  0  0  0  0  0  0  0  0  0  0
   50.3395   30.2526   51.3612 H   0  0  0  0  0  0  0  0  0  0  0  0
   49.1974   32.0805   50.2100 H   0  0  0  0  0  0  0  0  0  0  0  0
   47.9213   32.9093   48.2846 H   0  0  0  0  0  0  0  0  0  0  0  0
   49.7808   36.1353   41.3013 H   0  0  0  0  0  0  0  0  0  0  0  0
   48.8425   35.2902   39.1612 H   0  0  0  0  0  0  0  0  0  0  0  0
   45.8648   33.1358   39.0293 H   0  0  0  0  0  0  0  0  0  0  0  0
  1  2  1  0
  2  8  2  0
  3  2  1  0
  3  4  2  0
  4  5  1  0
  5  6  2  0
  5  9  1  0
  6  7  1  0
  8  6  1  0
  9 18  1  0
 10  9  2  0
 10 11  1  0
 11 12  2  0
 12 17  1  0
 12 13  1  0
 13 14  2  0
 14 15  1  0
 16 15  2  0
 17 16  1  0
 18 17  2  0
 19 24  2  0
 20 21  2  0
 20 19  1  0
 21 22  1  0
 22 23  2  0
 23  3  1  0
 24 23  1  0
 25 21  1  0
  4 26  1  0
  8 27  1  0
 10 28  1  0
 11 29  1  0
 14 30  1  0
 15 31  1  0
 16 32  1  0
 18 33  1  0
 19 34  1  0
 20 35  1  0
 25 36  1  0
M  ISO  8  26  14  27  14  28  14  29  14  30  14  31  14  32  14  33  14
M  ISO  3  34  14  35  14  36   3
M  END
>  <minimizedAffinity>  (1) 
-6.88230515

>  <minimizedRMSD>  (1) 
0.123952858

$$$$
