
     RDKit          3D

 32 34  0  0  0  0  0  0  0  0999 V2000
   45.1300   33.5000   41.1110 F   0  0  0  0  0  0  0  0  0  0  0  0
   46.3190   34.0870   40.9960 C   0  0  0  0  0  0  0  0  0  0  0  0
   46.8400   34.8020   42.0640 C   0  0  0  0  0  0  0  0  0  0  0  0
   48.0650   35.4360   42.0160 C   0  0  0  0  0  0  0  0  0  0  0  0
   48.8330   35.3690   40.8570 C   0  0  0  0  0  0  0  0  0  0  0  0
   48.2770   34.6460   39.8150 C   0  0  0  0  0  0  0  0  0  0  0  0
   47.0550   34.0020   39.8320 C   0  0  0  0  0  0  0  0  0  0  0  0
   46.5720   33.2660   38.6680 C   0  0  0  0  0  0  0  0  0  0  0  0
   45.4310   32.4870   38.6120 C   0  0  0  0  0  0  0  0  0  0  0  0
   45.0920   31.8450   37.4410 C   0  0  0  0  0  0  0  0  0  0  0  0
   45.8540   31.9490   36.3070 C   0  0  0  0  0  0  0  0  0  0  0  0
   47.0030   32.7340   36.3650 C   0  0  0  0  0  0  0  0  0  0  0  0
   47.3710   33.3940   37.5320 C   0  0  0  0  0  0  0  0  0  0  0  0
   45.4760   34.0010   45.3870 C   0  0  0  0  0  0  0  0  0  0  0  0
   44.6330   35.1150   45.6210 C   0  0  0  0  0  0  0  0  0  0  0  0
   44.5400   36.1270   44.6390 C   0  0  0  0  0  0  0  0  0  0  0  0
   45.2860   35.9610   43.5040 N   0  0  0  0  0  0  0  0  0  0  0  0
   46.0710   34.9050   43.3110 C   0  0  0  0  0  0  0  0  0  0  0  0
   46.1580   33.9450   44.2440 N   0  0  0  0  0  0  0  0  0  0  0  0
   45.5560   33.0050   46.3750 N   0  0  0  0  0  0  0  0  0  0  0  0
   48.4331   35.9923   42.8906 H   0  0  0  0  0  0  0  0  0  0  0  0
   49.8152   35.8574   40.7744 H   0  0  0  0  0  0  0  0  0  0  0  0
   48.8633   34.5781   38.8868 H   0  0  0  0  0  0  0  0  0  0  0  0
   44.7939   32.3798   39.5023 H   0  0  0  0  0  0  0  0  0  0  0  0
   44.1807   31.2294   37.4157 H   0  0  0  0  0  0  0  0  0  0  0  0
   45.5675   31.4293   35.3808 H   0  0  0  0  0  0  0  0  0  0  0  0
   47.6326   32.8339   35.4686 H   0  0  0  0  0  0  0  0  0  0  0  0
   48.2819   34.0101   37.5591 H   0  0  0  0  0  0  0  0  0  0  0  0
   44.0578   35.1914   46.5555 H   0  0  0  0  0  0  0  0  0  0  0  0
   43.8970   37.0082   44.7806 H   0  0  0  0  0  0  0  0  0  0  0  0
   46.1612   32.1841   46.2309 H   0  0  0  0  0  0  0  0  0  0  0  0
   45.0094   33.0958   47.2433 H   0  0  0  0  0  0  0  0  0  0  0  0
  2  1  1  0
  2  3  2  0
  3 18  1  0
  4  3  1  0
  5  4  2  0
  6  7  2  0
  6  5  1  0
  7  2  1  0
  8  7  1  0
  9  8  2  0
 10  9  1  0
 11 12  1  0
 11 10  2  0
 12 13  2  0
 13  8  1  0
 14 15  2  0
 14 20  1  0
 16 15  1  0
 17 16  2  0
 18 17  1  0
 18 19  2  0
 19 14  1  0
  4 21  1  0
  5 22  1  0
  6 23  1  0
  9 24  1  0
 10 25  1  0
 11 26  1  0
 12 27  1  0
 13 28  1  0
 15 29  1  0
 16 30  1  0
 20 31  1  0
 20 32  1  0
M  ISO  8  21  14  22  14  23  14  24  14  25  14  26  14  27  14  28  14
M  ISO  2  29  14  30  14
M  END
>  <minimizedAffinity>  (1) 
-6.11847401

>  <minimizedRMSD>  (1) 
0.206040889

$$$$
