
     RDKit          3D

 37 39  0  0  0  0  0  0  0  0999 V2000
   45.2160   33.4790   41.0490 F   0  0  0  0  0  0  0  0  0  0  0  0
   46.3910   34.0850   40.9430 C   0  0  0  0  0  0  0  0  0  0  0  0
   46.9010   34.8140   42.0080 C   0  0  0  0  0  0  0  0  0  0  0  0
   48.1080   35.4670   41.9710 C   0  0  0  0  0  0  0  0  0  0  0  0
   48.8990   35.4260   40.8310 C   0  0  0  0  0  0  0  0  0  0  0  0
   48.3600   34.6850   39.7790 C   0  0  0  0  0  0  0  0  0  0  0  0
   47.1570   34.0230   39.7880 C   0  0  0  0  0  0  0  0  0  0  0  0
   45.4910   33.9960   45.3160 C   0  0  0  0  0  0  0  0  0  0  0  0
   44.6490   35.0960   45.5490 C   0  0  0  0  0  0  0  0  0  0  0  0
   44.5630   36.1180   44.5730 C   0  0  0  0  0  0  0  0  0  0  0  0
   45.3240   35.9570   43.4510 N   0  0  0  0  0  0  0  0  0  0  0  0
   46.1150   34.9020   43.2530 C   0  0  0  0  0  0  0  0  0  0  0  0
   46.1950   33.9360   44.1770 N   0  0  0  0  0  0  0  0  0  0  0  0
   45.5710   32.9810   46.2930 N   0  0  0  0  0  0  0  0  0  0  0  0
   46.7020   33.3030   38.6730 N   0  0  0  0  0  0  0  0  0  0  0  0
   47.3590   33.7150   37.4390 C   0  0  0  0  0  0  0  0  0  0  0  0
   47.2370   32.6580   36.3640 C   0  0  0  0  0  0  0  0  0  0  0  0
   45.7810   32.4860   35.9800 C   0  0  0  0  0  0  0  0  0  0  0  0
   44.9240   32.6270   37.2160 C   0  0  0  0  0  0  0  0  0  0  0  0
   45.7380   32.2430   38.4310 C   0  0  0  0  0  0  0  0  0  0  0  0
   48.4515   36.0278   42.8528 H   0  0  0  0  0  0  0  0  0  0  0  0
   49.8712   35.9360   40.7627 H   0  0  0  0  0  0  0  0  0  0  0  0
   48.9546   34.6255   38.8555 H   0  0  0  0  0  0  0  0  0  0  0  0
   44.0638   35.1625   46.4781 H   0  0  0  0  0  0  0  0  0  0  0  0
   43.9161   36.9968   44.7116 H   0  0  0  0  0  0  0  0  0  0  0  0
   46.1827   32.1665   46.1405 H   0  0  0  0  0  0  0  0  0  0  0  0
   45.0177   33.0546   47.1586 H   0  0  0  0  0  0  0  0  0  0  0  0
   46.8936   34.6448   37.0800 H   0  0  0  0  0  0  0  0  0  0  0  0
   48.4273   33.8675   37.6521 H   0  0  0  0  0  0  0  0  0  0  0  0
   47.8143   32.9670   35.4801 H   0  0  0  0  0  0  0  0  0  0  0  0
   47.6285   31.7034   36.7455 H   0  0  0  0  0  0  0  0  0  0  0  0
   45.4999   33.2565   35.2470 H   0  0  0  0  0  0  0  0  0  0  0  0
   45.6299   31.4911   35.5357 H   0  0  0  0  0  0  0  0  0  0  0  0
   44.5870   33.6696   37.3132 H   0  0  0  0  0  0  0  0  0  0  0  0
   44.0469   31.9681   37.1351 H   0  0  0  0  0  0  0  0  0  0  0  0
   45.0778   32.1313   39.3037 H   0  0  0  0  0  0  0  0  0  0  0  0
   46.2535   31.2862   38.2614 H   0  0  0  0  0  0  0  0  0  0  0  0
  2  1  1  0
  2  3  2  0
  3 12  1  0
  4  3  1  0
  5  4  2  0
  6  7  2  0
  6  5  1  0
  7  2  1  0
  8  9  2  0
  8 14  1  0
 10  9  1  0
 11 10  2  0
 12 11  1  0
 12 13  2  0
 13  8  1  0
 15  7  1  0
 16 15  1  0
 17 16  1  0
 18 17  1  0
 18 19  1  0
 19 20  1  0
 20 15  1  0
  4 21  1  0
  5 22  1  0
  6 23  1  0
  9 24  1  0
 10 25  1  0
 14 26  1  0
 14 27  1  0
 16 28  1  0
 16 29  1  0
 17 30  1  0
 17 31  1  0
 18 32  1  0
 18 33  1  0
 19 34  1  0
 19 35  1  0
 20 36  1  0
 20 37  1  0
M  ISO  8  21  14  22  14  23  14  24  14  25  14  28  13  29  13  30  13
M  ISO  7  31  13  32  13  33  13  34  13  35  13  36  13  37  13
M  END
>  <minimizedAffinity>  (1) 
-6.15093184

>  <minimizedRMSD>  (1) 
0.387194753

$$$$
