
     RDKit          3D

 37 39  0  0  0  0  0  0  0  0999 V2000
   45.1990   33.3760   41.1900 F   0  0  0  0  0  0  0  0  0  0  0  0
   46.3590   34.0040   41.0490 C   0  0  0  0  0  0  0  0  0  0  0  0
   46.8310   34.7660   42.0910 C   0  0  0  0  0  0  0  0  0  0  0  0
   48.0490   35.4570   42.0320 C   0  0  0  0  0  0  0  0  0  0  0  0
   48.8240   35.3780   40.8760 C   0  0  0  0  0  0  0  0  0  0  0  0
   48.3150   34.6060   39.8600 C   0  0  0  0  0  0  0  0  0  0  0  0
   47.1370   33.9300   39.8990 C   0  0  0  0  0  0  0  0  0  0  0  0
   45.4620   34.0050   45.4110 C   0  0  0  0  0  0  0  0  0  0  0  0
   44.6200   35.1330   45.6310 C   0  0  0  0  0  0  0  0  0  0  0  0
   44.5320   36.1460   44.6340 C   0  0  0  0  0  0  0  0  0  0  0  0
   45.2810   35.9570   43.5100 N   0  0  0  0  0  0  0  0  0  0  0  0
   46.0600   34.8870   43.3340 C   0  0  0  0  0  0  0  0  0  0  0  0
   46.1480   33.9270   44.2720 N   0  0  0  0  0  0  0  0  0  0  0  0
   45.5340   33.0150   46.4120 N   0  0  0  0  0  0  0  0  0  0  0  0
   46.7150   33.1860   38.8280 O   0  0  0  0  0  0  0  0  0  0  0  0
   48.0130   34.6380   37.0400 O   0  0  0  0  0  0  0  0  0  0  0  0
   47.1710   33.3930   37.2250 P   0  0  2  0  0  0  0  0  0  0  0  0
   45.7420   33.5130   36.2900 O   0  0  0  0  0  0  0  0  0  0  0  0
   48.0030   32.0810   36.5750 O   0  0  0  0  0  0  0  0  0  0  0  0
   48.1450   31.7370   35.2630 C   0  0  0  0  0  0  0  0  0  0  0  0
   49.2440   31.8700   34.4290 C   0  0  0  0  0  0  0  0  0  0  0  0
   49.1810   31.4540   33.1170 C   0  0  0  0  0  0  0  0  0  0  0  0
   48.0350   30.8920   32.5740 C   0  0  0  0  0  0  0  0  0  0  0  0
   46.9780   30.7840   33.4420 C   0  0  0  0  0  0  0  0  0  0  0  0
   47.0170   31.1840   34.7280 N   0  0  0  0  0  0  0  0  0  0  0  0
   48.3900   36.0557   42.8895 H   0  0  0  0  0  0  0  0  0  0  0  0
   49.7862   35.9028   40.7828 H   0  0  0  0  0  0  0  0  0  0  0  0
   48.9106   34.5287   38.9384 H   0  0  0  0  0  0  0  0  0  0  0  0
   44.0427   35.2207   46.5632 H   0  0  0  0  0  0  0  0  0  0  0  0
   43.8944   37.0330   44.7634 H   0  0  0  0  0  0  0  0  0  0  0  0
   46.1353   32.1896   46.2777 H   0  0  0  0  0  0  0  0  0  0  0  0
   44.9853   33.1171   47.2777 H   0  0  0  0  0  0  0  0  0  0  0  0
   44.9585   33.5788   36.8916 H   0  0  0  0  0  0  0  0  0  0  0  0
   50.1737   32.3111   34.8176 H   0  0  0  0  0  0  0  0  0  0  0  0
   50.0692   31.5715   32.4788 H   0  0  0  0  0  0  0  0  0  0  0  0
   47.9780   30.5584   31.5274 H   0  0  0  0  0  0  0  0  0  0  0  0
   46.0426   30.3445   33.0654 H   0  0  0  0  0  0  0  0  0  0  0  0
  2  1  1  0
  2  3  2  0
  3 12  1  0
  4  3  1  0
  5  4  2  0
  6  7  2  0
  6  5  1  0
  7  2  1  0
  8  9  2  0
  8 14  1  0
 10  9  1  0
 11 10  2  0
 12 11  1  0
 12 13  2  0
 13  8  1  0
 15  7  1  0
 17 16  2  0
 17 15  1  0
 18 17  1  0
 19 17  1  0
 20 19  1  0
 21 20  2  0
 22 21  1  0
 23 22  2  0
 23 24  1  0
 24 25  2  0
 25 20  1  0
  4 26  1  0
  5 27  1  0
  6 28  1  0
  9 29  1  0
 10 30  1  0
 14 31  1  0
 14 32  1  0
 18 33  1  0
 21 34  1  0
 22 35  1  0
 23 36  1  0
 24 37  1  0
M  ISO  8  26  14  27  14  28  14  29  14  30  14  33   3  34  14  35  14
M  ISO  2  36  14  37  14
M  END
>  <minimizedAffinity>  (1) 
-6.5015831

>  <minimizedRMSD>  (1) 
2.47099352

$$$$
