
     RDKit          3D

 31 32  0  0  0  0  0  0  0  0999 V2000
   45.1230   33.5040   41.1600 F   0  0  0  0  0  0  0  0  0  0  0  0
   46.3100   34.0840   41.0520 C   0  0  0  0  0  0  0  0  0  0  0  0
   46.8160   34.7960   42.1140 C   0  0  0  0  0  0  0  0  0  0  0  0
   48.0580   35.4370   42.0850 C   0  0  0  0  0  0  0  0  0  0  0  0
   48.8360   35.3620   40.9280 C   0  0  0  0  0  0  0  0  0  0  0  0
   48.2950   34.6380   39.8800 C   0  0  0  0  0  0  0  0  0  0  0  0
   47.0890   34.0110   39.8980 C   0  0  0  0  0  0  0  0  0  0  0  0
   45.4550   34.0090   45.4310 C   0  0  0  0  0  0  0  0  0  0  0  0
   44.6130   35.1180   45.6710 C   0  0  0  0  0  0  0  0  0  0  0  0
   44.5160   36.1440   44.6780 C   0  0  0  0  0  0  0  0  0  0  0  0
   45.2620   35.9700   43.5480 N   0  0  0  0  0  0  0  0  0  0  0  0
   46.0450   34.9070   43.3600 C   0  0  0  0  0  0  0  0  0  0  0  0
   46.1390   33.9410   44.2910 N   0  0  0  0  0  0  0  0  0  0  0  0
   45.5330   33.0120   46.4240 N   0  0  0  0  0  0  0  0  0  0  0  0
   46.6530   33.3220   38.7990 O   0  0  0  0  0  0  0  0  0  0  0  0
   48.1090   34.6380   37.0100 O   0  0  0  0  0  0  0  0  0  0  0  0
   47.3190   33.3930   37.2530 P   0  0  2  0  0  0  0  0  0  0  0  0
   46.0510   33.2380   36.1190 O   0  0  0  0  0  0  0  0  0  0  0  0
   48.3300   32.0510   36.9290 O   0  0  0  0  0  0  0  0  0  0  0  0
   47.5410   30.9300   37.1130 C   0  0  0  0  0  0  0  0  0  0  0  0
   48.4179   35.9936   42.9629 H   0  0  0  0  0  0  0  0  0  0  0  0
   49.8195   35.8490   40.8540 H   0  0  0  0  0  0  0  0  0  0  0  0
   48.8893   34.5639   38.9573 H   0  0  0  0  0  0  0  0  0  0  0  0
   44.0404   35.1917   46.6074 H   0  0  0  0  0  0  0  0  0  0  0  0
   43.8742   37.0263   44.8179 H   0  0  0  0  0  0  0  0  0  0  0  0
   46.1370   32.1899   46.2820 H   0  0  0  0  0  0  0  0  0  0  0  0
   44.9860   33.1055   47.2917 H   0  0  0  0  0  0  0  0  0  0  0  0
   45.1910   33.1329   36.5979 H   0  0  0  0  0  0  0  0  0  0  0  0
   47.4112   30.7456   38.1897 H   0  0  0  0  0  0  0  0  0  0  0  0
   46.5577   31.0933   36.6478 H   0  0  0  0  0  0  0  0  0  0  0  0
   48.0266   30.0595   36.6478 H   0  0  0  0  0  0  0  0  0  0  0  0
  2  1  1  0
  2  3  2  0
  3 12  1  0
  4  3  1  0
  5  4  2  0
  6  7  2  0
  6  5  1  0
  7  2  1  0
  8  9  2  0
  8 14  1  0
 10  9  1  0
 11 10  2  0
 12 11  1  0
 12 13  2  0
 13  8  1  0
 15  7  1  0
 17 16  2  0
 17 15  1  0
 18 17  1  0
 19 20  1  0
 19 17  1  0
  4 21  1  0
  5 22  1  0
  6 23  1  0
  9 24  1  0
 10 25  1  0
 14 26  1  0
 14 27  1  0
 18 28  1  0
 20 29  1  0
 20 30  1  0
 20 31  1  0
M  ISO  8  21  14  22  14  23  14  24  14  25  14  28   3  29   8  30   8
M  ISO  1  31   8
M  END
>  <minimizedAffinity>  (1) 
-5.83989429

>  <minimizedRMSD>  (1) 
0.0348521098

$$$$
