
     RDKit          3D

 31 32  0  0  0  0  0  0  0  0999 V2000
   45.0610   34.7760   44.4300 C   0  0  0  0  0  0  0  0  0  0  0  0
   45.0000   34.0420   43.2290 C   0  0  0  0  0  0  0  0  0  0  0  0
   45.3170   32.6850   43.2990 C   0  0  0  0  0  0  0  0  0  0  0  0
   45.6650   32.1390   44.5010 N   0  0  0  0  0  0  0  0  0  0  0  0
   45.7110   32.8830   45.6260 C   0  0  0  0  0  0  0  0  0  0  0  0
   45.4050   34.1980   45.5740 N   0  0  0  0  0  0  0  0  0  0  0  0
   46.0820   32.2310   46.8240 N   0  0  0  0  0  0  0  0  0  0  0  0
   45.3140   32.4920   48.0150 C   0  0  0  0  0  0  0  0  0  0  0  0
   45.8490   31.7880   49.2280 C   0  0  0  0  0  0  0  0  0  0  0  0
   46.1310   30.3950   49.0180 N   0  0  0  0  0  0  0  0  0  0  0  0
   46.5960   30.0860   47.6910 C   0  0  0  0  0  0  0  0  0  0  0  0
   47.1710   31.3150   46.9770 C   0  0  0  0  0  0  0  0  0  0  0  0
   44.7300   36.2070   44.3830 C   0  0  0  0  0  0  0  0  0  0  0  0
   45.3520   36.9650   43.5060 C   0  0  0  0  0  0  0  0  0  0  0  0
   45.0910   38.4200   43.3790 C   0  0  0  0  0  0  0  0  0  0  0  0
   44.7152   34.5174   42.2788 H   0  0  0  0  0  0  0  0  0  0  0  0
   45.2868   32.0607   42.3938 H   0  0  0  0  0  0  0  0  0  0  0  0
   45.3229   33.5751   48.2067 H   0  0  0  0  0  0  0  0  0  0  0  0
   44.2967   32.1128   47.8383 H   0  0  0  0  0  0  0  0  0  0  0  0
   46.7800   32.2870   49.5351 H   0  0  0  0  0  0  0  0  0  0  0  0
   45.0658   31.8416   49.9985 H   0  0  0  0  0  0  0  0  0  0  0  0
   46.8555   30.1061   49.6907 H   0  0  0  0  0  0  0  0  0  0  0  0
   47.3802   29.3178   47.7605 H   0  0  0  0  0  0  0  0  0  0  0  0
   45.7353   29.7284   47.1067 H   0  0  0  0  0  0  0  0  0  0  0  0
   47.5726   31.0316   45.9929 H   0  0  0  0  0  0  0  0  0  0  0  0
   47.9957   31.7635   47.5503 H   0  0  0  0  0  0  0  0  0  0  0  0
   43.9800   36.6342   45.0649 H   0  0  0  0  0  0  0  0  0  0  0  0
   46.0951   36.5017   42.8404 H   0  0  0  0  0  0  0  0  0  0  0  0
   45.0108   38.8670   44.3809 H   0  0  0  0  0  0  0  0  0  0  0  0
   45.9184   38.8945   42.8310 H   0  0  0  0  0  0  0  0  0  0  0  0
   44.1503   38.5773   42.8310 H   0  0  0  0  0  0  0  0  0  0  0  0
  1  6  2  0
  2  3  2  0
  2  1  1  0
  3  4  1  0
  4  5  2  0
  5  7  1  0
  6  5  1  0
  7 12  1  0
  7  8  1  0
  8  9  1  0
 10  9  1  0
 11 10  1  0
 12 11  1  0
 13  1  1  0
 14 13  2  0
 15 14  1  0
  2 16  1  0
  3 17  1  0
  8 18  1  0
  8 19  1  0
  9 20  1  0
  9 21  1  0
 10 22  1  0
 11 23  1  0
 11 24  1  0
 12 25  1  0
 12 26  1  0
 13 27  1  0
 14 28  1  0
 15 29  1  0
 15 30  1  0
 15 31  1  0
M  ISO  8  16  14  17  14  18  13  19  13  20  13  21  13  22   5  23  13
M  ISO  6  24  13  25  13  26  13  29   8  30   8  31   8
M  END
>  <minimizedAffinity>  (1) 
-4.21697187

>  <minimizedRMSD>  (1) 
2.55632019

$$$$
