
     RDKit          3D

 21 21  0  0  0  0  0  0  0  0999 V2000
   44.7840   35.7220   43.6230 C   0  0  0  0  0  0  0  0  0  0  0  0
   44.3260   35.6610   42.2930 C   0  0  0  0  0  0  0  0  0  0  0  0
   44.2120   34.4060   41.6690 C   0  0  0  0  0  0  0  0  0  0  0  0
   44.5540   33.3230   42.3960 N   0  0  0  0  0  0  0  0  0  0  0  0
   44.9940   33.4120   43.6770 C   0  0  0  0  0  0  0  0  0  0  0  0
   45.1060   34.5930   44.2810 N   0  0  0  0  0  0  0  0  0  0  0  0
   46.1030   32.3120   45.6150 C   0  0  0  0  0  0  0  0  0  0  0  0
   46.4320   33.4760   45.9980 O   0  0  0  0  0  0  0  0  0  0  0  0
   45.3420   32.2190   44.3940 N   0  0  0  0  0  0  0  0  0  0  0  0
   44.8930   37.0390   44.2440 C   0  0  0  0  0  0  0  0  0  0  0  0
   45.3070   38.0530   43.4790 C   0  0  0  0  0  0  0  0  0  0  0  0
   45.4290   39.4150   44.0900 C   0  0  0  0  0  0  0  0  0  0  0  0
   44.0615   36.5807   41.7505 H   0  0  0  0  0  0  0  0  0  0  0  0
   43.8587   34.3117   40.6315 H   0  0  0  0  0  0  0  0  0  0  0  0
   46.3851   31.4161   46.1875 H   0  0  0  0  0  0  0  0  0  0  0  0
   45.0489   31.2983   44.0373 H   0  0  0  0  0  0  0  0  0  0  0  0
   44.6430   37.1909   45.3044 H   0  0  0  0  0  0  0  0  0  0  0  0
   45.5538   37.8905   42.4194 H   0  0  0  0  0  0  0  0  0  0  0  0
   45.4211   39.3270   45.1864 H   0  0  0  0  0  0  0  0  0  0  0  0
   46.3723   39.8790   43.7661 H   0  0  0  0  0  0  0  0  0  0  0  0
   44.5832   40.0393   43.7661 H   0  0  0  0  0  0  0  0  0  0  0  0
  1 10  1  0
  1  6  2  0
  2  1  1  0
  3  2  2  0
  3  4  1  0
  4  5  2  0
  5  6  1  0
  5  9  1  0
  7  8  2  0
  9  7  1  0
 11 12  1  0
 11 10  2  0
  2 13  1  0
  3 14  1  0
  7 15  1  0
  9 16  1  0
 10 17  1  0
 11 18  1  0
 12 19  1  0
 12 20  1  0
 12 21  1  0
M  ISO  6  13  14  14  14  15   6  19   8  20   8  21   8
M  END
>  <minimizedAffinity>  (1) 
-3.38142753

>  <minimizedRMSD>  (1) 
0.422071427

$$$$
