
     RDKit          3D

 19 19  0  0  0  0  0  0  0  0999 V2000
   44.8180   35.7080   43.7810 C   0  0  0  0  0  0  0  0  0  0  0  0
   44.1650   35.4780   42.5550 C   0  0  0  0  0  0  0  0  0  0  0  0
   44.1200   34.1610   42.0620 C   0  0  0  0  0  0  0  0  0  0  0  0
   44.7130   33.1780   42.8010 N   0  0  0  0  0  0  0  0  0  0  0  0
   45.3380   33.4430   43.9880 C   0  0  0  0  0  0  0  0  0  0  0  0
   45.3760   34.7110   44.4520 N   0  0  0  0  0  0  0  0  0  0  0  0
   45.9410   32.3230   44.7000 C   0  0  0  0  0  0  0  0  0  0  0  0
   46.9860   32.5660   45.3580 O   0  0  0  0  0  0  0  0  0  0  0  0
   44.8470   37.0790   44.2680 C   0  0  0  0  0  0  0  0  0  0  0  0
   45.3690   38.0230   43.5170 C   0  0  0  0  0  0  0  0  0  0  0  0
   45.4350   39.4390   43.9310 C   0  0  0  0  0  0  0  0  0  0  0  0
   43.7024   36.3058   41.9975 H   0  0  0  0  0  0  0  0  0  0  0  0
   43.6216   33.9301   41.1090 H   0  0  0  0  0  0  0  0  0  0  0  0
   45.5038   31.3142   44.6639 H   0  0  0  0  0  0  0  0  0  0  0  0
   44.4348   37.3237   45.2581 H   0  0  0  0  0  0  0  0  0  0  0  0
   45.7760   37.7451   42.5336 H   0  0  0  0  0  0  0  0  0  0  0  0
   45.4379   39.5002   45.0293 H   0  0  0  0  0  0  0  0  0  0  0  0
   46.3553   39.8940   43.5360 H   0  0  0  0  0  0  0  0  0  0  0  0
   44.5610   39.9776   43.5360 H   0  0  0  0  0  0  0  0  0  0  0  0
  1  9  1  0
  1  6  2  0
  2  1  1  0
  3  2  2  0
  3  4  1  0
  4  5  2  0
  5  6  1  0
  5  7  1  0
  7  8  2  0
 10 11  1  0
 10  9  2  0
  2 12  1  0
  3 13  1  0
  7 14  1  0
  9 15  1  0
 10 16  1  0
 11 17  1  0
 11 18  1  0
 11 19  1  0
M  ISO  6  12  14  13  14  14   6  17   8  18   8  19   8
M  END
>  <minimizedAffinity>  (1) 
-2.71700025

>  <minimizedRMSD>  (1) 
0.673123717

$$$$
