
     RDKit          3D

 24 25  0  0  0  0  0  0  0  0999 V2000
   44.8250   35.7530   43.7000 C   0  0  0  0  0  0  0  0  0  0  0  0
   44.2610   35.6070   42.4070 C   0  0  0  0  0  0  0  0  0  0  0  0
   44.2180   34.3190   41.8480 C   0  0  0  0  0  0  0  0  0  0  0  0
   44.7210   33.2800   42.5790 N   0  0  0  0  0  0  0  0  0  0  0  0
   45.2560   33.4600   43.8190 C   0  0  0  0  0  0  0  0  0  0  0  0
   45.2950   34.6990   44.3520 N   0  0  0  0  0  0  0  0  0  0  0  0
   45.8030   32.3460   44.6190 C   0  0  0  0  0  0  0  0  0  0  0  0
   47.2760   32.0510   44.4710 C   0  0  0  0  0  0  0  0  0  0  0  0
   46.7890   32.7120   45.7400 C   0  0  0  0  0  0  0  0  0  0  0  0
   44.8610   37.0950   44.2610 C   0  0  0  0  0  0  0  0  0  0  0  0
   45.3660   38.0830   43.5150 C   0  0  0  0  0  0  0  0  0  0  0  0
   45.4350   39.4750   44.0150 C   0  0  0  0  0  0  0  0  0  0  0  0
   43.8690   36.4761   41.8584 H   0  0  0  0  0  0  0  0  0  0  0  0
   43.7907   34.1513   40.8483 H   0  0  0  0  0  0  0  0  0  0  0  0
   44.8779   31.7545   44.5526 H   0  0  0  0  0  0  0  0  0  0  0  0
   47.6305   31.0101   44.4981 H   0  0  0  0  0  0  0  0  0  0  0  0
   48.0395   32.2963   43.7181 H   0  0  0  0  0  0  0  0  0  0  0  0
   47.0299   33.7664   45.9404 H   0  0  0  0  0  0  0  0  0  0  0  0
   46.8667   32.4925   46.8151 H   0  0  0  0  0  0  0  0  0  0  0  0
   44.4818   37.2920   45.2746 H   0  0  0  0  0  0  0  0  0  0  0  0
   45.7392   37.8562   42.5054 H   0  0  0  0  0  0  0  0  0  0  0  0
   45.4347   39.4699   45.1150 H   0  0  0  0  0  0  0  0  0  0  0  0
   46.3578   39.9501   43.6507 H   0  0  0  0  0  0  0  0  0  0  0  0
   44.5637   40.0391   43.6507 H   0  0  0  0  0  0  0  0  0  0  0  0
  1 10  1  0
  1  6  2  0
  2  1  1  0
  3  2  2  0
  3  4  1  0
  4  5  2  0
  5  6  1  0
  5  7  1  0
  7  9  1  0
  8  7  1  0
  8  9  1  0
 11 12  1  0
 11 10  2  0
  2 13  1  0
  3 14  1  0
  7 15  1  0
  8 16  1  0
  8 17  1  0
  9 18  1  0
  9 19  1  0
 10 20  1  0
 11 21  1  0
 12 22  1  0
 12 23  1  0
 12 24  1  0
M  ISO  8  13  14  14  14  15  13  16  13  17  13  18  13  19  13  22   8
M  ISO  2  23   8  24   8
M  END
>  <minimizedAffinity>  (1) 
-3.00214553

>  <minimizedRMSD>  (1) 
0.388272166

$$$$
