
     RDKit          3D

 53 57  0  0  1  0  0  0  0  0999 V2000
   47.2180   34.1510   42.4030 C   0  0  2  0  0  0  0  0  0  0  0  0
   48.5970   34.7110   42.5800 C   0  0  0  0  0  0  0  0  0  0  0  0
   48.9400   35.7160   41.5520 C   0  0  0  0  0  0  0  0  0  0  0  0
   48.7740   35.2030   40.1400 C   0  0  0  0  0  0  0  0  0  0  0  0
   47.5680   34.3270   39.9550 C   0  0  0  0  0  0  0  0  0  0  0  0
   46.5820   34.4350   41.0940 C   0  0  1  0  0  0  0  0  0  0  0  0
   46.3060   34.5110   43.5080 C   0  0  0  0  0  0  0  0  0  0  0  0
   45.6020   35.6800   43.2740 C   0  0  0  0  0  0  0  0  0  0  0  0
   44.6910   36.1480   44.2350 C   0  0  0  0  0  0  0  0  0  0  0  0
   44.5730   35.3620   45.3870 N   0  0  0  0  0  0  0  0  0  0  0  0
   45.2840   34.2300   45.5670 C   0  0  0  0  0  0  0  0  0  0  0  0
   46.1430   33.8220   44.6180 N   0  0  0  0  0  0  0  0  0  0  0  0
   45.5050   33.4060   40.8700 C   0  0  2  0  0  0  0  0  0  0  0  0
   44.9720   33.2390   39.4580 C   0  0  0  0  0  0  0  0  0  0  0  0
   44.1270   33.8320   40.5040 C   0  0  1  0  0  0  0  0  0  0  0  0
   43.0610   33.0850   41.2540 C   0  0  0  0  0  0  0  0  0  0  0  0
   41.7990   33.8560   41.4610 C   0  0  0  0  0  0  0  0  0  0  0  0
   40.5710   33.1630   41.0430 C   0  0  0  0  0  0  0  0  0  0  0  0
   40.0140   32.1990   41.8190 N   0  0  0  0  0  0  0  0  0  0  0  0
   38.9000   31.5420   41.4550 C   0  0  0  0  0  0  0  0  0  0  0  0
   38.2320   31.7620   40.3080 N   0  0  0  0  0  0  0  0  0  0  0  0
   38.7350   32.7070   39.4960 C   0  0  0  0  0  0  0  0  0  0  0  0
   38.1560   33.0430   38.2910 C   0  0  0  0  0  0  0  0  0  0  0  0
   38.6280   34.0050   37.4220 C   0  0  0  0  0  0  0  0  0  0  0  0
   39.7740   34.6810   37.7990 C   0  0  0  0  0  0  0  0  0  0  0  0
   40.3790   34.3570   39.0180 C   0  0  0  0  0  0  0  0  0  0  0  0
   39.8760   33.3880   39.8590 C   0  0  0  0  0  0  0  0  0  0  0  0
   47.3876   33.0644   42.4255 H   0  0  0  0  0  0  0  0  0  0  0  0
   48.6600   35.1850   43.5706 H   0  0  0  0  0  0  0  0  0  0  0  0
   49.3092   33.8784   42.4818 H   0  0  0  0  0  0  0  0  0  0  0  0
   48.2859   36.5903   41.6856 H   0  0  0  0  0  0  0  0  0  0  0  0
   50.0018   35.9707   41.6849 H   0  0  0  0  0  0  0  0  0  0  0  0
   48.6830   36.0667   39.4649 H   0  0  0  0  0  0  0  0  0  0  0  0
   49.6571   34.5868   39.9154 H   0  0  0  0  0  0  0  0  0  0  0  0
   47.0614   34.6196   39.0235 H   0  0  0  0  0  0  0  0  0  0  0  0
   47.9193   33.2852   39.9206 H   0  0  0  0  0  0  0  0  0  0  0  0
   46.1845   35.4604   41.1157 H   0  0  0  0  0  0  0  0  0  0  0  0
   45.7555   36.2397   42.3396 H   0  0  0  0  0  0  0  0  0  0  0  0
   44.1092   37.0705   44.0919 H   0  0  0  0  0  0  0  0  0  0  0  0
   45.1608   33.6423   46.4886 H   0  0  0  0  0  0  0  0  0  0  0  0
   45.9307   32.7551   41.6479 H   0  0  0  0  0  0  0  0  0  0  0  0
   44.7451   32.2350   39.0700 H   0  0  0  0  0  0  0  0  0  0  0  0
   45.3061   33.5491   38.4569 H   0  0  0  0  0  0  0  0  0  0  0  0
   43.5170   34.7470   40.4782 H   0  0  0  0  0  0  0  0  0  0  0  0
   42.8183   32.1724   40.6898 H   0  0  0  0  0  0  0  0  0  0  0  0
   43.4686   32.8745   42.2538 H   0  0  0  0  0  0  0  0  0  0  0  0
   41.7123   34.0870   42.5330 H   0  0  0  0  0  0  0  0  0  0  0  0
   41.8780   34.7508   40.8261 H   0  0  0  0  0  0  0  0  0  0  0  0
   38.5087   30.7745   42.1390 H   0  0  0  0  0  0  0  0  0  0  0  0
   37.2446   32.5007   37.9989 H   0  0  0  0  0  0  0  0  0  0  0  0
   38.1164   34.2242   36.4732 H   0  0  0  0  0  0  0  0  0  0  0  0
   40.2025   35.4601   37.1514 H   0  0  0  0  0  0  0  0  0  0  0  0
   41.2904   34.8959   39.3164 H   0  0  0  0  0  0  0  0  0  0  0  0
  1  2  1  0
  1  7  1  0
  3  2  1  0
  4  3  1  0
  5  4  1  0
  5  6  1  0
  6  1  1  0
  7 12  1  0
  8  7  2  0
  8  9  1  0
  9 10  2  0
 10 11  1  0
 12 11  2  0
 13  6  1  0
 14 15  1  0
 14 13  1  0
 15 13  1  0
 15 16  1  0
 16 17  1  0
 18 17  1  0
 18 19  2  0
 20 19  1  0
 21 20  2  0
 22 27  2  0
 22 21  1  0
 23 22  1  0
 24 25  1  0
 24 23  2  0
 25 26  2  0
 26 27  1  0
 27 18  1  0
  1 28  1  6
  2 29  1  0
  2 30  1  0
  3 31  1  0
  3 32  1  0
  4 33  1  0
  4 34  1  0
  5 35  1  0
  5 36  1  0
  6 37  1  1
  8 38  1  0
  9 39  1  0
 11 40  1  0
 13 41  1  1
 14 42  1  0
 14 43  1  0
 15 44  1  6
 16 45  1  0
 16 46  1  0
 17 47  1  0
 17 48  1  0
 20 49  1  0
 23 50  1  0
 24 51  1  0
 25 52  1  0
 26 53  1  0
M  ISO  8  28  13  29  13  30  13  31  13  32  13  33  13  34  13  35  13
M  ISO  8  36  13  37  13  38  14  39  14  40  14  41  13  42  13  43  13
M  ISO  8  44  13  45   8  46   8  47   8  48   8  49  14  50  14  51  14
M  ISO  2  52  14  53  14
M  END
>  <minimizedAffinity>  (1) 
-7.57304716

>  <minimizedRMSD>  (1) 
2.63128495

$$$$
