
     RDKit          3D

 28 29  0  0  0  0  0  0  0  0999 V2000
   45.1410   36.0700   43.0610 C   0  0  0  0  0  0  0  0  0  0  0  0
   44.1400   35.8570   42.0960 C   0  0  0  0  0  0  0  0  0  0  0  0
   44.3580   34.8370   41.1540 C   0  0  0  0  0  0  0  0  0  0  0  0
   45.4990   34.1240   41.2220 N   0  0  0  0  0  0  0  0  0  0  0  0
   46.4390   34.3590   42.1660 C   0  0  0  0  0  0  0  0  0  0  0  0
   46.2510   35.3320   43.0790 N   0  0  0  0  0  0  0  0  0  0  0  0
   48.9450   35.7690   41.1960 Cl  0  0  0  0  0  0  0  0  0  0  0  0
   48.8450   34.1170   41.7200 C   0  0  0  0  0  0  0  0  0  0  0  0
   47.6530   33.5260   42.1570 C   0  0  0  0  0  0  0  0  0  0  0  0
   47.5460   32.2320   42.5740 C   0  0  0  0  0  0  0  0  0  0  0  0
   48.6950   31.4880   42.5530 C   0  0  0  0  0  0  0  0  0  0  0  0
   49.9270   31.9530   42.1450 C   0  0  0  0  0  0  0  0  0  0  0  0
   49.9420   33.2860   41.7360 C   0  0  0  0  0  0  0  0  0  0  0  0
   44.9160   37.1350   44.0480 C   0  0  0  0  0  0  0  0  0  0  0  0
   45.4940   38.2940   43.8530 C   0  0  0  0  0  0  0  0  0  0  0  0
   45.3230   39.4270   44.7950 C   0  0  0  0  0  0  0  0  0  0  0  0
   44.6110   40.4920   44.2550 O   0  0  0  0  0  0  0  0  0  0  0  0
   43.2231   36.4645   42.0793 H   0  0  0  0  0  0  0  0  0  0  0  0
   43.6106   34.6247   40.3754 H   0  0  0  0  0  0  0  0  0  0  0  0
   46.5877   31.8087   42.9093 H   0  0  0  0  0  0  0  0  0  0  0  0
   48.6304   30.4417   42.8864 H   0  0  0  0  0  0  0  0  0  0  0  0
   50.8279   31.3218   42.1423 H   0  0  0  0  0  0  0  0  0  0  0  0
   50.9025   33.7047   41.4011 H   0  0  0  0  0  0  0  0  0  0  0  0
   44.2786   36.9633   44.9279 H   0  0  0  0  0  0  0  0  0  0  0  0
   46.1258   38.4315   42.9631 H   0  0  0  0  0  0  0  0  0  0  0  0
   44.7860   39.0635   45.6836 H   0  0  0  0  0  0  0  0  0  0  0  0
   46.3285   39.7998   45.0400 H   0  0  0  0  0  0  0  0  0  0  0  0
   44.2405   41.0462   44.9869 H   0  0  0  0  0  0  0  0  0  0  0  0
  1  6  2  0
  1 14  1  0
  2  1  1  0
  3  4  1  0
  3  2  2  0
  4  5  2  0
  5  6  1  0
  7  8  1  0
  8 13  2  0
  8  9  1  0
  9  5  1  0
  9 10  2  0
 11 10  1  0
 12 11  2  0
 13 12  1  0
 15 14  2  0
 15 16  1  0
 17 16  1  0
  2 18  1  0
  3 19  1  0
 10 20  1  0
 11 21  1  0
 12 22  1  0
 13 23  1  0
 14 24  1  0
 15 25  1  0
 16 26  1  0
 16 27  1  0
 17 28  1  0
M  ISO  8  18  14  19  14  20  14  21  14  22  14  23  14  26   8  27   8
M  ISO  1  28   3
M  END
>  <minimizedAffinity>  (1) 
-4.46034527

>  <minimizedRMSD>  (1) 
0.284261644

$$$$
