
     RDKit          3D

 29 30  0  0  0  0  0  0  0  0999 V2000
   45.1320   36.0060   43.0560 C   0  0  0  0  0  0  0  0  0  0  0  0
   44.1440   35.8030   42.0880 C   0  0  0  0  0  0  0  0  0  0  0  0
   44.3780   34.8110   41.1220 C   0  0  0  0  0  0  0  0  0  0  0  0
   45.5360   34.1060   41.1720 N   0  0  0  0  0  0  0  0  0  0  0  0
   46.4630   34.3380   42.1290 C   0  0  0  0  0  0  0  0  0  0  0  0
   46.2640   35.2830   43.0670 N   0  0  0  0  0  0  0  0  0  0  0  0
   48.9570   35.8040   41.2380 Cl  0  0  0  0  0  0  0  0  0  0  0  0
   48.8700   34.1420   41.7050 C   0  0  0  0  0  0  0  0  0  0  0  0
   47.6920   33.5220   42.1060 C   0  0  0  0  0  0  0  0  0  0  0  0
   47.5960   32.2080   42.4810 C   0  0  0  0  0  0  0  0  0  0  0  0
   48.7560   31.4770   42.4500 C   0  0  0  0  0  0  0  0  0  0  0  0
   49.9860   31.9720   42.0720 C   0  0  0  0  0  0  0  0  0  0  0  0
   49.9800   33.3150   41.7100 C   0  0  0  0  0  0  0  0  0  0  0  0
   44.9090   37.0410   44.0800 C   0  0  0  0  0  0  0  0  0  0  0  0
   45.4690   38.2170   43.9080 C   0  0  0  0  0  0  0  0  0  0  0  0
   45.2510   39.2800   44.9420 C   0  0  0  0  0  0  0  0  0  0  0  0
   44.7750   40.4590   44.2410 N   0  0  0  0  0  0  0  0  0  0  0  0
   43.2186   36.3976   42.0832 H   0  0  0  0  0  0  0  0  0  0  0  0
   43.6342   34.6088   40.3372 H   0  0  0  0  0  0  0  0  0  0  0  0
   46.6390   31.7626   42.7906 H   0  0  0  0  0  0  0  0  0  0  0  0
   48.7011   30.4196   42.7482 H   0  0  0  0  0  0  0  0  0  0  0  0
   50.8970   31.3557   42.0579 H   0  0  0  0  0  0  0  0  0  0  0  0
   50.9387   33.7574   41.4015 H   0  0  0  0  0  0  0  0  0  0  0  0
   44.2899   36.8348   44.9655 H   0  0  0  0  0  0  0  0  0  0  0  0
   46.0871   38.4180   43.0206 H   0  0  0  0  0  0  0  0  0  0  0  0
   44.5011   38.9470   45.6746 H   0  0  0  0  0  0  0  0  0  0  0  0
   46.1816   39.4953   45.4876 H   0  0  0  0  0  0  0  0  0  0  0  0
   44.4869   41.1726   44.9256 H   0  0  0  0  0  0  0  0  0  0  0  0
   45.5300   40.8353   43.6500 H   0  0  0  0  0  0  0  0  0  0  0  0
  1  6  2  0
  1 14  1  0
  2  1  1  0
  3  4  1  0
  3  2  2  0
  4  5  2  0
  5  6  1  0
  7  8  1  0
  8 13  2  0
  8  9  1  0
  9  5  1  0
  9 10  2  0
 11 10  1  0
 12 11  2  0
 13 12  1  0
 15 14  2  0
 15 16  1  0
 17 16  1  0
  2 18  1  0
  3 19  1  0
 10 20  1  0
 11 21  1  0
 12 22  1  0
 13 23  1  0
 14 24  1  0
 15 25  1  0
 16 26  1  0
 16 27  1  0
 17 28  1  0
 17 29  1  0
M  ISO  8  18  14  19  14  20  14  21  14  22  14  23  14  26   8  27   8
M  ISO  2  28   5  29   5
M  END
>  <minimizedAffinity>  (1) 
-4.3028512

>  <minimizedRMSD>  (1) 
0.320076972

$$$$
