
     RDKit          3D

 36 38  0  0  0  0  0  0  0  0999 V2000
   45.0990   36.2650   43.1890 C   0  0  0  0  0  0  0  0  0  0  0  0
   44.0810   36.1820   42.2300 C   0  0  0  0  0  0  0  0  0  0  0  0
   44.2130   35.1970   41.2380 C   0  0  0  0  0  0  0  0  0  0  0  0
   45.3000   34.3840   41.2490 N   0  0  0  0  0  0  0  0  0  0  0  0
   46.2630   34.5080   42.2060 C   0  0  0  0  0  0  0  0  0  0  0  0
   46.1600   35.4460   43.1720 N   0  0  0  0  0  0  0  0  0  0  0  0
   48.8060   35.7240   41.0930 Cl  0  0  0  0  0  0  0  0  0  0  0  0
   48.6040   34.0840   41.6320 C   0  0  0  0  0  0  0  0  0  0  0  0
   47.4010   33.5840   42.1360 C   0  0  0  0  0  0  0  0  0  0  0  0
   47.2380   32.3030   42.5590 C   0  0  0  0  0  0  0  0  0  0  0  0
   48.3260   31.4720   42.4780 C   0  0  0  0  0  0  0  0  0  0  0  0
   49.5600   31.8500   41.9980 C   0  0  0  0  0  0  0  0  0  0  0  0
   49.6440   33.1850   41.5830 C   0  0  0  0  0  0  0  0  0  0  0  0
   44.9940   37.2870   44.2470 C   0  0  0  0  0  0  0  0  0  0  0  0
   45.4170   38.5100   43.9720 C   0  0  0  0  0  0  0  0  0  0  0  0
   45.3010   39.5330   45.0600 C   0  0  0  0  0  0  0  0  0  0  0  0
   44.5620   40.6530   44.4970 N   0  0  0  0  0  0  0  0  0  0  0  0
   44.3980   41.6390   45.5530 C   0  0  0  0  0  0  0  0  0  0  0  0
   44.4530   43.1070   45.1930 C   0  0  0  0  0  0  0  0  0  0  0  0
   43.1550   42.4570   45.5440 C   0  0  0  0  0  0  0  0  0  0  0  0
   43.2149   36.8598   42.2532 H   0  0  0  0  0  0  0  0  0  0  0  0
   43.4435   35.0853   40.4600 H   0  0  0  0  0  0  0  0  0  0  0  0
   46.2734   31.9473   42.9502 H   0  0  0  0  0  0  0  0  0  0  0  0
   48.2047   30.4334   42.8195 H   0  0  0  0  0  0  0  0  0  0  0  0
   50.4131   31.1576   41.9447 H   0  0  0  0  0  0  0  0  0  0  0  0
   50.6086   33.5392   41.1906 H   0  0  0  0  0  0  0  0  0  0  0  0
   44.5768   37.0400   45.2344 H   0  0  0  0  0  0  0  0  0  0  0  0
   45.8357   38.7646   42.9872 H   0  0  0  0  0  0  0  0  0  0  0  0
   44.7582   39.1134   45.9198 H   0  0  0  0  0  0  0  0  0  0  0  0
   46.2926   39.8494   45.4159 H   0  0  0  0  0  0  0  0  0  0  0  0
   45.0874   41.0624   43.7113 H   0  0  0  0  0  0  0  0  0  0  0  0
   44.9162   41.0030   46.2858 H   0  0  0  0  0  0  0  0  0  0  0  0
   44.6539   43.4137   44.1559 H   0  0  0  0  0  0  0  0  0  0  0  0
   45.0134   43.9807   45.5572 H   0  0  0  0  0  0  0  0  0  0  0  0
   42.6570   42.7063   46.4926 H   0  0  0  0  0  0  0  0  0  0  0  0
   42.1766   42.3694   45.0489 H   0  0  0  0  0  0  0  0  0  0  0  0
  1 14  1  0
  2  1  2  0
  3  4  2  0
  3  2  1  0
  4  5  1  0
  5  6  2  0
  6  1  1  0
  7  8  1  0
  8  9  2  0
  9  5  1  0
  9 10  1  0
 11 10  2  0
 12 11  1  0
 13  8  1  0
 13 12  2  0
 15 14  2  0
 15 16  1  0
 17 16  1  0
 17 18  1  0
 19 20  1  0
 19 18  1  0
 20 18  1  0
  2 21  1  0
  3 22  1  0
 10 23  1  0
 11 24  1  0
 12 25  1  0
 13 26  1  0
 14 27  1  0
 15 28  1  0
 16 29  1  0
 16 30  1  0
 17 31  1  0
 18 32  1  0
 19 33  1  0
 19 34  1  0
 20 35  1  0
 20 36  1  0
M  ISO  8  21  14  22  14  23  14  24  14  25  14  26  14  29   8  30   8
M  ISO  6  31   5  32  13  33  13  34  13  35  13  36  13
M  END
>  <minimizedAffinity>  (1) 
-4.76028728

>  <minimizedRMSD>  (1) 
0.37626189

$$$$
