
     RDKit          3D

 49 52  0  0  1  0  0  0  0  0999 V2000
   46.9410   34.0380   42.5660 C   0  0  2  0  0  0  0  0  0  0  0  0
   48.3890   34.3710   42.7440 C   0  0  0  0  0  0  0  0  0  0  0  0
   48.8600   35.3800   41.7720 C   0  0  0  0  0  0  0  0  0  0  0  0
   48.6130   34.9550   40.3380 C   0  0  0  0  0  0  0  0  0  0  0  0
   47.2600   34.3420   40.1200 C   0  0  0  0  0  0  0  0  0  0  0  0
   46.3280   34.4990   41.2940 C   0  0  1  0  0  0  0  0  0  0  0  0
   46.1100   34.4540   43.7140 C   0  0  0  0  0  0  0  0  0  0  0  0
   45.4410   35.6460   43.4960 C   0  0  0  0  0  0  0  0  0  0  0  0
   44.6050   36.1660   44.5000 C   0  0  0  0  0  0  0  0  0  0  0  0
   44.5230   35.4040   45.6720 N   0  0  0  0  0  0  0  0  0  0  0  0
   45.1980   34.2480   45.8340 C   0  0  0  0  0  0  0  0  0  0  0  0
   45.9880   33.7850   44.8450 N   0  0  0  0  0  0  0  0  0  0  0  0
   45.1140   33.6440   41.0360 C   0  0  2  0  0  0  0  0  0  0  0  0
   44.7110   33.4050   39.5960 C   0  0  0  0  0  0  0  0  0  0  0  0
   43.8750   34.2510   40.4770 C   0  0  1  0  0  0  0  0  0  0  0  0
   42.6300   33.7740   41.1360 C   0  0  0  0  0  0  0  0  0  0  0  0
   41.4980   34.7630   41.1260 C   0  0  0  0  0  0  0  0  0  0  0  0
   39.0260   33.3570   41.3660 F   0  0  0  0  0  0  0  0  0  0  0  0
   39.3680   33.8640   40.1680 C   0  0  0  0  0  0  0  0  0  0  0  0
   40.5540   34.5510   40.0120 C   0  0  0  0  0  0  0  0  0  0  0  0
   40.9110   35.0750   38.7850 C   0  0  0  0  0  0  0  0  0  0  0  0
   40.1240   34.9500   37.6570 C   0  0  0  0  0  0  0  0  0  0  0  0
   38.9210   34.2590   37.7940 C   0  0  0  0  0  0  0  0  0  0  0  0
   38.6070   33.7590   39.0250 C   0  0  0  0  0  0  0  0  0  0  0  0
   46.9514   32.9394   42.5123 H   0  0  0  0  0  0  0  0  0  0  0  0
   48.5386   34.7634   43.7607 H   0  0  0  0  0  0  0  0  0  0  0  0
   48.9673   33.4502   42.5775 H   0  0  0  0  0  0  0  0  0  0  0  0
   48.3288   36.3252   41.9575 H   0  0  0  0  0  0  0  0  0  0  0  0
   49.9455   35.4967   41.9067 H   0  0  0  0  0  0  0  0  0  0  0  0
   48.7021   35.8408   39.6920 H   0  0  0  0  0  0  0  0  0  0  0  0
   49.3601   34.1850   40.0953 H   0  0  0  0  0  0  0  0  0  0  0  0
   46.7987   34.8210   39.2438 H   0  0  0  0  0  0  0  0  0  0  0  0
   47.4154   33.2628   39.9747 H   0  0  0  0  0  0  0  0  0  0  0  0
   46.0828   35.5665   41.3959 H   0  0  0  0  0  0  0  0  0  0  0  0
   45.5625   36.1829   42.5437 H   0  0  0  0  0  0  0  0  0  0  0  0
   44.0523   37.1086   44.3732 H   0  0  0  0  0  0  0  0  0  0  0  0
   45.1039   33.6830   46.7731 H   0  0  0  0  0  0  0  0  0  0  0  0
   45.3370   33.0219   41.9154 H   0  0  0  0  0  0  0  0  0  0  0  0
   44.3522   32.4139   39.2814 H   0  0  0  0  0  0  0  0  0  0  0  0
   45.1961   33.5382   38.6178 H   0  0  0  0  0  0  0  0  0  0  0  0
   43.4452   35.2489   40.3055 H   0  0  0  0  0  0  0  0  0  0  0  0
   42.2947   32.8635   40.6177 H   0  0  0  0  0  0  0  0  0  0  0  0
   42.8832   33.6008   42.1924 H   0  0  0  0  0  0  0  0  0  0  0  0
   40.9468   34.6738   42.0737 H   0  0  0  0  0  0  0  0  0  0  0  0
   41.9374   35.7632   40.9977 H   0  0  0  0  0  0  0  0  0  0  0  0
   41.8651   35.6162   38.7025 H   0  0  0  0  0  0  0  0  0  0  0  0
   40.4332   35.3774   36.6917 H   0  0  0  0  0  0  0  0  0  0  0  0
   38.2456   34.1209   36.9368 H   0  0  0  0  0  0  0  0  0  0  0  0
   37.6525   33.2193   39.1124 H   0  0  0  0  0  0  0  0  0  0  0  0
  1  2  1  0
  1  7  1  0
  3  2  1  0
  4  3  1  0
  5  4  1  0
  5  6  1  0
  6  1  1  0
  7 12  1  0
  8  7  2  0
  8  9  1  0
  9 10  2  0
 10 11  1  0
 12 11  2  0
 13  6  1  0
 14 15  1  0
 14 13  1  0
 15 13  1  0
 15 16  1  0
 17 16  1  0
 19 18  1  0
 20 19  2  0
 20 17  1  0
 21 20  1  0
 22 23  1  0
 22 21  2  0
 23 24  2  0
 24 19  1  0
  1 25  1  6
  2 26  1  0
  2 27  1  0
  3 28  1  0
  3 29  1  0
  4 30  1  0
  4 31  1  0
  5 32  1  0
  5 33  1  0
  6 34  1  1
  8 35  1  0
  9 36  1  0
 11 37  1  0
 13 38  1  1
 14 39  1  0
 14 40  1  0
 15 41  1  6
 16 42  1  0
 16 43  1  0
 17 44  1  0
 17 45  1  0
 21 46  1  0
 22 47  1  0
 23 48  1  0
 24 49  1  0
M  ISO  8  25  13  26  13  27  13  28  13  29  13  30  13  31  13  32  13
M  ISO  8  33  13  34  13  35  14  36  14  37  14  38  13  39  13  40  13
M  ISO  8  41  13  42   8  43   8  44   8  45   8  46  14  47  14  48  14
M  ISO  1  49  14
M  END
>  <minimizedAffinity>  (1) 
-7.30543661

>  <minimizedRMSD>  (1) 
1.29649198

$$$$
