
     RDKit          3D

 27 28  0  0  0  0  0  0  0  0999 V2000
   46.3270   32.5960   45.2590 C   0  0  0  0  0  0  0  0  0  0  0  0
   45.9230   31.3060   44.8590 C   0  0  0  0  0  0  0  0  0  0  0  0
   46.5250   30.3920   45.6480 C   0  0  0  0  0  0  0  0  0  0  0  0
   47.2850   31.0860   46.5170 N   0  0  0  0  0  0  0  0  0  0  0  0
   47.1620   32.4020   46.2790 N   0  0  0  0  0  0  0  0  0  0  0  0
   44.5930   35.7720   44.7410 C   0  0  0  0  0  0  0  0  0  0  0  0
   45.0410   36.1850   43.4860 C   0  0  0  0  0  0  0  0  0  0  0  0
   45.9560   35.3360   42.8260 C   0  0  0  0  0  0  0  0  0  0  0  0
   46.3480   34.1830   43.4320 N   0  0  0  0  0  0  0  0  0  0  0  0
   45.8860   33.8310   44.6430 C   0  0  0  0  0  0  0  0  0  0  0  0
   45.0150   34.6140   45.3000 N   0  0  0  0  0  0  0  0  0  0  0  0
   48.1040   30.5020   47.5460 C   0  0  0  0  0  0  0  0  0  0  0  0
   47.7260   31.1280   48.8690 C   0  0  0  0  0  0  0  0  0  0  0  0
   45.4380   31.4470   49.5070 C   0  0  0  0  0  0  0  0  0  0  0  0
   45.5900   32.6030   49.0600 O   0  0  0  0  0  0  0  0  0  0  0  0
   46.5500   30.5560   49.4510 N   0  0  0  0  0  0  0  0  0  0  0  0
   45.2287   31.0808   44.0361 H   0  0  0  0  0  0  0  0  0  0  0  0
   46.4168   29.2987   45.5927 H   0  0  0  0  0  0  0  0  0  0  0  0
   43.8789   36.4034   45.2899 H   0  0  0  0  0  0  0  0  0  0  0  0
   44.6979   37.1266   43.0325 H   0  0  0  0  0  0  0  0  0  0  0  0
   46.3472   35.6038   41.8334 H   0  0  0  0  0  0  0  0  0  0  0  0
   47.9322   29.4162   47.5861 H   0  0  0  0  0  0  0  0  0  0  0  0
   49.1674   30.6842   47.3317 H   0  0  0  0  0  0  0  0  0  0  0  0
   48.5629   30.9943   49.5702 H   0  0  0  0  0  0  0  0  0  0  0  0
   47.5111   32.1896   48.6773 H   0  0  0  0  0  0  0  0  0  0  0  0
   44.4753   31.1256   49.9312 H   0  0  0  0  0  0  0  0  0  0  0  0
   46.5105   29.5872   49.7984 H   0  0  0  0  0  0  0  0  0  0  0  0
  1  5  2  0
  2  1  1  0
  2  3  2  0
  3  4  1  0
  4 12  1  0
  5  4  1  0
  6 11  2  0
  7  6  1  0
  8  9  1  0
  8  7  2  0
  9 10  2  0
 10  1  1  0
 10 11  1  0
 12 13  1  0
 13 16  1  0
 15 14  2  0
 16 14  1  0
  2 17  1  0
  3 18  1  0
  6 19  1  0
  7 20  1  0
  8 21  1  0
 12 22  1  0
 12 23  1  0
 13 24  1  0
 13 25  1  0
 14 26  1  0
 16 27  1  0
M  ISO  8  17  14  18  14  19  14  20  14  21  14  22   8  23   8  24   8
M  ISO  2  25   8  26   6
M  END
>  <minimizedAffinity>  (1) 
-4.61575747

>  <minimizedRMSD>  (1) 
1.58257222

$$$$
