
     RDKit          3D

 24 25  0  0  0  0  0  0  0  0999 V2000
   46.3470   32.8480   45.7440 C   0  0  0  0  0  0  0  0  0  0  0  0
   47.0200   31.7270   45.2220 C   0  0  0  0  0  0  0  0  0  0  0  0
   47.3100   30.8780   46.2290 C   0  0  0  0  0  0  0  0  0  0  0  0
   46.8290   31.4560   47.3530 N   0  0  0  0  0  0  0  0  0  0  0  0
   46.2520   32.6380   47.0540 N   0  0  0  0  0  0  0  0  0  0  0  0
   44.5170   35.8390   44.7250 C   0  0  0  0  0  0  0  0  0  0  0  0
   45.0130   36.1000   43.4420 C   0  0  0  0  0  0  0  0  0  0  0  0
   45.9830   35.2310   42.9380 C   0  0  0  0  0  0  0  0  0  0  0  0
   46.3780   34.1950   43.7230 N   0  0  0  0  0  0  0  0  0  0  0  0
   45.8790   33.9730   44.9570 C   0  0  0  0  0  0  0  0  0  0  0  0
   44.9460   34.7990   45.4570 N   0  0  0  0  0  0  0  0  0  0  0  0
   46.9380   30.8630   48.6710 C   0  0  0  0  0  0  0  0  0  0  0  0
   45.5870   30.9010   49.3110 C   0  0  0  0  0  0  0  0  0  0  0  0
   45.4000   32.0940   49.9830 O   0  0  0  0  0  0  0  0  0  0  0  0
   47.2694   31.5689   44.1624 H   0  0  0  0  0  0  0  0  0  0  0  0
   47.8314   29.9125   46.1518 H   0  0  0  0  0  0  0  0  0  0  0  0
   43.7516   36.5073   45.1464 H   0  0  0  0  0  0  0  0  0  0  0  0
   44.6525   36.9566   42.8536 H   0  0  0  0  0  0  0  0  0  0  0  0
   46.4137   35.3806   41.9369 H   0  0  0  0  0  0  0  0  0  0  0  0
   47.2801   29.8212   48.5839 H   0  0  0  0  0  0  0  0  0  0  0  0
   47.6642   31.4205   49.2807 H   0  0  0  0  0  0  0  0  0  0  0  0
   44.8157   30.7995   48.5333 H   0  0  0  0  0  0  0  0  0  0  0  0
   45.5127   30.0730   50.0314 H   0  0  0  0  0  0  0  0  0  0  0  0
   45.4256   31.9305   50.9591 H   0  0  0  0  0  0  0  0  0  0  0  0
  1  5  2  0
  2  1  1  0
  2  3  2  0
  3  4  1  0
  4 12  1  0
  5  4  1  0
  6 11  2  0
  7  6  1  0
  8  7  2  0
  8  9  1  0
  9 10  2  0
 10 11  1  0
 10  1  1  0
 12 13  1  0
 13 14  1  0
  2 15  1  0
  3 16  1  0
  6 17  1  0
  7 18  1  0
  8 19  1  0
 12 20  1  0
 12 21  1  0
 13 22  1  0
 13 23  1  0
 14 24  1  0
M  ISO  8  15  14  16  14  17  14  18  14  19  14  20   8  21   8  22   8
M  ISO  2  23   8  24   3
M  END
>  <minimizedAffinity>  (1) 
-4.65916538

>  <minimizedRMSD>  (1) 
0.407907724

$$$$
