
     RDKit          3D

 50 53  0  0  1  0  0  0  0  0999 V2000
   46.8370   34.0080   42.5410 C   0  0  2  0  0  0  0  0  0  0  0  0
   48.3020   34.2790   42.7110 C   0  0  0  0  0  0  0  0  0  0  0  0
   48.8100   35.2800   41.7460 C   0  0  0  0  0  0  0  0  0  0  0  0
   48.5280   34.8830   40.3040 C   0  0  0  0  0  0  0  0  0  0  0  0
   47.1630   34.3070   40.0970 C   0  0  0  0  0  0  0  0  0  0  0  0
   46.2440   34.5140   41.2780 C   0  0  1  0  0  0  0  0  0  0  0  0
   46.0360   34.4530   43.6980 C   0  0  0  0  0  0  0  0  0  0  0  0
   45.3990   35.6640   43.4920 C   0  0  0  0  0  0  0  0  0  0  0  0
   44.5920   36.2110   44.5040 C   0  0  0  0  0  0  0  0  0  0  0  0
   44.5040   35.4520   45.6770 N   0  0  0  0  0  0  0  0  0  0  0  0
   45.1450   34.2780   45.8290 C   0  0  0  0  0  0  0  0  0  0  0  0
   45.9100   33.7880   44.8300 N   0  0  0  0  0  0  0  0  0  0  0  0
   44.9830   33.7360   41.0130 C   0  0  2  0  0  0  0  0  0  0  0  0
   44.6310   33.4180   39.5730 C   0  0  0  0  0  0  0  0  0  0  0  0
   43.8240   34.3880   40.3430 C   0  0  1  0  0  0  0  0  0  0  0  0
   42.5160   34.0500   40.9870 C   0  0  0  0  0  0  0  0  0  0  0  0
   41.4150   35.0290   40.6710 C   0  0  0  0  0  0  0  0  0  0  0  0
   40.1840   34.7680   38.6170 C   0  0  0  0  0  0  0  0  0  0  0  0
   40.2720   34.4400   39.9610 C   0  0  0  0  0  0  0  0  0  0  0  0
   39.3030   33.6080   40.5140 C   0  0  0  0  0  0  0  0  0  0  0  0
   38.2610   33.1130   39.7220 C   0  0  0  0  0  0  0  0  0  0  0  0
   38.2340   33.4790   38.3930 C   0  0  0  0  0  0  0  0  0  0  0  0
   39.1640   34.3000   37.7910 C   0  0  0  0  0  0  0  0  0  0  0  0
   41.9260   36.3150   37.4360 N   0  0  0  0  0  0  0  0  0  0  0  0
   41.1580   35.6330   37.9690 C   0  0  0  0  0  0  0  0  0  0  0  0
   46.7907   32.9107   42.4792 H   0  0  0  0  0  0  0  0  0  0  0  0
   48.4754   34.6528   43.7309 H   0  0  0  0  0  0  0  0  0  0  0  0
   48.8392   33.3366   42.5283 H   0  0  0  0  0  0  0  0  0  0  0  0
   48.3245   36.2460   41.9489 H   0  0  0  0  0  0  0  0  0  0  0  0
   49.9009   35.3463   41.8709 H   0  0  0  0  0  0  0  0  0  0  0  0
   48.6276   35.7773   39.6713 H   0  0  0  0  0  0  0  0  0  0  0  0
   49.2524   34.0992   40.0378 H   0  0  0  0  0  0  0  0  0  0  0  0
   46.7119   34.7852   39.2150 H   0  0  0  0  0  0  0  0  0  0  0  0
   47.2832   33.2219   39.9628 H   0  0  0  0  0  0  0  0  0  0  0  0
   46.0596   35.5922   41.3938 H   0  0  0  0  0  0  0  0  0  0  0  0
   45.5241   36.1973   42.5381 H   0  0  0  0  0  0  0  0  0  0  0  0
   44.0658   37.1694   44.3829 H   0  0  0  0  0  0  0  0  0  0  0  0
   45.0453   33.7164   46.7695 H   0  0  0  0  0  0  0  0  0  0  0  0
   45.1147   33.1681   41.9458 H   0  0  0  0  0  0  0  0  0  0  0  0
   44.2107   32.4354   39.3126 H   0  0  0  0  0  0  0  0  0  0  0  0
   45.1712   33.4392   38.6150 H   0  0  0  0  0  0  0  0  0  0  0  0
   43.4801   35.3962   40.0685 H   0  0  0  0  0  0  0  0  0  0  0  0
   42.2051   33.0536   40.6398 H   0  0  0  0  0  0  0  0  0  0  0  0
   42.6747   34.0844   42.0750 H   0  0  0  0  0  0  0  0  0  0  0  0
   41.0508   35.4560   41.6171 H   0  0  0  0  0  0  0  0  0  0  0  0
   41.8477   35.7863   40.0007 H   0  0  0  0  0  0  0  0  0  0  0  0
   39.3565   33.3382   41.5790 H   0  0  0  0  0  0  0  0  0  0  0  0
   37.4890   32.4538   40.1457 H   0  0  0  0  0  0  0  0  0  0  0  0
   37.4149   33.0896   37.7706 H   0  0  0  0  0  0  0  0  0  0  0  0
   39.1045   34.5685   36.7259 H   0  0  0  0  0  0  0  0  0  0  0  0
  1  2  1  0
  1  7  1  0
  3  2  1  0
  4  3  1  0
  5  4  1  0
  5  6  1  0
  6  1  1  0
  7 12  1  0
  8  7  2  0
  8  9  1  0
  9 10  2  0
 10 11  1  0
 12 11  2  0
 13  6  1  0
 14 15  1  0
 14 13  1  0
 15 16  1  0
 15 13  1  0
 17 16  1  0
 18 19  2  0
 19 20  1  0
 19 17  1  0
 21 20  2  0
 22 21  1  0
 23 22  2  0
 23 18  1  0
 24 25  3  0
 25 18  1  0
  1 26  1  6
  2 27  1  0
  2 28  1  0
  3 29  1  0
  3 30  1  0
  4 31  1  0
  4 32  1  0
  5 33  1  0
  5 34  1  0
  6 35  1  1
  8 36  1  0
  9 37  1  0
 11 38  1  0
 13 39  1  1
 14 40  1  0
 14 41  1  0
 15 42  1  6
 16 43  1  0
 16 44  1  0
 17 45  1  0
 17 46  1  0
 20 47  1  0
 21 48  1  0
 22 49  1  0
 23 50  1  0
M  ISO  8  26  13  27  13  28  13  29  13  30  13  31  13  32  13  33  13
M  ISO  8  34  13  35  13  36  14  37  14  38  14  39  13  40  13  41  13
M  ISO  8  42  13  43   8  44   8  45   8  46   8  47  14  48  14  49  14
M  ISO  1  50  14
M  END
>  <minimizedAffinity>  (1) 
-7.26284552

>  <minimizedRMSD>  (1) 
2.68347311

$$$$
