
     RDKit          3D

 43 46  0  0  0  0  0  0  0  0999 V2000
   45.8280   30.1980   48.4960 C   0  0  0  0  0  0  0  0  0  0  0  0
   45.0470   27.7560   48.1720 C   0  0  0  0  0  0  0  0  0  0  0  0
   45.1120   29.1040   47.8640 C   0  0  0  0  0  0  0  0  0  0  0  0
   44.3670   29.5050   46.7490 C   0  0  0  0  0  0  0  0  0  0  0  0
   43.6140   28.6220   46.0000 C   0  0  0  0  0  0  0  0  0  0  0  0
   42.8250   28.7220   44.9150 N   0  0  0  0  0  0  0  0  0  0  0  0
   42.3140   27.5290   44.5790 C   0  0  0  0  0  0  0  0  0  0  0  0
   42.7730   26.5650   45.4730 C   0  0  0  0  0  0  0  0  0  0  0  0
   43.5750   27.2840   46.3370 C   0  0  0  0  0  0  0  0  0  0  0  0
   44.3030   26.8850   47.4290 C   0  0  0  0  0  0  0  0  0  0  0  0
   44.3070   25.4420   47.8380 C   0  0  0  0  0  0  0  0  0  0  0  0
   45.0190   25.3820   49.1810 C   0  0  0  0  0  0  0  0  0  0  0  0
   47.1810   30.5110   47.9630 C   0  0  0  0  0  0  0  0  0  0  0  0
   46.5100   32.7970   45.2920 C   0  0  0  0  0  0  0  0  0  0  0  0
   47.2490   31.7790   44.6360 C   0  0  0  0  0  0  0  0  0  0  0  0
   47.5800   30.8240   45.5390 C   0  0  0  0  0  0  0  0  0  0  0  0
   47.0730   31.2230   46.7060 N   0  0  0  0  0  0  0  0  0  0  0  0
   46.4350   32.3970   46.5650 N   0  0  0  0  0  0  0  0  0  0  0  0
   44.5460   35.8040   44.6940 C   0  0  0  0  0  0  0  0  0  0  0  0
   44.9770   36.2260   43.4270 C   0  0  0  0  0  0  0  0  0  0  0  0
   45.9500   35.4560   42.7890 C   0  0  0  0  0  0  0  0  0  0  0  0
   46.4120   34.3590   43.4340 N   0  0  0  0  0  0  0  0  0  0  0  0
   45.9910   33.9740   44.6370 C   0  0  0  0  0  0  0  0  0  0  0  0
   45.0520   34.7100   45.2640 N   0  0  0  0  0  0  0  0  0  0  0  0
   45.2117   31.1032   48.3918 H   0  0  0  0  0  0  0  0  0  0  0  0
   45.9957   29.8712   49.5328 H   0  0  0  0  0  0  0  0  0  0  0  0
   45.6094   27.3767   49.0379 H   0  0  0  0  0  0  0  0  0  0  0  0
   44.3818   30.5656   46.4576 H   0  0  0  0  0  0  0  0  0  0  0  0
   42.6381   29.5995   44.4091 H   0  0  0  0  0  0  0  0  0  0  0  0
   41.6388   27.3413   43.7311 H   0  0  0  0  0  0  0  0  0  0  0  0
   42.5499   25.4880   45.4874 H   0  0  0  0  0  0  0  0  0  0  0  0
   43.2762   25.0709   47.9363 H   0  0  0  0  0  0  0  0  0  0  0  0
   44.8124   24.8150   47.0887 H   0  0  0  0  0  0  0  0  0  0  0  0
   44.2783   25.4444   49.9918 H   0  0  0  0  0  0  0  0  0  0  0  0
   45.5714   24.4341   49.2611 H   0  0  0  0  0  0  0  0  0  0  0  0
   45.7222   26.2241   49.2611 H   0  0  0  0  0  0  0  0  0  0  0  0
   47.7215   31.1361   48.6890 H   0  0  0  0  0  0  0  0  0  0  0  0
   47.7266   29.5705   47.7962 H   0  0  0  0  0  0  0  0  0  0  0  0
   47.5109   31.7668   43.5677 H   0  0  0  0  0  0  0  0  0  0  0  0
   48.1521   29.9042   45.3476 H   0  0  0  0  0  0  0  0  0  0  0  0
   43.7782   36.3852   45.2256 H   0  0  0  0  0  0  0  0  0  0  0  0
   44.5635   37.1294   42.9548 H   0  0  0  0  0  0  0  0  0  0  0  0
   46.3295   35.7314   41.7940 H   0  0  0  0  0  0  0  0  0  0  0  0
  3  2  2  0
  3  1  1  0
  4  3  1  0
  5  9  1  0
  5  4  2  0
  6  5  1  0
  7  6  1  0
  7  8  2  0
  8  9  1  0
  9 10  2  0
 10 11  1  0
 10  2  1  0
 11 12  1  0
 13  1  1  0
 14 18  2  0
 15 14  1  0
 15 16  2  0
 16 17  1  0
 17 13  1  0
 18 17  1  0
 19 24  2  0
 20 19  1  0
 21 20  2  0
 21 22  1  0
 22 23  2  0
 23 24  1  0
 23 14  1  0
  1 25  1  0
  1 26  1  0
  2 27  1  0
  4 28  1  0
  6 29  1  0
  7 30  1  0
  8 31  1  0
 11 32  1  0
 11 33  1  0
 12 34  1  0
 12 35  1  0
 12 36  1  0
 13 37  1  0
 13 38  1  0
 15 39  1  0
 16 40  1  0
 19 41  1  0
 20 42  1  0
 21 43  1  0
M  ISO  8  25   8  26   8  27  14  28  14  29   9  30  14  31  14  32   8
M  ISO  8  33   8  34   8  35   8  36   8  37   8  38   8  39  14  40  14
M  ISO  3  41  14  42  14  43  14
M  END
>  <minimizedAffinity>  (1) 
-5.36729383

>  <minimizedRMSD>  (1) 
0.659766376

$$$$
