
     RDKit          3D

 39 42  0  0  0  0  0  0  0  0999 V2000
   46.0060   29.9310   48.2460 C   0  0  0  0  0  0  0  0  0  0  0  0
   45.0640   27.5460   47.9410 C   0  0  0  0  0  0  0  0  0  0  0  0
   45.1760   28.8940   47.6460 C   0  0  0  0  0  0  0  0  0  0  0  0
   44.3680   29.3570   46.6030 C   0  0  0  0  0  0  0  0  0  0  0  0
   43.5120   28.5330   45.9070 C   0  0  0  0  0  0  0  0  0  0  0  0
   42.6460   28.6920   44.8980 N   0  0  0  0  0  0  0  0  0  0  0  0
   42.0390   27.5290   44.5840 C   0  0  0  0  0  0  0  0  0  0  0  0
   42.5230   26.5420   45.4290 C   0  0  0  0  0  0  0  0  0  0  0  0
   43.4230   27.1900   46.2270 C   0  0  0  0  0  0  0  0  0  0  0  0
   44.2140   26.7330   47.2490 C   0  0  0  0  0  0  0  0  0  0  0  0
   44.1870   25.3650   47.6460 N   0  0  0  0  0  0  0  0  0  0  0  0
   47.3220   30.1800   47.6200 C   0  0  0  0  0  0  0  0  0  0  0  0
   46.5540   32.6530   45.1490 C   0  0  0  0  0  0  0  0  0  0  0  0
   47.2850   31.7080   44.4010 C   0  0  0  0  0  0  0  0  0  0  0  0
   47.6510   30.6920   45.2190 C   0  0  0  0  0  0  0  0  0  0  0  0
   47.1670   30.9960   46.4270 N   0  0  0  0  0  0  0  0  0  0  0  0
   46.5110   32.1600   46.3960 N   0  0  0  0  0  0  0  0  0  0  0  0
   44.5690   35.6950   44.8530 C   0  0  0  0  0  0  0  0  0  0  0  0
   44.9340   36.2000   43.6060 C   0  0  0  0  0  0  0  0  0  0  0  0
   45.8690   35.4790   42.8750 C   0  0  0  0  0  0  0  0  0  0  0  0
   46.3660   34.3380   43.4140 N   0  0  0  0  0  0  0  0  0  0  0  0
   45.9950   33.8740   44.6190 C   0  0  0  0  0  0  0  0  0  0  0  0
   45.0940   34.5610   45.3310 N   0  0  0  0  0  0  0  0  0  0  0  0
   45.4382   30.8725   48.2116 H   0  0  0  0  0  0  0  0  0  0  0  0
   46.2344   29.5656   49.2581 H   0  0  0  0  0  0  0  0  0  0  0  0
   45.6740   27.1206   48.7515 H   0  0  0  0  0  0  0  0  0  0  0  0
   44.4181   30.4208   46.3278 H   0  0  0  0  0  0  0  0  0  0  0  0
   42.4664   29.5878   44.4225 H   0  0  0  0  0  0  0  0  0  0  0  0
   41.2882   27.3878   43.7926 H   0  0  0  0  0  0  0  0  0  0  0  0
   42.2452   25.4779   45.4518 H   0  0  0  0  0  0  0  0  0  0  0  0
   44.7888   25.0403   48.4163 H   0  0  0  0  0  0  0  0  0  0  0  0
   43.5657   24.7007   47.1627 H   0  0  0  0  0  0  0  0  0  0  0  0
   47.9712   30.7045   48.3365 H   0  0  0  0  0  0  0  0  0  0  0  0
   47.7723   29.2167   47.3385 H   0  0  0  0  0  0  0  0  0  0  0  0
   47.5198   31.7832   43.3290 H   0  0  0  0  0  0  0  0  0  0  0  0
   48.2296   29.7977   44.9444 H   0  0  0  0  0  0  0  0  0  0  0  0
   43.8315   36.2421   45.4587 H   0  0  0  0  0  0  0  0  0  0  0  0
   44.4988   37.1322   43.2167 H   0  0  0  0  0  0  0  0  0  0  0  0
   46.1982   35.8245   41.8839 H   0  0  0  0  0  0  0  0  0  0  0  0
  3  2  2  0
  3  1  1  0
  4  3  1  0
  5  9  1  0
  5  4  2  0
  6  5  1  0
  7  6  1  0
  7  8  2  0
  8  9  1  0
  9 10  2  0
 10 11  1  0
 10  2  1  0
 12  1  1  0
 13 17  2  0
 14 13  1  0
 14 15  2  0
 15 16  1  0
 16 12  1  0
 17 16  1  0
 18 23  2  0
 19 18  1  0
 20 21  1  0
 20 19  2  0
 21 22  2  0
 22 13  1  0
 22 23  1  0
  1 24  1  0
  1 25  1  0
  2 26  1  0
  4 27  1  0
  6 28  1  0
  7 29  1  0
  8 30  1  0
 11 31  1  0
 11 32  1  0
 12 33  1  0
 12 34  1  0
 14 35  1  0
 15 36  1  0
 18 37  1  0
 19 38  1  0
 20 39  1  0
M  ISO  8  24   8  25   8  26  14  27  14  28   9  29  14  30  14  33   8
M  ISO  6  34   8  35  14  36  14  37  14  38  14  39  14
M  END
>  <minimizedAffinity>  (1) 
-5.20640898

>  <minimizedRMSD>  (1) 
0.0467641018

$$$$
