
     RDKit          3D

 52 55  0  0  1  0  0  0  0  0999 V2000
   47.1830   34.1190   42.4350 C   0  0  2  0  0  0  0  0  0  0  0  0
   48.5720   34.6580   42.6030 C   0  0  0  0  0  0  0  0  0  0  0  0
   48.9190   35.6630   41.5760 C   0  0  0  0  0  0  0  0  0  0  0  0
   48.7350   35.1490   40.1590 C   0  0  0  0  0  0  0  0  0  0  0  0
   47.5120   34.3000   39.9850 C   0  0  0  0  0  0  0  0  0  0  0  0
   46.5380   34.4210   41.1340 C   0  0  1  0  0  0  0  0  0  0  0  0
   46.2870   34.4830   43.5510 C   0  0  0  0  0  0  0  0  0  0  0  0
   45.5750   35.6470   43.3210 C   0  0  0  0  0  0  0  0  0  0  0  0
   44.6780   36.1160   44.2960 C   0  0  0  0  0  0  0  0  0  0  0  0
   44.5830   35.3350   45.4540 N   0  0  0  0  0  0  0  0  0  0  0  0
   45.3020   34.2070   45.6280 C   0  0  0  0  0  0  0  0  0  0  0  0
   46.1490   33.7950   44.6690 N   0  0  0  0  0  0  0  0  0  0  0  0
   45.4420   33.4150   40.9100 C   0  0  2  0  0  0  0  0  0  0  0  0
   44.9770   33.1870   39.4860 C   0  0  0  0  0  0  0  0  0  0  0  0
   44.0930   33.8620   40.4590 C   0  0  1  0  0  0  0  0  0  0  0  0
   42.9840   33.1650   41.1770 C   0  0  0  0  0  0  0  0  0  0  0  0
   41.6990   33.9300   41.2340 C   0  0  0  0  0  0  0  0  0  0  0  0
   40.1330   33.5560   39.3530 C   0  0  0  0  0  0  0  0  0  0  0  0
   41.1340   34.3000   39.9390 C   0  0  0  0  0  0  0  0  0  0  0  0
   41.5610   35.4180   39.2120 C   0  0  0  0  0  0  0  0  0  0  0  0
   41.0420   35.8000   37.9730 C   0  0  0  0  0  0  0  0  0  0  0  0
   40.0460   35.0260   37.4320 C   0  0  0  0  0  0  0  0  0  0  0  0
   39.6020   33.9160   38.1220 C   0  0  0  0  0  0  0  0  0  0  0  0
   39.4390   32.1300   40.0550 S   0  0  0  0  0  0  0  0  0  0  0  0
   40.4840   31.0280   39.9340 O   0  0  0  0  0  0  0  0  0  0  0  0
   38.9240   32.2920   41.4320 O   0  0  0  0  0  0  0  0  0  0  0  0
   47.3380   33.0300   42.4476 H   0  0  0  0  0  0  0  0  0  0  0  0
   48.6507   35.1263   43.5952 H   0  0  0  0  0  0  0  0  0  0  0  0
   49.2717   33.8161   42.4956 H   0  0  0  0  0  0  0  0  0  0  0  0
   48.2755   36.5441   41.7159 H   0  0  0  0  0  0  0  0  0  0  0  0
   49.9837   35.9089   41.7019 H   0  0  0  0  0  0  0  0  0  0  0  0
   48.6582   36.0129   39.4825 H   0  0  0  0  0  0  0  0  0  0  0  0
   49.6042   34.5152   39.9293 H   0  0  0  0  0  0  0  0  0  0  0  0
   47.0019   34.6064   39.0599 H   0  0  0  0  0  0  0  0  0  0  0  0
   47.8433   33.2519   39.9449 H   0  0  0  0  0  0  0  0  0  0  0  0
   46.1579   35.4526   41.1687 H   0  0  0  0  0  0  0  0  0  0  0  0
   45.7102   36.2018   42.3808 H   0  0  0  0  0  0  0  0  0  0  0  0
   44.0899   37.0353   44.1584 H   0  0  0  0  0  0  0  0  0  0  0  0
   45.1952   33.6242   46.5548 H   0  0  0  0  0  0  0  0  0  0  0  0
   45.8089   32.7938   41.7403 H   0  0  0  0  0  0  0  0  0  0  0  0
   44.7403   32.1700   39.1401 H   0  0  0  0  0  0  0  0  0  0  0  0
   45.3704   33.4335   38.4888 H   0  0  0  0  0  0  0  0  0  0  0  0
   43.5143   34.7927   40.3641 H   0  0  0  0  0  0  0  0  0  0  0  0
   42.7920   32.2098   40.6663 H   0  0  0  0  0  0  0  0  0  0  0  0
   43.3177   33.0394   42.2176 H   0  0  0  0  0  0  0  0  0  0  0  0
   40.9589   33.3119   41.7634 H   0  0  0  0  0  0  0  0  0  0  0  0
   41.9309   34.8757   41.7457 H   0  0  0  0  0  0  0  0  0  0  0  0
   42.3595   36.0375   39.6463 H   0  0  0  0  0  0  0  0  0  0  0  0
   41.4186   36.6907   37.4487 H   0  0  0  0  0  0  0  0  0  0  0  0
   39.6060   35.2876   36.4584 H   0  0  0  0  0  0  0  0  0  0  0  0
   38.8041   33.2987   37.6836 H   0  0  0  0  0  0  0  0  0  0  0  0
   38.2999   31.8083   39.3652 H   0  0  0  0  0  0  0  0  0  0  0  0
  1  2  1  0
  1  7  1  0
  3  2  1  0
  4  3  1  0
  5  4  1  0
  5  6  1  0
  6  1  1  0
  7 12  1  0
  8  7  2  0
  8  9  1  0
  9 10  2  0
 10 11  1  0
 12 11  2  0
 13  6  1  0
 14 15  1  0
 14 13  1  0
 15 13  1  0
 15 16  1  0
 16 17  1  0
 18 19  2  0
 18 24  1  0
 19 17  1  0
 20 19  1  0
 21 20  2  0
 22 21  1  0
 22 23  2  0
 23 18  1  0
 24 26  2  0
 25 24  2  0
  1 27  1  6
  2 28  1  0
  2 29  1  0
  3 30  1  0
  3 31  1  0
  4 32  1  0
  4 33  1  0
  5 34  1  0
  5 35  1  0
  6 36  1  1
  8 37  1  0
  9 38  1  0
 11 39  1  0
 13 40  1  1
 14 41  1  0
 14 42  1  0
 15 43  1  6
 16 44  1  0
 16 45  1  0
 17 46  1  0
 17 47  1  0
 20 48  1  0
 21 49  1  0
 22 50  1  0
 23 51  1  0
 24 52  1  0
M  ISO  8  27  13  28  13  29  13  30  13  31  13  32  13  33  13  34  13
M  ISO  8  35  13  36  13  37  14  38  14  39  14  40  13  41  13  42  13
M  ISO  8  43  13  44   8  45   8  46   8  47   8  48  14  49  14  50  14
M  ISO  2  51  14  52  11
M  END
>  <minimizedAffinity>  (1) 
-6.94562197

>  <minimizedRMSD>  (1) 
1.29555762

$$$$
