
     RDKit          3D

 43 46  0  0  0  0  0  0  0  0999 V2000
   47.2070   30.3010   48.0560 C   0  0  0  0  0  0  0  0  0  0  0  0
   46.9610   32.2480   45.0680 C   0  0  0  0  0  0  0  0  0  0  0  0
   47.6610   31.1030   44.6260 C   0  0  0  0  0  0  0  0  0  0  0  0
   47.8310   30.2630   45.6640 C   0  0  0  0  0  0  0  0  0  0  0  0
   47.2610   30.8560   46.7130 N   0  0  0  0  0  0  0  0  0  0  0  0
   46.7420   32.0330   46.3730 N   0  0  0  0  0  0  0  0  0  0  0  0
   45.2810   35.2690   43.9020 C   0  0  0  0  0  0  0  0  0  0  0  0
   45.8770   35.5130   42.6650 C   0  0  0  0  0  0  0  0  0  0  0  0
   46.8610   34.6180   42.2510 C   0  0  0  0  0  0  0  0  0  0  0  0
   47.1750   33.5850   43.0560 N   0  0  0  0  0  0  0  0  0  0  0  0
   46.5960   33.3690   44.2330 C   0  0  0  0  0  0  0  0  0  0  0  0
   45.6370   34.2250   44.6580 N   0  0  0  0  0  0  0  0  0  0  0  0
   48.7490   35.4720   40.9550 C   0  0  0  0  0  0  0  0  0  0  0  0
   49.2920   35.9440   42.0050 O   0  0  0  0  0  0  0  0  0  0  0  0
   47.5180   34.7900   41.0100 N   0  0  0  0  0  0  0  0  0  0  0  0
   45.7960   30.0730   48.4700 C   0  0  0  0  0  0  0  0  0  0  0  0
   45.0170   27.6680   48.0210 C   0  0  0  0  0  0  0  0  0  0  0  0
   45.0680   29.0260   47.7680 C   0  0  0  0  0  0  0  0  0  0  0  0
   44.3170   29.4750   46.6880 C   0  0  0  0  0  0  0  0  0  0  0  0
   43.5740   28.6200   45.9230 C   0  0  0  0  0  0  0  0  0  0  0  0
   42.7730   28.7600   44.8480 N   0  0  0  0  0  0  0  0  0  0  0  0
   42.2620   27.5940   44.4580 C   0  0  0  0  0  0  0  0  0  0  0  0
   42.7270   26.5960   45.2950 C   0  0  0  0  0  0  0  0  0  0  0  0
   43.5290   27.2850   46.1770 C   0  0  0  0  0  0  0  0  0  0  0  0
   44.2730   26.8190   47.2540 C   0  0  0  0  0  0  0  0  0  0  0  0
   44.2680   25.4010   47.5790 C   0  0  0  0  0  0  0  0  0  0  0  0
   44.9080   24.9420   48.5560 O   0  0  0  0  0  0  0  0  0  0  0  0
   47.6809   31.0036   48.7573 H   0  0  0  0  0  0  0  0  0  0  0  0
   47.7399   29.3388   48.0647 H   0  0  0  0  0  0  0  0  0  0  0  0
   48.0110   30.9263   43.5982 H   0  0  0  0  0  0  0  0  0  0  0  0
   48.3371   29.2864   45.6496 H   0  0  0  0  0  0  0  0  0  0  0  0
   44.4988   35.9521   44.2647 H   0  0  0  0  0  0  0  0  0  0  0  0
   45.5836   36.3727   42.0447 H   0  0  0  0  0  0  0  0  0  0  0  0
   49.2515   35.5994   39.9848 H   0  0  0  0  0  0  0  0  0  0  0  0
   47.0965   34.4168   40.1475 H   0  0  0  0  0  0  0  0  0  0  0  0
   45.8002   29.8159   49.5395 H   0  0  0  0  0  0  0  0  0  0  0  0
   45.2687   31.0062   48.2228 H   0  0  0  0  0  0  0  0  0  0  0  0
   45.5927   27.2599   48.8648 H   0  0  0  0  0  0  0  0  0  0  0  0
   44.3207   30.5472   46.4423 H   0  0  0  0  0  0  0  0  0  0  0  0
   42.5798   29.6594   44.3847 H   0  0  0  0  0  0  0  0  0  0  0  0
   41.5800   27.4480   43.6073 H   0  0  0  0  0  0  0  0  0  0  0  0
   42.5098   25.5181   45.2638 H   0  0  0  0  0  0  0  0  0  0  0  0
   43.6863   24.7111   46.9500 H   0  0  0  0  0  0  0  0  0  0  0  0
  1 16  1  0
  2  6  2  0
  3  2  1  0
  3  4  2  0
  4  5  1  0
  5  1  1  0
  6  5  1  0
  7 12  2  0
  8  7  1  0
  9  8  2  0
  9 10  1  0
 10 11  2  0
 11 12  1  0
 11  2  1  0
 13 15  1  0
 13 14  2  0
 15  9  1  0
 18 17  2  0
 18 16  1  0
 19 18  1  0
 20 24  1  0
 20 19  2  0
 21 20  1  0
 22 21  1  0
 22 23  2  0
 23 24  1  0
 24 25  2  0
 25 26  1  0
 25 17  1  0
 26 27  2  0
  1 28  1  0
  1 29  1  0
  3 30  1  0
  4 31  1  0
  7 32  1  0
  8 33  1  0
 13 34  1  0
 15 35  1  0
 16 36  1  0
 16 37  1  0
 17 38  1  0
 19 39  1  0
 21 40  1  0
 22 41  1  0
 23 42  1  0
 26 43  1  0
M  ISO  8  28   8  29   8  30  14  31  14  32  14  33  14  34   6  36   8
M  ISO  7  37   8  38  14  39  14  40   9  41  14  42  14  43   6
M  END
>  <minimizedAffinity>  (1) 
-5.33543825

>  <minimizedRMSD>  (1) 
0.76140815

$$$$
