
     RDKit          3D

 46 50  0  0  0  0  0  0  0  0999 V2000
   46.9350   30.3800   48.2290 C   0  0  0  0  0  0  0  0  0  0  0  0
   46.9020   32.1770   45.1390 C   0  0  0  0  0  0  0  0  0  0  0  0
   47.6770   31.0520   44.8090 C   0  0  0  0  0  0  0  0  0  0  0  0
   47.7800   30.2630   45.8970 C   0  0  0  0  0  0  0  0  0  0  0  0
   47.0970   30.8730   46.8680 N   0  0  0  0  0  0  0  0  0  0  0  0
   46.5700   32.0120   46.4280 N   0  0  0  0  0  0  0  0  0  0  0  0
   45.3720   35.2010   43.7660 C   0  0  0  0  0  0  0  0  0  0  0  0
   45.9370   35.2900   42.5010 C   0  0  0  0  0  0  0  0  0  0  0  0
   46.8470   34.3010   42.1290 C   0  0  0  0  0  0  0  0  0  0  0  0
   47.1170   33.3290   43.0150 N   0  0  0  0  0  0  0  0  0  0  0  0
   46.5760   33.2460   44.2230 C   0  0  0  0  0  0  0  0  0  0  0  0
   45.6980   34.1990   44.5860 N   0  0  0  0  0  0  0  0  0  0  0  0
   47.4360   34.3890   40.8180 C   0  0  0  0  0  0  0  0  0  0  0  0
   48.4960   35.1540   40.3790 C   0  0  0  0  0  0  0  0  0  0  0  0
   48.7080   34.9230   39.0800 N   0  0  0  0  0  0  0  0  0  0  0  0
   47.7840   34.0110   38.6960 C   0  0  0  0  0  0  0  0  0  0  0  0
   47.0220   33.6960   39.7530 N   0  0  0  0  0  0  0  0  0  0  0  0
   45.5090   30.0920   48.5080 C   0  0  0  0  0  0  0  0  0  0  0  0
   44.9190   27.6200   48.2120 C   0  0  0  0  0  0  0  0  0  0  0  0
   44.9160   28.9500   47.8330 C   0  0  0  0  0  0  0  0  0  0  0  0
   44.2620   29.2540   46.6510 C   0  0  0  0  0  0  0  0  0  0  0  0
   43.6450   28.2880   45.8870 C   0  0  0  0  0  0  0  0  0  0  0  0
   42.9610   28.2950   44.7350 N   0  0  0  0  0  0  0  0  0  0  0  0
   42.5530   27.0690   44.3960 C   0  0  0  0  0  0  0  0  0  0  0  0
   42.9910   26.1820   45.3800 C   0  0  0  0  0  0  0  0  0  0  0  0
   43.6510   26.9810   46.2630 C   0  0  0  0  0  0  0  0  0  0  0  0
   44.2990   26.6620   47.4400 C   0  0  0  0  0  0  0  0  0  0  0  0
   44.3400   25.2820   47.8970 C   0  0  0  0  0  0  0  0  0  0  0  0
   45.0850   24.9110   48.8300 O   0  0  0  0  0  0  0  0  0  0  0  0
   47.2958   31.1418   48.9357 H   0  0  0  0  0  0  0  0  0  0  0  0
   47.5152   29.4526   48.3438 H   0  0  0  0  0  0  0  0  0  0  0  0
   48.1255   30.8489   43.8253 H   0  0  0  0  0  0  0  0  0  0  0  0
   48.3194   29.3071   45.9701 H   0  0  0  0  0  0  0  0  0  0  0  0
   44.6497   35.9624   44.0955 H   0  0  0  0  0  0  0  0  0  0  0  0
   45.6763   36.1110   41.8169 H   0  0  0  0  0  0  0  0  0  0  0  0
   49.0781   35.8483   41.0028 H   0  0  0  0  0  0  0  0  0  0  0  0
   49.4319   35.3540   38.4875 H   0  0  0  0  0  0  0  0  0  0  0  0
   47.6762   33.5965   37.6828 H   0  0  0  0  0  0  0  0  0  0  0  0
   45.4115   29.9233   49.5906 H   0  0  0  0  0  0  0  0  0  0  0  0
   44.9632   30.9646   48.1199 H   0  0  0  0  0  0  0  0  0  0  0  0
   45.4236   27.3227   49.1431 H   0  0  0  0  0  0  0  0  0  0  0  0
   44.2343   30.2999   46.3114 H   0  0  0  0  0  0  0  0  0  0  0  0
   42.7729   29.1415   44.1792 H   0  0  0  0  0  0  0  0  0  0  0  0
   41.9737   26.8051   43.4989 H   0  0  0  0  0  0  0  0  0  0  0  0
   42.8389   25.0937   45.4305 H   0  0  0  0  0  0  0  0  0  0  0  0
   43.6939   24.5398   47.4054 H   0  0  0  0  0  0  0  0  0  0  0  0
  1 18  1  0
  2  6  2  0
  3  2  1  0
  3  4  2  0
  4  5  1  0
  5  1  1  0
  6  5  1  0
  7 12  2  0
  8  7  1  0
  9  8  2  0
  9 10  1  0
 10 11  2  0
 11 12  1  0
 11  2  1  0
 13  9  1  0
 14 13  2  0
 15 14  1  0
 16 15  1  0
 16 17  2  0
 17 13  1  0
 20 19  2  0
 20 18  1  0
 21 20  1  0
 22 26  1  0
 22 21  2  0
 23 22  1  0
 24 23  1  0
 24 25  2  0
 25 26  1  0
 26 27  2  0
 27 28  1  0
 27 19  1  0
 28 29  2  0
  1 30  1  0
  1 31  1  0
  3 32  1  0
  4 33  1  0
  7 34  1  0
  8 35  1  0
 14 36  1  0
 15 37  1  0
 16 38  1  0
 18 39  1  0
 18 40  1  0
 19 41  1  0
 21 42  1  0
 23 43  1  0
 24 44  1  0
 25 45  1  0
 28 46  1  0
M  ISO  8  30   8  31   8  32  14  33  14  34  14  35  14  36  14  37   9
M  ISO  8  38  14  39   8  40   8  41  14  42  14  43   9  44  14  45  14
M  ISO  1  46   6
M  END
>  <minimizedAffinity>  (1) 
-5.56676912

>  <minimizedRMSD>  (1) 
1.16042852

$$$$
