
     RDKit          3D

 24 25  0  0  0  0  0  0  0  0999 V2000
   44.4840   35.7410   45.0110 C   0  0  0  0  0  0  0  0  0  0  0  0
   45.1150   35.7130   43.7590 C   0  0  0  0  0  0  0  0  0  0  0  0
   46.0200   34.7040   43.4880 C   0  0  0  0  0  0  0  0  0  0  0  0
   46.2530   33.7800   44.4670 N   0  0  0  0  0  0  0  0  0  0  0  0
   45.6340   33.8320   45.6550 C   0  0  0  0  0  0  0  0  0  0  0  0
   44.7500   34.8020   45.9420 N   0  0  0  0  0  0  0  0  0  0  0  0
   45.9290   32.8320   46.6250 N   0  0  0  0  0  0  0  0  0  0  0  0
   45.1550   32.5470   47.8200 C   0  0  0  0  0  0  0  0  0  0  0  0
   46.2450   32.2420   48.8270 C   0  0  0  0  0  0  0  0  0  0  0  0
   47.5320   32.0570   48.0530 C   0  0  0  0  0  0  0  0  0  0  0  0
   47.0400   31.8980   46.6370 C   0  0  0  0  0  0  0  0  0  0  0  0
   44.7530   36.7640   42.8440 N   0  0  0  0  0  0  0  0  0  0  0  0
   43.7622   36.5397   45.2369 H   0  0  0  0  0  0  0  0  0  0  0  0
   46.5348   34.6469   42.5176 H   0  0  0  0  0  0  0  0  0  0  0  0
   44.5572   33.4177   48.1276 H   0  0  0  0  0  0  0  0  0  0  0  0
   44.4232   31.7354   47.6948 H   0  0  0  0  0  0  0  0  0  0  0  0
   46.3481   33.0775   49.5351 H   0  0  0  0  0  0  0  0  0  0  0  0
   46.0022   31.3363   49.4021 H   0  0  0  0  0  0  0  0  0  0  0  0
   48.1848   32.9369   48.1507 H   0  0  0  0  0  0  0  0  0  0  0  0
   48.1378   31.2090   48.4050 H   0  0  0  0  0  0  0  0  0  0  0  0
   46.7053   30.8691   46.4385 H   0  0  0  0  0  0  0  0  0  0  0  0
   47.8022   32.0891   45.8673 H   0  0  0  0  0  0  0  0  0  0  0  0
   45.1802   36.8013   41.9075 H   0  0  0  0  0  0  0  0  0  0  0  0
   44.0668   37.4786   43.1259 H   0  0  0  0  0  0  0  0  0  0  0  0
  1  6  2  0
  2  1  1  0
  3  2  2  0
  3  4  1  0
  4  5  2  0
  5  6  1  0
  5  7  1  0
  7 11  1  0
  7  8  1  0
  8  9  1  0
 10  9  1  0
 11 10  1  0
 12  2  1  0
  1 13  1  0
  3 14  1  0
  8 15  1  0
  8 16  1  0
  9 17  1  0
  9 18  1  0
 10 19  1  0
 10 20  1  0
 11 21  1  0
 11 22  1  0
 12 23  1  0
 12 24  1  0
M  ISO  8  13  14  14  14  15  13  16  13  17  13  18  13  19  13  20  13
M  ISO  2  21  13  22  13
M  END
>  <minimizedAffinity>  (1) 
-4.78129721

>  <minimizedRMSD>  (1) 
0.757291615

$$$$
