
     RDKit          3D

 41 44  0  0  0  0  0  0  0  0999 V2000
   47.2450   30.2520   48.0460 C   0  0  0  0  0  0  0  0  0  0  0  0
   47.0970   32.2040   45.0520 C   0  0  0  0  0  0  0  0  0  0  0  0
   47.7270   31.0280   44.6050 C   0  0  0  0  0  0  0  0  0  0  0  0
   47.8580   30.1740   45.6430 C   0  0  0  0  0  0  0  0  0  0  0  0
   47.3270   30.8000   46.6940 N   0  0  0  0  0  0  0  0  0  0  0  0
   46.8700   32.0090   46.3610 N   0  0  0  0  0  0  0  0  0  0  0  0
   45.3460   35.0850   43.6460 C   0  0  0  0  0  0  0  0  0  0  0  0
   46.1920   35.5190   42.6310 C   0  0  0  0  0  0  0  0  0  0  0  0
   47.3700   34.7970   42.4470 C   0  0  0  0  0  0  0  0  0  0  0  0
   47.6130   33.7430   43.2490 N   0  0  0  0  0  0  0  0  0  0  0  0
   46.7920   33.3430   44.2160 C   0  0  0  0  0  0  0  0  0  0  0  0
   45.6540   34.0260   44.4070 N   0  0  0  0  0  0  0  0  0  0  0  0
   48.2940   35.1850   41.4170 C   0  0  0  0  0  0  0  0  0  0  0  0
   49.1360   36.1040   41.6200 O   0  0  0  0  0  0  0  0  0  0  0  0
   45.8220   30.0600   48.4400 C   0  0  0  0  0  0  0  0  0  0  0  0
   45.0090   27.6760   48.0170 C   0  0  0  0  0  0  0  0  0  0  0  0
   45.0790   29.0190   47.7510 C   0  0  0  0  0  0  0  0  0  0  0  0
   44.3300   29.4700   46.6600 C   0  0  0  0  0  0  0  0  0  0  0  0
   43.5730   28.6230   45.9010 C   0  0  0  0  0  0  0  0  0  0  0  0
   42.7730   28.7690   44.8250 N   0  0  0  0  0  0  0  0  0  0  0  0
   42.2430   27.6040   44.4460 C   0  0  0  0  0  0  0  0  0  0  0  0
   42.6980   26.6020   45.3020 C   0  0  0  0  0  0  0  0  0  0  0  0
   43.5080   27.2900   46.1690 C   0  0  0  0  0  0  0  0  0  0  0  0
   44.2420   26.8260   47.2450 C   0  0  0  0  0  0  0  0  0  0  0  0
   44.2210   25.4090   47.5930 C   0  0  0  0  0  0  0  0  0  0  0  0
   44.8930   24.9490   48.5380 O   0  0  0  0  0  0  0  0  0  0  0  0
   47.7256   30.9478   48.7494 H   0  0  0  0  0  0  0  0  0  0  0  0
   47.7574   29.2789   48.0695 H   0  0  0  0  0  0  0  0  0  0  0  0
   48.0598   30.8350   43.5745 H   0  0  0  0  0  0  0  0  0  0  0  0
   48.3089   29.1708   45.6252 H   0  0  0  0  0  0  0  0  0  0  0  0
   44.4038   35.6227   43.8280 H   0  0  0  0  0  0  0  0  0  0  0  0
   45.9439   36.3886   42.0047 H   0  0  0  0  0  0  0  0  0  0  0  0
   48.2676   34.6764   40.4420 H   0  0  0  0  0  0  0  0  0  0  0  0
   45.8046   29.8238   49.5142 H   0  0  0  0  0  0  0  0  0  0  0  0
   45.3207   30.9988   48.1619 H   0  0  0  0  0  0  0  0  0  0  0  0
   45.5770   27.2660   48.8651 H   0  0  0  0  0  0  0  0  0  0  0  0
   44.3508   30.5398   46.4049 H   0  0  0  0  0  0  0  0  0  0  0  0
   42.5934   29.6674   44.3544 H   0  0  0  0  0  0  0  0  0  0  0  0
   41.5590   27.4583   43.5970 H   0  0  0  0  0  0  0  0  0  0  0  0
   42.4652   25.5270   45.2860 H   0  0  0  0  0  0  0  0  0  0  0  0
   43.5929   24.7250   47.0035 H   0  0  0  0  0  0  0  0  0  0  0  0
  1 15  1  0
  2  6  2  0
  3  2  1  0
  3  4  2  0
  4  5  1  0
  5  1  1  0
  6  5  1  0
  7 12  2  0
  8  7  1  0
  9  8  2  0
  9 10  1  0
 10 11  2  0
 11 12  1  0
 11  2  1  0
 13 14  2  0
 13  9  1  0
 17 16  2  0
 17 15  1  0
 18 17  1  0
 19 23  1  0
 19 18  2  0
 20 19  1  0
 21 20  1  0
 21 22  2  0
 22 23  1  0
 23 24  2  0
 24 25  1  0
 24 16  1  0
 25 26  2  0
  1 27  1  0
  1 28  1  0
  3 29  1  0
  4 30  1  0
  7 31  1  0
  8 32  1  0
 13 33  1  0
 15 34  1  0
 15 35  1  0
 16 36  1  0
 18 37  1  0
 20 38  1  0
 21 39  1  0
 22 40  1  0
 25 41  1  0
M  ISO  8  27   8  28   8  29  14  30  14  31  14  32  14  33   6  34   8
M  ISO  7  35   8  36  14  37  14  38   9  39  14  40  14  41   6
M  END
>  <minimizedAffinity>  (1) 
-5.17800426

>  <minimizedRMSD>  (1) 
0.882832825

$$$$
