
     RDKit          3D

 54 57  0  0  1  0  0  0  0  0999 V2000
   47.0850   34.1080   42.4500 C   0  0  2  0  0  0  0  0  0  0  0  0
   48.4920   34.5960   42.6120 C   0  0  0  0  0  0  0  0  0  0  0  0
   48.8660   35.5970   41.5900 C   0  0  0  0  0  0  0  0  0  0  0  0
   48.6750   35.0650   40.1840 C   0  0  0  0  0  0  0  0  0  0  0  0
   47.3920   34.3090   39.9940 C   0  0  0  0  0  0  0  0  0  0  0  0
   46.4410   34.4450   41.1570 C   0  0  1  0  0  0  0  0  0  0  0  0
   46.2130   34.4920   43.5770 C   0  0  0  0  0  0  0  0  0  0  0  0
   45.5370   35.6800   43.3600 C   0  0  0  0  0  0  0  0  0  0  0  0
   44.6630   36.1750   44.3420 C   0  0  0  0  0  0  0  0  0  0  0  0
   44.5520   35.3900   45.4980 N   0  0  0  0  0  0  0  0  0  0  0  0
   45.2330   34.2430   45.6600 C   0  0  0  0  0  0  0  0  0  0  0  0
   46.0620   33.8040   44.6900 N   0  0  0  0  0  0  0  0  0  0  0  0
   45.3090   33.4690   40.9380 C   0  0  2  0  0  0  0  0  0  0  0  0
   44.8410   33.2480   39.5160 C   0  0  0  0  0  0  0  0  0  0  0  0
   43.9760   33.9540   40.4870 C   0  0  1  0  0  0  0  0  0  0  0  0
   42.8510   33.2980   41.1930 C   0  0  0  0  0  0  0  0  0  0  0  0
   41.5680   34.0560   41.2230 C   0  0  0  0  0  0  0  0  0  0  0  0
   40.5950   33.7510   40.2410 N   0  0  0  0  0  0  0  0  0  0  0  0
   39.2720   33.4760   40.7100 C   0  0  0  0  0  0  0  0  0  0  0  0
   38.2150   33.8880   39.6750 C   0  0  0  0  0  0  0  0  0  0  0  0
   38.7660   33.6070   38.2890 C   0  0  0  0  0  0  0  0  0  0  0  0
   39.8650   34.6210   38.0620 C   0  0  0  0  0  0  0  0  0  0  0  0
   40.5720   34.9310   39.3570 C   0  0  0  0  0  0  0  0  0  0  0  0
   47.2004   33.0141   42.4499 H   0  0  0  0  0  0  0  0  0  0  0  0
   48.5943   35.0530   43.6073 H   0  0  0  0  0  0  0  0  0  0  0  0
   49.1612   33.7311   42.4930 H   0  0  0  0  0  0  0  0  0  0  0  0
   48.2383   36.4908   41.7207 H   0  0  0  0  0  0  0  0  0  0  0  0
   49.9310   35.8387   41.7221 H   0  0  0  0  0  0  0  0  0  0  0  0
   48.6834   35.9157   39.4867 H   0  0  0  0  0  0  0  0  0  0  0  0
   49.4959   34.3581   39.9935 H   0  0  0  0  0  0  0  0  0  0  0  0
   46.8939   34.6884   39.0896 H   0  0  0  0  0  0  0  0  0  0  0  0
   47.6515   33.2435   39.9085 H   0  0  0  0  0  0  0  0  0  0  0  0
   46.0992   35.4895   41.2050 H   0  0  0  0  0  0  0  0  0  0  0  0
   45.6836   36.2348   42.4216 H   0  0  0  0  0  0  0  0  0  0  0  0
   44.1043   37.1137   44.2128 H   0  0  0  0  0  0  0  0  0  0  0  0
   45.1144   33.6605   46.5856 H   0  0  0  0  0  0  0  0  0  0  0  0
   45.6552   32.8413   41.7723 H   0  0  0  0  0  0  0  0  0  0  0  0
   44.5748   32.2368   39.1744 H   0  0  0  0  0  0  0  0  0  0  0  0
   45.2426   33.4779   38.5181 H   0  0  0  0  0  0  0  0  0  0  0  0
   43.4272   34.9027   40.3931 H   0  0  0  0  0  0  0  0  0  0  0  0
   42.6606   32.3334   40.6997 H   0  0  0  0  0  0  0  0  0  0  0  0
   43.1692   33.2116   42.2424 H   0  0  0  0  0  0  0  0  0  0  0  0
   41.1070   33.8809   42.2063 H   0  0  0  0  0  0  0  0  0  0  0  0
   41.8571   35.0959   41.0110 H   0  0  0  0  0  0  0  0  0  0  0  0
   39.1789   32.3978   40.9073 H   0  0  0  0  0  0  0  0  0  0  0  0
   39.1022   34.0564   41.6288 H   0  0  0  0  0  0  0  0  0  0  0  0
   37.2941   33.3076   39.8333 H   0  0  0  0  0  0  0  0  0  0  0  0
   37.9814   34.9579   39.7789 H   0  0  0  0  0  0  0  0  0  0  0  0
   39.1722   32.5860   38.2393 H   0  0  0  0  0  0  0  0  0  0  0  0
   37.9822   33.6847   37.5212 H   0  0  0  0  0  0  0  0  0  0  0  0
   40.5902   34.2140   37.3419 H   0  0  0  0  0  0  0  0  0  0  0  0
   39.4197   35.5468   37.6689 H   0  0  0  0  0  0  0  0  0  0  0  0
   41.6057   35.2371   39.1384 H   0  0  0  0  0  0  0  0  0  0  0  0
   40.0304   35.7412   39.8672 H   0  0  0  0  0  0  0  0  0  0  0  0
  1  2  1  0
  1  7  1  0
  3  2  1  0
  4  3  1  0
  5  4  1  0
  5  6  1  0
  6  1  1  0
  7 12  1  0
  8  7  2  0
  8  9  1  0
  9 10  2  0
 10 11  1  0
 12 11  2  0
 13  6  1  0
 14 15  1  0
 14 13  1  0
 15 13  1  0
 15 16  1  0
 16 17  1  0
 18 19  1  0
 18 17  1  0
 20 19  1  0
 21 20  1  0
 22 21  1  0
 22 23  1  0
 23 18  1  0
  1 24  1  6
  2 25  1  0
  2 26  1  0
  3 27  1  0
  3 28  1  0
  4 29  1  0
  4 30  1  0
  5 31  1  0
  5 32  1  0
  6 33  1  1
  8 34  1  0
  9 35  1  0
 11 36  1  0
 13 37  1  1
 14 38  1  0
 14 39  1  0
 15 40  1  6
 16 41  1  0
 16 42  1  0
 17 43  1  0
 17 44  1  0
 19 45  1  0
 19 46  1  0
 20 47  1  0
 20 48  1  0
 21 49  1  0
 21 50  1  0
 22 51  1  0
 22 52  1  0
 23 53  1  0
 23 54  1  0
M  ISO  8  24  13  25  13  26  13  27  13  28  13  29  13  30  13  31  13
M  ISO  8  32  13  33  13  34  14  35  14  36  14  37  13  38  13  39  13
M  ISO  8  40  13  41   8  42   8  43   8  44   8  45  13  46  13  47  13
M  ISO  7  48  13  49  13  50  13  51  13  52  13  53  13  54  13
M  END
>  <minimizedAffinity>  (1) 
-6.85699511

>  <minimizedRMSD>  (1) 
1.00741351

$$$$
