
     RDKit          3D

 28 29  0  0  1  0  0  0  0  0999 V2000
   44.4750   35.7410   45.0090 C   0  0  0  0  0  0  0  0  0  0  0  0
   45.1130   35.7070   43.7580 C   0  0  0  0  0  0  0  0  0  0  0  0
   46.0290   34.6940   43.4990 C   0  0  0  0  0  0  0  0  0  0  0  0
   46.2560   33.7890   44.4810 N   0  0  0  0  0  0  0  0  0  0  0  0
   45.6430   33.8380   45.6610 C   0  0  0  0  0  0  0  0  0  0  0  0
   44.7600   34.8010   45.9300 N   0  0  0  0  0  0  0  0  0  0  0  0
   45.9410   32.8470   46.6360 N   0  0  0  0  0  0  0  0  0  0  0  0
   45.1500   32.5770   47.8350 C   0  0  0  0  0  0  0  0  0  0  0  0
   46.2170   32.2460   48.8420 C   0  0  0  0  0  0  0  0  0  0  0  0
   47.5070   32.0550   48.0770 C   0  0  0  0  0  0  0  0  0  0  0  0
   47.0590   31.9170   46.6560 C   0  0  1  0  0  0  0  0  0  0  0  0
   47.3660   29.5070   45.8490 C   0  0  0  0  0  0  0  0  0  0  0  0
   48.5740   29.7720   45.5510 O   0  0  0  0  0  0  0  0  0  0  0  0
   46.6060   30.5610   46.3960 N   0  0  0  0  0  0  0  0  0  0  0  0
   44.7500   36.7470   42.8340 N   0  0  0  0  0  0  0  0  0  0  0  0
   43.7454   36.5325   45.2354 H   0  0  0  0  0  0  0  0  0  0  0  0
   46.5502   34.6297   42.5324 H   0  0  0  0  0  0  0  0  0  0  0  0
   44.5719   33.4615   48.1406 H   0  0  0  0  0  0  0  0  0  0  0  0
   44.4006   31.7825   47.7037 H   0  0  0  0  0  0  0  0  0  0  0  0
   46.3243   33.0701   49.5627 H   0  0  0  0  0  0  0  0  0  0  0  0
   45.9566   31.3366   49.4034 H   0  0  0  0  0  0  0  0  0  0  0  0
   48.1672   32.9266   48.1973 H   0  0  0  0  0  0  0  0  0  0  0  0
   48.0864   31.1882   48.4276 H   0  0  0  0  0  0  0  0  0  0  0  0
   47.8357   32.1174   45.9033 H   0  0  0  0  0  0  0  0  0  0  0  0
   46.9366   28.5071   45.6882 H   0  0  0  0  0  0  0  0  0  0  0  0
   45.6275   30.3476   46.6364 H   0  0  0  0  0  0  0  0  0  0  0  0
   45.1816   36.7792   41.8993 H   0  0  0  0  0  0  0  0  0  0  0  0
   44.0584   37.4599   43.1067 H   0  0  0  0  0  0  0  0  0  0  0  0
  1  6  2  0
  2  1  1  0
  3  2  2  0
  3  4  1  0
  4  5  2  0
  5  6  1  0
  5  7  1  0
  7 11  1  0
  7  8  1  0
  8  9  1  0
 10  9  1  0
 11 10  1  0
 12 14  1  0
 13 12  2  0
 14 11  1  0
 15  2  1  0
  1 16  1  0
  3 17  1  0
  8 18  1  0
  8 19  1  0
  9 20  1  0
  9 21  1  0
 10 22  1  0
 10 23  1  0
 11 24  1  6
 12 25  1  0
 14 26  1  0
 15 27  1  0
 15 28  1  0
M  ISO  8  16  14  17  14  18  13  19  13  20  13  21  13  22  13  23  13
M  ISO  2  24  13  25   6
M  END
>  <minimizedAffinity>  (1) 
-4.99038649

>  <minimizedRMSD>  (1) 
0.325519353

$$$$
