
     RDKit          3D

 36 38  0  0  1  0  0  0  0  0999 V2000
   44.6170   35.7950   44.7170 C   0  0  0  0  0  0  0  0  0  0  0  0
   44.5290   35.3960   43.3660 C   0  0  0  0  0  0  0  0  0  0  0  0
   44.8180   34.0750   43.0320 C   0  0  0  0  0  0  0  0  0  0  0  0
   45.1690   33.2520   44.0440 N   0  0  0  0  0  0  0  0  0  0  0  0
   45.2480   33.6460   45.3150 C   0  0  0  0  0  0  0  0  0  0  0  0
   44.9760   34.9120   45.6740 N   0  0  0  0  0  0  0  0  0  0  0  0
   45.6420   32.6780   46.2820 N   0  0  0  0  0  0  0  0  0  0  0  0
   45.4690   32.8410   47.7340 C   0  0  0  0  0  0  0  0  0  0  0  0
   46.7310   32.2060   48.2540 C   0  0  0  0  0  0  0  0  0  0  0  0
   47.3680   31.4660   47.1100 C   0  0  0  0  0  0  0  0  0  0  0  0
   46.2550   31.4020   46.1140 C   0  0  2  0  0  0  0  0  0  0  0  0
   45.7980   30.3370   43.9260 C   0  0  0  0  0  0  0  0  0  0  0  0
   46.6800   31.0140   44.7790 C   0  0  0  0  0  0  0  0  0  0  0  0
   47.9110   31.2090   44.2230 C   0  0  0  0  0  0  0  0  0  0  0  0
   48.3190   30.8180   42.9750 C   0  0  0  0  0  0  0  0  0  0  0  0
   47.4080   30.1540   42.1780 C   0  0  0  0  0  0  0  0  0  0  0  0
   46.1420   29.9110   42.6520 C   0  0  0  0  0  0  0  0  0  0  0  0
   44.5050   30.0600   44.3460 O   0  0  0  0  0  0  0  0  0  0  0  0
   45.2050   29.2410   41.8620 O   0  0  0  0  0  0  0  0  0  0  0  0
   44.1420   36.4100   42.4370 N   0  0  0  0  0  0  0  0  0  0  0  0
   44.3910   36.8355   44.9933 H   0  0  0  0  0  0  0  0  0  0  0  0
   44.7630   33.7186   41.9928 H   0  0  0  0  0  0  0  0  0  0  0  0
   45.4067   33.9025   48.0155 H   0  0  0  0  0  0  0  0  0  0  0  0
   44.5443   32.3963   48.1304 H   0  0  0  0  0  0  0  0  0  0  0  0
   47.4157   32.9817   48.6275 H   0  0  0  0  0  0  0  0  0  0  0  0
   46.5064   31.5190   49.0832 H   0  0  0  0  0  0  0  0  0  0  0  0
   48.2304   32.0185   46.7089 H   0  0  0  0  0  0  0  0  0  0  0  0
   47.7661   30.4796   47.3902 H   0  0  0  0  0  0  0  0  0  0  0  0
   45.5252   30.5950   46.2754 H   0  0  0  0  0  0  0  0  0  0  0  0
   48.6531   31.7351   44.8415 H   0  0  0  0  0  0  0  0  0  0  0  0
   49.3390   31.0263   42.6196 H   0  0  0  0  0  0  0  0  0  0  0  0
   47.6944   29.8215   41.1693 H   0  0  0  0  0  0  0  0  0  0  0  0
   43.8809   29.5818   43.7444 H   0  0  0  0  0  0  0  0  0  0  0  0
   44.2947   29.0700   42.2115 H   0  0  0  0  0  0  0  0  0  0  0  0
   44.0586   36.1859   41.4351 H   0  0  0  0  0  0  0  0  0  0  0  0
   43.9464   37.3652   42.7691 H   0  0  0  0  0  0  0  0  0  0  0  0
  1  6  2  0
  2  1  1  0
  3  2  2  0
  3  4  1  0
  4  5  2  0
  5  6  1  0
  5  7  1  0
  7  8  1  0
  8  9  1  0
 10  9  1  0
 11  7  1  0
 11 10  1  0
 12 18  1  0
 12 13  2  0
 13 11  1  0
 14 13  1  0
 15 14  2  0
 16 17  2  0
 16 15  1  0
 17 12  1  0
 19 17  1  0
 20  2  1  0
  1 21  1  0
  3 22  1  0
  8 23  1  0
  8 24  1  0
  9 25  1  0
  9 26  1  0
 10 27  1  0
 10 28  1  0
 11 29  1  1
 14 30  1  0
 15 31  1  0
 16 32  1  0
 18 33  1  0
 19 34  1  0
 20 35  1  0
 20 36  1  0
M  ISO  8  21  14  22  14  23  13  24  13  25  13  26  13  27  13  28  13
M  ISO  6  29  13  30  14  31  14  32  14  33   3  34   3
M  END
>  <minimizedAffinity>  (1) 
-4.74604034

>  <minimizedRMSD>  (1) 
2.24554372

$$$$
