
     RDKit          3D

 37 39  0  0  1  0  0  0  0  0999 V2000
   44.5840   35.7580   44.7010 C   0  0  0  0  0  0  0  0  0  0  0  0
   44.5300   35.3780   43.3450 C   0  0  0  0  0  0  0  0  0  0  0  0
   44.8700   34.0710   42.9990 C   0  0  0  0  0  0  0  0  0  0  0  0
   45.2350   33.2400   44.0140 N   0  0  0  0  0  0  0  0  0  0  0  0
   45.2760   33.6370   45.3020 C   0  0  0  0  0  0  0  0  0  0  0  0
   44.9560   34.8830   45.6570 N   0  0  0  0  0  0  0  0  0  0  0  0
   45.6790   32.6590   46.2560 N   0  0  0  0  0  0  0  0  0  0  0  0
   45.4660   32.8060   47.7060 C   0  0  0  0  0  0  0  0  0  0  0  0
   46.7330   32.1930   48.2500 C   0  0  0  0  0  0  0  0  0  0  0  0
   47.3910   31.4590   47.1160 C   0  0  0  0  0  0  0  0  0  0  0  0
   46.3310   31.4010   46.0650 C   0  0  2  0  0  0  0  0  0  0  0  0
   46.2600   30.1920   43.8970 C   0  0  0  0  0  0  0  0  0  0  0  0
   46.8690   31.1270   44.7310 C   0  0  0  0  0  0  0  0  0  0  0  0
   47.9880   31.6840   44.1620 C   0  0  0  0  0  0  0  0  0  0  0  0
   48.5160   31.4230   42.9430 C   0  0  0  0  0  0  0  0  0  0  0  0
   47.8690   30.4870   42.1570 C   0  0  0  0  0  0  0  0  0  0  0  0
   46.7350   29.8630   42.6290 C   0  0  0  0  0  0  0  0  0  0  0  0
   44.8030   29.3910   44.5030 S   0  0  0  0  0  0  0  0  0  0  0  0
   43.6600   29.6080   43.5510 O   0  0  0  0  0  0  0  0  0  0  0  0
   45.0670   27.9170   44.6250 O   0  0  0  0  0  0  0  0  0  0  0  0
   44.1180   36.4000   42.4300 N   0  0  0  0  0  0  0  0  0  0  0  0
   44.3179   36.7870   44.9846 H   0  0  0  0  0  0  0  0  0  0  0  0
   44.8446   33.7270   41.9545 H   0  0  0  0  0  0  0  0  0  0  0  0
   45.3730   33.8633   47.9950 H   0  0  0  0  0  0  0  0  0  0  0  0
   44.5420   32.3386   48.0770 H   0  0  0  0  0  0  0  0  0  0  0  0
   47.4013   32.9808   48.6278 H   0  0  0  0  0  0  0  0  0  0  0  0
   46.5110   31.5092   49.0825 H   0  0  0  0  0  0  0  0  0  0  0  0
   48.2726   32.0078   46.7533 H   0  0  0  0  0  0  0  0  0  0  0  0
   47.7544   30.4628   47.4085 H   0  0  0  0  0  0  0  0  0  0  0  0
   45.6213   30.5648   46.1495 H   0  0  0  0  0  0  0  0  0  0  0  0
   48.5188   32.4318   44.7695 H   0  0  0  0  0  0  0  0  0  0  0  0
   49.4238   31.9352   42.5916 H   0  0  0  0  0  0  0  0  0  0  0  0
   48.2586   30.2415   41.1580 H   0  0  0  0  0  0  0  0  0  0  0  0
   46.2121   29.1159   42.0138 H   0  0  0  0  0  0  0  0  0  0  0  0
   44.4767   29.9160   45.7256 H   0  0  0  0  0  0  0  0  0  0  0  0
   44.0553   36.1946   41.4226 H   0  0  0  0  0  0  0  0  0  0  0  0
   43.8844   37.3404   42.7794 H   0  0  0  0  0  0  0  0  0  0  0  0
  1  6  2  0
  2  1  1  0
  3  2  2  0
  3  4  1  0
  4  5  2  0
  5  6  1  0
  5  7  1  0
  7  8  1  0
  8  9  1  0
 10  9  1  0
 11  7  1  0
 11 10  1  0
 12 18  1  0
 12 13  2  0
 13 11  1  0
 14 13  1  0
 15 14  2  0
 16 17  2  0
 16 15  1  0
 17 12  1  0
 18 20  2  0
 19 18  2  0
 21  2  1  0
  1 22  1  0
  3 23  1  0
  8 24  1  0
  8 25  1  0
  9 26  1  0
  9 27  1  0
 10 28  1  0
 10 29  1  0
 11 30  1  1
 14 31  1  0
 15 32  1  0
 16 33  1  0
 17 34  1  0
 18 35  1  0
 21 36  1  0
 21 37  1  0
M  ISO  8  22  14  23  14  24  13  25  13  26  13  27  13  28  13  29  13
M  ISO  6  30  13  31  14  32  14  33  14  34  14  35  11
M  END
>  <minimizedAffinity>  (1) 
-4.48701477

>  <minimizedRMSD>  (1) 
2.25012016

$$$$
