
     RDKit          3D

 32 34  0  0  1  0  0  0  0  0999 V2000
   44.5850   35.7840   44.6990 C   0  0  0  0  0  0  0  0  0  0  0  0
   44.5460   35.4250   43.3560 C   0  0  0  0  0  0  0  0  0  0  0  0
   44.8850   34.1340   43.0120 C   0  0  0  0  0  0  0  0  0  0  0  0
   45.2350   33.2990   44.0170 N   0  0  0  0  0  0  0  0  0  0  0  0
   45.2660   33.6640   45.3070 C   0  0  0  0  0  0  0  0  0  0  0  0
   44.9420   34.9080   45.6740 N   0  0  0  0  0  0  0  0  0  0  0  0
   45.6560   32.6790   46.2580 N   0  0  0  0  0  0  0  0  0  0  0  0
   45.4550   32.8230   47.7050 C   0  0  0  0  0  0  0  0  0  0  0  0
   46.7090   32.1900   48.2490 C   0  0  0  0  0  0  0  0  0  0  0  0
   47.3910   31.4900   47.1060 C   0  0  0  0  0  0  0  0  0  0  0  0
   46.2850   31.4030   46.0660 C   0  0  2  0  0  0  0  0  0  0  0  0
   46.8330   31.1720   44.7150 C   0  0  0  0  0  0  0  0  0  0  0  0
   46.1490   30.2780   43.8830 C   0  0  0  0  0  0  0  0  0  0  0  0
   46.5720   29.9800   42.6090 C   0  0  0  0  0  0  0  0  0  0  0  0
   47.7060   30.6050   42.1830 N   0  0  0  0  0  0  0  0  0  0  0  0
   48.3840   31.4690   42.9610 C   0  0  0  0  0  0  0  0  0  0  0  0
   47.9320   31.7390   44.2190 N   0  0  0  0  0  0  0  0  0  0  0  0
   44.1510   36.4420   42.4260 N   0  0  0  0  0  0  0  0  0  0  0  0
   44.3175   36.8129   44.9816 H   0  0  0  0  0  0  0  0  0  0  0  0
   44.8715   33.7971   41.9649 H   0  0  0  0  0  0  0  0  0  0  0  0
   45.3803   33.8810   47.9966 H   0  0  0  0  0  0  0  0  0  0  0  0
   44.5257   32.3658   48.0756 H   0  0  0  0  0  0  0  0  0  0  0  0
   47.3710   32.9638   48.6649 H   0  0  0  0  0  0  0  0  0  0  0  0
   46.4681   31.4783   49.0524 H   0  0  0  0  0  0  0  0  0  0  0  0
   48.2430   32.0768   46.7320 H   0  0  0  0  0  0  0  0  0  0  0  0
   47.8130   30.5118   47.3800 H   0  0  0  0  0  0  0  0  0  0  0  0
   45.5824   30.5630   46.1698 H   0  0  0  0  0  0  0  0  0  0  0  0
   45.2370   29.7947   44.2634 H   0  0  0  0  0  0  0  0  0  0  0  0
   46.0240   29.2743   41.9673 H   0  0  0  0  0  0  0  0  0  0  0  0
   49.2967   31.9541   42.5846 H   0  0  0  0  0  0  0  0  0  0  0  0
   44.1053   36.2295   41.4192 H   0  0  0  0  0  0  0  0  0  0  0  0
   43.9129   37.3852   42.7646 H   0  0  0  0  0  0  0  0  0  0  0  0
  1  6  2  0
  2  1  1  0
  3  2  2  0
  3  4  1  0
  4  5  2  0
  5  6  1  0
  5  7  1  0
  7  8  1  0
  8  9  1  0
 10  9  1  0
 11  7  1  0
 11 10  1  0
 12 11  1  0
 13 12  2  0
 14 13  1  0
 15 14  2  0
 15 16  1  0
 16 17  2  0
 17 12  1  0
 18  2  1  0
  1 19  1  0
  3 20  1  0
  8 21  1  0
  8 22  1  0
  9 23  1  0
  9 24  1  0
 10 25  1  0
 10 26  1  0
 11 27  1  1
 13 28  1  0
 14 29  1  0
 16 30  1  0
 18 31  1  0
 18 32  1  0
M  ISO  8  19  14  20  14  21  13  22  13  23  13  24  13  25  13  26  13
M  ISO  4  27  13  28  14  29  14  30  14
M  END
>  <minimizedAffinity>  (1) 
-4.40421915

>  <minimizedRMSD>  (1) 
1.74280655

$$$$
