
     RDKit          3D

 41 44  0  0  1  0  0  0  0  0999 V2000
   44.4760   35.8900   45.0090 C   0  0  0  0  0  0  0  0  0  0  0  0
   45.0760   35.8440   43.7400 C   0  0  0  0  0  0  0  0  0  0  0  0
   45.9140   34.8140   43.4410 C   0  0  0  0  0  0  0  0  0  0  0  0
   46.1160   33.8880   44.4080 N   0  0  0  0  0  0  0  0  0  0  0  0
   45.5480   33.9320   45.6060 C   0  0  0  0  0  0  0  0  0  0  0  0
   44.7150   34.9350   45.9340 N   0  0  0  0  0  0  0  0  0  0  0  0
   45.8450   32.8970   46.5260 N   0  0  0  0  0  0  0  0  0  0  0  0
   45.0900   32.6530   47.7620 C   0  0  0  0  0  0  0  0  0  0  0  0
   46.1900   32.2520   48.7220 C   0  0  0  0  0  0  0  0  0  0  0  0
   47.4240   32.0120   47.8970 C   0  0  0  0  0  0  0  0  0  0  0  0
   46.8680   31.8990   46.5040 C   0  0  1  0  0  0  0  0  0  0  0  0
   44.7470   36.9120   42.8400 N   0  0  0  0  0  0  0  0  0  0  0  0
   46.2010   30.2340   46.2570 S   0  0  0  0  0  0  0  0  0  0  0  0
   47.3940   29.0090   46.7310 C   0  0  0  0  0  0  0  0  0  0  0  0
   48.7330   29.3170   46.4730 C   0  0  0  0  0  0  0  0  0  0  0  0
   49.7160   28.3930   46.8240 C   0  0  0  0  0  0  0  0  0  0  0  0
   49.4050   27.1920   47.4150 C   0  0  0  0  0  0  0  0  0  0  0  0
   48.0640   26.9070   47.6630 C   0  0  0  0  0  0  0  0  0  0  0  0
   47.7340   25.6940   48.2620 C   0  0  0  0  0  0  0  0  0  0  0  0
   46.3840   25.4760   48.4790 C   0  0  0  0  0  0  0  0  0  0  0  0
   45.3660   26.3540   48.1520 C   0  0  0  0  0  0  0  0  0  0  0  0
   45.7800   27.5230   47.5670 C   0  0  0  0  0  0  0  0  0  0  0  0
   47.0870   27.8020   47.3250 C   0  0  0  0  0  0  0  0  0  0  0  0
   43.7978   36.7205   45.2546 H   0  0  0  0  0  0  0  0  0  0  0  0
   46.4044   34.7374   42.4593 H   0  0  0  0  0  0  0  0  0  0  0  0
   44.5734   33.5626   48.1021 H   0  0  0  0  0  0  0  0  0  0  0  0
   44.2940   31.9011   47.6570 H   0  0  0  0  0  0  0  0  0  0  0  0
   46.3712   33.0585   49.4478 H   0  0  0  0  0  0  0  0  0  0  0  0
   45.9112   31.3491   49.2851 H   0  0  0  0  0  0  0  0  0  0  0  0
   48.1261   32.8550   47.9775 H   0  0  0  0  0  0  0  0  0  0  0  0
   47.9975   31.1281   48.2131 H   0  0  0  0  0  0  0  0  0  0  0  0
   47.5915   32.0471   45.6887 H   0  0  0  0  0  0  0  0  0  0  0  0
   45.1558   36.9333   41.8948 H   0  0  0  0  0  0  0  0  0  0  0  0
   44.1021   37.6573   43.1391 H   0  0  0  0  0  0  0  0  0  0  0  0
   49.0063   30.2723   46.0010 H   0  0  0  0  0  0  0  0  0  0  0  0
   50.7706   28.6320   46.6222 H   0  0  0  0  0  0  0  0  0  0  0  0
   50.1940   26.4746   47.6851 H   0  0  0  0  0  0  0  0  0  0  0  0
   48.4981   24.9551   48.5451 H   0  0  0  0  0  0  0  0  0  0  0  0
   46.0967   24.5249   48.9510 H   0  0  0  0  0  0  0  0  0  0  0  0
   44.3064   26.1315   48.3463 H   0  0  0  0  0  0  0  0  0  0  0  0
   45.0212   28.2665   47.2815 H   0  0  0  0  0  0  0  0  0  0  0  0
  1  6  2  0
  2  1  1  0
  3  2  2  0
  3  4  1  0
  4  5  2  0
  5  6  1  0
  5  7  1  0
  7  8  1  0
  8  9  1  0
 10  9  1  0
 11  7  1  0
 11 10  1  0
 12  2  1  0
 13 11  1  0
 13 14  1  0
 14 23  1  0
 15 14  2  0
 15 16  1  0
 16 17  2  0
 17 18  1  0
 18 19  2  0
 19 20  1  0
 21 20  2  0
 22 21  1  0
 23 22  2  0
 23 18  1  0
  1 24  1  0
  3 25  1  0
  8 26  1  0
  8 27  1  0
  9 28  1  0
  9 29  1  0
 10 30  1  0
 10 31  1  0
 11 32  1  6
 12 33  1  0
 12 34  1  0
 15 35  1  0
 16 36  1  0
 17 37  1  0
 19 38  1  0
 20 39  1  0
 21 40  1  0
 22 41  1  0
M  ISO  8  24  14  25  14  26  13  27  13  28  13  29  13  30  13  31  13
M  ISO  8  32  13  35  14  36  14  37  14  38  14  39  14  40  14  41  14
M  END
>  <minimizedAffinity>  (1) 
-5.89426279

>  <minimizedRMSD>  (1) 
0.872368515

$$$$
