
     RDKit          3D

 45 49  0  0  1  0  0  0  0  0999 V2000
   44.4580   35.7920   45.1030 C   0  0  0  0  0  0  0  0  0  0  0  0
   45.0580   35.7650   43.8150 C   0  0  0  0  0  0  0  0  0  0  0  0
   45.9180   34.7560   43.5020 C   0  0  0  0  0  0  0  0  0  0  0  0
   46.1440   33.8280   44.4670 N   0  0  0  0  0  0  0  0  0  0  0  0
   45.5840   33.8520   45.6680 C   0  0  0  0  0  0  0  0  0  0  0  0
   44.7440   34.8280   45.9920 N   0  0  0  0  0  0  0  0  0  0  0  0
   45.9210   32.8090   46.5720 N   0  0  0  0  0  0  0  0  0  0  0  0
   45.1710   32.5290   47.8080 C   0  0  0  0  0  0  0  0  0  0  0  0
   46.2990   32.1680   48.7610 C   0  0  0  0  0  0  0  0  0  0  0  0
   47.5330   31.9790   47.9350 C   0  0  0  0  0  0  0  0  0  0  0  0
   46.9720   31.8410   46.5380 C   0  0  1  0  0  0  0  0  0  0  0  0
   44.6890   36.8420   42.9350 N   0  0  0  0  0  0  0  0  0  0  0  0
   46.3690   30.1660   46.2880 S   0  0  0  0  0  0  0  0  0  0  0  0
   47.6510   28.9550   46.6950 C   0  0  0  0  0  0  0  0  0  0  0  0
   47.0460   27.7060   47.2080 C   0  0  0  0  0  0  0  0  0  0  0  0
   47.6910   26.8140   47.9240 C   0  0  0  0  0  0  0  0  0  0  0  0
   47.0670   25.6430   48.3960 N   0  0  0  0  0  0  0  0  0  0  0  0
   47.1430   24.3370   49.0040 C   0  0  1  0  0  0  0  0  0  0  0  0
   47.9810   23.4100   48.8220 O   0  0  0  0  0  0  0  0  0  0  0  0
   45.9020   24.7880   49.7460 C   0  0  0  0  0  0  0  0  0  0  0  0
   45.6460   25.3460   48.3890 C   0  0  2  0  0  0  0  0  0  0  0  0
   44.7460   26.8770   48.2260 S   0  0  0  0  0  0  0  0  0  0  0  0
   45.6440   27.6160   46.7950 C   0  0  0  0  0  0  0  0  0  0  0  0
   49.1150   26.9480   48.3120 C   0  0  0  0  0  0  0  0  0  0  0  0
   49.7330   27.4720   49.2630 O   0  0  0  0  0  0  0  0  0  0  0  0
   50.1510   26.4350   47.5690 O   0  0  0  0  0  0  0  0  0  0  0  0
   43.7615   36.6003   45.3705 H   0  0  0  0  0  0  0  0  0  0  0  0
   46.4047   34.6961   42.5173 H   0  0  0  0  0  0  0  0  0  0  0  0
   44.6186   33.4151   48.1541 H   0  0  0  0  0  0  0  0  0  0  0  0
   44.4014   31.7501   47.7030 H   0  0  0  0  0  0  0  0  0  0  0  0
   46.4526   32.9793   49.4877 H   0  0  0  0  0  0  0  0  0  0  0  0
   46.0594   31.2516   49.3203 H   0  0  0  0  0  0  0  0  0  0  0  0
   48.2001   32.8503   48.0115 H   0  0  0  0  0  0  0  0  0  0  0  0
   48.1445   31.1204   48.2494 H   0  0  0  0  0  0  0  0  0  0  0  0
   47.6834   32.0069   45.7156 H   0  0  0  0  0  0  0  0  0  0  0  0
   45.0840   36.8891   41.9849 H   0  0  0  0  0  0  0  0  0  0  0  0
   44.0299   37.5659   43.2552 H   0  0  0  0  0  0  0  0  0  0  0  0
   48.2343   28.7287   45.7903 H   0  0  0  0  0  0  0  0  0  0  0  0
   48.3030   29.3780   47.4734 H   0  0  0  0  0  0  0  0  0  0  0  0
   48.2902   23.0680   49.6981 H   0  0  0  0  0  0  0  0  0  0  0  0
   45.2195   23.9959   50.0876 H   0  0  0  0  0  0  0  0  0  0  0  0
   45.8785   25.3468   50.6932 H   0  0  0  0  0  0  0  0  0  0  0  0
   45.2464   28.6163   46.5683 H   0  0  0  0  0  0  0  0  0  0  0  0
   45.5277   27.0077   45.8859 H   0  0  0  0  0  0  0  0  0  0  0  0
   51.0852   26.5532   47.8745 H   0  0  0  0  0  0  0  0  0  0  0  0
  1  6  2  0
  2  1  1  0
  3  2  2  0
  3  4  1  0
  4  5  2  0
  5  6  1  0
  5  7  1  0
  7  8  1  0
  8  9  1  0
 10  9  1  0
 11  7  1  0
 11 10  1  0
 12  2  1  0
 13 11  1  0
 13 14  1  0
 14 15  1  0
 15 16  2  0
 16 24  1  0
 16 17  1  0
 17 18  1  0
 18 19  1  6
 18 20  1  0
 21 22  1  1
 21 17  1  0
 21 18  1  0
 21 20  1  0
 23 15  1  0
 23 22  1  0
 24 25  2  0
 26 24  1  0
  1 27  1  0
  3 28  1  0
  8 29  1  0
  8 30  1  0
  9 31  1  0
  9 32  1  0
 10 33  1  0
 10 34  1  0
 11 35  1  6
 12 36  1  0
 12 37  1  0
 14 38  1  0
 14 39  1  0
 19 40  1  0
 20 41  1  0
 20 42  1  0
 23 43  1  0
 23 44  1  0
 26 45  1  0
M  ISO  8  27  14  28  14  29  13  30  13  31  13  32  13  33  13  34  13
M  ISO  8  35  13  38   8  39   8  40   3  41  13  42  13  43  13  44  13
M  ISO  1  45   3
M  END
>  <minimizedAffinity>  (1) 
-5.73629856

>  <minimizedRMSD>  (1) 
2.81566525

$$$$
