
     RDKit          3D

 35 37  0  0  1  0  0  0  0  0999 V2000
   44.4630   35.9170   44.9730 C   0  0  0  0  0  0  0  0  0  0  0  0
   45.0730   35.9040   43.7100 C   0  0  0  0  0  0  0  0  0  0  0  0
   45.9320   34.8930   43.4070 C   0  0  0  0  0  0  0  0  0  0  0  0
   46.1400   33.9580   44.3640 N   0  0  0  0  0  0  0  0  0  0  0  0
   45.5510   33.9840   45.5660 C   0  0  0  0  0  0  0  0  0  0  0  0
   44.7100   34.9540   45.8900 N   0  0  0  0  0  0  0  0  0  0  0  0
   45.8580   32.9270   46.4830 N   0  0  0  0  0  0  0  0  0  0  0  0
   45.1050   32.6640   47.6980 C   0  0  0  0  0  0  0  0  0  0  0  0
   46.2070   32.2690   48.6500 C   0  0  0  0  0  0  0  0  0  0  0  0
   47.4550   32.0670   47.8370 C   0  0  0  0  0  0  0  0  0  0  0  0
   46.9250   31.9450   46.4090 C   0  0  1  0  0  0  0  0  0  0  0  0
   44.7270   36.9800   42.8240 N   0  0  0  0  0  0  0  0  0  0  0  0
   46.3010   30.2910   46.1770 S   0  0  0  0  0  0  0  0  0  0  0  0
   45.4460   27.5960   47.8490 Cl  0  0  0  0  0  0  0  0  0  0  0  0
   47.0970   27.8180   47.3740 C   0  0  0  0  0  0  0  0  0  0  0  0
   47.3440   28.9810   46.6830 C   0  0  0  0  0  0  0  0  0  0  0  0
   48.6750   29.2040   46.3030 C   0  0  0  0  0  0  0  0  0  0  0  0
   49.6540   28.2580   46.6330 C   0  0  0  0  0  0  0  0  0  0  0  0
   49.3430   27.1000   47.3330 C   0  0  0  0  0  0  0  0  0  0  0  0
   48.0390   26.8970   47.6980 C   0  0  0  0  0  0  0  0  0  0  0  0
   47.5280   25.4630   48.5880 Cl  0  0  0  0  0  0  0  0  0  0  0  0
   43.7665   36.7306   45.2239 H   0  0  0  0  0  0  0  0  0  0  0  0
   46.4341   34.8379   42.4298 H   0  0  0  0  0  0  0  0  0  0  0  0
   44.5755   33.5632   48.0460 H   0  0  0  0  0  0  0  0  0  0  0  0
   44.3159   31.9062   47.5835 H   0  0  0  0  0  0  0  0  0  0  0  0
   46.3665   33.0658   49.3914 H   0  0  0  0  0  0  0  0  0  0  0  0
   45.9419   31.3473   49.1887 H   0  0  0  0  0  0  0  0  0  0  0  0
   48.1327   32.9280   47.9341 H   0  0  0  0  0  0  0  0  0  0  0  0
   48.0410   31.1925   48.1560 H   0  0  0  0  0  0  0  0  0  0  0  0
   47.6354   32.1101   45.5856 H   0  0  0  0  0  0  0  0  0  0  0  0
   45.1422   37.0257   41.8825 H   0  0  0  0  0  0  0  0  0  0  0  0
   44.0636   37.7061   43.1300 H   0  0  0  0  0  0  0  0  0  0  0  0
   48.9484   30.1148   45.7500 H   0  0  0  0  0  0  0  0  0  0  0  0
   50.6961   28.4372   46.3297 H   0  0  0  0  0  0  0  0  0  0  0  0
   50.1222   26.3663   47.5872 H   0  0  0  0  0  0  0  0  0  0  0  0
  1  6  2  0
  2  1  1  0
  3  2  2  0
  3  4  1  0
  4  5  2  0
  5  6  1  0
  5  7  1  0
  7  8  1  0
  8  9  1  0
 10  9  1  0
 11  7  1  0
 11 10  1  0
 12  2  1  0
 13 11  1  0
 13 16  1  0
 15 20  2  0
 15 14  1  0
 16 15  1  0
 17 18  1  0
 17 16  2  0
 18 19  2  0
 19 20  1  0
 20 21  1  0
  1 22  1  0
  3 23  1  0
  8 24  1  0
  8 25  1  0
  9 26  1  0
  9 27  1  0
 10 28  1  0
 10 29  1  0
 11 30  1  6
 12 31  1  0
 12 32  1  0
 17 33  1  0
 18 34  1  0
 19 35  1  0
M  ISO  8  22  14  23  14  24  13  25  13  26  13  27  13  28  13  29  13
M  ISO  4  30  13  33  14  34  14  35  14
M  END
>  <minimizedAffinity>  (1) 
-5.51701498

>  <minimizedRMSD>  (1) 
0.935217917

$$$$
