
     RDKit          3D

 40 42  0  0  1  0  0  0  0  0999 V2000
   44.4450   35.7190   44.9930 C   0  0  0  0  0  0  0  0  0  0  0  0
   45.1270   35.7140   43.7470 C   0  0  0  0  0  0  0  0  0  0  0  0
   46.0820   34.7460   43.5040 C   0  0  0  0  0  0  0  0  0  0  0  0
   46.2890   33.8630   44.5070 N   0  0  0  0  0  0  0  0  0  0  0  0
   45.6510   33.8700   45.6720 C   0  0  0  0  0  0  0  0  0  0  0  0
   44.7310   34.7910   45.9220 N   0  0  0  0  0  0  0  0  0  0  0  0
   45.9850   32.8700   46.6160 N   0  0  0  0  0  0  0  0  0  0  0  0
   45.1780   32.5490   47.7970 C   0  0  0  0  0  0  0  0  0  0  0  0
   46.2470   32.2730   48.8360 C   0  0  0  0  0  0  0  0  0  0  0  0
   47.5480   32.1400   48.1020 C   0  0  0  0  0  0  0  0  0  0  0  0
   47.1020   31.9740   46.6750 C   0  0  1  0  0  0  0  0  0  0  0  0
   44.7570   36.7420   42.8170 N   0  0  0  0  0  0  0  0  0  0  0  0
   46.6480   30.2560   46.3990 S   0  0  0  0  0  0  0  0  0  0  0  0
   50.5410   29.4420   44.1950 N   0  0  0  0  0  0  0  0  0  0  0  0
   49.3890   29.7390   43.4030 C   0  0  0  0  0  0  0  0  0  0  0  0
   48.2980   30.3670   44.2050 C   0  0  0  0  0  0  0  0  0  0  0  0
   47.9490   29.4920   45.3660 C   0  0  0  0  0  0  0  0  0  0  0  0
   49.1840   29.2090   46.1890 C   0  0  0  0  0  0  0  0  0  0  0  0
   50.1890   28.5230   45.2670 C   0  0  0  0  0  0  0  0  0  0  0  0
   43.6814   36.4838   45.1979 H   0  0  0  0  0  0  0  0  0  0  0  0
   46.6380   34.6966   42.5561 H   0  0  0  0  0  0  0  0  0  0  0  0
   44.5430   33.3977   48.0911 H   0  0  0  0  0  0  0  0  0  0  0  0
   44.4777   31.7144   47.6451 H   0  0  0  0  0  0  0  0  0  0  0  0
   46.3011   33.1057   49.5528 H   0  0  0  0  0  0  0  0  0  0  0  0
   46.0190   31.3565   49.3999 H   0  0  0  0  0  0  0  0  0  0  0  0
   48.1664   33.0417   48.2228 H   0  0  0  0  0  0  0  0  0  0  0  0
   48.1732   31.3110   48.4650 H   0  0  0  0  0  0  0  0  0  0  0  0
   47.8538   32.1987   45.9041 H   0  0  0  0  0  0  0  0  0  0  0  0
   45.2151   36.7924   41.8959 H   0  0  0  0  0  0  0  0  0  0  0  0
   44.0333   37.4296   43.0705 H   0  0  0  0  0  0  0  0  0  0  0  0
   50.9089   30.3141   44.6013 H   0  0  0  0  0  0  0  0  0  0  0  0
   49.6808   30.4311   42.5994 H   0  0  0  0  0  0  0  0  0  0  0  0
   49.0059   28.7912   42.9968 H   0  0  0  0  0  0  0  0  0  0  0  0
   48.6354   31.3463   44.5753 H   0  0  0  0  0  0  0  0  0  0  0  0
   47.4097   30.4948   43.5690 H   0  0  0  0  0  0  0  0  0  0  0  0
   47.5537   28.5417   44.9779 H   0  0  0  0  0  0  0  0  0  0  0  0
   49.6052   30.1496   46.5734 H   0  0  0  0  0  0  0  0  0  0  0  0
   48.9427   28.5694   47.0508 H   0  0  0  0  0  0  0  0  0  0  0  0
   49.7404   27.6129   44.8421 H   0  0  0  0  0  0  0  0  0  0  0  0
   51.0898   28.2459   45.8342 H   0  0  0  0  0  0  0  0  0  0  0  0
  1  6  2  0
  2  1  1  0
  3  2  2  0
  3  4  1  0
  4  5  2  0
  5  6  1  0
  5  7  1  0
  7 11  1  0
  7  8  1  0
  8  9  1  0
 10  9  1  0
 11 10  1  0
 12  2  1  0
 13 11  1  0
 14 19  1  0
 15 14  1  0
 15 16  1  0
 16 17  1  0
 17 18  1  0
 17 13  1  0
 19 18  1  0
  1 20  1  0
  3 21  1  0
  8 22  1  0
  8 23  1  0
  9 24  1  0
  9 25  1  0
 10 26  1  0
 10 27  1  0
 11 28  1  6
 12 29  1  0
 12 30  1  0
 14 31  1  0
 15 32  1  0
 15 33  1  0
 16 34  1  0
 16 35  1  0
 17 36  1  0
 18 37  1  0
 18 38  1  0
 19 39  1  0
 19 40  1  0
M  ISO  8  20  14  21  14  22  13  23  13  24  13  25  13  26  13  27  13
M  ISO  8  28  13  31   5  32  13  33  13  34  13  35  13  36  13  37  13
M  ISO  3  38  13  39  13  40  13
M  END
>  <minimizedAffinity>  (1) 
-5.09101629

>  <minimizedRMSD>  (1) 
2.30203199

$$$$
