
     RDKit          3D

 32 34  0  0  1  0  0  0  0  0999 V2000
   44.4850   35.6240   45.0840 C   0  0  0  0  0  0  0  0  0  0  0  0
   45.1330   35.5930   43.8400 C   0  0  0  0  0  0  0  0  0  0  0  0
   46.0590   34.6190   43.5840 C   0  0  0  0  0  0  0  0  0  0  0  0
   46.2880   33.7310   44.5810 N   0  0  0  0  0  0  0  0  0  0  0  0
   45.6730   33.7600   45.7590 C   0  0  0  0  0  0  0  0  0  0  0  0
   44.7590   34.7060   46.0390 N   0  0  0  0  0  0  0  0  0  0  0  0
   46.0100   32.7640   46.7100 N   0  0  0  0  0  0  0  0  0  0  0  0
   45.2150   32.4720   47.9090 C   0  0  0  0  0  0  0  0  0  0  0  0
   46.2890   32.1670   48.9310 C   0  0  0  0  0  0  0  0  0  0  0  0
   47.5820   32.0360   48.1750 C   0  0  0  0  0  0  0  0  0  0  0  0
   47.1150   31.8520   46.7560 C   0  0  1  0  0  0  0  0  0  0  0  0
   44.7680   36.6150   42.8940 N   0  0  0  0  0  0  0  0  0  0  0  0
   46.6020   30.1280   46.5050 S   0  0  0  0  0  0  0  0  0  0  0  0
   45.4740   29.8720   45.2680 C   0  0  0  0  0  0  0  0  0  0  0  0
   45.2060   30.3310   43.9560 C   0  0  0  0  0  0  0  0  0  0  0  0
   44.1490   29.8690   43.2300 C   0  0  0  0  0  0  0  0  0  0  0  0
   43.2780   28.8460   43.8890 C   0  0  0  0  0  0  0  0  0  0  0  0
   44.0940   28.6280   45.5700 S   0  0  0  0  0  0  0  0  0  0  0  0
   43.7410   36.4086   45.2863 H   0  0  0  0  0  0  0  0  0  0  0  0
   46.5884   34.5602   42.6216 H   0  0  0  0  0  0  0  0  0  0  0  0
   44.6117   33.3411   48.2102 H   0  0  0  0  0  0  0  0  0  0  0  0
   44.4883   31.6576   47.7723 H   0  0  0  0  0  0  0  0  0  0  0  0
   46.3591   32.9854   49.6626 H   0  0  0  0  0  0  0  0  0  0  0  0
   46.0586   31.2437   49.4827 H   0  0  0  0  0  0  0  0  0  0  0  0
   48.1953   32.9435   48.2768 H   0  0  0  0  0  0  0  0  0  0  0  0
   48.2189   31.2150   48.5361 H   0  0  0  0  0  0  0  0  0  0  0  0
   47.8658   32.0448   45.9755 H   0  0  0  0  0  0  0  0  0  0  0  0
   45.2126   36.6396   41.9652 H   0  0  0  0  0  0  0  0  0  0  0  0
   44.0622   37.3216   43.1459 H   0  0  0  0  0  0  0  0  0  0  0  0
   45.8715   31.0839   43.5085 H   0  0  0  0  0  0  0  0  0  0  0  0
   43.9464   30.2300   42.2109 H   0  0  0  0  0  0  0  0  0  0  0  0
   42.3833   28.3459   43.4898 H   0  0  0  0  0  0  0  0  0  0  0  0
  1  6  2  0
  2  1  1  0
  3  2  2  0
  3  4  1  0
  4  5  2  0
  5  6  1  0
  5  7  1  0
  7 11  1  0
  7  8  1  0
  8  9  1  0
 10  9  1  0
 11 10  1  0
 12  2  1  0
 13 11  1  0
 14 18  1  0
 14 13  1  0
 15 14  2  0
 16 17  2  0
 16 15  1  0
 17 18  1  0
  1 19  1  0
  3 20  1  0
  8 21  1  0
  8 22  1  0
  9 23  1  0
  9 24  1  0
 10 25  1  0
 10 26  1  0
 11 27  1  6
 12 28  1  0
 12 29  1  0
 15 30  1  0
 16 31  1  0
 17 32  1  0
M  ISO  8  19  14  20  14  21  13  22  13  23  13  24  13  25  13  26  13
M  ISO  4  27  13  30  14  31  14  32  14
M  END
>  <minimizedAffinity>  (1) 
-5.05118895

>  <minimizedRMSD>  (1) 
0.598697305

$$$$
