
     RDKit          3D

 28 29  0  0  1  0  0  0  0  0999 V2000
   44.4810   35.7460   44.9870 C   0  0  0  0  0  0  0  0  0  0  0  0
   45.1340   35.7180   43.7450 C   0  0  0  0  0  0  0  0  0  0  0  0
   46.0380   34.7310   43.5010 C   0  0  0  0  0  0  0  0  0  0  0  0
   46.2620   33.8210   44.4780 N   0  0  0  0  0  0  0  0  0  0  0  0
   45.6300   33.8640   45.6580 C   0  0  0  0  0  0  0  0  0  0  0  0
   44.7350   34.8160   45.9370 N   0  0  0  0  0  0  0  0  0  0  0  0
   45.9430   32.8590   46.6110 N   0  0  0  0  0  0  0  0  0  0  0  0
   45.1440   32.5690   47.8110 C   0  0  0  0  0  0  0  0  0  0  0  0
   46.2350   32.2650   48.8300 C   0  0  0  0  0  0  0  0  0  0  0  0
   47.5290   32.1160   48.0650 C   0  0  0  0  0  0  0  0  0  0  0  0
   47.0400   31.9290   46.6530 C   0  0  1  0  0  0  0  0  0  0  0  0
   44.7530   36.7760   42.8590 N   0  0  0  0  0  0  0  0  0  0  0  0
   46.5170   30.2260   46.4290 S   0  0  0  0  0  0  0  0  0  0  0  0
   45.9460   29.8600   44.7710 C   0  0  0  0  0  0  0  0  0  0  0  0
   45.2890   28.6220   44.7950 F   0  0  0  0  0  0  0  0  0  0  0  0
   47.0670   29.7180   43.9570 F   0  0  0  0  0  0  0  0  0  0  0  0
   45.0660   30.7820   44.2640 F   0  0  0  0  0  0  0  0  0  0  0  0
   43.7479   36.5399   45.1925 H   0  0  0  0  0  0  0  0  0  0  0  0
   46.5702   34.6742   42.5400 H   0  0  0  0  0  0  0  0  0  0  0  0
   44.5415   33.4383   48.1134 H   0  0  0  0  0  0  0  0  0  0  0  0
   44.4119   31.7586   47.6796 H   0  0  0  0  0  0  0  0  0  0  0  0
   46.3169   33.0903   49.5526 H   0  0  0  0  0  0  0  0  0  0  0  0
   46.0031   31.3466   49.3893 H   0  0  0  0  0  0  0  0  0  0  0  0
   48.1526   33.0176   48.1556 H   0  0  0  0  0  0  0  0  0  0  0  0
   48.1648   31.2942   48.4260 H   0  0  0  0  0  0  0  0  0  0  0  0
   47.7791   32.1094   45.8585 H   0  0  0  0  0  0  0  0  0  0  0  0
   45.1772   36.8415   41.9227 H   0  0  0  0  0  0  0  0  0  0  0  0
   44.0547   37.4717   43.1579 H   0  0  0  0  0  0  0  0  0  0  0  0
  1  6  2  0
  2  1  1  0
  3  2  2  0
  3  4  1  0
  4  5  2  0
  5  6  1  0
  5  7  1  0
  7 11  1  0
  7  8  1  0
  8  9  1  0
 10  9  1  0
 11 10  1  0
 12  2  1  0
 13 11  1  0
 14 15  1  0
 14 13  1  0
 16 14  1  0
 17 14  1  0
  1 18  1  0
  3 19  1  0
  8 20  1  0
  8 21  1  0
  9 22  1  0
  9 23  1  0
 10 24  1  0
 10 25  1  0
 11 26  1  6
 12 27  1  0
 12 28  1  0
M  ISO  8  18  14  19  14  20  13  21  13  22  13  23  13  24  13  25  13
M  ISO  1  26  13
M  END
>  <minimizedAffinity>  (1) 
-4.808002

>  <minimizedRMSD>  (1) 
0.309352785

$$$$
