
     RDKit          3D

 51 54  0  0  1  0  0  0  0  0999 V2000
   45.2780   30.5150   43.6280 O   0  0  0  0  0  0  0  0  0  0  0  0
   44.8070   29.8960   44.6000 C   0  0  0  0  0  0  0  0  0  0  0  0
   45.1320   29.5930   46.0110 C   0  0  1  0  0  0  0  0  0  0  0  0
   44.6720   28.1600   46.1220 C   0  0  0  0  0  0  0  0  0  0  0  0
   43.2580   28.3500   45.5740 C   0  0  0  0  0  0  0  0  0  0  0  0
   43.5480   29.2110   44.4330 N   0  0  0  0  0  0  0  0  0  0  0  0
   41.2880   29.1680   43.6040 C   0  0  0  0  0  0  0  0  0  0  0  0
   42.6210   29.2850   43.3440 C   0  0  0  0  0  0  0  0  0  0  0  0
   43.0960   29.4770   42.0590 C   0  0  0  0  0  0  0  0  0  0  0  0
   42.2350   29.5560   41.0020 C   0  0  0  0  0  0  0  0  0  0  0  0
   40.8790   29.4420   41.2250 C   0  0  0  0  0  0  0  0  0  0  0  0
   40.4380   29.2510   42.5190 C   0  0  0  0  0  0  0  0  0  0  0  0
   40.3350   30.0120   45.5890 N   0  0  0  0  0  0  0  0  0  0  0  0
   40.7080   28.9620   44.9250 C   0  0  0  0  0  0  0  0  0  0  0  0
   40.4940   27.7210   45.5860 N   0  0  0  0  0  0  0  0  0  0  0  0
   39.9130   29.8990   46.5360 H   0  0  0  0  0  0  0  0  0  0  0  0
   46.7620   29.9130   46.5510 S   0  0  0  0  0  0  0  0  0  0  0  0
   44.5190   35.3610   45.2130 C   0  0  0  0  0  0  0  0  0  0  0  0
   45.1950   35.3980   43.9820 C   0  0  0  0  0  0  0  0  0  0  0  0
   46.1440   34.4660   43.7170 C   0  0  0  0  0  0  0  0  0  0  0  0
   46.3850   33.5400   44.6770 N   0  0  0  0  0  0  0  0  0  0  0  0
   45.7410   33.5140   45.8360 C   0  0  0  0  0  0  0  0  0  0  0  0
   44.8020   34.4170   46.1250 N   0  0  0  0  0  0  0  0  0  0  0  0
   46.0750   32.4900   46.7870 N   0  0  0  0  0  0  0  0  0  0  0  0
   45.3110   32.1960   47.9590 C   0  0  0  0  0  0  0  0  0  0  0  0
   46.3760   31.8360   48.9750 C   0  0  0  0  0  0  0  0  0  0  0  0
   47.6730   31.8030   48.2410 C   0  0  0  0  0  0  0  0  0  0  0  0
   47.2190   31.6080   46.7920 C   0  0  1  0  0  0  0  0  0  0  0  0
   44.8320   36.4410   43.0610 N   0  0  0  0  0  0  0  0  0  0  0  0
   44.6320   30.2800   46.7097 H   0  0  0  0  0  0  0  0  0  0  0  0
   45.2724   27.4799   45.5000 H   0  0  0  0  0  0  0  0  0  0  0  0
   44.7466   27.7041   47.1203 H   0  0  0  0  0  0  0  0  0  0  0  0
   42.8082   27.3957   45.2626 H   0  0  0  0  0  0  0  0  0  0  0  0
   42.5315   28.7580   46.2921 H   0  0  0  0  0  0  0  0  0  0  0  0
   44.1787   29.5670   41.8868 H   0  0  0  0  0  0  0  0  0  0  0  0
   42.6194   29.7091   39.9828 H   0  0  0  0  0  0  0  0  0  0  0  0
   40.1648   29.5019   40.3905 H   0  0  0  0  0  0  0  0  0  0  0  0
   39.3559   29.1604   42.6945 H   0  0  0  0  0  0  0  0  0  0  0  0
   40.0727   27.7040   46.5258 H   0  0  0  0  0  0  0  0  0  0  0  0
   40.7603   26.8393   45.1249 H   0  0  0  0  0  0  0  0  0  0  0  0
   43.7484   36.1147   45.4324 H   0  0  0  0  0  0  0  0  0  0  0  0
   46.6941   34.4618   42.7645 H   0  0  0  0  0  0  0  0  0  0  0  0
   44.7331   33.0733   48.2852 H   0  0  0  0  0  0  0  0  0  0  0  0
   44.5693   31.3983   47.8056 H   0  0  0  0  0  0  0  0  0  0  0  0
   46.4107   32.5928   49.7725 H   0  0  0  0  0  0  0  0  0  0  0  0
   46.1624   30.8650   49.4456 H   0  0  0  0  0  0  0  0  0  0  0  0
   48.2244   32.7470   48.3627 H   0  0  0  0  0  0  0  0  0  0  0  0
   48.3623   31.0230   48.5968 H   0  0  0  0  0  0  0  0  0  0  0  0
   47.9553   31.8217   46.0032 H   0  0  0  0  0  0  0  0  0  0  0  0
   45.3013   36.5069   42.1465 H   0  0  0  0  0  0  0  0  0  0  0  0
   44.1027   37.1222   43.3158 H   0  0  0  0  0  0  0  0  0  0  0  0
  1  2  2  0
  2  3  1  0
  3  4  1  0
  3 17  1  0
  5  4  1  0
  6  2  1  0
  6  5  1  0
  7 14  1  0
  8  7  2  0
  8  6  1  0
  9  8  1  0
 10 11  1  0
 10  9  2  0
 11 12  2  0
 12  7  1  0
 13 16  1  0
 14 15  1  0
 14 13  2  0
 17 28  1  0
 18 23  2  0
 19 18  1  0
 20 19  2  0
 20 21  1  0
 21 22  2  0
 22 23  1  0
 22 24  1  0
 24 28  1  0
 24 25  1  0
 25 26  1  0
 27 26  1  0
 28 27  1  0
 29 19  1  0
  3 30  1  1
  4 31  1  0
  4 32  1  0
  5 33  1  0
  5 34  1  0
  9 35  1  0
 10 36  1  0
 11 37  1  0
 12 38  1  0
 15 39  1  0
 15 40  1  0
 18 41  1  0
 20 42  1  0
 25 43  1  0
 25 44  1  0
 26 45  1  0
 26 46  1  0
 27 47  1  0
 27 48  1  0
 28 49  1  6
 29 50  1  0
 29 51  1  0
M  ISO  8  30  13  31  13  32  13  33  13  34  13  35  14  36  14  37  14
M  ISO  8  38  14  41  14  42  14  43  13  44  13  45  13  46  13  47  13
M  ISO  2  48  13  49  13
M  END
>  <minimizedAffinity>  (1) 
-6.0998621

>  <minimizedRMSD>  (1) 
0.636980116

$$$$
