
     RDKit          3D

 48 51  0  0  1  0  0  0  0  0999 V2000
   44.5030   35.5360   45.1350 C   0  0  0  0  0  0  0  0  0  0  0  0
   45.1550   35.5240   43.8830 C   0  0  0  0  0  0  0  0  0  0  0  0
   46.0720   34.5630   43.6270 C   0  0  0  0  0  0  0  0  0  0  0  0
   46.3140   33.6530   44.6060 N   0  0  0  0  0  0  0  0  0  0  0  0
   45.6990   33.6720   45.7780 C   0  0  0  0  0  0  0  0  0  0  0  0
   44.7900   34.6070   46.0570 N   0  0  0  0  0  0  0  0  0  0  0  0
   46.0270   32.6640   46.7490 N   0  0  0  0  0  0  0  0  0  0  0  0
   45.2830   32.4220   47.9390 C   0  0  0  0  0  0  0  0  0  0  0  0
   46.3580   32.0630   48.9460 C   0  0  0  0  0  0  0  0  0  0  0  0
   47.6400   31.9700   48.1830 C   0  0  0  0  0  0  0  0  0  0  0  0
   47.1440   31.7510   46.7510 C   0  0  1  0  0  0  0  0  0  0  0  0
   44.8050   36.5420   42.9340 N   0  0  0  0  0  0  0  0  0  0  0  0
   46.6300   30.0630   46.5680 S   0  0  0  0  0  0  0  0  0  0  0  0
   45.7530   30.5400   43.3920 O   0  0  0  0  0  0  0  0  0  0  0  0
   45.0800   29.9980   44.2860 C   0  0  0  0  0  0  0  0  0  0  0  0
   45.1110   29.7720   45.7560 C   0  0  1  0  0  0  0  0  0  0  0  0
   44.5740   28.3690   45.8530 C   0  0  0  0  0  0  0  0  0  0  0  0
   43.2900   28.5860   45.0450 C   0  0  0  0  0  0  0  0  0  0  0  0
   43.8470   29.3400   43.9260 N   0  0  0  0  0  0  0  0  0  0  0  0
   42.1400   28.3470   42.5530 N   0  0  0  0  0  0  0  0  0  0  0  0
   41.5470   28.6880   41.2480 C   0  0  0  0  0  0  0  0  0  0  0  0
   41.4790   30.2180   41.2600 C   0  0  0  0  0  0  0  0  0  0  0  0
   42.3330   30.6060   42.4590 C   0  0  0  0  0  0  0  0  0  0  0  0
   43.1500   29.3530   42.6440 C   0  0  1  0  0  0  0  0  0  0  0  0
   43.7553   36.3122   45.3549 H   0  0  0  0  0  0  0  0  0  0  0  0
   46.6011   34.5202   42.6636 H   0  0  0  0  0  0  0  0  0  0  0  0
   44.7332   33.3221   48.2515 H   0  0  0  0  0  0  0  0  0  0  0  0
   44.5200   31.6384   47.8215 H   0  0  0  0  0  0  0  0  0  0  0  0
   46.4311   32.8430   49.7182 H   0  0  0  0  0  0  0  0  0  0  0  0
   46.1272   31.1146   49.4533 H   0  0  0  0  0  0  0  0  0  0  0  0
   48.2228   32.8992   48.2662 H   0  0  0  0  0  0  0  0  0  0  0  0
   48.3144   31.1796   48.5442 H   0  0  0  0  0  0  0  0  0  0  0  0
   47.8668   31.9225   45.9397 H   0  0  0  0  0  0  0  0  0  0  0  0
   45.2607   36.5638   42.0105 H   0  0  0  0  0  0  0  0  0  0  0  0
   44.0981   37.2508   43.1763 H   0  0  0  0  0  0  0  0  0  0  0  0
   44.5166   30.5132   46.3104 H   0  0  0  0  0  0  0  0  0  0  0  0
   45.2430   27.6319   45.3850 H   0  0  0  0  0  0  0  0  0  0  0  0
   44.4471   27.9661   46.8687 H   0  0  0  0  0  0  0  0  0  0  0  0
   42.8423   27.6354   44.7194 H   0  0  0  0  0  0  0  0  0  0  0  0
   42.4694   29.0801   45.5858 H   0  0  0  0  0  0  0  0  0  0  0  0
   42.5444   27.3997   42.5521 H   0  0  0  0  0  0  0  0  0  0  0  0
   40.5416   28.2527   41.1497 H   0  0  0  0  0  0  0  0  0  0  0  0
   42.1317   28.2969   40.4023 H   0  0  0  0  0  0  0  0  0  0  0  0
   41.8933   30.6367   40.3310 H   0  0  0  0  0  0  0  0  0  0  0  0
   40.4494   30.5991   41.3279 H   0  0  0  0  0  0  0  0  0  0  0  0
   42.9699   31.4751   42.2376 H   0  0  0  0  0  0  0  0  0  0  0  0
   41.7589   30.9095   43.3468 H   0  0  0  0  0  0  0  0  0  0  0  0
   43.9636   29.2284   41.9142 H   0  0  0  0  0  0  0  0  0  0  0  0
  1  6  2  0
  2  1  1  0
  3  2  2  0
  3  4  1  0
  4  5  2  0
  5  6  1  0
  5  7  1  0
  7 11  1  0
  7  8  1  0
  8  9  1  0
 10  9  1  0
 11 10  1  0
 12  2  1  0
 13 11  1  0
 14 15  2  0
 15 16  1  0
 16 17  1  0
 16 13  1  0
 18 17  1  0
 19 15  1  0
 19 18  1  0
 20 24  1  0
 21 22  1  0
 21 20  1  0
 22 23  1  0
 24 23  1  0
 24 19  1  0
  1 25  1  0
  3 26  1  0
  8 27  1  0
  8 28  1  0
  9 29  1  0
  9 30  1  0
 10 31  1  0
 10 32  1  0
 11 33  1  6
 12 34  1  0
 12 35  1  0
 16 36  1  1
 17 37  1  0
 17 38  1  0
 18 39  1  0
 18 40  1  0
 20 41  1  0
 21 42  1  0
 21 43  1  0
 22 44  1  0
 22 45  1  0
 23 46  1  0
 23 47  1  0
 24 48  1  6
M  ISO  8  25  14  26  14  27  13  28  13  29  13  30  13  31  13  32  13
M  ISO  8  33  13  36  13  37  13  38  13  39  13  40  13  41   5  42  13
M  ISO  6  43  13  44  13  45  13  46  13  47  13  48  13
M  END
>  <minimizedAffinity>  (1) 
-5.30150223

>  <minimizedRMSD>  (1) 
0.18209964

$$$$
