
     RDKit          3D

 28 30  0  0  0  0  0  0  0  0999 V2000
   45.0880   35.3320   44.0660 C   0  0  0  0  0  0  0  0  0  0  0  0
   44.8570   36.5360   44.3830 O   0  0  0  0  0  0  0  0  0  0  0  0
   45.1680   34.6920   42.7570 C   0  0  0  0  0  0  0  0  0  0  0  0
   44.1000   33.9740   42.2450 C   0  0  0  0  0  0  0  0  0  0  0  0
   44.1390   33.3560   41.0130 C   0  0  0  0  0  0  0  0  0  0  0  0
   45.2740   33.4360   40.2310 C   0  0  0  0  0  0  0  0  0  0  0  0
   46.3540   34.1400   40.7050 C   0  0  0  0  0  0  0  0  0  0  0  0
   47.4940   34.2270   39.9320 C   0  0  0  0  0  0  0  0  0  0  0  0
   48.6010   34.9220   40.3650 C   0  0  0  0  0  0  0  0  0  0  0  0
   48.5340   35.5290   41.6010 C   0  0  0  0  0  0  0  0  0  0  0  0
   47.3800   35.4270   42.3570 C   0  0  0  0  0  0  0  0  0  0  0  0
   46.2720   34.7420   41.9420 C   0  0  0  0  0  0  0  0  0  0  0  0
   44.6770   34.5550   46.3540 C   0  0  0  0  0  0  0  0  0  0  0  0
   45.3200   34.3960   45.1300 C   0  0  0  0  0  0  0  0  0  0  0  0
   46.1770   33.3200   44.9760 C   0  0  0  0  0  0  0  0  0  0  0  0
   46.3540   32.4640   46.0280 N   0  0  0  0  0  0  0  0  0  0  0  0
   45.7130   32.6480   47.2070 C   0  0  0  0  0  0  0  0  0  0  0  0
   44.8840   33.6910   47.3520 N   0  0  0  0  0  0  0  0  0  0  0  0
   43.1824   33.8934   42.8463 H   0  0  0  0  0  0  0  0  0  0  0  0
   43.2629   32.7974   40.6520 H   0  0  0  0  0  0  0  0  0  0  0  0
   45.3127   32.9454   39.2472 H   0  0  0  0  0  0  0  0  0  0  0  0
   47.5188   33.7312   38.9504 H   0  0  0  0  0  0  0  0  0  0  0  0
   49.5077   34.9905   39.7460 H   0  0  0  0  0  0  0  0  0  0  0  0
   49.3965   36.0933   41.9853 H   0  0  0  0  0  0  0  0  0  0  0  0
   47.3525   35.9209   43.3395 H   0  0  0  0  0  0  0  0  0  0  0  0
   43.9905   35.4017   46.5015 H   0  0  0  0  0  0  0  0  0  0  0  0
   46.7058   33.1564   44.0254 H   0  0  0  0  0  0  0  0  0  0  0  0
   45.8717   31.9465   48.0393 H   0  0  0  0  0  0  0  0  0  0  0  0
  1  2  2  0
  1 14  1  0
  3  1  1  0
  4  3  2  0
  5  4  1  0
  6  7  1  0
  6  5  2  0
  7 12  2  0
  8  9  2  0
  8  7  1  0
  9 10  1  0
 10 11  2  0
 12 11  1  0
 12  3  1  0
 13 18  2  0
 14 13  1  0
 15 14  2  0
 15 16  1  0
 16 17  2  0
 17 18  1  0
  4 19  1  0
  5 20  1  0
  6 21  1  0
  8 22  1  0
  9 23  1  0
 10 24  1  0
 11 25  1  0
 13 26  1  0
 15 27  1  0
 17 28  1  0
M  ISO  8  19  14  20  14  21  14  22  14  23  14  24  14  25  14  26  14
M  ISO  2  27  14  28  14
M  END
>  <minimizedAffinity>  (1) 
-5.47864485

>  <minimizedRMSD>  (1) 
3.36322069

$$$$
