
     RDKit          3D

 39 42  0  0  1  0  0  0  0  0999 V2000
   49.6130   33.5120   41.4800 N   0  0  0  0  0  0  0  0  0  0  0  0
   50.7450   33.1040   42.2680 C   0  0  0  0  0  0  0  0  0  0  0  0
   51.3130   31.7780   41.8730 C   0  0  0  0  0  0  0  0  0  0  0  0
   50.3020   30.7090   42.2050 C   0  0  0  0  0  0  0  0  0  0  0  0
   48.9100   31.1910   41.9040 C   0  0  0  0  0  0  0  0  0  0  0  0
   48.9110   32.3450   40.9620 C   0  0  2  0  0  0  0  0  0  0  0  0
   47.3800   34.7080   41.9770 C   0  0  1  0  0  0  0  0  0  0  0  0
   48.4300   35.6650   41.7110 C   0  0  0  0  0  0  0  0  0  0  0  0
   48.8150   34.3490   42.3330 C   0  0  2  0  0  0  0  0  0  0  0  0
   45.5760   36.0340   43.1410 C   0  0  0  0  0  0  0  0  0  0  0  0
   46.4220   34.8970   43.0890 C   0  0  0  0  0  0  0  0  0  0  0  0
   46.3130   33.9800   44.1170 C   0  0  0  0  0  0  0  0  0  0  0  0
   45.4060   34.2250   45.1080 N   0  0  0  0  0  0  0  0  0  0  0  0
   44.6150   35.3160   45.1310 C   0  0  0  0  0  0  0  0  0  0  0  0
   44.6920   36.2360   44.1430 N   0  0  0  0  0  0  0  0  0  0  0  0
   49.1150   32.0730   39.5230 C   0  0  0  0  0  0  0  0  0  0  0  0
   48.0770   32.6670   38.5470 C   0  0  0  0  0  0  0  0  0  0  0  0
   48.3170   31.2210   38.6510 C   0  0  0  0  0  0  0  0  0  0  0  0
   51.5331   33.8639   42.1612 H   0  0  0  0  0  0  0  0  0  0  0  0
   50.3922   33.0037   43.3051 H   0  0  0  0  0  0  0  0  0  0  0  0
   52.2449   31.5930   42.4274 H   0  0  0  0  0  0  0  0  0  0  0  0
   51.5342   31.7674   40.7955 H   0  0  0  0  0  0  0  0  0  0  0  0
   50.5126   29.8120   41.6041 H   0  0  0  0  0  0  0  0  0  0  0  0
   50.3730   30.4718   43.2768 H   0  0  0  0  0  0  0  0  0  0  0  0
   48.3379   30.3660   41.4545 H   0  0  0  0  0  0  0  0  0  0  0  0
   48.4537   31.5232   42.8481 H   0  0  0  0  0  0  0  0  0  0  0  0
   47.8453   32.6165   40.9368 H   0  0  0  0  0  0  0  0  0  0  0  0
   46.5837   34.2765   41.3527 H   0  0  0  0  0  0  0  0  0  0  0  0
   48.7190   35.8811   40.6719 H   0  0  0  0  0  0  0  0  0  0  0  0
   48.5935   36.7179   41.9841 H   0  0  0  0  0  0  0  0  0  0  0  0
   49.2889   33.9606   43.2465 H   0  0  0  0  0  0  0  0  0  0  0  0
   45.6419   36.7798   42.3351 H   0  0  0  0  0  0  0  0  0  0  0  0
   46.9403   33.0766   44.1365 H   0  0  0  0  0  0  0  0  0  0  0  0
   43.9033   35.4587   45.9575 H   0  0  0  0  0  0  0  0  0  0  0  0
   50.1957   32.0857   39.7279 H   0  0  0  0  0  0  0  0  0  0  0  0
   48.4055   33.2225   37.6562 H   0  0  0  0  0  0  0  0  0  0  0  0
   47.2043   33.3315   38.6291 H   0  0  0  0  0  0  0  0  0  0  0  0
   47.5417   30.5755   39.0896 H   0  0  0  0  0  0  0  0  0  0  0  0
   48.5711   30.4425   37.9166 H   0  0  0  0  0  0  0  0  0  0  0  0
  1  2  1  0
  1  9  1  0
  3  4  1  0
  3  2  1  0
  5  4  1  0
  6  1  1  0
  6  5  1  0
  7  9  1  0
  7 11  1  0
  8  7  1  0
  8  9  1  0
 10 15  2  0
 11 10  1  0
 11 12  2  0
 12 13  1  0
 13 14  2  0
 15 14  1  0
 16  6  1  0
 17 18  1  0
 17 16  1  0
 18 16  1  0
  2 19  1  0
  2 20  1  0
  3 21  1  0
  3 22  1  0
  4 23  1  0
  4 24  1  0
  5 25  1  0
  5 26  1  0
  6 27  1  6
  7 28  1  6
  8 29  1  0
  8 30  1  0
  9 31  1  1
 10 32  1  0
 12 33  1  0
 14 34  1  0
 16 35  1  0
 17 36  1  0
 17 37  1  0
 18 38  1  0
 18 39  1  0
M  ISO  8  19  13  20  13  21  13  22  13  23  13  24  13  25  13  26  13
M  ISO  8  27  13  28  13  29  13  30  13  31  13  32  14  33  14  34  14
M  ISO  5  35  13  36  13  37  13  38  13  39  13
M  END
>  <minimizedAffinity>  (1) 
-4.62674999

>  <minimizedRMSD>  (1) 
0.513542473

$$$$
