
     RDKit          3D

 39 42  0  0  1  0  0  0  0  0999 V2000
   49.5780   33.4640   41.4330 N   0  0  0  0  0  0  0  0  0  0  0  0
   50.7250   33.0690   42.2140 C   0  0  0  0  0  0  0  0  0  0  0  0
   51.2930   31.7380   41.8780 C   0  0  0  0  0  0  0  0  0  0  0  0
   50.2870   30.6650   42.1960 C   0  0  0  0  0  0  0  0  0  0  0  0
   48.8920   31.1290   41.9340 C   0  0  0  0  0  0  0  0  0  0  0  0
   48.8830   32.2780   40.9840 C   0  0  2  0  0  0  0  0  0  0  0  0
   49.0700   31.9500   39.5640 C   0  0  0  0  0  0  0  0  0  0  0  0
   48.0300   31.6860   38.6580 C   0  0  0  0  0  0  0  0  0  0  0  0
   48.4950   31.4180   37.3890 C   0  0  0  0  0  0  0  0  0  0  0  0
   49.8230   31.5270   37.5600 N   0  0  0  0  0  0  0  0  0  0  0  0
   50.1540   31.8260   38.7770 N   0  0  0  0  0  0  0  0  0  0  0  0
   47.3540   34.6560   41.9520 C   0  0  1  0  0  0  0  0  0  0  0  0
   48.4230   35.6370   41.7080 C   0  0  0  0  0  0  0  0  0  0  0  0
   48.7770   34.3070   42.2640 C   0  0  2  0  0  0  0  0  0  0  0  0
   45.5700   36.0180   43.1110 C   0  0  0  0  0  0  0  0  0  0  0  0
   46.4090   34.8770   43.0710 C   0  0  0  0  0  0  0  0  0  0  0  0
   46.3120   33.9580   44.1240 C   0  0  0  0  0  0  0  0  0  0  0  0
   45.4190   34.2120   45.1270 N   0  0  0  0  0  0  0  0  0  0  0  0
   44.6340   35.3180   45.1300 C   0  0  0  0  0  0  0  0  0  0  0  0
   44.7020   36.2330   44.1210 N   0  0  0  0  0  0  0  0  0  0  0  0
   51.5129   33.8221   42.0658 H   0  0  0  0  0  0  0  0  0  0  0  0
   50.3749   32.9969   43.2543 H   0  0  0  0  0  0  0  0  0  0  0  0
   52.2061   31.5701   42.4679 H   0  0  0  0  0  0  0  0  0  0  0  0
   51.5361   31.7047   40.8057 H   0  0  0  0  0  0  0  0  0  0  0  0
   50.4942   29.7840   41.5708 H   0  0  0  0  0  0  0  0  0  0  0  0
   50.3734   30.4159   43.2639 H   0  0  0  0  0  0  0  0  0  0  0  0
   48.3119   30.3001   41.5022 H   0  0  0  0  0  0  0  0  0  0  0  0
   48.4459   31.4558   42.8849 H   0  0  0  0  0  0  0  0  0  0  0  0
   47.8250   32.5775   41.0163 H   0  0  0  0  0  0  0  0  0  0  0  0
   46.9644   31.6924   38.9307 H   0  0  0  0  0  0  0  0  0  0  0  0
   47.9286   31.1782   36.4770 H   0  0  0  0  0  0  0  0  0  0  0  0
   50.5071   31.3875   36.8027 H   0  0  0  0  0  0  0  0  0  0  0  0
   46.5571   34.2086   41.3398 H   0  0  0  0  0  0  0  0  0  0  0  0
   48.7068   35.8923   40.6763 H   0  0  0  0  0  0  0  0  0  0  0  0
   48.6028   36.6768   42.0186 H   0  0  0  0  0  0  0  0  0  0  0  0
   49.2606   33.8918   43.1605 H   0  0  0  0  0  0  0  0  0  0  0  0
   45.6282   36.7513   42.2931 H   0  0  0  0  0  0  0  0  0  0  0  0
   46.9390   33.0544   44.1430 H   0  0  0  0  0  0  0  0  0  0  0  0
   43.9307   35.4797   45.9602 H   0  0  0  0  0  0  0  0  0  0  0  0
  1  2  1  0
  1 14  1  0
  3  4  1  0
  3  2  1  0
  5  4  1  0
  6  1  1  0
  6  5  1  0
  7  6  1  0
  8  7  1  0
  9 10  1  0
  9  8  2  0
 10 11  1  0
 11  7  2  0
 12 14  1  0
 12 16  1  0
 13 12  1  0
 13 14  1  0
 15 20  2  0
 16 15  1  0
 16 17  2  0
 17 18  1  0
 18 19  2  0
 20 19  1  0
  2 21  1  0
  2 22  1  0
  3 23  1  0
  3 24  1  0
  4 25  1  0
  4 26  1  0
  5 27  1  0
  5 28  1  0
  6 29  1  6
  8 30  1  0
  9 31  1  0
 10 32  1  0
 12 33  1  6
 13 34  1  0
 13 35  1  0
 14 36  1  1
 15 37  1  0
 17 38  1  0
 19 39  1  0
M  ISO  8  21  13  22  13  23  13  24  13  25  13  26  13  27  13  28  13
M  ISO  8  29  13  30  14  31  14  32   9  33  13  34  13  35  13  36  13
M  ISO  3  37  14  38  14  39  14
M  END
>  <minimizedAffinity>  (1) 
-4.88743067

>  <minimizedRMSD>  (1) 
0.70802778

$$$$
