
     RDKit          3D

 36 38  0  0  1  0  0  0  0  0999 V2000
   49.6500   33.6260   41.4110 N   0  0  0  0  0  0  0  0  0  0  0  0
   50.7080   33.0790   42.2280 C   0  0  0  0  0  0  0  0  0  0  0  0
   51.2520   31.7760   41.7460 C   0  0  0  0  0  0  0  0  0  0  0  0
   50.1720   30.7200   41.8760 C   0  0  0  0  0  0  0  0  0  0  0  0
   48.8230   31.2910   41.6010 C   0  0  0  0  0  0  0  0  0  0  0  0
   48.9500   32.5350   40.7620 C   0  0  2  0  0  0  0  0  0  0  0  0
   47.3960   34.7650   41.9430 C   0  0  1  0  0  0  0  0  0  0  0  0
   48.4600   35.7650   41.7540 C   0  0  0  0  0  0  0  0  0  0  0  0
   48.8170   34.4130   42.2540 C   0  0  2  0  0  0  0  0  0  0  0  0
   45.5680   36.0250   43.1320 C   0  0  0  0  0  0  0  0  0  0  0  0
   46.4420   34.9210   43.0700 C   0  0  0  0  0  0  0  0  0  0  0  0
   46.3700   33.9720   44.1020 C   0  0  0  0  0  0  0  0  0  0  0  0
   45.4650   34.1690   45.1050 N   0  0  0  0  0  0  0  0  0  0  0  0
   44.6420   35.2460   45.1270 C   0  0  0  0  0  0  0  0  0  0  0  0
   44.6900   36.1830   44.1370 N   0  0  0  0  0  0  0  0  0  0  0  0
   48.7670   33.1570   38.3720 C   0  0  0  0  0  0  0  0  0  0  0  0
   47.9490   34.1390   38.4390 O   0  0  0  0  0  0  0  0  0  0  0  0
   49.3220   32.3110   39.4020 N   0  0  0  0  0  0  0  0  0  0  0  0
   51.5325   33.8067   42.2546 H   0  0  0  0  0  0  0  0  0  0  0  0
   50.2705   32.8877   43.2190 H   0  0  0  0  0  0  0  0  0  0  0  0
   52.1233   31.4911   42.3540 H   0  0  0  0  0  0  0  0  0  0  0  0
   51.5635   31.8659   40.6949 H   0  0  0  0  0  0  0  0  0  0  0  0
   50.3725   29.9115   41.1576 H   0  0  0  0  0  0  0  0  0  0  0  0
   50.1836   30.3353   42.9065 H   0  0  0  0  0  0  0  0  0  0  0  0
   48.2165   30.5485   41.0617 H   0  0  0  0  0  0  0  0  0  0  0  0
   48.3388   31.5474   42.5548 H   0  0  0  0  0  0  0  0  0  0  0  0
   47.9145   32.8970   40.6799 H   0  0  0  0  0  0  0  0  0  0  0  0
   46.6078   34.3447   41.3011 H   0  0  0  0  0  0  0  0  0  0  0  0
   48.7526   36.0681   40.7379 H   0  0  0  0  0  0  0  0  0  0  0  0
   48.6289   36.7912   42.1122 H   0  0  0  0  0  0  0  0  0  0  0  0
   49.2860   33.9533   43.1364 H   0  0  0  0  0  0  0  0  0  0  0  0
   45.6057   36.7804   42.3333 H   0  0  0  0  0  0  0  0  0  0  0  0
   47.0275   33.0901   44.1025 H   0  0  0  0  0  0  0  0  0  0  0  0
   43.9264   35.3658   45.9538 H   0  0  0  0  0  0  0  0  0  0  0  0
   49.1058   32.9158   37.3536 H   0  0  0  0  0  0  0  0  0  0  0  0
   49.9782   31.5553   39.1586 H   0  0  0  0  0  0  0  0  0  0  0  0
  1  2  1  0
  1  9  1  0
  3  4  1  0
  3  2  1  0
  5  4  1  0
  6  1  1  0
  6  5  1  0
  7  9  1  0
  7 11  1  0
  8  7  1  0
  8  9  1  0
 10 15  2  0
 11 10  1  0
 11 12  2  0
 12 13  1  0
 13 14  2  0
 15 14  1  0
 16 17  2  0
 16 18  1  0
 18  6  1  0
  2 19  1  0
  2 20  1  0
  3 21  1  0
  3 22  1  0
  4 23  1  0
  4 24  1  0
  5 25  1  0
  5 26  1  0
  6 27  1  6
  7 28  1  6
  8 29  1  0
  8 30  1  0
  9 31  1  1
 10 32  1  0
 12 33  1  0
 14 34  1  0
 16 35  1  0
 18 36  1  0
M  ISO  8  19  13  20  13  21  13  22  13  23  13  24  13  25  13  26  13
M  ISO  8  27  13  28  13  29  13  30  13  31  13  32  14  33  14  34  14
M  ISO  1  35   6
M  END
>  <minimizedAffinity>  (1) 
-4.79845715

>  <minimizedRMSD>  (1) 
1.54259193

$$$$
