
     RDKit          3D

 25 26  0  0  0  0  0  0  0  0999 V2000
   45.9350   34.2950   40.9990 C   0  0  0  0  0  0  0  0  0  0  0  0
   46.5550   35.0360   41.9810 C   0  0  0  0  0  0  0  0  0  0  0  0
   47.8920   35.3580   41.8880 C   0  0  0  0  0  0  0  0  0  0  0  0
   48.5890   34.9150   40.7790 C   0  0  0  0  0  0  0  0  0  0  0  0
   47.9950   34.1690   39.7740 C   0  0  0  0  0  0  0  0  0  0  0  0
   46.6470   33.8620   39.8990 C   0  0  0  0  0  0  0  0  0  0  0  0
   44.2300   33.8980   41.1440 S   0  0  0  0  0  0  0  0  0  0  0  0
   43.8890   32.6410   40.4090 O   0  0  0  0  0  0  0  0  0  0  0  0
   43.4130   34.9990   40.5080 O   0  0  0  0  0  0  0  0  0  0  0  0
   45.7340   35.4680   43.1320 C   0  0  0  0  0  0  0  0  0  0  0  0
   45.0400   36.5060   43.1230 O   0  0  0  0  0  0  0  0  0  0  0  0
   44.8870   34.9650   45.3640 C   0  0  0  0  0  0  0  0  0  0  0  0
   45.7370   34.6590   44.3050 C   0  0  0  0  0  0  0  0  0  0  0  0
   46.5780   33.5470   44.4390 C   0  0  0  0  0  0  0  0  0  0  0  0
   46.5130   32.8290   45.6010 N   0  0  0  0  0  0  0  0  0  0  0  0
   45.6710   33.1610   46.6050 C   0  0  0  0  0  0  0  0  0  0  0  0
   44.8590   34.2310   46.4830 N   0  0  0  0  0  0  0  0  0  0  0  0
   48.3890   35.9489   42.6715 H   0  0  0  0  0  0  0  0  0  0  0  0
   49.6567   35.1646   40.6913 H   0  0  0  0  0  0  0  0  0  0  0  0
   48.5745   33.8299   38.9027 H   0  0  0  0  0  0  0  0  0  0  0  0
   46.1446   33.2716   39.1186 H   0  0  0  0  0  0  0  0  0  0  0  0
   43.9590   33.7451   42.4782 H   0  0  0  0  0  0  0  0  0  0  0  0
   44.2192   35.8349   45.2788 H   0  0  0  0  0  0  0  0  0  0  0  0
   47.2700   33.2598   43.6336 H   0  0  0  0  0  0  0  0  0  0  0  0
   45.6480   32.5569   47.5240 H   0  0  0  0  0  0  0  0  0  0  0  0
  1  7  1  0
  1  2  2  0
  2 10  1  0
  3  2  1  0
  4  3  2  0
  5  6  2  0
  5  4  1  0
  6  1  1  0
  8  7  2  0
  9  7  2  0
 10 13  1  0
 11 10  2  0
 12 17  2  0
 13 14  2  0
 13 12  1  0
 14 15  1  0
 15 16  2  0
 17 16  1  0
  3 18  1  0
  4 19  1  0
  5 20  1  0
  6 21  1  0
  7 22  1  0
 12 23  1  0
 14 24  1  0
 16 25  1  0
M  ISO  8  18  14  19  14  20  14  21  14  22  11  23  14  24  14  25  14
M  END
>  <minimizedAffinity>  (1) 
-4.94895315

>  <minimizedRMSD>  (1) 
2.4311974

$$$$
