
     RDKit          3D

 34 36  0  0  1  0  0  0  0  0999 V2000
   49.4190   33.3170   41.5130 N   0  0  0  0  0  0  0  0  0  0  0  0
   50.7060   33.1410   42.1380 C   0  0  0  0  0  0  0  0  0  0  0  0
   51.3510   31.8290   41.8410 C   0  0  0  0  0  0  0  0  0  0  0  0
   50.5260   30.7300   42.4890 C   0  0  0  0  0  0  0  0  0  0  0  0
   49.0610   31.0400   42.3900 C   0  0  0  0  0  0  0  0  0  0  0  0
   48.8120   32.0370   41.2850 C   0  0  2  0  0  0  0  0  0  0  0  0
   47.2470   34.6110   42.0060 C   0  0  1  0  0  0  0  0  0  0  0  0
   48.3270   35.5230   41.6970 C   0  0  0  0  0  0  0  0  0  0  0  0
   48.6760   34.2140   42.3530 C   0  0  2  0  0  0  0  0  0  0  0  0
   45.5210   36.0400   43.1740 C   0  0  0  0  0  0  0  0  0  0  0  0
   46.3230   34.8610   43.1330 C   0  0  0  0  0  0  0  0  0  0  0  0
   46.2000   33.9770   44.1890 C   0  0  0  0  0  0  0  0  0  0  0  0
   45.3270   34.2860   45.1900 N   0  0  0  0  0  0  0  0  0  0  0  0
   44.5810   35.4080   45.2010 C   0  0  0  0  0  0  0  0  0  0  0  0
   44.6690   36.3050   44.1870 N   0  0  0  0  0  0  0  0  0  0  0  0
   49.0100   31.4900   39.9290 C   0  0  0  0  0  0  0  0  0  0  0  0
   49.3800   32.0450   38.8850 O   0  0  0  0  0  0  0  0  0  0  0  0
   51.3734   33.9418   41.7868 H   0  0  0  0  0  0  0  0  0  0  0  0
   50.5390   33.1745   43.2247 H   0  0  0  0  0  0  0  0  0  0  0  0
   51.3893   31.6720   40.7529 H   0  0  0  0  0  0  0  0  0  0  0  0
   52.3769   31.8144   42.2376 H   0  0  0  0  0  0  0  0  0  0  0  0
   50.7290   29.7770   41.9785 H   0  0  0  0  0  0  0  0  0  0  0  0
   50.8022   30.6594   43.5514 H   0  0  0  0  0  0  0  0  0  0  0  0
   48.5075   30.1140   42.1752 H   0  0  0  0  0  0  0  0  0  0  0  0
   48.7200   31.4692   43.3437 H   0  0  0  0  0  0  0  0  0  0  0  0
   47.7327   32.2453   41.3266 H   0  0  0  0  0  0  0  0  0  0  0  0
   46.4260   34.1936   41.4045 H   0  0  0  0  0  0  0  0  0  0  0  0
   48.6081   35.6980   40.6480 H   0  0  0  0  0  0  0  0  0  0  0  0
   48.5306   36.5772   41.9362 H   0  0  0  0  0  0  0  0  0  0  0  0
   49.1556   33.8424   43.2705 H   0  0  0  0  0  0  0  0  0  0  0  0
   45.5999   36.7617   42.3476 H   0  0  0  0  0  0  0  0  0  0  0  0
   46.7904   33.0494   44.2208 H   0  0  0  0  0  0  0  0  0  0  0  0
   43.8947   35.5983   46.0393 H   0  0  0  0  0  0  0  0  0  0  0  0
   48.7943   30.4160   39.8289 H   0  0  0  0  0  0  0  0  0  0  0  0
  1  2  1  0
  1  9  1  0
  3  2  1  0
  3  4  1  0
  5  4  1  0
  6  1  1  0
  6  5  1  0
  7  9  1  0
  7 11  1  0
  8  7  1  0
  8  9  1  0
 10 15  2  0
 11 10  1  0
 11 12  2  0
 12 13  1  0
 13 14  2  0
 15 14  1  0
 16  6  1  0
 17 16  2  0
  2 18  1  0
  2 19  1  0
  3 20  1  0
  3 21  1  0
  4 22  1  0
  4 23  1  0
  5 24  1  0
  5 25  1  0
  6 26  1  6
  7 27  1  6
  8 28  1  0
  8 29  1  0
  9 30  1  1
 10 31  1  0
 12 32  1  0
 14 33  1  0
 16 34  1  0
M  ISO  8  18  13  19  13  20  13  21  13  22  13  23  13  24  13  25  13
M  ISO  8  26  13  27  13  28  13  29  13  30  13  31  14  32  14  33  14
M  ISO  1  34   6
M  END
>  <minimizedAffinity>  (1) 
-4.55873728

>  <minimizedRMSD>  (1) 
0.290652901

$$$$
