
     RDKit          3D

 38 40  0  0  1  0  0  0  0  0999 V2000
   49.3900   33.3000   41.4860 N   0  0  0  0  0  0  0  0  0  0  0  0
   50.6690   33.1290   42.1250 C   0  0  0  0  0  0  0  0  0  0  0  0
   51.3300   31.8170   41.9230 C   0  0  0  0  0  0  0  0  0  0  0  0
   50.4800   30.7010   42.4520 C   0  0  0  0  0  0  0  0  0  0  0  0
   49.0300   31.0300   42.3970 C   0  0  0  0  0  0  0  0  0  0  0  0
   48.7770   32.0120   41.2930 C   0  0  2  0  0  0  0  0  0  0  0  0
   47.2070   34.5760   42.0040 C   0  0  1  0  0  0  0  0  0  0  0  0
   48.3040   35.5170   41.7160 C   0  0  0  0  0  0  0  0  0  0  0  0
   48.6190   34.1880   42.2980 C   0  0  2  0  0  0  0  0  0  0  0  0
   45.5130   36.0300   43.1610 C   0  0  0  0  0  0  0  0  0  0  0  0
   46.2950   34.8480   43.1530 C   0  0  0  0  0  0  0  0  0  0  0  0
   46.1790   33.9600   44.2360 C   0  0  0  0  0  0  0  0  0  0  0  0
   45.3200   34.2800   45.2370 N   0  0  0  0  0  0  0  0  0  0  0  0
   44.5840   35.4200   45.2170 C   0  0  0  0  0  0  0  0  0  0  0  0
   44.6710   36.3010   44.1880 N   0  0  0  0  0  0  0  0  0  0  0  0
   48.8520   31.4630   39.9090 C   0  0  0  0  0  0  0  0  0  0  0  0
   48.8430   32.5660   38.8560 C   0  0  0  0  0  0  0  0  0  0  0  0
   51.3437   33.9078   41.7400 H   0  0  0  0  0  0  0  0  0  0  0  0
   50.4706   33.1963   43.2049 H   0  0  0  0  0  0  0  0  0  0  0  0
   51.4997   31.6613   40.8474 H   0  0  0  0  0  0  0  0  0  0  0  0
   52.2859   31.8183   42.4673 H   0  0  0  0  0  0  0  0  0  0  0  0
   50.6626   29.7992   41.8492 H   0  0  0  0  0  0  0  0  0  0  0  0
   50.7514   30.5374   43.5054 H   0  0  0  0  0  0  0  0  0  0  0  0
   48.4535   30.1121   42.2094 H   0  0  0  0  0  0  0  0  0  0  0  0
   48.7196   31.4712   43.3556 H   0  0  0  0  0  0  0  0  0  0  0  0
   47.7024   32.2262   41.3893 H   0  0  0  0  0  0  0  0  0  0  0  0
   46.3831   34.1474   41.4146 H   0  0  0  0  0  0  0  0  0  0  0  0
   48.5774   35.7378   40.6737 H   0  0  0  0  0  0  0  0  0  0  0  0
   48.5253   36.5572   41.9970 H   0  0  0  0  0  0  0  0  0  0  0  0
   49.0991   33.7735   43.1967 H   0  0  0  0  0  0  0  0  0  0  0  0
   45.5905   36.7373   42.3221 H   0  0  0  0  0  0  0  0  0  0  0  0
   46.7679   33.0316   44.2715 H   0  0  0  0  0  0  0  0  0  0  0  0
   43.9020   35.6348   46.0529 H   0  0  0  0  0  0  0  0  0  0  0  0
   49.7806   30.8822   39.8071 H   0  0  0  0  0  0  0  0  0  0  0  0
   47.9672   30.8302   39.7459 H   0  0  0  0  0  0  0  0  0  0  0  0
   48.8350   33.5473   39.3530 H   0  0  0  0  0  0  0  0  0  0  0  0
   49.7419   32.4805   38.2277 H   0  0  0  0  0  0  0  0  0  0  0  0
   47.9456   32.4658   38.2277 H   0  0  0  0  0  0  0  0  0  0  0  0
  1  2  1  0
  1  9  1  0
  3  2  1  0
  3  4  1  0
  5  4  1  0
  6  1  1  0
  6  5  1  0
  7  9  1  0
  7 11  1  0
  8  7  1  0
  8  9  1  0
 10 15  2  0
 11 10  1  0
 11 12  2  0
 12 13  1  0
 14 13  2  0
 15 14  1  0
 16  6  1  0
 17 16  1  0
  2 18  1  0
  2 19  1  0
  3 20  1  0
  3 21  1  0
  4 22  1  0
  4 23  1  0
  5 24  1  0
  5 25  1  0
  6 26  1  1
  7 27  1  6
  8 28  1  0
  8 29  1  0
  9 30  1  1
 10 31  1  0
 12 32  1  0
 14 33  1  0
 16 34  1  0
 16 35  1  0
 17 36  1  0
 17 37  1  0
 17 38  1  0
M  ISO  8  18  13  19  13  20  13  21  13  22  13  23  13  24  13  25  13
M  ISO  8  26  13  27  13  28  13  29  13  30  13  31  14  32  14  33  14
M  ISO  5  34   8  35   8  36   8  37   8  38   8
M  END
>  <minimizedAffinity>  (1) 
-4.53064394

>  <minimizedRMSD>  (1) 
0.509624243

$$$$
