
     RDKit          3D

 47 50  0  0  1  0  0  0  0  0999 V2000
   49.6600   33.6190   41.3910 N   0  0  0  0  0  0  0  0  0  0  0  0
   50.7250   33.0780   42.2100 C   0  0  0  0  0  0  0  0  0  0  0  0
   51.2610   31.7660   41.7150 C   0  0  0  0  0  0  0  0  0  0  0  0
   50.1720   30.7120   41.8440 C   0  0  0  0  0  0  0  0  0  0  0  0
   48.8290   31.3130   41.5680 C   0  0  0  0  0  0  0  0  0  0  0  0
   48.9870   32.5590   40.7190 C   0  0  2  0  0  0  0  0  0  0  0  0
   47.4250   34.7620   41.9470 C   0  0  1  0  0  0  0  0  0  0  0  0
   48.4890   35.7770   41.7540 C   0  0  0  0  0  0  0  0  0  0  0  0
   48.8440   34.4230   42.2220 C   0  0  2  0  0  0  0  0  0  0  0  0
   45.5860   36.0170   43.1100 C   0  0  0  0  0  0  0  0  0  0  0  0
   46.4700   34.9360   43.0390 C   0  0  0  0  0  0  0  0  0  0  0  0
   46.3910   33.9850   44.0810 C   0  0  0  0  0  0  0  0  0  0  0  0
   45.4810   34.1650   45.0730 N   0  0  0  0  0  0  0  0  0  0  0  0
   44.6500   35.2190   45.1030 C   0  0  0  0  0  0  0  0  0  0  0  0
   44.6920   36.1590   44.1190 N   0  0  0  0  0  0  0  0  0  0  0  0
   49.5610   32.2150   39.4490 N   0  0  0  0  0  0  0  0  0  0  0  0
   48.5360   32.7610   38.1500 S   0  0  0  0  0  0  0  0  0  0  0  0
   48.3690   34.2480   38.1890 O   0  0  0  0  0  0  0  0  0  0  0  0
   47.1690   32.1660   38.4070 O   0  0  0  0  0  0  0  0  0  0  0  0
   49.0830   32.2180   36.6020 C   0  0  0  0  0  0  0  0  0  0  0  0
   50.0010   31.2300   36.3130 C   0  0  0  0  0  0  0  0  0  0  0  0
   50.3340   30.9120   35.0140 C   0  0  0  0  0  0  0  0  0  0  0  0
   49.7480   31.5870   33.9480 C   0  0  0  0  0  0  0  0  0  0  0  0
   48.8160   32.5890   34.2240 C   0  0  0  0  0  0  0  0  0  0  0  0
   48.4920   32.8960   35.5490 C   0  0  0  0  0  0  0  0  0  0  0  0
   51.5505   33.8047   42.2304 H   0  0  0  0  0  0  0  0  0  0  0  0
   50.3011   32.8955   43.2085 H   0  0  0  0  0  0  0  0  0  0  0  0
   52.1333   31.4721   42.3172 H   0  0  0  0  0  0  0  0  0  0  0  0
   51.5673   31.8603   40.6627 H   0  0  0  0  0  0  0  0  0  0  0  0
   50.3626   29.9037   41.1226 H   0  0  0  0  0  0  0  0  0  0  0  0
   50.1808   30.3134   42.8692 H   0  0  0  0  0  0  0  0  0  0  0  0
   48.2056   30.5825   41.0315 H   0  0  0  0  0  0  0  0  0  0  0  0
   48.3494   31.5819   42.5207 H   0  0  0  0  0  0  0  0  0  0  0  0
   47.9858   32.9724   40.5272 H   0  0  0  0  0  0  0  0  0  0  0  0
   46.6348   34.3162   41.3250 H   0  0  0  0  0  0  0  0  0  0  0  0
   48.7651   36.0972   40.7385 H   0  0  0  0  0  0  0  0  0  0  0  0
   48.6649   36.7976   42.1246 H   0  0  0  0  0  0  0  0  0  0  0  0
   49.3379   33.9626   43.0904 H   0  0  0  0  0  0  0  0  0  0  0  0
   45.6172   36.7800   42.3182 H   0  0  0  0  0  0  0  0  0  0  0  0
   47.0579   33.1102   44.0887 H   0  0  0  0  0  0  0  0  0  0  0  0
   43.9303   35.3238   45.9282 H   0  0  0  0  0  0  0  0  0  0  0  0
   50.4852   32.6614   39.3624 H   0  0  0  0  0  0  0  0  0  0  0  0
   50.4787   30.6828   37.1390 H   0  0  0  0  0  0  0  0  0  0  0  0
   51.0694   30.1177   34.8184 H   0  0  0  0  0  0  0  0  0  0  0  0
   50.0133   31.3366   32.9102 H   0  0  0  0  0  0  0  0  0  0  0  0
   48.3367   33.1368   33.3993 H   0  0  0  0  0  0  0  0  0  0  0  0
   47.7571   33.6874   35.7580 H   0  0  0  0  0  0  0  0  0  0  0  0
  1  2  1  0
  1  9  1  0
  3  4  1  0
  3  2  1  0
  5  4  1  0
  6  1  1  0
  6  5  1  0
  7  9  1  0
  7 11  1  0
  8  7  1  0
  8  9  1  0
 10 15  2  0
 11 10  1  0
 11 12  2  0
 12 13  1  0
 13 14  2  0
 15 14  1  0
 16  6  1  0
 17 18  2  0
 17 19  2  0
 17 16  1  0
 20 17  1  0
 21 20  2  0
 22 21  1  0
 23 24  1  0
 23 22  2  0
 24 25  2  0
 25 20  1  0
  2 26  1  0
  2 27  1  0
  3 28  1  0
  3 29  1  0
  4 30  1  0
  4 31  1  0
  5 32  1  0
  5 33  1  0
  6 34  1  6
  7 35  1  6
  8 36  1  0
  8 37  1  0
  9 38  1  1
 10 39  1  0
 12 40  1  0
 14 41  1  0
 16 42  1  0
 21 43  1  0
 22 44  1  0
 23 45  1  0
 24 46  1  0
 25 47  1  0
M  ISO  8  26  13  27  13  28  13  29  13  30  13  31  13  32  13  33  13
M  ISO  8  34  13  35  13  36  13  37  13  38  13  39  14  40  14  41  14
M  ISO  6  42   5  43  14  44  14  45  14  46  14  47  14
M  END
>  <minimizedAffinity>  (1) 
-5.56871986

>  <minimizedRMSD>  (1) 
1.78764975

$$$$
