
     RDKit          3D

 37 39  0  0  1  0  0  0  0  0999 V2000
   49.3950   33.3040   41.4700 N   0  0  0  0  0  0  0  0  0  0  0  0
   50.6790   33.1360   42.1270 C   0  0  0  0  0  0  0  0  0  0  0  0
   51.3340   31.8280   41.8350 C   0  0  0  0  0  0  0  0  0  0  0  0
   50.5080   30.7330   42.5060 C   0  0  0  0  0  0  0  0  0  0  0  0
   49.0360   31.0410   42.4000 C   0  0  0  0  0  0  0  0  0  0  0  0
   48.8020   32.0190   41.2770 C   0  0  2  0  0  0  0  0  0  0  0  0
   47.2180   34.5780   42.0170 C   0  0  1  0  0  0  0  0  0  0  0  0
   48.3170   35.5260   41.7120 C   0  0  0  0  0  0  0  0  0  0  0  0
   48.6300   34.1950   42.2670 C   0  0  2  0  0  0  0  0  0  0  0  0
   45.5270   36.0260   43.1540 C   0  0  0  0  0  0  0  0  0  0  0  0
   46.3130   34.8680   43.1290 C   0  0  0  0  0  0  0  0  0  0  0  0
   46.1950   33.9720   44.2150 C   0  0  0  0  0  0  0  0  0  0  0  0
   45.3300   34.2830   45.2150 N   0  0  0  0  0  0  0  0  0  0  0  0
   44.5860   35.4020   45.2130 C   0  0  0  0  0  0  0  0  0  0  0  0
   44.6750   36.2880   44.1830 N   0  0  0  0  0  0  0  0  0  0  0  0
   49.1690   31.4190   40.0180 N   0  0  0  0  0  0  0  0  0  0  0  0
   48.9030   32.3200   38.9230 C   0  0  0  0  0  0  0  0  0  0  0  0
   51.3485   33.9422   41.7927 H   0  0  0  0  0  0  0  0  0  0  0  0
   50.4929   33.1681   43.2107 H   0  0  0  0  0  0  0  0  0  0  0  0
   51.3662   31.6598   40.7484 H   0  0  0  0  0  0  0  0  0  0  0  0
   52.3653   31.8206   42.2175 H   0  0  0  0  0  0  0  0  0  0  0  0
   50.7129   29.7715   42.0126 H   0  0  0  0  0  0  0  0  0  0  0  0
   50.7844   30.6805   43.5694 H   0  0  0  0  0  0  0  0  0  0  0  0
   48.4816   30.1126   42.1980 H   0  0  0  0  0  0  0  0  0  0  0  0
   48.6865   31.4811   43.3456 H   0  0  0  0  0  0  0  0  0  0  0  0
   47.7235   32.2350   41.2677 H   0  0  0  0  0  0  0  0  0  0  0  0
   46.3852   34.1286   41.4562 H   0  0  0  0  0  0  0  0  0  0  0  0
   48.5680   35.7582   40.6665 H   0  0  0  0  0  0  0  0  0  0  0  0
   48.5512   36.5617   41.9991 H   0  0  0  0  0  0  0  0  0  0  0  0
   49.1288   33.7699   43.1505 H   0  0  0  0  0  0  0  0  0  0  0  0
   45.5995   36.7418   42.3219 H   0  0  0  0  0  0  0  0  0  0  0  0
   46.7883   33.0464   44.2498 H   0  0  0  0  0  0  0  0  0  0  0  0
   43.9004   35.6036   46.0492 H   0  0  0  0  0  0  0  0  0  0  0  0
   50.1737   31.1925   40.0322 H   0  0  0  0  0  0  0  0  0  0  0  0
   48.6125   33.3039   39.3200 H   0  0  0  0  0  0  0  0  0  0  0  0
   49.8082   32.4258   38.3071 H   0  0  0  0  0  0  0  0  0  0  0  0
   48.0854   31.9172   38.3071 H   0  0  0  0  0  0  0  0  0  0  0  0
  1  2  1  0
  1  9  1  0
  3  2  1  0
  3  4  1  0
  5  4  1  0
  6  1  1  0
  6  5  1  0
  7  9  1  0
  7 11  1  0
  8  7  1  0
  8  9  1  0
 10 15  2  0
 11 10  1  0
 11 12  2  0
 12 13  1  0
 14 13  2  0
 15 14  1  0
 16  6  1  0
 17 16  1  0
  2 18  1  0
  2 19  1  0
  3 20  1  0
  3 21  1  0
  4 22  1  0
  4 23  1  0
  5 24  1  0
  5 25  1  0
  6 26  1  6
  7 27  1  6
  8 28  1  0
  8 29  1  0
  9 30  1  1
 10 31  1  0
 12 32  1  0
 14 33  1  0
 16 34  1  0
 17 35  1  0
 17 36  1  0
 17 37  1  0
M  ISO  8  18  13  19  13  20  13  21  13  22  13  23  13  24  13  25  13
M  ISO  8  26  13  27  13  28  13  29  13  30  13  31  14  32  14  33  14
M  ISO  4  34   5  35   8  36   8  37   8
M  END
>  <minimizedAffinity>  (1) 
-4.54873037

>  <minimizedRMSD>  (1) 
0.639278591

$$$$
