
     RDKit          3D

 37 39  0  0  1  0  0  0  0  0999 V2000
   49.6180   33.6830   41.4030 N   0  0  0  0  0  0  0  0  0  0  0  0
   50.6970   33.1120   42.2080 C   0  0  0  0  0  0  0  0  0  0  0  0
   51.2250   31.8240   41.6470 C   0  0  0  0  0  0  0  0  0  0  0  0
   50.1540   30.7650   41.7640 C   0  0  0  0  0  0  0  0  0  0  0  0
   48.7910   31.3640   41.5260 C   0  0  0  0  0  0  0  0  0  0  0  0
   48.9440   32.6140   40.7060 C   0  0  2  0  0  0  0  0  0  0  0  0
   47.3980   34.8400   41.9820 C   0  0  1  0  0  0  0  0  0  0  0  0
   48.4950   35.8340   41.8640 C   0  0  0  0  0  0  0  0  0  0  0  0
   48.8030   34.4510   42.2690 C   0  0  2  0  0  0  0  0  0  0  0  0
   45.5410   36.0530   43.1720 C   0  0  0  0  0  0  0  0  0  0  0  0
   46.4400   34.9700   43.0890 C   0  0  0  0  0  0  0  0  0  0  0  0
   46.3790   34.0020   44.1170 C   0  0  0  0  0  0  0  0  0  0  0  0
   45.4710   34.1630   45.1170 N   0  0  0  0  0  0  0  0  0  0  0  0
   44.6270   35.2250   45.1500 C   0  0  0  0  0  0  0  0  0  0  0  0
   44.6540   36.1740   44.1850 N   0  0  0  0  0  0  0  0  0  0  0  0
   49.5160   32.3410   39.4230 N   0  0  0  0  0  0  0  0  0  0  0  0
   48.8160   32.8510   38.3030 C   0  0  0  0  0  0  0  0  0  0  0  0
   49.7420   33.0270   37.2750 F   0  0  0  0  0  0  0  0  0  0  0  0
   47.8780   31.9870   37.8050 F   0  0  0  0  0  0  0  0  0  0  0  0
   48.2310   34.0800   38.6050 F   0  0  0  0  0  0  0  0  0  0  0  0
   51.5217   33.8384   42.2556 H   0  0  0  0  0  0  0  0  0  0  0  0
   50.2857   32.8941   43.2047 H   0  0  0  0  0  0  0  0  0  0  0  0
   52.1158   31.5125   42.2122 H   0  0  0  0  0  0  0  0  0  0  0  0
   51.4996   31.9618   40.5908 H   0  0  0  0  0  0  0  0  0  0  0  0
   50.3393   29.9787   41.0174 H   0  0  0  0  0  0  0  0  0  0  0  0
   50.1836   30.3396   42.7780 H   0  0  0  0  0  0  0  0  0  0  0  0
   48.1602   30.6429   40.9855 H   0  0  0  0  0  0  0  0  0  0  0  0
   48.3174   31.6061   42.4889 H   0  0  0  0  0  0  0  0  0  0  0  0
   47.9251   32.9894   40.5301 H   0  0  0  0  0  0  0  0  0  0  0  0
   46.6074   34.4602   41.3182 H   0  0  0  0  0  0  0  0  0  0  0  0
   48.8026   36.1973   40.8723 H   0  0  0  0  0  0  0  0  0  0  0  0
   48.6898   36.8292   42.2903 H   0  0  0  0  0  0  0  0  0  0  0  0
   49.2609   33.9307   43.1231 H   0  0  0  0  0  0  0  0  0  0  0  0
   45.5620   36.8239   42.3876 H   0  0  0  0  0  0  0  0  0  0  0  0
   47.0540   33.1335   44.1086 H   0  0  0  0  0  0  0  0  0  0  0  0
   43.9071   35.3165   45.9767 H   0  0  0  0  0  0  0  0  0  0  0  0
   50.4642   32.7430   39.4102 H   0  0  0  0  0  0  0  0  0  0  0  0
  1  2  1  0
  1  9  1  0
  3  4  1  0
  3  2  1  0
  5  4  1  0
  6  1  1  0
  6  5  1  0
  7  9  1  0
  7 11  1  0
  8  7  1  0
  8  9  1  0
 10 15  2  0
 11 10  1  0
 11 12  2  0
 12 13  1  0
 13 14  2  0
 15 14  1  0
 16  6  1  0
 17 20  1  0
 17 16  1  0
 18 17  1  0
 19 17  1  0
  2 21  1  0
  2 22  1  0
  3 23  1  0
  3 24  1  0
  4 25  1  0
  4 26  1  0
  5 27  1  0
  5 28  1  0
  6 29  1  6
  7 30  1  6
  8 31  1  0
  8 32  1  0
  9 33  1  1
 10 34  1  0
 12 35  1  0
 14 36  1  0
 16 37  1  0
M  ISO  8  21  13  22  13  23  13  24  13  25  13  26  13  27  13  28  13
M  ISO  8  29  13  30  13  31  13  32  13  33  13  34  14  35  14  36  14
M  ISO  1  37   5
M  END
>  <minimizedAffinity>  (1) 
-4.92414379

>  <minimizedRMSD>  (1) 
1.78115368

$$$$
