
     RDKit          3D

 27 28  0  0  0  0  0  0  0  0999 V2000
   42.9750   34.6360   39.4530 S   0  0  0  0  0  0  0  0  0  0  0  0
   42.2780   31.8870   40.9350 Cl  0  0  0  0  0  0  0  0  0  0  0  0
   40.9640   32.9740   40.5230 C   0  0  0  0  0  0  0  0  0  0  0  0
   41.3560   34.1240   39.8910 C   0  0  0  0  0  0  0  0  0  0  0  0
   40.3320   35.0250   39.5420 C   0  0  0  0  0  0  0  0  0  0  0  0
   39.0100   34.7260   39.8400 C   0  0  0  0  0  0  0  0  0  0  0  0
   38.6300   33.5630   40.4760 C   0  0  0  0  0  0  0  0  0  0  0  0
   39.6560   32.6740   40.8190 C   0  0  0  0  0  0  0  0  0  0  0  0
   39.3000   31.1600   41.6320 Cl  0  0  0  0  0  0  0  0  0  0  0  0
   44.1000   34.6920   40.8380 C   0  0  0  0  0  0  0  0  0  0  0  0
   45.3380   34.0760   40.6420 C   0  0  0  0  0  0  0  0  0  0  0  0
   46.2720   34.0830   41.6890 C   0  0  0  0  0  0  0  0  0  0  0  0
   45.9170   34.6900   42.8400 N   0  0  0  0  0  0  0  0  0  0  0  0
   44.7180   35.2810   43.0150 C   0  0  0  0  0  0  0  0  0  0  0  0
   43.7880   35.2920   42.0160 N   0  0  0  0  0  0  0  0  0  0  0  0
   44.3600   35.9390   44.2910 C   0  0  0  0  0  0  0  0  0  0  0  0
   44.7080   35.1590   45.5150 C   0  0  0  0  0  0  0  0  0  0  0  0
   40.5802   35.9676   39.0322 H   0  0  0  0  0  0  0  0  0  0  0  0
   38.2308   35.4487   39.5563 H   0  0  0  0  0  0  0  0  0  0  0  0
   37.5758   33.3450   40.7021 H   0  0  0  0  0  0  0  0  0  0  0  0
   45.5768   33.5934   39.6828 H   0  0  0  0  0  0  0  0  0  0  0  0
   47.2587   33.6103   41.5752 H   0  0  0  0  0  0  0  0  0  0  0  0
   44.8865   36.9036   44.3384 H   0  0  0  0  0  0  0  0  0  0  0  0
   43.2649   36.0427   44.2901 H   0  0  0  0  0  0  0  0  0  0  0  0
   44.4470   35.7441   46.4092 H   0  0  0  0  0  0  0  0  0  0  0  0
   44.1465   34.2131   45.5190 H   0  0  0  0  0  0  0  0  0  0  0  0
   45.7870   34.9450   45.5190 H   0  0  0  0  0  0  0  0  0  0  0  0
  1  4  1  0
  1 10  1  0
  3  8  2  0
  3  2  1  0
  4  3  1  0
  5  6  1  0
  5  4  2  0
  6  7  2  0
  7  8  1  0
  8  9  1  0
 10 15  1  0
 11 10  2  0
 11 12  1  0
 12 13  2  0
 13 14  1  0
 14 16  1  0
 15 14  2  0
 16 17  1  0
  5 18  1  0
  6 19  1  0
  7 20  1  0
 11 21  1  0
 12 22  1  0
 16 23  1  0
 16 24  1  0
 17 25  1  0
 17 26  1  0
 17 27  1  0
M  ISO  8  18  14  19  14  20  14  21  14  22  14  23   8  24   8  25   8
M  ISO  2  26   8  27   8
M  END
>  <minimizedAffinity>  (1) 
-4.86746311

>  <minimizedRMSD>  (1) 
1.76494861

$$$$
