
     RDKit          3D

 23 24  0  0  0  0  0  0  0  0999 V2000
   43.5340   34.0570   39.7150 S   0  0  0  0  0  0  0  0  0  0  0  0
   41.5800   32.2710   37.9180 Cl  0  0  0  0  0  0  0  0  0  0  0  0
   40.8800   33.5620   38.8990 C   0  0  0  0  0  0  0  0  0  0  0  0
   41.7850   34.2730   39.6350 C   0  0  0  0  0  0  0  0  0  0  0  0
   41.2870   35.3040   40.4280 C   0  0  0  0  0  0  0  0  0  0  0  0
   39.9150   35.5590   40.4360 C   0  0  0  0  0  0  0  0  0  0  0  0
   39.0080   34.8420   39.6950 C   0  0  0  0  0  0  0  0  0  0  0  0
   39.5260   33.8140   38.9080 C   0  0  0  0  0  0  0  0  0  0  0  0
   38.4820   32.8180   37.9120 Cl  0  0  0  0  0  0  0  0  0  0  0  0
   44.1430   33.8450   41.3850 C   0  0  0  0  0  0  0  0  0  0  0  0
   44.5510   32.5420   41.7050 C   0  0  0  0  0  0  0  0  0  0  0  0
   45.0420   32.3140   43.0120 C   0  0  0  0  0  0  0  0  0  0  0  0
   45.0900   33.3510   43.8670 N   0  0  0  0  0  0  0  0  0  0  0  0
   44.6860   34.5910   43.5190 C   0  0  0  0  0  0  0  0  0  0  0  0
   44.2080   34.8600   42.2800 N   0  0  0  0  0  0  0  0  0  0  0  0
   44.7620   35.6690   44.4900 C   0  0  0  0  0  0  0  0  0  0  0  0
   44.5260   35.5580   45.7210 O   0  0  0  0  0  0  0  0  0  0  0  0
   41.9684   35.9113   41.0419 H   0  0  0  0  0  0  0  0  0  0  0  0
   39.5405   36.3770   41.0689 H   0  0  0  0  0  0  0  0  0  0  0  0
   37.9314   35.0664   39.7209 H   0  0  0  0  0  0  0  0  0  0  0  0
   44.4915   31.7280   40.9676 H   0  0  0  0  0  0  0  0  0  0  0  0
   45.3764   31.3128   43.3215 H   0  0  0  0  0  0  0  0  0  0  0  0
   45.0494   36.6637   44.1186 H   0  0  0  0  0  0  0  0  0  0  0  0
  1 10  1  0
  2  3  1  0
  3  8  2  0
  3  4  1  0
  4  1  1  0
  4  5  2  0
  5  6  1  0
  7  6  2  0
  8  7  1  0
  9  8  1  0
 10 11  2  0
 10 15  1  0
 11 12  1  0
 12 13  2  0
 14 13  1  0
 14 16  1  0
 15 14  2  0
 16 17  2  0
  5 18  1  0
  6 19  1  0
  7 20  1  0
 11 21  1  0
 12 22  1  0
 16 23  1  0
M  ISO  6  18  14  19  14  20  14  21  14  22  14  23   6
M  END
>  <minimizedAffinity>  (1) 
-4.77846766

>  <minimizedRMSD>  (1) 
1.97360599

$$$$
