
     RDKit          3D

 30 32  0  0  0  0  0  0  0  0999 V2000
   48.1520   33.7060   40.3190 C   0  0  0  0  0  0  0  0  0  0  0  0
   49.1690   32.8430   40.7230 C   0  0  0  0  0  0  0  0  0  0  0  0
   49.2590   32.4980   42.0760 C   0  0  0  0  0  0  0  0  0  0  0  0
   48.3440   33.0230   42.9340 N   0  0  0  0  0  0  0  0  0  0  0  0
   47.3660   33.8590   42.5160 C   0  0  0  0  0  0  0  0  0  0  0  0
   47.2660   34.2040   41.2040 N   0  0  0  0  0  0  0  0  0  0  0  0
   46.3880   34.4180   43.4520 C   0  0  0  0  0  0  0  0  0  0  0  0
   45.6850   35.5560   43.0560 C   0  0  0  0  0  0  0  0  0  0  0  0
   44.7800   36.0360   43.9770 C   0  0  0  0  0  0  0  0  0  0  0  0
   44.5650   35.4500   45.2080 C   0  0  0  0  0  0  0  0  0  0  0  0
   45.2910   34.3130   45.5630 C   0  0  0  0  0  0  0  0  0  0  0  0
   46.1710   33.8550   44.6550 N   0  0  0  0  0  0  0  0  0  0  0  0
   48.1060   34.0970   38.5720 S   0  0  0  0  0  0  0  0  0  0  0  0
   49.4860   31.4590   37.4060 Cl  0  0  0  0  0  0  0  0  0  0  0  0
   47.7880   31.7360   37.0740 C   0  0  0  0  0  0  0  0  0  0  0  0
   47.2670   32.8820   37.6030 C   0  0  0  0  0  0  0  0  0  0  0  0
   45.9200   33.1460   37.3660 C   0  0  0  0  0  0  0  0  0  0  0  0
   45.1640   32.2540   36.6140 C   0  0  0  0  0  0  0  0  0  0  0  0
   45.6950   31.0910   36.0770 C   0  0  0  0  0  0  0  0  0  0  0  0
   47.0430   30.8500   36.3280 C   0  0  0  0  0  0  0  0  0  0  0  0
   47.8150   29.4040   35.6940 Cl  0  0  0  0  0  0  0  0  0  0  0  0
   49.8867   32.4411   39.9927 H   0  0  0  0  0  0  0  0  0  0  0  0
   50.0479   31.8210   42.4356 H   0  0  0  0  0  0  0  0  0  0  0  0
   45.8420   36.0356   42.0786 H   0  0  0  0  0  0  0  0  0  0  0  0
   44.1984   36.9330   43.7179 H   0  0  0  0  0  0  0  0  0  0  0  0
   43.8271   35.8762   45.9036 H   0  0  0  0  0  0  0  0  0  0  0  0
   45.1510   33.8170   46.5348 H   0  0  0  0  0  0  0  0  0  0  0  0
   45.4562   34.0569   37.7724 H   0  0  0  0  0  0  0  0  0  0  0  0
   44.1019   32.4798   36.4379 H   0  0  0  0  0  0  0  0  0  0  0  0
   45.0832   30.3954   35.4838 H   0  0  0  0  0  0  0  0  0  0  0  0
  1  2  2  0
  1  6  1  0
  2  3  1  0
  3  4  2  0
  5  4  1  0
  5  7  1  0
  6  5  2  0
  7 12  1  0
  8  7  2  0
  8  9  1  0
  9 10  2  0
 10 11  1  0
 12 11  2  0
 13  1  1  0
 15 14  1  0
 15 16  2  0
 16 13  1  0
 17 16  1  0
 18 17  2  0
 19 20  2  0
 19 18  1  0
 20 15  1  0
 21 20  1  0
  2 22  1  0
  3 23  1  0
  8 24  1  0
  9 25  1  0
 10 26  1  0
 11 27  1  0
 17 28  1  0
 18 29  1  0
 19 30  1  0
M  ISO  8  22  14  23  14  24  14  25  14  26  14  27  14  28  14  29  14
M  ISO  1  30  14
M  END
>  <minimizedAffinity>  (1) 
-4.70304155

>  <minimizedRMSD>  (1) 
6.11572599

$$$$
