
     RDKit          3D

 36 40  0  0  0  0  0  0  0  0999 V2000
   47.4370   31.4470   44.9270 C   0  0  0  0  0  0  0  0  0  0  0  0
   47.0870   32.7660   44.6910 C   0  0  0  0  0  0  0  0  0  0  0  0
   46.2420   33.4950   45.5260 C   0  0  0  0  0  0  0  0  0  0  0  0
   45.7110   32.8810   46.6650 C   0  0  0  0  0  0  0  0  0  0  0  0
   44.8910   33.2420   47.6740 N   0  0  0  0  0  0  0  0  0  0  0  0
   44.7390   32.1720   48.5130 C   0  0  0  0  0  0  0  0  0  0  0  0
   45.4740   31.1580   48.0040 N   0  0  0  0  0  0  0  0  0  0  0  0
   46.0810   31.5620   46.8720 C   0  0  0  0  0  0  0  0  0  0  0  0
   46.9140   30.8230   46.0600 C   0  0  0  0  0  0  0  0  0  0  0  0
   46.7440   28.4190   45.5480 C   0  0  0  0  0  0  0  0  0  0  0  0
   47.2440   29.4360   46.3660 C   0  0  0  0  0  0  0  0  0  0  0  0
   48.0550   29.1830   47.4780 C   0  0  0  0  0  0  0  0  0  0  0  0
   48.3410   27.8640   47.7310 C   0  0  0  0  0  0  0  0  0  0  0  0
   49.0890   27.3680   48.7270 N   0  0  0  0  0  0  0  0  0  0  0  0
   49.1160   26.0290   48.6140 C   0  0  0  0  0  0  0  0  0  0  0  0
   48.3840   25.7000   47.5460 N   0  0  0  0  0  0  0  0  0  0  0  0
   47.8930   26.8110   46.9810 C   0  0  0  0  0  0  0  0  0  0  0  0
   47.1090   27.1410   45.9160 C   0  0  0  0  0  0  0  0  0  0  0  0
   47.5040   35.1900   41.9490 C   0  0  0  0  0  0  0  0  0  0  0  0
   48.6410   34.7140   41.2980 C   0  0  0  0  0  0  0  0  0  0  0  0
   49.2730   33.5510   41.8020 C   0  0  0  0  0  0  0  0  0  0  0  0
   48.7110   32.9670   42.9130 N   0  0  0  0  0  0  0  0  0  0  0  0
   47.6170   33.4560   43.5080 C   0  0  0  0  0  0  0  0  0  0  0  0
   47.0090   34.5620   43.0360 N   0  0  0  0  0  0  0  0  0  0  0  0
   48.1073   30.9075   44.2417 H   0  0  0  0  0  0  0  0  0  0  0  0
   45.9956   34.5412   45.2919 H   0  0  0  0  0  0  0  0  0  0  0  0
   44.4534   34.1669   47.7925 H   0  0  0  0  0  0  0  0  0  0  0  0
   44.1323   32.1424   49.4301 H   0  0  0  0  0  0  0  0  0  0  0  0
   46.1064   28.6229   44.6751 H   0  0  0  0  0  0  0  0  0  0  0  0
   48.4412   29.9941   48.1129 H   0  0  0  0  0  0  0  0  0  0  0  0
   49.5631   27.9201   49.4559 H   0  0  0  0  0  0  0  0  0  0  0  0
   49.6447   25.3310   49.2798 H   0  0  0  0  0  0  0  0  0  0  0  0
   46.7340   26.3143   45.2947 H   0  0  0  0  0  0  0  0  0  0  0  0
   47.0019   36.0925   41.5703 H   0  0  0  0  0  0  0  0  0  0  0  0
   49.0388   35.2305   40.4120 H   0  0  0  0  0  0  0  0  0  0  0  0
   50.1727   33.1337   41.3263 H   0  0  0  0  0  0  0  0  0  0  0  0
  1  9  2  0
  2  1  1  0
  2  3  2  0
  3  4  1  0
  4  8  2  0
  4  5  1  0
  5  6  1  0
  7  6  2  0
  8  7  1  0
  9 11  1  0
  9  8  1  0
 10 18  2  0
 10 11  1  0
 11 12  2  0
 12 13  1  0
 13 14  1  0
 15 14  1  0
 16 15  2  0
 17 16  1  0
 17 13  2  0
 18 17  1  0
 19 24  2  0
 20 21  2  0
 20 19  1  0
 21 22  1  0
 22 23  2  0
 23  2  1  0
 24 23  1  0
  1 25  1  0
  3 26  1  0
  5 27  1  0
  6 28  1  0
 10 29  1  0
 12 30  1  0
 14 31  1  0
 15 32  1  0
 18 33  1  0
 19 34  1  0
 20 35  1  0
 21 36  1  0
M  ISO  8  25  14  26  14  27   9  28  14  29  14  30  14  31   9  32  14
M  ISO  4  33  14  34  14  35  14  36  14
M  END
>  <minimizedAffinity>  (1) 
-5.74373007

>  <minimizedRMSD>  (1) 
0.757059157

$$$$
