
     RDKit          3D

 35 38  0  0  0  0  0  0  0  0999 V2000
   47.2430   31.3730   45.1300 C   0  0  0  0  0  0  0  0  0  0  0  0
   46.8930   32.6980   45.0920 C   0  0  0  0  0  0  0  0  0  0  0  0
   46.2580   33.3420   46.1380 C   0  0  0  0  0  0  0  0  0  0  0  0
   45.9480   32.6240   47.3010 C   0  0  0  0  0  0  0  0  0  0  0  0
   45.3490   32.9110   48.4910 N   0  0  0  0  0  0  0  0  0  0  0  0
   45.3400   31.7590   49.2400 C   0  0  0  0  0  0  0  0  0  0  0  0
   45.9360   30.7910   48.4900 N   0  0  0  0  0  0  0  0  0  0  0  0
   46.3140   31.2910   47.3100 C   0  0  0  0  0  0  0  0  0  0  0  0
   46.9430   30.6460   46.2800 C   0  0  0  0  0  0  0  0  0  0  0  0
   46.6080   35.1720   42.3690 C   0  0  0  0  0  0  0  0  0  0  0  0
   47.7940   34.9760   41.6620 C   0  0  0  0  0  0  0  0  0  0  0  0
   48.6960   33.9900   42.1220 C   0  0  0  0  0  0  0  0  0  0  0  0
   48.3370   33.2870   43.2430 N   0  0  0  0  0  0  0  0  0  0  0  0
   47.1920   33.4990   43.9010 C   0  0  0  0  0  0  0  0  0  0  0  0
   46.3380   34.4350   43.4630 N   0  0  0  0  0  0  0  0  0  0  0  0
   47.3070   29.2720   46.3160 N   0  0  0  0  0  0  0  0  0  0  0  0
   48.6060   28.8410   46.8010 C   0  0  0  0  0  0  0  0  0  0  0  0
   48.4070   27.4970   47.4700 C   0  0  0  0  0  0  0  0  0  0  0  0
   46.9380   27.2000   47.2150 C   0  0  0  0  0  0  0  0  0  0  0  0
   46.6780   28.0220   45.9670 C   0  0  0  0  0  0  0  0  0  0  0  0
   47.7469   30.8969   44.2759 H   0  0  0  0  0  0  0  0  0  0  0  0
   45.9986   34.4080   46.0580 H   0  0  0  0  0  0  0  0  0  0  0  0
   44.9715   33.8256   48.7771 H   0  0  0  0  0  0  0  0  0  0  0  0
   44.9292   31.6410   50.2535 H   0  0  0  0  0  0  0  0  0  0  0  0
   45.8891   35.9329   42.0310 H   0  0  0  0  0  0  0  0  0  0  0  0
   48.0220   35.5745   40.7677 H   0  0  0  0  0  0  0  0  0  0  0  0
   49.6458   33.7949   41.6026 H   0  0  0  0  0  0  0  0  0  0  0  0
   49.3094   28.7440   45.9609 H   0  0  0  0  0  0  0  0  0  0  0  0
   49.0228   29.5730   47.5084 H   0  0  0  0  0  0  0  0  0  0  0  0
   49.0501   26.7298   47.0141 H   0  0  0  0  0  0  0  0  0  0  0  0
   48.6682   27.5026   48.5385 H   0  0  0  0  0  0  0  0  0  0  0  0
   46.7700   26.1283   47.0330 H   0  0  0  0  0  0  0  0  0  0  0  0
   46.2769   27.4440   48.0597 H   0  0  0  0  0  0  0  0  0  0  0  0
   45.6005   28.1500   45.7863 H   0  0  0  0  0  0  0  0  0  0  0  0
   47.0606   27.5683   45.0408 H   0  0  0  0  0  0  0  0  0  0  0  0
  1  9  2  0
  2  1  1  0
  2  3  2  0
  3  4  1  0
  4  8  2  0
  4  5  1  0
  5  6  1  0
  7  6  2  0
  8  7  1  0
  9 16  1  0
  9  8  1  0
 10 15  2  0
 11 12  2  0
 11 10  1  0
 12 13  1  0
 13 14  2  0
 14  2  1  0
 15 14  1  0
 16 17  1  0
 17 18  1  0
 19 18  1  0
 20 16  1  0
 20 19  1  0
  1 21  1  0
  3 22  1  0
  5 23  1  0
  6 24  1  0
 10 25  1  0
 11 26  1  0
 12 27  1  0
 17 28  1  0
 17 29  1  0
 18 30  1  0
 18 31  1  0
 19 32  1  0
 19 33  1  0
 20 34  1  0
 20 35  1  0
M  ISO  8  21  14  22  14  23   9  24  14  25  14  26  14  27  14  28  13
M  ISO  7  29  13  30  13  31  13  32  13  33  13  34  13  35  13
M  END
>  <minimizedAffinity>  (1) 
-5.21851015

>  <minimizedRMSD>  (1) 
0.107985131

$$$$
