
     RDKit          3D

 33 36  0  0  0  0  0  0  0  0999 V2000
   47.3400   31.4180   45.1960 C   0  0  0  0  0  0  0  0  0  0  0  0
   46.8860   32.7100   45.1320 C   0  0  0  0  0  0  0  0  0  0  0  0
   46.1840   33.3360   46.1690 C   0  0  0  0  0  0  0  0  0  0  0  0
   45.9240   32.6140   47.3410 C   0  0  0  0  0  0  0  0  0  0  0  0
   45.3040   32.8570   48.5190 N   0  0  0  0  0  0  0  0  0  0  0  0
   45.3870   31.7150   49.2810 C   0  0  0  0  0  0  0  0  0  0  0  0
   46.0540   30.7950   48.5600 N   0  0  0  0  0  0  0  0  0  0  0  0
   46.4000   31.3060   47.3670 C   0  0  0  0  0  0  0  0  0  0  0  0
   47.0920   30.6820   46.3510 C   0  0  0  0  0  0  0  0  0  0  0  0
   46.4980   35.1710   42.4140 C   0  0  0  0  0  0  0  0  0  0  0  0
   47.6700   34.9980   41.6790 C   0  0  0  0  0  0  0  0  0  0  0  0
   48.5850   34.0360   42.1230 C   0  0  0  0  0  0  0  0  0  0  0  0
   48.2790   33.3240   43.2480 N   0  0  0  0  0  0  0  0  0  0  0  0
   47.1280   33.5230   43.9350 C   0  0  0  0  0  0  0  0  0  0  0  0
   46.2440   34.4320   43.5300 N   0  0  0  0  0  0  0  0  0  0  0  0
   49.4850   29.9000   47.5890 F   0  0  0  0  0  0  0  0  0  0  0  0
   48.7180   28.9050   47.0910 C   0  0  0  0  0  0  0  0  0  0  0  0
   47.5460   29.3030   46.4860 C   0  0  0  0  0  0  0  0  0  0  0  0
   46.6770   28.3560   45.9360 C   0  0  0  0  0  0  0  0  0  0  0  0
   47.0500   27.0250   46.0320 C   0  0  0  0  0  0  0  0  0  0  0  0
   48.2140   26.5880   46.6280 C   0  0  0  0  0  0  0  0  0  0  0  0
   49.0330   27.5740   47.1550 C   0  0  0  0  0  0  0  0  0  0  0  0
   47.8884   30.9727   44.3528 H   0  0  0  0  0  0  0  0  0  0  0  0
   45.8426   34.3765   46.0653 H   0  0  0  0  0  0  0  0  0  0  0  0
   44.8508   33.7396   48.7956 H   0  0  0  0  0  0  0  0  0  0  0  0
   44.9821   31.5786   50.2946 H   0  0  0  0  0  0  0  0  0  0  0  0
   45.7626   35.9203   42.0858 H   0  0  0  0  0  0  0  0  0  0  0  0
   47.8694   35.5982   40.7790 H   0  0  0  0  0  0  0  0  0  0  0  0
   49.5252   33.8582   41.5805 H   0  0  0  0  0  0  0  0  0  0  0  0
   45.7375   28.6547   45.4480 H   0  0  0  0  0  0  0  0  0  0  0  0
   46.3745   26.2688   45.6056 H   0  0  0  0  0  0  0  0  0  0  0  0
   48.4767   25.5212   46.6819 H   0  0  0  0  0  0  0  0  0  0  0  0
   49.9724   27.2758   47.6436 H   0  0  0  0  0  0  0  0  0  0  0  0
  1  9  2  0
  2  1  1  0
  2  3  2  0
  3  4  1  0
  4  8  2  0
  4  5  1  0
  5  6  1  0
  7  6  2  0
  8  7  1  0
  9 18  1  0
  9  8  1  0
 10 15  2  0
 11 12  2  0
 11 10  1  0
 12 13  1  0
 13 14  2  0
 14  2  1  0
 15 14  1  0
 17 22  2  0
 17 16  1  0
 18 17  1  0
 19 20  1  0
 19 18  2  0
 20 21  2  0
 21 22  1  0
  1 23  1  0
  3 24  1  0
  5 25  1  0
  6 26  1  0
 10 27  1  0
 11 28  1  0
 12 29  1  0
 19 30  1  0
 20 31  1  0
 21 32  1  0
 22 33  1  0
M  ISO  8  23  14  24  14  25   9  26  14  27  14  28  14  29  14  30  14
M  ISO  3  31  14  32  14  33  14
M  END
>  <minimizedAffinity>  (1) 
-5.40622234

>  <minimizedRMSD>  (1) 
0.855880201

$$$$
