
     RDKit          3D

 39 42  0  0  0  0  0  0  0  0999 V2000
   46.1310   31.3010   45.0210 C   0  0  0  0  0  0  0  0  0  0  0  0
   46.3570   32.6490   45.2350 C   0  0  0  0  0  0  0  0  0  0  0  0
   46.2310   33.2470   46.4870 C   0  0  0  0  0  0  0  0  0  0  0  0
   45.8570   32.4560   47.5840 C   0  0  0  0  0  0  0  0  0  0  0  0
   45.6440   32.6960   48.9120 N   0  0  0  0  0  0  0  0  0  0  0  0
   45.2930   31.4970   49.4790 C   0  0  0  0  0  0  0  0  0  0  0  0
   45.3000   30.5660   48.5040 N   0  0  0  0  0  0  0  0  0  0  0  0
   45.6390   31.1170   47.3320 C   0  0  0  0  0  0  0  0  0  0  0  0
   45.7580   30.5090   46.1120 C   0  0  0  0  0  0  0  0  0  0  0  0
   46.3110   35.2570   42.6410 C   0  0  0  0  0  0  0  0  0  0  0  0
   47.5570   35.1010   42.0370 C   0  0  0  0  0  0  0  0  0  0  0  0
   48.4270   34.0890   42.5230 C   0  0  0  0  0  0  0  0  0  0  0  0
   47.9450   33.3500   43.5610 N   0  0  0  0  0  0  0  0  0  0  0  0
   46.7470   33.5130   44.1290 C   0  0  0  0  0  0  0  0  0  0  0  0
   45.9360   34.4610   43.6710 N   0  0  0  0  0  0  0  0  0  0  0  0
   45.5040   29.0670   45.9420 C   0  0  0  0  0  0  0  0  0  0  0  0
   44.1200   28.6050   46.2590 C   0  0  0  0  0  0  0  0  0  0  0  0
   44.1760   27.1080   46.5240 C   0  0  0  0  0  0  0  0  0  0  0  0
   45.2720   26.4270   45.7420 C   0  0  0  0  0  0  0  0  0  0  0  0
   46.6410   26.9330   46.0810 C   0  0  0  0  0  0  0  0  0  0  0  0
   46.4570   28.2660   46.8160 C   0  0  0  0  0  0  0  0  0  0  0  0
   46.2418   30.8630   44.0181 H   0  0  0  0  0  0  0  0  0  0  0  0
   46.4218   34.3229   46.6136 H   0  0  0  0  0  0  0  0  0  0  0  0
   45.7303   33.6020   49.3943 H   0  0  0  0  0  0  0  0  0  0  0  0
   45.0498   31.3262   50.5381 H   0  0  0  0  0  0  0  0  0  0  0  0
   45.6241   36.0354   42.2773 H   0  0  0  0  0  0  0  0  0  0  0  0
   47.8606   35.7483   41.2010 H   0  0  0  0  0  0  0  0  0  0  0  0
   49.4230   33.9137   42.0904 H   0  0  0  0  0  0  0  0  0  0  0  0
   45.6568   28.8973   44.8659 H   0  0  0  0  0  0  0  0  0  0  0  0
   43.7463   29.1288   47.1512 H   0  0  0  0  0  0  0  0  0  0  0  0
   43.4424   28.8205   45.4197 H   0  0  0  0  0  0  0  0  0  0  0  0
   44.3542   26.9455   47.5972 H   0  0  0  0  0  0  0  0  0  0  0  0
   43.2167   26.6744   46.2050 H   0  0  0  0  0  0  0  0  0  0  0  0
   45.0927   26.5952   44.6698 H   0  0  0  0  0  0  0  0  0  0  0  0
   45.2445   25.3588   46.0030 H   0  0  0  0  0  0  0  0  0  0  0  0
   47.1601   26.2123   46.7299 H   0  0  0  0  0  0  0  0  0  0  0  0
   47.2464   27.0661   45.1723 H   0  0  0  0  0  0  0  0  0  0  0  0
   47.4199   28.7879   46.9177 H   0  0  0  0  0  0  0  0  0  0  0  0
   46.0662   28.1265   47.8347 H   0  0  0  0  0  0  0  0  0  0  0  0
  1  2  2  0
  1  9  1  0
  2  3  1  0
  3  4  2  0
  4  5  1  0
  5  6  1  0
  7  6  2  0
  8  4  1  0
  8  7  1  0
  9  8  2  0
 10 15  2  0
 11 12  2  0
 11 10  1  0
 12 13  1  0
 13 14  2  0
 14  2  1  0
 15 14  1  0
 16  9  1  0
 16 17  1  0
 16 21  1  0
 17 18  1  0
 19 20  1  0
 19 18  1  0
 20 21  1  0
  1 22  1  0
  3 23  1  0
  5 24  1  0
  6 25  1  0
 10 26  1  0
 11 27  1  0
 12 28  1  0
 16 29  1  0
 17 30  1  0
 17 31  1  0
 18 32  1  0
 18 33  1  0
 19 34  1  0
 19 35  1  0
 20 36  1  0
 20 37  1  0
 21 38  1  0
 21 39  1  0
M  ISO  8  22  14  23  14  24   9  25  14  26  14  27  14  28  14  29  13
M  ISO  8  30  13  31  13  32  13  33  13  34  13  35  13  36  13  37  13
M  ISO  2  38  13  39  13
M  END
>  <minimizedAffinity>  (1) 
-5.6083312

>  <minimizedRMSD>  (1) 
1.33287644

$$$$
