
     RDKit          3D

 24 26  0  0  0  0  0  0  0  0999 V2000
   47.2390   31.3690   45.1250 C   0  0  0  0  0  0  0  0  0  0  0  0
   46.8790   32.7000   45.1180 C   0  0  0  0  0  0  0  0  0  0  0  0
   46.2620   33.3090   46.2040 C   0  0  0  0  0  0  0  0  0  0  0  0
   45.9890   32.5640   47.3540 C   0  0  0  0  0  0  0  0  0  0  0  0
   45.4160   32.8240   48.5650 N   0  0  0  0  0  0  0  0  0  0  0  0
   45.4330   31.6660   49.2900 C   0  0  0  0  0  0  0  0  0  0  0  0
   46.0180   30.7130   48.5050 N   0  0  0  0  0  0  0  0  0  0  0  0
   46.3660   31.2350   47.3220 C   0  0  0  0  0  0  0  0  0  0  0  0
   46.9740   30.6080   46.2660 C   0  0  0  0  0  0  0  0  0  0  0  0
   46.4950   35.2080   42.4610 C   0  0  0  0  0  0  0  0  0  0  0  0
   47.6720   35.0520   41.7250 C   0  0  0  0  0  0  0  0  0  0  0  0
   48.5980   34.0800   42.1450 C   0  0  0  0  0  0  0  0  0  0  0  0
   48.2920   33.3370   43.2610 N   0  0  0  0  0  0  0  0  0  0  0  0
   47.1410   33.5250   43.9400 C   0  0  0  0  0  0  0  0  0  0  0  0
   46.2410   34.4500   43.5540 N   0  0  0  0  0  0  0  0  0  0  0  0
   47.3300   29.2620   46.2970 O   0  0  0  0  0  0  0  0  0  0  0  0
   47.7255   30.9152   44.2490 H   0  0  0  0  0  0  0  0  0  0  0  0
   45.9895   34.3737   46.1584 H   0  0  0  0  0  0  0  0  0  0  0  0
   45.0385   33.7303   48.8765 H   0  0  0  0  0  0  0  0  0  0  0  0
   45.0488   31.5274   50.3114 H   0  0  0  0  0  0  0  0  0  0  0  0
   45.7590   35.9624   42.1461 H   0  0  0  0  0  0  0  0  0  0  0  0
   47.8697   35.6736   40.8393 H   0  0  0  0  0  0  0  0  0  0  0  0
   49.5383   33.9191   41.5974 H   0  0  0  0  0  0  0  0  0  0  0  0
   47.1439   28.7192   47.1038 H   0  0  0  0  0  0  0  0  0  0  0  0
  1  9  2  0
  2  1  1  0
  2  3  2  0
  3  4  1  0
  4  5  1  0
  5  6  1  0
  7  6  2  0
  8  4  2  0
  8  7  1  0
  9 16  1  0
  9  8  1  0
 10 15  2  0
 11 12  2  0
 11 10  1  0
 12 13  1  0
 13 14  2  0
 14  2  1  0
 15 14  1  0
  1 17  1  0
  3 18  1  0
  5 19  1  0
  6 20  1  0
 10 21  1  0
 11 22  1  0
 12 23  1  0
 16 24  1  0
M  ISO  8  17  14  18  14  19   9  20  14  21  14  22  14  23  14  24   3
M  END
>  <minimizedAffinity>  (1) 
-5.05812788

>  <minimizedRMSD>  (1) 
0.0406621359

$$$$
