
     RDKit          3D

 30 33  0  0  0  0  0  0  0  0999 V2000
   47.2780   31.4010   45.1790 C   0  0  0  0  0  0  0  0  0  0  0  0
   46.8780   32.7130   45.1360 C   0  0  0  0  0  0  0  0  0  0  0  0
   46.2220   33.3370   46.1960 C   0  0  0  0  0  0  0  0  0  0  0  0
   45.9540   32.6060   47.3600 C   0  0  0  0  0  0  0  0  0  0  0  0
   45.3620   32.8500   48.5540 N   0  0  0  0  0  0  0  0  0  0  0  0
   45.4030   31.7160   49.2970 C   0  0  0  0  0  0  0  0  0  0  0  0
   46.0240   30.7720   48.5520 N   0  0  0  0  0  0  0  0  0  0  0  0
   46.3750   31.2880   47.3560 C   0  0  0  0  0  0  0  0  0  0  0  0
   47.0200   30.6570   46.3260 C   0  0  0  0  0  0  0  0  0  0  0  0
   46.4820   35.1750   42.4260 C   0  0  0  0  0  0  0  0  0  0  0  0
   47.6550   35.0040   41.6920 C   0  0  0  0  0  0  0  0  0  0  0  0
   48.5790   34.0460   42.1280 C   0  0  0  0  0  0  0  0  0  0  0  0
   48.2760   33.3280   43.2550 N   0  0  0  0  0  0  0  0  0  0  0  0
   47.1370   33.5100   43.9480 C   0  0  0  0  0  0  0  0  0  0  0  0
   46.2470   34.4330   43.5270 N   0  0  0  0  0  0  0  0  0  0  0  0
   47.4280   29.2590   46.4130 C   0  0  0  0  0  0  0  0  0  0  0  0
   48.7130   28.8260   46.6640 C   0  0  0  0  0  0  0  0  0  0  0  0
   48.6790   27.4460   46.6670 C   0  0  0  0  0  0  0  0  0  0  0  0
   47.3920   27.0810   46.4210 N   0  0  0  0  0  0  0  0  0  0  0  0
   46.6430   28.1770   46.2690 N   0  0  0  0  0  0  0  0  0  0  0  0
   47.7939   30.9452   44.3210 H   0  0  0  0  0  0  0  0  0  0  0  0
   45.9184   34.3915   46.1190 H   0  0  0  0  0  0  0  0  0  0  0  0
   44.9497   33.7468   48.8483 H   0  0  0  0  0  0  0  0  0  0  0  0
   45.0058   31.5876   50.3147 H   0  0  0  0  0  0  0  0  0  0  0  0
   45.7416   35.9220   42.1040 H   0  0  0  0  0  0  0  0  0  0  0  0
   47.8499   35.6066   40.7926 H   0  0  0  0  0  0  0  0  0  0  0  0
   49.5189   33.8753   41.5826 H   0  0  0  0  0  0  0  0  0  0  0  0
   49.5967   29.4596   46.8302 H   0  0  0  0  0  0  0  0  0  0  0  0
   49.5304   26.7703   46.8361 H   0  0  0  0  0  0  0  0  0  0  0  0
   47.0487   26.1118   46.3613 H   0  0  0  0  0  0  0  0  0  0  0  0
  1  9  2  0
  2  1  1  0
  2  3  2  0
  3  4  1  0
  4  5  1  0
  5  6  1  0
  7  6  2  0
  8  4  2  0
  8  7  1  0
  9 16  1  0
  9  8  1  0
 10 15  2  0
 11 12  2  0
 11 10  1  0
 12 13  1  0
 13 14  2  0
 14  2  1  0
 15 14  1  0
 16 17  1  0
 17 18  2  0
 19 18  1  0
 20 16  2  0
 20 19  1  0
  1 21  1  0
  3 22  1  0
  5 23  1  0
  6 24  1  0
 10 25  1  0
 11 26  1  0
 12 27  1  0
 17 28  1  0
 18 29  1  0
 19 30  1  0
M  ISO  8  21  14  22  14  23   9  24  14  25  14  26  14  27  14  28  14
M  ISO  2  29  14  30   9
M  END
>  <minimizedAffinity>  (1) 
-5.17100716

>  <minimizedRMSD>  (1) 
0.285369456

$$$$
