
     RDKit          3D

 30 33  0  0  0  0  0  0  0  0999 V2000
   47.2650   31.3890   45.1480 C   0  0  0  0  0  0  0  0  0  0  0  0
   46.8730   32.7190   45.1340 C   0  0  0  0  0  0  0  0  0  0  0  0
   46.2390   33.3270   46.2010 C   0  0  0  0  0  0  0  0  0  0  0  0
   45.9680   32.5970   47.3560 C   0  0  0  0  0  0  0  0  0  0  0  0
   45.3830   32.8490   48.5590 N   0  0  0  0  0  0  0  0  0  0  0  0
   45.4130   31.7070   49.2960 C   0  0  0  0  0  0  0  0  0  0  0  0
   46.0170   30.7620   48.5360 N   0  0  0  0  0  0  0  0  0  0  0  0
   46.3660   31.2810   47.3450 C   0  0  0  0  0  0  0  0  0  0  0  0
   46.9950   30.6510   46.3060 C   0  0  0  0  0  0  0  0  0  0  0  0
   46.4800   35.1880   42.4310 C   0  0  0  0  0  0  0  0  0  0  0  0
   47.6560   35.0220   41.6990 C   0  0  0  0  0  0  0  0  0  0  0  0
   48.5790   34.0650   42.1340 C   0  0  0  0  0  0  0  0  0  0  0  0
   48.2860   33.3360   43.2580 N   0  0  0  0  0  0  0  0  0  0  0  0
   47.1360   33.5230   43.9430 C   0  0  0  0  0  0  0  0  0  0  0  0
   46.2380   34.4410   43.5360 N   0  0  0  0  0  0  0  0  0  0  0  0
   47.3800   29.2370   46.3960 C   0  0  0  0  0  0  0  0  0  0  0  0
   48.6740   28.7940   46.6120 C   0  0  0  0  0  0  0  0  0  0  0  0
   48.5500   27.3990   46.6210 C   0  0  0  0  0  0  0  0  0  0  0  0
   47.2160   27.0830   46.4170 C   0  0  0  0  0  0  0  0  0  0  0  0
   46.5570   28.2270   46.2880 O   0  0  0  0  0  0  0  0  0  0  0  0
   47.7683   30.9321   44.2831 H   0  0  0  0  0  0  0  0  0  0  0  0
   45.9487   34.3862   46.1382 H   0  0  0  0  0  0  0  0  0  0  0  0
   44.9857   33.7505   48.8595 H   0  0  0  0  0  0  0  0  0  0  0  0
   45.0214   31.5753   50.3155 H   0  0  0  0  0  0  0  0  0  0  0  0
   45.7397   35.9345   42.1074 H   0  0  0  0  0  0  0  0  0  0  0  0
   47.8525   35.6283   40.8025 H   0  0  0  0  0  0  0  0  0  0  0  0
   49.5189   33.9009   41.5866 H   0  0  0  0  0  0  0  0  0  0  0  0
   49.5849   29.3960   46.7452 H   0  0  0  0  0  0  0  0  0  0  0  0
   49.3691   26.6791   46.7650 H   0  0  0  0  0  0  0  0  0  0  0  0
   46.7843   26.0723   46.3707 H   0  0  0  0  0  0  0  0  0  0  0  0
  1  9  2  0
  2  1  1  0
  2  3  2  0
  3  4  1  0
  4  5  1  0
  5  6  1  0
  7  6  2  0
  8  4  2  0
  8  7  1  0
  9 16  1  0
  9  8  1  0
 10 15  2  0
 11 12  2  0
 11 10  1  0
 12 13  1  0
 13 14  2  0
 14  2  1  0
 15 14  1  0
 16 17  2  0
 17 18  1  0
 19 18  2  0
 20 16  1  0
 20 19  1  0
  1 21  1  0
  3 22  1  0
  5 23  1  0
  6 24  1  0
 10 25  1  0
 11 26  1  0
 12 27  1  0
 17 28  1  0
 18 29  1  0
 19 30  1  0
M  ISO  8  21  14  22  14  23   9  24  14  25  14  26  14  27  14  28  14
M  ISO  2  29  14  30  14
M  END
>  <minimizedAffinity>  (1) 
-5.1822567

>  <minimizedRMSD>  (1) 
0.329013437

$$$$
