
     RDKit          3D

 25 27  0  0  0  0  0  0  0  0999 V2000
   47.2400   31.3680   45.1160 C   0  0  0  0  0  0  0  0  0  0  0  0
   46.8730   32.7120   45.1220 C   0  0  0  0  0  0  0  0  0  0  0  0
   46.2580   33.3210   46.2020 C   0  0  0  0  0  0  0  0  0  0  0  0
   45.9800   32.5770   47.3480 C   0  0  0  0  0  0  0  0  0  0  0  0
   45.4110   32.8150   48.5580 N   0  0  0  0  0  0  0  0  0  0  0  0
   45.4200   31.6620   49.2810 C   0  0  0  0  0  0  0  0  0  0  0  0
   45.9990   30.7260   48.5040 N   0  0  0  0  0  0  0  0  0  0  0  0
   46.3490   31.2550   47.3230 C   0  0  0  0  0  0  0  0  0  0  0  0
   46.9640   30.6180   46.2620 C   0  0  0  0  0  0  0  0  0  0  0  0
   46.5120   35.1920   42.4410 C   0  0  0  0  0  0  0  0  0  0  0  0
   47.6880   35.0390   41.7070 C   0  0  0  0  0  0  0  0  0  0  0  0
   48.6050   34.0740   42.1430 C   0  0  0  0  0  0  0  0  0  0  0  0
   48.2840   33.3490   43.2590 N   0  0  0  0  0  0  0  0  0  0  0  0
   47.1480   33.5230   43.9380 C   0  0  0  0  0  0  0  0  0  0  0  0
   46.2470   34.4460   43.5390 N   0  0  0  0  0  0  0  0  0  0  0  0
   47.3290   29.2040   46.3030 C   0  0  0  0  0  0  0  0  0  0  0  0
   48.4950   28.8670   46.5860 O   0  0  0  0  0  0  0  0  0  0  0  0
   47.7290   30.9142   44.2414 H   0  0  0  0  0  0  0  0  0  0  0  0
   45.9898   34.3868   46.1565 H   0  0  0  0  0  0  0  0  0  0  0  0
   45.0346   33.7194   48.8762 H   0  0  0  0  0  0  0  0  0  0  0  0
   45.0307   31.5218   50.3002 H   0  0  0  0  0  0  0  0  0  0  0  0
   45.7763   35.9429   42.1173 H   0  0  0  0  0  0  0  0  0  0  0  0
   47.8883   35.6542   40.8174 H   0  0  0  0  0  0  0  0  0  0  0  0
   49.5506   33.9046   41.6071 H   0  0  0  0  0  0  0  0  0  0  0  0
   46.5733   28.4354   46.0837 H   0  0  0  0  0  0  0  0  0  0  0  0
  1  2  2  0
  1  9  1  0
  2  3  1  0
  3  4  2  0
  4  5  1  0
  5  6  1  0
  7  6  2  0
  8  4  1  0
  8  7  1  0
  9 16  1  0
  9  8  2  0
 10 15  2  0
 11 12  2  0
 11 10  1  0
 12 13  1  0
 13 14  2  0
 14  2  1  0
 15 14  1  0
 16 17  2  0
  1 18  1  0
  3 19  1  0
  5 20  1  0
  6 21  1  0
 10 22  1  0
 11 23  1  0
 12 24  1  0
 16 25  1  0
M  ISO  8  18  14  19  14  20   9  21  14  22  14  23  14  24  14  25   6
M  END
>  <minimizedAffinity>  (1) 
-4.92343235

>  <minimizedRMSD>  (1) 
0.062228635

$$$$
