
     RDKit          3D

 46 50  0  0  0  0  0  0  0  0999 V2000
   46.1750   31.3240   45.0560 C   0  0  0  0  0  0  0  0  0  0  0  0
   46.3690   32.6750   45.2780 C   0  0  0  0  0  0  0  0  0  0  0  0
   46.2140   33.2730   46.5160 C   0  0  0  0  0  0  0  0  0  0  0  0
   45.8450   32.4960   47.6090 C   0  0  0  0  0  0  0  0  0  0  0  0
   45.6080   32.7240   48.9320 N   0  0  0  0  0  0  0  0  0  0  0  0
   45.2760   31.5440   49.5080 C   0  0  0  0  0  0  0  0  0  0  0  0
   45.3130   30.6020   48.5390 N   0  0  0  0  0  0  0  0  0  0  0  0
   45.6570   31.1590   47.3750 C   0  0  0  0  0  0  0  0  0  0  0  0
   45.8040   30.5460   46.1590 C   0  0  0  0  0  0  0  0  0  0  0  0
   46.2480   35.2390   42.6330 C   0  0  0  0  0  0  0  0  0  0  0  0
   47.4810   35.1020   42.0170 C   0  0  0  0  0  0  0  0  0  0  0  0
   48.3620   34.1300   42.5040 C   0  0  0  0  0  0  0  0  0  0  0  0
   47.9610   33.3630   43.5650 N   0  0  0  0  0  0  0  0  0  0  0  0
   46.7590   33.5190   44.1420 C   0  0  0  0  0  0  0  0  0  0  0  0
   45.8960   34.4510   43.6850 N   0  0  0  0  0  0  0  0  0  0  0  0
   45.5780   29.0990   46.0070 C   0  0  0  0  0  0  0  0  0  0  0  0
   46.6010   28.1600   45.9130 C   0  0  0  0  0  0  0  0  0  0  0  0
   45.9020   26.9440   45.7820 C   0  0  0  0  0  0  0  0  0  0  0  0
   44.5450   27.2180   45.8030 C   0  0  0  0  0  0  0  0  0  0  0  0
   44.4140   28.5260   45.9400 O   0  0  0  0  0  0  0  0  0  0  0  0
   43.3990   26.2580   45.6960 C   0  0  0  0  0  0  0  0  0  0  0  0
   42.3520   26.7500   44.7400 C   0  0  0  0  0  0  0  0  0  0  0  0
   41.2020   27.4370   45.4370 C   0  0  0  0  0  0  0  0  0  0  0  0
   40.4790   26.4830   46.3550 C   0  0  0  0  0  0  0  0  0  0  0  0
   41.4260   25.4850   46.9550 C   0  0  0  0  0  0  0  0  0  0  0  0
   42.8450   25.9730   47.0630 C   0  0  0  0  0  0  0  0  0  0  0  0
   46.3063   30.8807   44.0579 H   0  0  0  0  0  0  0  0  0  0  0  0
   46.3812   34.3537   46.6348 H   0  0  0  0  0  0  0  0  0  0  0  0
   45.6705   33.6343   49.4099 H   0  0  0  0  0  0  0  0  0  0  0  0
   45.0235   31.3823   50.5663 H   0  0  0  0  0  0  0  0  0  0  0  0
   45.5414   35.9977   42.2655 H   0  0  0  0  0  0  0  0  0  0  0  0
   47.7606   35.7411   41.1665 H   0  0  0  0  0  0  0  0  0  0  0  0
   49.3517   33.9857   42.0460 H   0  0  0  0  0  0  0  0  0  0  0  0
   47.6881   28.3265   45.9355 H   0  0  0  0  0  0  0  0  0  0  0  0
   46.3565   25.9474   45.6804 H   0  0  0  0  0  0  0  0  0  0  0  0
   43.7665   25.3098   45.2767 H   0  0  0  0  0  0  0  0  0  0  0  0
   41.9591   25.8911   44.1761 H   0  0  0  0  0  0  0  0  0  0  0  0
   42.8278   27.4885   44.0780 H   0  0  0  0  0  0  0  0  0  0  0  0
   41.5909   28.2795   46.0277 H   0  0  0  0  0  0  0  0  0  0  0  0
   40.4938   27.7950   44.6752 H   0  0  0  0  0  0  0  0  0  0  0  0
   40.0014   27.0557   47.1637 H   0  0  0  0  0  0  0  0  0  0  0  0
   39.7249   25.9385   45.7678 H   0  0  0  0  0  0  0  0  0  0  0  0
   41.0692   25.2339   47.9648 H   0  0  0  0  0  0  0  0  0  0  0  0
   41.4398   24.6157   46.2811 H   0  0  0  0  0  0  0  0  0  0  0  0
   43.4589   25.2014   47.5506 H   0  0  0  0  0  0  0  0  0  0  0  0
   42.8631   26.8977   47.6585 H   0  0  0  0  0  0  0  0  0  0  0  0
  1  2  2  0
  1  9  1  0
  2  3  1  0
  3  4  2  0
  4  5  1  0
  5  6  1  0
  7  6  2  0
  8  4  1  0
  8  7  1  0
  9  8  2  0
 10 15  2  0
 11 12  2  0
 11 10  1  0
 12 13  1  0
 13 14  2  0
 14  2  1  0
 15 14  1  0
 16  9  1  0
 17 16  2  0
 18 19  2  0
 18 17  1  0
 19 20  1  0
 20 16  1  0
 21 19  1  0
 21 26  1  0
 22 23  1  0
 22 21  1  0
 23 24  1  0
 24 25  1  0
 25 26  1  0
  1 27  1  0
  3 28  1  0
  5 29  1  0
  6 30  1  0
 10 31  1  0
 11 32  1  0
 12 33  1  0
 17 34  1  0
 18 35  1  0
 21 36  1  0
 22 37  1  0
 22 38  1  0
 23 39  1  0
 23 40  1  0
 24 41  1  0
 24 42  1  0
 25 43  1  0
 25 44  1  0
 26 45  1  0
 26 46  1  0
M  ISO  8  27  14  28  14  29   9  30  14  31  14  32  14  33  14  34  14
M  ISO  8  35  14  36  13  37  13  38  13  39  13  40  13  41  13  42  13
M  ISO  4  43  13  44  13  45  13  46  13
M  END
>  <minimizedAffinity>  (1) 
-6.43839645

>  <minimizedRMSD>  (1) 
2.43844795

$$$$
