
     RDKit          3D

 33 36  0  0  0  0  0  0  0  0999 V2000
   47.2540   31.3870   45.1630 C   0  0  0  0  0  0  0  0  0  0  0  0
   46.8680   32.7240   45.1410 C   0  0  0  0  0  0  0  0  0  0  0  0
   46.2410   33.3430   46.2030 C   0  0  0  0  0  0  0  0  0  0  0  0
   45.9710   32.6250   47.3550 C   0  0  0  0  0  0  0  0  0  0  0  0
   45.3850   32.9000   48.5620 N   0  0  0  0  0  0  0  0  0  0  0  0
   45.4080   31.7650   49.3070 C   0  0  0  0  0  0  0  0  0  0  0  0
   46.0020   30.8060   48.5650 N   0  0  0  0  0  0  0  0  0  0  0  0
   46.3600   31.3070   47.3570 C   0  0  0  0  0  0  0  0  0  0  0  0
   46.9780   30.6690   46.3280 C   0  0  0  0  0  0  0  0  0  0  0  0
   46.5120   35.1660   42.4100 C   0  0  0  0  0  0  0  0  0  0  0  0
   47.6820   34.9800   41.6780 C   0  0  0  0  0  0  0  0  0  0  0  0
   48.5880   34.0200   42.1230 C   0  0  0  0  0  0  0  0  0  0  0  0
   48.2690   33.3220   43.2500 N   0  0  0  0  0  0  0  0  0  0  0  0
   47.1360   33.5140   43.9420 C   0  0  0  0  0  0  0  0  0  0  0  0
   46.2600   34.4330   43.5250 N   0  0  0  0  0  0  0  0  0  0  0  0
   47.3560   29.2440   46.4340 C   0  0  0  0  0  0  0  0  0  0  0  0
   48.6480   28.7800   46.3290 C   0  0  0  0  0  0  0  0  0  0  0  0
   48.5150   27.3960   46.4920 C   0  0  0  0  0  0  0  0  0  0  0  0
   47.1620   27.1090   46.6820 C   0  0  0  0  0  0  0  0  0  0  0  0
   46.5190   28.2660   46.6360 O   0  0  0  0  0  0  0  0  0  0  0  0
   46.5860   25.7520   46.8940 C   0  0  0  0  0  0  0  0  0  0  0  0
   47.5900   24.8210   46.7100 F   0  0  0  0  0  0  0  0  0  0  0  0
   46.1540   25.6670   48.2140 F   0  0  0  0  0  0  0  0  0  0  0  0
   45.4990   25.5090   46.0820 F   0  0  0  0  0  0  0  0  0  0  0  0
   47.7533   30.9178   44.3024 H   0  0  0  0  0  0  0  0  0  0  0  0
   45.9568   34.4034   46.1342 H   0  0  0  0  0  0  0  0  0  0  0  0
   44.9954   33.8079   48.8533 H   0  0  0  0  0  0  0  0  0  0  0  0
   45.0149   31.6482   50.3277 H   0  0  0  0  0  0  0  0  0  0  0  0
   45.7806   35.9184   42.0799 H   0  0  0  0  0  0  0  0  0  0  0  0
   47.8849   35.5739   40.7746 H   0  0  0  0  0  0  0  0  0  0  0  0
   49.5281   33.8316   41.5839 H   0  0  0  0  0  0  0  0  0  0  0  0
   49.5671   29.3596   46.1576 H   0  0  0  0  0  0  0  0  0  0  0  0
   49.3342   26.6621   46.4736 H   0  0  0  0  0  0  0  0  0  0  0  0
  1  9  2  0
  2  1  1  0
  2  3  2  0
  3  4  1  0
  4  8  2  0
  4  5  1  0
  5  6  1  0
  7  6  2  0
  8  7  1  0
  9 16  1  0
  9  8  1  0
 10 15  2  0
 11 12  2  0
 11 10  1  0
 12 13  1  0
 13 14  2  0
 14  2  1  0
 15 14  1  0
 16 20  1  0
 17 16  2  0
 17 18  1  0
 18 19  2  0
 19 21  1  0
 20 19  1  0
 21 23  1  0
 22 21  1  0
 24 21  1  0
  1 25  1  0
  3 26  1  0
  5 27  1  0
  6 28  1  0
 10 29  1  0
 11 30  1  0
 12 31  1  0
 17 32  1  0
 18 33  1  0
M  ISO  8  25  14  26  14  27   9  28  14  29  14  30  14  31  14  32  14
M  ISO  1  33  14
M  END
>  <minimizedAffinity>  (1) 
-5.26762199

>  <minimizedRMSD>  (1) 
0.292826921

$$$$
