
     RDKit          3D

 32 35  0  0  0  0  0  0  0  0999 V2000
   47.2920   31.4140   45.1760 C   0  0  0  0  0  0  0  0  0  0  0  0
   46.8650   32.7440   45.1500 C   0  0  0  0  0  0  0  0  0  0  0  0
   46.2130   33.3340   46.2010 C   0  0  0  0  0  0  0  0  0  0  0  0
   45.9510   32.6040   47.3560 C   0  0  0  0  0  0  0  0  0  0  0  0
   45.3500   32.8490   48.5530 N   0  0  0  0  0  0  0  0  0  0  0  0
   45.4000   31.7100   49.3000 C   0  0  0  0  0  0  0  0  0  0  0  0
   46.0330   30.7820   48.5480 N   0  0  0  0  0  0  0  0  0  0  0  0
   46.3770   31.3010   47.3630 C   0  0  0  0  0  0  0  0  0  0  0  0
   47.0330   30.6710   46.3310 C   0  0  0  0  0  0  0  0  0  0  0  0
   46.4590   35.1870   42.4310 C   0  0  0  0  0  0  0  0  0  0  0  0
   47.6380   35.0090   41.6890 C   0  0  0  0  0  0  0  0  0  0  0  0
   48.5710   34.0490   42.1270 C   0  0  0  0  0  0  0  0  0  0  0  0
   48.2580   33.3510   43.2540 N   0  0  0  0  0  0  0  0  0  0  0  0
   47.1250   33.5340   43.9510 C   0  0  0  0  0  0  0  0  0  0  0  0
   46.2300   34.4460   43.5420 N   0  0  0  0  0  0  0  0  0  0  0  0
   47.4500   29.2710   46.4330 C   0  0  0  0  0  0  0  0  0  0  0  0
   48.7620   28.8640   46.5980 C   0  0  0  0  0  0  0  0  0  0  0  0
   48.6570   27.4610   46.6390 C   0  0  0  0  0  0  0  0  0  0  0  0
   47.3240   27.1140   46.5000 C   0  0  0  0  0  0  0  0  0  0  0  0
   46.6280   28.2450   46.3770 O   0  0  0  0  0  0  0  0  0  0  0  0
   46.7890   25.8060   46.4890 N   0  0  0  0  0  0  0  0  0  0  0  0
   47.8140   30.9671   44.3171 H   0  0  0  0  0  0  0  0  0  0  0  0
   45.8966   34.3852   46.1314 H   0  0  0  0  0  0  0  0  0  0  0  0
   44.9292   33.7428   48.8444 H   0  0  0  0  0  0  0  0  0  0  0  0
   45.0027   31.5727   50.3165 H   0  0  0  0  0  0  0  0  0  0  0  0
   45.7171   35.9323   42.1083 H   0  0  0  0  0  0  0  0  0  0  0  0
   47.8287   35.6064   40.7853 H   0  0  0  0  0  0  0  0  0  0  0  0
   49.5105   33.8709   41.5832 H   0  0  0  0  0  0  0  0  0  0  0  0
   49.6663   29.4852   46.6777 H   0  0  0  0  0  0  0  0  0  0  0  0
   49.4941   26.7579   46.7611 H   0  0  0  0  0  0  0  0  0  0  0  0
   45.7746   25.6654   46.3785 H   0  0  0  0  0  0  0  0  0  0  0  0
   47.4134   24.9933   46.5915 H   0  0  0  0  0  0  0  0  0  0  0  0
  1  9  2  0
  2  1  1  0
  2  3  2  0
  3  4  1  0
  4  8  2  0
  4  5  1  0
  5  6  1  0
  7  6  2  0
  8  7  1  0
  9 16  1  0
  9  8  1  0
 10 15  2  0
 11 12  2  0
 11 10  1  0
 12 13  1  0
 13 14  2  0
 14  2  1  0
 15 14  1  0
 16 17  2  0
 17 18  1  0
 19 18  2  0
 20 16  1  0
 20 19  1  0
 21 19  1  0
  1 22  1  0
  3 23  1  0
  5 24  1  0
  6 25  1  0
 10 26  1  0
 11 27  1  0
 12 28  1  0
 17 29  1  0
 18 30  1  0
 21 31  1  0
 21 32  1  0
M  ISO  8  22  14  23  14  24   9  25  14  26  14  27  14  28  14  29  14
M  ISO  1  30  14
M  END
>  <minimizedAffinity>  (1) 
-5.26696825

>  <minimizedRMSD>  (1) 
0.076562278

$$$$
