
     RDKit          3D

 31 34  0  0  0  0  0  0  0  0999 V2000
   47.2750   31.4040   45.1670 C   0  0  0  0  0  0  0  0  0  0  0  0
   46.8670   32.7380   45.1520 C   0  0  0  0  0  0  0  0  0  0  0  0
   46.2260   33.3360   46.2070 C   0  0  0  0  0  0  0  0  0  0  0  0
   45.9610   32.5950   47.3590 C   0  0  0  0  0  0  0  0  0  0  0  0
   45.3660   32.8470   48.5590 N   0  0  0  0  0  0  0  0  0  0  0  0
   45.4040   31.7050   49.2950 C   0  0  0  0  0  0  0  0  0  0  0  0
   46.0240   30.7580   48.5400 N   0  0  0  0  0  0  0  0  0  0  0  0
   46.3680   31.2880   47.3570 C   0  0  0  0  0  0  0  0  0  0  0  0
   47.0100   30.6600   46.3220 C   0  0  0  0  0  0  0  0  0  0  0  0
   46.4490   35.1920   42.4340 C   0  0  0  0  0  0  0  0  0  0  0  0
   47.6310   35.0110   41.6970 C   0  0  0  0  0  0  0  0  0  0  0  0
   48.5540   34.0650   42.1230 C   0  0  0  0  0  0  0  0  0  0  0  0
   48.2740   33.3420   43.2530 N   0  0  0  0  0  0  0  0  0  0  0  0
   47.1390   33.5290   43.9450 C   0  0  0  0  0  0  0  0  0  0  0  0
   46.2280   34.4470   43.5430 N   0  0  0  0  0  0  0  0  0  0  0  0
   47.4100   29.2520   46.4100 C   0  0  0  0  0  0  0  0  0  0  0  0
   48.6950   28.8130   46.6190 C   0  0  0  0  0  0  0  0  0  0  0  0
   48.5750   27.4170   46.6250 C   0  0  0  0  0  0  0  0  0  0  0  0
   47.2330   27.0900   46.4190 C   0  0  0  0  0  0  0  0  0  0  0  0
   46.5800   28.2360   46.2960 O   0  0  0  0  0  0  0  0  0  0  0  0
   46.5790   25.8680   46.3370 O   0  0  0  0  0  0  0  0  0  0  0  0
   47.7859   30.9539   44.3031 H   0  0  0  0  0  0  0  0  0  0  0  0
   45.9232   34.3917   46.1452 H   0  0  0  0  0  0  0  0  0  0  0  0
   44.9589   33.7453   48.8560 H   0  0  0  0  0  0  0  0  0  0  0  0
   45.0072   31.5712   50.3122 H   0  0  0  0  0  0  0  0  0  0  0  0
   45.7058   35.9360   42.1115 H   0  0  0  0  0  0  0  0  0  0  0  0
   47.8228   35.6104   40.7948 H   0  0  0  0  0  0  0  0  0  0  0  0
   49.4882   33.8998   41.5663 H   0  0  0  0  0  0  0  0  0  0  0  0
   49.6052   29.4164   46.7508 H   0  0  0  0  0  0  0  0  0  0  0  0
   49.3976   26.7007   46.7676 H   0  0  0  0  0  0  0  0  0  0  0  0
   45.6014   25.8391   46.1833 H   0  0  0  0  0  0  0  0  0  0  0  0
  1  9  2  0
  2  1  1  0
  2  3  2  0
  3  4  1  0
  4  5  1  0
  5  6  1  0
  7  6  2  0
  8  4  2  0
  8  7  1  0
  9 16  1  0
  9  8  1  0
 10 15  2  0
 11 12  2  0
 11 10  1  0
 12 13  1  0
 13 14  2  0
 14  2  1  0
 15 14  1  0
 16 17  2  0
 17 18  1  0
 19 18  2  0
 20 16  1  0
 20 19  1  0
 21 19  1  0
  1 22  1  0
  3 23  1  0
  5 24  1  0
  6 25  1  0
 10 26  1  0
 11 27  1  0
 12 28  1  0
 17 29  1  0
 18 30  1  0
 21 31  1  0
M  ISO  8  22  14  23  14  24   9  25  14  26  14  27  14  28  14  29  14
M  ISO  2  30  14  31   3
M  END
>  <minimizedAffinity>  (1) 
-5.2572732

>  <minimizedRMSD>  (1) 
0.0206523184

$$$$
