
     RDKit          3D

 33 36  0  0  0  0  0  0  0  0999 V2000
   47.2590   31.3930   45.1550 C   0  0  0  0  0  0  0  0  0  0  0  0
   46.8700   32.7340   45.1410 C   0  0  0  0  0  0  0  0  0  0  0  0
   46.2410   33.3340   46.2010 C   0  0  0  0  0  0  0  0  0  0  0  0
   45.9640   32.6110   47.3520 C   0  0  0  0  0  0  0  0  0  0  0  0
   45.3800   32.8600   48.5550 N   0  0  0  0  0  0  0  0  0  0  0  0
   45.4030   31.7230   49.2890 C   0  0  0  0  0  0  0  0  0  0  0  0
   46.0020   30.7810   48.5340 N   0  0  0  0  0  0  0  0  0  0  0  0
   46.3570   31.2930   47.3440 C   0  0  0  0  0  0  0  0  0  0  0  0
   46.9820   30.6600   46.3120 C   0  0  0  0  0  0  0  0  0  0  0  0
   46.4900   35.1780   42.4230 C   0  0  0  0  0  0  0  0  0  0  0  0
   47.6570   35.0090   41.6910 C   0  0  0  0  0  0  0  0  0  0  0  0
   48.5790   34.0530   42.1310 C   0  0  0  0  0  0  0  0  0  0  0  0
   48.2830   33.3390   43.2520 N   0  0  0  0  0  0  0  0  0  0  0  0
   47.1480   33.5190   43.9460 C   0  0  0  0  0  0  0  0  0  0  0  0
   46.2630   34.4320   43.5300 N   0  0  0  0  0  0  0  0  0  0  0  0
   47.3600   29.2440   46.4040 C   0  0  0  0  0  0  0  0  0  0  0  0
   48.6680   28.7940   46.5520 C   0  0  0  0  0  0  0  0  0  0  0  0
   48.5450   27.4080   46.5940 C   0  0  0  0  0  0  0  0  0  0  0  0
   47.1910   27.0890   46.4720 C   0  0  0  0  0  0  0  0  0  0  0  0
   46.5390   28.2340   46.3620 O   0  0  0  0  0  0  0  0  0  0  0  0
   46.6260   25.7130   46.4690 C   0  0  0  0  0  0  0  0  0  0  0  0
   47.7622   30.9331   44.2917 H   0  0  0  0  0  0  0  0  0  0  0  0
   45.9545   34.3942   46.1385 H   0  0  0  0  0  0  0  0  0  0  0  0
   44.9862   33.7626   48.8568 H   0  0  0  0  0  0  0  0  0  0  0  0
   45.0081   31.5927   50.3074 H   0  0  0  0  0  0  0  0  0  0  0  0
   45.7457   35.9217   42.1022 H   0  0  0  0  0  0  0  0  0  0  0  0
   47.8516   35.6097   40.7903 H   0  0  0  0  0  0  0  0  0  0  0  0
   49.5188   33.8826   41.5854 H   0  0  0  0  0  0  0  0  0  0  0  0
   49.5871   29.3946   46.6201 H   0  0  0  0  0  0  0  0  0  0  0  0
   49.3705   26.6894   46.7041 H   0  0  0  0  0  0  0  0  0  0  0  0
   46.4859   25.3719   47.5053 H   0  0  0  0  0  0  0  0  0  0  0  0
   45.6563   25.7159   45.9497 H   0  0  0  0  0  0  0  0  0  0  0  0
   47.3180   25.0336   45.9497 H   0  0  0  0  0  0  0  0  0  0  0  0
  1  9  2  0
  2  1  1  0
  2  3  2  0
  3  4  1  0
  4  5  1  0
  5  6  1  0
  7  6  2  0
  8  4  2  0
  8  7  1  0
  9 16  1  0
  9  8  1  0
 10 15  2  0
 11 12  2  0
 11 10  1  0
 12 13  1  0
 13 14  2  0
 14  2  1  0
 15 14  1  0
 16 17  2  0
 17 18  1  0
 19 18  2  0
 20 16  1  0
 20 19  1  0
 21 19  1  0
  1 22  1  0
  3 23  1  0
  5 24  1  0
  6 25  1  0
 10 26  1  0
 11 27  1  0
 12 28  1  0
 17 29  1  0
 18 30  1  0
 21 31  1  0
 21 32  1  0
 21 33  1  0
M  ISO  8  22  14  23  14  24   9  25  14  26  14  27  14  28  14  29  14
M  ISO  4  30  14  31   8  32   8  33   8
M  END
>  <minimizedAffinity>  (1) 
-5.26972246

>  <minimizedRMSD>  (1) 
0.045534689

$$$$
