
     RDKit          3D

 27 28  0  0  0  0  0  0  0  0999 V2000
   45.4970   36.0750   43.1610 C   0  0  0  0  0  0  0  0  0  0  0  0
   46.3760   34.9960   43.0590 C   0  0  0  0  0  0  0  0  0  0  0  0
   46.3350   34.0450   44.0660 C   0  0  0  0  0  0  0  0  0  0  0  0
   45.4560   34.2070   45.0840 N   0  0  0  0  0  0  0  0  0  0  0  0
   44.6130   35.2630   45.1600 C   0  0  0  0  0  0  0  0  0  0  0  0
   44.6420   36.1990   44.1850 N   0  0  0  0  0  0  0  0  0  0  0  0
   47.2650   34.9120   41.9480 C   0  0  0  0  0  0  0  0  0  0  0  0
   48.4150   35.4110   42.0680 O   0  0  0  0  0  0  0  0  0  0  0  0
   46.8990   34.2900   40.7210 N   0  0  0  0  0  0  0  0  0  0  0  0
   45.5800   33.6970   40.5240 C   0  0  0  0  0  0  0  0  0  0  0  0
   45.5450   32.9570   39.2270 C   0  0  0  0  0  0  0  0  0  0  0  0
   46.7450   32.0660   39.0090 C   0  0  0  0  0  0  0  0  0  0  0  0
   48.0420   32.7270   39.3640 C   0  0  0  0  0  0  0  0  0  0  0  0
   47.8240   34.2190   39.6080 C   0  0  0  0  0  0  0  0  0  0  0  0
   45.5064   36.8468   42.3773 H   0  0  0  0  0  0  0  0  0  0  0  0
   47.0050   33.1730   44.0392 H   0  0  0  0  0  0  0  0  0  0  0  0
   43.9137   35.3584   46.0037 H   0  0  0  0  0  0  0  0  0  0  0  0
   45.3666   32.9999   41.3477 H   0  0  0  0  0  0  0  0  0  0  0  0
   44.8227   34.4946   40.5069 H   0  0  0  0  0  0  0  0  0  0  0  0
   44.6396   32.3327   39.2067 H   0  0  0  0  0  0  0  0  0  0  0  0
   45.5509   33.7097   38.4248 H   0  0  0  0  0  0  0  0  0  0  0  0
   46.6297   31.1657   39.6304 H   0  0  0  0  0  0  0  0  0  0  0  0
   46.7832   31.8250   37.9364 H   0  0  0  0  0  0  0  0  0  0  0  0
   48.4476   32.2651   40.2762 H   0  0  0  0  0  0  0  0  0  0  0  0
   48.7498   32.5990   38.5318 H   0  0  0  0  0  0  0  0  0  0  0  0
   48.7740   34.7110   39.8638 H   0  0  0  0  0  0  0  0  0  0  0  0
   47.4333   34.7291   38.7152 H   0  0  0  0  0  0  0  0  0  0  0  0
  1  6  2  0
  2  1  1  0
  2  3  2  0
  3  4  1  0
  4  5  2  0
  6  5  1  0
  7  8  2  0
  7  2  1  0
  9  7  1  0
 10  9  1  0
 11 10  1  0
 12 11  1  0
 12 13  1  0
 13 14  1  0
 14  9  1  0
  1 15  1  0
  3 16  1  0
  5 17  1  0
 10 18  1  0
 10 19  1  0
 11 20  1  0
 11 21  1  0
 12 22  1  0
 12 23  1  0
 13 24  1  0
 13 25  1  0
 14 26  1  0
 14 27  1  0
M  ISO  8  15  14  16  14  17  14  18  13  19  13  20  13  21  13  22  13
M  ISO  5  23  13  24  13  25  13  26  13  27  13
M  END
>  <minimizedAffinity>  (1) 
-4.2009263

>  <minimizedRMSD>  (1) 
0.587885559

$$$$
