
     RDKit          3D

 25 26  0  0  0  0  0  0  0  0999 V2000
   46.4130   32.7100   44.9930 C   0  0  0  0  0  0  0  0  0  0  0  0
   45.8900   33.9790   44.4830 C   0  0  0  0  0  0  0  0  0  0  0  0
   46.2300   34.4700   43.2300 C   0  0  0  0  0  0  0  0  0  0  0  0
   45.6730   35.7010   42.8120 C   0  0  0  0  0  0  0  0  0  0  0  0
   44.8290   36.3340   43.6750 N   0  0  0  0  0  0  0  0  0  0  0  0
   44.5290   35.8220   44.8780 C   0  0  0  0  0  0  0  0  0  0  0  0
   45.0460   34.6660   45.2810 N   0  0  0  0  0  0  0  0  0  0  0  0
   46.7800   32.8940   46.4370 C   0  0  0  0  0  0  0  0  0  0  0  0
   46.1450   31.9180   47.3470 C   0  0  0  0  0  0  0  0  0  0  0  0
   45.7340   30.6820   46.9090 C   0  0  0  0  0  0  0  0  0  0  0  0
   45.1380   29.7870   47.7940 C   0  0  0  0  0  0  0  0  0  0  0  0
   44.9970   30.2250   49.1110 C   0  0  0  0  0  0  0  0  0  0  0  0
   45.4250   31.4780   49.5100 C   0  0  0  0  0  0  0  0  0  0  0  0
   45.9970   32.3220   48.6310 N   0  0  0  0  0  0  0  0  0  0  0  0
   47.3038   32.4175   44.4178 H   0  0  0  0  0  0  0  0  0  0  0  0
   45.6527   31.9212   44.8941 H   0  0  0  0  0  0  0  0  0  0  0  0
   46.9178   33.9137   42.5762 H   0  0  0  0  0  0  0  0  0  0  0  0
   45.9118   36.1311   41.8281 H   0  0  0  0  0  0  0  0  0  0  0  0
   43.8433   36.3684   45.5423 H   0  0  0  0  0  0  0  0  0  0  0  0
   47.8715   32.7961   46.5318 H   0  0  0  0  0  0  0  0  0  0  0  0
   46.4169   33.8891   46.7336 H   0  0  0  0  0  0  0  0  0  0  0  0
   45.8763   30.3986   45.8557 H   0  0  0  0  0  0  0  0  0  0  0  0
   44.7978   28.7914   47.4729 H   0  0  0  0  0  0  0  0  0  0  0  0
   44.5334   29.5564   49.8512 H   0  0  0  0  0  0  0  0  0  0  0  0
   45.2966   31.7885   50.5574 H   0  0  0  0  0  0  0  0  0  0  0  0
  1  8  1  0
  2  1  1  0
  2  7  1  0
  3  2  2  0
  4  3  1  0
  4  5  2  0
  5  6  1  0
  6  7  2  0
  8  9  1  0
  9 14  1  0
 10  9  2  0
 10 11  1  0
 11 12  2  0
 12 13  1  0
 14 13  2  0
  1 15  1  0
  1 16  1  0
  3 17  1  0
  4 18  1  0
  6 19  1  0
  8 20  1  0
  8 21  1  0
 10 22  1  0
 11 23  1  0
 12 24  1  0
 13 25  1  0
M  ISO  8  15   8  16   8  17  14  18  14  19  14  20   8  21   8  22  14
M  ISO  3  23  14  24  14  25  14
M  END
>  <minimizedAffinity>  (1) 
-4.54211283

>  <minimizedRMSD>  (1) 
6.72052526

$$$$
