
     RDKit          3D

 26 27  0  0  0  0  0  0  0  0999 V2000
   45.4630   33.8830   45.8900 C   0  0  0  0  0  0  0  0  0  0  0  0
   45.7360   34.2860   44.5120 C   0  0  0  0  0  0  0  0  0  0  0  0
   46.8540   33.8330   43.8200 C   0  0  0  0  0  0  0  0  0  0  0  0
   47.0360   34.2740   42.4800 C   0  0  0  0  0  0  0  0  0  0  0  0
   46.0970   35.1170   41.9580 N   0  0  0  0  0  0  0  0  0  0  0  0
   45.0210   35.5300   42.6810 C   0  0  0  0  0  0  0  0  0  0  0  0
   44.8510   35.1090   43.9520 N   0  0  0  0  0  0  0  0  0  0  0  0
   46.6240   33.0740   46.3950 C   0  0  0  0  0  0  0  0  0  0  0  0
   46.0640   32.0370   47.3060 C   0  0  0  0  0  0  0  0  0  0  0  0
   45.7630   30.7820   46.8390 C   0  0  0  0  0  0  0  0  0  0  0  0
   45.2380   29.8110   47.6970 C   0  0  0  0  0  0  0  0  0  0  0  0
   45.0160   30.0980   49.0070 C   0  0  0  0  0  0  0  0  0  0  0  0
   45.3050   31.3610   49.5320 C   0  0  0  0  0  0  0  0  0  0  0  0
   45.8250   32.2850   48.6380 C   0  0  0  0  0  0  0  0  0  0  0  0
   44.5465   33.2757   45.9232 H   0  0  0  0  0  0  0  0  0  0  0  0
   45.3249   34.7738   46.5204 H   0  0  0  0  0  0  0  0  0  0  0  0
   47.5767   33.1533   44.2952 H   0  0  0  0  0  0  0  0  0  0  0  0
   47.9021   33.9477   41.8855 H   0  0  0  0  0  0  0  0  0  0  0  0
   44.2857   36.2107   42.2272 H   0  0  0  0  0  0  0  0  0  0  0  0
   47.1467   32.5960   45.5534 H   0  0  0  0  0  0  0  0  0  0  0  0
   47.3490   33.7116   46.9221 H   0  0  0  0  0  0  0  0  0  0  0  0
   45.9363   30.5380   45.7805 H   0  0  0  0  0  0  0  0  0  0  0  0
   45.0031   28.8086   47.3096 H   0  0  0  0  0  0  0  0  0  0  0  0
   44.6010   29.3216   49.6666 H   0  0  0  0  0  0  0  0  0  0  0  0
   45.1306   31.6070   50.5899 H   0  0  0  0  0  0  0  0  0  0  0  0
   46.0634   33.2881   49.0214 H   0  0  0  0  0  0  0  0  0  0  0  0
  1  8  1  0
  2  1  1  0
  3  2  2  0
  4  3  1  0
  5  4  2  0
  5  6  1  0
  6  7  2  0
  7  2  1  0
  8  9  1  0
  9 14  1  0
 10  9  2  0
 10 11  1  0
 11 12  2  0
 12 13  1  0
 14 13  2  0
  1 15  1  0
  1 16  1  0
  3 17  1  0
  4 18  1  0
  6 19  1  0
  8 20  1  0
  8 21  1  0
 10 22  1  0
 11 23  1  0
 12 24  1  0
 13 25  1  0
 14 26  1  0
M  ISO  8  15   8  16   8  17  14  18  14  19  14  20   8  21   8  22  14
M  ISO  4  23  14  24  14  25  14  26  14
M  END
>  <minimizedAffinity>  (1) 
-4.48843145

>  <minimizedRMSD>  (1) 
6.80700397

$$$$
