
     RDKit          3D

 32 35  0  0  0  0  0  0  0  0999 V2000
   47.3840   31.4280   45.2220 C   0  0  0  0  0  0  0  0  0  0  0  0
   46.8960   32.7170   45.1480 C   0  0  0  0  0  0  0  0  0  0  0  0
   46.1800   33.3200   46.1790 C   0  0  0  0  0  0  0  0  0  0  0  0
   45.9310   32.6040   47.3570 C   0  0  0  0  0  0  0  0  0  0  0  0
   45.2920   32.8520   48.5320 N   0  0  0  0  0  0  0  0  0  0  0  0
   45.3860   31.7450   49.3070 C   0  0  0  0  0  0  0  0  0  0  0  0
   46.0820   30.8260   48.5990 N   0  0  0  0  0  0  0  0  0  0  0  0
   46.4280   31.3250   47.4030 C   0  0  0  0  0  0  0  0  0  0  0  0
   47.1300   30.7150   46.4060 C   0  0  0  0  0  0  0  0  0  0  0  0
   46.4740   35.1530   42.4290 C   0  0  0  0  0  0  0  0  0  0  0  0
   47.6260   34.9640   41.6680 C   0  0  0  0  0  0  0  0  0  0  0  0
   48.5490   33.9920   42.1010 C   0  0  0  0  0  0  0  0  0  0  0  0
   48.2630   33.2890   43.2380 N   0  0  0  0  0  0  0  0  0  0  0  0
   47.1240   33.5040   43.9520 C   0  0  0  0  0  0  0  0  0  0  0  0
   46.2330   34.4300   43.5520 N   0  0  0  0  0  0  0  0  0  0  0  0
   47.6200   29.3340   46.5590 C   0  0  0  0  0  0  0  0  0  0  0  0
   48.9440   28.9690   46.6220 C   0  0  0  0  0  0  0  0  0  0  0  0
   48.9000   27.5770   46.7670 C   0  0  0  0  0  0  0  0  0  0  0  0
   47.5800   27.1780   46.7840 C   0  0  0  0  0  0  0  0  0  0  0  0
   46.8640   28.2810   46.6550 O   0  0  0  0  0  0  0  0  0  0  0  0
   47.0830   25.8190   46.9160 C   0  0  0  0  0  0  0  0  0  0  0  0
   46.4870   25.5920   48.0000 O   0  0  0  0  0  0  0  0  0  0  0  0
   47.9470   30.9786   44.3907 H   0  0  0  0  0  0  0  0  0  0  0  0
   45.8126   34.3510   46.0692 H   0  0  0  0  0  0  0  0  0  0  0  0
   44.8184   33.7300   48.7882 H   0  0  0  0  0  0  0  0  0  0  0  0
   44.9747   31.6176   50.3192 H   0  0  0  0  0  0  0  0  0  0  0  0
   45.7404   35.9084   42.1110 H   0  0  0  0  0  0  0  0  0  0  0  0
   47.8087   35.5549   40.7584 H   0  0  0  0  0  0  0  0  0  0  0  0
   49.4756   33.8036   41.5390 H   0  0  0  0  0  0  0  0  0  0  0  0
   49.8303   29.6184   46.5705 H   0  0  0  0  0  0  0  0  0  0  0  0
   49.7725   26.9127   46.8530 H   0  0  0  0  0  0  0  0  0  0  0  0
   47.2164   25.0552   46.1357 H   0  0  0  0  0  0  0  0  0  0  0  0
  1  9  2  0
  2  1  1  0
  2  3  2  0
  3  4  1  0
  4  8  2  0
  4  5  1  0
  5  6  1  0
  7  6  2  0
  8  7  1  0
  9 16  1  0
  9  8  1  0
 10 15  2  0
 11 12  2  0
 11 10  1  0
 12 13  1  0
 13 14  2  0
 14  2  1  0
 15 14  1  0
 16 17  2  0
 16 20  1  0
 17 18  1  0
 18 19  2  0
 19 21  1  0
 20 19  1  0
 21 22  2  0
  1 23  1  0
  3 24  1  0
  5 25  1  0
  6 26  1  0
 10 27  1  0
 11 28  1  0
 12 29  1  0
 17 30  1  0
 18 31  1  0
 21 32  1  0
M  ISO  8  23  14  24  14  25   9  26  14  27  14  28  14  29  14  30  14
M  ISO  2  31  14  32   6
M  END
>  <minimizedAffinity>  (1) 
-5.12444544

>  <minimizedRMSD>  (1) 
0.492677391

$$$$
