
     RDKit          3D

 30 31  0  0  0  0  0  0  0  0999 V2000
   44.7860   34.4880   40.4350 C   0  0  0  0  0  0  0  0  0  0  0  0
   45.9130   34.0680   41.0460 N   0  0  0  0  0  0  0  0  0  0  0  0
   46.8580   33.1230   40.5910 C   0  0  0  0  0  0  0  0  0  0  0  0
   47.9030   34.0450   39.9390 C   0  0  0  0  0  0  0  0  0  0  0  0
   48.4950   35.0280   40.8650 C   0  0  0  0  0  0  0  0  0  0  0  0
   47.7440   35.3420   42.1040 C   0  0  0  0  0  0  0  0  0  0  0  0
   46.3280   34.8450   42.2070 C   0  0  0  0  0  0  0  0  0  0  0  0
   45.3000   35.2710   43.5910 S   0  0  0  0  0  0  0  0  0  0  0  0
   43.6390   33.5590   40.7500 C   0  0  0  0  0  0  0  0  0  0  0  0
   42.3870   34.3130   40.5460 C   0  0  0  0  0  0  0  0  0  0  0  0
   41.6280   34.1410   39.3930 C   0  0  0  0  0  0  0  0  0  0  0  0
   40.4520   34.8850   39.2570 C   0  0  0  0  0  0  0  0  0  0  0  0
   40.1110   35.7410   40.2640 N   0  0  0  0  0  0  0  0  0  0  0  0
   40.8730   35.8720   41.3520 C   0  0  0  0  0  0  0  0  0  0  0  0
   41.9870   35.1600   41.4690 N   0  0  0  0  0  0  0  0  0  0  0  0
   44.9489   34.5068   39.3473 H   0  0  0  0  0  0  0  0  0  0  0  0
   44.5382   35.4965   40.7977 H   0  0  0  0  0  0  0  0  0  0  0  0
   47.2893   32.5492   41.4245 H   0  0  0  0  0  0  0  0  0  0  0  0
   46.4458   32.3568   39.9179 H   0  0  0  0  0  0  0  0  0  0  0  0
   48.7123   33.4193   39.5347 H   0  0  0  0  0  0  0  0  0  0  0  0
   47.3803   34.6171   39.1583 H   0  0  0  0  0  0  0  0  0  0  0  0
   49.4810   34.6444   41.1660 H   0  0  0  0  0  0  0  0  0  0  0  0
   48.5087   35.9715   40.2997 H   0  0  0  0  0  0  0  0  0  0  0  0
   48.2060   35.9181   42.9193 H   0  0  0  0  0  0  0  0  0  0  0  0
   45.9656   34.9952   44.7562 H   0  0  0  0  0  0  0  0  0  0  0  0
   43.6662   32.6880   40.0787 H   0  0  0  0  0  0  0  0  0  0  0  0
   43.7080   33.1967   41.7863 H   0  0  0  0  0  0  0  0  0  0  0  0
   41.9448   33.4379   38.6086 H   0  0  0  0  0  0  0  0  0  0  0  0
   39.8191   34.7833   38.3631 H   0  0  0  0  0  0  0  0  0  0  0  0
   40.5782   36.5689   42.1504 H   0  0  0  0  0  0  0  0  0  0  0  0
  1  9  1  0
  1  2  1  0
  2  7  1  0
  3  2  1  0
  4  3  1  0
  4  5  1  0
  5  6  1  0
  6  7  2  0
  7  8  1  0
 10  9  1  0
 10 15  1  0
 11 10  2  0
 12 11  1  0
 12 13  2  0
 13 14  1  0
 14 15  2  0
  1 16  1  0
  1 17  1  0
  3 18  1  0
  3 19  1  0
  4 20  1  0
  4 21  1  0
  5 22  1  0
  5 23  1  0
  6 24  1  0
  8 25  1  0
  9 26  1  0
  9 27  1  0
 11 28  1  0
 12 29  1  0
 14 30  1  0
M  ISO  8  16   8  17   8  18  13  19  13  20  13  21  13  22  13  23  13
M  ISO  7  24  13  25  11  26   8  27   8  28  14  29  14  30  14
M  END
>  <minimizedAffinity>  (1) 
-4.07739305

>  <minimizedRMSD>  (1) 
4.54020739

$$$$
