
     RDKit          3D

 14 14  0  0  0  0  0  0  0  0999 V2000
   45.1980   36.0100   43.3820 C   0  0  0  0  0  0  0  0  0  0  0  0
   46.0840   34.9660   43.1270 C   0  0  0  0  0  0  0  0  0  0  0  0
   46.2390   34.0060   44.1220 C   0  0  0  0  0  0  0  0  0  0  0  0
   45.5400   34.1250   45.2690 N   0  0  0  0  0  0  0  0  0  0  0  0
   44.6870   35.1470   45.4970 C   0  0  0  0  0  0  0  0  0  0  0  0
   44.5230   36.0830   44.5470 N   0  0  0  0  0  0  0  0  0  0  0  0
   46.7970   34.8880   41.8960 C   0  0  0  0  0  0  0  0  0  0  0  0
   47.9590   35.3400   41.8540 O   0  0  0  0  0  0  0  0  0  0  0  0
   45.8960   34.2610   40.9910 N   0  0  0  0  0  0  0  0  0  0  0  0
   45.0463   36.7885   42.6198 H   0  0  0  0  0  0  0  0  0  0  0  0
   46.9247   33.1586   43.9745 H   0  0  0  0  0  0  0  0  0  0  0  0
   44.1348   35.2122   46.4461 H   0  0  0  0  0  0  0  0  0  0  0  0
   46.1819   34.0880   40.0167 H   0  0  0  0  0  0  0  0  0  0  0  0
   44.9578   33.9801   41.3101 H   0  0  0  0  0  0  0  0  0  0  0  0
  1  6  2  0
  2  1  1  0
  2  3  2  0
  3  4  1  0
  4  5  2  0
  6  5  1  0
  7  2  1  0
  8  7  2  0
  9  7  1  0
  1 10  1  0
  3 11  1  0
  5 12  1  0
  9 13  1  0
  9 14  1  0
M  ISO  3  10  14  11  14  12  14
M  END
>  <minimizedAffinity>  (1) 
-3.35178113

>  <minimizedRMSD>  (1) 
0.108784415

$$$$
