
     RDKit          3D

 39 41  0  0  0  0  0  0  0  0999 V2000
   46.5500   32.7950   44.5910 N   0  0  0  0  0  0  0  0  0  0  0  0
   46.7110   33.2020   45.9510 C   0  0  0  0  0  0  0  0  0  0  0  0
   45.8830   32.1300   46.6830 C   0  0  0  0  0  0  0  0  0  0  0  0
   46.3470   30.7560   46.4400 C   0  0  0  0  0  0  0  0  0  0  0  0
   47.2040   30.5300   45.2270 C   0  0  0  0  0  0  0  0  0  0  0  0
   47.3030   31.6050   44.2270 C   0  0  0  0  0  0  0  0  0  0  0  0
   49.6610   33.0510   43.2500 F   0  0  0  0  0  0  0  0  0  0  0  0
   49.0810   32.0630   42.5430 C   0  0  0  0  0  0  0  0  0  0  0  0
   48.0020   31.3700   43.0210 C   0  0  0  0  0  0  0  0  0  0  0  0
   47.6020   30.4060   42.1460 C   0  0  0  0  0  0  0  0  0  0  0  0
   48.1730   30.1230   40.9280 C   0  0  0  0  0  0  0  0  0  0  0  0
   49.2580   30.8500   40.4920 C   0  0  0  0  0  0  0  0  0  0  0  0
   49.7060   31.8400   41.3390 C   0  0  0  0  0  0  0  0  0  0  0  0
   45.6090   33.2460   43.7200 C   0  0  0  0  0  0  0  0  0  0  0  0
   45.8760   34.6850   43.3380 C   0  0  0  0  0  0  0  0  0  0  0  0
   46.6740   34.6820   42.1020 C   0  0  0  0  0  0  0  0  0  0  0  0
   46.2950   33.9610   40.9960 C   0  0  0  0  0  0  0  0  0  0  0  0
   47.0890   33.9740   39.8440 C   0  0  0  0  0  0  0  0  0  0  0  0
   48.2250   34.7240   39.8920 N   0  0  0  0  0  0  0  0  0  0  0  0
   48.5660   35.4120   40.9800 C   0  0  0  0  0  0  0  0  0  0  0  0
   47.7880   35.3790   42.0630 N   0  0  0  0  0  0  0  0  0  0  0  0
   47.7670   33.1750   46.2577 H   0  0  0  0  0  0  0  0  0  0  0  0
   46.3930   34.2353   46.1541 H   0  0  0  0  0  0  0  0  0  0  0  0
   45.9360   32.3283   47.7637 H   0  0  0  0  0  0  0  0  0  0  0  0
   44.8563   32.1959   46.2938 H   0  0  0  0  0  0  0  0  0  0  0  0
   46.9275   30.4413   47.3198 H   0  0  0  0  0  0  0  0  0  0  0  0
   45.4320   30.1739   46.2558 H   0  0  0  0  0  0  0  0  0  0  0  0
   47.7453   29.5823   45.0894 H   0  0  0  0  0  0  0  0  0  0  0  0
   46.7375   29.7941   42.4430 H   0  0  0  0  0  0  0  0  0  0  0  0
   47.7634   29.3164   40.3022 H   0  0  0  0  0  0  0  0  0  0  0  0
   49.7395   30.6518   39.5230 H   0  0  0  0  0  0  0  0  0  0  0  0
   50.5700   32.4564   41.0498 H   0  0  0  0  0  0  0  0  0  0  0  0
   45.6283   32.6228   42.8138 H   0  0  0  0  0  0  0  0  0  0  0  0
   44.6232   33.1870   44.2045 H   0  0  0  0  0  0  0  0  0  0  0  0
   44.9243   35.2096   43.1676 H   0  0  0  0  0  0  0  0  0  0  0  0
   46.4178   35.2020   44.1437 H   0  0  0  0  0  0  0  0  0  0  0  0
   45.3659   33.3725   41.0160 H   0  0  0  0  0  0  0  0  0  0  0  0
   46.8096   33.4066   38.9440 H   0  0  0  0  0  0  0  0  0  0  0  0
   49.4904   36.0082   40.9856 H   0  0  0  0  0  0  0  0  0  0  0  0
  1  2  1  0
  2  3  1  0
  4  3  1  0
  5  4  1  0
  6  1  1  0
  6  5  2  0
  8  9  2  0
  8  7  1  0
  9  6  1  0
 10  9  1  0
 11 10  2  0
 12 11  1  0
 12 13  2  0
 13  8  1  0
 14  1  1  0
 15 14  1  0
 16 15  1  0
 17 16  2  0
 18 19  2  0
 18 17  1  0
 19 20  1  0
 20 21  2  0
 21 16  1  0
  2 22  1  0
  2 23  1  0
  3 24  1  0
  3 25  1  0
  4 26  1  0
  4 27  1  0
  5 28  1  0
 10 29  1  0
 11 30  1  0
 12 31  1  0
 13 32  1  0
 14 33  1  0
 14 34  1  0
 15 35  1  0
 15 36  1  0
 17 37  1  0
 18 38  1  0
 20 39  1  0
M  ISO  8  22  13  23  13  24  13  25  13  26  13  27  13  28  13  29  14
M  ISO  8  30  14  31  14  32  14  33   8  34   8  35   8  36   8  37  14
M  ISO  2  38  14  39  14
M  END
>  <minimizedAffinity>  (1) 
-3.9605689

>  <minimizedRMSD>  (1) 
5.25576591

$$$$
