
     RDKit          3D

 36 37  0  0  0  0  0  0  0  0999 V2000
   44.8370   34.1630   40.7240 C   0  0  0  0  0  0  0  0  0  0  0  0
   46.0950   33.9400   41.0860 N   0  0  0  0  0  0  0  0  0  0  0  0
   47.0850   33.1680   40.4240 C   0  0  0  0  0  0  0  0  0  0  0  0
   47.9060   34.3270   39.8020 C   0  0  0  0  0  0  0  0  0  0  0  0
   48.4860   35.2190   40.8080 C   0  0  0  0  0  0  0  0  0  0  0  0
   47.8610   35.2930   42.1270 C   0  0  0  0  0  0  0  0  0  0  0  0
   46.5400   34.6190   42.3080 C   0  0  0  0  0  0  0  0  0  0  0  0
   45.6500   34.7140   43.8350 S   0  0  0  0  0  0  0  0  0  0  0  0
   43.9290   32.9980   40.9820 C   0  0  0  0  0  0  0  0  0  0  0  0
   42.7730   33.1360   40.0560 C   0  0  0  0  0  0  0  0  0  0  0  0
   42.6850   32.4140   38.8810 C   0  0  0  0  0  0  0  0  0  0  0  0
   41.5680   32.6160   38.0670 C   0  0  0  0  0  0  0  0  0  0  0  0
   40.6260   33.5110   38.4690 N   0  0  0  0  0  0  0  0  0  0  0  0
   40.7450   34.1870   39.6090 C   0  0  0  0  0  0  0  0  0  0  0  0
   41.8160   33.9930   40.3870 N   0  0  0  0  0  0  0  0  0  0  0  0
   39.6430   35.1330   39.9300 C   0  0  0  0  0  0  0  0  0  0  0  0
   40.2190   36.3440   40.6280 C   0  0  0  0  0  0  0  0  0  0  0  0
   44.8184   34.3882   39.6475 H   0  0  0  0  0  0  0  0  0  0  0  0
   44.4681   35.0034   41.3303 H   0  0  0  0  0  0  0  0  0  0  0  0
   47.6818   32.5688   41.1275 H   0  0  0  0  0  0  0  0  0  0  0  0
   46.7081   32.4165   39.7147 H   0  0  0  0  0  0  0  0  0  0  0  0
   48.7217   33.8968   39.2024 H   0  0  0  0  0  0  0  0  0  0  0  0
   47.2178   34.9260   39.1875 H   0  0  0  0  0  0  0  0  0  0  0  0
   49.5275   34.8999   40.9611 H   0  0  0  0  0  0  0  0  0  0  0  0
   48.3401   36.2249   40.3875 H   0  0  0  0  0  0  0  0  0  0  0  0
   48.3463   35.8264   42.9576 H   0  0  0  0  0  0  0  0  0  0  0  0
   46.5284   34.6202   44.8821 H   0  0  0  0  0  0  0  0  0  0  0  0
   44.4596   32.0545   40.7862 H   0  0  0  0  0  0  0  0  0  0  0  0
   43.5941   32.9850   42.0297 H   0  0  0  0  0  0  0  0  0  0  0  0
   43.4720   31.7007   38.5949 H   0  0  0  0  0  0  0  0  0  0  0  0
   41.4528   32.0639   37.1226 H   0  0  0  0  0  0  0  0  0  0  0  0
   39.1437   35.4459   39.0011 H   0  0  0  0  0  0  0  0  0  0  0  0
   38.9106   34.6402   40.5863 H   0  0  0  0  0  0  0  0  0  0  0  0
   40.1530   36.2053   41.7172 H   0  0  0  0  0  0  0  0  0  0  0  0
   41.2726   36.4681   40.3373 H   0  0  0  0  0  0  0  0  0  0  0  0
   39.6505   37.2397   40.3373 H   0  0  0  0  0  0  0  0  0  0  0  0
  1  9  1  0
  1  2  1  0
  2  7  1  0
  3  2  1  0
  4  3  1  0
  4  5  1  0
  5  6  1  0
  6  7  2  0
  7  8  1  0
 10 15  1  0
 10  9  1  0
 11 10  2  0
 12 13  2  0
 12 11  1  0
 13 14  1  0
 14 16  1  0
 14 15  2  0
 16 17  1  0
  1 18  1  0
  1 19  1  0
  3 20  1  0
  3 21  1  0
  4 22  1  0
  4 23  1  0
  5 24  1  0
  5 25  1  0
  6 26  1  0
  8 27  1  0
  9 28  1  0
  9 29  1  0
 11 30  1  0
 12 31  1  0
 16 32  1  0
 16 33  1  0
 17 34  1  0
 17 35  1  0
 17 36  1  0
M  ISO  8  18   8  19   8  20  13  21  13  22  13  23  13  24  13  25  13
M  ISO  8  26  13  27  11  28   8  29   8  30  14  31  14  32   8  33   8
M  ISO  3  34   8  35   8  36   8
M  END
>  <minimizedAffinity>  (1) 
-4.5934062

>  <minimizedRMSD>  (1) 
1.75007284

$$$$
