
     RDKit          3D

 32 33  0  0  0  0  0  0  0  0999 V2000
   44.5340   34.4530   40.6370 C   0  0  0  0  0  0  0  0  0  0  0  0
   45.7390   34.0920   41.0670 N   0  0  0  0  0  0  0  0  0  0  0  0
   46.6450   33.1630   40.4940 C   0  0  0  0  0  0  0  0  0  0  0  0
   47.6320   34.1630   39.8490 C   0  0  0  0  0  0  0  0  0  0  0  0
   48.2820   35.0530   40.8140 C   0  0  0  0  0  0  0  0  0  0  0  0
   47.6250   35.2840   42.1010 C   0  0  0  0  0  0  0  0  0  0  0  0
   46.2160   34.7840   42.2720 C   0  0  0  0  0  0  0  0  0  0  0  0
   45.2990   35.0710   43.7510 S   0  0  0  0  0  0  0  0  0  0  0  0
   43.7060   33.2910   40.1770 C   0  0  0  0  0  0  0  0  0  0  0  0
   42.4250   33.8460   39.6620 C   0  0  0  0  0  0  0  0  0  0  0  0
   41.8290   33.3380   38.5260 C   0  0  0  0  0  0  0  0  0  0  0  0
   40.6240   33.9240   38.0990 C   0  0  0  0  0  0  0  0  0  0  0  0
   40.1150   34.9600   38.8310 N   0  0  0  0  0  0  0  0  0  0  0  0
   40.7370   35.4090   39.9230 C   0  0  0  0  0  0  0  0  0  0  0  0
   41.8740   34.8510   40.3210 N   0  0  0  0  0  0  0  0  0  0  0  0
   40.2080   36.4900   40.6900 N   0  0  0  0  0  0  0  0  0  0  0  0
   44.0048   34.9575   41.4588 H   0  0  0  0  0  0  0  0  0  0  0  0
   44.6777   35.1183   39.7729 H   0  0  0  0  0  0  0  0  0  0  0  0
   47.1309   32.5357   41.2559 H   0  0  0  0  0  0  0  0  0  0  0  0
   46.2001   32.4258   39.8094 H   0  0  0  0  0  0  0  0  0  0  0  0
   48.4114   33.5918   39.3234 H   0  0  0  0  0  0  0  0  0  0  0  0
   47.0470   34.7988   39.1681 H   0  0  0  0  0  0  0  0  0  0  0  0
   49.2754   34.6314   41.0272 H   0  0  0  0  0  0  0  0  0  0  0  0
   48.2698   36.0377   40.3240 H   0  0  0  0  0  0  0  0  0  0  0  0
   48.1446   35.8066   42.9176 H   0  0  0  0  0  0  0  0  0  0  0  0
   46.0953   34.8218   44.8376 H   0  0  0  0  0  0  0  0  0  0  0  0
   44.2302   32.7466   39.3777 H   0  0  0  0  0  0  0  0  0  0  0  0
   43.5249   32.5869   41.0025 H   0  0  0  0  0  0  0  0  0  0  0  0
   42.2815   32.5020   37.9725 H   0  0  0  0  0  0  0  0  0  0  0  0
   40.1053   33.5586   37.2004 H   0  0  0  0  0  0  0  0  0  0  0  0
   40.7068   36.8186   41.5292 H   0  0  0  0  0  0  0  0  0  0  0  0
   39.3274   36.9416   40.4044 H   0  0  0  0  0  0  0  0  0  0  0  0
  1  2  1  0
  2  7  1  0
  3  2  1  0
  4  3  1  0
  4  5  1  0
  5  6  1  0
  6  7  2  0
  7  8  1  0
  9  1  1  0
 10  9  1  0
 10 15  1  0
 11 10  2  0
 12 11  1  0
 12 13  2  0
 13 14  1  0
 14 15  2  0
 14 16  1  0
  1 17  1  0
  1 18  1  0
  3 19  1  0
  3 20  1  0
  4 21  1  0
  4 22  1  0
  5 23  1  0
  5 24  1  0
  6 25  1  0
  8 26  1  0
  9 27  1  0
  9 28  1  0
 11 29  1  0
 12 30  1  0
 16 31  1  0
 16 32  1  0
M  ISO  8  17   8  18   8  19  13  20  13  21  13  22  13  23  13  24  13
M  ISO  6  25  13  26  11  27   8  28   8  29  14  30  14
M  END
>  <minimizedAffinity>  (1) 
-4.50417995

>  <minimizedRMSD>  (1) 
0.971278846

$$$$
