
     RDKit          3D

 31 32  0  0  0  0  0  0  0  0999 V2000
   44.5710   34.4930   40.7090 C   0  0  0  0  0  0  0  0  0  0  0  0
   45.7830   34.0960   41.0860 N   0  0  0  0  0  0  0  0  0  0  0  0
   46.6630   33.2000   40.4260 C   0  0  0  0  0  0  0  0  0  0  0  0
   47.6460   34.2240   39.8250 C   0  0  0  0  0  0  0  0  0  0  0  0
   48.3290   35.0460   40.8160 C   0  0  0  0  0  0  0  0  0  0  0  0
   47.7120   35.1800   42.1290 C   0  0  0  0  0  0  0  0  0  0  0  0
   46.3060   34.6940   42.3220 C   0  0  0  0  0  0  0  0  0  0  0  0
   45.4220   34.8870   43.8390 S   0  0  0  0  0  0  0  0  0  0  0  0
   43.6050   33.3580   40.5410 C   0  0  0  0  0  0  0  0  0  0  0  0
   42.3840   33.9220   39.9030 C   0  0  0  0  0  0  0  0  0  0  0  0
   41.8910   33.4140   38.7180 C   0  0  0  0  0  0  0  0  0  0  0  0
   40.7390   34.0170   38.1760 C   0  0  0  0  0  0  0  0  0  0  0  0
   40.1860   35.0590   38.8560 N   0  0  0  0  0  0  0  0  0  0  0  0
   40.6980   35.5140   39.9980 C   0  0  0  0  0  0  0  0  0  0  0  0
   41.7920   34.9390   40.5070 N   0  0  0  0  0  0  0  0  0  0  0  0
   40.1310   36.5780   40.6870 O   0  0  0  0  0  0  0  0  0  0  0  0
   44.1748   35.1798   41.4715 H   0  0  0  0  0  0  0  0  0  0  0  0
   44.6763   34.9814   39.7290 H   0  0  0  0  0  0  0  0  0  0  0  0
   47.1595   32.5162   41.1302 H   0  0  0  0  0  0  0  0  0  0  0  0
   46.1895   32.5191   39.7034 H   0  0  0  0  0  0  0  0  0  0  0  0
   48.4055   33.6762   39.2480 H   0  0  0  0  0  0  0  0  0  0  0  0
   47.0504   34.9076   39.2021 H   0  0  0  0  0  0  0  0  0  0  0  0
   49.3299   34.6150   40.9662 H   0  0  0  0  0  0  0  0  0  0  0  0
   48.3081   36.0621   40.3951 H   0  0  0  0  0  0  0  0  0  0  0  0
   48.2678   35.6300   42.9648 H   0  0  0  0  0  0  0  0  0  0  0  0
   46.2772   34.7003   44.8929 H   0  0  0  0  0  0  0  0  0  0  0  0
   44.0430   32.5802   39.8983 H   0  0  0  0  0  0  0  0  0  0  0  0
   43.3660   32.8968   41.5106 H   0  0  0  0  0  0  0  0  0  0  0  0
   42.3807   32.5676   38.2143 H   0  0  0  0  0  0  0  0  0  0  0  0
   40.3002   33.6575   37.2335 H   0  0  0  0  0  0  0  0  0  0  0  0
   40.5367   36.8919   41.5338 H   0  0  0  0  0  0  0  0  0  0  0  0
  1  2  1  0
  2  7  1  0
  3  2  1  0
  4  3  1  0
  4  5  1  0
  5  6  1  0
  6  7  2  0
  7  8  1  0
  9  1  1  0
 10 15  1  0
 10  9  1  0
 11 10  2  0
 12 11  1  0
 12 13  2  0
 13 14  1  0
 14 15  2  0
 14 16  1  0
  1 17  1  0
  1 18  1  0
  3 19  1  0
  3 20  1  0
  4 21  1  0
  4 22  1  0
  5 23  1  0
  5 24  1  0
  6 25  1  0
  8 26  1  0
  9 27  1  0
  9 28  1  0
 11 29  1  0
 12 30  1  0
 16 31  1  0
M  ISO  8  17   8  18   8  19  13  20  13  21  13  22  13  23  13  24  13
M  ISO  7  25  13  26  11  27   8  28   8  29  14  30  14  31   3
M  END
>  <minimizedAffinity>  (1) 
-4.51229477

>  <minimizedRMSD>  (1) 
0.896588981

$$$$
