
     RDKit          3D

 26 27  0  0  0  0  0  0  0  0999 V2000
   44.5410   36.1630   44.3920 C   0  0  0  0  0  0  0  0  0  0  0  0
   45.1910   36.0500   43.1330 C   0  0  0  0  0  0  0  0  0  0  0  0
   46.0460   34.9700   42.9460 C   0  0  0  0  0  0  0  0  0  0  0  0
   46.2210   34.0780   43.9720 N   0  0  0  0  0  0  0  0  0  0  0  0
   45.5820   34.2250   45.1570 C   0  0  0  0  0  0  0  0  0  0  0  0
   44.7470   35.2620   45.3650 N   0  0  0  0  0  0  0  0  0  0  0  0
   45.9330   33.1720   46.0480 N   0  0  0  0  0  0  0  0  0  0  0  0
   45.2740   33.1190   47.2230 C   0  0  0  0  0  0  0  0  0  0  0  0
   45.6100   32.0890   48.1090 C   0  0  0  0  0  0  0  0  0  0  0  0
   46.5890   31.1970   47.7240 C   0  0  0  0  0  0  0  0  0  0  0  0
   46.8970   30.2650   48.5180 O   0  0  0  0  0  0  0  0  0  0  0  0
   47.2220   31.2880   46.5390 N   0  0  0  0  0  0  0  0  0  0  0  0
   46.8850   32.2900   45.6950 C   0  0  0  0  0  0  0  0  0  0  0  0
   47.5010   32.3380   44.6000 O   0  0  0  0  0  0  0  0  0  0  0  0
   46.6820   34.8540   41.7200 O   0  0  0  0  0  0  0  0  0  0  0  0
   48.6800   33.2460   41.0440 O   0  0  0  0  0  0  0  0  0  0  0  0
   48.3810   34.6110   41.6720 P   0  0  0  0  0  0  0  0  0  0  0  0
   49.0710   35.8580   40.8080 O   0  0  0  0  0  0  0  0  0  0  0  0
   48.9250   34.5540   43.2770 O   0  0  0  0  0  0  0  0  0  0  0  0
   43.8562   37.0048   44.5722 H   0  0  0  0  0  0  0  0  0  0  0  0
   45.0237   36.7897   42.3362 H   0  0  0  0  0  0  0  0  0  0  0  0
   44.5001   33.8586   47.4762 H   0  0  0  0  0  0  0  0  0  0  0  0
   45.1083   31.9937   49.0833 H   0  0  0  0  0  0  0  0  0  0  0  0
   47.9498   30.6068   46.2798 H   0  0  0  0  0  0  0  0  0  0  0  0
   49.4419   36.5283   41.4351 H   0  0  0  0  0  0  0  0  0  0  0  0
   48.1522   34.6350   43.8904 H   0  0  0  0  0  0  0  0  0  0  0  0
  1  6  2  0
  2  1  1  0
  3  2  2  0
  3  4  1  0
  4  5  2  0
  5  6  1  0
  5  7  1  0
  7  8  1  0
  8  9  2  0
 10  9  1  0
 10 11  2  0
 12 10  1  0
 13  7  1  0
 13 12  1  0
 14 13  2  0
 15  3  1  0
 16 17  2  0
 17 15  1  0
 17 19  1  0
 18 17  1  0
  1 20  1  0
  2 21  1  0
  8 22  1  0
  9 23  1  0
 12 24  1  0
 18 25  1  0
 19 26  1  0
M  ISO  7  20  14  21  14  22  14  23  14  24   9  25   3  26   3
M  END
>  <minimizedAffinity>  (1) 
-6.22376633

>  <minimizedRMSD>  (1) 
0.34431234

$$$$
