
     RDKit          3D

 23 24  0  0  0  0  0  0  0  0999 V2000
   44.6310   35.8450   44.7550 C   0  0  0  0  0  0  0  0  0  0  0  0
   45.2510   35.9390   43.4930 C   0  0  0  0  0  0  0  0  0  0  0  0
   46.0920   34.9180   43.0820 C   0  0  0  0  0  0  0  0  0  0  0  0
   46.2800   33.8730   43.9190 N   0  0  0  0  0  0  0  0  0  0  0  0
   45.6880   33.7850   45.1210 C   0  0  0  0  0  0  0  0  0  0  0  0
   44.8590   34.7680   45.5520 N   0  0  0  0  0  0  0  0  0  0  0  0
   45.9460   32.5930   45.9930 C   0  0  0  0  0  0  0  0  0  0  0  0
   45.5660   32.6370   47.4480 C   0  0  0  0  0  0  0  0  0  0  0  0
   46.9910   32.7320   47.0510 C   0  0  0  0  0  0  0  0  0  0  0  0
   46.6870   35.0370   41.8390 O   0  0  0  0  0  0  0  0  0  0  0  0
   48.5120   33.3240   41.0060 O   0  0  0  0  0  0  0  0  0  0  0  0
   48.3600   34.6770   41.6770 P   0  0  0  0  0  0  0  0  0  0  0  0
   49.1060   35.8950   40.8120 O   0  0  0  0  0  0  0  0  0  0  0  0
   49.0070   34.5620   43.2460 O   0  0  0  0  0  0  0  0  0  0  0  0
   43.9597   36.6467   45.0965 H   0  0  0  0  0  0  0  0  0  0  0  0
   45.0700   36.8091   42.8448 H   0  0  0  0  0  0  0  0  0  0  0  0
   45.7379   31.8989   45.1654 H   0  0  0  0  0  0  0  0  0  0  0  0
   45.0485   33.5183   47.8549 H   0  0  0  0  0  0  0  0  0  0  0  0
   44.9877   31.9867   48.1209 H   0  0  0  0  0  0  0  0  0  0  0  0
   47.6747   31.8958   47.2591 H   0  0  0  0  0  0  0  0  0  0  0  0
   47.8025   33.4482   47.2473 H   0  0  0  0  0  0  0  0  0  0  0  0
   49.5060   36.5480   41.4394 H   0  0  0  0  0  0  0  0  0  0  0  0
   48.2849   34.6904   43.9110 H   0  0  0  0  0  0  0  0  0  0  0  0
  1  6  2  0
  2  1  1  0
  3  2  2  0
  3  4  1  0
  4  5  2  0
  5  6  1  0
  5  7  1  0
  7  9  1  0
  7  8  1  0
  9  8  1  0
 10  3  1  0
 11 12  2  0
 12 10  1  0
 12 14  1  0
 13 12  1  0
  1 15  1  0
  2 16  1  0
  7 17  1  0
  8 18  1  0
  8 19  1  0
  9 20  1  0
  9 21  1  0
 13 22  1  0
 14 23  1  0
M  ISO  8  15  14  16  14  17  13  18  13  19  13  20  13  21  13  22   3
M  ISO  1  23   3
M  END
>  <minimizedAffinity>  (1) 
-4.94427967

>  <minimizedRMSD>  (1) 
0.278461426

$$$$
