
     RDKit          3D

 39 41  0  0  1  0  0  0  0  0999 V2000
   44.4020   35.7240   45.1800 C   0  0  0  0  0  0  0  0  0  0  0  0
   44.6630   35.8000   43.7990 C   0  0  0  0  0  0  0  0  0  0  0  0
   45.5030   34.8420   43.2610 C   0  0  0  0  0  0  0  0  0  0  0  0
   46.0270   33.8930   44.0600 N   0  0  0  0  0  0  0  0  0  0  0  0
   45.7700   33.8320   45.3720 C   0  0  0  0  0  0  0  0  0  0  0  0
   44.9500   34.7590   45.9350 N   0  0  0  0  0  0  0  0  0  0  0  0
   45.4260   32.4540   47.4400 C   0  0  1  0  0  0  0  0  0  0  0  0
   46.3230   32.8270   46.2970 C   0  0  1  0  0  0  0  0  0  0  0  0
   46.3810   31.4550   45.5890 C   0  0  0  0  0  0  0  0  0  0  0  0
   46.2460   30.5040   46.5500 O   0  0  0  0  0  0  0  0  0  0  0  0
   46.0480   31.1060   47.7890 C   0  0  0  0  0  0  0  0  0  0  0  0
   45.3990   33.3530   48.4640 O   0  0  0  0  0  0  0  0  0  0  0  0
   45.7520   34.9270   41.8970 O   0  0  0  0  0  0  0  0  0  0  0  0
   45.2960   32.3830   41.2580 O   0  0  0  0  0  0  0  0  0  0  0  0
   46.2510   33.5410   41.0260 P   0  0  1  0  0  0  0  0  0  0  0  0
   46.3690   33.9460   39.4090 O   0  0  0  0  0  0  0  0  0  0  0  0
   47.7750   33.1130   41.6510 O   0  0  0  0  0  0  0  0  0  0  0  0
   50.9180   32.1950   41.2880 O   0  0  0  0  0  0  0  0  0  0  0  0
   50.0900   33.1240   41.5370 C   0  0  0  0  0  0  0  0  0  0  0  0
   48.8210   33.6900   40.9690 C   0  0  2  0  0  0  0  0  0  0  0  0
   48.9450   35.1660   41.2860 C   0  0  0  0  0  0  0  0  0  0  0  0
   49.6940   35.2160   42.6230 C   0  0  0  0  0  0  0  0  0  0  0  0
   50.3570   33.9280   42.6810 N   0  0  0  0  0  0  0  0  0  0  0  0
   43.7389   36.4667   45.6476 H   0  0  0  0  0  0  0  0  0  0  0  0
   44.2177   36.5881   43.1740 H   0  0  0  0  0  0  0  0  0  0  0  0
   44.3523   32.4275   47.2024 H   0  0  0  0  0  0  0  0  0  0  0  0
   47.2676   33.2860   46.6241 H   0  0  0  0  0  0  0  0  0  0  0  0
   45.5627   31.3723   44.8586 H   0  0  0  0  0  0  0  0  0  0  0  0
   47.3310   31.3332   45.0481 H   0  0  0  0  0  0  0  0  0  0  0  0
   47.0035   31.2398   48.3174 H   0  0  0  0  0  0  0  0  0  0  0  0
   45.4155   30.5051   48.4590 H   0  0  0  0  0  0  0  0  0  0  0  0
   45.4135   32.8697   49.3279 H   0  0  0  0  0  0  0  0  0  0  0  0
   46.6449   34.8931   39.3253 H   0  0  0  0  0  0  0  0  0  0  0  0
   48.6558   33.5138   39.8959 H   0  0  0  0  0  0  0  0  0  0  0  0
   49.5163   35.6844   40.5018 H   0  0  0  0  0  0  0  0  0  0  0  0
   47.9655   35.6637   41.3391 H   0  0  0  0  0  0  0  0  0  0  0  0
   50.4260   36.0370   42.6344 H   0  0  0  0  0  0  0  0  0  0  0  0
   49.0312   35.3985   43.4817 H   0  0  0  0  0  0  0  0  0  0  0  0
   50.9553   33.6277   43.4638 H   0  0  0  0  0  0  0  0  0  0  0  0
  1  6  2  0
  2  1  1  0
  3  2  2  0
  3  4  1  0
  4  5  2  0
  5  6  1  0
  5  8  1  0
  7 11  1  0
  7 12  1  0
  8  7  1  0
  9  8  1  0
  9 10  1  0
 10 11  1  0
 13  3  1  0
 15 14  2  0
 15 17  1  0
 15 13  1  0
 16 15  1  0
 18 19  2  0
 19 23  1  0
 20 21  1  0
 20 19  1  0
 20 17  1  0
 21 22  1  0
 22 23  1  0
  1 24  1  0
  2 25  1  0
  7 26  1  6
  8 27  1  1
  9 28  1  0
  9 29  1  0
 11 30  1  0
 11 31  1  0
 12 32  1  0
 16 33  1  0
 20 34  1  6
 21 35  1  0
 21 36  1  0
 22 37  1  0
 22 38  1  0
 23 39  1  0
M  ISO  8  24  14  25  14  26  13  27  13  28  13  29  13  30  13  31  13
M  ISO  8  32   3  33   3  34  13  35  13  36  13  37  13  38  13  39  10
M  END
>  <minimizedAffinity>  (1) 
-6.1193285

>  <minimizedRMSD>  (1) 
1.88561368

$$$$
