
     RDKit          3D

 32 34  0  0  1  0  0  0  0  0999 V2000
   44.7420   33.6840   41.1640 C   0  0  1  0  0  0  0  0  0  0  0  0
   46.1510   34.3120   40.8880 C   0  0  0  0  0  0  0  0  0  0  0  0
   45.1940   34.8370   41.9050 C   0  0  2  0  0  0  0  0  0  0  0  0
   44.6490   35.4740   44.2040 C   0  0  1  0  0  0  0  0  0  0  0  0
   45.6760   34.7490   43.3330 C   0  0  1  0  0  0  0  0  0  0  0  0
   45.6090   33.4690   43.8510 O   0  0  0  0  0  0  0  0  0  0  0  0
   45.4830   33.5620   45.2190 C   0  0  0  0  0  0  0  0  0  0  0  0
   45.1440   34.9870   45.5720 C   0  0  2  0  0  0  0  0  0  0  0  0
   44.6920   36.8350   44.0680 O   0  0  0  0  0  0  0  0  0  0  0  0
   44.1150   35.0950   46.5030 O   0  0  0  0  0  0  0  0  0  0  0  0
   43.8160   33.8380   40.0040 C   0  0  0  0  0  0  0  0  0  0  0  0
   44.2050   33.3810   38.9240 O   0  0  0  0  0  0  0  0  0  0  0  0
   42.0600   35.2500   39.0630 C   0  0  0  0  0  0  0  0  0  0  0  0
   42.5330   34.4620   40.0760 C   0  0  0  0  0  0  0  0  0  0  0  0
   41.7250   34.2580   41.2120 C   0  0  0  0  0  0  0  0  0  0  0  0
   40.5000   34.8510   41.2630 N   0  0  0  0  0  0  0  0  0  0  0  0
   40.0610   35.6260   40.2420 C   0  0  0  0  0  0  0  0  0  0  0  0
   40.8250   35.8160   39.1740 N   0  0  0  0  0  0  0  0  0  0  0  0
   44.3072   32.7267   41.4873 H   0  0  0  0  0  0  0  0  0  0  0  0
   47.0677   33.7895   41.1987 H   0  0  0  0  0  0  0  0  0  0  0  0
   46.6910   34.7121   40.0172 H   0  0  0  0  0  0  0  0  0  0  0  0
   44.6831   35.7911   42.1017 H   0  0  0  0  0  0  0  0  0  0  0  0
   43.5936   35.2650   43.9747 H   0  0  0  0  0  0  0  0  0  0  0  0
   46.7047   35.1386   43.3346 H   0  0  0  0  0  0  0  0  0  0  0  0
   44.6806   32.8933   45.5641 H   0  0  0  0  0  0  0  0  0  0  0  0
   46.4246   33.2670   45.7052 H   0  0  0  0  0  0  0  0  0  0  0  0
   45.9800   35.5371   46.0286 H   0  0  0  0  0  0  0  0  0  0  0  0
   44.7053   37.2559   44.9640 H   0  0  0  0  0  0  0  0  0  0  0  0
   44.4920   35.0554   47.4176 H   0  0  0  0  0  0  0  0  0  0  0  0
   42.6715   35.4256   38.1657 H   0  0  0  0  0  0  0  0  0  0  0  0
   42.0776   33.6304   42.0437 H   0  0  0  0  0  0  0  0  0  0  0  0
   39.0693   36.0986   40.2986 H   0  0  0  0  0  0  0  0  0  0  0  0
  1  3  1  0
  2  1  1  0
  2  3  1  0
  3  5  1  0
  4  9  1  0
  4  8  1  0
  5  6  1  0
  5  4  1  0
  6  7  1  0
  7  8  1  0
  8 10  1  0
 11 14  1  0
 11  1  1  0
 12 11  2  0
 13 18  2  0
 13 14  1  0
 14 15  2  0
 15 16  1  0
 17 16  2  0
 18 17  1  0
  1 19  1  1
  2 20  1  0
  2 21  1  0
  3 22  1  6
  4 23  1  6
  5 24  1  6
  7 25  1  0
  7 26  1  0
  8 27  1  1
  9 28  1  0
 10 29  1  0
 13 30  1  0
 15 31  1  0
 17 32  1  0
M  ISO  8  19  13  20  13  21  13  22  13  23  13  24  13  25  13  26  13
M  ISO  6  27  13  28   3  29   3  30  14  31  14  32  14
M  END
>  <minimizedAffinity>  (1) 
-5.49301481

>  <minimizedRMSD>  (1) 
5.67791367

$$$$
