
     RDKit          3D

 22 22  0  0  0  0  0  0  0  0999 V2000
   46.5070   34.3010   40.9730 C   0  0  0  0  0  0  0  0  0  0  0  0
   47.0370   33.5330   39.9110 C   0  0  0  0  0  0  0  0  0  0  0  0
   48.4030   33.1740   39.9360 C   0  0  0  0  0  0  0  0  0  0  0  0
   49.1480   33.5940   40.9980 N   0  0  0  0  0  0  0  0  0  0  0  0
   48.6000   34.3200   41.9800 C   0  0  0  0  0  0  0  0  0  0  0  0
   47.3060   34.6720   41.9770 N   0  0  0  0  0  0  0  0  0  0  0  0
   46.1480   33.1880   38.8990 O   0  0  0  0  0  0  0  0  0  0  0  0
   47.2830   32.0750   36.7950 O   0  0  0  0  0  0  0  0  0  0  0  0
   46.5860   33.3100   37.2510 P   0  0  0  0  0  0  0  0  0  0  0  0
   45.2060   33.5060   36.2940 O   0  0  0  0  0  0  0  0  0  0  0  0
   47.6020   34.6410   36.9860 O   0  0  0  0  0  0  0  0  0  0  0  0
   45.2120   34.7390   41.1250 O   0  0  0  0  0  0  0  0  0  0  0  0
   44.6450   34.0480   43.6100 O   0  0  0  0  0  0  0  0  0  0  0  0
   44.5100   35.1930   42.6090 P   0  0  0  0  0  0  0  0  0  0  0  0
   42.8280   35.4420   42.4320 O   0  0  0  0  0  0  0  0  0  0  0  0
   45.2800   36.5530   43.2350 O   0  0  0  0  0  0  0  0  0  0  0  0
   48.8498   32.5768   39.1275 H   0  0  0  0  0  0  0  0  0  0  0  0
   49.2342   34.6395   42.8201 H   0  0  0  0  0  0  0  0  0  0  0  0
   44.4136   33.6185   36.8767 H   0  0  0  0  0  0  0  0  0  0  0  0
   47.8883   35.0161   37.8563 H   0  0  0  0  0  0  0  0  0  0  0  0
   42.4077   35.5042   43.3262 H   0  0  0  0  0  0  0  0  0  0  0  0
   45.2599   36.5176   44.2242 H   0  0  0  0  0  0  0  0  0  0  0  0
  1 12  1  0
  1  6  2  0
  2  3  2  0
  2  1  1  0
  3  4  1  0
  4  5  2  0
  6  5  1  0
  7  2  1  0
  8  9  2  0
  9  7  1  0
 10  9  1  0
 11  9  1  0
 12 14  1  0
 14 16  1  0
 14 13  2  0
 15 14  1  0
  3 17  1  0
  5 18  1  0
 10 19  1  0
 11 20  1  0
 15 21  1  0
 16 22  1  0
M  ISO  6  17  14  18  14  19   3  20   3  21   3  22   3
M  END
>  <minimizedAffinity>  (1) 
-4.42688704

>  <minimizedRMSD>  (1) 
4.86699677

$$$$
