
     RDKit          3D

 22 22  0  0  0  0  0  0  0  0999 V2000
   45.6910   34.7920   43.8380 C   0  0  0  0  0  0  0  0  0  0  0  0
   46.8280   34.0640   43.4410 C   0  0  0  0  0  0  0  0  0  0  0  0
   47.4130   33.0660   44.2720 C   0  0  0  0  0  0  0  0  0  0  0  0
   46.8400   32.8410   45.4730 N   0  0  0  0  0  0  0  0  0  0  0  0
   45.7650   33.5400   45.8420 C   0  0  0  0  0  0  0  0  0  0  0  0
   45.2060   34.4790   45.0620 N   0  0  0  0  0  0  0  0  0  0  0  0
   47.2810   34.4530   42.1690 O   0  0  0  0  0  0  0  0  0  0  0  0
   49.5530   33.3620   41.3530 O   0  0  0  0  0  0  0  0  0  0  0  0
   48.9420   34.6340   41.8360 P   0  0  0  0  0  0  0  0  0  0  0  0
   49.1650   35.7930   40.6480 O   0  0  0  0  0  0  0  0  0  0  0  0
   49.8150   35.1860   43.1900 O   0  0  0  0  0  0  0  0  0  0  0  0
   44.7340   35.8850   43.5420 C   0  0  0  0  0  0  0  0  0  0  0  0
   44.0440   35.8200   42.2300 C   0  0  0  0  0  0  0  0  0  0  0  0
   48.2985   32.5000   43.9471 H   0  0  0  0  0  0  0  0  0  0  0  0
   45.3180   33.3385   46.8267 H   0  0  0  0  0  0  0  0  0  0  0  0
   49.3341   36.6716   41.0717 H   0  0  0  0  0  0  0  0  0  0  0  0
   49.3569   34.8964   44.0185 H   0  0  0  0  0  0  0  0  0  0  0  0
   43.9630   35.8764   44.3265 H   0  0  0  0  0  0  0  0  0  0  0  0
   45.3395   36.8027   43.5087 H   0  0  0  0  0  0  0  0  0  0  0  0
   42.9605   35.7179   42.3902 H   0  0  0  0  0  0  0  0  0  0  0  0
   44.2457   36.7411   41.6636 H   0  0  0  0  0  0  0  0  0  0  0  0
   44.4142   34.9528   41.6636 H   0  0  0  0  0  0  0  0  0  0  0  0
  1  6  2  0
  2  1  1  0
  2  3  2  0
  3  4  1  0
  4  5  2  0
  6  5  1  0
  7  2  1  0
  8  9  2  0
  9  7  1  0
  9 11  1  0
 10  9  1  0
 12  1  1  0
 13 12  1  0
  3 14  1  0
  5 15  1  0
 10 16  1  0
 11 17  1  0
 12 18  1  0
 12 19  1  0
 13 20  1  0
 13 21  1  0
 13 22  1  0
M  ISO  8  14  14  15  14  16   3  17   3  18   8  19   8  20   8  21   8
M  ISO  1  22   8
M  END
>  <minimizedAffinity>  (1) 
-4.5263958

>  <minimizedRMSD>  (1) 
1.69910431

$$$$
