
     RDKit          3D

 40 42  0  0  1  0  0  0  0  0999 V2000
   44.5160   35.6870   44.8720 C   0  0  0  0  0  0  0  0  0  0  0  0
   45.0610   35.8800   43.5900 C   0  0  0  0  0  0  0  0  0  0  0  0
   46.0880   35.0170   43.2040 C   0  0  0  0  0  0  0  0  0  0  0  0
   46.5020   34.0590   44.0570 N   0  0  0  0  0  0  0  0  0  0  0  0
   45.9680   33.8950   45.2710 C   0  0  0  0  0  0  0  0  0  0  0  0
   44.9670   34.7170   45.6810 N   0  0  0  0  0  0  0  0  0  0  0  0
   45.3740   32.5380   47.2980 C   0  0  1  0  0  0  0  0  0  0  0  0
   46.3880   32.8760   46.2480 C   0  0  1  0  0  0  0  0  0  0  0  0
   46.4780   31.5010   45.5550 C   0  0  0  0  0  0  0  0  0  0  0  0
   46.2310   30.5630   46.5030 O   0  0  0  0  0  0  0  0  0  0  0  0
   45.9240   31.1760   47.7150 C   0  0  0  0  0  0  0  0  0  0  0  0
   45.2740   33.4440   48.3120 O   0  0  0  0  0  0  0  0  0  0  0  0
   46.6130   35.2160   41.9400 O   0  0  0  0  0  0  0  0  0  0  0  0
   47.3230   32.8000   41.0840 O   0  0  0  0  0  0  0  0  0  0  0  0
   47.8740   34.2040   41.3710 P   0  0  1  0  0  0  0  0  0  0  0  0
   48.5280   34.8950   40.0070 O   0  0  0  0  0  0  0  0  0  0  0  0
   48.9980   34.0790   42.6230 O   0  0  0  0  0  0  0  0  0  0  0  0
   49.1640   31.7420   42.8710 N   0  0  0  0  0  0  0  0  0  0  0  0
   49.8500   30.6790   42.1690 C   0  0  0  0  0  0  0  0  0  0  0  0
   50.4690   31.2690   40.9280 C   0  0  0  0  0  0  0  0  0  0  0  0
   49.8370   32.6660   40.8760 C   0  0  0  0  0  0  0  0  0  0  0  0
   49.7860   32.9590   42.3820 C   0  0  1  0  0  0  0  0  0  0  0  0
   43.7044   36.3441   45.2178 H   0  0  0  0  0  0  0  0  0  0  0  0
   44.6950   36.6741   42.9225 H   0  0  0  0  0  0  0  0  0  0  0  0
   44.3288   32.5401   46.9552 H   0  0  0  0  0  0  0  0  0  0  0  0
   47.3081   33.3090   46.6674 H   0  0  0  0  0  0  0  0  0  0  0  0
   45.7294   31.4329   44.7519 H   0  0  0  0  0  0  0  0  0  0  0  0
   47.4704   31.3524   45.1044 H   0  0  0  0  0  0  0  0  0  0  0  0
   46.8241   31.2894   48.3371 H   0  0  0  0  0  0  0  0  0  0  0  0
   45.2131   30.5947   48.3205 H   0  0  0  0  0  0  0  0  0  0  0  0
   45.3260   32.9733   49.1814 H   0  0  0  0  0  0  0  0  0  0  0  0
   49.1840   35.5881   40.2703 H   0  0  0  0  0  0  0  0  0  0  0  0
   48.1577   31.7335   42.6514 H   0  0  0  0  0  0  0  0  0  0  0  0
   50.6343   30.2520   42.8113 H   0  0  0  0  0  0  0  0  0  0  0  0
   49.1449   29.8779   41.9023 H   0  0  0  0  0  0  0  0  0  0  0  0
   51.5634   31.3306   41.0200 H   0  0  0  0  0  0  0  0  0  0  0  0
   50.2902   30.6720   40.0216 H   0  0  0  0  0  0  0  0  0  0  0  0
   50.4700   33.3858   40.3364 H   0  0  0  0  0  0  0  0  0  0  0  0
   48.8747   32.7319   40.3471 H   0  0  0  0  0  0  0  0  0  0  0  0
   50.7531   33.1840   42.8554 H   0  0  0  0  0  0  0  0  0  0  0  0
  1  6  2  0
  2  1  1  0
  3  2  2  0
  3  4  1  0
  4  5  2  0
  5  6  1  0
  5  8  1  0
  7 11  1  0
  7 12  1  0
  8  7  1  0
  9  8  1  0
  9 10  1  0
 10 11  1  0
 13  3  1  0
 15 14  2  0
 15 13  1  0
 15 17  1  0
 16 15  1  0
 19 18  1  0
 20 19  1  0
 21 20  1  0
 21 22  1  0
 22 17  1  0
 22 18  1  0
  1 23  1  0
  2 24  1  0
  7 25  1  6
  8 26  1  1
  9 27  1  0
  9 28  1  0
 11 29  1  0
 11 30  1  0
 12 31  1  0
 16 32  1  0
 18 33  1  0
 19 34  1  0
 19 35  1  0
 20 36  1  0
 20 37  1  0
 21 38  1  0
 21 39  1  0
 22 40  1  1
M  ISO  8  23  14  24  14  25  13  26  13  27  13  28  13  29  13  30  13
M  ISO  8  31   3  32   3  33   5  34  13  35  13  36  13  37  13  38  13
M  ISO  2  39  13  40  13
M  END
>  <minimizedAffinity>  (1) 
-5.4750247

>  <minimizedRMSD>  (1) 
1.71588671

$$$$
