
     RDKit          3D

 23 23  0  0  0  0  0  0  0  0999 V2000
   44.1090   34.1540   40.0270 C   0  0  0  0  0  0  0  0  0  0  0  0
   44.7280   33.9880   41.2630 C   0  0  0  0  0  0  0  0  0  0  0  0
   44.1320   34.5780   42.3790 C   0  0  0  0  0  0  0  0  0  0  0  0
   42.9940   35.2770   42.2180 N   0  0  0  0  0  0  0  0  0  0  0  0
   42.4190   35.4220   41.0280 C   0  0  0  0  0  0  0  0  0  0  0  0
   42.9850   34.8540   39.9250 N   0  0  0  0  0  0  0  0  0  0  0  0
   43.9760   32.4260   38.2530 C   0  0  0  0  0  0  0  0  0  0  0  0
   43.6110   31.5060   39.0340 O   0  0  0  0  0  0  0  0  0  0  0  0
   44.2510   33.8040   38.6450 N   0  0  0  0  0  0  0  0  0  0  0  0
   45.8920   33.2450   41.2700 O   0  0  0  0  0  0  0  0  0  0  0  0
   48.5020   32.9450   41.0680 O   0  0  0  0  0  0  0  0  0  0  0  0
   47.3990   33.9530   40.8310 P   0  0  1  0  0  0  0  0  0  0  0  0
   47.3890   34.3140   39.1940 O   0  0  0  0  0  0  0  0  0  0  0  0
   47.6990   35.3450   41.7330 O   0  0  0  0  0  0  0  0  0  0  0  0
   48.9960   35.7590   41.3670 C   0  0  0  0  0  0  0  0  0  0  0  0
   49.0080   35.8820   40.0000 F   0  0  0  0  0  0  0  0  0  0  0  0
   49.9300   34.8480   41.8240 F   0  0  0  0  0  0  0  0  0  0  0  0
   49.2090   36.9900   41.9590 F   0  0  0  0  0  0  0  0  0  0  0  0
   44.5862   34.4729   43.3753 H   0  0  0  0  0  0  0  0  0  0  0  0
   41.4876   35.9996   40.9333 H   0  0  0  0  0  0  0  0  0  0  0  0
   44.0968   32.1689   37.1903 H   0  0  0  0  0  0  0  0  0  0  0  0
   44.5391   34.5054   37.9479 H   0  0  0  0  0  0  0  0  0  0  0  0
   47.3618   35.2962   39.0728 H   0  0  0  0  0  0  0  0  0  0  0  0
  1  2  2  0
  2 10  1  0
  2  3  1  0
  4  3  2  0
  5  4  1  0
  6  1  1  0
  6  5  2  0
  7  9  1  0
  7  8  2  0
  9  1  1  0
 12 11  2  0
 12 10  1  0
 12 14  1  0
 13 12  1  0
 15 14  1  0
 15 17  1  0
 15 18  1  0
 16 15  1  0
  3 19  1  0
  5 20  1  0
  7 21  1  0
  9 22  1  0
 13 23  1  0
M  ISO  4  19  14  20  14  21   6  23   3
M  END
>  <minimizedAffinity>  (1) 
-4.43967819

>  <minimizedRMSD>  (1) 
3.77650476

$$$$
