
     RDKit          3D

 20 20  0  0  0  0  0  0  0  0999 V2000
   46.5300   34.2650   43.0740 C   0  0  0  0  0  0  0  0  0  0  0  0
   47.3870   33.3610   43.6990 C   0  0  0  0  0  0  0  0  0  0  0  0
   47.1380   33.0320   45.0390 C   0  0  0  0  0  0  0  0  0  0  0  0
   46.0840   33.6060   45.6580 N   0  0  0  0  0  0  0  0  0  0  0  0
   45.2770   34.4680   45.0350 C   0  0  0  0  0  0  0  0  0  0  0  0
   45.5060   34.8000   43.7260 N   0  0  0  0  0  0  0  0  0  0  0  0
   45.4950   34.2410   40.8180 C   0  0  0  0  0  0  0  0  0  0  0  0
   44.9440   33.1080   40.9750 O   0  0  0  0  0  0  0  0  0  0  0  0
   46.3160   34.9080   41.8210 N   0  0  0  0  0  0  0  0  0  0  0  0
   48.4170   32.8610   42.9380 O   0  0  0  0  0  0  0  0  0  0  0  0
   50.9110   33.0880   42.0920 O   0  0  0  0  0  0  0  0  0  0  0  0
   49.6540   33.8820   42.3210 P   0  0  0  0  0  0  0  0  0  0  0  0
   49.1800   34.5050   40.8290 O   0  0  0  0  0  0  0  0  0  0  0  0
   49.9730   35.1510   43.3800 O   0  0  0  0  0  0  0  0  0  0  0  0
   47.7864   32.3225   45.5739 H   0  0  0  0  0  0  0  0  0  0  0  0
   44.4270   34.9122   45.5737 H   0  0  0  0  0  0  0  0  0  0  0  0
   45.3421   34.7554   39.8578 H   0  0  0  0  0  0  0  0  0  0  0  0
   46.7344   35.8290   41.6269 H   0  0  0  0  0  0  0  0  0  0  0  0
   48.5867   35.2848   40.9704 H   0  0  0  0  0  0  0  0  0  0  0  0
   49.8924   34.8303   44.3131 H   0  0  0  0  0  0  0  0  0  0  0  0
  1  2  2  0
  1  6  1  0
  2  3  1  0
  3  4  2  0
  5  4  1  0
  6  5  2  0
  7  8  2  0
  7  9  1  0
  9  1  1  0
 10  2  1  0
 11 12  2  0
 12 10  1  0
 12 14  1  0
 13 12  1  0
  3 15  1  0
  5 16  1  0
  7 17  1  0
  9 18  1  0
 13 19  1  0
 14 20  1  0
M  ISO  5  15  14  16  14  17   6  19   3  20   3
M  END
>  <minimizedAffinity>  (1) 
-4.48269272

>  <minimizedRMSD>  (1) 
1.09132767

$$$$
