
     RDKit          3D

 26 26  0  0  0  0  0  0  0  0999 V2000
   45.0890   35.0580   43.3950 C   0  0  0  0  0  0  0  0  0  0  0  0
   45.7970   33.9070   43.6920 C   0  0  0  0  0  0  0  0  0  0  0  0
   45.8650   33.4840   45.0250 C   0  0  0  0  0  0  0  0  0  0  0  0
   45.2420   34.2120   45.9710 N   0  0  0  0  0  0  0  0  0  0  0  0
   44.5580   35.3290   45.6620 C   0  0  0  0  0  0  0  0  0  0  0  0
   44.4870   35.7480   44.3610 N   0  0  0  0  0  0  0  0  0  0  0  0
   43.6320   35.4510   41.4260 C   0  0  0  0  0  0  0  0  0  0  0  0
   42.9820   34.3640   41.5740 O   0  0  0  0  0  0  0  0  0  0  0  0
   44.7100   35.8930   42.3110 N   0  0  0  0  0  0  0  0  0  0  0  0
   46.3830   33.2630   42.6250 O   0  0  0  0  0  0  0  0  0  0  0  0
   48.4020   31.7020   43.3270 O   0  0  0  0  0  0  0  0  0  0  0  0
   48.0650   32.9650   42.5720 P   0  0  1  0  0  0  0  0  0  0  0  0
   48.5400   32.7230   40.9650 O   0  0  0  0  0  0  0  0  0  0  0  0
   48.9330   34.2530   43.2070 O   0  0  0  0  0  0  0  0  0  0  0  0
   49.7430   34.7800   42.2060 C   0  0  0  0  0  0  0  0  0  0  0  0
   49.1000   36.0180   41.5890 C   0  0  0  0  0  0  0  0  0  0  0  0
   46.4181   32.5723   45.2949 H   0  0  0  0  0  0  0  0  0  0  0  0
   44.0566   35.9045   46.4541 H   0  0  0  0  0  0  0  0  0  0  0  0
   43.3649   36.0985   40.5778 H   0  0  0  0  0  0  0  0  0  0  0  0
   45.1849   36.7928   42.1507 H   0  0  0  0  0  0  0  0  0  0  0  0
   49.4219   32.2737   40.9457 H   0  0  0  0  0  0  0  0  0  0  0  0
   50.7168   35.0555   42.6370 H   0  0  0  0  0  0  0  0  0  0  0  0
   49.8745   34.0209   41.4208 H   0  0  0  0  0  0  0  0  0  0  0  0
   48.7521   36.6879   42.3892 H   0  0  0  0  0  0  0  0  0  0  0  0
   49.8392   36.5434   40.9665 H   0  0  0  0  0  0  0  0  0  0  0  0
   48.2451   35.7155   40.9665 H   0  0  0  0  0  0  0  0  0  0  0  0
  1  2  2  0
  1  6  1  0
  2  3  1  0
  3  4  2  0
  5  4  1  0
  6  5  2  0
  7  8  2  0
  7  9  1  0
  9  1  1  0
 10  2  1  0
 12 10  1  0
 12 14  1  0
 12 11  2  0
 13 12  1  0
 15 14  1  0
 16 15  1  0
  3 17  1  0
  5 18  1  0
  7 19  1  0
  9 20  1  0
 13 21  1  0
 15 22  1  0
 15 23  1  0
 16 24  1  0
 16 25  1  0
 16 26  1  0
M  ISO  8  17  14  18  14  19   6  21   3  22   8  23   8  24   8  25   8
M  ISO  1  26   8
M  END
>  <minimizedAffinity>  (1) 
-4.1239109

>  <minimizedRMSD>  (1) 
1.84799981

$$$$
