
     RDKit          3D

 35 36  0  0  1  0  0  0  0  0999 V2000
   50.1980   34.8720   42.6780 O   0  0  0  0  0  0  0  0  0  0  0  0
   49.0350   34.5670   41.8120 P   0  0  1  0  0  0  0  0  0  0  0  0
   48.9440   35.8090   40.6500 O   0  0  0  0  0  0  0  0  0  0  0  0
   49.2990   33.0990   40.9500 O   0  0  0  0  0  0  0  0  0  0  0  0
   49.6140   31.3980   42.5550 C   0  0  0  0  0  0  0  0  0  0  0  0
   50.0910   32.0910   41.4670 C   0  0  0  0  0  0  0  0  0  0  0  0
   51.3580   31.7360   40.9380 C   0  0  0  0  0  0  0  0  0  0  0  0
   52.0220   30.7310   41.5440 N   0  0  0  0  0  0  0  0  0  0  0  0
   51.5330   30.0860   42.5890 C   0  0  0  0  0  0  0  0  0  0  0  0
   50.3190   30.4320   43.0890 N   0  0  0  0  0  0  0  0  0  0  0  0
   47.1930   30.9080   42.8740 C   0  0  0  0  0  0  0  0  0  0  0  0
   47.0100   30.5620   41.6460 O   0  0  0  0  0  0  0  0  0  0  0  0
   48.4840   31.3560   43.4140 N   0  0  0  0  0  0  0  0  0  0  0  0
   47.6030   34.5090   42.6280 O   0  0  0  0  0  0  0  0  0  0  0  0
   46.4930   34.9720   42.0530 C   0  0  2  0  0  0  0  0  0  0  0  0
   45.4830   35.6440   42.8890 C   0  0  0  0  0  0  0  0  0  0  0  0
   44.1600   35.6500   42.1490 C   0  0  0  0  0  0  0  0  0  0  0  0
   43.5980   34.3760   42.1350 O   0  0  0  0  0  0  0  0  0  0  0  0
   44.5820   33.4080   42.0580 C   0  0  0  0  0  0  0  0  0  0  0  0
   45.7580   33.8960   41.2300 C   0  0  1  0  0  0  0  0  0  0  0  0
   45.3160   34.3790   40.0110 O   0  0  0  0  0  0  0  0  0  0  0  0
   48.8798   36.6847   41.1073 H   0  0  0  0  0  0  0  0  0  0  0  0
   51.7820   32.2594   40.0684 H   0  0  0  0  0  0  0  0  0  0  0  0
   52.1082   29.2709   43.0524 H   0  0  0  0  0  0  0  0  0  0  0  0
   46.3324   30.8654   43.5578 H   0  0  0  0  0  0  0  0  0  0  0  0
   48.5682   31.6357   44.4017 H   0  0  0  0  0  0  0  0  0  0  0  0
   46.9355   35.7628   41.4294 H   0  0  0  0  0  0  0  0  0  0  0  0
   45.3717   35.1032   43.8404 H   0  0  0  0  0  0  0  0  0  0  0  0
   45.7986   36.6769   43.0977 H   0  0  0  0  0  0  0  0  0  0  0  0
   43.4691   36.3439   42.6501 H   0  0  0  0  0  0  0  0  0  0  0  0
   44.3366   35.9700   41.1115 H   0  0  0  0  0  0  0  0  0  0  0  0
   44.9312   33.1677   43.0731 H   0  0  0  0  0  0  0  0  0  0  0  0
   44.1592   32.5143   41.5758 H   0  0  0  0  0  0  0  0  0  0  0  0
   46.4554   33.0753   41.0059 H   0  0  0  0  0  0  0  0  0  0  0  0
   44.6555   35.1008   40.1619 H   0  0  0  0  0  0  0  0  0  0  0  0
  2 14  1  0
  2  1  2  0
  3  2  1  0
  4  6  1  0
  4  2  1  0
  5 10  2  0
  5 13  1  0
  6  5  1  0
  7  6  2  0
  7  8  1  0
  8  9  2  0
  9 10  1  0
 11 13  1  0
 12 11  2  0
 15 14  1  0
 15 16  1  0
 17 16  1  0
 18 17  1  0
 19 18  1  0
 20 15  1  0
 20 19  1  0
 21 20  1  0
  3 22  1  0
  7 23  1  0
  9 24  1  0
 11 25  1  0
 13 26  1  0
 15 27  1  6
 16 28  1  0
 16 29  1  0
 17 30  1  0
 17 31  1  0
 19 32  1  0
 19 33  1  0
 20 34  1  6
 21 35  1  0
M  ISO  8  22   3  23  14  24  14  25   6  27  13  28  13  29  13  30  13
M  ISO  5  31  13  32  13  33  13  34  13  35   3
M  END
>  <minimizedAffinity>  (1) 
-4.50459528

>  <minimizedRMSD>  (1) 
0.209980682

$$$$
