
     RDKit          3D

 33 35  0  0  0  0  0  0  0  0999 V2000
   45.3250   36.1870   43.1630 C   0  0  0  0  0  0  0  0  0  0  0  0
   45.9360   34.9300   42.9210 C   0  0  0  0  0  0  0  0  0  0  0  0
   45.8520   33.9780   43.9260 C   0  0  0  0  0  0  0  0  0  0  0  0
   45.2090   34.2690   45.0680 N   0  0  0  0  0  0  0  0  0  0  0  0
   44.6260   35.4900   45.2790 C   0  0  0  0  0  0  0  0  0  0  0  0
   44.6970   36.4130   44.3300 N   0  0  0  0  0  0  0  0  0  0  0  0
   46.4750   32.6800   43.6920 C   0  0  0  0  0  0  0  0  0  0  0  0
   45.6680   31.5690   43.4640 C   0  0  0  0  0  0  0  0  0  0  0  0
   46.2960   30.3580   43.2460 C   0  0  0  0  0  0  0  0  0  0  0  0
   47.6900   30.1960   43.2440 C   0  0  0  0  0  0  0  0  0  0  0  0
   48.4170   31.3600   43.4810 C   0  0  0  0  0  0  0  0  0  0  0  0
   47.7980   32.5370   43.6930 N   0  0  0  0  0  0  0  0  0  0  0  0
   46.5990   34.6920   41.6900 C   0  0  0  0  0  0  0  0  0  0  0  0
   47.7750   35.1380   41.5650 O   0  0  0  0  0  0  0  0  0  0  0  0
   46.1580   34.0110   40.5190 N   0  0  0  0  0  0  0  0  0  0  0  0
   44.7570   33.7000   40.3070 C   0  0  0  0  0  0  0  0  0  0  0  0
   44.7180   32.1960   40.1110 C   0  0  0  0  0  0  0  0  0  0  0  0
   45.9930   31.9780   39.3260 C   0  0  0  0  0  0  0  0  0  0  0  0
   46.5260   33.3960   39.2570 C   0  0  0  0  0  0  0  0  0  0  0  0
   45.3649   36.9756   42.3971 H   0  0  0  0  0  0  0  0  0  0  0  0
   44.1052   35.7024   46.2243 H   0  0  0  0  0  0  0  0  0  0  0  0
   44.5712   31.6522   43.4576 H   0  0  0  0  0  0  0  0  0  0  0  0
   45.6693   29.4725   43.0641 H   0  0  0  0  0  0  0  0  0  0  0  0
   48.1721   29.2230   43.0685 H   0  0  0  0  0  0  0  0  0  0  0  0
   49.5161   31.3172   43.4953 H   0  0  0  0  0  0  0  0  0  0  0  0
   44.1586   33.9921   41.1826 H   0  0  0  0  0  0  0  0  0  0  0  0
   44.3376   34.2414   39.4462 H   0  0  0  0  0  0  0  0  0  0  0  0
   44.7385   31.6620   41.0725 H   0  0  0  0  0  0  0  0  0  0  0  0
   43.8091   31.8253   39.6146 H   0  0  0  0  0  0  0  0  0  0  0  0
   46.6867   31.3095   39.8570 H   0  0  0  0  0  0  0  0  0  0  0  0
   45.8503   31.4956   38.3478 H   0  0  0  0  0  0  0  0  0  0  0  0
   47.6194   33.3902   39.1367 H   0  0  0  0  0  0  0  0  0  0  0  0
   46.1119   33.9461   38.3991 H   0  0  0  0  0  0  0  0  0  0  0  0
  1  6  2  0
  2  1  1  0
  2  3  2  0
  3  4  1  0
  4  5  2  0
  6  5  1  0
  7 12  1  0
  7  3  1  0
  8  7  2  0
  9  8  1  0
 10  9  2  0
 10 11  1  0
 11 12  2  0
 13  2  1  0
 14 13  2  0
 15 13  1  0
 16 15  1  0
 17 16  1  0
 18 17  1  0
 19 18  1  0
 19 15  1  0
  1 20  1  0
  5 21  1  0
  8 22  1  0
  9 23  1  0
 10 24  1  0
 11 25  1  0
 16 26  1  0
 16 27  1  0
 17 28  1  0
 17 29  1  0
 18 30  1  0
 18 31  1  0
 19 32  1  0
 19 33  1  0
M  ISO  8  20  14  21  14  22  14  23  14  24  14  25  14  26  13  27  13
M  ISO  6  28  13  29  13  30  13  31  13  32  13  33  13
M  END
>  <minimizedAffinity>  (1) 
-4.3465023

>  <minimizedRMSD>  (1) 
0.131099895

$$$$
