
     RDKit          3D

 33 35  0  0  1  0  0  0  0  0999 V2000
   44.4560   34.1900   40.5900 C   0  0  1  0  0  0  0  0  0  0  0  0
   44.3640   32.6710   40.2370 C   0  0  0  0  0  0  0  0  0  0  0  0
   43.2930   33.4150   40.9520 C   0  0  2  0  0  0  0  0  0  0  0  0
   42.0070   33.7970   40.2760 C   0  0  0  0  0  0  0  0  0  0  0  0
   42.2340   34.9790   39.3560 C   0  0  0  0  0  0  0  0  0  0  0  0
   40.9480   35.6260   38.9420 C   0  0  0  0  0  0  0  0  0  0  0  0
   40.2870   36.0850   40.0500 O   0  0  0  0  0  0  0  0  0  0  0  0
   40.7070   35.5700   41.2560 C   0  0  0  0  0  0  0  0  0  0  0  0
   40.8730   34.0490   41.2020 C   0  0  0  0  0  0  0  0  0  0  0  0
   45.5200   34.4820   41.5970 C   0  0  0  0  0  0  0  0  0  0  0  0
   46.6730   34.5860   41.1670 O   0  0  0  0  0  0  0  0  0  0  0  0
   45.5660   33.6800   43.9010 C   0  0  0  0  0  0  0  0  0  0  0  0
   45.2730   34.6540   42.9920 C   0  0  0  0  0  0  0  0  0  0  0  0
   44.7250   35.8640   43.4590 C   0  0  0  0  0  0  0  0  0  0  0  0
   44.5060   36.0320   44.7780 N   0  0  0  0  0  0  0  0  0  0  0  0
   44.8120   35.0340   45.6710 C   0  0  0  0  0  0  0  0  0  0  0  0
   45.3270   33.8990   45.2220 N   0  0  0  0  0  0  0  0  0  0  0  0
   44.5679   35.1561   40.0760 H   0  0  0  0  0  0  0  0  0  0  0  0
   44.2203   32.3462   39.1959 H   0  0  0  0  0  0  0  0  0  0  0  0
   44.9693   31.7710   40.4202 H   0  0  0  0  0  0  0  0  0  0  0  0
   42.7626   33.1847   41.8878 H   0  0  0  0  0  0  0  0  0  0  0  0
   41.7009   32.9193   39.6879 H   0  0  0  0  0  0  0  0  0  0  0  0
   42.8526   35.7226   39.8799 H   0  0  0  0  0  0  0  0  0  0  0  0
   42.7353   34.6107   38.4488 H   0  0  0  0  0  0  0  0  0  0  0  0
   41.1625   36.4688   38.2684 H   0  0  0  0  0  0  0  0  0  0  0  0
   40.3194   34.8888   38.4210 H   0  0  0  0  0  0  0  0  0  0  0  0
   41.6739   36.0239   41.5189 H   0  0  0  0  0  0  0  0  0  0  0  0
   39.9410   35.8022   42.0105 H   0  0  0  0  0  0  0  0  0  0  0  0
   39.9554   33.5770   40.8209 H   0  0  0  0  0  0  0  0  0  0  0  0
   41.0644   33.6275   42.1998 H   0  0  0  0  0  0  0  0  0  0  0  0
   45.9932   32.7228   43.5675 H   0  0  0  0  0  0  0  0  0  0  0  0
   44.4769   36.6682   42.7507 H   0  0  0  0  0  0  0  0  0  0  0  0
   44.6314   35.1757   46.7468 H   0  0  0  0  0  0  0  0  0  0  0  0
  1  3  1  0
  1 10  1  0
  2  1  1  0
  2  3  1  0
  4  3  1  0
  4  9  1  0
  5  4  1  0
  6  5  1  0
  6  7  1  0
  7  8  1  0
  9  8  1  0
 10 13  1  0
 11 10  2  0
 12 17  2  0
 13 14  2  0
 13 12  1  0
 14 15  1  0
 15 16  2  0
 17 16  1  0
  1 18  1  6
  2 19  1  0
  2 20  1  0
  3 21  1  1
  4 22  1  0
  5 23  1  0
  5 24  1  0
  6 25  1  0
  6 26  1  0
  8 27  1  0
  8 28  1  0
  9 29  1  0
  9 30  1  0
 12 31  1  0
 14 32  1  0
 16 33  1  0
M  ISO  8  18  13  19  13  20  13  21  13  22  13  23  13  24  13  25  13
M  ISO  8  26  13  27  13  28  13  29  13  30  13  31  14  32  14  33  14
M  END
>  <minimizedAffinity>  (1) 
-4.74648476

>  <minimizedRMSD>  (1) 
6.77547598

$$$$
