
     RDKit          3D

 27 29  0  0  0  0  0  0  0  0999 V2000
   45.1320   36.1440   43.4800 C   0  0  0  0  0  0  0  0  0  0  0  0
   45.7600   34.9240   43.1220 C   0  0  0  0  0  0  0  0  0  0  0  0
   45.7920   33.9260   44.0710 C   0  0  0  0  0  0  0  0  0  0  0  0
   45.2460   34.1190   45.2840 N   0  0  0  0  0  0  0  0  0  0  0  0
   44.6410   35.3130   45.6100 C   0  0  0  0  0  0  0  0  0  0  0  0
   44.6030   36.2860   44.7020 N   0  0  0  0  0  0  0  0  0  0  0  0
   46.4360   32.6610   43.7170 C   0  0  0  0  0  0  0  0  0  0  0  0
   45.6700   31.5700   43.3710 C   0  0  0  0  0  0  0  0  0  0  0  0
   46.3190   30.4000   43.0450 C   0  0  0  0  0  0  0  0  0  0  0  0
   47.7110   30.2580   43.0450 C   0  0  0  0  0  0  0  0  0  0  0  0
   48.4150   31.3970   43.4040 C   0  0  0  0  0  0  0  0  0  0  0  0
   47.7820   32.5430   43.7230 N   0  0  0  0  0  0  0  0  0  0  0  0
   46.3210   34.7770   41.8300 C   0  0  0  0  0  0  0  0  0  0  0  0
   47.4930   35.1630   41.6240 O   0  0  0  0  0  0  0  0  0  0  0  0
   45.5360   34.1810   40.7590 C   0  0  0  0  0  0  0  0  0  0  0  0
   46.3360   33.4590   39.8550 C   0  0  0  0  0  0  0  0  0  0  0  0
   45.1290   32.8070   38.6030 S   0  0  0  0  0  0  0  0  0  0  0  0
   43.7220   33.6550   39.5580 C   0  0  0  0  0  0  0  0  0  0  0  0
   44.2740   34.1360   40.4040 N   0  0  0  0  0  0  0  0  0  0  0  0
   45.0796   36.9709   42.7564 H   0  0  0  0  0  0  0  0  0  0  0  0
   44.1962   35.4602   46.6052 H   0  0  0  0  0  0  0  0  0  0  0  0
   44.5718   31.6314   43.3555 H   0  0  0  0  0  0  0  0  0  0  0  0
   45.7085   29.5276   42.7689 H   0  0  0  0  0  0  0  0  0  0  0  0
   48.2092   29.3137   42.7801 H   0  0  0  0  0  0  0  0  0  0  0  0
   49.5142   31.3646   43.4290 H   0  0  0  0  0  0  0  0  0  0  0  0
   47.4260   33.3139   39.8831 H   0  0  0  0  0  0  0  0  0  0  0  0
   42.6446   33.6693   39.3366 H   0  0  0  0  0  0  0  0  0  0  0  0
  1  6  2  0
  2  1  1  0
  2  3  2  0
  3  4  1  0
  4  5  2  0
  6  5  1  0
  7 12  1  0
  7  3  1  0
  8  7  2  0
  9 10  2  0
  9  8  1  0
 10 11  1  0
 11 12  2  0
 13  2  1  0
 14 13  2  0
 15 13  1  0
 16 15  2  0
 17 18  1  0
 17 16  1  0
 18 19  2  0
 19 15  1  0
  1 20  1  0
  5 21  1  0
  8 22  1  0
  9 23  1  0
 10 24  1  0
 11 25  1  0
 16 26  1  0
 18 27  1  0
M  ISO  8  20  14  21  14  22  14  23  14  24  14  25  14  26  14  27  14
M  END
>  <minimizedAffinity>  (1) 
-4.31966925

>  <minimizedRMSD>  (1) 
0.474515915

$$$$
