
     RDKit          3D

 39 41  0  0  1  0  0  0  0  0999 V2000
   47.3100   33.5220   42.9090 C   0  0  0  0  0  0  0  0  0  0  0  0
   48.3960   33.3240   43.5130 O   0  0  0  0  0  0  0  0  0  0  0  0
   47.0100   32.9740   41.6270 N   0  0  0  0  0  0  0  0  0  0  0  0
   45.7800   32.3380   41.1400 C   0  0  0  0  0  0  0  0  0  0  0  0
   45.3230   33.0200   39.8430 C   0  0  0  0  0  0  0  0  0  0  0  0
   46.3560   32.7790   38.7760 C   0  0  0  0  0  0  0  0  0  0  0  0
   47.6140   32.2530   39.3960 C   0  0  0  0  0  0  0  0  0  0  0  0
   48.0190   33.0360   40.6160 C   0  0  2  0  0  0  0  0  0  0  0  0
   45.9600   35.5610   42.9260 C   0  0  0  0  0  0  0  0  0  0  0  0
   46.3280   34.3490   43.5630 C   0  0  0  0  0  0  0  0  0  0  0  0
   45.7460   34.0090   44.7700 C   0  0  0  0  0  0  0  0  0  0  0  0
   44.8380   34.8500   45.3040 N   0  0  0  0  0  0  0  0  0  0  0  0
   44.4740   36.0160   44.7080 C   0  0  0  0  0  0  0  0  0  0  0  0
   45.0400   36.3470   43.5340 N   0  0  0  0  0  0  0  0  0  0  0  0
   46.1470   32.7710   45.4050 C   0  0  0  0  0  0  0  0  0  0  0  0
   45.7630   31.5760   44.8760 C   0  0  0  0  0  0  0  0  0  0  0  0
   46.1520   30.4050   45.4860 C   0  0  0  0  0  0  0  0  0  0  0  0
   46.9340   30.3870   46.6400 C   0  0  0  0  0  0  0  0  0  0  0  0
   47.2970   31.6360   47.1390 C   0  0  0  0  0  0  0  0  0  0  0  0
   46.8950   32.7470   46.5110 N   0  0  0  0  0  0  0  0  0  0  0  0
   49.3780   32.5010   40.9920 C   0  0  0  0  0  0  0  0  0  0  0  0
   50.1500   32.2050   39.8700 F   0  0  0  0  0  0  0  0  0  0  0  0
   50.1070   33.5980   41.5540 F   0  0  0  0  0  0  0  0  0  0  0  0
   49.4060   31.5720   41.9720 F   0  0  0  0  0  0  0  0  0  0  0  0
   45.9719   31.2726   40.9448 H   0  0  0  0  0  0  0  0  0  0  0  0
   44.9923   32.4382   41.9012 H   0  0  0  0  0  0  0  0  0  0  0  0
   44.3579   32.5990   39.5246 H   0  0  0  0  0  0  0  0  0  0  0  0
   45.2059   34.1007   40.0113 H   0  0  0  0  0  0  0  0  0  0  0  0
   46.5724   33.7246   38.2572 H   0  0  0  0  0  0  0  0  0  0  0  0
   45.9698   32.0413   38.0572 H   0  0  0  0  0  0  0  0  0  0  0  0
   47.4540   31.2040   39.6857 H   0  0  0  0  0  0  0  0  0  0  0  0
   48.4200   32.3456   38.6532 H   0  0  0  0  0  0  0  0  0  0  0  0
   48.1059   34.1190   40.4439 H   0  0  0  0  0  0  0  0  0  0  0  0
   46.4089   35.8544   41.9656 H   0  0  0  0  0  0  0  0  0  0  0  0
   43.7302   36.6767   45.1773 H   0  0  0  0  0  0  0  0  0  0  0  0
   45.1454   31.5469   43.9662 H   0  0  0  0  0  0  0  0  0  0  0  0
   45.8341   29.4480   45.0467 H   0  0  0  0  0  0  0  0  0  0  0  0
   47.2437   29.4491   47.1242 H   0  0  0  0  0  0  0  0  0  0  0  0
   47.9129   31.7087   48.0475 H   0  0  0  0  0  0  0  0  0  0  0  0
  1  2  2  0
  1 10  1  0
  3  1  1  0
  4  3  1  0
  5  4  1  0
  6  7  1  0
  6  5  1  0
  7  8  1  0
  8 21  1  0
  8  3  1  0
  9 14  2  0
  9 10  1  0
 10 11  2  0
 11 12  1  0
 11 15  1  0
 13 12  2  0
 14 13  1  0
 15 20  1  0
 16 15  2  0
 16 17  1  0
 17 18  2  0
 18 19  1  0
 20 19  2  0
 21 23  1  0
 21 24  1  0
 22 21  1  0
  4 25  1  0
  4 26  1  0
  5 27  1  0
  5 28  1  0
  6 29  1  0
  6 30  1  0
  7 31  1  0
  7 32  1  0
  8 33  1  6
  9 34  1  0
 13 35  1  0
 16 36  1  0
 17 37  1  0
 18 38  1  0
 19 39  1  0
M  ISO  8  25  13  26  13  27  13  28  13  29  13  30  13  31  13  32  13
M  ISO  7  33  13  34  14  35  14  36  14  37  14  38  14  39  14
M  END
>  <minimizedAffinity>  (1) 
-5.24951506

>  <minimizedRMSD>  (1) 
0.357398391

$$$$
