
     RDKit          3D

 54 57  0  0  1  0  0  0  0  0999 V2000
   46.6840   33.2030   42.8940 C   0  0  0  0  0  0  0  0  0  0  0  0
   47.9420   33.1500   43.0710 O   0  0  0  0  0  0  0  0  0  0  0  0
   45.9970   32.4020   41.9510 N   0  0  0  0  0  0  0  0  0  0  0  0
   44.7460   31.6340   42.0940 C   0  0  0  0  0  0  0  0  0  0  0  0
   43.8160   31.9690   40.9440 C   0  0  0  0  0  0  0  0  0  0  0  0
   44.4140   31.5660   39.6300 C   0  0  0  0  0  0  0  0  0  0  0  0
   45.8760   31.2560   39.8130 C   0  0  0  0  0  0  0  0  0  0  0  0
   46.5920   32.2960   40.6300 C   0  0  2  0  0  0  0  0  0  0  0  0
   45.4710   35.3180   43.0920 C   0  0  0  0  0  0  0  0  0  0  0  0
   45.9270   34.1280   43.7000 C   0  0  0  0  0  0  0  0  0  0  0  0
   45.6390   33.8810   45.0350 C   0  0  0  0  0  0  0  0  0  0  0  0
   44.9190   34.8100   45.7050 N   0  0  0  0  0  0  0  0  0  0  0  0
   44.4750   35.9600   45.1290 C   0  0  0  0  0  0  0  0  0  0  0  0
   44.7620   36.1860   43.8370 N   0  0  0  0  0  0  0  0  0  0  0  0
   46.1190   32.6510   45.6310 C   0  0  0  0  0  0  0  0  0  0  0  0
   45.5880   31.4560   45.2620 C   0  0  0  0  0  0  0  0  0  0  0  0
   46.0700   30.3030   45.8510 C   0  0  0  0  0  0  0  0  0  0  0  0
   47.0750   30.3080   46.8080 C   0  0  0  0  0  0  0  0  0  0  0  0
   47.5820   31.5590   47.1470 C   0  0  0  0  0  0  0  0  0  0  0  0
   47.0930   32.6570   46.5570 N   0  0  0  0  0  0  0  0  0  0  0  0
   48.0440   31.9740   40.6540 C   0  0  0  0  0  0  0  0  0  0  0  0
   48.6970   32.8620   39.7230 N   0  0  0  0  0  0  0  0  0  0  0  0
   49.3170   32.2100   38.6120 C   0  0  0  0  0  0  0  0  0  0  0  0
   48.3480   32.1420   37.4340 C   0  0  0  0  0  0  0  0  0  0  0  0
   48.0710   33.5260   36.9570 C   0  0  0  0  0  0  0  0  0  0  0  0
   48.4750   34.5230   38.0210 C   0  0  0  0  0  0  0  0  0  0  0  0
   48.0050   34.0500   39.3910 C   0  0  0  0  0  0  0  0  0  0  0  0
   44.9725   30.5576   42.0814 H   0  0  0  0  0  0  0  0  0  0  0  0
   44.2615   31.8943   43.0466 H   0  0  0  0  0  0  0  0  0  0  0  0
   42.8646   31.4350   41.0844 H   0  0  0  0  0  0  0  0  0  0  0  0
   43.6517   33.0566   40.9336 H   0  0  0  0  0  0  0  0  0  0  0  0
   44.3020   32.3893   38.9092 H   0  0  0  0  0  0  0  0  0  0  0  0
   43.8960   30.6721   39.2523 H   0  0  0  0  0  0  0  0  0  0  0  0
   45.9689   30.2845   40.3205 H   0  0  0  0  0  0  0  0  0  0  0  0
   46.3396   31.2399   38.8156 H   0  0  0  0  0  0  0  0  0  0  0  0
   46.4842   33.2914   40.1744 H   0  0  0  0  0  0  0  0  0  0  0  0
   45.6899   35.5304   42.0351 H   0  0  0  0  0  0  0  0  0  0  0  0
   43.8925   36.6900   45.7103 H   0  0  0  0  0  0  0  0  0  0  0  0
   44.7887   31.4075   44.5078 H   0  0  0  0  0  0  0  0  0  0  0  0
   45.6379   29.3379   45.5479 H   0  0  0  0  0  0  0  0  0  0  0  0
   47.4474   29.3816   47.2695 H   0  0  0  0  0  0  0  0  0  0  0  0
   48.3818   31.6454   47.8972 H   0  0  0  0  0  0  0  0  0  0  0  0
   48.4467   32.1276   41.6660 H   0  0  0  0  0  0  0  0  0  0  0  0
   48.2142   30.9238   40.3744 H   0  0  0  0  0  0  0  0  0  0  0  0
   50.2132   32.7737   38.3135 H   0  0  0  0  0  0  0  0  0  0  0  0
   49.5976   31.1878   38.9060 H   0  0  0  0  0  0  0  0  0  0  0  0
   48.7968   31.5537   36.6201 H   0  0  0  0  0  0  0  0  0  0  0  0
   47.4101   31.6618   37.7499 H   0  0  0  0  0  0  0  0  0  0  0  0
   48.6456   33.7181   36.0389 H   0  0  0  0  0  0  0  0  0  0  0  0
   46.9960   33.6311   36.7489 H   0  0  0  0  0  0  0  0  0  0  0  0
   49.5704   34.6237   38.0274 H   0  0  0  0  0  0  0  0  0  0  0  0
   48.0099   35.4945   37.7977 H   0  0  0  0  0  0  0  0  0  0  0  0
   48.2174   34.8244   40.1428 H   0  0  0  0  0  0  0  0  0  0  0  0
   46.9219   33.8593   39.3702 H   0  0  0  0  0  0  0  0  0  0  0  0
  1  2  2  0
  1 10  1  0
  3  4  1  0
  3  1  1  0
  5  4  1  0
  6  7  1  0
  6  5  1  0
  7  8  1  0
  8 21  1  0
  8  3  1  0
  9 10  2  0
  9 14  1  0
 10 11  1  0
 11 15  1  0
 11 12  2  0
 13 12  1  0
 14 13  2  0
 15 20  1  0
 16 15  2  0
 16 17  1  0
 17 18  2  0
 18 19  1  0
 20 19  2  0
 22 21  1  0
 23 22  1  0
 24 23  1  0
 25 24  1  0
 25 26  1  0
 26 27  1  0
 27 22  1  0
  4 28  1  0
  4 29  1  0
  5 30  1  0
  5 31  1  0
  6 32  1  0
  6 33  1  0
  7 34  1  0
  7 35  1  0
  8 36  1  6
  9 37  1  0
 13 38  1  0
 16 39  1  0
 17 40  1  0
 18 41  1  0
 19 42  1  0
 21 43  1  0
 21 44  1  0
 23 45  1  0
 23 46  1  0
 24 47  1  0
 24 48  1  0
 25 49  1  0
 25 50  1  0
 26 51  1  0
 26 52  1  0
 27 53  1  0
 27 54  1  0
M  ISO  8  28  13  29  13  30  13  31  13  32  13  33  13  34  13  35  13
M  ISO  8  36  13  37  14  38  14  39  14  40  14  41  14  42  14  43   8
M  ISO  8  44   8  45  13  46  13  47  13  48  13  49  13  50  13  51  13
M  ISO  3  52  13  53  13  54  13
M  END
>  <minimizedAffinity>  (1) 
-5.10748005

>  <minimizedRMSD>  (1) 
1.51048839

$$$$
