
     RDKit          3D

 51 54  0  0  1  0  0  0  0  0999 V2000
   47.3780   33.7130   42.8050 C   0  0  0  0  0  0  0  0  0  0  0  0
   48.4730   33.5200   43.4000 O   0  0  0  0  0  0  0  0  0  0  0  0
   47.0850   33.2190   41.5100 N   0  0  0  0  0  0  0  0  0  0  0  0
   45.8820   32.5610   40.9900 C   0  0  0  0  0  0  0  0  0  0  0  0
   45.4360   33.2230   39.7050 C   0  0  0  0  0  0  0  0  0  0  0  0
   46.4790   33.0800   38.6450 C   0  0  0  0  0  0  0  0  0  0  0  0
   47.7740   32.5870   39.2720 C   0  0  0  0  0  0  0  0  0  0  0  0
   48.1290   33.3670   40.5060 C   0  0  2  0  0  0  0  0  0  0  0  0
   45.9710   35.7290   42.9220 C   0  0  0  0  0  0  0  0  0  0  0  0
   46.3540   34.4860   43.4840 C   0  0  0  0  0  0  0  0  0  0  0  0
   45.7510   34.0520   44.6490 C   0  0  0  0  0  0  0  0  0  0  0  0
   44.8140   34.8280   45.2160 N   0  0  0  0  0  0  0  0  0  0  0  0
   44.4340   36.0280   44.6880 C   0  0  0  0  0  0  0  0  0  0  0  0
   45.0250   36.4530   43.5460 N   0  0  0  0  0  0  0  0  0  0  0  0
   46.1640   32.7710   45.2040 C   0  0  0  0  0  0  0  0  0  0  0  0
   45.7980   31.6100   44.6040 C   0  0  0  0  0  0  0  0  0  0  0  0
   46.2040   30.4110   45.1520 C   0  0  0  0  0  0  0  0  0  0  0  0
   46.9840   30.3400   46.3110 C   0  0  0  0  0  0  0  0  0  0  0  0
   47.3310   31.5590   46.8840 C   0  0  0  0  0  0  0  0  0  0  0  0
   46.9190   32.7100   46.3250 N   0  0  0  0  0  0  0  0  0  0  0  0
   49.4760   32.9500   40.9740 C   0  0  0  0  0  0  0  0  0  0  0  0
   49.6770   31.5570   40.5640 N   0  0  0  0  0  0  0  0  0  0  0  0
   50.9280   31.3640   39.9050 C   0  0  0  0  0  0  0  0  0  0  0  0
   51.7790   30.7010   41.0020 C   0  0  0  0  0  0  0  0  0  0  0  0
   50.7750   29.7250   41.5750 C   0  0  0  0  0  0  0  0  0  0  0  0
   49.5190   30.6030   41.6070 C   0  0  0  0  0  0  0  0  0  0  0  0
   46.1036   31.5014   40.7945 H   0  0  0  0  0  0  0  0  0  0  0  0
   45.0770   32.6462   41.7348 H   0  0  0  0  0  0  0  0  0  0  0  0
   44.5044   32.7505   39.3604 H   0  0  0  0  0  0  0  0  0  0  0  0
   45.2736   34.2937   39.8978 H   0  0  0  0  0  0  0  0  0  0  0  0
   46.6514   34.0552   38.1661 H   0  0  0  0  0  0  0  0  0  0  0  0
   46.1381   32.3562   37.8901 H   0  0  0  0  0  0  0  0  0  0  0  0
   47.6579   31.5270   39.5420 H   0  0  0  0  0  0  0  0  0  0  0  0
   48.5822   32.7219   38.5381 H   0  0  0  0  0  0  0  0  0  0  0  0
   48.1848   34.4436   40.2872 H   0  0  0  0  0  0  0  0  0  0  0  0
   46.4375   36.0940   41.9951 H   0  0  0  0  0  0  0  0  0  0  0  0
   43.6626   36.6381   45.1806 H   0  0  0  0  0  0  0  0  0  0  0  0
   45.1846   31.6250   43.6911 H   0  0  0  0  0  0  0  0  0  0  0  0
   45.9029   29.4750   44.6588 H   0  0  0  0  0  0  0  0  0  0  0  0
   47.3031   29.3798   46.7425 H   0  0  0  0  0  0  0  0  0  0  0  0
   47.9442   31.5812   47.7970 H   0  0  0  0  0  0  0  0  0  0  0  0
   50.2460   33.5898   40.5182 H   0  0  0  0  0  0  0  0  0  0  0  0
   49.5513   33.0453   42.0673 H   0  0  0  0  0  0  0  0  0  0  0  0
   50.8202   30.7043   39.0314 H   0  0  0  0  0  0  0  0  0  0  0  0
   51.3652   32.2929   39.5101 H   0  0  0  0  0  0  0  0  0  0  0  0
   52.6538   30.1839   40.5809 H   0  0  0  0  0  0  0  0  0  0  0  0
   52.2094   31.3998   41.7344 H   0  0  0  0  0  0  0  0  0  0  0  0
   50.6419   28.8494   40.9226 H   0  0  0  0  0  0  0  0  0  0  0  0
   51.0578   29.2939   42.5467 H   0  0  0  0  0  0  0  0  0  0  0  0
   49.4331   31.1109   42.5789 H   0  0  0  0  0  0  0  0  0  0  0  0
   48.6068   30.0041   41.4685 H   0  0  0  0  0  0  0  0  0  0  0  0
  1  2  2  0
  1 10  1  0
  3  1  1  0
  4  3  1  0
  5  4  1  0
  6  7  1  0
  6  5  1  0
  7  8  1  0
  8 21  1  0
  8  3  1  0
  9 10  2  0
  9 14  1  0
 10 11  1  0
 11 15  1  0
 11 12  2  0
 13 12  1  0
 14 13  2  0
 15 20  2  0
 16 17  2  0
 16 15  1  0
 17 18  1  0
 18 19  2  0
 20 19  1  0
 22 21  1  0
 22 26  1  0
 23 22  1  0
 23 24  1  0
 24 25  1  0
 25 26  1  0
  4 27  1  0
  4 28  1  0
  5 29  1  0
  5 30  1  0
  6 31  1  0
  6 32  1  0
  7 33  1  0
  7 34  1  0
  8 35  1  6
  9 36  1  0
 13 37  1  0
 16 38  1  0
 17 39  1  0
 18 40  1  0
 19 41  1  0
 21 42  1  0
 21 43  1  0
 23 44  1  0
 23 45  1  0
 24 46  1  0
 24 47  1  0
 25 48  1  0
 25 49  1  0
 26 50  1  0
 26 51  1  0
M  ISO  8  27  13  28  13  29  13  30  13  31  13  32  13  33  13  34  13
M  ISO  8  35  13  36  14  37  14  38  14  39  14  40  14  41  14  42   8
M  ISO  8  43   8  44  13  45  13  46  13  47  13  48  13  49  13  50  13
M  ISO  1  51  13
M  END
>  <minimizedAffinity>  (1) 
-4.95764303

>  <minimizedRMSD>  (1) 
1.07770896

$$$$
