
     RDKit          3D

 47 50  0  0  1  0  0  0  0  0999 V2000
   47.1080   33.1940   43.0830 C   0  0  0  0  0  0  0  0  0  0  0  0
   48.3040   33.1870   43.4920 O   0  0  0  0  0  0  0  0  0  0  0  0
   46.6180   32.3290   42.0720 N   0  0  0  0  0  0  0  0  0  0  0  0
   45.3640   31.5600   42.0060 C   0  0  0  0  0  0  0  0  0  0  0  0
   44.6550   31.8630   40.6910 C   0  0  0  0  0  0  0  0  0  0  0  0
   45.4750   31.3870   39.5400 C   0  0  0  0  0  0  0  0  0  0  0  0
   46.8850   31.0800   40.0070 C   0  0  0  0  0  0  0  0  0  0  0  0
   47.4320   32.1240   40.9110 C   0  0  2  0  0  0  0  0  0  0  0  0
   45.8250   35.2680   42.9310 C   0  0  0  0  0  0  0  0  0  0  0  0
   46.2050   34.1390   43.6920 C   0  0  0  0  0  0  0  0  0  0  0  0
   45.7120   33.9640   44.9780 C   0  0  0  0  0  0  0  0  0  0  0  0
   44.8680   34.9090   45.4550 N   0  0  0  0  0  0  0  0  0  0  0  0
   44.4900   36.0020   44.7380 C   0  0  0  0  0  0  0  0  0  0  0  0
   44.9790   36.1600   43.4870 N   0  0  0  0  0  0  0  0  0  0  0  0
   46.1260   32.8040   45.7250 C   0  0  0  0  0  0  0  0  0  0  0  0
   45.6530   31.5740   45.4170 C   0  0  0  0  0  0  0  0  0  0  0  0
   46.0720   30.4840   46.1530 C   0  0  0  0  0  0  0  0  0  0  0  0
   46.9700   30.5900   47.2090 C   0  0  0  0  0  0  0  0  0  0  0  0
   47.4250   31.8680   47.4830 C   0  0  0  0  0  0  0  0  0  0  0  0
   47.0000   32.9060   46.7530 N   0  0  0  0  0  0  0  0  0  0  0  0
   48.8800   31.9030   41.1790 C   0  0  0  0  0  0  0  0  0  0  0  0
   49.6700   31.8620   39.8750 C   0  0  0  0  0  0  0  0  0  0  0  0
   50.9120   31.2560   39.8050 C   0  0  0  0  0  0  0  0  0  0  0  0
   51.6090   31.2450   38.6030 C   0  0  0  0  0  0  0  0  0  0  0  0
   51.0670   31.8240   37.5150 N   0  0  0  0  0  0  0  0  0  0  0  0
   49.8580   32.4020   37.6250 C   0  0  0  0  0  0  0  0  0  0  0  0
   49.1510   32.4340   38.7700 N   0  0  0  0  0  0  0  0  0  0  0  0
   45.5891   30.4848   42.0627 H   0  0  0  0  0  0  0  0  0  0  0  0
   44.7145   31.8418   42.8479 H   0  0  0  0  0  0  0  0  0  0  0  0
   43.6805   31.3528   40.6780 H   0  0  0  0  0  0  0  0  0  0  0  0
   44.5120   32.9502   40.6035 H   0  0  0  0  0  0  0  0  0  0  0  0
   45.5083   32.1689   38.7670 H   0  0  0  0  0  0  0  0  0  0  0  0
   45.0229   30.4744   39.1243 H   0  0  0  0  0  0  0  0  0  0  0  0
   46.8763   30.1198   40.5437 H   0  0  0  0  0  0  0  0  0  0  0  0
   47.5285   31.0434   39.1156 H   0  0  0  0  0  0  0  0  0  0  0  0
   47.3828   33.0913   40.3896 H   0  0  0  0  0  0  0  0  0  0  0  0
   46.2094   35.4157   41.9110 H   0  0  0  0  0  0  0  0  0  0  0  0
   43.7998   36.7430   45.1677 H   0  0  0  0  0  0  0  0  0  0  0  0
   44.9415   31.4441   44.5882 H   0  0  0  0  0  0  0  0  0  0  0  0
   45.6790   29.4900   45.8931 H   0  0  0  0  0  0  0  0  0  0  0  0
   47.2977   29.7148   47.7892 H   0  0  0  0  0  0  0  0  0  0  0  0
   48.1387   32.0312   48.3040 H   0  0  0  0  0  0  0  0  0  0  0  0
   49.2604   32.7230   41.8059 H   0  0  0  0  0  0  0  0  0  0  0  0
   49.0008   30.9395   41.6958 H   0  0  0  0  0  0  0  0  0  0  0  0
   51.3465   30.7842   40.6987 H   0  0  0  0  0  0  0  0  0  0  0  0
   52.5974   30.7663   38.5407 H   0  0  0  0  0  0  0  0  0  0  0  0
   49.4234   32.8740   36.7315 H   0  0  0  0  0  0  0  0  0  0  0  0
  1  2  2  0
  1 10  1  0
  3  1  1  0
  4  3  1  0
  5  4  1  0
  6  7  1  0
  6  5  1  0
  7  8  1  0
  8 21  1  0
  8  3  1  0
  9 14  2  0
  9 10  1  0
 10 11  2  0
 11 12  1  0
 11 15  1  0
 13 12  2  0
 14 13  1  0
 15 20  1  0
 16 15  2  0
 16 17  1  0
 17 18  2  0
 18 19  1  0
 20 19  2  0
 22 21  1  0
 23 22  2  0
 24 23  1  0
 25 26  1  0
 25 24  2  0
 26 27  2  0
 27 22  1  0
  4 28  1  0
  4 29  1  0
  5 30  1  0
  5 31  1  0
  6 32  1  0
  6 33  1  0
  7 34  1  0
  7 35  1  0
  8 36  1  6
  9 37  1  0
 13 38  1  0
 16 39  1  0
 17 40  1  0
 18 41  1  0
 19 42  1  0
 21 43  1  0
 21 44  1  0
 23 45  1  0
 24 46  1  0
 26 47  1  0
M  ISO  8  28  13  29  13  30  13  31  13  32  13  33  13  34  13  35  13
M  ISO  8  36  13  37  14  38  14  39  14  40  14  41  14  42  14  43   8
M  ISO  4  44   8  45  14  46  14  47  14
M  END
>  <minimizedAffinity>  (1) 
-5.14570236

>  <minimizedRMSD>  (1) 
1.115646

$$$$
