
     RDKit          3D

 40 42  0  0  1  0  0  0  0  0999 V2000
   47.3110   33.6360   42.8290 C   0  0  0  0  0  0  0  0  0  0  0  0
   48.4170   33.4190   43.4160 O   0  0  0  0  0  0  0  0  0  0  0  0
   47.0060   33.1250   41.5400 N   0  0  0  0  0  0  0  0  0  0  0  0
   45.7790   32.4920   41.0350 C   0  0  0  0  0  0  0  0  0  0  0  0
   45.3340   33.1870   39.7590 C   0  0  0  0  0  0  0  0  0  0  0  0
   46.3690   32.9860   38.6830 C   0  0  0  0  0  0  0  0  0  0  0  0
   47.6560   32.4610   39.3000 C   0  0  0  0  0  0  0  0  0  0  0  0
   48.0220   33.2120   40.5270 C   0  0  2  0  0  0  0  0  0  0  0  0
   45.9580   35.6680   42.9270 C   0  0  0  0  0  0  0  0  0  0  0  0
   46.3300   34.4360   43.5090 C   0  0  0  0  0  0  0  0  0  0  0  0
   45.7440   34.0400   44.7010 C   0  0  0  0  0  0  0  0  0  0  0  0
   44.8320   34.8520   45.2670 N   0  0  0  0  0  0  0  0  0  0  0  0
   44.4640   36.0420   44.7180 C   0  0  0  0  0  0  0  0  0  0  0  0
   45.0380   36.4260   43.5540 N   0  0  0  0  0  0  0  0  0  0  0  0
   46.1480   32.7630   45.2770 C   0  0  0  0  0  0  0  0  0  0  0  0
   45.7690   31.5970   44.7020 C   0  0  0  0  0  0  0  0  0  0  0  0
   46.1770   30.4080   45.2820 C   0  0  0  0  0  0  0  0  0  0  0  0
   46.9570   30.3560   46.4280 C   0  0  0  0  0  0  0  0  0  0  0  0
   47.3130   31.5810   46.9700 C   0  0  0  0  0  0  0  0  0  0  0  0
   46.9070   32.7070   46.3890 N   0  0  0  0  0  0  0  0  0  0  0  0
   49.3930   32.8030   40.9990 C   0  0  0  0  0  0  0  0  0  0  0  0
   49.4720   31.4340   41.2830 O   0  0  0  0  0  0  0  0  0  0  0  0
   45.9750   31.4303   40.8242 H   0  0  0  0  0  0  0  0  0  0  0  0
   44.9860   32.5771   41.7926 H   0  0  0  0  0  0  0  0  0  0  0  0
   44.3748   32.7629   39.4273 H   0  0  0  0  0  0  0  0  0  0  0  0
   45.2151   34.2632   39.9532 H   0  0  0  0  0  0  0  0  0  0  0  0
   46.5681   33.9456   38.1836 H   0  0  0  0  0  0  0  0  0  0  0  0
   45.9939   32.2577   37.9489 H   0  0  0  0  0  0  0  0  0  0  0  0
   47.5210   31.4003   39.5581 H   0  0  0  0  0  0  0  0  0  0  0  0
   48.4653   32.5877   38.5658 H   0  0  0  0  0  0  0  0  0  0  0  0
   48.0775   34.2830   40.2823 H   0  0  0  0  0  0  0  0  0  0  0  0
   46.4102   36.0015   41.9813 H   0  0  0  0  0  0  0  0  0  0  0  0
   43.7148   36.6791   45.2107 H   0  0  0  0  0  0  0  0  0  0  0  0
   45.1498   31.5946   43.7929 H   0  0  0  0  0  0  0  0  0  0  0  0
   45.8688   29.4619   44.8130 H   0  0  0  0  0  0  0  0  0  0  0  0
   47.2729   29.4032   46.8779 H   0  0  0  0  0  0  0  0  0  0  0  0
   47.9305   31.6222   47.8794 H   0  0  0  0  0  0  0  0  0  0  0  0
   50.1239   33.0437   40.2130 H   0  0  0  0  0  0  0  0  0  0  0  0
   49.6060   33.3518   41.9282 H   0  0  0  0  0  0  0  0  0  0  0  0
   49.4797   31.3004   42.2639 H   0  0  0  0  0  0  0  0  0  0  0  0
  1  2  2  0
  1 10  1  0
  3  1  1  0
  4  3  1  0
  5  4  1  0
  6  7  1  0
  6  5  1  0
  7  8  1  0
  8 21  1  0
  8  3  1  0
  9 10  2  0
  9 14  1  0
 10 11  1  0
 11 12  2  0
 11 15  1  0
 13 12  1  0
 14 13  2  0
 15 20  1  0
 16 15  2  0
 16 17  1  0
 17 18  2  0
 18 19  1  0
 20 19  2  0
 21 22  1  0
  4 23  1  0
  4 24  1  0
  5 25  1  0
  5 26  1  0
  6 27  1  0
  6 28  1  0
  7 29  1  0
  7 30  1  0
  8 31  1  6
  9 32  1  0
 13 33  1  0
 16 34  1  0
 17 35  1  0
 18 36  1  0
 19 37  1  0
 21 38  1  0
 21 39  1  0
 22 40  1  0
M  ISO  8  23  13  24  13  25  13  26  13  27  13  28  13  29  13  30  13
M  ISO  8  31  13  32  14  33  14  34  14  35  14  36  14  37  14  38   8
M  ISO  2  39   8  40   3
M  END
>  <minimizedAffinity>  (1) 
-4.7829237

>  <minimizedRMSD>  (1) 
0.0514514334

$$$$
