
     RDKit          3D

 26 28  0  0  1  0  0  0  0  0999 V2000
   46.4450   34.4950   41.5380 C   0  0  0  0  0  0  0  0  0  0  0  0
   45.7010   34.3730   40.5640 O   0  0  0  0  0  0  0  0  0  0  0  0
   45.2900   35.9860   43.1050 C   0  0  0  0  0  0  0  0  0  0  0  0
   45.8650   34.7780   42.8210 C   0  0  0  0  0  0  0  0  0  0  0  0
   45.8830   33.7820   43.8190 C   0  0  0  0  0  0  0  0  0  0  0  0
   45.3350   34.0490   45.0240 N   0  0  0  0  0  0  0  0  0  0  0  0
   44.7680   35.2670   45.2800 C   0  0  0  0  0  0  0  0  0  0  0  0
   44.7510   36.2000   44.3380 N   0  0  0  0  0  0  0  0  0  0  0  0
   47.9130   34.3270   41.3130 C   0  0  1  0  0  0  0  0  0  0  0  0
   48.6900   35.6730   41.5340 C   0  0  0  0  0  0  0  0  0  0  0  0
   48.8430   34.4720   42.4010 C   0  0  2  0  0  0  0  0  0  0  0  0
   50.1750   33.7650   42.4730 C   0  0  0  0  0  0  0  0  0  0  0  0
   50.4730   32.6770   41.4170 C   0  0  0  0  0  0  0  0  0  0  0  0
   50.0360   32.2680   42.7720 C   0  0  0  0  0  0  0  0  0  0  0  0
   45.2629   36.7792   42.3434 H   0  0  0  0  0  0  0  0  0  0  0  0
   46.3374   32.8005   43.6186 H   0  0  0  0  0  0  0  0  0  0  0  0
   44.3265   35.4724   46.2664 H   0  0  0  0  0  0  0  0  0  0  0  0
   47.7967   33.5452   40.5480 H   0  0  0  0  0  0  0  0  0  0  0  0
   49.4947   35.9751   40.8475 H   0  0  0  0  0  0  0  0  0  0  0  0
   48.4311   36.7330   41.6733 H   0  0  0  0  0  0  0  0  0  0  0  0
   48.7320   34.2740   43.4773 H   0  0  0  0  0  0  0  0  0  0  0  0
   50.7329   34.6321   42.8563 H   0  0  0  0  0  0  0  0  0  0  0  0
   49.7959   32.5453   40.5601 H   0  0  0  0  0  0  0  0  0  0  0  0
   51.3348   32.4362   40.7772 H   0  0  0  0  0  0  0  0  0  0  0  0
   50.7501   31.7788   43.4508 H   0  0  0  0  0  0  0  0  0  0  0  0
   49.2243   31.6342   43.1584 H   0  0  0  0  0  0  0  0  0  0  0  0
  1  4  1  0
  2  1  2  0
  3  8  2  0
  4  3  1  0
  4  5  2  0
  5  6  1  0
  6  7  2  0
  8  7  1  0
  9 10  1  0
  9  1  1  0
  9 11  1  0
 10 11  1  0
 11 12  1  0
 12 14  1  0
 13 12  1  0
 13 14  1  0
  3 15  1  0
  5 16  1  0
  7 17  1  0
  9 18  1  6
 10 19  1  0
 10 20  1  0
 11 21  1  1
 12 22  1  0
 13 23  1  0
 13 24  1  0
 14 25  1  0
 14 26  1  0
M  ISO  8  15  14  16  14  17  14  18  13  19  13  20  13  21  13  22  13
M  ISO  4  23  13  24  13  25  13  26  13
M  END
>  <minimizedAffinity>  (1) 
-4.48764992

>  <minimizedRMSD>  (1) 
0.678220212

$$$$
