
     RDKit          3D

 26 28  0  0  0  0  0  0  0  0999 V2000
   45.5830   34.1140   45.4680 C   0  0  0  0  0  0  0  0  0  0  0  0
   44.6550   35.1510   45.6600 C   0  0  0  0  0  0  0  0  0  0  0  0
   44.4440   36.0390   44.6050 C   0  0  0  0  0  0  0  0  0  0  0  0
   45.1460   35.8610   43.4370 N   0  0  0  0  0  0  0  0  0  0  0  0
   46.0290   34.8440   43.3040 C   0  0  0  0  0  0  0  0  0  0  0  0
   46.2530   33.9740   44.3030 N   0  0  0  0  0  0  0  0  0  0  0  0
   46.7450   34.7000   42.0500 C   0  0  0  0  0  0  0  0  0  0  0  0
   47.9580   35.3490   41.8600 C   0  0  0  0  0  0  0  0  0  0  0  0
   48.7250   35.2860   40.7140 C   0  0  0  0  0  0  0  0  0  0  0  0
   48.1780   34.4920   39.7120 C   0  0  0  0  0  0  0  0  0  0  0  0
   46.9680   33.8360   39.8840 C   0  0  0  0  0  0  0  0  0  0  0  0
   46.2700   33.9490   41.0490 N   0  0  0  0  0  0  0  0  0  0  0  0
   45.8370   33.1620   46.5440 C   0  0  0  0  0  0  0  0  0  0  0  0
   46.9210   32.2990   46.6110 C   0  0  0  0  0  0  0  0  0  0  0  0
   46.8180   31.5560   47.7720 C   0  0  0  0  0  0  0  0  0  0  0  0
   45.6730   31.9940   48.3690 C   0  0  0  0  0  0  0  0  0  0  0  0
   45.1280   32.9200   47.6390 O   0  0  0  0  0  0  0  0  0  0  0  0
   44.1126   35.2592   46.6108 H   0  0  0  0  0  0  0  0  0  0  0  0
   43.7278   36.8677   44.7063 H   0  0  0  0  0  0  0  0  0  0  0  0
   48.3383   35.9629   42.6898 H   0  0  0  0  0  0  0  0  0  0  0  0
   49.6825   35.8161   40.6034 H   0  0  0  0  0  0  0  0  0  0  0  0
   48.7179   34.3815   38.7600 H   0  0  0  0  0  0  0  0  0  0  0  0
   46.5663   33.2161   39.0689 H   0  0  0  0  0  0  0  0  0  0  0  0
   47.7264   32.2194   45.8661 H   0  0  0  0  0  0  0  0  0  0  0  0
   47.5088   30.7807   48.1350 H   0  0  0  0  0  0  0  0  0  0  0  0
   45.2722   31.6204   49.3228 H   0  0  0  0  0  0  0  0  0  0  0  0
  1  2  2  0
  1 13  1  0
  3  2  1  0
  4  3  2  0
  5  4  1  0
  5  6  2  0
  6  1  1  0
  7  5  1  0
  8  7  2  0
  9  8  1  0
 10 11  1  0
 10  9  2  0
 11 12  2  0
 12  7  1  0
 13 14  2  0
 13 17  1  0
 14 15  1  0
 15 16  2  0
 17 16  1  0
  2 18  1  0
  3 19  1  0
  8 20  1  0
  9 21  1  0
 10 22  1  0
 11 23  1  0
 14 24  1  0
 15 25  1  0
 16 26  1  0
M  ISO  8  18  14  19  14  20  14  21  14  22  14  23  14  24  14  25  14
M  ISO  1  26  14
M  END
>  <minimizedAffinity>  (1) 
-5.93745852

>  <minimizedRMSD>  (1) 
0.291165918

$$$$
