
     RDKit          3D

 35 37  0  0  1  0  0  0  0  0999 V2000
   44.1480   32.8970   41.4010 C   0  0  1  0  0  0  0  0  0  0  0  0
   44.7540   32.4150   40.0480 C   0  0  0  0  0  0  0  0  0  0  0  0
   44.8800   33.8050   40.5490 C   0  0  2  0  0  0  0  0  0  0  0  0
   46.2000   34.3520   41.0220 C   0  0  0  0  0  0  0  0  0  0  0  0
   47.3040   34.1900   39.9950 C   0  0  0  0  0  0  0  0  0  0  0  0
   48.5300   34.8210   40.5880 C   0  0  0  0  0  0  0  0  0  0  0  0
   48.2890   35.4580   41.9250 C   0  0  0  0  0  0  0  0  0  0  0  0
   47.6730   34.5660   42.9500 C   0  0  0  0  0  0  0  0  0  0  0  0
   46.6930   33.6350   42.2620 C   0  0  0  0  0  0  0  0  0  0  0  0
   42.6530   32.8940   41.3990 C   0  0  0  0  0  0  0  0  0  0  0  0
   42.0990   31.8970   41.8720 O   0  0  0  0  0  0  0  0  0  0  0  0
   41.2480   33.9060   39.6680 C   0  0  0  0  0  0  0  0  0  0  0  0
   41.8460   33.9630   40.8980 C   0  0  0  0  0  0  0  0  0  0  0  0
   41.6570   35.1120   41.6940 C   0  0  0  0  0  0  0  0  0  0  0  0
   40.8950   36.1220   41.2230 N   0  0  0  0  0  0  0  0  0  0  0  0
   40.3110   36.0380   39.9880 C   0  0  0  0  0  0  0  0  0  0  0  0
   40.4910   34.9550   39.2450 N   0  0  0  0  0  0  0  0  0  0  0  0
   44.2248   32.6637   42.4732 H   0  0  0  0  0  0  0  0  0  0  0  0
   44.1010   32.1859   39.1930 H   0  0  0  0  0  0  0  0  0  0  0  0
   45.4406   31.6206   39.7202 H   0  0  0  0  0  0  0  0  0  0  0  0
   44.6492   34.7780   40.0908 H   0  0  0  0  0  0  0  0  0  0  0  0
   46.0010   35.4161   41.2170 H   0  0  0  0  0  0  0  0  0  0  0  0
   47.0299   34.6977   39.0584 H   0  0  0  0  0  0  0  0  0  0  0  0
   47.4760   33.1297   39.7581 H   0  0  0  0  0  0  0  0  0  0  0  0
   49.2990   34.0434   40.7065 H   0  0  0  0  0  0  0  0  0  0  0  0
   48.8465   35.6201   39.9015 H   0  0  0  0  0  0  0  0  0  0  0  0
   49.2562   35.8078   42.3149 H   0  0  0  0  0  0  0  0  0  0  0  0
   47.5668   36.2694   41.7517 H   0  0  0  0  0  0  0  0  0  0  0  0
   48.4576   33.9758   43.4461 H   0  0  0  0  0  0  0  0  0  0  0  0
   47.1479   35.1703   43.7044 H   0  0  0  0  0  0  0  0  0  0  0  0
   45.8487   33.4131   42.9313 H   0  0  0  0  0  0  0  0  0  0  0  0
   47.1743   32.6813   41.9997 H   0  0  0  0  0  0  0  0  0  0  0  0
   41.3780   33.0210   39.0277 H   0  0  0  0  0  0  0  0  0  0  0  0
   42.1250   35.1843   42.6869 H   0  0  0  0  0  0  0  0  0  0  0  0
   39.6936   36.8674   39.6128 H   0  0  0  0  0  0  0  0  0  0  0  0
  2  3  1  0
  2  1  1  0
  3  4  1  0
  3  1  1  0
  4  9  1  0
  5  6  1  0
  5  4  1  0
  6  7  1  0
  7  8  1  0
  9  8  1  0
 10  1  1  0
 10 11  2  0
 12 13  2  0
 13 10  1  0
 13 14  1  0
 15 14  2  0
 16 15  1  0
 17 12  1  0
 17 16  2  0
  1 18  1  1
  2 19  1  0
  2 20  1  0
  3 21  1  6
  4 22  1  0
  5 23  1  0
  5 24  1  0
  6 25  1  0
  6 26  1  0
  7 27  1  0
  7 28  1  0
  8 29  1  0
  8 30  1  0
  9 31  1  0
  9 32  1  0
 12 33  1  0
 14 34  1  0
 16 35  1  0
M  ISO  8  18  13  19  13  20  13  21  13  22  13  23  13  24  13  25  13
M  ISO  8  26  13  27  13  28  13  29  13  30  13  31  13  32  13  33  14
M  ISO  2  34  14  35  14
M  END
>  <minimizedAffinity>  (1) 
-4.46118069

>  <minimizedRMSD>  (1) 
5.12085629

$$$$
