
     RDKit          3D

 26 28  0  0  0  0  0  0  0  0999 V2000
   45.6570   34.0040   45.5150 C   0  0  0  0  0  0  0  0  0  0  0  0
   44.7050   35.0030   45.7340 C   0  0  0  0  0  0  0  0  0  0  0  0
   44.4660   35.8990   44.6930 C   0  0  0  0  0  0  0  0  0  0  0  0
   45.1580   35.7730   43.5130 N   0  0  0  0  0  0  0  0  0  0  0  0
   46.0690   34.7820   43.3640 C   0  0  0  0  0  0  0  0  0  0  0  0
   46.3160   33.9180   44.3370 N   0  0  0  0  0  0  0  0  0  0  0  0
   46.7850   34.6790   42.0940 C   0  0  0  0  0  0  0  0  0  0  0  0
   47.9800   35.3450   41.9080 C   0  0  0  0  0  0  0  0  0  0  0  0
   48.7220   35.3030   40.7400 C   0  0  0  0  0  0  0  0  0  0  0  0
   48.1670   34.5230   39.7330 C   0  0  0  0  0  0  0  0  0  0  0  0
   46.9670   33.8490   39.9040 C   0  0  0  0  0  0  0  0  0  0  0  0
   46.2850   33.9340   41.0860 N   0  0  0  0  0  0  0  0  0  0  0  0
   46.0070   33.0010   46.5180 C   0  0  0  0  0  0  0  0  0  0  0  0
   45.2780   32.7930   47.6730 C   0  0  0  0  0  0  0  0  0  0  0  0
   45.8680   31.7680   48.4230 C   0  0  0  0  0  0  0  0  0  0  0  0
   46.9350   31.4270   47.6450 N   0  0  0  0  0  0  0  0  0  0  0  0
   47.0370   32.1220   46.5430 N   0  0  0  0  0  0  0  0  0  0  0  0
   44.1656   35.0795   46.6896 H   0  0  0  0  0  0  0  0  0  0  0  0
   43.7262   36.7037   44.8160 H   0  0  0  0  0  0  0  0  0  0  0  0
   48.3677   35.9482   42.7421 H   0  0  0  0  0  0  0  0  0  0  0  0
   49.6728   35.8428   40.6191 H   0  0  0  0  0  0  0  0  0  0  0  0
   48.6949   34.4375   38.7718 H   0  0  0  0  0  0  0  0  0  0  0  0
   46.5607   33.2412   39.0821 H   0  0  0  0  0  0  0  0  0  0  0  0
   44.3724   33.3478   47.9597 H   0  0  0  0  0  0  0  0  0  0  0  0
   45.5526   31.3471   49.3891 H   0  0  0  0  0  0  0  0  0  0  0  0
   47.6023   30.6862   47.9035 H   0  0  0  0  0  0  0  0  0  0  0  0
  1  2  2  0
  1 13  1  0
  3  2  1  0
  4  3  2  0
  5  4  1  0
  5  6  2  0
  6  1  1  0
  7  5  1  0
  8  7  2  0
  9  8  1  0
 10 11  1  0
 10  9  2  0
 11 12  2  0
 12  7  1  0
 13 17  2  0
 13 14  1  0
 14 15  2  0
 16 15  1  0
 17 16  1  0
  2 18  1  0
  3 19  1  0
  8 20  1  0
  9 21  1  0
 10 22  1  0
 11 23  1  0
 14 24  1  0
 15 25  1  0
 16 26  1  0
M  ISO  8  18  14  19  14  20  14  21  14  22  14  23  14  24  14  25  14
M  ISO  1  26   9
M  END
>  <minimizedAffinity>  (1) 
-5.81086445

>  <minimizedRMSD>  (1) 
0.403850585

$$$$
