
     RDKit          3D

 26 28  0  0  0  0  0  0  0  0999 V2000
   45.5590   33.9750   45.5400 C   0  0  0  0  0  0  0  0  0  0  0  0
   44.6690   35.0180   45.7960 C   0  0  0  0  0  0  0  0  0  0  0  0
   44.4850   35.9610   44.7790 C   0  0  0  0  0  0  0  0  0  0  0  0
   45.1780   35.8060   43.6080 N   0  0  0  0  0  0  0  0  0  0  0  0
   46.0200   34.7860   43.4140 C   0  0  0  0  0  0  0  0  0  0  0  0
   46.2170   33.8630   44.3750 N   0  0  0  0  0  0  0  0  0  0  0  0
   46.7380   34.6650   42.1450 C   0  0  0  0  0  0  0  0  0  0  0  0
   47.9490   35.3280   41.9760 C   0  0  0  0  0  0  0  0  0  0  0  0
   48.6990   35.2740   40.8180 C   0  0  0  0  0  0  0  0  0  0  0  0
   48.1370   34.4880   39.8060 C   0  0  0  0  0  0  0  0  0  0  0  0
   46.9310   33.8240   39.9650 C   0  0  0  0  0  0  0  0  0  0  0  0
   46.2530   33.9290   41.1390 N   0  0  0  0  0  0  0  0  0  0  0  0
   45.7840   32.9530   46.5870 C   0  0  0  0  0  0  0  0  0  0  0  0
   45.2740   32.7630   47.7950 C   0  0  0  0  0  0  0  0  0  0  0  0
   45.6780   31.7210   48.5450 C   0  0  0  0  0  0  0  0  0  0  0  0
   46.6130   30.8890   48.0210 C   0  0  0  0  0  0  0  0  0  0  0  0
   46.9510   31.6510   46.3130 S   0  0  0  0  0  0  0  0  0  0  0  0
   44.1355   35.0957   46.7548 H   0  0  0  0  0  0  0  0  0  0  0  0
   43.7982   36.8091   44.9171 H   0  0  0  0  0  0  0  0  0  0  0  0
   48.3313   35.9302   42.8134 H   0  0  0  0  0  0  0  0  0  0  0  0
   49.6561   35.8034   40.7011 H   0  0  0  0  0  0  0  0  0  0  0  0
   48.6719   34.3937   38.8494 H   0  0  0  0  0  0  0  0  0  0  0  0
   46.5239   33.2145   39.1448 H   0  0  0  0  0  0  0  0  0  0  0  0
   44.5177   33.4593   48.1863 H   0  0  0  0  0  0  0  0  0  0  0  0
   45.2639   31.5496   49.5495 H   0  0  0  0  0  0  0  0  0  0  0  0
   47.0644   29.9937   48.4734 H   0  0  0  0  0  0  0  0  0  0  0  0
  1  2  2  0
  1 13  1  0
  3  2  1  0
  4  3  2  0
  5  4  1  0
  5  6  2  0
  6  1  1  0
  7  5  1  0
  8  7  2  0
  9  8  1  0
 10 11  1  0
 10  9  2  0
 11 12  2  0
 12  7  1  0
 13 14  2  0
 14 15  1  0
 16 15  2  0
 17 13  1  0
 17 16  1  0
  2 18  1  0
  3 19  1  0
  8 20  1  0
  9 21  1  0
 10 22  1  0
 11 23  1  0
 14 24  1  0
 15 25  1  0
 16 26  1  0
M  ISO  8  18  14  19  14  20  14  21  14  22  14  23  14  24  14  25  14
M  ISO  1  26  14
M  END
>  <minimizedAffinity>  (1) 
-5.88110781

>  <minimizedRMSD>  (1) 
0.408671528

$$$$
