
     RDKit          3D

 22 23  0  0  0  0  0  0  0  0999 V2000
   45.6600   33.9560   45.4630 C   0  0  0  0  0  0  0  0  0  0  0  0
   44.7190   34.9830   45.7010 C   0  0  0  0  0  0  0  0  0  0  0  0
   44.5050   35.9170   44.6860 C   0  0  0  0  0  0  0  0  0  0  0  0
   45.2170   35.7860   43.5190 N   0  0  0  0  0  0  0  0  0  0  0  0
   46.1000   34.7940   43.3380 C   0  0  0  0  0  0  0  0  0  0  0  0
   46.3230   33.8910   44.2890 N   0  0  0  0  0  0  0  0  0  0  0  0
   46.8250   34.7120   42.0710 C   0  0  0  0  0  0  0  0  0  0  0  0
   48.0140   35.4070   41.9080 C   0  0  0  0  0  0  0  0  0  0  0  0
   48.7790   35.4040   40.7640 C   0  0  0  0  0  0  0  0  0  0  0  0
   48.2630   34.6250   39.7350 C   0  0  0  0  0  0  0  0  0  0  0  0
   47.0680   33.9190   39.8820 C   0  0  0  0  0  0  0  0  0  0  0  0
   46.3660   33.9730   41.0480 N   0  0  0  0  0  0  0  0  0  0  0  0
   45.9020   32.9400   46.5470 C   0  0  0  0  0  0  0  0  0  0  0  0
   44.1734   35.0443   46.6542 H   0  0  0  0  0  0  0  0  0  0  0  0
   43.7841   36.7374   44.8176 H   0  0  0  0  0  0  0  0  0  0  0  0
   48.3729   36.0062   42.7578 H   0  0  0  0  0  0  0  0  0  0  0  0
   49.7180   35.9695   40.6719 H   0  0  0  0  0  0  0  0  0  0  0  0
   48.8094   34.5635   38.7823 H   0  0  0  0  0  0  0  0  0  0  0  0
   46.6888   33.3120   39.0467 H   0  0  0  0  0  0  0  0  0  0  0  0
   45.7879   33.4190   47.5306 H   0  0  0  0  0  0  0  0  0  0  0  0
   45.1738   32.1212   46.4513 H   0  0  0  0  0  0  0  0  0  0  0  0
   46.9212   32.5374   46.4513 H   0  0  0  0  0  0  0  0  0  0  0  0
  1  2  2  0
  1 13  1  0
  3  2  1  0
  4  3  2  0
  5  4  1  0
  5  6  2  0
  6  1  1  0
  7  5  1  0
  8  7  2  0
  9  8  1  0
 10 11  1  0
 10  9  2  0
 11 12  2  0
 12  7  1  0
  2 14  1  0
  3 15  1  0
  8 16  1  0
  9 17  1  0
 10 18  1  0
 11 19  1  0
 13 20  1  0
 13 21  1  0
 13 22  1  0
M  ISO  8  14  14  15  14  16  14  17  14  18  14  19  14  20   8  21   8
M  ISO  1  22   8
M  END
>  <minimizedAffinity>  (1) 
-4.97453213

>  <minimizedRMSD>  (1) 
0.0300222747

$$$$
