
     RDKit          3D

 23 24  0  0  0  0  0  0  0  0999 V2000
   45.3370   34.1420   45.3730 C   0  0  0  0  0  0  0  0  0  0  0  0
   44.5860   35.2940   45.6170 C   0  0  0  0  0  0  0  0  0  0  0  0
   44.5580   36.2860   44.6100 C   0  0  0  0  0  0  0  0  0  0  0  0
   45.2630   36.0700   43.4520 N   0  0  0  0  0  0  0  0  0  0  0  0
   45.9640   34.9480   43.2740 C   0  0  0  0  0  0  0  0  0  0  0  0
   46.0130   33.9830   44.2130 N   0  0  0  0  0  0  0  0  0  0  0  0
   46.7030   34.7550   42.0290 C   0  0  0  0  0  0  0  0  0  0  0  0
   47.9190   35.3510   41.8290 C   0  0  0  0  0  0  0  0  0  0  0  0
   48.7030   35.2430   40.7040 C   0  0  0  0  0  0  0  0  0  0  0  0
   48.1310   34.4230   39.7110 C   0  0  0  0  0  0  0  0  0  0  0  0
   46.8990   33.8020   39.8810 C   0  0  0  0  0  0  0  0  0  0  0  0
   46.1950   33.9740   41.0410 N   0  0  0  0  0  0  0  0  0  0  0  0
   46.4850   32.1390   46.3310 C   0  0  0  0  0  0  0  0  0  0  0  0
   47.3470   32.2860   45.4130 O   0  0  0  0  0  0  0  0  0  0  0  0
   45.4160   33.0960   46.3390 N   0  0  0  0  0  0  0  0  0  0  0  0
   44.0353   35.4250   46.5602 H   0  0  0  0  0  0  0  0  0  0  0  0
   43.9826   37.2127   44.7516 H   0  0  0  0  0  0  0  0  0  0  0  0
   48.3065   35.9765   42.6467 H   0  0  0  0  0  0  0  0  0  0  0  0
   49.6754   35.7446   40.5912 H   0  0  0  0  0  0  0  0  0  0  0  0
   48.6780   34.2690   38.7692 H   0  0  0  0  0  0  0  0  0  0  0  0
   46.4888   33.1699   39.0796 H   0  0  0  0  0  0  0  0  0  0  0  0
   46.5523   31.3301   47.0734 H   0  0  0  0  0  0  0  0  0  0  0  0
   44.6859   33.0256   47.0621 H   0  0  0  0  0  0  0  0  0  0  0  0
  1  2  2  0
  1 15  1  0
  3  2  1  0
  4  3  2  0
  5  4  1  0
  5  6  2  0
  6  1  1  0
  7  5  1  0
  8  7  2  0
  9  8  1  0
 10 11  1  0
 10  9  2  0
 11 12  2  0
 12  7  1  0
 13 15  1  0
 14 13  2  0
  2 16  1  0
  3 17  1  0
  8 18  1  0
  9 19  1  0
 10 20  1  0
 11 21  1  0
 13 22  1  0
 15 23  1  0
M  ISO  7  16  14  17  14  18  14  19  14  20  14  21  14  22   6
M  END
>  <minimizedAffinity>  (1) 
-5.20194387

>  <minimizedRMSD>  (1) 
0.315689236

$$$$
