
     RDKit          3D

 21 22  0  0  1  0  0  0  0  0999 V2000
   46.5590   34.9170   42.0370 C   0  0  0  0  0  0  0  0  0  0  0  0
   45.9720   34.3880   41.0950 O   0  0  0  0  0  0  0  0  0  0  0  0
   45.0430   35.9470   43.6700 C   0  0  0  0  0  0  0  0  0  0  0  0
   45.9130   34.9580   43.3120 C   0  0  0  0  0  0  0  0  0  0  0  0
   46.1650   33.9420   44.2560 C   0  0  0  0  0  0  0  0  0  0  0  0
   45.5620   33.9620   45.4590 N   0  0  0  0  0  0  0  0  0  0  0  0
   44.6910   34.9740   45.7840 C   0  0  0  0  0  0  0  0  0  0  0  0
   44.4680   35.9190   44.8840 N   0  0  0  0  0  0  0  0  0  0  0  0
   47.9150   35.4700   41.7860 C   0  0  1  0  0  0  0  0  0  0  0  0
   49.0240   34.3620   41.8340 C   0  0  0  0  0  0  0  0  0  0  0  0
   48.6670   35.1330   40.6090 C   0  0  1  0  0  0  0  0  0  0  0  0
   48.1090   34.3140   39.4970 C   0  0  0  0  0  0  0  0  0  0  0  0
   48.1490   33.0940   39.4350 O   0  0  0  0  0  0  0  0  0  0  0  0
   44.8139   36.7626   42.9683 H   0  0  0  0  0  0  0  0  0  0  0  0
   46.8600   33.1264   44.0075 H   0  0  0  0  0  0  0  0  0  0  0  0
   44.1930   34.9982   46.7645 H   0  0  0  0  0  0  0  0  0  0  0  0
   47.6798   36.4418   42.2446 H   0  0  0  0  0  0  0  0  0  0  0  0
   49.9764   34.5439   42.3535 H   0  0  0  0  0  0  0  0  0  0  0  0
   49.0856   33.3027   42.1239 H   0  0  0  0  0  0  0  0  0  0  0  0
   49.1889   35.7927   39.9002 H   0  0  0  0  0  0  0  0  0  0  0  0
   47.6233   34.8486   38.6673 H   0  0  0  0  0  0  0  0  0  0  0  0
  1  4  1  0
  2  1  2  0
  3  8  2  0
  4  3  1  0
  4  5  2  0
  5  6  1  0
  6  7  2  0
  8  7  1  0
  9 10  1  0
  9  1  1  0
 11  9  1  0
 11 10  1  0
 12 11  1  0
 13 12  2  0
  3 14  1  0
  5 15  1  0
  7 16  1  0
  9 17  1  1
 10 18  1  0
 10 19  1  0
 11 20  1  6
 12 21  1  0
M  ISO  8  14  14  15  14  16  14  17  13  18  13  19  13  20  13  21   6
M  END
>  <minimizedAffinity>  (1) 
-4.28987074

>  <minimizedRMSD>  (1) 
2.15133142

$$$$
