
     RDKit          3D

 37 39  0  0  1  0  0  0  0  0999 V2000
   47.2740   32.0440   46.4900 C   0  0  2  0  0  0  0  0  0  0  0  0
   46.8350   30.6440   46.2130 C   0  0  0  0  0  0  0  0  0  0  0  0
   47.6680   29.7100   47.0550 C   0  0  0  0  0  0  0  0  0  0  0  0
   47.7640   30.0860   48.5000 C   0  0  0  0  0  0  0  0  0  0  0  0
   48.0340   31.5370   48.7190 C   0  0  0  0  0  0  0  0  0  0  0  0
   47.0850   32.3750   47.9240 C   0  0  2  0  0  0  0  0  0  0  0  0
   46.6610   33.0530   45.6170 C   0  0  0  0  0  0  0  0  0  0  0  0
   45.5410   33.7750   46.0750 C   0  0  0  0  0  0  0  0  0  0  0  0
   44.9780   34.7170   45.1930 C   0  0  0  0  0  0  0  0  0  0  0  0
   45.5490   34.8730   43.9510 N   0  0  0  0  0  0  0  0  0  0  0  0
   46.6260   34.1410   43.5810 C   0  0  0  0  0  0  0  0  0  0  0  0
   47.1880   33.2390   44.3890 N   0  0  0  0  0  0  0  0  0  0  0  0
   47.1710   34.3530   42.2360 C   0  0  0  0  0  0  0  0  0  0  0  0
   48.2010   35.2090   42.0090 C   0  0  0  0  0  0  0  0  0  0  0  0
   48.7470   35.4470   40.7580 C   0  0  0  0  0  0  0  0  0  0  0  0
   48.1710   34.7430   39.7190 C   0  0  0  0  0  0  0  0  0  0  0  0
   47.1270   33.8700   39.9240 C   0  0  0  0  0  0  0  0  0  0  0  0
   46.6270   33.6750   41.1820 N   0  0  0  0  0  0  0  0  0  0  0  0
   45.7270   32.2500   48.4390 C   0  0  0  0  0  0  0  0  0  0  0  0
   45.3500   31.8980   49.5400 O   0  0  0  0  0  0  0  0  0  0  0  0
   48.3473   32.0790   46.2516 H   0  0  0  0  0  0  0  0  0  0  0  0
   45.7720   30.5296   46.4718 H   0  0  0  0  0  0  0  0  0  0  0  0
   46.9659   30.4103   45.1461 H   0  0  0  0  0  0  0  0  0  0  0  0
   47.2253   28.7050   46.9915 H   0  0  0  0  0  0  0  0  0  0  0  0
   48.6908   29.7595   46.6532 H   0  0  0  0  0  0  0  0  0  0  0  0
   46.8131   29.8305   48.9905 H   0  0  0  0  0  0  0  0  0  0  0  0
   48.6135   29.5304   48.9239 H   0  0  0  0  0  0  0  0  0  0  0  0
   47.9139   31.7698   49.7874 H   0  0  0  0  0  0  0  0  0  0  0  0
   49.0611   31.7594   48.3940 H   0  0  0  0  0  0  0  0  0  0  0  0
   47.2945   33.4502   48.0246 H   0  0  0  0  0  0  0  0  0  0  0  0
   45.1241   33.6096   47.0794 H   0  0  0  0  0  0  0  0  0  0  0  0
   44.1029   35.3138   45.4897 H   0  0  0  0  0  0  0  0  0  0  0  0
   48.6271   35.7453   42.8698 H   0  0  0  0  0  0  0  0  0  0  0  0
   49.5808   36.1476   40.6033 H   0  0  0  0  0  0  0  0  0  0  0  0
   48.5575   34.8839   38.6988 H   0  0  0  0  0  0  0  0  0  0  0  0
   46.6926   33.3265   39.0720 H   0  0  0  0  0  0  0  0  0  0  0  0
   44.9284   32.5118   47.7293 H   0  0  0  0  0  0  0  0  0  0  0  0
  1  6  1  0
  2  1  1  0
  2  3  1  0
  3  4  1  0
  4  5  1  0
  6 19  1  0
  6  5  1  0
  7  8  2  0
  7  1  1  0
  9  8  1  0
 10  9  2  0
 11 10  1  0
 11 12  2  0
 12  7  1  0
 13 11  1  0
 14 13  2  0
 15 14  1  0
 16 17  1  0
 16 15  2  0
 17 18  2  0
 18 13  1  0
 19 20  2  0
  1 21  1  6
  2 22  1  0
  2 23  1  0
  3 24  1  0
  3 25  1  0
  4 26  1  0
  4 27  1  0
  5 28  1  0
  5 29  1  0
  6 30  1  6
  8 31  1  0
  9 32  1  0
 14 33  1  0
 15 34  1  0
 16 35  1  0
 17 36  1  0
 19 37  1  0
M  ISO  8  21  13  22  13  23  13  24  13  25  13  26  13  27  13  28  13
M  ISO  8  29  13  30  13  31  14  32  14  33  14  34  14  35  14  36  14
M  ISO  1  37   6
M  END
>  <minimizedAffinity>  (1) 
-5.90361214

>  <minimizedRMSD>  (1) 
1.44789028

$$$$
