
     RDKit          3D

 37 39  0  0  1  0  0  0  0  0999 V2000
   46.4930   32.5010   46.6760 C   0  0  2  0  0  0  0  0  0  0  0  0
   46.2810   31.0930   46.1920 C   0  0  0  0  0  0  0  0  0  0  0  0
   46.9380   30.1700   47.2050 C   0  0  0  0  0  0  0  0  0  0  0  0
   46.4870   30.4060   48.6140 C   0  0  0  0  0  0  0  0  0  0  0  0
   46.5090   31.8470   49.0000 C   0  0  0  0  0  0  0  0  0  0  0  0
   45.7740   32.6670   47.9870 C   0  0  2  0  0  0  0  0  0  0  0  0
   46.0530   33.5280   45.7160 C   0  0  0  0  0  0  0  0  0  0  0  0
   45.0150   34.4200   46.0680 C   0  0  0  0  0  0  0  0  0  0  0  0
   44.6290   35.3690   45.1040 C   0  0  0  0  0  0  0  0  0  0  0  0
   45.2810   35.3730   43.8870 N   0  0  0  0  0  0  0  0  0  0  0  0
   46.2660   34.4850   43.6280 C   0  0  0  0  0  0  0  0  0  0  0  0
   46.6560   33.5710   44.5210 N   0  0  0  0  0  0  0  0  0  0  0  0
   46.9050   34.5330   42.3060 C   0  0  0  0  0  0  0  0  0  0  0  0
   48.0140   35.2810   42.0800 C   0  0  0  0  0  0  0  0  0  0  0  0
   48.6450   35.3570   40.8530 C   0  0  0  0  0  0  0  0  0  0  0  0
   48.0810   34.6180   39.8360 C   0  0  0  0  0  0  0  0  0  0  0  0
   46.9560   33.8540   40.0420 C   0  0  0  0  0  0  0  0  0  0  0  0
   46.3690   33.8110   41.2760 N   0  0  0  0  0  0  0  0  0  0  0  0
   44.3950   32.3090   47.9000 N   0  0  0  0  0  0  0  0  0  0  0  0
   47.5758   32.6529   46.7965 H   0  0  0  0  0  0  0  0  0  0  0  0
   45.2049   30.8749   46.1247 H   0  0  0  0  0  0  0  0  0  0  0  0
   46.7177   30.9521   45.1923 H   0  0  0  0  0  0  0  0  0  0  0  0
   46.7006   29.1308   46.9335 H   0  0  0  0  0  0  0  0  0  0  0  0
   48.0183   30.3747   47.1741 H   0  0  0  0  0  0  0  0  0  0  0  0
   45.4586   30.0304   48.7203 H   0  0  0  0  0  0  0  0  0  0  0  0
   47.1881   29.8774   49.2766 H   0  0  0  0  0  0  0  0  0  0  0  0
   46.0282   31.9670   49.9821 H   0  0  0  0  0  0  0  0  0  0  0  0
   47.5534   32.1889   49.0476 H   0  0  0  0  0  0  0  0  0  0  0  0
   45.7705   33.7260   48.2845 H   0  0  0  0  0  0  0  0  0  0  0  0
   44.5295   34.3742   47.0540 H   0  0  0  0  0  0  0  0  0  0  0  0
   43.8264   36.0911   45.3149 H   0  0  0  0  0  0  0  0  0  0  0  0
   48.4331   35.8575   42.9178 H   0  0  0  0  0  0  0  0  0  0  0  0
   49.5443   35.9711   40.6974 H   0  0  0  0  0  0  0  0  0  0  0  0
   48.5408   34.6395   38.8369 H   0  0  0  0  0  0  0  0  0  0  0  0
   46.5269   33.2754   39.2107 H   0  0  0  0  0  0  0  0  0  0  0  0
   44.0060   32.2080   48.8484 H   0  0  0  0  0  0  0  0  0  0  0  0
   43.8806   33.0443   47.3944 H   0  0  0  0  0  0  0  0  0  0  0  0
  1  6  1  0
  2  1  1  0
  2  3  1  0
  3  4  1  0
  4  5  1  0
  6  5  1  0
  7  8  2  0
  7  1  1  0
  9  8  1  0
 10  9  2  0
 11 10  1  0
 11 12  2  0
 12  7  1  0
 13 11  1  0
 14 13  2  0
 15 14  1  0
 16 17  1  0
 16 15  2  0
 17 18  2  0
 18 13  1  0
 19  6  1  0
  1 20  1  1
  2 21  1  0
  2 22  1  0
  3 23  1  0
  3 24  1  0
  4 25  1  0
  4 26  1  0
  5 27  1  0
  5 28  1  0
  6 29  1  1
  8 30  1  0
  9 31  1  0
 14 32  1  0
 15 33  1  0
 16 34  1  0
 17 35  1  0
 19 36  1  0
 19 37  1  0
M  ISO  8  20  13  21  13  22  13  23  13  24  13  25  13  26  13  27  13
M  ISO  8  28  13  29  13  30  14  31  14  32  14  33  14  34  14  35  14
M  ISO  2  36   5  37   5
M  END
>  <minimizedAffinity>  (1) 
-6.31943083

>  <minimizedRMSD>  (1) 
0.414744198

$$$$
