
     RDKit          3D

 40 42  0  0  1  0  0  0  0  0999 V2000
   47.6100   31.7100   46.2940 C   0  0  2  0  0  0  0  0  0  0  0  0
   47.5670   30.3350   45.6390 C   0  0  0  0  0  0  0  0  0  0  0  0
   48.4310   29.4110   46.4620 C   0  0  0  0  0  0  0  0  0  0  0  0
   48.1280   29.4340   47.9400 C   0  0  0  0  0  0  0  0  0  0  0  0
   48.0100   30.8040   48.4800 C   0  0  0  0  0  0  0  0  0  0  0  0
   47.0370   31.6050   47.6620 C   0  0  2  0  0  0  0  0  0  0  0  0
   46.9670   32.7380   45.4820 C   0  0  0  0  0  0  0  0  0  0  0  0
   45.8510   33.4190   46.0220 C   0  0  0  0  0  0  0  0  0  0  0  0
   45.2220   34.3960   45.2310 C   0  0  0  0  0  0  0  0  0  0  0  0
   45.7400   34.6290   43.9680 N   0  0  0  0  0  0  0  0  0  0  0  0
   46.8070   33.9360   43.5280 C   0  0  0  0  0  0  0  0  0  0  0  0
   47.4350   32.9950   44.2560 N   0  0  0  0  0  0  0  0  0  0  0  0
   47.2980   34.2270   42.1650 C   0  0  0  0  0  0  0  0  0  0  0  0
   48.2350   35.1590   41.9170 C   0  0  0  0  0  0  0  0  0  0  0  0
   48.6900   35.4240   40.6340 C   0  0  0  0  0  0  0  0  0  0  0  0
   48.1540   34.7020   39.6080 C   0  0  0  0  0  0  0  0  0  0  0  0
   47.2020   33.7510   39.8400 C   0  0  0  0  0  0  0  0  0  0  0  0
   46.7710   33.5090   41.1140 N   0  0  0  0  0  0  0  0  0  0  0  0
   45.7300   31.0520   47.6450 N   0  0  0  0  0  0  0  0  0  0  0  0
   44.9470   31.2810   48.8090 C   0  0  0  0  0  0  0  0  0  0  0  0
   45.5330   32.0940   49.7520 F   0  0  0  0  0  0  0  0  0  0  0  0
   44.7930   30.0380   49.4390 F   0  0  0  0  0  0  0  0  0  0  0  0
   43.7120   31.8340   48.5340 F   0  0  0  0  0  0  0  0  0  0  0  0
   48.6565   32.0391   46.3752 H   0  0  0  0  0  0  0  0  0  0  0  0
   46.5325   29.9617   45.6178 H   0  0  0  0  0  0  0  0  0  0  0  0
   47.9349   30.3883   44.6037 H   0  0  0  0  0  0  0  0  0  0  0  0
   48.2844   28.3842   46.0957 H   0  0  0  0  0  0  0  0  0  0  0  0
   49.4675   29.7608   46.3463 H   0  0  0  0  0  0  0  0  0  0  0  0
   47.1787   28.9056   48.1122 H   0  0  0  0  0  0  0  0  0  0  0  0
   48.9671   28.9458   48.4573 H   0  0  0  0  0  0  0  0  0  0  0  0
   47.6554   30.7548   49.5201 H   0  0  0  0  0  0  0  0  0  0  0  0
   48.9959   31.2903   48.4406 H   0  0  0  0  0  0  0  0  0  0  0  0
   46.9062   32.5992   48.1142 H   0  0  0  0  0  0  0  0  0  0  0  0
   45.4852   33.1902   47.0338 H   0  0  0  0  0  0  0  0  0  0  0  0
   44.3502   34.9550   45.6017 H   0  0  0  0  0  0  0  0  0  0  0  0
   48.6541   35.7296   42.7589 H   0  0  0  0  0  0  0  0  0  0  0  0
   49.4572   36.1905   40.4498 H   0  0  0  0  0  0  0  0  0  0  0  0
   48.4938   34.8887   38.5786 H   0  0  0  0  0  0  0  0  0  0  0  0
   46.7813   33.1788   39.0000 H   0  0  0  0  0  0  0  0  0  0  0  0
   45.2269   31.4544   46.8413 H   0  0  0  0  0  0  0  0  0  0  0  0
  1  6  1  0
  2  1  1  0
  2  3  1  0
  3  4  1  0
  4  5  1  0
  6  5  1  0
  7  8  2  0
  7  1  1  0
  9  8  1  0
 10  9  2  0
 11 10  1  0
 11 12  2  0
 12  7  1  0
 13 11  1  0
 14 13  2  0
 15 14  1  0
 16 17  1  0
 16 15  2  0
 17 18  2  0
 18 13  1  0
 19  6  1  0
 19 20  1  0
 20 22  1  0
 20 21  1  0
 23 20  1  0
  1 24  1  1
  2 25  1  0
  2 26  1  0
  3 27  1  0
  3 28  1  0
  4 29  1  0
  4 30  1  0
  5 31  1  0
  5 32  1  0
  6 33  1  1
  8 34  1  0
  9 35  1  0
 14 36  1  0
 15 37  1  0
 16 38  1  0
 17 39  1  0
 19 40  1  0
M  ISO  8  24  13  25  13  26  13  27  13  28  13  29  13  30  13  31  13
M  ISO  8  32  13  33  13  34  14  35  14  36  14  37  14  38  14  39  14
M  ISO  1  40   5
M  END
>  <minimizedAffinity>  (1) 
-5.84713697

>  <minimizedRMSD>  (1) 
1.35313082

$$$$
