
     RDKit          3D

 27 29  0  0  0  0  0  0  0  0999 V2000
   48.2130   34.9820   41.5790 C   0  0  0  0  0  0  0  0  0  0  0  0
   47.2240   34.0280   41.7690 C   0  0  0  0  0  0  0  0  0  0  0  0
   46.7350   33.3520   40.6800 C   0  0  0  0  0  0  0  0  0  0  0  0
   47.1930   33.5890   39.3900 C   0  0  0  0  0  0  0  0  0  0  0  0
   46.8680   33.0590   38.1910 N   0  0  0  0  0  0  0  0  0  0  0  0
   47.6350   33.6620   37.2420 C   0  0  0  0  0  0  0  0  0  0  0  0
   48.4410   34.5760   37.8800 N   0  0  0  0  0  0  0  0  0  0  0  0
   48.1760   34.5380   39.2020 C   0  0  0  0  0  0  0  0  0  0  0  0
   48.6830   35.2290   40.2850 C   0  0  0  0  0  0  0  0  0  0  0  0
   45.4870   34.2510   45.1120 C   0  0  0  0  0  0  0  0  0  0  0  0
   45.8180   34.5990   43.7640 C   0  0  0  0  0  0  0  0  0  0  0  0
   46.7700   33.8100   43.1450 C   0  0  0  0  0  0  0  0  0  0  0  0
   47.3200   32.7860   43.8260 N   0  0  0  0  0  0  0  0  0  0  0  0
   46.9890   32.4770   45.1020 C   0  0  0  0  0  0  0  0  0  0  0  0
   46.0720   33.2210   45.7240 N   0  0  0  0  0  0  0  0  0  0  0  0
   44.3320   36.2660   44.9780 C   0  0  0  0  0  0  0  0  0  0  0  0
   45.0410   36.4010   43.9240 O   0  0  0  0  0  0  0  0  0  0  0  0
   44.5060   35.0690   45.7370 N   0  0  0  0  0  0  0  0  0  0  0  0
   48.6226   35.5375   42.4356 H   0  0  0  0  0  0  0  0  0  0  0  0
   45.9519   32.5949   40.8338 H   0  0  0  0  0  0  0  0  0  0  0  0
   46.1632   32.3267   38.0240 H   0  0  0  0  0  0  0  0  0  0  0  0
   47.6141   33.4560   36.1617 H   0  0  0  0  0  0  0  0  0  0  0  0
   49.4673   35.9841   40.1277 H   0  0  0  0  0  0  0  0  0  0  0  0
   45.3419   35.4465   43.2492 H   0  0  0  0  0  0  0  0  0  0  0  0
   47.4664   31.6296   45.6158 H   0  0  0  0  0  0  0  0  0  0  0  0
   43.6159   37.0410   45.2886 H   0  0  0  0  0  0  0  0  0  0  0  0
   43.9996   34.8345   46.6027 H   0  0  0  0  0  0  0  0  0  0  0  0
  1  2  2  0
  2 12  1  0
  3  2  1  0
  4  3  2  0
  5  4  1  0
  6  7  2  0
  6  5  1  0
  7  8  1  0
  8  4  1  0
  8  9  2  0
  9  1  1  0
 10 15  2  0
 10 18  1  0
 11 10  1  0
 12 11  2  0
 12 13  1  0
 13 14  2  0
 14 15  1  0
 16 18  1  0
 17 16  2  0
  1 19  1  0
  3 20  1  0
  5 21  1  0
  6 22  1  0
  9 23  1  0
 11 24  1  0
 14 25  1  0
 16 26  1  0
 18 27  1  0
M  ISO  8  19  14  20  14  21   9  22  14  23  14  24  14  25  14  26   6
M  END
>  <minimizedAffinity>  (1) 
-5.70375204

>  <minimizedRMSD>  (1) 
1.42265236

$$$$
