
     RDKit          3D

 27 29  0  0  0  0  0  0  0  0999 V2000
   48.0650   35.1220   41.9510 C   0  0  0  0  0  0  0  0  0  0  0  0
   46.8820   34.4030   42.1330 C   0  0  0  0  0  0  0  0  0  0  0  0
   46.3340   33.8000   41.0410 C   0  0  0  0  0  0  0  0  0  0  0  0
   46.8910   33.8700   39.7810 C   0  0  0  0  0  0  0  0  0  0  0  0
   46.4950   33.3450   38.5880 N   0  0  0  0  0  0  0  0  0  0  0  0
   47.4400   33.7380   37.6530 C   0  0  0  0  0  0  0  0  0  0  0  0
   48.3720   34.4810   38.2930 N   0  0  0  0  0  0  0  0  0  0  0  0
   48.0590   34.5780   39.6000 C   0  0  0  0  0  0  0  0  0  0  0  0
   48.6390   35.1980   40.6820 C   0  0  0  0  0  0  0  0  0  0  0  0
   46.2180   33.6040   45.7510 C   0  0  0  0  0  0  0  0  0  0  0  0
   46.8410   33.5610   44.4830 C   0  0  0  0  0  0  0  0  0  0  0  0
   46.3340   34.3580   43.4750 C   0  0  0  0  0  0  0  0  0  0  0  0
   45.2610   35.1480   43.7380 N   0  0  0  0  0  0  0  0  0  0  0  0
   44.6810   35.1720   44.9650 C   0  0  0  0  0  0  0  0  0  0  0  0
   45.1570   34.4100   45.9480 N   0  0  0  0  0  0  0  0  0  0  0  0
   46.7180   32.8090   46.7590 O   0  0  0  0  0  0  0  0  0  0  0  0
   45.8920   31.6860   47.0960 C   0  0  0  0  0  0  0  0  0  0  0  0
   46.7000   30.7370   47.7200 F   0  0  0  0  0  0  0  0  0  0  0  0
   45.4970   31.1840   45.8520 F   0  0  0  0  0  0  0  0  0  0  0  0
   44.7970   32.0300   47.8300 F   0  0  0  0  0  0  0  0  0  0  0  0
   48.5421   35.6261   42.8044 H   0  0  0  0  0  0  0  0  0  0  0  0
   45.4023   33.2297   41.1704 H   0  0  0  0  0  0  0  0  0  0  0  0
   45.6585   32.7696   38.4148 H   0  0  0  0  0  0  0  0  0  0  0  0
   47.4333   33.4899   36.5814 H   0  0  0  0  0  0  0  0  0  0  0  0
   49.5722   35.7639   40.5442 H   0  0  0  0  0  0  0  0  0  0  0  0
   47.7084   32.9088   44.3032 H   0  0  0  0  0  0  0  0  0  0  0  0
   43.8140   35.8237   45.1482 H   0  0  0  0  0  0  0  0  0  0  0  0
  1  2  2  0
  2 12  1  0
  3  2  1  0
  4  3  2  0
  5  4  1  0
  6  7  2  0
  6  5  1  0
  7  8  1  0
  8  4  1  0
  8  9  2  0
  9  1  1  0
 10 15  2  0
 10 16  1  0
 11 10  1  0
 12 13  1  0
 12 11  2  0
 13 14  2  0
 14 15  1  0
 16 17  1  0
 17 18  1  0
 17 20  1  0
 19 17  1  0
  1 21  1  0
  3 22  1  0
  5 23  1  0
  6 24  1  0
  9 25  1  0
 11 26  1  0
 14 27  1  0
M  ISO  7  21  14  22  14  23   9  24  14  25  14  26  14  27  14
M  END
>  <minimizedAffinity>  (1) 
-5.81826973

>  <minimizedRMSD>  (1) 
2.93779135

$$$$
