
     RDKit          3D

 31 34  0  0  0  0  0  0  0  0999 V2000
   45.4710   34.8510   43.5160 C   0  0  0  0  0  0  0  0  0  0  0  0
   46.1790   33.7690   44.0930 C   0  0  0  0  0  0  0  0  0  0  0  0
   46.0000   33.5440   45.4450 C   0  0  0  0  0  0  0  0  0  0  0  0
   45.1820   34.3400   46.1440 N   0  0  0  0  0  0  0  0  0  0  0  0
   44.5090   35.3790   45.5690 C   0  0  0  0  0  0  0  0  0  0  0  0
   44.6580   35.6200   44.2830 N   0  0  0  0  0  0  0  0  0  0  0  0
   46.9840   32.7010   47.5070 C   0  0  0  0  0  0  0  0  0  0  0  0
   46.6630   32.4630   46.1760 C   0  0  0  0  0  0  0  0  0  0  0  0
   46.9840   31.2400   45.6340 C   0  0  0  0  0  0  0  0  0  0  0  0
   47.6090   30.2490   46.3620 C   0  0  0  0  0  0  0  0  0  0  0  0
   48.0080   29.0040   46.0450 N   0  0  0  0  0  0  0  0  0  0  0  0
   48.5850   28.4490   47.1750 C   0  0  0  0  0  0  0  0  0  0  0  0
   48.5200   29.3730   48.1520 N   0  0  0  0  0  0  0  0  0  0  0  0
   47.9290   30.4760   47.6750 C   0  0  0  0  0  0  0  0  0  0  0  0
   47.6190   31.6970   48.2450 C   0  0  0  0  0  0  0  0  0  0  0  0
   45.6530   35.0790   42.1470 O   0  0  0  0  0  0  0  0  0  0  0  0
   44.5850   34.8670   41.2730 C   0  0  0  0  0  0  0  0  0  0  0  0
   45.1060   33.8910   40.5080 C   0  0  0  0  0  0  0  0  0  0  0  0
   43.6990   33.5340   39.2800 S   0  0  0  0  0  0  0  0  0  0  0  0
   42.6610   34.8840   40.1450 C   0  0  0  0  0  0  0  0  0  0  0  0
   43.3720   35.2030   40.9180 N   0  0  0  0  0  0  0  0  0  0  0  0
   40.9700   35.4610   39.7720 S   0  0  0  0  0  0  0  0  0  0  0  0
   46.8442   33.1335   43.4900 H   0  0  0  0  0  0  0  0  0  0  0  0
   43.8455   36.0118   46.1768 H   0  0  0  0  0  0  0  0  0  0  0  0
   46.7417   33.6669   47.9742 H   0  0  0  0  0  0  0  0  0  0  0  0
   46.7329   31.0451   44.5809 H   0  0  0  0  0  0  0  0  0  0  0  0
   47.9033   28.5465   45.1281 H   0  0  0  0  0  0  0  0  0  0  0  0
   49.0163   27.4406   47.2587 H   0  0  0  0  0  0  0  0  0  0  0  0
   47.8766   31.8821   49.2983 H   0  0  0  0  0  0  0  0  0  0  0  0
   46.0969   33.4182   40.5758 H   0  0  0  0  0  0  0  0  0  0  0  0
   40.2971   35.6906   40.9431 H   0  0  0  0  0  0  0  0  0  0  0  0
  1  2  2  0
  1  6  1  0
  2  3  1  0
  3  4  2  0
  3  8  1  0
  5  4  1  0
  6  5  2  0
  7 15  2  0
  8  7  1  0
  9  8  2  0
  9 10  1  0
 10 14  2  0
 11 10  1  0
 11 12  1  0
 12 13  2  0
 14 13  1  0
 14 15  1  0
 16  1  1  0
 17 16  1  0
 18 17  2  0
 19 20  1  0
 19 18  1  0
 20 21  2  0
 21 17  1  0
 22 20  1  0
  2 23  1  0
  5 24  1  0
  7 25  1  0
  9 26  1  0
 11 27  1  0
 12 28  1  0
 15 29  1  0
 18 30  1  0
 22 31  1  0
M  ISO  8  23  14  24  14  25  14  26  14  27   9  28  14  29  14  30  14
M  ISO  1  31  11
M  END
>  <minimizedAffinity>  (1) 
-5.48405933

>  <minimizedRMSD>  (1) 
0.1317624

$$$$
