
     RDKit          3D

 32 34  0  0  1  0  0  0  0  0999 V2000
   48.0390   34.4170   41.1120 C   0  0  1  0  0  0  0  0  0  0  0  0
   48.7600   35.6960   41.6870 C   0  0  0  0  0  0  0  0  0  0  0  0
   48.9930   34.3430   42.2140 C   0  0  2  0  0  0  0  0  0  0  0  0
   46.5740   34.4410   41.3850 C   0  0  0  0  0  0  0  0  0  0  0  0
   45.8200   34.2160   40.4440 O   0  0  0  0  0  0  0  0  0  0  0  0
   45.3730   35.8680   42.9720 C   0  0  0  0  0  0  0  0  0  0  0  0
   45.9930   34.7030   42.6650 C   0  0  0  0  0  0  0  0  0  0  0  0
   46.0590   33.7070   43.6740 C   0  0  0  0  0  0  0  0  0  0  0  0
   45.5140   33.9320   44.8950 N   0  0  0  0  0  0  0  0  0  0  0  0
   44.8990   35.1210   45.1550 C   0  0  0  0  0  0  0  0  0  0  0  0
   44.8340   36.0530   44.2210 N   0  0  0  0  0  0  0  0  0  0  0  0
   50.2860   33.8770   41.9980 O   0  0  0  0  0  0  0  0  0  0  0  0
   48.9860   31.8770   42.9860 O   0  0  0  0  0  0  0  0  0  0  0  0
   50.2230   32.1860   42.1600 P   0  0  2  0  0  0  0  0  0  0  0  0
   51.5880   31.5190   42.8350 O   0  0  0  0  0  0  0  0  0  0  0  0
   49.8880   31.5230   40.6010 O   0  0  0  0  0  0  0  0  0  0  0  0
   50.8380   31.6090   39.5790 C   0  0  0  0  0  0  0  0  0  0  0  0
   52.1810   31.3750   39.3410 C   0  0  0  0  0  0  0  0  0  0  0  0
   52.4100   31.7160   38.0040 C   0  0  0  0  0  0  0  0  0  0  0  0
   51.2360   32.1320   37.4920 N   0  0  0  0  0  0  0  0  0  0  0  0
   50.2990   32.0700   38.4210 N   0  0  0  0  0  0  0  0  0  0  0  0
   47.9465   33.8558   40.1704 H   0  0  0  0  0  0  0  0  0  0  0  0
   49.5378   36.2084   41.1018 H   0  0  0  0  0  0  0  0  0  0  0  0
   48.4469   36.6663   42.0998 H   0  0  0  0  0  0  0  0  0  0  0  0
   48.9024   33.8518   43.1941 H   0  0  0  0  0  0  0  0  0  0  0  0
   45.3014   36.6669   42.2192 H   0  0  0  0  0  0  0  0  0  0  0  0
   46.5548   32.7477   43.4644 H   0  0  0  0  0  0  0  0  0  0  0  0
   44.4559   35.3045   46.1449 H   0  0  0  0  0  0  0  0  0  0  0  0
   51.5185   31.5530   43.8220 H   0  0  0  0  0  0  0  0  0  0  0  0
   52.9216   30.9960   40.0606 H   0  0  0  0  0  0  0  0  0  0  0  0
   53.3700   31.6556   37.4703 H   0  0  0  0  0  0  0  0  0  0  0  0
   51.0908   32.4502   36.5232 H   0  0  0  0  0  0  0  0  0  0  0  0
  1  4  1  0
  1  2  1  0
  1  3  1  0
  2  3  1  0
  4  7  1  0
  5  4  2  0
  6 11  2  0
  7  6  1  0
  7  8  2  0
  8  9  1  0
  9 10  2  0
 11 10  1  0
 12 14  1  0
 12  3  1  0
 14 15  1  0
 14 13  2  0
 16 14  1  0
 17 16  1  0
 18 17  1  0
 19 18  2  0
 20 19  1  0
 20 21  1  0
 21 17  2  0
  1 22  1  6
  2 23  1  0
  2 24  1  0
  3 25  1  1
  6 26  1  0
  8 27  1  0
 10 28  1  0
 15 29  1  0
 18 30  1  0
 19 31  1  0
 20 32  1  0
M  ISO  8  22  13  23  13  24  13  25  13  26  14  27  14  28  14  29   3
M  ISO  3  30  14  31  14  32   9
M  END
>  <minimizedAffinity>  (1) 
-5.16542959

>  <minimizedRMSD>  (1) 
0.72998327

$$$$
