
     RDKit          3D

 17 17  0  0  0  0  0  0  0  0999 V2000
   47.7420   34.8460   42.0950 C   0  0  0  0  0  0  0  0  0  0  0  0
   48.3090   33.8040   42.8350 C   0  0  0  0  0  0  0  0  0  0  0  0
   47.6000   33.2930   43.9110 C   0  0  0  0  0  0  0  0  0  0  0  0
   46.3680   33.8280   44.2100 N   0  0  0  0  0  0  0  0  0  0  0  0
   45.8610   34.8310   43.4690 C   0  0  0  0  0  0  0  0  0  0  0  0
   46.5280   35.3380   42.4290 N   0  0  0  0  0  0  0  0  0  0  0  0
   49.9130   33.1400   42.4110 S   0  0  0  0  0  0  0  0  0  0  0  0
   48.5550   35.3420   40.9610 C   0  0  0  0  0  0  0  0  0  0  0  0
   48.1890   34.7070   39.6480 C   0  0  0  0  0  0  0  0  0  0  0  0
   48.0154   32.4734   44.5158 H   0  0  0  0  0  0  0  0  0  0  0  0
   44.8739   35.2428   43.7262 H   0  0  0  0  0  0  0  0  0  0  0  0
   50.6060   32.8531   43.5574 H   0  0  0  0  0  0  0  0  0  0  0  0
   48.4103   36.4291   40.8761 H   0  0  0  0  0  0  0  0  0  0  0  0
   49.6026   35.0800   41.1703 H   0  0  0  0  0  0  0  0  0  0  0  0
   47.6475   33.7676   39.8333 H   0  0  0  0  0  0  0  0  0  0  0  0
   47.5477   35.3929   39.0751 H   0  0  0  0  0  0  0  0  0  0  0  0
   49.1040   34.4959   39.0751 H   0  0  0  0  0  0  0  0  0  0  0  0
  1  6  2  0
  1  2  1  0
  2  3  2  0
  3  4  1  0
  5  4  2  0
  6  5  1  0
  7  2  1  0
  8  1  1  0
  9  8  1  0
  3 10  1  0
  5 11  1  0
  7 12  1  0
  8 13  1  0
  8 14  1  0
  9 15  1  0
  9 16  1  0
  9 17  1  0
M  ISO  8  10  14  11  14  12  11  13   8  14   8  15   8  16   8  17   8
M  END
>  <minimizedAffinity>  (1) 
-3.05317354

>  <minimizedRMSD>  (1) 
4.66650486

$$$$
