
     RDKit          3D

 24 25  0  0  0  0  0  0  0  0999 V2000
   46.3960   34.9950   43.0630 C   0  0  0  0  0  0  0  0  0  0  0  0
   46.3470   34.0230   44.0540 C   0  0  0  0  0  0  0  0  0  0  0  0
   45.4250   34.1590   45.0850 C   0  0  0  0  0  0  0  0  0  0  0  0
   44.5910   35.2520   45.0920 N   0  0  0  0  0  0  0  0  0  0  0  0
   44.6730   36.1730   44.1090 C   0  0  0  0  0  0  0  0  0  0  0  0
   45.5600   36.0560   43.1040 N   0  0  0  0  0  0  0  0  0  0  0  0
   47.3910   34.8010   41.9970 C   0  0  0  0  0  0  0  0  0  0  0  0
   46.7850   34.3030   40.7010 C   0  0  0  0  0  0  0  0  0  0  0  0
   47.9380   34.2450   39.6980 C   0  0  0  0  0  0  0  0  0  0  0  0
   47.5490   33.6560   38.3520 C   0  0  0  0  0  0  0  0  0  0  0  0
   48.5170   32.9680   39.2830 C   0  0  0  0  0  0  0  0  0  0  0  0
   47.4490   32.6160   44.0080 S   0  0  0  0  0  0  0  0  0  0  0  0
   45.3635   33.4041   45.8828 H   0  0  0  0  0  0  0  0  0  0  0  0
   43.9978   37.0411   44.1299 H   0  0  0  0  0  0  0  0  0  0  0  0
   47.8888   35.7627   41.8037 H   0  0  0  0  0  0  0  0  0  0  0  0
   48.0980   34.0333   42.3444 H   0  0  0  0  0  0  0  0  0  0  0  0
   46.3486   33.3031   40.8414 H   0  0  0  0  0  0  0  0  0  0  0  0
   45.9770   34.9627   40.3518 H   0  0  0  0  0  0  0  0  0  0  0  0
   48.4000   35.1654   40.0845 H   0  0  0  0  0  0  0  0  0  0  0  0
   47.9064   34.1165   37.4192 H   0  0  0  0  0  0  0  0  0  0  0  0
   46.6088   33.3866   37.8486 H   0  0  0  0  0  0  0  0  0  0  0  0
   48.2175   32.0411   39.7941 H   0  0  0  0  0  0  0  0  0  0  0  0
   49.5436   32.5866   39.1799 H   0  0  0  0  0  0  0  0  0  0  0  0
   47.7510   32.2304   45.2875 H   0  0  0  0  0  0  0  0  0  0  0  0
  1  6  1  0
  1  2  2  0
  2  3  1  0
  3  4  2  0
  5  4  1  0
  6  5  2  0
  7  1  1  0
  8  7  1  0
  9  8  1  0
 10 11  1  0
 10  9  1  0
 11  9  1  0
 12  2  1  0
  3 13  1  0
  5 14  1  0
  7 15  1  0
  7 16  1  0
  8 17  1  0
  8 18  1  0
  9 19  1  0
 10 20  1  0
 10 21  1  0
 11 22  1  0
 11 23  1  0
 12 24  1  0
M  ISO  8  13  14  14  14  15   8  16   8  17   8  18   8  19  13  20  13
M  ISO  4  21  13  22  13  23  13  24  11
M  END
>  <minimizedAffinity>  (1) 
-3.74105597

>  <minimizedRMSD>  (1) 
2.49124718

$$$$
