
     RDKit          3D

 18 18  0  0  0  0  0  0  0  0999 V2000
   47.6630   34.7640   42.0700 C   0  0  0  0  0  0  0  0  0  0  0  0
   48.2010   33.7440   42.8450 C   0  0  0  0  0  0  0  0  0  0  0  0
   47.5010   33.3030   43.9690 C   0  0  0  0  0  0  0  0  0  0  0  0
   46.2970   33.9020   44.2680 N   0  0  0  0  0  0  0  0  0  0  0  0
   45.8130   34.8890   43.4830 C   0  0  0  0  0  0  0  0  0  0  0  0
   46.4810   35.3140   42.4060 N   0  0  0  0  0  0  0  0  0  0  0  0
   48.4640   35.1740   40.8960 C   0  0  0  0  0  0  0  0  0  0  0  0
   48.0340   34.4650   39.6270 C   0  0  0  0  0  0  0  0  0  0  0  0
   46.6630   34.1840   39.7780 O   0  0  0  0  0  0  0  0  0  0  0  0
   49.7670   32.9880   42.4330 S   0  0  0  0  0  0  0  0  0  0  0  0
   47.9011   32.4965   44.6010 H   0  0  0  0  0  0  0  0  0  0  0  0
   44.8482   35.3531   43.7355 H   0  0  0  0  0  0  0  0  0  0  0  0
   48.3490   36.2583   40.7511 H   0  0  0  0  0  0  0  0  0  0  0  0
   49.5116   34.9026   41.0933 H   0  0  0  0  0  0  0  0  0  0  0  0
   48.6026   33.5319   39.5004 H   0  0  0  0  0  0  0  0  0  0  0  0
   48.2198   35.0865   38.7386 H   0  0  0  0  0  0  0  0  0  0  0  0
   46.4397   34.1382   40.7414 H   0  0  0  0  0  0  0  0  0  0  0  0
   50.4353   32.6654   43.5846 H   0  0  0  0  0  0  0  0  0  0  0  0
  1  6  2  0
  1  2  1  0
  2  3  2  0
  3  4  1  0
  5  4  2  0
  6  5  1  0
  7  1  1  0
  8  9  1  0
  8  7  1  0
 10  2  1  0
  3 11  1  0
  5 12  1  0
  7 13  1  0
  7 14  1  0
  8 15  1  0
  8 16  1  0
  9 17  1  0
 10 18  1  0
M  ISO  8  11  14  12  14  13   8  14   8  15   8  16   8  17   3  18  11
M  END
>  <minimizedAffinity>  (1) 
-3.13932657

>  <minimizedRMSD>  (1) 
0.321337342

$$$$
