
     RDKit          3D

 19 19  0  0  0  0  0  0  0  0999 V2000
   47.6590   34.7460   42.0370 C   0  0  0  0  0  0  0  0  0  0  0  0
   48.1930   33.7220   42.8370 C   0  0  0  0  0  0  0  0  0  0  0  0
   47.4900   33.3140   43.9680 C   0  0  0  0  0  0  0  0  0  0  0  0
   46.3010   33.9190   44.2640 N   0  0  0  0  0  0  0  0  0  0  0  0
   45.8310   34.9040   43.4560 C   0  0  0  0  0  0  0  0  0  0  0  0
   46.4710   35.3200   42.3730 N   0  0  0  0  0  0  0  0  0  0  0  0
   48.4530   35.1320   40.8610 C   0  0  0  0  0  0  0  0  0  0  0  0
   48.0080   34.4450   39.6120 C   0  0  0  0  0  0  0  0  0  0  0  0
   48.7730   34.8140   38.4660 N   0  0  0  0  0  0  0  0  0  0  0  0
   49.7530   32.9600   42.3990 S   0  0  0  0  0  0  0  0  0  0  0  0
   47.8861   32.5163   44.6136 H   0  0  0  0  0  0  0  0  0  0  0  0
   44.8729   35.3794   43.7129 H   0  0  0  0  0  0  0  0  0  0  0  0
   48.3614   36.2186   40.7163 H   0  0  0  0  0  0  0  0  0  0  0  0
   49.4941   34.8322   41.0512 H   0  0  0  0  0  0  0  0  0  0  0  0
   48.0994   33.3587   39.7587 H   0  0  0  0  0  0  0  0  0  0  0  0
   46.9680   34.7498   39.4234 H   0  0  0  0  0  0  0  0  0  0  0  0
   49.6598   35.2418   38.7684 H   0  0  0  0  0  0  0  0  0  0  0  0
   48.9711   33.9759   37.9011 H   0  0  0  0  0  0  0  0  0  0  0  0
   50.4348   32.6270   43.5397 H   0  0  0  0  0  0  0  0  0  0  0  0
  1  6  2  0
  1  2  1  0
  2  3  2  0
  3  4  1  0
  5  4  2  0
  6  5  1  0
  7  1  1  0
  8  7  1  0
  9  8  1  0
 10  2  1  0
  3 11  1  0
  5 12  1  0
  7 13  1  0
  7 14  1  0
  8 15  1  0
  8 16  1  0
  9 17  1  0
  9 18  1  0
 10 19  1  0
M  ISO  8  11  14  12  14  13   8  14   8  15   8  16   8  17   5  18   5
M  ISO  1  19  11
M  END
>  <minimizedAffinity>  (1) 
-3.2523756

>  <minimizedRMSD>  (1) 
0.221304491

$$$$
