
     RDKit          3D

 39 41  0  0  1  0  0  0  0  0999 V2000
   44.0610   34.2640   41.5790 C   0  0  0  0  0  0  0  0  0  0  0  0
   43.6920   35.6480   41.6030 C   0  0  0  0  0  0  0  0  0  0  0  0
   41.9090   35.5990   41.1270 S   0  0  0  0  0  0  0  0  0  0  0  0
   41.9800   33.7190   40.9790 C   0  0  0  0  0  0  0  0  0  0  0  0
   43.0600   33.4810   41.2450 N   0  0  0  0  0  0  0  0  0  0  0  0
   40.0590   32.3980   41.8430 C   0  0  1  0  0  0  0  0  0  0  0  0
   40.7870   32.8960   40.5900 C   0  0  2  0  0  0  0  0  0  0  0  0
   41.3030   31.7130   39.8450 C   0  0  0  0  0  0  0  0  0  0  0  0
   40.6690   30.5420   40.3050 O   0  0  0  0  0  0  0  0  0  0  0  0
   39.2860   30.6810   40.2970 C   0  0  0  0  0  0  0  0  0  0  0  0
   38.8760   31.5990   41.4050 C   0  0  2  0  0  0  0  0  0  0  0  0
   40.9730   31.7310   42.6190 O   0  0  0  0  0  0  0  0  0  0  0  0
   37.8890   32.5180   40.9820 O   0  0  0  0  0  0  0  0  0  0  0  0
   45.4360   33.8340   41.9070 C   0  0  0  0  0  0  0  0  0  0  0  0
   46.4680   34.1520   40.8910 C   0  0  0  0  0  0  0  0  0  0  0  0
   47.8600   34.1110   41.4110 C   0  0  0  0  0  0  0  0  0  0  0  0
   48.6130   32.9710   41.1300 C   0  0  0  0  0  0  0  0  0  0  0  0
   49.9110   32.8870   41.5910 C   0  0  0  0  0  0  0  0  0  0  0  0
   50.4120   33.9370   42.3140 N   0  0  0  0  0  0  0  0  0  0  0  0
   49.6490   35.0260   42.5660 C   0  0  0  0  0  0  0  0  0  0  0  0
   48.4070   35.1020   42.1220 N   0  0  0  0  0  0  0  0  0  0  0  0
   47.8790   31.6320   40.1730 S   0  0  0  0  0  0  0  0  0  0  0  0
   44.3153   36.5216   41.8447 H   0  0  0  0  0  0  0  0  0  0  0  0
   39.6552   33.2035   42.4740 H   0  0  0  0  0  0  0  0  0  0  0  0
   40.0890   33.4937   39.9854 H   0  0  0  0  0  0  0  0  0  0  0  0
   42.3880   31.6267   40.0041 H   0  0  0  0  0  0  0  0  0  0  0  0
   41.0931   31.8408   38.7728 H   0  0  0  0  0  0  0  0  0  0  0  0
   38.9644   31.1018   39.3329 H   0  0  0  0  0  0  0  0  0  0  0  0
   38.8155   29.6970   40.4399 H   0  0  0  0  0  0  0  0  0  0  0  0
   38.4751   30.9762   42.2183 H   0  0  0  0  0  0  0  0  0  0  0  0
   40.7664   31.8818   43.5754 H   0  0  0  0  0  0  0  0  0  0  0  0
   37.4541   32.9229   41.7738 H   0  0  0  0  0  0  0  0  0  0  0  0
   45.7272   34.3219   42.8489 H   0  0  0  0  0  0  0  0  0  0  0  0
   45.4011   32.7361   41.9660 H   0  0  0  0  0  0  0  0  0  0  0  0
   46.2728   35.1630   40.5041 H   0  0  0  0  0  0  0  0  0  0  0  0
   46.3962   33.3794   40.1113 H   0  0  0  0  0  0  0  0  0  0  0  0
   50.5273   31.9999   41.3832 H   0  0  0  0  0  0  0  0  0  0  0  0
   50.0687   35.8594   43.1485 H   0  0  0  0  0  0  0  0  0  0  0  0
   47.3633   30.6912   41.0250 H   0  0  0  0  0  0  0  0  0  0  0  0
  1  2  2  0
  1 14  1  0
  3  2  1  0
  4  3  1  0
  4  5  2  0
  5  1  1  0
  6 12  1  0
  7  4  1  0
  7  6  1  0
  8  9  1  0
  8  7  1  0
 10  9  1  0
 10 11  1  0
 11 13  1  0
 11  6  1  0
 15 16  1  0
 15 14  1  0
 16 21  1  0
 17 16  2  0
 17 18  1  0
 18 19  2  0
 19 20  1  0
 21 20  2  0
 22 17  1  0
  2 23  1  0
  6 24  1  1
  7 25  1  6
  8 26  1  0
  8 27  1  0
 10 28  1  0
 10 29  1  0
 11 30  1  1
 12 31  1  0
 13 32  1  0
 14 33  1  0
 14 34  1  0
 15 35  1  0
 15 36  1  0
 18 37  1  0
 20 38  1  0
 22 39  1  0
M  ISO  8  23  14  24  13  25  13  26  13  27  13  28  13  29  13  30  13
M  ISO  8  31   3  32   3  33   8  34   8  35   8  36   8  37  14  38  14
M  ISO  1  39  11
M  END
>  <minimizedAffinity>  (1) 
-5.37606335

>  <minimizedRMSD>  (1) 
2.58854604

$$$$
