
     RDKit          3D

 35 37  0  0  1  0  0  0  0  0999 V2000
   47.8840   34.3740   40.9700 C   0  0  1  0  0  0  0  0  0  0  0  0
   48.6450   35.6030   41.6050 C   0  0  0  0  0  0  0  0  0  0  0  0
   48.8830   34.2150   42.0210 C   0  0  2  0  0  0  0  0  0  0  0  0
   46.4330   34.3930   41.3020 C   0  0  0  0  0  0  0  0  0  0  0  0
   45.6430   34.1560   40.3930 O   0  0  0  0  0  0  0  0  0  0  0  0
   45.3600   35.8560   42.9480 C   0  0  0  0  0  0  0  0  0  0  0  0
   45.9030   34.6660   42.5990 C   0  0  0  0  0  0  0  0  0  0  0  0
   45.9340   33.6430   43.5860 C   0  0  0  0  0  0  0  0  0  0  0  0
   45.4350   33.8710   44.8240 N   0  0  0  0  0  0  0  0  0  0  0  0
   44.8990   35.0880   45.1270 C   0  0  0  0  0  0  0  0  0  0  0  0
   44.8660   36.0430   44.2160 N   0  0  0  0  0  0  0  0  0  0  0  0
   50.1590   33.7510   41.7210 O   0  0  0  0  0  0  0  0  0  0  0  0
   48.9390   31.8580   42.9820 O   0  0  0  0  0  0  0  0  0  0  0  0
   50.1940   32.1130   42.1770 P   0  0  2  0  0  0  0  0  0  0  0  0
   51.5670   31.6740   43.0060 O   0  0  0  0  0  0  0  0  0  0  0  0
   50.0060   31.1810   40.7380 O   0  0  0  0  0  0  0  0  0  0  0  0
   49.7370   32.0730   38.0440 F   0  0  0  0  0  0  0  0  0  0  0  0
   50.9850   31.7550   38.4580 C   0  0  0  0  0  0  0  0  0  0  0  0
   50.9840   31.3400   39.7720 C   0  0  0  0  0  0  0  0  0  0  0  0
   52.2150   30.9770   40.3380 C   0  0  0  0  0  0  0  0  0  0  0  0
   53.3980   31.0340   39.5940 C   0  0  0  0  0  0  0  0  0  0  0  0
   53.3750   31.4530   38.2810 C   0  0  0  0  0  0  0  0  0  0  0  0
   52.1580   31.8080   37.7380 C   0  0  0  0  0  0  0  0  0  0  0  0
   47.7451   33.8806   39.9967 H   0  0  0  0  0  0  0  0  0  0  0  0
   49.4035   36.1496   41.0254 H   0  0  0  0  0  0  0  0  0  0  0  0
   48.3616   36.5435   42.1001 H   0  0  0  0  0  0  0  0  0  0  0  0
   48.8281   33.6561   42.9669 H   0  0  0  0  0  0  0  0  0  0  0  0
   45.3143   36.6747   42.2148 H   0  0  0  0  0  0  0  0  0  0  0  0
   46.3657   32.6610   43.3426 H   0  0  0  0  0  0  0  0  0  0  0  0
   44.4934   35.2742   46.1324 H   0  0  0  0  0  0  0  0  0  0  0  0
   51.3963   31.7286   43.9796 H   0  0  0  0  0  0  0  0  0  0  0  0
   52.2506   30.6417   41.3851 H   0  0  0  0  0  0  0  0  0  0  0  0
   54.3515   30.7430   40.0590 H   0  0  0  0  0  0  0  0  0  0  0  0
   54.2983   31.5027   37.6851 H   0  0  0  0  0  0  0  0  0  0  0  0
   52.1228   32.1458   36.6917 H   0  0  0  0  0  0  0  0  0  0  0  0
  1  4  1  0
  1  2  1  0
  1  3  1  0
  2  3  1  0
  4  7  1  0
  5  4  2  0
  6 11  2  0
  7  6  1  0
  7  8  2  0
  8  9  1  0
  9 10  2  0
 11 10  1  0
 12  3  1  0
 12 14  1  0
 14 13  2  0
 14 15  1  0
 16 14  1  0
 17 18  1  0
 18 19  2  0
 19 20  1  0
 19 16  1  0
 21 20  2  0
 22 21  1  0
 23 22  2  0
 23 18  1  0
  1 24  1  6
  2 25  1  0
  2 26  1  0
  3 27  1  1
  6 28  1  0
  8 29  1  0
 10 30  1  0
 15 31  1  0
 20 32  1  0
 21 33  1  0
 22 34  1  0
 23 35  1  0
M  ISO  8  24  13  25  13  26  13  27  13  28  14  29  14  30  14  31   3
M  ISO  4  32  14  33  14  34  14  35  14
M  END
>  <minimizedAffinity>  (1) 
-5.03430843

>  <minimizedRMSD>  (1) 
1.07470441

$$$$
