
     RDKit          3D

 35 37  0  0  0  0  0  0  0  0999 V2000
   46.6170   34.7680   42.1520 C   0  0  0  0  0  0  0  0  0  0  0  0
   45.1640   34.9150   41.8680 C   0  0  0  0  0  0  0  0  0  0  0  0
   44.2710   35.4440   42.8540 C   0  0  0  0  0  0  0  0  0  0  0  0
   42.6420   35.4070   42.0030 S   0  0  0  0  0  0  0  0  0  0  0  0
   43.4560   34.6750   40.4440 C   0  0  0  0  0  0  0  0  0  0  0  0
   44.5500   34.5990   40.7500 N   0  0  0  0  0  0  0  0  0  0  0  0
   42.7380   34.3480   39.2480 N   0  0  0  0  0  0  0  0  0  0  0  0
   42.3290   33.0690   38.6990 C   0  0  0  0  0  0  0  0  0  0  0  0
   40.9330   33.3410   38.1250 C   0  0  0  0  0  0  0  0  0  0  0  0
   40.7690   34.8590   38.2250 C   0  0  0  0  0  0  0  0  0  0  0  0
   42.2340   35.2910   38.2660 C   0  0  0  0  0  0  0  0  0  0  0  0
   47.4810   34.6160   40.9540 C   0  0  0  0  0  0  0  0  0  0  0  0
   48.7230   33.8520   41.1970 C   0  0  0  0  0  0  0  0  0  0  0  0
   48.9580   32.7280   40.3930 C   0  0  0  0  0  0  0  0  0  0  0  0
   50.1070   31.9850   40.5880 C   0  0  0  0  0  0  0  0  0  0  0  0
   50.9690   32.3860   41.5660 N   0  0  0  0  0  0  0  0  0  0  0  0
   50.7170   33.4720   42.3250 C   0  0  0  0  0  0  0  0  0  0  0  0
   49.6060   34.1850   42.1320 N   0  0  0  0  0  0  0  0  0  0  0  0
   47.7640   32.2710   39.1220 S   0  0  0  0  0  0  0  0  0  0  0  0
   46.9491   35.6618   42.7004 H   0  0  0  0  0  0  0  0  0  0  0  0
   46.7239   33.8363   42.7269 H   0  0  0  0  0  0  0  0  0  0  0  0
   44.5031   35.7886   43.8725 H   0  0  0  0  0  0  0  0  0  0  0  0
   43.0206   32.7440   37.9078 H   0  0  0  0  0  0  0  0  0  0  0  0
   42.3285   32.2662   39.4510 H   0  0  0  0  0  0  0  0  0  0  0  0
   40.1618   32.8264   38.7170 H   0  0  0  0  0  0  0  0  0  0  0  0
   40.8255   32.9749   37.0933 H   0  0  0  0  0  0  0  0  0  0  0  0
   40.2479   35.2705   37.3480 H   0  0  0  0  0  0  0  0  0  0  0  0
   40.1645   35.2011   39.0780 H   0  0  0  0  0  0  0  0  0  0  0  0
   42.7251   35.1675   37.2895 H   0  0  0  0  0  0  0  0  0  0  0  0
   42.4016   36.3510   38.5076 H   0  0  0  0  0  0  0  0  0  0  0  0
   47.7571   35.6195   40.5980 H   0  0  0  0  0  0  0  0  0  0  0  0
   46.8990   34.0471   40.2140 H   0  0  0  0  0  0  0  0  0  0  0  0
   50.3197   31.0978   39.9735 H   0  0  0  0  0  0  0  0  0  0  0  0
   51.4307   33.7712   43.1067 H   0  0  0  0  0  0  0  0  0  0  0  0
   46.6111   31.8297   39.7160 H   0  0  0  0  0  0  0  0  0  0  0  0
  2  1  1  0
  2  3  2  0
  4  3  1  0
  5  6  2  0
  5  4  1  0
  6  2  1  0
  7  5  1  0
  8  7  1  0
  9 10  1  0
  9  8  1  0
 10 11  1  0
 11  7  1  0
 12 13  1  0
 12  1  1  0
 13 18  2  0
 14 15  2  0
 14 13  1  0
 15 16  1  0
 16 17  2  0
 18 17  1  0
 19 14  1  0
  1 20  1  0
  1 21  1  0
  3 22  1  0
  8 23  1  0
  8 24  1  0
  9 25  1  0
  9 26  1  0
 10 27  1  0
 10 28  1  0
 11 29  1  0
 11 30  1  0
 12 31  1  0
 12 32  1  0
 15 33  1  0
 17 34  1  0
 19 35  1  0
M  ISO  8  20   8  21   8  22  14  23  13  24  13  25  13  26  13  27  13
M  ISO  8  28  13  29  13  30  13  31   8  32   8  33  14  34  14  35  11
M  END
>  <minimizedAffinity>  (1) 
-4.72803879

>  <minimizedRMSD>  (1) 
1.41799259

$$$$
