
     RDKit          3D

 34 36  0  0  1  0  0  0  0  0999 V2000
   46.4780   34.7910   42.0860 C   0  0  0  0  0  0  0  0  0  0  0  0
   45.0480   34.8630   41.7080 C   0  0  0  0  0  0  0  0  0  0  0  0
   44.1040   35.5280   42.5510 C   0  0  0  0  0  0  0  0  0  0  0  0
   42.5180   35.3120   41.6090 S   0  0  0  0  0  0  0  0  0  0  0  0
   43.4280   34.3620   40.2480 C   0  0  0  0  0  0  0  0  0  0  0  0
   44.5090   34.3570   40.6220 N   0  0  0  0  0  0  0  0  0  0  0  0
   42.1940   36.0500   37.9170 O   0  0  0  0  0  0  0  0  0  0  0  0
   42.0180   34.8500   38.2660 C   0  0  0  0  0  0  0  0  0  0  0  0
   42.7230   33.8270   39.0500 C   0  0  2  0  0  0  0  0  0  0  0  0
   41.5840   32.9060   39.4410 C   0  0  0  0  0  0  0  0  0  0  0  0
   40.8650   32.8330   38.0990 C   0  0  0  0  0  0  0  0  0  0  0  0
   40.7890   34.2660   37.7870 N   0  0  0  0  0  0  0  0  0  0  0  0
   47.4360   34.6520   40.9570 C   0  0  0  0  0  0  0  0  0  0  0  0
   48.7100   33.9990   41.3360 C   0  0  0  0  0  0  0  0  0  0  0  0
   48.9880   32.7500   40.7550 C   0  0  0  0  0  0  0  0  0  0  0  0
   50.1570   32.0910   41.0670 C   0  0  0  0  0  0  0  0  0  0  0  0
   51.0180   32.6940   41.9500 N   0  0  0  0  0  0  0  0  0  0  0  0
   50.7230   33.8910   42.4870 C   0  0  0  0  0  0  0  0  0  0  0  0
   49.5870   34.5270   42.1820 N   0  0  0  0  0  0  0  0  0  0  0  0
   47.8140   32.0130   39.6040 S   0  0  0  0  0  0  0  0  0  0  0  0
   46.7302   35.7119   42.6322 H   0  0  0  0  0  0  0  0  0  0  0  0
   46.5846   33.8746   42.6850 H   0  0  0  0  0  0  0  0  0  0  0  0
   44.2736   36.0370   43.5113 H   0  0  0  0  0  0  0  0  0  0  0  0
   43.5348   33.3470   38.4838 H   0  0  0  0  0  0  0  0  0  0  0  0
   41.9449   31.9203   39.7697 H   0  0  0  0  0  0  0  0  0  0  0  0
   40.9705   33.2457   40.2885 H   0  0  0  0  0  0  0  0  0  0  0  0
   41.4502   32.2802   37.3494 H   0  0  0  0  0  0  0  0  0  0  0  0
   39.9002   32.3048   38.1127 H   0  0  0  0  0  0  0  0  0  0  0  0
   40.0131   34.7562   37.3195 H   0  0  0  0  0  0  0  0  0  0  0  0
   47.6623   35.6556   40.5676 H   0  0  0  0  0  0  0  0  0  0  0  0
   46.9559   34.0091   40.2046 H   0  0  0  0  0  0  0  0  0  0  0  0
   50.3929   31.1128   40.6227 H   0  0  0  0  0  0  0  0  0  0  0  0
   51.4295   34.3557   43.1905 H   0  0  0  0  0  0  0  0  0  0  0  0
   46.8176   31.3875   40.3060 H   0  0  0  0  0  0  0  0  0  0  0  0
  2  1  1  0
  2  3  2  0
  4  3  1  0
  5  6  2  0
  5  4  1  0
  6  2  1  0
  7  8  2  0
  8  9  1  0
  9 10  1  0
  9  5  1  0
 11 10  1  0
 12 11  1  0
 12  8  1  0
 13 14  1  0
 13  1  1  0
 14 19  2  0
 15 16  2  0
 15 14  1  0
 16 17  1  0
 17 18  2  0
 19 18  1  0
 20 15  1  0
  1 21  1  0
  1 22  1  0
  3 23  1  0
  9 24  1  6
 10 25  1  0
 10 26  1  0
 11 27  1  0
 11 28  1  0
 12 29  1  0
 13 30  1  0
 13 31  1  0
 16 32  1  0
 18 33  1  0
 20 34  1  0
M  ISO  8  21   8  22   8  23  14  24  13  25  13  26  13  27  13  28  13
M  ISO  6  29  10  30   8  31   8  32  14  33  14  34  11
M  END
>  <minimizedAffinity>  (1) 
-4.82682753

>  <minimizedRMSD>  (1) 
1.21633959

$$$$
