
     RDKit          3D

 25 26  0  0  0  0  0  0  0  0999 V2000
   46.6920   34.2450   40.7050 C   0  0  0  0  0  0  0  0  0  0  0  0
   48.0450   34.1870   41.3110 C   0  0  0  0  0  0  0  0  0  0  0  0
   48.7450   32.9870   41.1720 C   0  0  0  0  0  0  0  0  0  0  0  0
   50.0100   32.8540   41.7060 C   0  0  0  0  0  0  0  0  0  0  0  0
   50.5350   33.9410   42.3680 N   0  0  0  0  0  0  0  0  0  0  0  0
   49.8260   35.0850   42.4820 C   0  0  0  0  0  0  0  0  0  0  0  0
   48.6040   35.2020   41.9610 N   0  0  0  0  0  0  0  0  0  0  0  0
   47.9980   31.6000   40.2940 S   0  0  0  0  0  0  0  0  0  0  0  0
   45.6230   34.5970   41.6700 C   0  0  0  0  0  0  0  0  0  0  0  0
   44.2550   34.6650   41.1010 C   0  0  0  0  0  0  0  0  0  0  0  0
   43.2680   35.5340   41.6720 C   0  0  0  0  0  0  0  0  0  0  0  0
   41.7860   35.2160   40.5940 S   0  0  0  0  0  0  0  0  0  0  0  0
   42.7770   33.9740   39.5800 C   0  0  0  0  0  0  0  0  0  0  0  0
   43.8020   33.9850   40.0750 N   0  0  0  0  0  0  0  0  0  0  0  0
   42.0170   33.3390   38.4640 C   0  0  0  0  0  0  0  0  0  0  0  0
   40.9280   33.8150   38.0530 O   0  0  0  0  0  0  0  0  0  0  0  0
   46.7013   35.0006   39.9057 H   0  0  0  0  0  0  0  0  0  0  0  0
   46.4652   33.2374   40.3263 H   0  0  0  0  0  0  0  0  0  0  0  0
   50.5768   31.9165   41.6068 H   0  0  0  0  0  0  0  0  0  0  0  0
   50.2665   35.9394   43.0167 H   0  0  0  0  0  0  0  0  0  0  0  0
   47.5107   30.6952   41.1999 H   0  0  0  0  0  0  0  0  0  0  0  0
   45.6223   33.8399   42.4680 H   0  0  0  0  0  0  0  0  0  0  0  0
   45.8558   35.6113   42.0264 H   0  0  0  0  0  0  0  0  0  0  0  0
   43.3630   36.2158   42.5300 H   0  0  0  0  0  0  0  0  0  0  0  0
   42.4192   32.4320   37.9890 H   0  0  0  0  0  0  0  0  0  0  0  0
  1  2  1  0
  1  9  1  0
  2  7  1  0
  3  2  2  0
  3  4  1  0
  4  5  2  0
  5  6  1  0
  7  6  2  0
  8  3  1  0
 10  9  1  0
 10 11  2  0
 12 11  1  0
 13 14  2  0
 13 12  1  0
 14 10  1  0
 15 13  1  0
 16 15  2  0
  1 17  1  0
  1 18  1  0
  4 19  1  0
  6 20  1  0
  8 21  1  0
  9 22  1  0
  9 23  1  0
 11 24  1  0
 15 25  1  0
M  ISO  8  17   8  18   8  19  14  20  14  21  11  22   8  23   8  24  14
M  ISO  1  25   6
M  END
>  <minimizedAffinity>  (1) 
-3.87528443

>  <minimizedRMSD>  (1) 
0.101571821

$$$$
