
     RDKit          3D

 26 27  0  0  0  0  0  0  0  0999 V2000
   46.6910   34.2300   40.6860 C   0  0  0  0  0  0  0  0  0  0  0  0
   48.0430   34.1740   41.2990 C   0  0  0  0  0  0  0  0  0  0  0  0
   48.7450   32.9580   41.1630 C   0  0  0  0  0  0  0  0  0  0  0  0
   50.0000   32.8840   41.7240 C   0  0  0  0  0  0  0  0  0  0  0  0
   50.5200   33.9660   42.3820 N   0  0  0  0  0  0  0  0  0  0  0  0
   49.8210   35.0960   42.4860 C   0  0  0  0  0  0  0  0  0  0  0  0
   48.6000   35.1890   41.9480 N   0  0  0  0  0  0  0  0  0  0  0  0
   48.0150   31.5830   40.2940 S   0  0  0  0  0  0  0  0  0  0  0  0
   45.6160   34.5940   41.6460 C   0  0  0  0  0  0  0  0  0  0  0  0
   44.2530   34.6400   41.0730 C   0  0  0  0  0  0  0  0  0  0  0  0
   43.2610   35.5310   41.6020 C   0  0  0  0  0  0  0  0  0  0  0  0
   41.7880   35.1690   40.5290 S   0  0  0  0  0  0  0  0  0  0  0  0
   42.7830   33.8850   39.5680 C   0  0  0  0  0  0  0  0  0  0  0  0
   43.8050   33.9190   40.0710 N   0  0  0  0  0  0  0  0  0  0  0  0
   42.1870   33.1070   38.4370 C   0  0  0  0  0  0  0  0  0  0  0  0
   46.7055   34.9786   39.8801 H   0  0  0  0  0  0  0  0  0  0  0  0
   46.4633   33.2197   40.3152 H   0  0  0  0  0  0  0  0  0  0  0  0
   50.5848   31.9558   41.6436 H   0  0  0  0  0  0  0  0  0  0  0  0
   50.2510   35.9576   43.0177 H   0  0  0  0  0  0  0  0  0  0  0  0
   47.5328   30.6748   41.1993 H   0  0  0  0  0  0  0  0  0  0  0  0
   45.6193   33.8527   42.4586 H   0  0  0  0  0  0  0  0  0  0  0  0
   45.8408   35.6161   41.9849 H   0  0  0  0  0  0  0  0  0  0  0  0
   43.3499   36.2470   42.4323 H   0  0  0  0  0  0  0  0  0  0  0  0
   41.5643   32.2942   38.8391 H   0  0  0  0  0  0  0  0  0  0  0  0
   41.5663   33.7737   37.8203 H   0  0  0  0  0  0  0  0  0  0  0  0
   42.9923   32.6813   37.8203 H   0  0  0  0  0  0  0  0  0  0  0  0
  1  2  1  0
  1  9  1  0
  2  7  1  0
  3  2  2  0
  3  4  1  0
  4  5  2  0
  5  6  1  0
  7  6  2  0
  8  3  1  0
 10 11  2  0
 10  9  1  0
 12 11  1  0
 13 14  2  0
 13 12  1  0
 14 10  1  0
 15 13  1  0
  1 16  1  0
  1 17  1  0
  4 18  1  0
  6 19  1  0
  8 20  1  0
  9 21  1  0
  9 22  1  0
 11 23  1  0
 15 24  1  0
 15 25  1  0
 15 26  1  0
M  ISO  8  16   8  17   8  18  14  19  14  20  11  21   8  22   8  23  14
M  ISO  3  24   8  25   8  26   8
M  END
>  <minimizedAffinity>  (1) 
-3.81750822

>  <minimizedRMSD>  (1) 
0.128890961

$$$$
