
     RDKit          3D

 28 29  0  0  1  0  0  0  0  0999 V2000
   48.1800   34.4880   41.2220 C   0  0  1  0  0  0  0  0  0  0  0  0
   48.8710   35.8260   41.7000 C   0  0  0  0  0  0  0  0  0  0  0  0
   49.0940   34.5350   42.3580 C   0  0  2  0  0  0  0  0  0  0  0  0
   46.7090   34.5290   41.4330 C   0  0  0  0  0  0  0  0  0  0  0  0
   45.9930   34.3300   40.4590 O   0  0  0  0  0  0  0  0  0  0  0  0
   45.4200   35.9290   42.9730 C   0  0  0  0  0  0  0  0  0  0  0  0
   46.0760   34.7790   42.6900 C   0  0  0  0  0  0  0  0  0  0  0  0
   46.1230   33.7830   43.7020 C   0  0  0  0  0  0  0  0  0  0  0  0
   45.5270   33.9960   44.8960 N   0  0  0  0  0  0  0  0  0  0  0  0
   44.8780   35.1710   45.1350 C   0  0  0  0  0  0  0  0  0  0  0  0
   44.8300   36.1020   44.1980 N   0  0  0  0  0  0  0  0  0  0  0  0
   50.3950   34.0580   42.2390 O   0  0  0  0  0  0  0  0  0  0  0  0
   49.0020   31.9860   42.8860 O   0  0  0  0  0  0  0  0  0  0  0  0
   50.2870   32.3660   42.1870 P   0  0  2  0  0  0  0  0  0  0  0  0
   51.6100   31.6000   42.8420 O   0  0  0  0  0  0  0  0  0  0  0  0
   50.0390   31.9060   40.5390 O   0  0  0  0  0  0  0  0  0  0  0  0
   51.3110   31.4370   40.1440 C   0  0  0  0  0  0  0  0  0  0  0  0
   52.3060   32.2190   40.6920 F   0  0  0  0  0  0  0  0  0  0  0  0
   51.4840   30.1020   40.3600 F   0  0  0  0  0  0  0  0  0  0  0  0
   51.3890   31.6620   38.7630 F   0  0  0  0  0  0  0  0  0  0  0  0
   48.1263   33.8338   40.3393 H   0  0  0  0  0  0  0  0  0  0  0  0
   49.6658   36.2896   41.0973 H   0  0  0  0  0  0  0  0  0  0  0  0
   48.5357   36.8274   42.0080 H   0  0  0  0  0  0  0  0  0  0  0  0
   48.9722   34.1423   43.3783 H   0  0  0  0  0  0  0  0  0  0  0  0
   45.3603   36.7266   42.2178 H   0  0  0  0  0  0  0  0  0  0  0  0
   46.6468   32.8344   43.5129 H   0  0  0  0  0  0  0  0  0  0  0  0
   44.3943   35.3442   46.1077 H   0  0  0  0  0  0  0  0  0  0  0  0
   51.5544   31.6322   43.8299 H   0  0  0  0  0  0  0  0  0  0  0  0
  1  4  1  0
  1  2  1  0
  1  3  1  0
  2  3  1  0
  4  7  1  0
  5  4  2  0
  6 11  2  0
  7  6  1  0
  7  8  2  0
  8  9  1  0
  9 10  2  0
 11 10  1  0
 12  3  1  0
 14 12  1  0
 14 15  1  0
 14 13  2  0
 16 14  1  0
 17 19  1  0
 17 16  1  0
 17 18  1  0
 20 17  1  0
  1 21  1  6
  2 22  1  0
  2 23  1  0
  3 24  1  1
  6 25  1  0
  8 26  1  0
 10 27  1  0
 15 28  1  0
M  ISO  8  21  13  22  13  23  13  24  13  25  14  26  14  27  14  28   3
M  END
>  <minimizedAffinity>  (1) 
-4.86389542

>  <minimizedRMSD>  (1) 
0.864678323

$$$$
