
     RDKit          3D

 39 41  0  0  0  0  0  0  0  0999 V2000
   48.7140   33.8970   41.1650 C   0  0  0  0  0  0  0  0  0  0  0  0
   48.9580   32.7550   40.4020 C   0  0  0  0  0  0  0  0  0  0  0  0
   50.0970   31.9880   40.6310 C   0  0  0  0  0  0  0  0  0  0  0  0
   50.9470   32.3950   41.6130 N   0  0  0  0  0  0  0  0  0  0  0  0
   50.6770   33.5110   42.3350 C   0  0  0  0  0  0  0  0  0  0  0  0
   49.5850   34.2240   42.0960 N   0  0  0  0  0  0  0  0  0  0  0  0
   47.4920   34.6490   40.8610 C   0  0  0  0  0  0  0  0  0  0  0  0
   46.6590   34.9420   42.0680 C   0  0  0  0  0  0  0  0  0  0  0  0
   45.1930   34.9250   41.8060 C   0  0  0  0  0  0  0  0  0  0  0  0
   44.3070   35.5250   42.7530 C   0  0  0  0  0  0  0  0  0  0  0  0
   42.6520   35.2490   41.9950 S   0  0  0  0  0  0  0  0  0  0  0  0
   43.4500   34.3620   40.5150 C   0  0  0  0  0  0  0  0  0  0  0  0
   44.5550   34.4160   40.7870 N   0  0  0  0  0  0  0  0  0  0  0  0
   42.7060   33.8430   39.4610 O   0  0  0  0  0  0  0  0  0  0  0  0
   40.7030   34.1480   37.7620 O   0  0  0  0  0  0  0  0  0  0  0  0
   41.7520   34.9180   38.5550 P   0  0  0  0  0  0  0  0  0  0  0  0
   40.9720   35.9600   39.6480 O   0  0  0  0  0  0  0  0  0  0  0  0
   42.7410   35.8460   37.5480 O   0  0  0  0  0  0  0  0  0  0  0  0
   47.8010   32.2560   39.1130 S   0  0  0  0  0  0  0  0  0  0  0  0
   45.1110   31.8120   37.4260 Cl  0  0  0  0  0  0  0  0  0  0  0  0
   45.1650   31.2810   39.0930 C   0  0  0  0  0  0  0  0  0  0  0  0
   46.3390   31.4890   39.7880 C   0  0  0  0  0  0  0  0  0  0  0  0
   46.4300   31.0880   41.1050 C   0  0  0  0  0  0  0  0  0  0  0  0
   45.3840   30.4830   41.7560 C   0  0  0  0  0  0  0  0  0  0  0  0
   44.1870   30.2660   41.0670 C   0  0  0  0  0  0  0  0  0  0  0  0
   44.1200   30.6750   39.7550 C   0  0  0  0  0  0  0  0  0  0  0  0
   42.6400   30.4170   38.8660 Cl  0  0  0  0  0  0  0  0  0  0  0  0
   50.3029   31.0842   40.0387 H   0  0  0  0  0  0  0  0  0  0  0  0
   51.3713   33.8279   43.1272 H   0  0  0  0  0  0  0  0  0  0  0  0
   47.7770   35.6033   40.3940 H   0  0  0  0  0  0  0  0  0  0  0  0
   46.8840   34.0234   40.1910 H   0  0  0  0  0  0  0  0  0  0  0  0
   46.8828   34.1864   42.8354 H   0  0  0  0  0  0  0  0  0  0  0  0
   46.9142   35.9614   42.3932 H   0  0  0  0  0  0  0  0  0  0  0  0
   44.5528   36.0273   43.7002 H   0  0  0  0  0  0  0  0  0  0  0  0
   41.1803   35.6818   40.5750 H   0  0  0  0  0  0  0  0  0  0  0  0
   43.3400   36.4080   38.1007 H   0  0  0  0  0  0  0  0  0  0  0  0
   47.3700   31.2584   41.6502 H   0  0  0  0  0  0  0  0  0  0  0  0
   45.4862   30.1728   42.8064 H   0  0  0  0  0  0  0  0  0  0  0  0
   43.3279   29.7846   41.5572 H   0  0  0  0  0  0  0  0  0  0  0  0
  1  6  2  0
  2  3  2  0
  2  1  1  0
  3  4  1  0
  4  5  2  0
  6  5  1  0
  7  1  1  0
  7  8  1  0
  9  8  1  0
  9 10  2  0
 11 10  1  0
 12 13  2  0
 12 11  1  0
 13  9  1  0
 14 12  1  0
 15 16  2  0
 16 14  1  0
 16 17  1  0
 18 16  1  0
 19 22  1  0
 19  2  1  0
 20 21  1  0
 21 26  2  0
 21 22  1  0
 22 23  2  0
 23 24  1  0
 25 24  2  0
 26 25  1  0
 27 26  1  0
  3 28  1  0
  5 29  1  0
  7 30  1  0
  7 31  1  0
  8 32  1  0
  8 33  1  0
 10 34  1  0
 17 35  1  0
 18 36  1  0
 23 37  1  0
 24 38  1  0
 25 39  1  0
M  ISO  8  28  14  29  14  30   8  31   8  32   8  33   8  34  14  35   3
M  ISO  4  36   3  37  14  38  14  39  14
M  END
>  <minimizedAffinity>  (1) 
-4.59054852

>  <minimizedRMSD>  (1) 
1.58437908

$$$$
