
     RDKit          3D

 35 36  0  0  0  0  0  0  0  0999 V2000
   46.6590   34.9080   42.0310 C   0  0  0  0  0  0  0  0  0  0  0  0
   45.1870   34.9060   41.7990 C   0  0  0  0  0  0  0  0  0  0  0  0
   44.3180   35.5390   42.7380 C   0  0  0  0  0  0  0  0  0  0  0  0
   42.6510   35.2670   42.0140 S   0  0  0  0  0  0  0  0  0  0  0  0
   43.4180   34.3330   40.5490 C   0  0  0  0  0  0  0  0  0  0  0  0
   44.5310   34.3800   40.8030 N   0  0  0  0  0  0  0  0  0  0  0  0
   42.6560   33.7930   39.5140 O   0  0  0  0  0  0  0  0  0  0  0  0
   40.6890   34.1180   37.7630 O   0  0  0  0  0  0  0  0  0  0  0  0
   41.7400   34.8740   38.5720 P   0  0  0  0  0  0  0  0  0  0  0  0
   40.9450   35.9440   39.6290 O   0  0  0  0  0  0  0  0  0  0  0  0
   42.7610   35.7800   37.5720 O   0  0  0  0  0  0  0  0  0  0  0  0
   47.4590   34.5680   40.8130 C   0  0  0  0  0  0  0  0  0  0  0  0
   48.7070   33.8420   41.1300 C   0  0  0  0  0  0  0  0  0  0  0  0
   49.0260   32.7830   40.2940 C   0  0  0  0  0  0  0  0  0  0  0  0
   50.1720   32.0310   40.4930 C   0  0  0  0  0  0  0  0  0  0  0  0
   50.9700   32.3900   41.5590 N   0  0  0  0  0  0  0  0  0  0  0  0
   50.6170   33.4390   42.3560 C   0  0  0  0  0  0  0  0  0  0  0  0
   49.5160   34.1340   42.1340 N   0  0  0  0  0  0  0  0  0  0  0  0
   47.9520   32.3520   38.9140 S   0  0  0  0  0  0  0  0  0  0  0  0
   48.6260   32.9970   37.3710 C   0  0  0  0  0  0  0  0  0  0  0  0
   48.3050   34.4630   37.2810 C   0  0  0  0  0  0  0  0  0  0  0  0
   46.9556   35.9106   42.3729 H   0  0  0  0  0  0  0  0  0  0  0  0
   46.8679   34.1308   42.7809 H   0  0  0  0  0  0  0  0  0  0  0  0
   44.5820   36.0624   43.6688 H   0  0  0  0  0  0  0  0  0  0  0  0
   41.1367   35.6861   40.5654 H   0  0  0  0  0  0  0  0  0  0  0  0
   43.3727   36.3228   38.1299 H   0  0  0  0  0  0  0  0  0  0  0  0
   47.7183   35.5011   40.2914 H   0  0  0  0  0  0  0  0  0  0  0  0
   46.8422   33.9072   40.1862 H   0  0  0  0  0  0  0  0  0  0  0  0
   50.4326   31.1897   39.8339 H   0  0  0  0  0  0  0  0  0  0  0  0
   51.2638   33.7124   43.2027 H   0  0  0  0  0  0  0  0  0  0  0  0
   49.7167   32.8552   37.3555 H   0  0  0  0  0  0  0  0  0  0  0  0
   48.1842   32.4632   36.5166 H   0  0  0  0  0  0  0  0  0  0  0  0
   48.2134   34.8812   38.2943 H   0  0  0  0  0  0  0  0  0  0  0  0
   49.1107   34.9823   36.7414 H   0  0  0  0  0  0  0  0  0  0  0  0
   47.3560   34.5981   36.7414 H   0  0  0  0  0  0  0  0  0  0  0  0
  2  1  1  0
  2  3  2  0
  4  3  1  0
  5  6  2  0
  5  4  1  0
  6  2  1  0
  7  5  1  0
  8  9  2  0
  9  7  1  0
  9 10  1  0
 11  9  1  0
 12 13  1  0
 12  1  1  0
 13 18  2  0
 14 15  2  0
 14 13  1  0
 15 16  1  0
 16 17  2  0
 18 17  1  0
 19 14  1  0
 20 19  1  0
 21 20  1  0
  1 22  1  0
  1 23  1  0
  3 24  1  0
 10 25  1  0
 11 26  1  0
 12 27  1  0
 12 28  1  0
 15 29  1  0
 17 30  1  0
 20 31  1  0
 20 32  1  0
 21 33  1  0
 21 34  1  0
 21 35  1  0
M  ISO  8  22   8  23   8  24  14  25   3  26   3  27   8  28   8  29  14
M  ISO  6  30  14  31   8  32   8  33   8  34   8  35   8
M  END
>  <minimizedAffinity>  (1) 
-4.70342207

>  <minimizedRMSD>  (1) 
0.621012986

$$$$
