
     RDKit          3D

 27 28  0  0  1  0  0  0  0  0999 V2000
   48.2300   34.5590   41.2280 C   0  0  1  0  0  0  0  0  0  0  0  0
   48.8760   35.9060   41.7440 C   0  0  0  0  0  0  0  0  0  0  0  0
   49.1350   34.6030   42.3720 C   0  0  2  0  0  0  0  0  0  0  0  0
   46.7540   34.5410   41.4340 C   0  0  0  0  0  0  0  0  0  0  0  0
   46.0500   34.3040   40.4620 O   0  0  0  0  0  0  0  0  0  0  0  0
   45.4230   35.9100   42.9660 C   0  0  0  0  0  0  0  0  0  0  0  0
   46.1090   34.7770   42.6850 C   0  0  0  0  0  0  0  0  0  0  0  0
   46.1790   33.7850   43.7040 C   0  0  0  0  0  0  0  0  0  0  0  0
   45.5750   33.9890   44.8990 N   0  0  0  0  0  0  0  0  0  0  0  0
   44.8980   35.1500   45.1250 C   0  0  0  0  0  0  0  0  0  0  0  0
   44.8240   36.0790   44.1900 N   0  0  0  0  0  0  0  0  0  0  0  0
   50.4520   34.1740   42.2440 O   0  0  0  0  0  0  0  0  0  0  0  0
   49.0940   32.0520   42.8040 O   0  0  0  0  0  0  0  0  0  0  0  0
   50.4030   32.4760   42.1650 P   0  0  2  0  0  0  0  0  0  0  0  0
   51.7160   31.7380   42.8720 O   0  0  0  0  0  0  0  0  0  0  0  0
   50.2460   32.0420   40.5030 O   0  0  0  0  0  0  0  0  0  0  0  0
   51.2620   31.4340   39.7920 C   0  0  0  0  0  0  0  0  0  0  0  0
   52.4870   31.6140   40.0560 O   0  0  0  0  0  0  0  0  0  0  0  0
   48.2022   33.9302   40.3259 H   0  0  0  0  0  0  0  0  0  0  0  0
   49.6598   36.4091   41.1587 H   0  0  0  0  0  0  0  0  0  0  0  0
   48.5080   36.8885   42.0745 H   0  0  0  0  0  0  0  0  0  0  0  0
   49.0186   34.1789   43.3803 H   0  0  0  0  0  0  0  0  0  0  0  0
   45.3448   36.7023   42.2069 H   0  0  0  0  0  0  0  0  0  0  0  0
   46.7261   32.8487   43.5199 H   0  0  0  0  0  0  0  0  0  0  0  0
   44.4084   35.3146   46.0962 H   0  0  0  0  0  0  0  0  0  0  0  0
   51.6307   31.7860   43.8571 H   0  0  0  0  0  0  0  0  0  0  0  0
   50.9954   30.7647   38.9608 H   0  0  0  0  0  0  0  0  0  0  0  0
  1  4  1  0
  1  2  1  0
  1  3  1  0
  2  3  1  0
  4  7  1  0
  5  4  2  0
  6 11  2  0
  7  6  1  0
  7  8  2  0
  8  9  1  0
  9 10  2  0
 11 10  1  0
 12  3  1  0
 14 12  1  0
 14 13  2  0
 14 15  1  0
 16 14  1  0
 17 18  2  0
 17 16  1  0
  1 19  1  6
  2 20  1  0
  2 21  1  0
  3 22  1  1
  6 23  1  0
  8 24  1  0
 10 25  1  0
 15 26  1  0
 17 27  1  0
M  ISO  8  19  13  20  13  21  13  22  13  23  14  24  14  25  14  26   3
M  ISO  1  27   6
M  END
>  <minimizedAffinity>  (1) 
-4.67341661

>  <minimizedRMSD>  (1) 
0.39534542

$$$$
