
     RDKit          3D

 31 32  0  0  1  0  0  0  0  0999 V2000
   48.1960   34.5640   41.2410 C   0  0  1  0  0  0  0  0  0  0  0  0
   48.8440   35.9210   41.7230 C   0  0  0  0  0  0  0  0  0  0  0  0
   49.1100   34.6340   42.3750 C   0  0  2  0  0  0  0  0  0  0  0  0
   46.7230   34.5540   41.4550 C   0  0  0  0  0  0  0  0  0  0  0  0
   46.0150   34.3180   40.4810 O   0  0  0  0  0  0  0  0  0  0  0  0
   45.3960   35.9250   42.9920 C   0  0  0  0  0  0  0  0  0  0  0  0
   46.0850   34.7960   42.7070 C   0  0  0  0  0  0  0  0  0  0  0  0
   46.1610   33.8040   43.7260 C   0  0  0  0  0  0  0  0  0  0  0  0
   45.5620   34.0020   44.9220 N   0  0  0  0  0  0  0  0  0  0  0  0
   44.8760   35.1600   45.1600 C   0  0  0  0  0  0  0  0  0  0  0  0
   44.8040   36.0840   44.2140 N   0  0  0  0  0  0  0  0  0  0  0  0
   50.4250   34.2010   42.2500 O   0  0  0  0  0  0  0  0  0  0  0  0
   49.1150   32.0690   42.8780 O   0  0  0  0  0  0  0  0  0  0  0  0
   50.3730   32.5060   42.1510 P   0  0  2  0  0  0  0  0  0  0  0  0
   51.7320   31.7560   42.7480 O   0  0  0  0  0  0  0  0  0  0  0  0
   50.0940   32.1060   40.4980 O   0  0  0  0  0  0  0  0  0  0  0  0
   51.1510   31.4390   39.9400 C   0  0  0  0  0  0  0  0  0  0  0  0
   50.9440   31.4830   38.4190 C   0  0  0  0  0  0  0  0  0  0  0  0
   48.1616   33.9133   40.3547 H   0  0  0  0  0  0  0  0  0  0  0  0
   49.6221   36.4127   41.1207 H   0  0  0  0  0  0  0  0  0  0  0  0
   48.4773   36.9097   42.0361 H   0  0  0  0  0  0  0  0  0  0  0  0
   49.0030   34.2321   43.3934 H   0  0  0  0  0  0  0  0  0  0  0  0
   45.3117   36.7196   42.2360 H   0  0  0  0  0  0  0  0  0  0  0  0
   46.7110   32.8699   43.5388 H   0  0  0  0  0  0  0  0  0  0  0  0
   44.3866   35.3235   46.1315 H   0  0  0  0  0  0  0  0  0  0  0  0
   51.7083   31.7691   43.7376 H   0  0  0  0  0  0  0  0  0  0  0  0
   52.0963   31.9332   40.2088 H   0  0  0  0  0  0  0  0  0  0  0  0
   51.2023   30.4021   40.3035 H   0  0  0  0  0  0  0  0  0  0  0  0
   49.8898   31.7071   38.1988 H   0  0  0  0  0  0  0  0  0  0  0  0
   51.5837   32.2652   37.9844 H   0  0  0  0  0  0  0  0  0  0  0  0
   51.2102   30.5082   37.9844 H   0  0  0  0  0  0  0  0  0  0  0  0
  1  4  1  0
  1  2  1  0
  1  3  1  0
  2  3  1  0
  4  7  1  0
  5  4  2  0
  6 11  2  0
  7  6  1  0
  7  8  2  0
  8  9  1  0
  9 10  2  0
 11 10  1  0
 12  3  1  0
 14 12  1  0
 14 15  1  0
 14 13  2  0
 16 14  1  0
 17 16  1  0
 18 17  1  0
  1 19  1  6
  2 20  1  0
  2 21  1  0
  3 22  1  1
  6 23  1  0
  8 24  1  0
 10 25  1  0
 15 26  1  0
 17 27  1  0
 17 28  1  0
 18 29  1  0
 18 30  1  0
 18 31  1  0
M  ISO  8  19  13  20  13  21  13  22  13  23  14  24  14  25  14  26   3
M  ISO  5  27   8  28   8  29   8  30   8  31   8
M  END
>  <minimizedAffinity>  (1) 
-4.64493895

>  <minimizedRMSD>  (1) 
0.205310106

$$$$
