
     RDKit          3D

 28 29  0  0  1  0  0  0  0  0999 V2000
   48.1910   34.5890   41.2430 C   0  0  1  0  0  0  0  0  0  0  0  0
   48.8330   35.9330   41.7700 C   0  0  0  0  0  0  0  0  0  0  0  0
   49.1040   34.6250   42.3790 C   0  0  2  0  0  0  0  0  0  0  0  0
   46.7190   34.5630   41.4570 C   0  0  0  0  0  0  0  0  0  0  0  0
   46.0070   34.3220   40.4920 O   0  0  0  0  0  0  0  0  0  0  0  0
   45.3850   35.9250   42.9950 C   0  0  0  0  0  0  0  0  0  0  0  0
   46.0810   34.7980   42.7160 C   0  0  0  0  0  0  0  0  0  0  0  0
   46.1630   33.8160   43.7380 C   0  0  0  0  0  0  0  0  0  0  0  0
   45.5670   34.0130   44.9320 N   0  0  0  0  0  0  0  0  0  0  0  0
   44.8750   35.1670   45.1660 C   0  0  0  0  0  0  0  0  0  0  0  0
   44.7930   36.0870   44.2220 N   0  0  0  0  0  0  0  0  0  0  0  0
   50.4220   34.2040   42.2460 O   0  0  0  0  0  0  0  0  0  0  0  0
   49.1100   32.0620   42.8390 O   0  0  0  0  0  0  0  0  0  0  0  0
   50.3780   32.5060   42.1380 P   0  0  2  0  0  0  0  0  0  0  0  0
   51.7270   31.7630   42.7670 O   0  0  0  0  0  0  0  0  0  0  0  0
   50.1380   32.1110   40.4810 O   0  0  0  0  0  0  0  0  0  0  0  0
   49.1720   31.1210   40.3430 C   0  0  0  0  0  0  0  0  0  0  0  0
   48.1598   33.9690   40.3349 H   0  0  0  0  0  0  0  0  0  0  0  0
   49.6092   36.4478   41.1848 H   0  0  0  0  0  0  0  0  0  0  0  0
   48.4621   36.9092   42.1155 H   0  0  0  0  0  0  0  0  0  0  0  0
   48.9972   34.1867   43.3823 H   0  0  0  0  0  0  0  0  0  0  0  0
   45.2937   36.7145   42.2345 H   0  0  0  0  0  0  0  0  0  0  0  0
   46.7185   32.8845   43.5542 H   0  0  0  0  0  0  0  0  0  0  0  0
   44.3871   35.3298   46.1384 H   0  0  0  0  0  0  0  0  0  0  0  0
   51.6855   31.7859   43.7559 H   0  0  0  0  0  0  0  0  0  0  0  0
   48.8453   30.7862   41.3386 H   0  0  0  0  0  0  0  0  0  0  0  0
   48.3103   31.5240   39.7906 H   0  0  0  0  0  0  0  0  0  0  0  0
   49.5960   30.2695   39.7906 H   0  0  0  0  0  0  0  0  0  0  0  0
  1  4  1  0
  1  2  1  0
  1  3  1  0
  2  3  1  0
  4  7  1  0
  5  4  2  0
  6 11  2  0
  7  6  1  0
  7  8  2  0
  8  9  1  0
  9 10  2  0
 11 10  1  0
 12  3  1  0
 14 12  1  0
 14 15  1  0
 14 13  2  0
 16 14  1  0
 17 16  1  0
  1 18  1  6
  2 19  1  0
  2 20  1  0
  3 21  1  1
  6 22  1  0
  8 23  1  0
 10 24  1  0
 15 25  1  0
 17 26  1  0
 17 27  1  0
 17 28  1  0
M  ISO  8  18  13  19  13  20  13  21  13  22  14  23  14  24  14  25   3
M  ISO  3  26   8  27   8  28   8
M  END
>  <minimizedAffinity>  (1) 
-4.63110924

>  <minimizedRMSD>  (1) 
0.165537134

$$$$
