
     RDKit          3D

 36 38  0  0  1  0  0  0  0  0999 V2000
   46.8760   34.9420   42.0940 C   0  0  2  0  0  0  0  0  0  0  0  0
   46.2570   34.2080   40.9560 C   0  0  0  0  0  0  0  0  0  0  0  0
   47.4540   34.0690   40.0270 C   0  0  0  0  0  0  0  0  0  0  0  0
   48.6640   34.0850   40.9130 C   0  0  1  0  0  0  0  0  0  0  0  0
   48.1230   34.0820   42.3420 C   0  0  0  0  0  0  0  0  0  0  0  0
   44.4270   36.0570   44.7370 C   0  0  0  0  0  0  0  0  0  0  0  0
   45.1390   36.0770   43.5430 C   0  0  0  0  0  0  0  0  0  0  0  0
   46.0570   35.0610   43.3100 C   0  0  0  0  0  0  0  0  0  0  0  0
   46.2060   34.0910   44.2790 N   0  0  0  0  0  0  0  0  0  0  0  0
   45.5000   34.1040   45.4230 C   0  0  0  0  0  0  0  0  0  0  0  0
   44.6130   35.0750   45.6630 N   0  0  0  0  0  0  0  0  0  0  0  0
   49.5110   32.8430   40.7560 C   0  0  0  0  0  0  0  0  0  0  0  0
   49.2470   31.8240   41.8120 C   0  0  0  0  0  0  0  0  0  0  0  0
   48.4410   30.7140   41.1590 C   0  0  0  0  0  0  0  0  0  0  0  0
   49.1310   30.6420   39.7920 C   0  0  0  0  0  0  0  0  0  0  0  0
   49.2340   32.1300   39.4620 C   0  0  0  0  0  0  0  0  0  0  0  0
   47.0503   36.0004   41.8502 H   0  0  0  0  0  0  0  0  0  0  0  0
   45.8703   33.2268   41.2686 H   0  0  0  0  0  0  0  0  0  0  0  0
   45.3866   34.7096   40.5080 H   0  0  0  0  0  0  0  0  0  0  0  0
   47.4877   34.9090   39.3176 H   0  0  0  0  0  0  0  0  0  0  0  0
   47.3998   33.1448   39.4330 H   0  0  0  0  0  0  0  0  0  0  0  0
   49.2897   34.9543   40.6623 H   0  0  0  0  0  0  0  0  0  0  0  0
   48.8191   34.5510   43.0530 H   0  0  0  0  0  0  0  0  0  0  0  0
   47.9486   33.0937   42.7923 H   0  0  0  0  0  0  0  0  0  0  0  0
   43.6956   36.8534   44.9390 H   0  0  0  0  0  0  0  0  0  0  0  0
   44.9797   36.8754   42.8033 H   0  0  0  0  0  0  0  0  0  0  0  0
   45.6534   33.3091   46.1677 H   0  0  0  0  0  0  0  0  0  0  0  0
   50.5432   33.2193   40.8106 H   0  0  0  0  0  0  0  0  0  0  0  0
   50.1962   31.4253   42.1993 H   0  0  0  0  0  0  0  0  0  0  0  0
   48.6988   32.2648   42.6577 H   0  0  0  0  0  0  0  0  0  0  0  0
   48.5314   29.7667   41.7109 H   0  0  0  0  0  0  0  0  0  0  0  0
   47.3568   30.8951   41.1184 H   0  0  0  0  0  0  0  0  0  0  0  0
   50.1224   30.1704   39.8605 H   0  0  0  0  0  0  0  0  0  0  0  0
   48.6023   30.0382   39.0397 H   0  0  0  0  0  0  0  0  0  0  0  0
   50.0545   32.3043   38.7503 H   0  0  0  0  0  0  0  0  0  0  0  0
   48.3059   32.4972   38.9995 H   0  0  0  0  0  0  0  0  0  0  0  0
  1  5  1  0
  1  8  1  0
  2  1  1  0
  3  4  1  0
  3  2  1  0
  4  5  1  0
  6 11  2  0
  7  6  1  0
  8  7  2  0
  8  9  1  0
  9 10  2  0
 10 11  1  0
 12  4  1  0
 12 13  1  0
 14 13  1  0
 15 14  1  0
 16 15  1  0
 16 12  1  0
  1 17  1  6
  2 18  1  0
  2 19  1  0
  3 20  1  0
  3 21  1  0
  4 22  1  6
  5 23  1  0
  5 24  1  0
  6 25  1  0
  7 26  1  0
 10 27  1  0
 12 28  1  0
 13 29  1  0
 13 30  1  0
 14 31  1  0
 14 32  1  0
 15 33  1  0
 15 34  1  0
 16 35  1  0
 16 36  1  0
M  ISO  8  17  13  18  13  19  13  20  13  21  13  22  13  23  13  24  13
M  ISO  8  25  14  26  14  27  14  28  13  29  13  30  13  31  13  32  13
M  ISO  4  33  13  34  13  35  13  36  13
M  END
>  <minimizedAffinity>  (1) 
-4.56495523

>  <minimizedRMSD>  (1) 
1.83260047

$$$$
