
     RDKit          3D

 24 25  0  0  1  0  0  0  0  0999 V2000
   46.7710   34.9460   42.0170 C   0  0  2  0  0  0  0  0  0  0  0  0
   46.1720   34.0330   40.9920 C   0  0  0  0  0  0  0  0  0  0  0  0
   47.2580   34.0450   39.9410 C   0  0  0  0  0  0  0  0  0  0  0  0
   48.5490   34.2510   40.7130 C   0  0  1  0  0  0  0  0  0  0  0  0
   48.1390   34.2840   42.1860 C   0  0  0  0  0  0  0  0  0  0  0  0
   44.4500   35.9790   44.8110 C   0  0  0  0  0  0  0  0  0  0  0  0
   45.1060   36.0350   43.5650 C   0  0  0  0  0  0  0  0  0  0  0  0
   46.0200   35.0090   43.2910 C   0  0  0  0  0  0  0  0  0  0  0  0
   46.2260   34.0340   44.2200 N   0  0  0  0  0  0  0  0  0  0  0  0
   45.5760   34.0200   45.4010 C   0  0  0  0  0  0  0  0  0  0  0  0
   44.6970   34.9850   45.6910 N   0  0  0  0  0  0  0  0  0  0  0  0
   49.4880   33.2770   40.4510 O   0  0  0  0  0  0  0  0  0  0  0  0
   46.7844   36.0033   41.7138 H   0  0  0  0  0  0  0  0  0  0  0  0
   46.0084   33.0226   41.3948 H   0  0  0  0  0  0  0  0  0  0  0  0
   45.1804   34.3408   40.6288 H   0  0  0  0  0  0  0  0  0  0  0  0
   47.0978   34.8679   39.2288 H   0  0  0  0  0  0  0  0  0  0  0  0
   47.2727   33.1166   39.3512 H   0  0  0  0  0  0  0  0  0  0  0  0
   49.0462   35.1849   40.4120 H   0  0  0  0  0  0  0  0  0  0  0  0
   48.8234   34.8933   42.7946 H   0  0  0  0  0  0  0  0  0  0  0  0
   48.1433   33.3158   42.7080 H   0  0  0  0  0  0  0  0  0  0  0  0
   43.7218   36.7610   45.0721 H   0  0  0  0  0  0  0  0  0  0  0  0
   44.9105   36.8428   42.8444 H   0  0  0  0  0  0  0  0  0  0  0  0
   45.7686   33.2152   46.1257 H   0  0  0  0  0  0  0  0  0  0  0  0
   49.8360   32.9160   41.3046 H   0  0  0  0  0  0  0  0  0  0  0  0
  1  5  1  0
  1  8  1  0
  2  1  1  0
  3  4  1  0
  3  2  1  0
  4  5  1  0
  6 11  2  0
  7  6  1  0
  8  7  2  0
  8  9  1  0
  9 10  2  0
 10 11  1  0
 12  4  1  0
  1 13  1  6
  2 14  1  0
  2 15  1  0
  3 16  1  0
  3 17  1  0
  4 18  1  6
  5 19  1  0
  5 20  1  0
  6 21  1  0
  7 22  1  0
 10 23  1  0
 12 24  1  0
M  ISO  8  13  13  14  13  15  13  16  13  17  13  18  13  19  13  20  13
M  ISO  4  21  14  22  14  23  14  24   3
M  END
>  <minimizedAffinity>  (1) 
-4.47645855

>  <minimizedRMSD>  (1) 
0.754547656

$$$$
