
     RDKit          3D

 32 34  0  0  1  0  0  0  0  0999 V2000
   46.8240   34.9270   42.1590 C   0  0  2  0  0  0  0  0  0  0  0  0
   46.2930   33.9300   41.1610 C   0  0  0  0  0  0  0  0  0  0  0  0
   47.4790   33.9580   40.1770 C   0  0  0  0  0  0  0  0  0  0  0  0
   48.6970   34.1220   41.0390 C   0  0  1  0  0  0  0  0  0  0  0  0
   48.1820   34.2920   42.4340 C   0  0  0  0  0  0  0  0  0  0  0  0
   44.4150   36.0300   44.8490 C   0  0  0  0  0  0  0  0  0  0  0  0
   45.1110   36.0580   43.6150 C   0  0  0  0  0  0  0  0  0  0  0  0
   46.0150   35.0080   43.4070 C   0  0  0  0  0  0  0  0  0  0  0  0
   46.1960   34.0140   44.3650 N   0  0  0  0  0  0  0  0  0  0  0  0
   45.4900   34.0600   45.5190 C   0  0  0  0  0  0  0  0  0  0  0  0
   44.6110   35.0540   45.7570 N   0  0  0  0  0  0  0  0  0  0  0  0
   49.6040   32.9280   41.0590 C   0  0  2  0  0  0  0  0  0  0  0  0
   49.5030   32.0040   42.1640 C   0  0  0  0  0  0  0  0  0  0  0  0
   50.7610   32.8240   41.9190 C   0  0  1  0  0  0  0  0  0  0  0  0
   51.9530   32.0790   41.5280 N   0  0  0  0  0  0  0  0  0  0  0  0
   46.8285   35.9659   41.7975 H   0  0  0  0  0  0  0  0  0  0  0  0
   46.1438   32.9349   41.6054 H   0  0  0  0  0  0  0  0  0  0  0  0
   45.3052   34.1554   40.7326 H   0  0  0  0  0  0  0  0  0  0  0  0
   47.3826   34.8032   39.4796 H   0  0  0  0  0  0  0  0  0  0  0  0
   47.5275   33.0464   39.5633 H   0  0  0  0  0  0  0  0  0  0  0  0
   49.2831   34.9649   40.6439 H   0  0  0  0  0  0  0  0  0  0  0  0
   48.8278   34.9570   43.0262 H   0  0  0  0  0  0  0  0  0  0  0  0
   48.1408   33.3630   43.0217 H   0  0  0  0  0  0  0  0  0  0  0  0
   43.6929   36.8292   45.0724 H   0  0  0  0  0  0  0  0  0  0  0  0
   44.9521   36.8514   42.8699 H   0  0  0  0  0  0  0  0  0  0  0  0
   45.6358   33.2739   46.2745 H   0  0  0  0  0  0  0  0  0  0  0  0
   49.5020   32.8595   39.9659 H   0  0  0  0  0  0  0  0  0  0  0  0
   48.8503   32.2317   43.0196 H   0  0  0  0  0  0  0  0  0  0  0  0
   49.2690   30.9353   42.2785 H   0  0  0  0  0  0  0  0  0  0  0  0
   51.3754   33.5652   42.4512 H   0  0  0  0  0  0  0  0  0  0  0  0
   52.4542   31.7658   42.3716 H   0  0  0  0  0  0  0  0  0  0  0  0
   51.6774   31.2595   40.9682 H   0  0  0  0  0  0  0  0  0  0  0  0
  1  5  1  0
  1  8  1  0
  2  1  1  0
  3  4  1  0
  3  2  1  0
  4 12  1  0
  4  5  1  0
  6 11  2  0
  7  6  1  0
  8  7  2  0
  8  9  1  0
  9 10  2  0
 10 11  1  0
 12 14  1  0
 12 13  1  0
 14 13  1  0
 15 14  1  0
  1 16  1  6
  2 17  1  0
  2 18  1  0
  3 19  1  0
  3 20  1  0
  4 21  1  6
  5 22  1  0
  5 23  1  0
  6 24  1  0
  7 25  1  0
 10 26  1  0
 12 27  1  6
 13 28  1  0
 13 29  1  0
 14 30  1  1
 15 31  1  0
 15 32  1  0
M  ISO  8  16  13  17  13  18  13  19  13  20  13  21  13  22  13  23  13
M  ISO  8  24  14  25  14  26  14  27  13  28  13  29  13  30  13  31   5
M  ISO  1  32   5
M  END
>  <minimizedAffinity>  (1) 
-4.90067101

>  <minimizedRMSD>  (1) 
0.102206551

$$$$
