
     RDKit          3D

 31 33  0  0  1  0  0  0  0  0999 V2000
   47.0160   35.0140   42.1840 C   0  0  2  0  0  0  0  0  0  0  0  0
   46.4490   34.2020   41.0470 C   0  0  0  0  0  0  0  0  0  0  0  0
   47.7100   34.1620   40.1660 C   0  0  0  0  0  0  0  0  0  0  0  0
   48.8600   34.0710   41.1300 C   0  0  1  0  0  0  0  0  0  0  0  0
   48.2510   34.1740   42.4920 C   0  0  0  0  0  0  0  0  0  0  0  0
   44.4010   36.0950   44.6860 C   0  0  0  0  0  0  0  0  0  0  0  0
   45.1880   36.1260   43.5110 C   0  0  0  0  0  0  0  0  0  0  0  0
   46.1150   35.0850   43.3670 C   0  0  0  0  0  0  0  0  0  0  0  0
   46.2310   34.0950   44.3370 N   0  0  0  0  0  0  0  0  0  0  0  0
   45.4410   34.1360   45.4350 C   0  0  0  0  0  0  0  0  0  0  0  0
   44.5380   35.1290   45.6000 N   0  0  0  0  0  0  0  0  0  0  0  0
   49.5810   32.7560   41.0830 C   0  0  2  0  0  0  0  0  0  0  0  0
   49.4940   31.8750   42.2260 C   0  0  0  0  0  0  0  0  0  0  0  0
   50.8120   32.5100   41.8000 C   0  0  2  0  0  0  0  0  0  0  0  0
   51.3760   33.5500   42.4900 O   0  0  0  0  0  0  0  0  0  0  0  0
   47.1901   36.0718   41.9377 H   0  0  0  0  0  0  0  0  0  0  0  0
   46.1327   33.1986   41.3682 H   0  0  0  0  0  0  0  0  0  0  0  0
   45.5404   34.6019   40.5731 H   0  0  0  0  0  0  0  0  0  0  0  0
   47.6907   33.2836   39.5042 H   0  0  0  0  0  0  0  0  0  0  0  0
   47.7865   35.0463   39.5163 H   0  0  0  0  0  0  0  0  0  0  0  0
   49.5877   34.8569   40.8794 H   0  0  0  0  0  0  0  0  0  0  0  0
   48.9222   34.6835   43.1991 H   0  0  0  0  0  0  0  0  0  0  0  0
   48.0387   33.2075   42.9725 H   0  0  0  0  0  0  0  0  0  0  0  0
   43.6561   36.8872   44.8522 H   0  0  0  0  0  0  0  0  0  0  0  0
   45.0790   36.9189   42.7564 H   0  0  0  0  0  0  0  0  0  0  0  0
   45.5344   33.3529   46.2018 H   0  0  0  0  0  0  0  0  0  0  0  0
   49.3292   32.6775   40.0151 H   0  0  0  0  0  0  0  0  0  0  0  0
   48.9896   32.2070   43.1454 H   0  0  0  0  0  0  0  0  0  0  0  0
   49.1343   30.8513   42.4066 H   0  0  0  0  0  0  0  0  0  0  0  0
   51.8149   32.1158   41.5791 H   0  0  0  0  0  0  0  0  0  0  0  0
   51.2877   33.3872   43.4625 H   0  0  0  0  0  0  0  0  0  0  0  0
  1  5  1  0
  1  8  1  0
  2  1  1  0
  3  2  1  0
  3  4  1  0
  4  5  1  0
  6 11  2  0
  7  6  1  0
  8  7  2  0
  8  9  1  0
  9 10  2  0
 10 11  1  0
 12  4  1  0
 12 14  1  0
 12 13  1  0
 14 13  1  0
 14 15  1  0
  1 16  1  6
  2 17  1  0
  2 18  1  0
  3 19  1  0
  3 20  1  0
  4 21  1  6
  5 22  1  0
  5 23  1  0
  6 24  1  0
  7 25  1  0
 10 26  1  0
 12 27  1  6
 13 28  1  0
 13 29  1  0
 14 30  1  6
 15 31  1  0
M  ISO  8  16  13  17  13  18  13  19  13  20  13  21  13  22  13  23  13
M  ISO  8  24  14  25  14  26  14  27  13  28  13  29  13  30  13  31   3
M  END
>  <minimizedAffinity>  (1) 
-5.2181983

>  <minimizedRMSD>  (1) 
0.20879586

$$$$
