
     RDKit          3D

 42 45  0  0  1  0  0  0  0  0999 V2000
   43.7150   34.3730   39.6260 C   0  0  2  0  0  0  0  0  0  0  0  0
   44.4240   33.1300   39.1440 C   0  0  0  0  0  0  0  0  0  0  0  0
   45.7420   33.2930   39.9130 C   0  0  0  0  0  0  0  0  0  0  0  0
   45.3550   33.9440   41.2210 C   0  0  1  0  0  0  0  0  0  0  0  0
   43.8750   34.1410   41.1210 C   0  0  0  0  0  0  0  0  0  0  0  0
   40.4380   35.2000   37.9540 C   0  0  0  0  0  0  0  0  0  0  0  0
   41.8130   35.2270   38.2200 C   0  0  0  0  0  0  0  0  0  0  0  0
   42.2780   34.4080   39.2530 C   0  0  0  0  0  0  0  0  0  0  0  0
   41.3960   33.6230   39.9560 N   0  0  0  0  0  0  0  0  0  0  0  0
   40.0690   33.6370   39.6550 C   0  0  0  0  0  0  0  0  0  0  0  0
   39.6140   34.4280   38.6550 N   0  0  0  0  0  0  0  0  0  0  0  0
   45.5830   33.0770   42.4140 C   0  0  2  0  0  0  0  0  0  0  0  0
   45.2110   33.5930   43.7300 C   0  0  0  0  0  0  0  0  0  0  0  0
   46.6490   33.2570   43.3800 C   0  0  2  0  0  0  0  0  0  0  0  0
   47.6540   34.2800   43.2690 N   0  0  0  0  0  0  0  0  0  0  0  0
   48.9210   33.6420   42.9750 C   0  0  0  0  0  0  0  0  0  0  0  0
   49.6970   34.5960   42.1170 C   0  0  0  0  0  0  0  0  0  0  0  0
   48.6710   35.4940   41.5150 C   0  0  0  0  0  0  0  0  0  0  0  0
   47.4130   35.2720   42.2790 C   0  0  0  0  0  0  0  0  0  0  0  0
   44.1046   35.3170   39.2172 H   0  0  0  0  0  0  0  0  0  0  0  0
   43.8895   32.2125   39.4312 H   0  0  0  0  0  0  0  0  0  0  0  0
   44.5215   33.0338   38.0526 H   0  0  0  0  0  0  0  0  0  0  0  0
   46.2086   32.3131   40.0922 H   0  0  0  0  0  0  0  0  0  0  0  0
   46.4746   33.8936   39.3539 H   0  0  0  0  0  0  0  0  0  0  0  0
   45.9557   34.8552   41.3585 H   0  0  0  0  0  0  0  0  0  0  0  0
   43.5431   35.0133   41.7032 H   0  0  0  0  0  0  0  0  0  0  0  0
   43.2780   33.3064   41.5174 H   0  0  0  0  0  0  0  0  0  0  0  0
   40.0322   35.8302   37.1490 H   0  0  0  0  0  0  0  0  0  0  0  0
   42.4971   35.8649   37.6412 H   0  0  0  0  0  0  0  0  0  0  0  0
   39.3680   33.0074   40.2226 H   0  0  0  0  0  0  0  0  0  0  0  0
   45.3153   32.2132   41.7877 H   0  0  0  0  0  0  0  0  0  0  0  0
   44.8988   34.6412   43.8471 H   0  0  0  0  0  0  0  0  0  0  0  0
   44.5032   33.3012   44.5198 H   0  0  0  0  0  0  0  0  0  0  0  0
   47.4374   32.6093   43.7909 H   0  0  0  0  0  0  0  0  0  0  0  0
   49.4686   33.4397   43.9073 H   0  0  0  0  0  0  0  0  0  0  0  0
   48.7696   32.6816   42.4604 H   0  0  0  0  0  0  0  0  0  0  0  0
   50.4074   35.1741   42.7263 H   0  0  0  0  0  0  0  0  0  0  0  0
   50.2906   34.0747   41.3516 H   0  0  0  0  0  0  0  0  0  0  0  0
   48.9875   36.5439   41.6013 H   0  0  0  0  0  0  0  0  0  0  0  0
   48.5304   35.2762   40.4460 H   0  0  0  0  0  0  0  0  0  0  0  0
   47.1020   36.2101   42.7620 H   0  0  0  0  0  0  0  0  0  0  0  0
   46.6139   34.9397   41.6000 H   0  0  0  0  0  0  0  0  0  0  0  0
  1  5  1  0
  2  1  1  0
  2  3  1  0
  3  4  1  0
  4 12  1  0
  5  4  1  0
  6  7  2  0
  6 11  1  0
  7  8  1  0
  8  1  1  0
  8  9  2  0
 10  9  1  0
 11 10  2  0
 12 14  1  0
 12 13  1  0
 14 13  1  0
 15 16  1  0
 15 14  1  0
 17 16  1  0
 18 17  1  0
 18 19  1  0
 19 15  1  0
  1 20  1  6
  2 21  1  0
  2 22  1  0
  3 23  1  0
  3 24  1  0
  4 25  1  1
  5 26  1  0
  5 27  1  0
  6 28  1  0
  7 29  1  0
 10 30  1  0
 12 31  1  6
 13 32  1  0
 13 33  1  0
 14 34  1  1
 16 35  1  0
 16 36  1  0
 17 37  1  0
 17 38  1  0
 18 39  1  0
 18 40  1  0
 19 41  1  0
 19 42  1  0
M  ISO  8  20  13  21  13  22  13  23  13  24  13  25  13  26  13  27  13
M  ISO  8  28  14  29  14  30  14  31  13  32  13  33  13  34  13  35  13
M  ISO  7  36  13  37  13  38  13  39  13  40  13  41  13  42  13
M  END
>  <minimizedAffinity>  (1) 
-4.73563528

>  <minimizedRMSD>  (1) 
5.08562708

$$$$
