
     RDKit          3D

 43 46  0  0  1  0  0  0  0  0999 V2000
   47.1240   34.8310   42.0950 C   0  0  2  0  0  0  0  0  0  0  0  0
   46.3400   34.3190   40.8820 C   0  0  0  0  0  0  0  0  0  0  0  0
   47.5370   34.1800   39.9150 C   0  0  0  0  0  0  0  0  0  0  0  0
   48.6650   33.6960   40.7720 C   0  0  1  0  0  0  0  0  0  0  0  0
   48.1630   33.7480   42.1830 C   0  0  0  0  0  0  0  0  0  0  0  0
   44.5390   35.7900   44.6630 C   0  0  0  0  0  0  0  0  0  0  0  0
   45.2710   35.8400   43.4810 C   0  0  0  0  0  0  0  0  0  0  0  0
   46.2530   34.8730   43.3070 C   0  0  0  0  0  0  0  0  0  0  0  0
   46.4760   33.9030   44.2910 N   0  0  0  0  0  0  0  0  0  0  0  0
   45.7290   33.9060   45.4270 C   0  0  0  0  0  0  0  0  0  0  0  0
   44.7640   34.8470   45.6100 N   0  0  0  0  0  0  0  0  0  0  0  0
   49.1010   32.2760   40.5000 C   0  0  2  0  0  0  0  0  0  0  0  0
   49.9150   31.6460   41.5280 C   0  0  0  0  0  0  0  0  0  0  0  0
   50.4900   31.9460   40.1790 C   0  0  1  0  0  0  0  0  0  0  0  0
   50.7170   30.8400   39.3240 O   0  0  0  0  0  0  0  0  0  0  0  0
   51.1520   30.3690   36.7970 O   0  0  0  0  0  0  0  0  0  0  0  0
   51.3170   31.4200   37.8650 P   0  0  1  0  0  0  0  0  0  0  0  0
   50.4240   32.7990   37.3720 O   0  0  0  0  0  0  0  0  0  0  0  0
   52.9150   31.8770   37.9110 O   0  0  0  0  0  0  0  0  0  0  0  0
   53.9690   31.0060   38.1260 C   0  0  0  0  0  0  0  0  0  0  0  0
   54.2470   30.0660   39.1230 C   0  0  0  0  0  0  0  0  0  0  0  0
   55.4510   29.4710   38.8370 C   0  0  0  0  0  0  0  0  0  0  0  0
   55.8890   30.0390   37.6970 N   0  0  0  0  0  0  0  0  0  0  0  0
   55.0240   30.9490   37.2640 N   0  0  0  0  0  0  0  0  0  0  0  0
   47.5258   35.8520   42.0167 H   0  0  0  0  0  0  0  0  0  0  0  0
   45.8459   33.3560   41.0784 H   0  0  0  0  0  0  0  0  0  0  0  0
   45.5055   34.9482   40.5389 H   0  0  0  0  0  0  0  0  0  0  0  0
   47.7838   35.1512   39.4614 H   0  0  0  0  0  0  0  0  0  0  0  0
   47.3221   33.4927   39.0835 H   0  0  0  0  0  0  0  0  0  0  0  0
   49.5385   34.3320   40.5656 H   0  0  0  0  0  0  0  0  0  0  0  0
   48.9658   34.0181   42.8849 H   0  0  0  0  0  0  0  0  0  0  0  0
   47.7777   32.7877   42.5564 H   0  0  0  0  0  0  0  0  0  0  0  0
   43.7525   36.5397   44.8344 H   0  0  0  0  0  0  0  0  0  0  0  0
   45.0808   36.6101   42.7189 H   0  0  0  0  0  0  0  0  0  0  0  0
   45.9057   33.1446   46.2010 H   0  0  0  0  0  0  0  0  0  0  0  0
   48.1552   32.0576   39.9826 H   0  0  0  0  0  0  0  0  0  0  0  0
   50.2385   32.2237   42.4064 H   0  0  0  0  0  0  0  0  0  0  0  0
   49.8229   30.7474   42.1557 H   0  0  0  0  0  0  0  0  0  0  0  0
   51.3571   32.5047   39.7969 H   0  0  0  0  0  0  0  0  0  0  0  0
   50.1064   33.2895   38.1712 H   0  0  0  0  0  0  0  0  0  0  0  0
   53.6088   29.8411   39.9902 H   0  0  0  0  0  0  0  0  0  0  0  0
   55.9562   28.6879   39.4214 H   0  0  0  0  0  0  0  0  0  0  0  0
   56.7733   29.8004   37.2258 H   0  0  0  0  0  0  0  0  0  0  0  0
  1  5  1  0
  1  8  1  0
  2  1  1  0
  3  4  1  0
  3  2  1  0
  4  5  1  0
  6 11  2  0
  7  6  1  0
  8  7  2  0
  8  9  1  0
  9 10  2  0
 10 11  1  0
 12  4  1  0
 12 13  1  0
 14 12  1  0
 14 13  1  0
 15 14  1  0
 17 16  2  0
 17 19  1  0
 17 15  1  0
 18 17  1  0
 19 20  1  0
 20 21  1  0
 22 21  2  0
 23 22  1  0
 24 23  1  0
 24 20  2  0
  1 25  1  6
  2 26  1  0
  2 27  1  0
  3 28  1  0
  3 29  1  0
  4 30  1  1
  5 31  1  0
  5 32  1  0
  6 33  1  0
  7 34  1  0
 10 35  1  0
 12 36  1  6
 13 37  1  0
 13 38  1  0
 14 39  1  1
 18 40  1  0
 21 41  1  0
 22 42  1  0
 23 43  1  0
M  ISO  8  25  13  26  13  27  13  28  13  29  13  30  13  31  13  32  13
M  ISO  8  33  14  34  14  35  14  36  13  37  13  38  13  39  13  40   3
M  ISO  3  41  14  42  14  43   9
M  END
>  <minimizedAffinity>  (1) 
-5.37218809

>  <minimizedRMSD>  (1) 
1.23530877

$$$$
