
     RDKit          3D

 51 54  0  0  1  0  0  0  0  0999 V2000
   47.1640   34.7630   42.2170 C   0  0  2  0  0  0  0  0  0  0  0  0
   46.3570   34.4630   40.9530 C   0  0  0  0  0  0  0  0  0  0  0  0
   47.5470   34.2910   39.9850 C   0  0  0  0  0  0  0  0  0  0  0  0
   48.6090   33.6190   40.7990 C   0  0  1  0  0  0  0  0  0  0  0  0
   48.0870   33.5770   42.2040 C   0  0  0  0  0  0  0  0  0  0  0  0
   44.5530   35.6630   44.7770 C   0  0  0  0  0  0  0  0  0  0  0  0
   45.2870   35.7290   43.5980 C   0  0  0  0  0  0  0  0  0  0  0  0
   46.2900   34.7850   43.4230 C   0  0  0  0  0  0  0  0  0  0  0  0
   46.5330   33.8170   44.4070 N   0  0  0  0  0  0  0  0  0  0  0  0
   45.7830   33.8040   45.5390 C   0  0  0  0  0  0  0  0  0  0  0  0
   44.7970   34.7230   45.7210 N   0  0  0  0  0  0  0  0  0  0  0  0
   48.9070   32.1950   40.3900 C   0  0  2  0  0  0  0  0  0  0  0  0
   50.2980   31.7770   40.5050 C   0  0  0  0  0  0  0  0  0  0  0  0
   49.6450   31.8880   39.1650 C   0  0  1  0  0  0  0  0  0  0  0  0
   49.3260   30.6790   38.4980 O   0  0  0  0  0  0  0  0  0  0  0  0
   51.2600   31.2750   36.8560 O   0  0  0  0  0  0  0  0  0  0  0  0
   49.8220   30.8170   36.8980 P   0  0  1  0  0  0  0  0  0  0  0  0
   49.7530   29.2830   36.1320 O   0  0  0  0  0  0  0  0  0  0  0  0
   48.9090   31.8550   35.9780 O   0  0  0  0  0  0  0  0  0  0  0  0
   45.2120   32.9130   34.9480 N   0  0  0  0  0  0  0  0  0  0  0  0
   46.1690   32.1130   34.2330 C   0  0  0  0  0  0  0  0  0  0  0  0
   46.8290   31.0570   35.0930 C   0  0  0  0  0  0  0  0  0  0  0  0
   47.5460   31.6610   36.2640 C   0  0  0  0  0  0  0  0  0  0  0  0
   46.9010   32.9550   36.7160 C   0  0  0  0  0  0  0  0  0  0  0  0
   45.4180   32.8950   36.3840 C   0  0  0  0  0  0  0  0  0  0  0  0
   47.6679   35.7405   42.2427 H   0  0  0  0  0  0  0  0  0  0  0  0
   45.7586   33.5448   41.0471 H   0  0  0  0  0  0  0  0  0  0  0  0
   45.6034   35.2120   40.6684 H   0  0  0  0  0  0  0  0  0  0  0  0
   47.8969   35.2692   39.6235 H   0  0  0  0  0  0  0  0  0  0  0  0
   47.2756   33.7067   39.0934 H   0  0  0  0  0  0  0  0  0  0  0  0
   49.5427   34.1851   40.6658 H   0  0  0  0  0  0  0  0  0  0  0  0
   47.5425   32.6420   42.4025 H   0  0  0  0  0  0  0  0  0  0  0  0
   48.8711   33.6108   42.9747 H   0  0  0  0  0  0  0  0  0  0  0  0
   43.7506   36.3957   44.9481 H   0  0  0  0  0  0  0  0  0  0  0  0
   45.0819   36.4960   42.8367 H   0  0  0  0  0  0  0  0  0  0  0  0
   45.9740   33.0461   46.3130 H   0  0  0  0  0  0  0  0  0  0  0  0
   47.9325   31.8510   40.7668 H   0  0  0  0  0  0  0  0  0  0  0  0
   51.0690   32.5021   40.8048 H   0  0  0  0  0  0  0  0  0  0  0  0
   50.8336   30.9858   41.0501 H   0  0  0  0  0  0  0  0  0  0  0  0
   49.8623   32.4205   38.2274 H   0  0  0  0  0  0  0  0  0  0  0  0
   49.7210   28.5718   36.8199 H   0  0  0  0  0  0  0  0  0  0  0  0
   44.2681   32.5530   34.7473 H   0  0  0  0  0  0  0  0  0  0  0  0
   45.6529   31.6126   33.4004 H   0  0  0  0  0  0  0  0  0  0  0  0
   46.9621   32.7899   33.8826 H   0  0  0  0  0  0  0  0  0  0  0  0
   46.0571   30.3673   35.4652 H   0  0  0  0  0  0  0  0  0  0  0  0
   47.5687   30.5263   34.4756 H   0  0  0  0  0  0  0  0  0  0  0  0
   47.4665   30.9457   37.0959 H   0  0  0  0  0  0  0  0  0  0  0  0
   47.0339   33.0769   37.8011 H   0  0  0  0  0  0  0  0  0  0  0  0
   47.3683   33.8088   36.2036 H   0  0  0  0  0  0  0  0  0  0  0  0
   44.9124   33.7631   36.8321 H   0  0  0  0  0  0  0  0  0  0  0  0
   45.0029   31.9602   36.7888 H   0  0  0  0  0  0  0  0  0  0  0  0
  1  8  1  0
  2  1  1  0
  3  4  1  0
  3  2  1  0
  4  5  1  0
  5  1  1  0
  6 11  2  0
  7  6  1  0
  8  7  2  0
  8  9  1  0
  9 10  2  0
 10 11  1  0
 12 13  1  0
 12  4  1  0
 14 12  1  0
 14 13  1  0
 15 14  1  0
 17 16  2  0
 17 15  1  0
 18 17  1  0
 19 23  1  0
 19 17  1  0
 20 25  1  0
 21 20  1  0
 21 22  1  0
 22 23  1  0
 23 24  1  0
 25 24  1  0
  1 26  1  6
  2 27  1  0
  2 28  1  0
  3 29  1  0
  3 30  1  0
  4 31  1  1
  5 32  1  0
  5 33  1  0
  6 34  1  0
  7 35  1  0
 10 36  1  0
 12 37  1  1
 13 38  1  0
 13 39  1  0
 14 40  1  6
 18 41  1  0
 20 42  1  0
 21 43  1  0
 21 44  1  0
 22 45  1  0
 22 46  1  0
 23 47  1  0
 24 48  1  0
 24 49  1  0
 25 50  1  0
 25 51  1  0
M  ISO  8  26  13  27  13  28  13  29  13  30  13  31  13  32  13  33  13
M  ISO  8  34  14  35  14  36  14  37  13  38  13  39  13  40  13  41   3
M  ISO  8  42   5  43  13  44  13  45  13  46  13  47  13  48  13  49  13
M  ISO  2  50  13  51  13
M  END
>  <minimizedAffinity>  (1) 
-5.40628767

>  <minimizedRMSD>  (1) 
5.24587965

$$$$
