
     RDKit          3D

 39 41  0  0  1  0  0  0  0  0999 V2000
   47.0390   34.8740   42.0940 C   0  0  2  0  0  0  0  0  0  0  0  0
   46.2780   34.2600   40.9150 C   0  0  0  0  0  0  0  0  0  0  0  0
   47.4740   34.1330   39.9460 C   0  0  0  0  0  0  0  0  0  0  0  0
   48.6370   33.7680   40.8160 C   0  0  1  0  0  0  0  0  0  0  0  0
   48.1370   33.8540   42.2300 C   0  0  0  0  0  0  0  0  0  0  0  0
   44.5020   35.8980   44.6830 C   0  0  0  0  0  0  0  0  0  0  0  0
   45.2280   35.9320   43.4970 C   0  0  0  0  0  0  0  0  0  0  0  0
   46.1790   34.9340   43.3120 C   0  0  0  0  0  0  0  0  0  0  0  0
   46.3800   33.9510   44.2910 N   0  0  0  0  0  0  0  0  0  0  0  0
   45.6390   33.9740   45.4290 C   0  0  0  0  0  0  0  0  0  0  0  0
   44.7040   34.9460   45.6200 N   0  0  0  0  0  0  0  0  0  0  0  0
   49.1510   32.3600   40.6130 C   0  0  2  0  0  0  0  0  0  0  0  0
   50.0530   31.8510   41.6330 C   0  0  0  0  0  0  0  0  0  0  0  0
   50.5410   32.0980   40.2400 C   0  0  1  0  0  0  0  0  0  0  0  0
   50.7900   30.9580   39.4330 O   0  0  0  0  0  0  0  0  0  0  0  0
   51.0700   30.3940   36.9020 O   0  0  0  0  0  0  0  0  0  0  0  0
   51.2830   31.4890   37.9180 P   0  0  1  0  0  0  0  0  0  0  0  0
   50.3400   32.8360   37.4290 O   0  0  0  0  0  0  0  0  0  0  0  0
   52.8740   31.9670   37.8510 O   0  0  0  0  0  0  0  0  0  0  0  0
   53.6260   31.0040   38.5610 C   0  0  0  0  0  0  0  0  0  0  0  0
   54.9000   31.0030   38.0380 F   0  0  0  0  0  0  0  0  0  0  0  0
   53.6610   31.2670   39.9020 F   0  0  0  0  0  0  0  0  0  0  0  0
   53.0680   29.7360   38.4260 F   0  0  0  0  0  0  0  0  0  0  0  0
   47.3818   35.9103   41.9574 H   0  0  0  0  0  0  0  0  0  0  0  0
   45.8361   33.2841   41.1647 H   0  0  0  0  0  0  0  0  0  0  0  0
   45.4106   34.8273   40.5465 H   0  0  0  0  0  0  0  0  0  0  0  0
   47.6593   35.0880   39.4326 H   0  0  0  0  0  0  0  0  0  0  0  0
   47.2932   33.3845   39.1605 H   0  0  0  0  0  0  0  0  0  0  0  0
   49.4671   34.4474   40.5721 H   0  0  0  0  0  0  0  0  0  0  0  0
   48.9250   34.1997   42.9152 H   0  0  0  0  0  0  0  0  0  0  0  0
   47.8083   32.8922   42.6505 H   0  0  0  0  0  0  0  0  0  0  0  0
   43.7397   36.6702   44.8636 H   0  0  0  0  0  0  0  0  0  0  0  0
   45.0579   36.7121   42.7404 H   0  0  0  0  0  0  0  0  0  0  0  0
   45.7945   33.2046   46.1996 H   0  0  0  0  0  0  0  0  0  0  0  0
   48.1969   32.0487   40.1627 H   0  0  0  0  0  0  0  0  0  0  0  0
   50.3798   32.5038   42.4558 H   0  0  0  0  0  0  0  0  0  0  0  0
   50.0509   30.9911   42.3190 H   0  0  0  0  0  0  0  0  0  0  0  0
   51.3545   32.6814   39.7840 H   0  0  0  0  0  0  0  0  0  0  0  0
   50.0060   33.3131   38.2296 H   0  0  0  0  0  0  0  0  0  0  0  0
  1  5  1  0
  1  8  1  0
  2  1  1  0
  3  4  1  0
  3  2  1  0
  4  5  1  0
  6 11  2  0
  7  6  1  0
  8  7  2  0
  8  9  1  0
  9 10  2  0
 10 11  1  0
 12  4  1  0
 12 13  1  0
 14 12  1  0
 14 13  1  0
 15 14  1  0
 17 16  2  0
 17 15  1  0
 18 17  1  0
 19 17  1  0
 19 20  1  0
 20 22  1  0
 21 20  1  0
 23 20  1  0
  1 24  1  6
  2 25  1  0
  2 26  1  0
  3 27  1  0
  3 28  1  0
  4 29  1  1
  5 30  1  0
  5 31  1  0
  6 32  1  0
  7 33  1  0
 10 34  1  0
 12 35  1  6
 13 36  1  0
 13 37  1  0
 14 38  1  1
 18 39  1  0
M  ISO  8  24  13  25  13  26  13  27  13  28  13  29  13  30  13  31  13
M  ISO  8  32  14  33  14  34  14  35  13  36  13  37  13  38  13  39   3
M  END
>  <minimizedAffinity>  (1) 
-5.27200842

>  <minimizedRMSD>  (1) 
0.590490699

$$$$
