
     RDKit          3D

 26 28  0  0  1  0  0  0  0  0999 V2000
   46.1860   34.8470   43.2090 C   0  0  0  0  0  0  0  0  0  0  0  0
   45.2760   35.8360   43.5990 C   0  0  0  0  0  0  0  0  0  0  0  0
   44.6260   35.6820   44.8380 C   0  0  0  0  0  0  0  0  0  0  0  0
   44.9250   34.5790   45.5790 N   0  0  0  0  0  0  0  0  0  0  0  0
   45.8220   33.6520   45.1390 C   0  0  0  0  0  0  0  0  0  0  0  0
   46.4550   33.7620   43.9740 N   0  0  0  0  0  0  0  0  0  0  0  0
   46.1150   32.4770   46.0150 C   0  0  1  0  0  0  0  0  0  0  0  0
   47.0320   32.6380   47.1880 C   0  0  0  0  0  0  0  0  0  0  0  0
   45.5600   32.5950   47.3990 C   0  0  2  0  0  0  0  0  0  0  0  0
   45.1000   31.3800   48.1490 C   0  0  0  0  0  0  0  0  0  0  0  0
   45.1290   31.5250   49.6760 C   0  0  0  0  0  0  0  0  0  0  0  0
   46.0010   30.5550   48.9670 C   0  0  0  0  0  0  0  0  0  0  0  0
   46.8180   35.0780   41.9430 C   0  0  0  0  0  0  0  0  0  0  0  0
   48.0270   35.4320   41.7820 O   0  0  0  0  0  0  0  0  0  0  0  0
   45.0749   36.7066   42.9574 H   0  0  0  0  0  0  0  0  0  0  0  0
   43.9007   36.4276   45.1959 H   0  0  0  0  0  0  0  0  0  0  0  0
   46.0815   31.7570   45.1841 H   0  0  0  0  0  0  0  0  0  0  0  0
   47.6590   31.7955   47.5152 H   0  0  0  0  0  0  0  0  0  0  0  0
   47.8351   33.3404   47.4557 H   0  0  0  0  0  0  0  0  0  0  0  0
   44.7734   33.2369   47.8223 H   0  0  0  0  0  0  0  0  0  0  0  0
   44.3885   31.1197   47.3515 H   0  0  0  0  0  0  0  0  0  0  0  0
   45.5615   32.4238   50.1398 H   0  0  0  0  0  0  0  0  0  0  0  0
   44.3874   31.4716   50.4867 H   0  0  0  0  0  0  0  0  0  0  0  0
   45.8078   29.4768   49.0679 H   0  0  0  0  0  0  0  0  0  0  0  0
   47.0853   30.3703   48.9568 H   0  0  0  0  0  0  0  0  0  0  0  0
   46.2071   34.9374   41.0391 H   0  0  0  0  0  0  0  0  0  0  0  0
  1  2  2  0
  1  6  1  0
  2  3  1  0
  3  4  2  0
  5  4  1  0
  5  7  1  0
  6  5  2  0
  7  8  1  0
  7  9  1  0
  8  9  1  0
  9 10  1  0
 10 12  1  0
 10 11  1  0
 12 11  1  0
 13  1  1  0
 14 13  2  0
  2 15  1  0
  3 16  1  0
  7 17  1  6
  8 18  1  0
  8 19  1  0
  9 20  1  6
 10 21  1  0
 11 22  1  0
 11 23  1  0
 12 24  1  0
 12 25  1  0
 13 26  1  0
M  ISO  8  15  14  16  14  17  13  18  13  19  13  20  13  21  13  22  13
M  ISO  4  23  13  24  13  25  13  26   6
M  END
>  <minimizedAffinity>  (1) 
-4.72469044

>  <minimizedRMSD>  (1) 
0.834959209

$$$$
