
     RDKit          3D

 29 30  0  0  1  0  0  0  0  0999 V2000
   46.1970   34.8130   43.2540 C   0  0  0  0  0  0  0  0  0  0  0  0
   45.2820   35.8400   43.6360 C   0  0  0  0  0  0  0  0  0  0  0  0
   44.6430   35.6540   44.8620 C   0  0  0  0  0  0  0  0  0  0  0  0
   44.9200   34.5450   45.5900 N   0  0  0  0  0  0  0  0  0  0  0  0
   45.8160   33.6020   45.1470 C   0  0  0  0  0  0  0  0  0  0  0  0
   46.4580   33.7110   44.0010 N   0  0  0  0  0  0  0  0  0  0  0  0
   46.0760   32.4060   46.0040 C   0  0  1  0  0  0  0  0  0  0  0  0
   46.9540   32.5620   47.2230 C   0  0  0  0  0  0  0  0  0  0  0  0
   45.4560   32.4700   47.3470 C   0  0  1  0  0  0  0  0  0  0  0  0
   44.8800   33.7340   47.8120 N   0  0  0  0  0  0  0  0  0  0  0  0
   46.8620   35.0160   41.9780 C   0  0  0  0  0  0  0  0  0  0  0  0
   47.9560   35.6700   41.8490 O   0  0  0  0  0  0  0  0  0  0  0  0
   46.2340   34.4430   40.8180 N   0  0  0  0  0  0  0  0  0  0  0  0
   44.5100   34.2570   40.7520 S   0  0  0  0  0  0  0  0  0  0  0  0
   43.8800   35.5680   41.1320 O   0  0  0  0  0  0  0  0  0  0  0  0
   44.1210   33.1580   41.7170 O   0  0  0  0  0  0  0  0  0  0  0  0
   44.0380   33.8400   39.2020 O   0  0  0  0  0  0  0  0  0  0  0  0
   45.0931   36.7208   43.0047 H   0  0  0  0  0  0  0  0  0  0  0  0
   43.9232   36.3983   45.2333 H   0  0  0  0  0  0  0  0  0  0  0  0
   46.0845   31.7034   45.1577 H   0  0  0  0  0  0  0  0  0  0  0  0
   47.5891   31.7286   47.5577 H   0  0  0  0  0  0  0  0  0  0  0  0
   47.7261   33.2749   47.5481 H   0  0  0  0  0  0  0  0  0  0  0  0
   44.7108   31.8267   47.8378 H   0  0  0  0  0  0  0  0  0  0  0  0
   44.8728   33.7497   48.8419 H   0  0  0  0  0  0  0  0  0  0  0  0
   45.4464   34.5193   47.4606 H   0  0  0  0  0  0  0  0  0  0  0  0
   46.8117   34.1408   40.0206 H   0  0  0  0  0  0  0  0  0  0  0  0
   43.8439   35.6431   42.1185 H   0  0  0  0  0  0  0  0  0  0  0  0
   44.2348   33.4794   42.6464 H   0  0  0  0  0  0  0  0  0  0  0  0
   43.2969   33.1852   39.2476 H   0  0  0  0  0  0  0  0  0  0  0  0
  1  2  2  0
  1  6  1  0
  2  3  1  0
  3  4  2  0
  5  4  1  0
  5  7  1  0
  6  5  2  0
  7  8  1  0
  7  9  1  0
  8  9  1  0
  9 10  1  0
 11  1  1  0
 12 11  2  0
 13 11  1  0
 14 13  1  0
 14 15  1  0
 14 16  1  0
 17 14  1  0
  2 18  1  0
  3 19  1  0
  7 20  1  6
  8 21  1  0
  8 22  1  0
  9 23  1  1
 10 24  1  0
 10 25  1  0
 13 26  1  0
 15 27  1  0
 16 28  1  0
 17 29  1  0
M  ISO  8  18  14  19  14  20  13  21  13  22  13  23  13  24   5  25   5
M  ISO  3  27   3  28   3  29   3
M  END
>  <minimizedAffinity>  (1) 
-5.49110603

>  <minimizedRMSD>  (1) 
0.15297325

$$$$
