
     RDKit          3D

 28 30  0  0  1  0  0  0  0  0999 V2000
   46.5860   34.7580   43.1000 C   0  0  0  0  0  0  0  0  0  0  0  0
   45.5350   35.7070   43.2950 C   0  0  0  0  0  0  0  0  0  0  0  0
   44.7390   35.5090   44.4180 C   0  0  0  0  0  0  0  0  0  0  0  0
   45.0030   34.4550   45.2380 N   0  0  0  0  0  0  0  0  0  0  0  0
   46.0280   33.5860   44.9860 C   0  0  0  0  0  0  0  0  0  0  0  0
   46.8190   33.7150   43.9430 N   0  0  0  0  0  0  0  0  0  0  0  0
   46.2500   32.4630   45.9450 C   0  0  1  0  0  0  0  0  0  0  0  0
   46.9980   32.7390   47.2310 C   0  0  0  0  0  0  0  0  0  0  0  0
   45.5040   32.5700   47.2150 C   0  0  1  0  0  0  0  0  0  0  0  0
   44.8060   33.8220   47.5320 N   0  0  0  0  0  0  0  0  0  0  0  0
   47.4170   34.9810   41.9370 C   0  0  0  0  0  0  0  0  0  0  0  0
   48.4320   35.7650   41.9470 O   0  0  0  0  0  0  0  0  0  0  0  0
   47.0870   34.2730   40.6670 C   0  0  0  0  0  0  0  0  0  0  0  0
   48.0510   34.2930   39.5390 C   0  0  0  0  0  0  0  0  0  0  0  0
   47.9380   33.0370   40.3010 C   0  0  0  0  0  0  0  0  0  0  0  0
   45.3662   36.5424   42.5996 H   0  0  0  0  0  0  0  0  0  0  0  0
   43.9079   36.1944   44.6405 H   0  0  0  0  0  0  0  0  0  0  0  0
   46.3688   31.7127   45.1494 H   0  0  0  0  0  0  0  0  0  0  0  0
   47.6383   31.9635   47.6766 H   0  0  0  0  0  0  0  0  0  0  0  0
   47.6978   33.5114   47.5828 H   0  0  0  0  0  0  0  0  0  0  0  0
   44.7528   31.9146   47.6800 H   0  0  0  0  0  0  0  0  0  0  0  0
   44.7449   33.9317   48.5543 H   0  0  0  0  0  0  0  0  0  0  0  0
   45.3263   34.6159   47.1320 H   0  0  0  0  0  0  0  0  0  0  0  0
   46.0179   34.5075   40.7763 H   0  0  0  0  0  0  0  0  0  0  0  0
   48.9678   34.8954   39.6207 H   0  0  0  0  0  0  0  0  0  0  0  0
   47.9664   34.5444   38.4715 H   0  0  0  0  0  0  0  0  0  0  0  0
   47.4646   32.1545   39.8459 H   0  0  0  0  0  0  0  0  0  0  0  0
   48.6376   32.3793   40.8377 H   0  0  0  0  0  0  0  0  0  0  0  0
  1  2  2  0
  1  6  1  0
  2  3  1  0
  3  4  2  0
  5  4  1  0
  5  7  1  0
  6  5  2  0
  7  9  1  0
  7  8  1  0
  9  8  1  0
  9 10  1  0
 11 12  2  0
 11  1  1  0
 13 11  1  0
 14 15  1  0
 14 13  1  0
 15 13  1  0
  2 16  1  0
  3 17  1  0
  7 18  1  6
  8 19  1  0
  8 20  1  0
  9 21  1  1
 10 22  1  0
 10 23  1  0
 13 24  1  0
 14 25  1  0
 14 26  1  0
 15 27  1  0
 15 28  1  0
M  ISO  8  16  14  17  14  18  13  19  13  20  13  21  13  22   5  23   5
M  ISO  5  24  13  25  13  26  13  27  13  28  13
M  END
>  <minimizedAffinity>  (1) 
-5.15397692

>  <minimizedRMSD>  (1) 
1.07172465

$$$$
