
     RDKit          3D

 49 52  0  0  1  0  0  0  0  0999 V2000
   50.0390   33.9530   42.0300 O   0  0  0  0  0  0  0  0  0  0  0  0
   47.7950   34.4900   41.1660 C   0  0  1  0  0  0  0  0  0  0  0  0
   48.5630   35.7780   41.6710 C   0  0  0  0  0  0  0  0  0  0  0  0
   48.7860   34.4850   42.2690 C   0  0  2  0  0  0  0  0  0  0  0  0
   46.3380   34.5630   41.4840 C   0  0  0  0  0  0  0  0  0  0  0  0
   45.5530   34.3650   40.5670 O   0  0  0  0  0  0  0  0  0  0  0  0
   45.2400   36.0150   43.1310 C   0  0  0  0  0  0  0  0  0  0  0  0
   45.7960   34.8440   42.7630 C   0  0  0  0  0  0  0  0  0  0  0  0
   45.8300   33.8180   43.7660 C   0  0  0  0  0  0  0  0  0  0  0  0
   45.3280   34.0370   45.0050 N   0  0  0  0  0  0  0  0  0  0  0  0
   44.7810   35.2460   45.3060 C   0  0  0  0  0  0  0  0  0  0  0  0
   44.7410   36.1950   44.3990 N   0  0  0  0  0  0  0  0  0  0  0  0
   48.9010   32.0670   43.3750 O   0  0  0  0  0  0  0  0  0  0  0  0
   49.9530   32.2870   42.2980 P   0  0  2  0  0  0  0  0  0  0  0  0
   51.3870   31.5520   42.6650 O   0  0  0  0  0  0  0  0  0  0  0  0
   49.2310   31.5840   40.8790 O   0  0  0  0  0  0  0  0  0  0  0  0
   49.7920   31.6340   39.6270 C   0  0  0  0  0  0  0  0  0  0  0  0
   49.2590   32.1260   38.4450 C   0  0  0  0  0  0  0  0  0  0  0  0
   50.0000   32.0820   37.2770 C   0  0  0  0  0  0  0  0  0  0  0  0
   51.2510   31.5540   37.3000 N   0  0  0  0  0  0  0  0  0  0  0  0
   51.7630   31.0750   38.4630 C   0  0  0  0  0  0  0  0  0  0  0  0
   51.0510   31.1110   39.6190 N   0  0  0  0  0  0  0  0  0  0  0  0
   53.1440   30.5070   38.4290 C   0  0  0  0  0  0  0  0  0  0  0  0
   53.6390   30.0430   39.7520 C   0  0  0  0  0  0  0  0  0  0  0  0
   55.0500   29.5590   39.5680 C   0  0  0  0  0  0  0  0  0  0  0  0
   55.4360   29.3600   38.1150 C   0  0  0  0  0  0  0  0  0  0  0  0
   55.2950   30.6370   37.3080 C   0  0  0  0  0  0  0  0  0  0  0  0
   54.1390   31.4870   37.8520 C   0  0  0  0  0  0  0  0  0  0  0  0
   47.6687   33.8795   40.2597 H   0  0  0  0  0  0  0  0  0  0  0  0
   49.3404   36.2406   41.0452 H   0  0  0  0  0  0  0  0  0  0  0  0
   48.2727   36.7741   42.0365 H   0  0  0  0  0  0  0  0  0  0  0  0
   48.7217   34.0888   43.2931 H   0  0  0  0  0  0  0  0  0  0  0  0
   45.1846   36.8398   42.4053 H   0  0  0  0  0  0  0  0  0  0  0  0
   46.2703   32.8392   43.5250 H   0  0  0  0  0  0  0  0  0  0  0  0
   44.3717   35.4288   46.3105 H   0  0  0  0  0  0  0  0  0  0  0  0
   51.4889   31.4998   43.6484 H   0  0  0  0  0  0  0  0  0  0  0  0
   48.2450   32.5522   38.4358 H   0  0  0  0  0  0  0  0  0  0  0  0
   49.5793   32.4713   36.3381 H   0  0  0  0  0  0  0  0  0  0  0  0
   53.0618   29.6254   37.7762 H   0  0  0  0  0  0  0  0  0  0  0  0
   53.6190   30.8743   40.4721 H   0  0  0  0  0  0  0  0  0  0  0  0
   53.0019   29.2345   40.1397 H   0  0  0  0  0  0  0  0  0  0  0  0
   55.7326   30.2988   40.0115 H   0  0  0  0  0  0  0  0  0  0  0  0
   55.1224   28.5776   40.0596 H   0  0  0  0  0  0  0  0  0  0  0  0
   56.4826   29.0246   38.0686 H   0  0  0  0  0  0  0  0  0  0  0  0
   54.7574   28.6095   37.6835 H   0  0  0  0  0  0  0  0  0  0  0  0
   55.0941   30.3816   36.2571 H   0  0  0  0  0  0  0  0  0  0  0  0
   56.2290   31.2131   37.3844 H   0  0  0  0  0  0  0  0  0  0  0  0
   54.5011   32.1706   38.6341 H   0  0  0  0  0  0  0  0  0  0  0  0
   53.6865   32.1071   37.0641 H   0  0  0  0  0  0  0  0  0  0  0  0
  1  4  1  0
  1 14  1  0
  2  5  1  0
  2  3  1  0
  2  4  1  0
  3  4  1  0
  5  8  1  0
  6  5  2  0
  7 12  2  0
  8  7  1  0
  8  9  2  0
  9 10  1  0
 10 11  2  0
 12 11  1  0
 14 15  1  0
 14 13  2  0
 16 14  1  0
 17 16  1  0
 18 17  2  0
 19 20  2  0
 19 18  1  0
 20 21  1  0
 21 22  2  0
 22 17  1  0
 23 21  1  0
 23 24  1  0
 25 24  1  0
 26 25  1  0
 27 28  1  0
 27 26  1  0
 28 23  1  0
  2 29  1  6
  3 30  1  0
  3 31  1  0
  4 32  1  1
  7 33  1  0
  9 34  1  0
 11 35  1  0
 15 36  1  0
 18 37  1  0
 19 38  1  0
 23 39  1  0
 24 40  1  0
 24 41  1  0
 25 42  1  0
 25 43  1  0
 26 44  1  0
 26 45  1  0
 27 46  1  0
 27 47  1  0
 28 48  1  0
 28 49  1  0
M  ISO  8  29  13  30  13  31  13  32  13  33  14  34  14  35  14  36   3
M  ISO  8  37  14  38  14  39  13  40  13  41  13  42  13  43  13  44  13
M  ISO  5  45  13  46  13  47  13  48  13  49  13
M  END
>  <minimizedAffinity>  (1) 
-5.46220303

>  <minimizedRMSD>  (1) 
1.29797351

$$$$
