
     RDKit          3D

 49 52  0  0  1  0  0  0  0  0999 V2000
   44.3810   34.5210   41.7000 C   0  0  0  0  0  0  0  0  0  0  0  0
   45.2920   34.5210   40.8000 O   0  0  0  0  0  0  0  0  0  0  0  0
   42.2510   33.3190   41.1640 C   0  0  0  0  0  0  0  0  0  0  0  0
   42.9420   34.4900   41.4050 C   0  0  0  0  0  0  0  0  0  0  0  0
   42.2520   35.6900   41.3730 C   0  0  0  0  0  0  0  0  0  0  0  0
   40.8960   35.7320   41.1050 C   0  0  0  0  0  0  0  0  0  0  0  0
   40.2030   34.5800   40.8660 C   0  0  0  0  0  0  0  0  0  0  0  0
   40.8970   33.4050   40.9020 C   0  0  0  0  0  0  0  0  0  0  0  0
   43.0250   31.8380   41.0980 S   0  0  0  0  0  0  0  0  0  0  0  0
   42.0000   30.8920   40.5700 O   0  0  0  0  0  0  0  0  0  0  0  0
   43.3760   31.4670   42.5780 O   0  0  0  0  0  0  0  0  0  0  0  0
   46.4900   32.3170   38.5490 N   0  0  0  0  0  0  0  0  0  0  0  0
   45.0880   32.6430   38.5260 C   0  0  0  0  0  0  0  0  0  0  0  0
   44.3500   31.4310   38.9150 C   0  0  0  0  0  0  0  0  0  0  0  0
   44.3190   31.1100   40.4180 C   0  0  0  0  0  0  0  0  0  0  0  0
   45.7260   31.5280   40.7930 C   0  0  0  0  0  0  0  0  0  0  0  0
   46.7470   31.5400   39.7090 C   0  0  0  0  0  0  0  0  0  0  0  0
   44.6670   34.5550   43.1000 C   0  0  0  0  0  0  0  0  0  0  0  0
   44.3070   35.7460   43.7890 C   0  0  0  0  0  0  0  0  0  0  0  0
   44.5660   35.7810   45.1570 C   0  0  0  0  0  0  0  0  0  0  0  0
   45.1370   34.6920   45.7360 N   0  0  0  0  0  0  0  0  0  0  0  0
   45.4650   33.5670   45.0270 C   0  0  0  0  0  0  0  0  0  0  0  0
   45.2190   33.5540   43.7670 N   0  0  0  0  0  0  0  0  0  0  0  0
   46.0680   32.4280   45.7420 C   0  0  1  0  0  0  0  0  0  0  0  0
   47.0100   32.6830   46.8900 C   0  0  0  0  0  0  0  0  0  0  0  0
   45.5910   32.2490   47.1390 C   0  0  1  0  0  0  0  0  0  0  0  0
   44.7830   33.2680   47.7690 N   0  0  0  0  0  0  0  0  0  0  0  0
   42.7931   36.6284   41.5645 H   0  0  0  0  0  0  0  0  0  0  0  0
   40.3725   36.6992   41.0842 H   0  0  0  0  0  0  0  0  0  0  0  0
   39.1241   34.5981   40.6521 H   0  0  0  0  0  0  0  0  0  0  0  0
   40.3462   32.4722   40.7113 H   0  0  0  0  0  0  0  0  0  0  0  0
   47.0484   33.1820   38.5782 H   0  0  0  0  0  0  0  0  0  0  0  0
   44.8788   33.4555   39.2374 H   0  0  0  0  0  0  0  0  0  0  0  0
   44.7831   32.9796   37.5242 H   0  0  0  0  0  0  0  0  0  0  0  0
   43.3104   31.5471   38.5748 H   0  0  0  0  0  0  0  0  0  0  0  0
   44.8884   30.5944   38.4457 H   0  0  0  0  0  0  0  0  0  0  0  0
   44.1458   30.0807   40.7651 H   0  0  0  0  0  0  0  0  0  0  0  0
   45.6694   32.5464   41.2048 H   0  0  0  0  0  0  0  0  0  0  0  0
   46.0713   30.7569   41.4974 H   0  0  0  0  0  0  0  0  0  0  0  0
   46.8842   30.4994   39.3798 H   0  0  0  0  0  0  0  0  0  0  0  0
   47.6236   32.0205   40.1680 H   0  0  0  0  0  0  0  0  0  0  0  0
   43.8466   36.5978   43.2670 H   0  0  0  0  0  0  0  0  0  0  0  0
   44.3143   36.6693   45.7549 H   0  0  0  0  0  0  0  0  0  0  0  0
   46.1463   31.8138   44.8328 H   0  0  0  0  0  0  0  0  0  0  0  0
   47.8418   31.9905   47.0861 H   0  0  0  0  0  0  0  0  0  0  0  0
   47.6391   33.5252   47.2139 H   0  0  0  0  0  0  0  0  0  0  0  0
   45.0666   31.4200   47.6368 H   0  0  0  0  0  0  0  0  0  0  0  0
   44.8541   33.1784   48.7926 H   0  0  0  0  0  0  0  0  0  0  0  0
   45.1185   34.1985   47.4817 H   0  0  0  0  0  0  0  0  0  0  0  0
  1 18  1  0
  2  1  2  0
  3  4  1  0
  4  1  1  0
  5  4  2  0
  6  5  1  0
  7  8  1  0
  7  6  2  0
  8  3  2  0
  9  3  1  0
  9 11  2  0
 10  9  2  0
 12 17  1  0
 13 12  1  0
 13 14  1  0
 14 15  1  0
 15 16  1  0
 15  9  1  0
 17 16  1  0
 18 23  1  0
 18 19  2  0
 19 20  1  0
 20 21  2  0
 22 21  1  0
 22 24  1  0
 23 22  2  0
 24 25  1  0
 24 26  1  0
 25 26  1  0
 26 27  1  0
  5 28  1  0
  6 29  1  0
  7 30  1  0
  8 31  1  0
 12 32  1  0
 13 33  1  0
 13 34  1  0
 14 35  1  0
 14 36  1  0
 15 37  1  0
 16 38  1  0
 16 39  1  0
 17 40  1  0
 17 41  1  0
 19 42  1  0
 20 43  1  0
 24 44  1  6
 25 45  1  0
 25 46  1  0
 26 47  1  6
 27 48  1  0
 27 49  1  0
M  ISO  8  28  14  29  14  30  14  31  14  32   5  33  13  34  13  35  13
M  ISO  8  36  13  37  13  38  13  39  13  40  13  41  13  42  14  43  14
M  ISO  6  44  13  45  13  46  13  47  13  48   5  49   5
M  END
>  <minimizedAffinity>  (1) 
-5.90407276

>  <minimizedRMSD>  (1) 
1.21498549

$$$$
