
     RDKit          3D

 47 51  0  0  1  0  0  0  0  0999 V2000
   42.1310   33.3080   41.0470 C   0  0  0  0  0  0  0  0  0  0  0  0
   42.8310   34.4390   41.3490 C   0  0  0  0  0  0  0  0  0  0  0  0
   42.1180   35.6520   41.4250 C   0  0  0  0  0  0  0  0  0  0  0  0
   40.7660   35.7490   41.2110 C   0  0  0  0  0  0  0  0  0  0  0  0
   40.0720   34.6100   40.9090 C   0  0  0  0  0  0  0  0  0  0  0  0
   40.7510   33.4290   40.8320 C   0  0  0  0  0  0  0  0  0  0  0  0
   42.8640   31.7910   40.9650 S   0  0  0  0  0  0  0  0  0  0  0  0
   41.7500   30.9410   40.3210 O   0  0  0  0  0  0  0  0  0  0  0  0
   43.1110   31.2350   42.3570 O   0  0  0  0  0  0  0  0  0  0  0  0
   44.5460   29.8680   40.2730 C   0  0  0  0  0  0  0  0  0  0  0  0
   43.9770   31.1250   39.9350 C   0  0  0  0  0  0  0  0  0  0  0  0
   44.4660   31.5790   38.6830 C   0  0  0  0  0  0  0  0  0  0  0  0
   45.3560   31.0270   37.7930 C   0  0  0  0  0  0  0  0  0  0  0  0
   45.8980   31.3130   36.6290 N   0  0  0  0  0  0  0  0  0  0  0  0
   46.6940   30.3010   36.3520 N   0  0  0  0  0  0  0  0  0  0  0  0
   46.6790   29.3640   37.3150 C   0  0  0  0  0  0  0  0  0  0  0  0
   45.7920   29.8300   38.2820 C   0  0  0  0  0  0  0  0  0  0  0  0
   45.4420   29.2290   39.4560 C   0  0  0  0  0  0  0  0  0  0  0  0
   44.2660   34.4410   41.5860 C   0  0  0  0  0  0  0  0  0  0  0  0
   45.1500   34.3940   40.6670 O   0  0  0  0  0  0  0  0  0  0  0  0
   44.6030   34.5070   42.9780 C   0  0  0  0  0  0  0  0  0  0  0  0
   44.3100   35.7470   43.6360 C   0  0  0  0  0  0  0  0  0  0  0  0
   44.6210   35.8220   44.9860 C   0  0  0  0  0  0  0  0  0  0  0  0
   45.1730   34.7370   45.5900 N   0  0  0  0  0  0  0  0  0  0  0  0
   45.4340   33.5710   44.9150 C   0  0  0  0  0  0  0  0  0  0  0  0
   45.1440   33.5070   43.6650 N   0  0  0  0  0  0  0  0  0  0  0  0
   46.0280   32.4470   45.6560 C   0  0  1  0  0  0  0  0  0  0  0  0
   46.9690   32.7410   46.8090 C   0  0  0  0  0  0  0  0  0  0  0  0
   45.5550   32.3010   47.0600 C   0  0  1  0  0  0  0  0  0  0  0  0
   44.7710   33.3650   47.6710 N   0  0  0  0  0  0  0  0  0  0  0  0
   42.6743   36.5692   41.6686 H   0  0  0  0  0  0  0  0  0  0  0  0
   40.2529   36.7195   41.2807 H   0  0  0  0  0  0  0  0  0  0  0  0
   38.9870   34.6453   40.7315 H   0  0  0  0  0  0  0  0  0  0  0  0
   40.1829   32.5195   40.5871 H   0  0  0  0  0  0  0  0  0  0  0  0
   44.2580   29.3917   41.2218 H   0  0  0  0  0  0  0  0  0  0  0  0
   44.0583   32.5505   38.3668 H   0  0  0  0  0  0  0  0  0  0  0  0
   45.7342   32.1522   36.0548 H   0  0  0  0  0  0  0  0  0  0  0  0
   47.2493   28.4236   37.3353 H   0  0  0  0  0  0  0  0  0  0  0  0
   45.8685   28.2556   39.7398 H   0  0  0  0  0  0  0  0  0  0  0  0
   43.8617   36.5952   43.0980 H   0  0  0  0  0  0  0  0  0  0  0  0
   44.4246   36.7418   45.5564 H   0  0  0  0  0  0  0  0  0  0  0  0
   46.1032   31.8078   44.7640 H   0  0  0  0  0  0  0  0  0  0  0  0
   47.8060   32.0611   47.0262 H   0  0  0  0  0  0  0  0  0  0  0  0
   47.5890   33.5964   47.1152 H   0  0  0  0  0  0  0  0  0  0  0  0
   45.0270   31.4792   47.5659 H   0  0  0  0  0  0  0  0  0  0  0  0
   44.8279   33.2878   48.6965 H   0  0  0  0  0  0  0  0  0  0  0  0
   45.1423   34.2788   47.3743 H   0  0  0  0  0  0  0  0  0  0  0  0
  1  2  1  0
  2  3  2  0
  2 19  1  0
  4  3  1  0
  5  4  2  0
  6  5  1  0
  6  1  2  0
  7  1  1  0
  7  9  2  0
  8  7  2  0
 11 10  2  0
 11  7  1  0
 12 11  1  0
 13 17  1  0
 13 12  2  0
 14 13  1  0
 15 14  1  0
 15 16  2  0
 16 17  1  0
 17 18  2  0
 18 10  1  0
 19 21  1  0
 20 19  2  0
 21 22  2  0
 21 26  1  0
 22 23  1  0
 23 24  2  0
 25 24  1  0
 25 27  1  0
 26 25  2  0
 27 28  1  0
 27 29  1  0
 28 29  1  0
 29 30  1  0
  3 31  1  0
  4 32  1  0
  5 33  1  0
  6 34  1  0
 10 35  1  0
 12 36  1  0
 14 37  1  0
 16 38  1  0
 18 39  1  0
 22 40  1  0
 23 41  1  0
 27 42  1  6
 28 43  1  0
 28 44  1  0
 29 45  1  1
 30 46  1  0
 30 47  1  0
M  ISO  8  31  14  32  14  33  14  34  14  35  14  36  14  37   9  38  14
M  ISO  8  39  14  40  14  41  14  42  13  43  13  44  13  45  13  46   5
M  ISO  1  47   5
M  END
>  <minimizedAffinity>  (1) 
-5.91759396

>  <minimizedRMSD>  (1) 
2.36798978

$$$$
