
     RDKit          3D

 46 49  0  0  1  0  0  0  0  0999 V2000
   50.0760   33.9410   42.0050 O   0  0  0  0  0  0  0  0  0  0  0  0
   47.8260   34.4780   41.1540 C   0  0  1  0  0  0  0  0  0  0  0  0
   48.5810   35.7590   41.6910 C   0  0  0  0  0  0  0  0  0  0  0  0
   48.8150   34.4520   42.2570 C   0  0  2  0  0  0  0  0  0  0  0  0
   46.3680   34.5310   41.4700 C   0  0  0  0  0  0  0  0  0  0  0  0
   45.5860   34.2990   40.5530 O   0  0  0  0  0  0  0  0  0  0  0  0
   45.2550   35.9940   43.0930 C   0  0  0  0  0  0  0  0  0  0  0  0
   45.8210   34.8260   42.7430 C   0  0  0  0  0  0  0  0  0  0  0  0
   45.8590   33.8130   43.7580 C   0  0  0  0  0  0  0  0  0  0  0  0
   45.3500   34.0400   44.9910 N   0  0  0  0  0  0  0  0  0  0  0  0
   44.7910   35.2420   45.2840 C   0  0  0  0  0  0  0  0  0  0  0  0
   44.7490   36.1840   44.3590 N   0  0  0  0  0  0  0  0  0  0  0  0
   48.9130   32.0140   43.2670 O   0  0  0  0  0  0  0  0  0  0  0  0
   50.0100   32.2690   42.2450 P   0  0  2  0  0  0  0  0  0  0  0  0
   51.4390   31.5580   42.6710 O   0  0  0  0  0  0  0  0  0  0  0  0
   49.3750   31.5720   40.7850 O   0  0  0  0  0  0  0  0  0  0  0  0
   50.0320   31.5910   39.5740 C   0  0  0  0  0  0  0  0  0  0  0  0
   49.5090   31.7150   38.2930 C   0  0  0  0  0  0  0  0  0  0  0  0
   50.3420   31.7130   37.2030 C   0  0  0  0  0  0  0  0  0  0  0  0
   51.6830   31.5900   37.3860 N   0  0  0  0  0  0  0  0  0  0  0  0
   52.2020   31.4670   38.6340 C   0  0  0  0  0  0  0  0  0  0  0  0
   51.3850   31.4670   39.7380 N   0  0  0  0  0  0  0  0  0  0  0  0
   53.6770   31.3340   38.7850 C   0  0  0  0  0  0  0  0  0  0  0  0
   54.3030   30.7250   37.5780 C   0  0  0  0  0  0  0  0  0  0  0  0
   54.2170   29.2120   37.7230 C   0  0  0  0  0  0  0  0  0  0  0  0
   53.7370   28.9440   39.1180 C   0  0  0  0  0  0  0  0  0  0  0  0
   53.8960   30.2520   39.8490 C   0  0  0  0  0  0  0  0  0  0  0  0
   47.7063   33.8891   40.2327 H   0  0  0  0  0  0  0  0  0  0  0  0
   49.3548   36.2440   41.0778 H   0  0  0  0  0  0  0  0  0  0  0  0
   48.2815   36.7431   42.0808 H   0  0  0  0  0  0  0  0  0  0  0  0
   48.7523   34.0268   43.2695 H   0  0  0  0  0  0  0  0  0  0  0  0
   45.1953   36.8095   42.3573 H   0  0  0  0  0  0  0  0  0  0  0  0
   46.3093   32.8356   43.5302 H   0  0  0  0  0  0  0  0  0  0  0  0
   44.3758   35.4302   46.2851 H   0  0  0  0  0  0  0  0  0  0  0  0
   51.5090   31.5232   43.6579 H   0  0  0  0  0  0  0  0  0  0  0  0
   48.4227   31.8152   38.1521 H   0  0  0  0  0  0  0  0  0  0  0  0
   49.9277   31.8102   36.1887 H   0  0  0  0  0  0  0  0  0  0  0  0
   54.0927   32.3302   38.9965 H   0  0  0  0  0  0  0  0  0  0  0  0
   55.3560   31.0348   37.5058 H   0  0  0  0  0  0  0  0  0  0  0  0
   53.7817   31.0541   36.6670 H   0  0  0  0  0  0  0  0  0  0  0  0
   53.5067   28.8000   36.9911 H   0  0  0  0  0  0  0  0  0  0  0  0
   55.1933   28.7390   37.5408 H   0  0  0  0  0  0  0  0  0  0  0  0
   52.6820   28.6326   39.1097 H   0  0  0  0  0  0  0  0  0  0  0  0
   54.3035   28.1329   39.5989 H   0  0  0  0  0  0  0  0  0  0  0  0
   54.9047   30.3331   40.2803 H   0  0  0  0  0  0  0  0  0  0  0  0
   53.1864   30.3460   40.6843 H   0  0  0  0  0  0  0  0  0  0  0  0
  1 14  1  0
  1  4  1  0
  2  5  1  0
  2  3  1  0
  2  4  1  0
  3  4  1  0
  5  8  1  0
  6  5  2  0
  7 12  2  0
  8  7  1  0
  8  9  2  0
  9 10  1  0
 10 11  2  0
 12 11  1  0
 14 15  1  0
 14 13  2  0
 16 14  1  0
 17 22  1  0
 17 16  1  0
 18 17  2  0
 19 20  2  0
 19 18  1  0
 20 21  1  0
 21 23  1  0
 21 22  2  0
 23 27  1  0
 24 25  1  0
 24 23  1  0
 25 26  1  0
 26 27  1  0
  2 28  1  6
  3 29  1  0
  3 30  1  0
  4 31  1  1
  7 32  1  0
  9 33  1  0
 11 34  1  0
 15 35  1  0
 18 36  1  0
 19 37  1  0
 23 38  1  0
 24 39  1  0
 24 40  1  0
 25 41  1  0
 25 42  1  0
 26 43  1  0
 26 44  1  0
 27 45  1  0
 27 46  1  0
M  ISO  8  28  13  29  13  30  13  31  13  32  14  33  14  34  14  35   3
M  ISO  8  36  14  37  14  38  13  39  13  40  13  41  13  42  13  43  13
M  ISO  3  44  13  45  13  46  13
M  END
>  <minimizedAffinity>  (1) 
-5.36914349

>  <minimizedRMSD>  (1) 
1.18810487

$$$$
