
     RDKit          3D

 51 54  0  0  0  0  0  0  0  0999 V2000
   45.0340   35.4970   43.3860 C   0  0  0  0  0  0  0  0  0  0  0  0
   45.4800   34.1810   43.4090 C   0  0  0  0  0  0  0  0  0  0  0  0
   45.4760   33.4830   44.5920 C   0  0  0  0  0  0  0  0  0  0  0  0
   45.0160   34.1460   45.7130 N   0  0  0  0  0  0  0  0  0  0  0  0
   44.5890   35.4070   45.6810 C   0  0  0  0  0  0  0  0  0  0  0  0
   44.6040   36.0720   44.5070 N   0  0  0  0  0  0  0  0  0  0  0  0
   45.8940   32.1470   44.7850 C   0  0  0  0  0  0  0  0  0  0  0  0
   45.6150   31.1020   43.8980 C   0  0  0  0  0  0  0  0  0  0  0  0
   45.9590   29.7940   44.1160 C   0  0  0  0  0  0  0  0  0  0  0  0
   46.6220   29.4480   45.2690 C   0  0  0  0  0  0  0  0  0  0  0  0
   46.9170   30.4950   46.1850 C   0  0  0  0  0  0  0  0  0  0  0  0
   47.5760   30.1590   47.3400 C   0  0  0  0  0  0  0  0  0  0  0  0
   47.8950   31.1250   48.2710 C   0  0  0  0  0  0  0  0  0  0  0  0
   47.5400   32.4660   48.0270 C   0  0  0  0  0  0  0  0  0  0  0  0
   46.8650   32.7580   46.8280 C   0  0  0  0  0  0  0  0  0  0  0  0
   46.5590   31.7760   45.9250 C   0  0  0  0  0  0  0  0  0  0  0  0
   45.9040   33.6450   42.2300 O   0  0  0  0  0  0  0  0  0  0  0  0
   48.2200   32.5400   41.7250 O   0  0  0  0  0  0  0  0  0  0  0  0
   47.4680   33.8150   41.5970 P   0  0  1  0  0  0  0  0  0  0  0  0
   47.4130   34.2250   39.9690 O   0  0  0  0  0  0  0  0  0  0  0  0
   47.0870   33.5430   36.2870 N   0  0  0  0  0  0  0  0  0  0  0  0
   48.4100   33.6170   36.8040 C   0  0  0  0  0  0  0  0  0  0  0  0
   48.6100   33.2270   38.2190 C   0  0  0  0  0  0  0  0  0  0  0  0
   47.3870   33.1660   39.0830 C   0  0  0  0  0  0  0  0  0  0  0  0
   46.1060   32.9970   38.3580 C   0  0  0  0  0  0  0  0  0  0  0  0
   46.3690   32.4870   36.9560 C   0  0  0  0  0  0  0  0  0  0  0  0
   48.2380   35.0500   42.4340 O   0  0  0  0  0  0  0  0  0  0  0  0
   49.5280   35.5120   42.2280 C   0  0  0  0  0  0  0  0  0  0  0  0
   49.3910   36.5280   41.5210 O   0  0  0  0  0  0  0  0  0  0  0  0
   50.4900   34.6670   42.8910 N   0  0  0  0  0  0  0  0  0  0  0  0
   45.0363   36.0628   42.4427 H   0  0  0  0  0  0  0  0  0  0  0  0
   44.2298   35.8987   46.5971 H   0  0  0  0  0  0  0  0  0  0  0  0
   45.0853   31.3462   42.9654 H   0  0  0  0  0  0  0  0  0  0  0  0
   45.7058   29.0245   43.3719 H   0  0  0  0  0  0  0  0  0  0  0  0
   46.9118   28.4069   45.4743 H   0  0  0  0  0  0  0  0  0  0  0  0
   47.8523   29.1105   47.5252 H   0  0  0  0  0  0  0  0  0  0  0  0
   48.4223   30.8505   49.1965 H   0  0  0  0  0  0  0  0  0  0  0  0
   47.7826   33.2586   48.7501 H   0  0  0  0  0  0  0  0  0  0  0  0
   46.5770   33.7973   46.6115 H   0  0  0  0  0  0  0  0  0  0  0  0
   46.6056   34.4397   36.4455 H   0  0  0  0  0  0  0  0  0  0  0  0
   49.0425   32.9609   36.1880 H   0  0  0  0  0  0  0  0  0  0  0  0
   48.6680   34.6857   36.7668 H   0  0  0  0  0  0  0  0  0  0  0  0
   49.0729   32.2292   38.2268 H   0  0  0  0  0  0  0  0  0  0  0  0
   49.2290   34.0261   38.6528 H   0  0  0  0  0  0  0  0  0  0  0  0
   47.4272   32.2283   39.6567 H   0  0  0  0  0  0  0  0  0  0  0  0
   45.4751   32.2744   38.8963 H   0  0  0  0  0  0  0  0  0  0  0  0
   45.5929   33.9682   38.2992 H   0  0  0  0  0  0  0  0  0  0  0  0
   45.4206   32.2800   36.4386 H   0  0  0  0  0  0  0  0  0  0  0  0
   46.9421   31.5481   36.9655 H   0  0  0  0  0  0  0  0  0  0  0  0
   51.4950   34.8837   42.8289 H   0  0  0  0  0  0  0  0  0  0  0  0
   50.1722   33.8467   43.4267 H   0  0  0  0  0  0  0  0  0  0  0  0
  1  2  2  0
  1  6  1  0
  2  3  1  0
  3  7  1  0
  3  4  2  0
  5  4  1  0
  6  5  2  0
  7 16  2  0
  8  9  2  0
  8  7  1  0
  9 10  1  0
 10 11  2  0
 11 12  1  0
 12 13  2  0
 14 13  1  0
 15 14  2  0
 16 11  1  0
 16 15  1  0
 17  2  1  0
 19 18  2  0
 19 17  1  0
 19 27  1  0
 20 19  1  0
 21 22  1  0
 21 26  1  0
 22 23  1  0
 23 24  1  0
 24 20  1  0
 25 24  1  0
 26 25  1  0
 28 27  1  0
 28 30  1  0
 29 28  2  0
  1 31  1  0
  5 32  1  0
  8 33  1  0
  9 34  1  0
 10 35  1  0
 12 36  1  0
 13 37  1  0
 14 38  1  0
 15 39  1  0
 21 40  1  0
 22 41  1  0
 22 42  1  0
 23 43  1  0
 23 44  1  0
 24 45  1  0
 25 46  1  0
 25 47  1  0
 26 48  1  0
 26 49  1  0
 30 50  1  0
 30 51  1  0
M  ISO  8  31  14  32  14  33  14  34  14  35  14  36  14  37  14  38  14
M  ISO  8  39  14  40   5  41  13  42  13  43  13  44  13  45  13  46  13
M  ISO  3  47  13  48  13  49  13
M  END
>  <minimizedAffinity>  (1) 
-6.51112127

>  <minimizedRMSD>  (1) 
0.842875481

$$$$
