
     RDKit          3D

 38 40  0  0  0  0  0  0  0  0999 V2000
   45.1300   35.5130   43.2260 C   0  0  0  0  0  0  0  0  0  0  0  0
   45.5230   34.1850   43.2910 C   0  0  0  0  0  0  0  0  0  0  0  0
   45.4680   33.5130   44.4870 C   0  0  0  0  0  0  0  0  0  0  0  0
   45.0080   34.2160   45.5850 N   0  0  0  0  0  0  0  0  0  0  0  0
   44.6330   35.4910   45.5140 C   0  0  0  0  0  0  0  0  0  0  0  0
   44.7000   36.1290   44.3240 N   0  0  0  0  0  0  0  0  0  0  0  0
   45.8350   32.1660   44.7190 C   0  0  0  0  0  0  0  0  0  0  0  0
   45.5200   31.1110   43.8580 C   0  0  0  0  0  0  0  0  0  0  0  0
   45.8140   29.7960   44.1110 C   0  0  0  0  0  0  0  0  0  0  0  0
   46.4600   29.4540   45.2810 C   0  0  0  0  0  0  0  0  0  0  0  0
   46.7900   30.5130   46.1680 C   0  0  0  0  0  0  0  0  0  0  0  0
   47.4310   30.1870   47.3350 C   0  0  0  0  0  0  0  0  0  0  0  0
   47.7830   31.1690   48.2430 C   0  0  0  0  0  0  0  0  0  0  0  0
   47.4790   32.5100   47.9590 C   0  0  0  0  0  0  0  0  0  0  0  0
   46.8200   32.7940   46.7490 C   0  0  0  0  0  0  0  0  0  0  0  0
   46.4790   31.8000   45.8720 C   0  0  0  0  0  0  0  0  0  0  0  0
   45.9500   33.6040   42.1330 O   0  0  0  0  0  0  0  0  0  0  0  0
   48.1620   32.4360   41.3530 O   0  0  0  0  0  0  0  0  0  0  0  0
   47.5130   33.7620   41.4970 P   0  0  1  0  0  0  0  0  0  0  0  0
   47.4750   34.4640   39.9560 O   0  0  0  0  0  0  0  0  0  0  0  0
   48.1360   33.9490   38.8400 C   0  0  0  0  0  0  0  0  0  0  0  0
   48.3600   34.6120   37.7950 O   0  0  0  0  0  0  0  0  0  0  0  0
   48.4020   34.7490   42.5150 O   0  0  0  0  0  0  0  0  0  0  0  0
   49.6190   35.3540   42.2350 C   0  0  0  0  0  0  0  0  0  0  0  0
   49.3250   36.4000   41.6420 O   0  0  0  0  0  0  0  0  0  0  0  0
   50.7150   34.5490   42.7290 N   0  0  0  0  0  0  0  0  0  0  0  0
   45.1736   36.0554   42.2700 H   0  0  0  0  0  0  0  0  0  0  0  0
   44.2739   36.0179   46.4103 H   0  0  0  0  0  0  0  0  0  0  0  0
   45.0031   31.3511   42.9172 H   0  0  0  0  0  0  0  0  0  0  0  0
   45.5363   29.0178   43.3849 H   0  0  0  0  0  0  0  0  0  0  0  0
   46.7082   28.4085   45.5163 H   0  0  0  0  0  0  0  0  0  0  0  0
   47.6676   29.1347   47.5512 H   0  0  0  0  0  0  0  0  0  0  0  0
   48.2962   30.9020   49.1786 H   0  0  0  0  0  0  0  0  0  0  0  0
   47.7477   33.3134   48.6607 H   0  0  0  0  0  0  0  0  0  0  0  0
   46.5735   33.8373   46.5024 H   0  0  0  0  0  0  0  0  0  0  0  0
   48.4803   32.9049   38.8764 H   0  0  0  0  0  0  0  0  0  0  0  0
   51.6864   34.8653   42.5976 H   0  0  0  0  0  0  0  0  0  0  0  0
   50.5239   33.6596   43.2121 H   0  0  0  0  0  0  0  0  0  0  0  0
  1  2  2  0
  1  6  1  0
  2  3  1  0
  3  7  1  0
  3  4  2  0
  5  4  1  0
  6  5  2  0
  7 16  2  0
  8  9  2  0
  8  7  1  0
  9 10  1  0
 10 11  2  0
 11 12  1  0
 12 13  2  0
 14 13  1  0
 15 14  2  0
 16 11  1  0
 16 15  1  0
 17  2  1  0
 19 18  2  0
 19 17  1  0
 19 23  1  0
 20 19  1  0
 21 20  1  0
 22 21  2  0
 24 23  1  0
 24 26  1  0
 25 24  2  0
  1 27  1  0
  5 28  1  0
  8 29  1  0
  9 30  1  0
 10 31  1  0
 12 32  1  0
 13 33  1  0
 14 34  1  0
 15 35  1  0
 21 36  1  0
 26 37  1  0
 26 38  1  0
M  ISO  8  27  14  28  14  29  14  30  14  31  14  32  14  33  14  34  14
M  ISO  2  35  14  36   6
M  END
>  <minimizedAffinity>  (1) 
-5.91046524

>  <minimizedRMSD>  (1) 
0.748264611

$$$$
