
     RDKit          3D

 40 42  0  0  0  0  0  0  0  0999 V2000
   45.1340   35.5670   43.2300 C   0  0  0  0  0  0  0  0  0  0  0  0
   45.5130   34.2400   43.2950 C   0  0  0  0  0  0  0  0  0  0  0  0
   45.4530   33.5420   44.4660 C   0  0  0  0  0  0  0  0  0  0  0  0
   44.9870   34.2490   45.5700 N   0  0  0  0  0  0  0  0  0  0  0  0
   44.6220   35.5180   45.5120 C   0  0  0  0  0  0  0  0  0  0  0  0
   44.7020   36.1700   44.3290 N   0  0  0  0  0  0  0  0  0  0  0  0
   45.8030   32.2010   44.7110 C   0  0  0  0  0  0  0  0  0  0  0  0
   45.4600   31.1560   43.8350 C   0  0  0  0  0  0  0  0  0  0  0  0
   45.7390   29.8350   44.0690 C   0  0  0  0  0  0  0  0  0  0  0  0
   46.3940   29.4760   45.2280 C   0  0  0  0  0  0  0  0  0  0  0  0
   46.7550   30.5230   46.1360 C   0  0  0  0  0  0  0  0  0  0  0  0
   47.4000   30.1750   47.2850 C   0  0  0  0  0  0  0  0  0  0  0  0
   47.7690   31.1420   48.1920 C   0  0  0  0  0  0  0  0  0  0  0  0
   47.4760   32.4920   47.9230 C   0  0  0  0  0  0  0  0  0  0  0  0
   46.8060   32.7890   46.7150 C   0  0  0  0  0  0  0  0  0  0  0  0
   46.4510   31.8110   45.8420 C   0  0  0  0  0  0  0  0  0  0  0  0
   45.9480   33.6610   42.1340 O   0  0  0  0  0  0  0  0  0  0  0  0
   48.1500   32.3760   41.5180 O   0  0  0  0  0  0  0  0  0  0  0  0
   47.5070   33.7300   41.5320 P   0  0  1  0  0  0  0  0  0  0  0  0
   47.5690   34.3170   39.9550 O   0  0  0  0  0  0  0  0  0  0  0  0
   46.8230   33.3990   39.1860 C   0  0  0  0  0  0  0  0  0  0  0  0
   46.8030   33.9070   37.8830 O   0  0  0  0  0  0  0  0  0  0  0  0
   48.4110   34.7530   42.5270 O   0  0  0  0  0  0  0  0  0  0  0  0
   49.6180   35.3560   42.2420 C   0  0  0  0  0  0  0  0  0  0  0  0
   49.3510   36.3940   41.6500 O   0  0  0  0  0  0  0  0  0  0  0  0
   50.7120   34.5780   42.7270 N   0  0  0  0  0  0  0  0  0  0  0  0
   45.1899   36.1163   42.2786 H   0  0  0  0  0  0  0  0  0  0  0  0
   44.2587   36.0362   46.4117 H   0  0  0  0  0  0  0  0  0  0  0  0
   44.9349   31.4151   42.9038 H   0  0  0  0  0  0  0  0  0  0  0  0
   45.4430   29.0676   43.3386 H   0  0  0  0  0  0  0  0  0  0  0  0
   46.6305   28.4243   45.4471 H   0  0  0  0  0  0  0  0  0  0  0  0
   47.6264   29.1179   47.4881 H   0  0  0  0  0  0  0  0  0  0  0  0
   48.2889   30.8619   49.1200 H   0  0  0  0  0  0  0  0  0  0  0  0
   47.7585   33.2876   48.6281 H   0  0  0  0  0  0  0  0  0  0  0  0
   46.5665   33.8357   46.4763 H   0  0  0  0  0  0  0  0  0  0  0  0
   47.3030   32.4094   39.2021 H   0  0  0  0  0  0  0  0  0  0  0  0
   45.8049   33.2767   39.5842 H   0  0  0  0  0  0  0  0  0  0  0  0
   46.7641   34.8957   37.9148 H   0  0  0  0  0  0  0  0  0  0  0  0
   51.6786   34.9047   42.5864 H   0  0  0  0  0  0  0  0  0  0  0  0
   50.5348   33.6898   43.2176 H   0  0  0  0  0  0  0  0  0  0  0  0
  1  2  2  0
  1  6  1  0
  2  3  1  0
  3  7  1  0
  3  4  2  0
  5  4  1  0
  6  5  2  0
  7 16  2  0
  8  9  2  0
  8  7  1  0
  9 10  1  0
 10 11  2  0
 11 12  1  0
 12 13  2  0
 14 13  1  0
 15 14  2  0
 16 11  1  0
 16 15  1  0
 17  2  1  0
 19 18  2  0
 19 17  1  0
 19 23  1  0
 20 19  1  0
 21 20  1  0
 22 21  1  0
 24 23  1  0
 24 26  1  0
 25 24  2  0
  1 27  1  0
  5 28  1  0
  8 29  1  0
  9 30  1  0
 10 31  1  0
 12 32  1  0
 13 33  1  0
 14 34  1  0
 15 35  1  0
 21 36  1  0
 21 37  1  0
 22 38  1  0
 26 39  1  0
 26 40  1  0
M  ISO  8  27  14  28  14  29  14  30  14  31  14  32  14  33  14  34  14
M  ISO  4  35  14  36   8  37   8  38   3
M  END
>  <minimizedAffinity>  (1) 
-5.87206221

>  <minimizedRMSD>  (1) 
0.0326180458

$$$$
