
     RDKit          3D

 35 37  0  0  1  0  0  0  0  0999 V2000
   47.7860   34.4590   41.1300 C   0  0  1  0  0  0  0  0  0  0  0  0
   48.5490   35.7310   41.6820 C   0  0  0  0  0  0  0  0  0  0  0  0
   48.7830   34.4160   42.2270 C   0  0  2  0  0  0  0  0  0  0  0  0
   46.3310   34.5090   41.4560 C   0  0  0  0  0  0  0  0  0  0  0  0
   45.5430   34.2710   40.5500 O   0  0  0  0  0  0  0  0  0  0  0  0
   45.2450   35.9880   43.0870 C   0  0  0  0  0  0  0  0  0  0  0  0
   45.7930   34.8090   42.7340 C   0  0  0  0  0  0  0  0  0  0  0  0
   45.8230   33.7990   43.7510 C   0  0  0  0  0  0  0  0  0  0  0  0
   45.3250   34.0350   44.9860 N   0  0  0  0  0  0  0  0  0  0  0  0
   44.7830   35.2490   45.2770 C   0  0  0  0  0  0  0  0  0  0  0  0
   44.7490   36.1840   44.3540 N   0  0  0  0  0  0  0  0  0  0  0  0
   50.0400   33.9040   41.9620 O   0  0  0  0  0  0  0  0  0  0  0  0
   48.8760   32.0030   43.2590 O   0  0  0  0  0  0  0  0  0  0  0  0
   49.9910   32.2410   42.2550 P   0  0  2  0  0  0  0  0  0  0  0  0
   51.4200   31.5620   42.7350 O   0  0  0  0  0  0  0  0  0  0  0  0
   49.3980   31.4900   40.8020 O   0  0  0  0  0  0  0  0  0  0  0  0
   50.0460   31.5450   39.5900 C   0  0  0  0  0  0  0  0  0  0  0  0
   49.5090   31.6130   38.3100 C   0  0  0  0  0  0  0  0  0  0  0  0
   50.3410   31.6610   37.2100 C   0  0  0  0  0  0  0  0  0  0  0  0
   51.6840   31.6440   37.3950 N   0  0  0  0  0  0  0  0  0  0  0  0
   52.2140   31.5790   38.6380 C   0  0  0  0  0  0  0  0  0  0  0  0
   51.3920   31.5290   39.7380 N   0  0  0  0  0  0  0  0  0  0  0  0
   53.6310   31.5630   38.7910 N   0  0  0  0  0  0  0  0  0  0  0  0
   47.6586   33.8844   40.2007 H   0  0  0  0  0  0  0  0  0  0  0  0
   49.3202   36.2230   41.0711 H   0  0  0  0  0  0  0  0  0  0  0  0
   48.2547   36.7099   42.0883 H   0  0  0  0  0  0  0  0  0  0  0  0
   48.7257   33.9773   43.2341 H   0  0  0  0  0  0  0  0  0  0  0  0
   45.1938   36.8045   42.3517 H   0  0  0  0  0  0  0  0  0  0  0  0
   46.2586   32.8150   43.5228 H   0  0  0  0  0  0  0  0  0  0  0  0
   44.3755   35.4466   46.2795 H   0  0  0  0  0  0  0  0  0  0  0  0
   51.4605   31.5428   43.7240 H   0  0  0  0  0  0  0  0  0  0  0  0
   48.4176   31.6286   38.1733 H   0  0  0  0  0  0  0  0  0  0  0  0
   49.9196   31.7124   36.1952 H   0  0  0  0  0  0  0  0  0  0  0  0
   54.0469   31.5137   39.7320 H   0  0  0  0  0  0  0  0  0  0  0  0
   54.2391   31.6007   37.9605 H   0  0  0  0  0  0  0  0  0  0  0  0
  1  4  1  0
  1  2  1  0
  1  3  1  0
  2  3  1  0
  4  7  1  0
  5  4  2  0
  6 11  2  0
  7  6  1  0
  7  8  2  0
  8  9  1  0
  9 10  2  0
 11 10  1  0
 12  3  1  0
 12 14  1  0
 14 15  1  0
 14 13  2  0
 16 14  1  0
 17 22  1  0
 17 16  1  0
 18 17  2  0
 19 20  2  0
 19 18  1  0
 20 21  1  0
 21 23  1  0
 21 22  2  0
  1 24  1  6
  2 25  1  0
  2 26  1  0
  3 27  1  1
  6 28  1  0
  8 29  1  0
 10 30  1  0
 15 31  1  0
 18 32  1  0
 19 33  1  0
 23 34  1  0
 23 35  1  0
M  ISO  8  24  13  25  13  26  13  27  13  28  14  29  14  30  14  31   3
M  ISO  2  32  14  33  14
M  END
>  <minimizedAffinity>  (1) 
-5.21694994

>  <minimizedRMSD>  (1) 
0.61216414

$$$$
