
     RDKit          3D

 27 28  0  0  1  0  0  0  0  0999 V2000
   46.9490   31.3870   47.0570 C   0  0  0  0  0  0  0  0  0  0  0  0
   45.7220   30.5090   47.1030 C   0  0  1  0  0  0  0  0  0  0  0  0
   45.7580   29.2790   47.9320 C   0  0  0  0  0  0  0  0  0  0  0  0
   44.9490   30.4140   48.3730 C   0  0  1  0  0  0  0  0  0  0  0  0
   45.4060   31.3440   49.4700 C   0  0  0  0  0  0  0  0  0  0  0  0
   45.7420   33.1950   46.0580 C   0  0  0  0  0  0  0  0  0  0  0  0
   46.7890   32.4420   45.9880 C   0  0  0  0  0  0  0  0  0  0  0  0
   44.5480   36.2120   44.3490 C   0  0  0  0  0  0  0  0  0  0  0  0
   45.2380   36.1770   43.1280 C   0  0  0  0  0  0  0  0  0  0  0  0
   46.0870   35.1190   42.9160 C   0  0  0  0  0  0  0  0  0  0  0  0
   46.2130   34.1870   43.8750 N   0  0  0  0  0  0  0  0  0  0  0  0
   45.5550   34.2250   45.0380 C   0  0  0  0  0  0  0  0  0  0  0  0
   44.7230   35.2460   45.2630 N   0  0  0  0  0  0  0  0  0  0  0  0
   47.0845   31.8752   48.0334 H   0  0  0  0  0  0  0  0  0  0  0  0
   47.8279   30.7677   46.8247 H   0  0  0  0  0  0  0  0  0  0  0  0
   45.4807   30.7449   46.0560 H   0  0  0  0  0  0  0  0  0  0  0  0
   45.2667   28.3623   47.5738 H   0  0  0  0  0  0  0  0  0  0  0  0
   46.5578   28.6762   48.3870 H   0  0  0  0  0  0  0  0  0  0  0  0
   43.9009   30.4874   48.6986 H   0  0  0  0  0  0  0  0  0  0  0  0
   45.1845   30.8933   50.4487 H   0  0  0  0  0  0  0  0  0  0  0  0
   46.4894   31.5122   49.3805 H   0  0  0  0  0  0  0  0  0  0  0  0
   44.8772   32.3044   49.3805 H   0  0  0  0  0  0  0  0  0  0  0  0
   45.0079   33.0641   46.8667 H   0  0  0  0  0  0  0  0  0  0  0  0
   47.5313   32.5636   45.1854 H   0  0  0  0  0  0  0  0  0  0  0  0
   43.8559   37.0407   44.5591 H   0  0  0  0  0  0  0  0  0  0  0  0
   45.1044   36.9646   42.3718 H   0  0  0  0  0  0  0  0  0  0  0  0
   46.6541   35.0361   41.9771 H   0  0  0  0  0  0  0  0  0  0  0  0
  1  2  1  0
  2  3  1  0
  2  4  1  0
  3  4  1  0
  4  5  1  0
  7  6  2  0
  7  1  1  0
  8 13  2  0
  9  8  1  0
 10  9  2  0
 10 11  1  0
 11 12  2  0
 12 13  1  0
 12  6  1  0
  1 14  1  0
  1 15  1  0
  2 16  1  6
  3 17  1  0
  3 18  1  0
  4 19  1  6
  5 20  1  0
  5 21  1  0
  5 22  1  0
  6 23  1  0
  7 24  1  0
  8 25  1  0
  9 26  1  0
 10 27  1  0
M  ISO  8  14   8  15   8  16  13  17  13  18  13  19  13  20   8  21   8
M  ISO  4  22   8  25  14  26  14  27  14
M  END
>  <minimizedAffinity>  (1) 
-4.41278362

>  <minimizedRMSD>  (1) 
0.838086963

$$$$
