
     RDKit          3D

 43 46  0  0  1  0  0  0  0  0999 V2000
   45.7560   33.0820   46.2060 C   0  0  0  0  0  0  0  0  0  0  0  0
   46.0800   31.9370   45.7490 C   0  0  0  0  0  0  0  0  0  0  0  0
   44.4740   36.1590   44.6410 C   0  0  0  0  0  0  0  0  0  0  0  0
   45.0820   36.1340   43.3920 C   0  0  0  0  0  0  0  0  0  0  0  0
   45.9190   35.1010   43.1170 C   0  0  0  0  0  0  0  0  0  0  0  0
   46.1000   34.1660   44.0820 N   0  0  0  0  0  0  0  0  0  0  0  0
   45.5240   34.1750   45.2820 C   0  0  0  0  0  0  0  0  0  0  0  0
   44.7040   35.2020   45.5350 N   0  0  0  0  0  0  0  0  0  0  0  0
   46.2380   34.2280   40.7550 C   0  0  0  0  0  0  0  0  0  0  0  0
   46.6610   34.8650   41.8890 C   0  0  0  0  0  0  0  0  0  0  0  0
   47.9660   35.3150   41.7820 C   0  0  0  0  0  0  0  0  0  0  0  0
   48.7490   35.1420   40.6610 C   0  0  0  0  0  0  0  0  0  0  0  0
   48.2540   34.4880   39.5550 C   0  0  0  0  0  0  0  0  0  0  0  0
   46.9640   34.0230   39.6150 C   0  0  0  0  0  0  0  0  0  0  0  0
   44.9600   33.7380   40.7420 O   0  0  0  0  0  0  0  0  0  0  0  0
   46.4590   33.3720   38.5210 O   0  0  0  0  0  0  0  0  0  0  0  0
   46.2790   30.8520   46.7970 C   0  0  0  0  0  0  0  0  0  0  0  0
   46.0030   31.4020   48.1560 C   0  0  1  0  0  0  0  0  0  0  0  0
   45.7580   30.4180   49.2520 C   0  0  0  0  0  0  0  0  0  0  0  0
   46.9840   31.1920   49.2520 C   0  0  1  0  0  0  0  0  0  0  0  0
   48.3260   30.6860   48.8910 C   0  0  0  0  0  0  0  0  0  0  0  0
   49.2530   30.4260   50.1070 C   0  0  0  0  0  0  0  0  0  0  0  0
   49.5170   31.6040   49.2330 C   0  0  0  0  0  0  0  0  0  0  0  0
   45.6535   33.2392   47.2899 H   0  0  0  0  0  0  0  0  0  0  0  0
   46.2068   31.7468   44.6730 H   0  0  0  0  0  0  0  0  0  0  0  0
   43.7915   36.9836   44.8943 H   0  0  0  0  0  0  0  0  0  0  0  0
   44.8917   36.9244   42.6510 H   0  0  0  0  0  0  0  0  0  0  0  0
   48.4038   35.8418   42.6427 H   0  0  0  0  0  0  0  0  0  0  0  0
   49.7783   35.5298   40.6498 H   0  0  0  0  0  0  0  0  0  0  0  0
   48.8704   34.3434   38.6555 H   0  0  0  0  0  0  0  0  0  0  0  0
   44.6172   33.2707   39.9394 H   0  0  0  0  0  0  0  0  0  0  0  0
   45.5317   33.0257   38.5355 H   0  0  0  0  0  0  0  0  0  0  0  0
   45.5906   30.0184   46.5942 H   0  0  0  0  0  0  0  0  0  0  0  0
   47.3184   30.4945   46.7553 H   0  0  0  0  0  0  0  0  0  0  0  0
   45.4914   32.2800   47.7349 H   0  0  0  0  0  0  0  0  0  0  0  0
   44.9827   30.6190   50.0061 H   0  0  0  0  0  0  0  0  0  0  0  0
   45.5201   29.3447   49.2899 H   0  0  0  0  0  0  0  0  0  0  0  0
   47.4665   31.7843   50.0435 H   0  0  0  0  0  0  0  0  0  0  0  0
   47.9954   30.1358   47.9977 H   0  0  0  0  0  0  0  0  0  0  0  0
   48.8720   30.5762   51.1279 H   0  0  0  0  0  0  0  0  0  0  0  0
   49.8523   29.5708   50.4526 H   0  0  0  0  0  0  0  0  0  0  0  0
   50.4037   31.6129   48.5821 H   0  0  0  0  0  0  0  0  0  0  0  0
   49.6293   32.6837   49.4109 H   0  0  0  0  0  0  0  0  0  0  0  0
  2  1  2  0
  2 17  1  0
  3  8  2  0
  4  3  1  0
  5  4  2  0
  5  6  1  0
  6  7  2  0
  7  8  1  0
  7  1  1  0
  9 10  2  0
 10  5  1  0
 11 10  1  0
 12 11  2  0
 13 14  2  0
 13 12  1  0
 14  9  1  0
 15  9  1  0
 16 14  1  0
 17 18  1  0
 18 19  1  0
 18 20  1  0
 19 20  1  0
 21 23  1  0
 21 20  1  0
 21 22  1  0
 23 22  1  0
  1 24  1  0
  2 25  1  0
  3 26  1  0
  4 27  1  0
 11 28  1  0
 12 29  1  0
 13 30  1  0
 15 31  1  0
 16 32  1  0
 17 33  1  0
 17 34  1  0
 18 35  1  6
 19 36  1  0
 19 37  1  0
 20 38  1  1
 21 39  1  0
 22 40  1  0
 22 41  1  0
 23 42  1  0
 23 43  1  0
M  ISO  8  26  14  27  14  28  14  29  14  30  14  31   3  32   3  33   8
M  ISO  8  34   8  35  13  36  13  37  13  38  13  39  13  40  13  41  13
M  ISO  2  42  13  43  13
M  END
>  <minimizedAffinity>  (1) 
-6.44965601

>  <minimizedRMSD>  (1) 
0.937157691

$$$$
