
     RDKit          3D

 46 50  0  0  1  0  0  0  0  0999 V2000
   45.7350   33.1010   46.1880 C   0  0  0  0  0  0  0  0  0  0  0  0
   46.0230   31.9300   45.7740 C   0  0  0  0  0  0  0  0  0  0  0  0
   44.5630   36.1530   44.4930 C   0  0  0  0  0  0  0  0  0  0  0  0
   45.1890   36.0810   43.2560 C   0  0  0  0  0  0  0  0  0  0  0  0
   46.0030   35.0140   43.0320 C   0  0  0  0  0  0  0  0  0  0  0  0
   46.1590   34.0900   44.0150 N   0  0  0  0  0  0  0  0  0  0  0  0
   45.5530   34.1560   45.2120 C   0  0  0  0  0  0  0  0  0  0  0  0
   44.7600   35.2120   45.4090 N   0  0  0  0  0  0  0  0  0  0  0  0
   46.7250   34.8070   41.7810 C   0  0  0  0  0  0  0  0  0  0  0  0
   47.9790   35.3210   41.5280 C   0  0  0  0  0  0  0  0  0  0  0  0
   48.6600   35.1240   40.3410 C   0  0  0  0  0  0  0  0  0  0  0  0
   48.0500   34.3720   39.3570 C   0  0  0  0  0  0  0  0  0  0  0  0
   48.6550   34.1370   38.1720 N   0  0  0  0  0  0  0  0  0  0  0  0
   48.0730   33.4050   37.2030 C   0  0  0  0  0  0  0  0  0  0  0  0
   46.8220   32.8410   37.3400 C   0  0  0  0  0  0  0  0  0  0  0  0
   46.1980   33.0760   38.5480 C   0  0  0  0  0  0  0  0  0  0  0  0
   46.7960   33.8260   39.5390 C   0  0  0  0  0  0  0  0  0  0  0  0
   46.1810   34.0670   40.7510 C   0  0  0  0  0  0  0  0  0  0  0  0
   46.1930   30.8630   46.8470 C   0  0  0  0  0  0  0  0  0  0  0  0
   45.9550   31.4760   48.2040 C   0  0  1  0  0  0  0  0  0  0  0  0
   45.7230   30.5460   49.3440 C   0  0  0  0  0  0  0  0  0  0  0  0
   46.9680   31.2870   49.2720 C   0  0  1  0  0  0  0  0  0  0  0  0
   48.2810   30.7240   48.8960 C   0  0  0  0  0  0  0  0  0  0  0  0
   49.2180   30.4360   50.1000 C   0  0  0  0  0  0  0  0  0  0  0  0
   49.5170   31.5930   49.2170 C   0  0  0  0  0  0  0  0  0  0  0  0
   45.6270   33.3059   47.2633 H   0  0  0  0  0  0  0  0  0  0  0  0
   46.1417   31.7037   44.7041 H   0  0  0  0  0  0  0  0  0  0  0  0
   43.8964   36.9989   44.7168 H   0  0  0  0  0  0  0  0  0  0  0  0
   45.0335   36.8541   42.4891 H   0  0  0  0  0  0  0  0  0  0  0  0
   48.4639   35.9201   42.3128 H   0  0  0  0  0  0  0  0  0  0  0  0
   49.6602   35.5545   40.1850 H   0  0  0  0  0  0  0  0  0  0  0  0
   48.6194   33.2502   36.2609 H   0  0  0  0  0  0  0  0  0  0  0  0
   46.3544   32.2455   36.5421 H   0  0  0  0  0  0  0  0  0  0  0  0
   45.1977   32.6542   38.7252 H   0  0  0  0  0  0  0  0  0  0  0  0
   45.1810   33.6364   40.9078 H   0  0  0  0  0  0  0  0  0  0  0  0
   45.4680   30.0533   46.6777 H   0  0  0  0  0  0  0  0  0  0  0  0
   47.2136   30.4551   46.8016 H   0  0  0  0  0  0  0  0  0  0  0  0
   45.4417   32.3444   47.7653 H   0  0  0  0  0  0  0  0  0  0  0  0
   44.9790   30.7976   50.1141 H   0  0  0  0  0  0  0  0  0  0  0  0
   45.4596   29.4818   49.4337 H   0  0  0  0  0  0  0  0  0  0  0  0
   47.4933   31.9029   50.0168 H   0  0  0  0  0  0  0  0  0  0  0  0
   47.9133   30.1825   48.0120 H   0  0  0  0  0  0  0  0  0  0  0  0
   48.8597   30.6088   51.1256 H   0  0  0  0  0  0  0  0  0  0  0  0
   49.7873   29.5591   50.4421 H   0  0  0  0  0  0  0  0  0  0  0  0
   50.3938   31.5606   48.5535 H   0  0  0  0  0  0  0  0  0  0  0  0
   49.6772   32.6679   49.3869 H   0  0  0  0  0  0  0  0  0  0  0  0
  2  1  2  0
  2 19  1  0
  3  8  2  0
  4  3  1  0
  5  4  2  0
  5  6  1  0
  6  7  2  0
  7  8  1  0
  7  1  1  0
  9  5  1  0
 10  9  2  0
 11 10  1  0
 12 17  1  0
 12 11  2  0
 13 12  1  0
 14 15  1  0
 14 13  2  0
 15 16  2  0
 16 17  1  0
 17 18  2  0
 18  9  1  0
 19 20  1  0
 20 22  1  0
 20 21  1  0
 22 21  1  0
 23 25  1  0
 23 22  1  0
 23 24  1  0
 25 24  1  0
  1 26  1  0
  2 27  1  0
  3 28  1  0
  4 29  1  0
 10 30  1  0
 11 31  1  0
 14 32  1  0
 15 33  1  0
 16 34  1  0
 18 35  1  0
 19 36  1  0
 19 37  1  0
 20 38  1  6
 21 39  1  0
 21 40  1  0
 22 41  1  1
 23 42  1  0
 24 43  1  0
 24 44  1  0
 25 45  1  0
 25 46  1  0
M  ISO  8  28  14  29  14  30  14  31  14  32  14  33  14  34  14  35  14
M  ISO  8  36   8  37   8  38  13  39  13  40  13  41  13  42  13  43  13
M  ISO  3  44  13  45  13  46  13
M  END
>  <minimizedAffinity>  (1) 
-6.72894001

>  <minimizedRMSD>  (1) 
0.540906072

$$$$
