
     RDKit          3D

 41 44  0  0  1  0  0  0  0  0999 V2000
   45.7210   33.0170   46.1310 C   0  0  0  0  0  0  0  0  0  0  0  0
   45.9640   31.8190   45.7840 C   0  0  0  0  0  0  0  0  0  0  0  0
   44.7160   36.0420   44.2840 C   0  0  0  0  0  0  0  0  0  0  0  0
   45.3430   35.8940   43.0550 C   0  0  0  0  0  0  0  0  0  0  0  0
   46.1110   34.7550   42.8970 C   0  0  0  0  0  0  0  0  0  0  0  0
   46.2170   33.8630   43.9080 N   0  0  0  0  0  0  0  0  0  0  0  0
   45.5970   34.0330   45.0860 C   0  0  0  0  0  0  0  0  0  0  0  0
   44.8530   35.1330   45.2500 N   0  0  0  0  0  0  0  0  0  0  0  0
   44.6980   33.0690   40.7540 Cl  0  0  0  0  0  0  0  0  0  0  0  0
   46.2310   33.8750   40.5630 C   0  0  0  0  0  0  0  0  0  0  0  0
   46.7520   34.6020   41.6110 C   0  0  0  0  0  0  0  0  0  0  0  0
   47.9580   35.1790   41.2950 C   0  0  0  0  0  0  0  0  0  0  0  0
   48.5900   35.0580   40.0780 C   0  0  0  0  0  0  0  0  0  0  0  0
   48.0220   34.3180   39.0680 C   0  0  0  0  0  0  0  0  0  0  0  0
   48.8000   34.1480   37.5220 Cl  0  0  0  0  0  0  0  0  0  0  0  0
   46.8050   33.7120   39.3270 C   0  0  0  0  0  0  0  0  0  0  0  0
   46.0660   30.8140   46.9240 C   0  0  0  0  0  0  0  0  0  0  0  0
   45.9140   31.5290   48.2280 C   0  0  1  0  0  0  0  0  0  0  0  0
   45.7030   30.6820   49.4400 C   0  0  0  0  0  0  0  0  0  0  0  0
   46.9600   31.3850   49.2740 C   0  0  1  0  0  0  0  0  0  0  0  0
   48.2420   30.7610   48.8860 C   0  0  0  0  0  0  0  0  0  0  0  0
   49.1790   30.4360   50.0810 C   0  0  0  0  0  0  0  0  0  0  0  0
   49.5120   31.5880   49.1960 C   0  0  0  0  0  0  0  0  0  0  0  0
   45.6066   33.2837   47.1920 H   0  0  0  0  0  0  0  0  0  0  0  0
   46.0921   31.5273   44.7311 H   0  0  0  0  0  0  0  0  0  0  0  0
   44.0918   36.9293   44.4655 H   0  0  0  0  0  0  0  0  0  0  0  0
   45.2354   36.6393   42.2532 H   0  0  0  0  0  0  0  0  0  0  0  0
   48.4544   35.7811   42.0703 H   0  0  0  0  0  0  0  0  0  0  0  0
   49.5563   35.5569   39.9125 H   0  0  0  0  0  0  0  0  0  0  0  0
   46.3055   33.1091   38.5543 H   0  0  0  0  0  0  0  0  0  0  0  0
   45.2702   30.0614   46.8227 H   0  0  0  0  0  0  0  0  0  0  0  0
   47.0459   30.3154   46.8891 H   0  0  0  0  0  0  0  0  0  0  0  0
   45.4168   32.3841   47.7467 H   0  0  0  0  0  0  0  0  0  0  0  0
   44.9935   31.0034   50.2167 H   0  0  0  0  0  0  0  0  0  0  0  0
   45.4195   29.6331   49.6115 H   0  0  0  0  0  0  0  0  0  0  0  0
   47.5246   32.0356   49.9580 H   0  0  0  0  0  0  0  0  0  0  0  0
   47.8457   30.2288   48.0087 H   0  0  0  0  0  0  0  0  0  0  0  0
   48.8362   30.6181   51.1102 H   0  0  0  0  0  0  0  0  0  0  0  0
   49.7199   29.5384   50.4154 H   0  0  0  0  0  0  0  0  0  0  0  0
   50.3807   31.5269   48.5240 H   0  0  0  0  0  0  0  0  0  0  0  0
   49.7116   32.6562   49.3664 H   0  0  0  0  0  0  0  0  0  0  0  0
  2  1  2  0
  2 17  1  0
  3  8  2  0
  4  3  1  0
  5  4  2  0
  5  6  1  0
  6  7  2  0
  7  8  1  0
  7  1  1  0
 10  9  1  0
 10 11  2  0
 11  5  1  0
 12 11  1  0
 13 12  2  0
 14 16  2  0
 14 13  1  0
 15 14  1  0
 16 10  1  0
 17 18  1  0
 18 20  1  0
 18 19  1  0
 20 19  1  0
 21 23  1  0
 21 20  1  0
 21 22  1  0
 23 22  1  0
  1 24  1  0
  2 25  1  0
  3 26  1  0
  4 27  1  0
 12 28  1  0
 13 29  1  0
 16 30  1  0
 17 31  1  0
 17 32  1  0
 18 33  1  6
 19 34  1  0
 19 35  1  0
 20 36  1  1
 21 37  1  0
 22 38  1  0
 22 39  1  0
 23 40  1  0
 23 41  1  0
M  ISO  8  26  14  27  14  28  14  29  14  30  14  31   8  32   8  33  13
M  ISO  8  34  13  35  13  36  13  37  13  38  13  39  13  40  13  41  13
M  END
>  <minimizedAffinity>  (1) 
-6.21692514

>  <minimizedRMSD>  (1) 
0.854071915

$$$$
