
     RDKit          3D

 37 40  0  0  1  0  0  0  0  0999 V2000
   46.1760   30.8580   46.7960 C   0  0  0  0  0  0  0  0  0  0  0  0
   45.9520   31.5200   48.1280 C   0  0  1  0  0  0  0  0  0  0  0  0
   45.7140   30.6120   49.2830 C   0  0  0  0  0  0  0  0  0  0  0  0
   46.9580   31.3560   49.2040 C   0  0  1  0  0  0  0  0  0  0  0  0
   48.2690   30.7700   48.8440 C   0  0  0  0  0  0  0  0  0  0  0  0
   49.1780   30.4250   50.0490 C   0  0  0  0  0  0  0  0  0  0  0  0
   49.5120   31.6140   49.2180 C   0  0  0  0  0  0  0  0  0  0  0  0
   45.8250   33.0750   46.0640 C   0  0  0  0  0  0  0  0  0  0  0  0
   46.0720   31.8830   45.6810 C   0  0  0  0  0  0  0  0  0  0  0  0
   44.6310   36.0170   44.1970 C   0  0  0  0  0  0  0  0  0  0  0  0
   45.4390   36.0280   43.0700 C   0  0  0  0  0  0  0  0  0  0  0  0
   46.3760   35.0420   42.9840 C   0  0  0  0  0  0  0  0  0  0  0  0
   46.4810   34.1150   43.9740 N   0  0  0  0  0  0  0  0  0  0  0  0
   45.6820   34.1260   45.0580 C   0  0  0  0  0  0  0  0  0  0  0  0
   44.7630   35.0950   45.1430 N   0  0  0  0  0  0  0  0  0  0  0  0
   47.2610   34.9940   41.8230 C   0  0  0  0  0  0  0  0  0  0  0  0
   46.9960   34.2690   40.7080 N   0  0  0  0  0  0  0  0  0  0  0  0
   48.0260   34.4540   39.8360 C   0  0  0  0  0  0  0  0  0  0  0  0
   48.9200   35.2900   40.4150 N   0  0  0  0  0  0  0  0  0  0  0  0
   48.4400   35.6090   41.6250 N   0  0  0  0  0  0  0  0  0  0  0  0
   47.1772   30.4027   46.7796 H   0  0  0  0  0  0  0  0  0  0  0  0
   45.4103   30.0828   46.6455 H   0  0  0  0  0  0  0  0  0  0  0  0
   45.4538   32.3861   47.6680 H   0  0  0  0  0  0  0  0  0  0  0  0
   44.9641   30.8763   50.0431 H   0  0  0  0  0  0  0  0  0  0  0  0
   45.4526   29.5491   49.3918 H   0  0  0  0  0  0  0  0  0  0  0  0
   47.4774   31.9933   49.9348 H   0  0  0  0  0  0  0  0  0  0  0  0
   47.9083   30.2564   47.9406 H   0  0  0  0  0  0  0  0  0  0  0  0
   48.8026   30.5625   51.0738 H   0  0  0  0  0  0  0  0  0  0  0  0
   49.7292   29.5274   50.3660 H   0  0  0  0  0  0  0  0  0  0  0  0
   50.4004   31.5954   48.5696 H   0  0  0  0  0  0  0  0  0  0  0  0
   49.6839   32.6793   49.4315 H   0  0  0  0  0  0  0  0  0  0  0  0
   45.7213   33.3079   47.1340 H   0  0  0  0  0  0  0  0  0  0  0  0
   46.2001   31.6178   44.6212 H   0  0  0  0  0  0  0  0  0  0  0  0
   43.8599   36.7932   44.3102 H   0  0  0  0  0  0  0  0  0  0  0  0
   45.3294   36.7924   42.2866 H   0  0  0  0  0  0  0  0  0  0  0  0
   48.1157   34.0032   38.8366 H   0  0  0  0  0  0  0  0  0  0  0  0
   49.8043   35.6195   40.0023 H   0  0  0  0  0  0  0  0  0  0  0  0
  1  2  1  0
  2  4  1  0
  2  3  1  0
  4  3  1  0
  5  4  1  0
  5  7  1  0
  5  6  1  0
  7  6  1  0
  9  8  2  0
  9  1  1  0
 10 15  2  0
 11 10  1  0
 12 11  2  0
 12 13  1  0
 13 14  2  0
 14 15  1  0
 14  8  1  0
 16 12  1  0
 17 16  1  0
 18 19  1  0
 18 17  2  0
 19 20  1  0
 20 16  2  0
  1 21  1  0
  1 22  1  0
  2 23  1  6
  3 24  1  0
  3 25  1  0
  4 26  1  1
  5 27  1  0
  6 28  1  0
  6 29  1  0
  7 30  1  0
  7 31  1  0
  8 32  1  0
  9 33  1  0
 10 34  1  0
 11 35  1  0
 18 36  1  0
 19 37  1  0
M  ISO  8  21   8  22   8  23  13  24  13  25  13  26  13  27  13  28  13
M  ISO  7  29  13  30  13  31  13  34  14  35  14  36  14  37   9
M  END
>  <minimizedAffinity>  (1) 
-5.93328619

>  <minimizedRMSD>  (1) 
0.813101113

$$$$
