
     RDKit          3D

 45 48  0  0  1  0  0  0  0  0999 V2000
   46.0230   33.0780   46.0860 C   0  0  0  0  0  0  0  0  0  0  0  0
   46.8510   32.1710   45.7420 C   0  0  0  0  0  0  0  0  0  0  0  0
   44.4910   36.0080   44.4620 C   0  0  0  0  0  0  0  0  0  0  0  0
   45.0780   36.0250   43.2040 C   0  0  0  0  0  0  0  0  0  0  0  0
   46.0000   35.0280   42.9380 C   0  0  0  0  0  0  0  0  0  0  0  0
   46.2500   34.1340   43.9020 N   0  0  0  0  0  0  0  0  0  0  0  0
   45.6900   34.1130   45.1090 C   0  0  0  0  0  0  0  0  0  0  0  0
   44.8060   35.0780   45.3550 N   0  0  0  0  0  0  0  0  0  0  0  0
   46.7170   34.8900   41.6670 C   0  0  0  0  0  0  0  0  0  0  0  0
   46.9080   33.4170   41.2820 C   0  0  0  0  0  0  0  0  0  0  0  0
   47.3780   33.4550   39.8390 C   0  0  0  0  0  0  0  0  0  0  0  0
   47.9790   34.6430   39.5090 O   0  0  0  0  0  0  0  0  0  0  0  0
   48.8040   35.1810   40.4830 C   0  0  0  0  0  0  0  0  0  0  0  0
   48.1270   35.4330   41.7980 C   0  0  0  0  0  0  0  0  0  0  0  0
   47.1460   31.1240   46.8090 C   0  0  0  0  0  0  0  0  0  0  0  0
   46.7760   31.6650   48.1700 C   0  0  1  0  0  0  0  0  0  0  0  0
   46.2150   30.6820   49.1370 C   0  0  0  0  0  0  0  0  0  0  0  0
   47.5430   31.2200   49.3570 C   0  0  1  0  0  0  0  0  0  0  0  0
   48.8080   30.4820   49.1360 C   0  0  0  0  0  0  0  0  0  0  0  0
   49.6600   30.2640   50.4210 C   0  0  0  0  0  0  0  0  0  0  0  0
   50.1080   31.2740   49.4470 C   0  0  0  0  0  0  0  0  0  0  0  0
   45.5723   33.0813   47.0894 H   0  0  0  0  0  0  0  0  0  0  0  0
   47.3185   32.1463   44.7466 H   0  0  0  0  0  0  0  0  0  0  0  0
   43.7515   36.7792   44.7234 H   0  0  0  0  0  0  0  0  0  0  0  0
   44.8233   36.7915   42.4572 H   0  0  0  0  0  0  0  0  0  0  0  0
   46.1163   35.4298   40.9201 H   0  0  0  0  0  0  0  0  0  0  0  0
   47.6648   32.9429   41.9243 H   0  0  0  0  0  0  0  0  0  0  0  0
   45.9850   32.8313   41.4043 H   0  0  0  0  0  0  0  0  0  0  0  0
   48.1000   32.6400   39.6825 H   0  0  0  0  0  0  0  0  0  0  0  0
   46.4914   33.3419   39.1978 H   0  0  0  0  0  0  0  0  0  0  0  0
   49.6367   34.4826   40.6529 H   0  0  0  0  0  0  0  0  0  0  0  0
   49.1358   36.1603   40.1077 H   0  0  0  0  0  0  0  0  0  0  0  0
   48.1006   36.5118   42.0113 H   0  0  0  0  0  0  0  0  0  0  0  0
   48.6663   34.9450   42.6232 H   0  0  0  0  0  0  0  0  0  0  0  0
   46.5580   30.2173   46.6038 H   0  0  0  0  0  0  0  0  0  0  0  0
   48.2186   30.8804   46.7933 H   0  0  0  0  0  0  0  0  0  0  0  0
   46.4893   32.6452   47.7614 H   0  0  0  0  0  0  0  0  0  0  0  0
   45.3876   30.9755   49.7997 H   0  0  0  0  0  0  0  0  0  0  0  0
   45.7932   29.6694   49.0554 H   0  0  0  0  0  0  0  0  0  0  0  0
   48.0087   31.6772   50.2425 H   0  0  0  0  0  0  0  0  0  0  0  0
   48.4329   29.8674   48.3044 H   0  0  0  0  0  0  0  0  0  0  0  0
   49.2667   30.5843   51.3971 H   0  0  0  0  0  0  0  0  0  0  0  0
   50.1310   29.3880   50.8909 H   0  0  0  0  0  0  0  0  0  0  0  0
   51.0135   31.0910   48.8498 H   0  0  0  0  0  0  0  0  0  0  0  0
   50.3575   32.3434   49.5112 H   0  0  0  0  0  0  0  0  0  0  0  0
  2  1  2  0
  2 15  1  0
  3  8  2  0
  4  3  1  0
  5  4  2  0
  5  6  1  0
  6  7  2  0
  7  8  1  0
  7  1  1  0
  9 14  1  0
  9  5  1  0
 10  9  1  0
 11 10  1  0
 12 11  1  0
 12 13  1  0
 13 14  1  0
 15 16  1  0
 16 17  1  0
 16 18  1  0
 17 18  1  0
 19 18  1  0
 19 21  1  0
 19 20  1  0
 21 20  1  0
  1 22  1  0
  2 23  1  0
  3 24  1  0
  4 25  1  0
  9 26  1  0
 10 27  1  0
 10 28  1  0
 11 29  1  0
 11 30  1  0
 13 31  1  0
 13 32  1  0
 14 33  1  0
 14 34  1  0
 15 35  1  0
 15 36  1  0
 16 37  1  6
 17 38  1  0
 17 39  1  0
 18 40  1  1
 19 41  1  0
 20 42  1  0
 20 43  1  0
 21 44  1  0
 21 45  1  0
M  ISO  8  24  14  25  14  26  13  27  13  28  13  29  13  30  13  31  13
M  ISO  8  32  13  33  13  34  13  35   8  36   8  37  13  38  13  39  13
M  ISO  6  40  13  41  13  42  13  43  13  44  13  45  13
M  END
>  <minimizedAffinity>  (1) 
-5.82989645

>  <minimizedRMSD>  (1) 
0.287770122

$$$$
