
     RDKit          3D

 42 45  0  0  1  0  0  0  0  0999 V2000
   46.1860   30.8760   46.8730 C   0  0  0  0  0  0  0  0  0  0  0  0
   45.9760   31.5220   48.2220 C   0  0  1  0  0  0  0  0  0  0  0  0
   45.7290   30.6050   49.3670 C   0  0  0  0  0  0  0  0  0  0  0  0
   46.9840   31.3260   49.2870 C   0  0  1  0  0  0  0  0  0  0  0  0
   48.2810   30.7200   48.9150 C   0  0  0  0  0  0  0  0  0  0  0  0
   49.2210   30.4430   50.1190 C   0  0  0  0  0  0  0  0  0  0  0  0
   49.5370   31.5820   49.2120 C   0  0  0  0  0  0  0  0  0  0  0  0
   45.7120   33.0830   46.1860 C   0  0  0  0  0  0  0  0  0  0  0  0
   46.0210   31.9170   45.7730 C   0  0  0  0  0  0  0  0  0  0  0  0
   44.5450   36.1500   44.5200 C   0  0  0  0  0  0  0  0  0  0  0  0
   45.1790   36.1140   43.2840 C   0  0  0  0  0  0  0  0  0  0  0  0
   46.0070   35.0270   43.0560 C   0  0  0  0  0  0  0  0  0  0  0  0
   46.1260   34.1180   44.0240 N   0  0  0  0  0  0  0  0  0  0  0  0
   45.5200   34.1530   45.2000 C   0  0  0  0  0  0  0  0  0  0  0  0
   44.7310   35.1850   45.4270 N   0  0  0  0  0  0  0  0  0  0  0  0
   46.7650   34.8100   41.8160 C   0  0  0  0  0  0  0  0  0  0  0  0
   48.0010   35.3650   41.5780 C   0  0  0  0  0  0  0  0  0  0  0  0
   48.7200   35.1720   40.4280 C   0  0  0  0  0  0  0  0  0  0  0  0
   48.1990   34.3770   39.4310 C   0  0  0  0  0  0  0  0  0  0  0  0
   46.9570   33.8310   39.6940 C   0  0  0  0  0  0  0  0  0  0  0  0
   46.2850   34.0370   40.8170 N   0  0  0  0  0  0  0  0  0  0  0  0
   47.1995   30.4511   46.8250 H   0  0  0  0  0  0  0  0  0  0  0  0
   45.4430   30.0771   46.7324 H   0  0  0  0  0  0  0  0  0  0  0  0
   45.4872   32.4010   47.7765 H   0  0  0  0  0  0  0  0  0  0  0  0
   44.9897   30.8740   50.1358 H   0  0  0  0  0  0  0  0  0  0  0  0
   45.4485   29.5459   49.4652 H   0  0  0  0  0  0  0  0  0  0  0  0
   47.5205   31.9460   50.0203 H   0  0  0  0  0  0  0  0  0  0  0  0
   47.8985   30.1606   48.0485 H   0  0  0  0  0  0  0  0  0  0  0  0
   48.8704   30.6408   51.1427 H   0  0  0  0  0  0  0  0  0  0  0  0
   49.7786   29.5639   50.4743 H   0  0  0  0  0  0  0  0  0  0  0  0
   50.4099   31.5234   48.5452 H   0  0  0  0  0  0  0  0  0  0  0  0
   49.7154   32.6573   49.3598 H   0  0  0  0  0  0  0  0  0  0  0  0
   44.7712   32.9884   46.7482 H   0  0  0  0  0  0  0  0  0  0  0  0
   46.5933   33.4047   46.7604 H   0  0  0  0  0  0  0  0  0  0  0  0
   45.2285   31.5734   45.0919 H   0  0  0  0  0  0  0  0  0  0  0  0
   47.0015   32.0102   45.2833 H   0  0  0  0  0  0  0  0  0  0  0  0
   43.8759   36.9902   44.7575 H   0  0  0  0  0  0  0  0  0  0  0  0
   45.0321   36.9022   42.5309 H   0  0  0  0  0  0  0  0  0  0  0  0
   48.4391   36.0033   42.3594 H   0  0  0  0  0  0  0  0  0  0  0  0
   49.7040   35.6473   40.3020 H   0  0  0  0  0  0  0  0  0  0  0  0
   48.7353   34.1894   38.4891 H   0  0  0  0  0  0  0  0  0  0  0  0
   46.5002   33.1885   38.9269 H   0  0  0  0  0  0  0  0  0  0  0  0
  1  2  1  0
  2  4  1  0
  2  3  1  0
  4  3  1  0
  5  7  1  0
  5  4  1  0
  5  6  1  0
  7  6  1  0
  9  8  1  0
  9  1  1  0
 10 15  2  0
 11 10  1  0
 12 11  2  0
 12 13  1  0
 13 14  2  0
 14 15  1  0
 14  8  1  0
 16 12  1  0
 17 16  2  0
 18 17  1  0
 19 20  1  0
 19 18  2  0
 20 21  2  0
 21 16  1  0
  1 22  1  0
  1 23  1  0
  2 24  1  6
  3 25  1  0
  3 26  1  0
  4 27  1  1
  5 28  1  0
  6 29  1  0
  6 30  1  0
  7 31  1  0
  7 32  1  0
  8 33  1  0
  8 34  1  0
  9 35  1  0
  9 36  1  0
 10 37  1  0
 11 38  1  0
 17 39  1  0
 18 40  1  0
 19 41  1  0
 20 42  1  0
M  ISO  8  22   8  23   8  24  13  25  13  26  13  27  13  28  13  29  13
M  ISO  8  30  13  31  13  32  13  33   8  34   8  35   8  36   8  37  14
M  ISO  5  38  14  39  14  40  14  41  14  42  14
M  END
>  <minimizedAffinity>  (1) 
-6.066751

>  <minimizedRMSD>  (1) 
0.764240503

$$$$
