
     RDKit          3D

 43 46  0  0  1  0  0  0  0  0999 V2000
   46.1310   30.8910   46.8780 C   0  0  0  0  0  0  0  0  0  0  0  0
   45.9390   31.5420   48.2290 C   0  0  1  0  0  0  0  0  0  0  0  0
   45.7030   30.6270   49.3790 C   0  0  0  0  0  0  0  0  0  0  0  0
   46.9610   31.3390   49.2800 C   0  0  1  0  0  0  0  0  0  0  0  0
   48.2590   30.7480   48.8850 C   0  0  0  0  0  0  0  0  0  0  0  0
   49.2030   30.4270   50.0740 C   0  0  0  0  0  0  0  0  0  0  0  0
   49.5040   31.5980   49.2150 C   0  0  0  0  0  0  0  0  0  0  0  0
   45.6940   33.1150   46.1880 C   0  0  0  0  0  0  0  0  0  0  0  0
   45.9950   31.9430   45.7820 C   0  0  0  0  0  0  0  0  0  0  0  0
   44.5630   36.1520   44.4270 C   0  0  0  0  0  0  0  0  0  0  0  0
   45.2620   36.0960   43.2300 C   0  0  0  0  0  0  0  0  0  0  0  0
   46.1070   35.0430   43.0460 C   0  0  0  0  0  0  0  0  0  0  0  0
   46.2120   34.1250   44.0300 N   0  0  0  0  0  0  0  0  0  0  0  0
   45.5380   34.1700   45.1940 C   0  0  0  0  0  0  0  0  0  0  0  0
   44.7210   35.2080   45.3480 N   0  0  0  0  0  0  0  0  0  0  0  0
   46.8670   34.8960   41.8520 N   0  0  0  0  0  0  0  0  0  0  0  0
   46.4030   34.2300   40.6480 C   0  0  0  0  0  0  0  0  0  0  0  0
   47.6780   33.7530   40.0380 C   0  0  0  0  0  0  0  0  0  0  0  0
   48.8280   34.2040   40.9120 C   0  0  0  0  0  0  0  0  0  0  0  0
   48.2220   35.3830   41.6450 C   0  0  0  0  0  0  0  0  0  0  0  0
   47.1319   30.4375   46.8286 H   0  0  0  0  0  0  0  0  0  0  0  0
   45.3677   30.1120   46.7349 H   0  0  0  0  0  0  0  0  0  0  0  0
   45.4480   32.4230   47.7900 H   0  0  0  0  0  0  0  0  0  0  0  0
   44.9771   30.9015   50.1585 H   0  0  0  0  0  0  0  0  0  0  0  0
   45.4169   29.5699   49.4821 H   0  0  0  0  0  0  0  0  0  0  0  0
   47.5111   31.9471   50.0133 H   0  0  0  0  0  0  0  0  0  0  0  0
   47.8767   30.2199   47.9990 H   0  0  0  0  0  0  0  0  0  0  0  0
   48.8546   30.5808   51.1060 H   0  0  0  0  0  0  0  0  0  0  0  0
   49.7678   29.5384   50.3925 H   0  0  0  0  0  0  0  0  0  0  0  0
   50.3752   31.5725   48.5440 H   0  0  0  0  0  0  0  0  0  0  0  0
   49.6748   32.6676   49.4070 H   0  0  0  0  0  0  0  0  0  0  0  0
   45.5560   33.3235   47.2592 H   0  0  0  0  0  0  0  0  0  0  0  0
   46.1455   31.7084   44.7179 H   0  0  0  0  0  0  0  0  0  0  0  0
   43.8712   36.9863   44.6152 H   0  0  0  0  0  0  0  0  0  0  0  0
   45.1389   36.8714   42.4595 H   0  0  0  0  0  0  0  0  0  0  0  0
   45.7374   33.3882   40.8896 H   0  0  0  0  0  0  0  0  0  0  0  0
   45.8129   34.8794   39.9846 H   0  0  0  0  0  0  0  0  0  0  0  0
   47.6700   32.6549   39.9731 H   0  0  0  0  0  0  0  0  0  0  0  0
   47.7893   34.1683   39.0255 H   0  0  0  0  0  0  0  0  0  0  0  0
   49.1328   33.4119   41.6118 H   0  0  0  0  0  0  0  0  0  0  0  0
   49.7411   34.4520   40.3510 H   0  0  0  0  0  0  0  0  0  0  0  0
   48.7348   35.5757   42.5989 H   0  0  0  0  0  0  0  0  0  0  0  0
   48.2886   36.3408   41.1083 H   0  0  0  0  0  0  0  0  0  0  0  0
  1  2  1  0
  2  4  1  0
  2  3  1  0
  4  3  1  0
  5  7  1  0
  5  4  1  0
  5  6  1  0
  7  6  1  0
  9  8  2  0
  9  1  1  0
 10 15  2  0
 11 10  1  0
 12 11  2  0
 12 13  1  0
 13 14  2  0
 14 15  1  0
 14  8  1  0
 16 12  1  0
 17 16  1  0
 18 17  1  0
 18 19  1  0
 19 20  1  0
 20 16  1  0
  1 21  1  0
  1 22  1  0
  2 23  1  6
  3 24  1  0
  3 25  1  0
  4 26  1  1
  5 27  1  0
  6 28  1  0
  6 29  1  0
  7 30  1  0
  7 31  1  0
  8 32  1  0
  9 33  1  0
 10 34  1  0
 11 35  1  0
 17 36  1  0
 17 37  1  0
 18 38  1  0
 18 39  1  0
 19 40  1  0
 19 41  1  0
 20 42  1  0
 20 43  1  0
M  ISO  8  21   8  22   8  23  13  24  13  25  13  26  13  27  13  28  13
M  ISO  8  29  13  30  13  31  13  34  14  35  14  36  13  37  13  38  13
M  ISO  5  39  13  40  13  41  13  42  13  43  13
M  END
>  <minimizedAffinity>  (1) 
-5.50430632

>  <minimizedRMSD>  (1) 
0.71923548

$$$$
