
     RDKit          3D

 38 41  0  0  1  0  0  0  0  0999 V2000
   45.8370   30.7070   46.7990 C   0  0  0  0  0  0  0  0  0  0  0  0
   45.6790   31.5170   48.0640 C   0  0  1  0  0  0  0  0  0  0  0  0
   45.5310   30.7430   49.3270 C   0  0  0  0  0  0  0  0  0  0  0  0
   46.7530   31.4850   49.0860 C   0  0  1  0  0  0  0  0  0  0  0  0
   48.0560   30.8900   48.7100 C   0  0  0  0  0  0  0  0  0  0  0  0
   48.9550   30.5040   49.9140 C   0  0  0  0  0  0  0  0  0  0  0  0
   49.3130   31.6850   49.0980 C   0  0  0  0  0  0  0  0  0  0  0  0
   45.8270   32.8790   45.8540 C   0  0  0  0  0  0  0  0  0  0  0  0
   46.0110   31.6400   45.6080 C   0  0  0  0  0  0  0  0  0  0  0  0
   45.1350   35.5980   43.4690 C   0  0  0  0  0  0  0  0  0  0  0  0
   46.2520   35.5960   42.6450 C   0  0  0  0  0  0  0  0  0  0  0  0
   47.2310   34.6610   42.9380 C   0  0  0  0  0  0  0  0  0  0  0  0
   47.0440   33.8330   43.9730 N   0  0  0  0  0  0  0  0  0  0  0  0
   45.9620   33.8390   44.7630 C   0  0  0  0  0  0  0  0  0  0  0  0
   45.0220   34.7320   44.4900 N   0  0  0  0  0  0  0  0  0  0  0  0
   48.4730   34.6000   42.0900 C   0  0  0  0  0  0  0  0  0  0  0  0
   48.1450   34.7080   40.5700 C   0  0  0  0  0  0  0  0  0  0  0  0
   48.9280   35.7640   41.3270 C   0  0  0  0  0  0  0  0  0  0  0  0
   46.7217   30.0594   46.8880 H   0  0  0  0  0  0  0  0  0  0  0  0
   44.9394   30.0892   46.6486 H   0  0  0  0  0  0  0  0  0  0  0  0
   45.1360   32.3193   47.5429 H   0  0  0  0  0  0  0  0  0  0  0  0
   44.8259   31.0837   50.0995 H   0  0  0  0  0  0  0  0  0  0  0  0
   45.2959   29.6964   49.5707 H   0  0  0  0  0  0  0  0  0  0  0  0
   47.3056   32.2022   49.7106 H   0  0  0  0  0  0  0  0  0  0  0  0
   47.6856   30.4103   47.7920 H   0  0  0  0  0  0  0  0  0  0  0  0
   48.5835   30.6399   50.9404 H   0  0  0  0  0  0  0  0  0  0  0  0
   49.4826   29.5893   50.2223 H   0  0  0  0  0  0  0  0  0  0  0  0
   50.2011   31.6504   48.4499 H   0  0  0  0  0  0  0  0  0  0  0  0
   49.5112   32.7427   49.3258 H   0  0  0  0  0  0  0  0  0  0  0  0
   45.5715   33.2168   46.8692 H   0  0  0  0  0  0  0  0  0  0  0  0
   46.2766   31.2720   44.6060 H   0  0  0  0  0  0  0  0  0  0  0  0
   44.3278   36.3216   43.2827 H   0  0  0  0  0  0  0  0  0  0  0  0
   46.3542   36.2988   41.8050 H   0  0  0  0  0  0  0  0  0  0  0  0
   49.0089   33.9312   42.7796 H   0  0  0  0  0  0  0  0  0  0  0  0
   47.1173   34.9090   40.2333 H   0  0  0  0  0  0  0  0  0  0  0  0
   48.3041   34.0880   39.6754 H   0  0  0  0  0  0  0  0  0  0  0  0
   50.0014   35.8920   41.1233 H   0  0  0  0  0  0  0  0  0  0  0  0
   48.8104   36.8501   41.4559 H   0  0  0  0  0  0  0  0  0  0  0  0
  1  2  1  0
  2  4  1  0
  2  3  1  0
  4  3  1  0
  5  4  1  0
  5  7  1  0
  5  6  1  0
  7  6  1  0
  9  8  2  0
  9  1  1  0
 10 15  2  0
 11 12  2  0
 11 10  1  0
 12 13  1  0
 13 14  2  0
 14  8  1  0
 15 14  1  0
 16 12  1  0
 17 18  1  0
 17 16  1  0
 18 16  1  0
  1 19  1  0
  1 20  1  0
  2 21  1  6
  3 22  1  0
  3 23  1  0
  4 24  1  1
  5 25  1  0
  6 26  1  0
  6 27  1  0
  7 28  1  0
  7 29  1  0
  8 30  1  0
  9 31  1  0
 10 32  1  0
 11 33  1  0
 16 34  1  0
 17 35  1  0
 17 36  1  0
 18 37  1  0
 18 38  1  0
M  ISO  8  19   8  20   8  21  13  22  13  23  13  24  13  25  13  26  13
M  ISO  8  27  13  28  13  29  13  32  14  33  14  34  13  35  13  36  13
M  ISO  2  37  13  38  13
M  END
>  <minimizedAffinity>  (1) 
-5.37038994

>  <minimizedRMSD>  (1) 
1.27276444

$$$$
