
     RDKit          3D

 46 49  0  0  1  0  0  0  0  0999 V2000
   45.9920   30.8300   46.9920 C   0  0  0  0  0  0  0  0  0  0  0  0
   45.8580   31.5160   48.3280 C   0  0  1  0  0  0  0  0  0  0  0  0
   45.6730   30.6360   49.5140 C   0  0  0  0  0  0  0  0  0  0  0  0
   46.9250   31.3480   49.3420 C   0  0  1  0  0  0  0  0  0  0  0  0
   48.2040   30.7420   48.9100 C   0  0  0  0  0  0  0  0  0  0  0  0
   49.1930   30.4300   50.0680 C   0  0  0  0  0  0  0  0  0  0  0  0
   49.4690   31.5840   49.1890 C   0  0  0  0  0  0  0  0  0  0  0  0
   45.6110   33.0430   46.2320 C   0  0  0  0  0  0  0  0  0  0  0  0
   45.9130   31.8570   45.8750 C   0  0  0  0  0  0  0  0  0  0  0  0
   44.6500   36.0940   44.4140 C   0  0  0  0  0  0  0  0  0  0  0  0
   45.3130   35.9740   43.2010 C   0  0  0  0  0  0  0  0  0  0  0  0
   46.0780   34.8600   43.0460 C   0  0  0  0  0  0  0  0  0  0  0  0
   46.1650   33.9400   44.0400 N   0  0  0  0  0  0  0  0  0  0  0  0
   45.5120   34.0760   45.2040 C   0  0  0  0  0  0  0  0  0  0  0  0
   44.7630   35.1640   45.3630 N   0  0  0  0  0  0  0  0  0  0  0  0
   46.8070   34.6240   41.8480 N   0  0  0  0  0  0  0  0  0  0  0  0
   47.9420   35.4410   41.4770 C   0  0  0  0  0  0  0  0  0  0  0  0
   48.8980   34.6890   40.5780 C   0  0  0  0  0  0  0  0  0  0  0  0
   48.1970   34.3470   39.3050 C   0  0  0  0  0  0  0  0  0  0  0  0
   46.8000   33.8640   39.5100 C   0  0  0  0  0  0  0  0  0  0  0  0
   46.4470   33.5520   40.9400 C   0  0  0  0  0  0  0  0  0  0  0  0
   46.9610   30.3116   46.9434 H   0  0  0  0  0  0  0  0  0  0  0  0
   45.1756   30.1023   46.8743 H   0  0  0  0  0  0  0  0  0  0  0  0
   45.3464   32.3823   47.8833 H   0  0  0  0  0  0  0  0  0  0  0  0
   44.9788   30.9325   50.3141 H   0  0  0  0  0  0  0  0  0  0  0  0
   45.3951   29.5818   49.6607 H   0  0  0  0  0  0  0  0  0  0  0  0
   47.5030   31.9807   50.0316 H   0  0  0  0  0  0  0  0  0  0  0  0
   47.7845   30.2067   48.0454 H   0  0  0  0  0  0  0  0  0  0  0  0
   48.8847   30.5983   51.1104 H   0  0  0  0  0  0  0  0  0  0  0  0
   49.7641   29.5415   50.3753 H   0  0  0  0  0  0  0  0  0  0  0  0
   50.3154   31.5443   48.4876 H   0  0  0  0  0  0  0  0  0  0  0  0
   49.6545   32.6540   49.3641 H   0  0  0  0  0  0  0  0  0  0  0  0
   45.4291   33.2829   47.2900 H   0  0  0  0  0  0  0  0  0  0  0  0
   46.1044   31.5937   44.8243 H   0  0  0  0  0  0  0  0  0  0  0  0
   44.0176   36.9753   44.5967 H   0  0  0  0  0  0  0  0  0  0  0  0
   45.2251   36.7348   42.4114 H   0  0  0  0  0  0  0  0  0  0  0  0
   47.5808   36.3344   40.9465 H   0  0  0  0  0  0  0  0  0  0  0  0
   48.4800   35.7204   42.3949 H   0  0  0  0  0  0  0  0  0  0  0  0
   49.7729   35.3192   40.3600 H   0  0  0  0  0  0  0  0  0  0  0  0
   49.2333   33.7683   41.0778 H   0  0  0  0  0  0  0  0  0  0  0  0
   48.7675   33.5576   38.7938 H   0  0  0  0  0  0  0  0  0  0  0  0
   48.1379   35.2693   38.7085 H   0  0  0  0  0  0  0  0  0  0  0  0
   46.1116   34.6423   39.1489 H   0  0  0  0  0  0  0  0  0  0  0  0
   46.7129   32.9186   38.9545 H   0  0  0  0  0  0  0  0  0  0  0  0
   45.3621   33.3828   41.0066 H   0  0  0  0  0  0  0  0  0  0  0  0
   47.0150   32.6580   41.2368 H   0  0  0  0  0  0  0  0  0  0  0  0
  1  2  1  0
  2  4  1  0
  2  3  1  0
  4  3  1  0
  5  7  1  0
  5  4  1  0
  5  6  1  0
  7  6  1  0
  9  8  2  0
  9  1  1  0
 10 15  2  0
 11 10  1  0
 12 11  2  0
 12 13  1  0
 13 14  2  0
 14 15  1  0
 14  8  1  0
 16 12  1  0
 17 16  1  0
 18 17  1  0
 19 20  1  0
 19 18  1  0
 20 21  1  0
 21 16  1  0
  1 22  1  0
  1 23  1  0
  2 24  1  6
  3 25  1  0
  3 26  1  0
  4 27  1  1
  5 28  1  0
  6 29  1  0
  6 30  1  0
  7 31  1  0
  7 32  1  0
  8 33  1  0
  9 34  1  0
 10 35  1  0
 11 36  1  0
 17 37  1  0
 17 38  1  0
 18 39  1  0
 18 40  1  0
 19 41  1  0
 19 42  1  0
 20 43  1  0
 20 44  1  0
 21 45  1  0
 21 46  1  0
M  ISO  8  22   8  23   8  24  13  25  13  26  13  27  13  28  13  29  13
M  ISO  8  30  13  31  13  32  13  35  14  36  14  37  13  38  13  39  13
M  ISO  7  40  13  41  13  42  13  43  13  44  13  45  13  46  13
M  END
>  <minimizedAffinity>  (1) 
-5.32006454

>  <minimizedRMSD>  (1) 
0.799694359

$$$$
