
     RDKit          3D

 33 35  0  0  1  0  0  0  0  0999 V2000
   47.1590   31.1310   46.7820 C   0  0  0  0  0  0  0  0  0  0  0  0
   46.7790   31.6750   48.1380 C   0  0  1  0  0  0  0  0  0  0  0  0
   46.2120   30.7000   49.1050 C   0  0  0  0  0  0  0  0  0  0  0  0
   47.5370   31.2440   49.3370 C   0  0  1  0  0  0  0  0  0  0  0  0
   48.7990   30.5030   49.1230 C   0  0  0  0  0  0  0  0  0  0  0  0
   49.6400   30.2600   50.4020 C   0  0  0  0  0  0  0  0  0  0  0  0
   50.0980   31.2840   49.4410 C   0  0  0  0  0  0  0  0  0  0  0  0
   46.0810   33.1070   46.0380 C   0  0  0  0  0  0  0  0  0  0  0  0
   46.8750   32.1650   45.7070 C   0  0  0  0  0  0  0  0  0  0  0  0
   44.5050   35.9770   44.3620 C   0  0  0  0  0  0  0  0  0  0  0  0
   45.1300   36.0170   43.1240 C   0  0  0  0  0  0  0  0  0  0  0  0
   46.0960   35.0530   42.8970 C   0  0  0  0  0  0  0  0  0  0  0  0
   46.3730   34.1480   43.8630 N   0  0  0  0  0  0  0  0  0  0  0  0
   45.7550   34.1320   45.0500 C   0  0  0  0  0  0  0  0  0  0  0  0
   44.8280   35.0550   45.2720 N   0  0  0  0  0  0  0  0  0  0  0  0
   46.8120   34.9890   41.6590 N   0  0  0  0  0  0  0  0  0  0  0  0
   48.2311   30.8850   46.7760 H   0  0  0  0  0  0  0  0  0  0  0  0
   46.5665   30.2270   46.5777 H   0  0  0  0  0  0  0  0  0  0  0  0
   46.4942   32.6513   47.7187 H   0  0  0  0  0  0  0  0  0  0  0  0
   45.3761   30.9962   49.7558 H   0  0  0  0  0  0  0  0  0  0  0  0
   45.7946   29.6853   49.0265 H   0  0  0  0  0  0  0  0  0  0  0  0
   47.9918   31.7100   50.2235 H   0  0  0  0  0  0  0  0  0  0  0  0
   48.4224   29.8980   48.2850 H   0  0  0  0  0  0  0  0  0  0  0  0
   49.2455   30.5683   51.3814 H   0  0  0  0  0  0  0  0  0  0  0  0
   50.1034   29.3741   50.8608 H   0  0  0  0  0  0  0  0  0  0  0  0
   51.0031   31.1043   48.8423 H   0  0  0  0  0  0  0  0  0  0  0  0
   50.3536   32.3511   49.5187 H   0  0  0  0  0  0  0  0  0  0  0  0
   45.6497   33.1466   47.0492 H   0  0  0  0  0  0  0  0  0  0  0  0
   47.3257   32.1055   44.7054 H   0  0  0  0  0  0  0  0  0  0  0  0
   43.7283   36.7193   44.5984 H   0  0  0  0  0  0  0  0  0  0  0  0
   44.8723   36.7718   42.3665 H   0  0  0  0  0  0  0  0  0  0  0  0
   47.5267   34.2615   41.5144 H   0  0  0  0  0  0  0  0  0  0  0  0
   46.6124   35.6704   40.9128 H   0  0  0  0  0  0  0  0  0  0  0  0
  1  2  1  0
  2  3  1  0
  2  4  1  0
  3  4  1  0
  5  4  1  0
  5  7  1  0
  5  6  1  0
  7  6  1  0
  9  8  2  0
  9  1  1  0
 10 15  2  0
 11 10  1  0
 12 11  2  0
 12 13  1  0
 13 14  2  0
 14 15  1  0
 14  8  1  0
 16 12  1  0
  1 17  1  0
  1 18  1  0
  2 19  1  6
  3 20  1  0
  3 21  1  0
  4 22  1  1
  5 23  1  0
  6 24  1  0
  6 25  1  0
  7 26  1  0
  7 27  1  0
  8 28  1  0
  9 29  1  0
 10 30  1  0
 11 31  1  0
 16 32  1  0
 16 33  1  0
M  ISO  8  17   8  18   8  19  13  20  13  21  13  22  13  23  13  24  13
M  ISO  5  25  13  26  13  27  13  30  14  31  14
M  END
>  <minimizedAffinity>  (1) 
-4.79280519

>  <minimizedRMSD>  (1) 
0.152066559

$$$$
