
     RDKit          3D

 39 42  0  0  1  0  0  0  0  0999 V2000
   48.9500   31.9780   43.0350 O   0  0  0  0  0  0  0  0  0  0  0  0
   50.1850   32.3000   42.2070 P   0  0  2  0  0  0  0  0  0  0  0  0
   51.5460   31.5940   42.8230 O   0  0  0  0  0  0  0  0  0  0  0  0
   50.2460   33.9810   42.0500 O   0  0  0  0  0  0  0  0  0  0  0  0
   48.0160   34.4950   41.1370 C   0  0  1  0  0  0  0  0  0  0  0  0
   48.7340   35.7790   41.7130 C   0  0  0  0  0  0  0  0  0  0  0  0
   48.9720   34.4700   42.2710 C   0  0  2  0  0  0  0  0  0  0  0  0
   46.5480   34.5180   41.4090 C   0  0  0  0  0  0  0  0  0  0  0  0
   45.7990   34.2760   40.4710 O   0  0  0  0  0  0  0  0  0  0  0  0
   45.3500   35.9460   43.0000 C   0  0  0  0  0  0  0  0  0  0  0  0
   45.9570   34.7960   42.6670 C   0  0  0  0  0  0  0  0  0  0  0  0
   45.9950   33.7920   43.6900 C   0  0  0  0  0  0  0  0  0  0  0  0
   45.4480   34.0130   44.9050 N   0  0  0  0  0  0  0  0  0  0  0  0
   44.8480   35.2030   45.1740 C   0  0  0  0  0  0  0  0  0  0  0  0
   44.8060   36.1330   44.2430 N   0  0  0  0  0  0  0  0  0  0  0  0
   49.8010   31.6570   40.6390 O   0  0  0  0  0  0  0  0  0  0  0  0
   50.7280   31.4630   39.6420 C   0  0  0  0  0  0  0  0  0  0  0  0
   50.6400   31.7780   38.2910 C   0  0  0  0  0  0  0  0  0  0  0  0
   51.6950   31.4980   37.4440 C   0  0  0  0  0  0  0  0  0  0  0  0
   52.8100   30.9160   37.9490 N   0  0  0  0  0  0  0  0  0  0  0  0
   52.9010   30.6070   39.2620 C   0  0  0  0  0  0  0  0  0  0  0  0
   51.8650   30.8760   40.1160 N   0  0  0  0  0  0  0  0  0  0  0  0
   54.1210   29.9800   39.7650 C   0  0  0  0  0  0  0  0  0  0  0  0
   54.2320   29.9480   41.1220 N   0  0  0  0  0  0  0  0  0  0  0  0
   55.4030   29.3430   41.4660 C   0  0  0  0  0  0  0  0  0  0  0  0
   55.9950   29.0110   40.2820 N   0  0  0  0  0  0  0  0  0  0  0  0
   55.2150   29.3980   39.2620 N   0  0  0  0  0  0  0  0  0  0  0  0
   51.5089   31.6132   43.8121 H   0  0  0  0  0  0  0  0  0  0  0  0
   47.9336   33.9179   40.2042 H   0  0  0  0  0  0  0  0  0  0  0  0
   49.5184   36.2835   41.1298 H   0  0  0  0  0  0  0  0  0  0  0  0
   48.4068   36.7532   42.1053 H   0  0  0  0  0  0  0  0  0  0  0  0
   48.8860   34.0325   43.2766 H   0  0  0  0  0  0  0  0  0  0  0  0
   45.2881   36.7560   42.2583 H   0  0  0  0  0  0  0  0  0  0  0  0
   46.4777   32.8257   43.4818 H   0  0  0  0  0  0  0  0  0  0  0  0
   44.4010   35.3874   46.1620 H   0  0  0  0  0  0  0  0  0  0  0  0
   49.7290   32.2510   37.8956 H   0  0  0  0  0  0  0  0  0  0  0  0
   51.6309   31.7442   36.3738 H   0  0  0  0  0  0  0  0  0  0  0  0
   55.7885   29.1612   42.4800 H   0  0  0  0  0  0  0  0  0  0  0  0
   56.9035   28.5352   40.1863 H   0  0  0  0  0  0  0  0  0  0  0  0
  2  3  1  0
  2  1  2  0
  4  2  1  0
  4  7  1  0
  5  8  1  0
  5  6  1  0
  5  7  1  0
  6  7  1  0
  8 11  1  0
  9  8  2  0
 10 15  2  0
 11 10  1  0
 11 12  2  0
 12 13  1  0
 13 14  2  0
 15 14  1  0
 16  2  1  0
 17 22  1  0
 17 16  1  0
 18 17  2  0
 19 20  2  0
 19 18  1  0
 20 21  1  0
 21 23  1  0
 21 22  2  0
 23 24  1  0
 24 25  2  0
 26 25  1  0
 27 23  2  0
 27 26  1  0
  3 28  1  0
  5 29  1  6
  6 30  1  0
  6 31  1  0
  7 32  1  1
 10 33  1  0
 12 34  1  0
 14 35  1  0
 18 36  1  0
 19 37  1  0
 25 38  1  0
 26 39  1  0
M  ISO  8  28   3  29  13  30  13  31  13  32  13  33  14  34  14  35  14
M  ISO  4  36  14  37  14  38  14  39   9
M  END
>  <minimizedAffinity>  (1) 
-5.1495018

>  <minimizedRMSD>  (1) 
0.780499279

$$$$
