
     RDKit          3D

 39 41  0  0  0  0  0  0  0  0999 V2000
   44.9060   33.6320   41.3640 C   0  0  0  0  0  0  0  0  0  0  0  0
   46.2270   34.1300   40.9900 C   0  0  0  0  0  0  0  0  0  0  0  0
   46.8370   33.8610   39.7840 C   0  0  0  0  0  0  0  0  0  0  0  0
   48.0780   34.3130   39.3950 C   0  0  0  0  0  0  0  0  0  0  0  0
   48.7610   35.1070   40.3090 C   0  0  0  0  0  0  0  0  0  0  0  0
   48.1650   35.3950   41.5370 C   0  0  0  0  0  0  0  0  0  0  0  0
   46.9130   34.9240   41.8990 C   0  0  0  0  0  0  0  0  0  0  0  0
   46.3490   35.2730   43.2160 C   0  0  0  0  0  0  0  0  0  0  0  0
   46.1840   34.1220   44.1530 C   0  0  0  0  0  0  0  0  0  0  0  0
   45.0100   34.4900   45.0670 C   0  0  0  0  0  0  0  0  0  0  0  0
   44.6170   35.9080   44.6450 C   0  0  0  0  0  0  0  0  0  0  0  0
   44.9670   35.8530   43.1520 C   0  0  0  0  0  0  0  0  0  0  0  0
   43.9500   33.6190   40.1770 C   0  0  0  0  0  0  0  0  0  0  0  0
   40.9630   35.6200   41.2770 C   0  0  0  0  0  0  0  0  0  0  0  0
   42.2640   35.3020   40.8120 C   0  0  0  0  0  0  0  0  0  0  0  0
   42.5990   33.9630   40.6610 C   0  0  0  0  0  0  0  0  0  0  0  0
   41.6390   33.0480   40.9760 N   0  0  0  0  0  0  0  0  0  0  0  0
   40.4200   33.3620   41.4120 C   0  0  0  0  0  0  0  0  0  0  0  0
   40.0710   34.6600   41.5670 N   0  0  0  0  0  0  0  0  0  0  0  0
   45.0079   32.6072   41.7505 H   0  0  0  0  0  0  0  0  0  0  0  0
   44.4913   34.3036   42.1301 H   0  0  0  0  0  0  0  0  0  0  0  0
   46.2851   33.2311   39.0709 H   0  0  0  0  0  0  0  0  0  0  0  0
   48.5059   34.0595   38.4139 H   0  0  0  0  0  0  0  0  0  0  0  0
   49.7583   35.5030   40.0672 H   0  0  0  0  0  0  0  0  0  0  0  0
   48.7146   36.0255   42.2514 H   0  0  0  0  0  0  0  0  0  0  0  0
   47.1010   35.9920   43.5731 H   0  0  0  0  0  0  0  0  0  0  0  0
   45.9595   33.2020   43.5933 H   0  0  0  0  0  0  0  0  0  0  0  0
   47.1020   33.9356   44.7296 H   0  0  0  0  0  0  0  0  0  0  0  0
   44.1706   33.7947   44.9188 H   0  0  0  0  0  0  0  0  0  0  0  0
   45.2786   34.4327   46.1322 H   0  0  0  0  0  0  0  0  0  0  0  0
   43.5457   36.0988   44.8057 H   0  0  0  0  0  0  0  0  0  0  0  0
   45.1154   36.7117   45.2068 H   0  0  0  0  0  0  0  0  0  0  0  0
   44.9678   36.8549   42.6980 H   0  0  0  0  0  0  0  0  0  0  0  0
   44.2579   35.2806   42.5359 H   0  0  0  0  0  0  0  0  0  0  0  0
   43.9374   32.6178   39.7215 H   0  0  0  0  0  0  0  0  0  0  0  0
   44.2770   34.3484   39.4213 H   0  0  0  0  0  0  0  0  0  0  0  0
   40.6788   36.6752   41.4027 H   0  0  0  0  0  0  0  0  0  0  0  0
   42.9890   36.0952   40.5770 H   0  0  0  0  0  0  0  0  0  0  0  0
   39.6974   32.5663   41.6459 H   0  0  0  0  0  0  0  0  0  0  0  0
  2  1  1  0
  2  7  1  0
  3  2  2  0
  4  3  1  0
  4  5  2  0
  5  6  1  0
  6  7  2  0
  7  8  1  0
  8  9  1  0
  9 10  1  0
 11 10  1  0
 12  8  1  0
 12 11  1  0
 13 16  1  0
 13  1  1  0
 14 19  2  0
 15 14  1  0
 16 15  2  0
 16 17  1  0
 17 18  2  0
 18 19  1  0
  1 20  1  0
  1 21  1  0
  3 22  1  0
  4 23  1  0
  5 24  1  0
  6 25  1  0
  8 26  1  0
  9 27  1  0
  9 28  1  0
 10 29  1  0
 10 30  1  0
 11 31  1  0
 11 32  1  0
 12 33  1  0
 12 34  1  0
 13 35  1  0
 13 36  1  0
 14 37  1  0
 15 38  1  0
 18 39  1  0
M  ISO  8  20   8  21   8  22  14  23  14  24  14  25  14  26  13  27  13
M  ISO  8  28  13  29  13  30  13  31  13  32  13  33  13  34  13  35   8
M  ISO  4  36   8  37  14  38  14  39  14
M  END
>  <minimizedAffinity>  (1) 
-5.57612753

>  <minimizedRMSD>  (1) 
0.731360674

$$$$
