
     RDKit          3D

 34 35  0  0  0  0  0  0  0  0999 V2000
   46.3010   34.0480   41.0650 C   0  0  0  0  0  0  0  0  0  0  0  0
   47.1360   34.0610   39.9860 C   0  0  0  0  0  0  0  0  0  0  0  0
   48.3450   34.7090   39.8600 C   0  0  0  0  0  0  0  0  0  0  0  0
   48.7300   35.4280   40.9870 C   0  0  0  0  0  0  0  0  0  0  0  0
   47.9300   35.4540   42.1070 C   0  0  0  0  0  0  0  0  0  0  0  0
   46.7440   34.7840   42.1520 C   0  0  0  0  0  0  0  0  0  0  0  0
   45.0210   33.3410   41.1480 C   0  0  0  0  0  0  0  0  0  0  0  0
   44.2310   33.4810   39.8450 C   0  0  0  0  0  0  0  0  0  0  0  0
   41.0960   35.5790   40.0300 C   0  0  0  0  0  0  0  0  0  0  0  0
   42.4020   35.1600   39.6750 C   0  0  0  0  0  0  0  0  0  0  0  0
   42.8730   33.9500   40.1930 C   0  0  0  0  0  0  0  0  0  0  0  0
   42.0300   33.2520   41.0130 N   0  0  0  0  0  0  0  0  0  0  0  0
   40.8090   33.6820   41.3210 C   0  0  0  0  0  0  0  0  0  0  0  0
   40.3240   34.8330   40.8450 N   0  0  0  0  0  0  0  0  0  0  0  0
   45.9360   34.8220   43.3180 N   0  0  0  0  0  0  0  0  0  0  0  0
   44.7030   35.8380   43.9170 S   0  0  0  0  0  0  0  0  0  0  0  0
   44.5430   35.6910   45.4040 O   0  0  0  0  0  0  0  0  0  0  0  0
   43.3980   35.4940   43.2860 O   0  0  0  0  0  0  0  0  0  0  0  0
   45.0900   37.4730   43.6610 O   0  0  0  0  0  0  0  0  0  0  0  0
   46.8034   33.4840   39.1105 H   0  0  0  0  0  0  0  0  0  0  0  0
   48.9545   34.6619   38.9455 H   0  0  0  0  0  0  0  0  0  0  0  0
   49.6813   35.9802   40.9832 H   0  0  0  0  0  0  0  0  0  0  0  0
   48.2556   36.0291   42.9863 H   0  0  0  0  0  0  0  0  0  0  0  0
   45.2109   32.2748   41.3406 H   0  0  0  0  0  0  0  0  0  0  0  0
   44.4301   33.7812   41.9648 H   0  0  0  0  0  0  0  0  0  0  0  0
   44.1725   32.5078   39.3356 H   0  0  0  0  0  0  0  0  0  0  0  0
   44.7245   34.1949   39.1692 H   0  0  0  0  0  0  0  0  0  0  0  0
   40.7058   36.5283   39.6342 H   0  0  0  0  0  0  0  0  0  0  0  0
   43.0291   35.7709   39.0091 H   0  0  0  0  0  0  0  0  0  0  0  0
   40.1804   33.0724   41.9868 H   0  0  0  0  0  0  0  0  0  0  0  0
   46.1454   34.0450   43.9609 H   0  0  0  0  0  0  0  0  0  0  0  0
   45.1880   36.2836   45.8655 H   0  0  0  0  0  0  0  0  0  0  0  0
   42.7267   35.3170   43.9918 H   0  0  0  0  0  0  0  0  0  0  0  0
   45.1975   37.9273   44.5340 H   0  0  0  0  0  0  0  0  0  0  0  0
  1  7  1  0
  1  6  1  0
  2  1  2  0
  3  2  1  0
  3  4  2  0
  4  5  1  0
  5  6  2  0
  6 15  1  0
  8 11  1  0
  8  7  1  0
  9 14  2  0
 10  9  1  0
 10 11  2  0
 11 12  1  0
 12 13  2  0
 14 13  1  0
 15 16  1  0
 16 17  1  0
 18 16  1  0
 19 16  1  0
  2 20  1  0
  3 21  1  0
  4 22  1  0
  5 23  1  0
  7 24  1  0
  7 25  1  0
  8 26  1  0
  8 27  1  0
  9 28  1  0
 10 29  1  0
 13 30  1  0
 15 31  1  0
 17 32  1  0
 18 33  1  0
 19 34  1  0
M  ISO  8  20  14  21  14  22  14  23  14  24   8  25   8  26   8  27   8
M  ISO  6  28  14  29  14  30  14  32   3  33   3  34   3
M  END
>  <minimizedAffinity>  (1) 
-5.23373985

>  <minimizedRMSD>  (1) 
0.998399854

$$$$
