
     RDKit          3D

 30 31  0  0  0  0  0  0  0  0999 V2000
   43.7560   34.1190   41.5570 C   0  0  0  0  0  0  0  0  0  0  0  0
   45.2090   34.2620   41.7450 C   0  0  0  0  0  0  0  0  0  0  0  0
   46.1580   34.2980   40.7580 C   0  0  0  0  0  0  0  0  0  0  0  0
   47.5110   34.4350   40.9930 C   0  0  0  0  0  0  0  0  0  0  0  0
   47.9220   34.5430   42.3180 C   0  0  0  0  0  0  0  0  0  0  0  0
   46.9900   34.5100   43.3310 C   0  0  0  0  0  0  0  0  0  0  0  0
   45.6600   34.3730   43.0550 C   0  0  0  0  0  0  0  0  0  0  0  0
   44.5010   35.6960   44.5680 C   0  0  0  0  0  0  0  0  0  0  0  0
   45.0390   36.6180   43.9020 O   0  0  0  0  0  0  0  0  0  0  0  0
   44.7820   34.3500   44.1770 N   0  0  0  0  0  0  0  0  0  0  0  0
   43.4050   34.2900   40.0770 C   0  0  0  0  0  0  0  0  0  0  0  0
   39.9870   35.8290   40.5470 C   0  0  0  0  0  0  0  0  0  0  0  0
   41.3860   35.6250   40.6920 C   0  0  0  0  0  0  0  0  0  0  0  0
   41.9450   34.5760   39.9830 C   0  0  0  0  0  0  0  0  0  0  0  0
   41.1310   33.8000   39.1890 N   0  0  0  0  0  0  0  0  0  0  0  0
   39.8140   34.0370   39.0880 C   0  0  0  0  0  0  0  0  0  0  0  0
   39.2390   35.0550   39.7690 N   0  0  0  0  0  0  0  0  0  0  0  0
   43.4408   33.1205   41.8940 H   0  0  0  0  0  0  0  0  0  0  0  0
   43.2363   34.8900   42.1448 H   0  0  0  0  0  0  0  0  0  0  0  0
   45.8212   34.2125   39.7143 H   0  0  0  0  0  0  0  0  0  0  0  0
   48.2357   34.4579   40.1658 H   0  0  0  0  0  0  0  0  0  0  0  0
   48.9902   34.6546   42.5559 H   0  0  0  0  0  0  0  0  0  0  0  0
   47.3214   34.5951   44.3764 H   0  0  0  0  0  0  0  0  0  0  0  0
   43.8396   35.9172   45.4187 H   0  0  0  0  0  0  0  0  0  0  0  0
   44.4110   33.5033   44.6313 H   0  0  0  0  0  0  0  0  0  0  0  0
   43.9780   35.1268   39.6512 H   0  0  0  0  0  0  0  0  0  0  0  0
   43.6538   33.3771   39.5160 H   0  0  0  0  0  0  0  0  0  0  0  0
   39.5089   36.6535   41.0962 H   0  0  0  0  0  0  0  0  0  0  0  0
   41.9971   36.2718   41.3387 H   0  0  0  0  0  0  0  0  0  0  0  0
   39.1944   33.3959   38.4438 H   0  0  0  0  0  0  0  0  0  0  0  0
  1  2  1  0
  2  7  2  0
  3  4  2  0
  3  2  1  0
  4  5  1  0
  5  6  2  0
  7  6  1  0
  7 10  1  0
  9  8  2  0
 10  8  1  0
 11  1  1  0
 12 13  2  0
 14 11  1  0
 14 13  1  0
 15 14  2  0
 16 15  1  0
 16 17  2  0
 17 12  1  0
  1 18  1  0
  1 19  1  0
  3 20  1  0
  4 21  1  0
  5 22  1  0
  6 23  1  0
  8 24  1  0
 10 25  1  0
 11 26  1  0
 11 27  1  0
 12 28  1  0
 13 29  1  0
 16 30  1  0
M  ISO  8  18   8  19   8  20  14  21  14  22  14  23  14  24   6  26   8
M  ISO  4  27   8  28  14  29  14  30  14
M  END
>  <minimizedAffinity>  (1) 
-4.92815304

>  <minimizedRMSD>  (1) 
1.91277444

$$$$
