
     RDKit          3D

 28 29  0  0  0  0  0  0  0  0999 V2000
   44.4430   33.8020   41.1750 C   0  0  0  0  0  0  0  0  0  0  0  0
   45.8560   34.2170   41.0670 C   0  0  0  0  0  0  0  0  0  0  0  0
   46.6970   33.9310   40.0260 C   0  0  0  0  0  0  0  0  0  0  0  0
   48.0120   34.3160   39.9270 C   0  0  0  0  0  0  0  0  0  0  0  0
   48.5010   35.0610   40.9940 C   0  0  0  0  0  0  0  0  0  0  0  0
   47.6860   35.3720   42.0620 C   0  0  0  0  0  0  0  0  0  0  0  0
   46.3790   34.9620   42.1140 C   0  0  0  0  0  0  0  0  0  0  0  0
   45.6440   35.3690   43.3100 C   0  0  0  0  0  0  0  0  0  0  0  0
   45.0870   36.4940   43.4710 O   0  0  0  0  0  0  0  0  0  0  0  0
   43.7490   33.9200   39.8130 C   0  0  0  0  0  0  0  0  0  0  0  0
   40.9610   35.9770   41.3200 C   0  0  0  0  0  0  0  0  0  0  0  0
   42.2260   35.3640   41.1630 C   0  0  0  0  0  0  0  0  0  0  0  0
   42.4380   34.5910   40.0340 C   0  0  0  0  0  0  0  0  0  0  0  0
   41.4100   34.4670   39.1420 N   0  0  0  0  0  0  0  0  0  0  0  0
   40.2290   35.0610   39.3230 C   0  0  0  0  0  0  0  0  0  0  0  0
   39.9910   35.8190   40.4090 N   0  0  0  0  0  0  0  0  0  0  0  0
   44.3965   32.7575   41.5168 H   0  0  0  0  0  0  0  0  0  0  0  0
   43.9314   34.4570   41.8956 H   0  0  0  0  0  0  0  0  0  0  0  0
   46.2835   33.3406   39.1950 H   0  0  0  0  0  0  0  0  0  0  0  0
   48.6366   34.0523   39.0608 H   0  0  0  0  0  0  0  0  0  0  0  0
   49.5458   35.4050   40.9863 H   0  0  0  0  0  0  0  0  0  0  0  0
   48.0952   35.9644   42.8936 H   0  0  0  0  0  0  0  0  0  0  0  0
   45.5693   34.6425   44.1325 H   0  0  0  0  0  0  0  0  0  0  0  0
   43.5910   32.9194   39.3843 H   0  0  0  0  0  0  0  0  0  0  0  0
   44.3675   34.5003   39.1125 H   0  0  0  0  0  0  0  0  0  0  0  0
   40.7694   36.5964   42.2086 H   0  0  0  0  0  0  0  0  0  0  0  0
   43.0175   35.4974   41.9152 H   0  0  0  0  0  0  0  0  0  0  0  0
   39.4365   34.9288   38.5717 H   0  0  0  0  0  0  0  0  0  0  0  0
  2  1  1  0
  2  7  1  0
  3  2  2  0
  4  3  1  0
  4  5  2  0
  5  6  1  0
  6  7  2  0
  7  8  1  0
  8  9  2  0
 10 13  1  0
 10  1  1  0
 12 11  2  0
 13 12  1  0
 14 15  1  0
 14 13  2  0
 15 16  2  0
 16 11  1  0
  1 17  1  0
  1 18  1  0
  3 19  1  0
  4 20  1  0
  5 21  1  0
  6 22  1  0
  8 23  1  0
 10 24  1  0
 10 25  1  0
 11 26  1  0
 12 27  1  0
 15 28  1  0
M  ISO  8  17   8  18   8  19  14  20  14  21  14  22  14  23   6  24   8
M  ISO  4  25   8  26  14  27  14  28  14
M  END
>  <minimizedAffinity>  (1) 
-4.85218382

>  <minimizedRMSD>  (1) 
1.47057438

$$$$
