
     RDKit          3D

 29 31  0  0  0  0  0  0  0  0999 V2000
   47.1640   32.0120   45.2590 C   0  0  0  0  0  0  0  0  0  0  0  0
   46.5820   33.2110   44.6120 C   0  0  0  0  0  0  0  0  0  0  0  0
   45.4200   33.8500   44.9900 C   0  0  0  0  0  0  0  0  0  0  0  0
   44.9980   34.9620   44.2910 C   0  0  0  0  0  0  0  0  0  0  0  0
   45.7000   35.4680   43.2140 C   0  0  0  0  0  0  0  0  0  0  0  0
   46.8780   34.8190   42.8330 C   0  0  0  0  0  0  0  0  0  0  0  0
   47.5730   35.3370   41.7530 C   0  0  0  0  0  0  0  0  0  0  0  0
   48.7510   34.7000   41.3580 C   0  0  0  0  0  0  0  0  0  0  0  0
   49.2140   33.5820   42.0280 C   0  0  0  0  0  0  0  0  0  0  0  0
   48.4850   33.1130   43.0930 C   0  0  0  0  0  0  0  0  0  0  0  0
   47.3090   33.6910   43.5400 C   0  0  0  0  0  0  0  0  0  0  0  0
   46.5180   31.7060   46.5650 C   0  0  0  0  0  0  0  0  0  0  0  0
   46.9270   32.4360   47.6940 C   0  0  0  0  0  0  0  0  0  0  0  0
   46.3330   32.1640   48.9300 C   0  0  0  0  0  0  0  0  0  0  0  0
   45.3830   31.1990   48.9820 N   0  0  0  0  0  0  0  0  0  0  0  0
   45.0110   30.5100   47.8680 C   0  0  0  0  0  0  0  0  0  0  0  0
   45.5720   30.7600   46.6750 N   0  0  0  0  0  0  0  0  0  0  0  0
   48.2370   32.1863   45.4272 H   0  0  0  0  0  0  0  0  0  0  0  0
   46.9966   31.1541   44.5912 H   0  0  0  0  0  0  0  0  0  0  0  0
   44.8340   33.4759   45.8424 H   0  0  0  0  0  0  0  0  0  0  0  0
   44.0697   35.4635   44.6022 H   0  0  0  0  0  0  0  0  0  0  0  0
   45.3423   36.3559   42.6720 H   0  0  0  0  0  0  0  0  0  0  0  0
   47.2066   36.2269   41.2203 H   0  0  0  0  0  0  0  0  0  0  0  0
   49.3189   35.0929   40.5018 H   0  0  0  0  0  0  0  0  0  0  0  0
   50.1424   33.0814   41.7157 H   0  0  0  0  0  0  0  0  0  0  0  0
   48.8580   32.2242   43.6231 H   0  0  0  0  0  0  0  0  0  0  0  0
   47.7034   33.2103   47.6065 H   0  0  0  0  0  0  0  0  0  0  0  0
   46.6281   32.7171   49.8339 H   0  0  0  0  0  0  0  0  0  0  0  0
   44.2358   29.7336   47.9476 H   0  0  0  0  0  0  0  0  0  0  0  0
  1 12  1  0
  2  3  2  0
  2  1  1  0
  4  3  1  0
  5  4  2  0
  6  5  1  0
  6 11  2  0
  7  6  1  0
  8  7  2  0
  8  9  1  0
  9 10  2  0
 10 11  1  0
 11  2  1  0
 12 17  1  0
 12 13  2  0
 13 14  1  0
 14 15  2  0
 16 15  1  0
 17 16  2  0
  1 18  1  0
  1 19  1  0
  3 20  1  0
  4 21  1  0
  5 22  1  0
  7 23  1  0
  8 24  1  0
  9 25  1  0
 10 26  1  0
 13 27  1  0
 14 28  1  0
 16 29  1  0
M  ISO  8  18   8  19   8  20  14  21  14  22  14  23  14  24  14  25  14
M  ISO  4  26  14  27  14  28  14  29  14
M  END
>  <minimizedAffinity>  (1) 
-5.44451189

>  <minimizedRMSD>  (1) 
4.3102169

$$$$
