
     RDKit          3D

 23 24  0  0  0  0  0  0  0  0999 V2000
   44.0840   35.1420   41.2100 C   0  0  0  0  0  0  0  0  0  0  0  0
   43.5420   32.4640   39.9320 Cl  0  0  0  0  0  0  0  0  0  0  0  0
   42.3370   33.6620   40.3380 C   0  0  0  0  0  0  0  0  0  0  0  0
   42.6650   34.8670   40.9240 C   0  0  0  0  0  0  0  0  0  0  0  0
   41.6190   35.7260   41.1940 C   0  0  0  0  0  0  0  0  0  0  0  0
   40.2950   35.4410   40.9140 C   0  0  0  0  0  0  0  0  0  0  0  0
   40.0160   34.2060   40.3210 C   0  0  0  0  0  0  0  0  0  0  0  0
   38.3240   33.8450   39.9630 Cl  0  0  0  0  0  0  0  0  0  0  0  0
   41.0320   33.3090   40.0290 C   0  0  0  0  0  0  0  0  0  0  0  0
   44.4460   34.9230   42.6420 C   0  0  0  0  0  0  0  0  0  0  0  0
   44.9990   33.6840   43.0030 C   0  0  0  0  0  0  0  0  0  0  0  0
   45.3360   33.4830   44.3450 C   0  0  0  0  0  0  0  0  0  0  0  0
   45.1090   34.4990   45.2270 N   0  0  0  0  0  0  0  0  0  0  0  0
   44.5740   35.6750   44.8330 C   0  0  0  0  0  0  0  0  0  0  0  0
   44.2400   35.8980   43.5490 N   0  0  0  0  0  0  0  0  0  0  0  0
   44.2966   36.1898   40.9515 H   0  0  0  0  0  0  0  0  0  0  0  0
   44.6816   34.4403   40.6096 H   0  0  0  0  0  0  0  0  0  0  0  0
   41.8523   36.6949   41.6596 H   0  0  0  0  0  0  0  0  0  0  0  0
   39.4937   36.1572   41.1484 H   0  0  0  0  0  0  0  0  0  0  0  0
   40.8078   32.3384   39.5624 H   0  0  0  0  0  0  0  0  0  0  0  0
   45.1621   32.8958   42.2532 H   0  0  0  0  0  0  0  0  0  0  0  0
   45.7726   32.5309   44.6809 H   0  0  0  0  0  0  0  0  0  0  0  0
   44.4079   36.4672   45.5778 H   0  0  0  0  0  0  0  0  0  0  0  0
  1 10  1  0
  2  3  1  0
  3  4  2  0
  4  5  1  0
  4  1  1  0
  6  5  2  0
  7  6  1  0
  8  7  1  0
  9  7  2  0
  9  3  1  0
 10 11  2  0
 10 15  1  0
 11 12  1  0
 12 13  2  0
 14 13  1  0
 15 14  2  0
  1 16  1  0
  1 17  1  0
  5 18  1  0
  6 19  1  0
  9 20  1  0
 11 21  1  0
 12 22  1  0
 14 23  1  0
M  ISO  8  16   8  17   8  18  14  19  14  20  14  21  14  22  14  23  14
M  END
>  <minimizedAffinity>  (1) 
-4.67012596

>  <minimizedRMSD>  (1) 
2.13917494

$$$$
