
     RDKit          3D

 40 44  0  0  1  0  0  0  0  0999 V2000
   46.2470   33.0560   46.6100 C   0  0  1  0  0  0  0  0  0  0  0  0
   45.3070   32.6820   47.6760 C   0  0  0  0  0  0  0  0  0  0  0  0
   45.7940   31.6810   46.5560 C   0  0  2  0  0  0  0  0  0  0  0  0
   46.5890   30.5060   46.9300 C   0  0  0  0  0  0  0  0  0  0  0  0
   47.8890   30.4740   47.3140 C   0  0  0  0  0  0  0  0  0  0  0  0
   48.6380   29.3260   47.5410 C   0  0  0  0  0  0  0  0  0  0  0  0
   47.9790   28.1020   47.3550 C   0  0  0  0  0  0  0  0  0  0  0  0
   46.6400   28.1040   46.9640 C   0  0  0  0  0  0  0  0  0  0  0  0
   46.0160   26.8750   46.8570 C   0  0  0  0  0  0  0  0  0  0  0  0
   44.6640   26.8340   46.5420 C   0  0  0  0  0  0  0  0  0  0  0  0
   43.9540   28.0000   46.3420 C   0  0  0  0  0  0  0  0  0  0  0  0
   44.6240   29.1950   46.4600 C   0  0  0  0  0  0  0  0  0  0  0  0
   45.9720   29.2900   46.7630 C   0  0  0  0  0  0  0  0  0  0  0  0
   44.4450   35.7010   44.7700 C   0  0  0  0  0  0  0  0  0  0  0  0
   45.0940   35.6770   43.4880 C   0  0  0  0  0  0  0  0  0  0  0  0
   46.1600   34.7350   43.3060 C   0  0  0  0  0  0  0  0  0  0  0  0
   46.5050   33.9300   44.3180 N   0  0  0  0  0  0  0  0  0  0  0  0
   45.8450   34.0000   45.5270 C   0  0  0  0  0  0  0  0  0  0  0  0
   44.8510   34.8560   45.7410 N   0  0  0  0  0  0  0  0  0  0  0  0
   46.8420   34.6800   42.0200 C   0  0  0  0  0  0  0  0  0  0  0  0
   48.1160   35.1310   41.7660 C   0  0  0  0  0  0  0  0  0  0  0  0
   48.3750   34.8860   40.4140 C   0  0  0  0  0  0  0  0  0  0  0  0
   47.2610   34.3030   39.9040 N   0  0  0  0  0  0  0  0  0  0  0  0
   46.3690   34.1890   40.8610 N   0  0  0  0  0  0  0  0  0  0  0  0
   47.2432   33.5214   46.6409 H   0  0  0  0  0  0  0  0  0  0  0  0
   45.6539   32.5715   48.7140 H   0  0  0  0  0  0  0  0  0  0  0  0
   44.3405   33.0491   48.0516 H   0  0  0  0  0  0  0  0  0  0  0  0
   45.3596   31.0589   45.7595 H   0  0  0  0  0  0  0  0  0  0  0  0
   48.3943   31.4404   47.4583 H   0  0  0  0  0  0  0  0  0  0  0  0
   49.6925   29.3746   47.8504 H   0  0  0  0  0  0  0  0  0  0  0  0
   48.5111   27.1527   47.5154 H   0  0  0  0  0  0  0  0  0  0  0  0
   46.5809   25.9451   47.0187 H   0  0  0  0  0  0  0  0  0  0  0  0
   44.1547   25.8633   46.4511 H   0  0  0  0  0  0  0  0  0  0  0  0
   42.8824   27.9744   46.0952 H   0  0  0  0  0  0  0  0  0  0  0  0
   44.0587   30.1259   46.3054 H   0  0  0  0  0  0  0  0  0  0  0  0
   43.6211   36.4049   44.9591 H   0  0  0  0  0  0  0  0  0  0  0  0
   44.7853   36.3545   42.6782 H   0  0  0  0  0  0  0  0  0  0  0  0
   48.8015   35.5964   42.4895 H   0  0  0  0  0  0  0  0  0  0  0  0
   49.3017   35.1203   39.8697 H   0  0  0  0  0  0  0  0  0  0  0  0
   47.1357   33.9999   38.9276 H   0  0  0  0  0  0  0  0  0  0  0  0
  1  2  1  0
  3  1  1  0
  3  4  1  0
  3  2  1  0
  4  5  2  0
  5  6  1  0
  7  6  2  0
  8  7  1  0
  9  8  2  0
 10  9  1  0
 11 12  1  0
 11 10  2  0
 12 13  2  0
 13  4  1  0
 13  8  1  0
 14 19  2  0
 15 14  1  0
 16 15  2  0
 16 17  1  0
 17 18  2  0
 18 19  1  0
 18  1  1  0
 20 16  1  0
 21 20  1  0
 22 21  2  0
 23 22  1  0
 23 24  1  0
 24 20  2  0
  1 25  1  1
  2 26  1  0
  2 27  1  0
  3 28  1  6
  5 29  1  0
  6 30  1  0
  7 31  1  0
  9 32  1  0
 10 33  1  0
 11 34  1  0
 12 35  1  0
 14 36  1  0
 15 37  1  0
 21 38  1  0
 22 39  1  0
 23 40  1  0
M  ISO  8  25  13  26  13  27  13  28  13  29  14  30  14  31  14  32  14
M  ISO  8  33  14  34  14  35  14  36  14  37  14  38  14  39  14  40   9
M  END
>  <minimizedAffinity>  (1) 
-6.42886019

>  <minimizedRMSD>  (1) 
1.74443066

$$$$
