
     RDKit          3D

 40 44  0  0  1  0  0  0  0  0999 V2000
   46.2300   32.9830   46.7210 C   0  0  1  0  0  0  0  0  0  0  0  0
   45.2730   32.6300   47.7790 C   0  0  0  0  0  0  0  0  0  0  0  0
   45.7860   31.6050   46.6920 C   0  0  2  0  0  0  0  0  0  0  0  0
   46.5830   30.4470   47.1110 C   0  0  0  0  0  0  0  0  0  0  0  0
   47.8740   30.4400   47.5370 C   0  0  0  0  0  0  0  0  0  0  0  0
   48.6340   29.3080   47.8050 C   0  0  0  0  0  0  0  0  0  0  0  0
   47.9980   28.0700   47.6140 C   0  0  0  0  0  0  0  0  0  0  0  0
   46.6750   28.0560   47.1810 C   0  0  0  0  0  0  0  0  0  0  0  0
   46.0740   26.8180   47.0690 C   0  0  0  0  0  0  0  0  0  0  0  0
   44.7320   26.7440   46.7090 C   0  0  0  0  0  0  0  0  0  0  0  0
   44.0090   27.8920   46.4710 C   0  0  0  0  0  0  0  0  0  0  0  0
   44.6590   29.0980   46.5960 C   0  0  0  0  0  0  0  0  0  0  0  0
   45.9920   29.2200   46.9420 C   0  0  0  0  0  0  0  0  0  0  0  0
   44.5090   35.6350   44.8190 C   0  0  0  0  0  0  0  0  0  0  0  0
   45.1180   35.5300   43.5210 C   0  0  0  0  0  0  0  0  0  0  0  0
   46.1230   34.5420   43.3590 C   0  0  0  0  0  0  0  0  0  0  0  0
   46.4720   33.7510   44.3880 N   0  0  0  0  0  0  0  0  0  0  0  0
   45.8470   33.9020   45.6110 C   0  0  0  0  0  0  0  0  0  0  0  0
   44.9010   34.8120   45.8130 N   0  0  0  0  0  0  0  0  0  0  0  0
   46.7290   34.4500   42.0370 C   0  0  0  0  0  0  0  0  0  0  0  0
   46.2810   33.8740   40.9240 C   0  0  0  0  0  0  0  0  0  0  0  0
   47.0310   33.9120   39.7790 C   0  0  0  0  0  0  0  0  0  0  0  0
   48.2890   34.6020   39.8920 C   0  0  0  0  0  0  0  0  0  0  0  0
   48.2680   35.1410   41.6800 S   0  0  0  0  0  0  0  0  0  0  0  0
   47.2235   33.4537   46.7574 H   0  0  0  0  0  0  0  0  0  0  0  0
   45.6017   32.5467   48.8254 H   0  0  0  0  0  0  0  0  0  0  0  0
   44.2980   33.0005   48.1283 H   0  0  0  0  0  0  0  0  0  0  0  0
   45.3692   30.9613   45.9033 H   0  0  0  0  0  0  0  0  0  0  0  0
   48.3596   31.4162   47.6823 H   0  0  0  0  0  0  0  0  0  0  0  0
   49.6768   29.3775   48.1480 H   0  0  0  0  0  0  0  0  0  0  0  0
   48.5355   27.1291   47.8031 H   0  0  0  0  0  0  0  0  0  0  0  0
   46.6495   25.9007   47.2622 H   0  0  0  0  0  0  0  0  0  0  0  0
   44.2452   25.7622   46.6138 H   0  0  0  0  0  0  0  0  0  0  0  0
   42.9465   27.8460   46.1901 H   0  0  0  0  0  0  0  0  0  0  0  0
   44.0853   30.0179   46.4100 H   0  0  0  0  0  0  0  0  0  0  0  0
   43.7251   36.3849   45.0011 H   0  0  0  0  0  0  0  0  0  0  0  0
   44.8182   36.1863   42.6907 H   0  0  0  0  0  0  0  0  0  0  0  0
   45.3054   33.3659   40.9239 H   0  0  0  0  0  0  0  0  0  0  0  0
   46.6958   33.4481   38.8396 H   0  0  0  0  0  0  0  0  0  0  0  0
   49.0607   34.7683   39.1259 H   0  0  0  0  0  0  0  0  0  0  0  0
  1  2  1  0
  3  1  1  0
  3  4  1  0
  3  2  1  0
  4  5  2  0
  5  6  1  0
  7  6  2  0
  8  7  1  0
  9  8  2  0
 10  9  1  0
 11 12  1  0
 11 10  2  0
 12 13  2  0
 13  4  1  0
 13  8  1  0
 14 19  2  0
 15 14  1  0
 16 15  2  0
 16 17  1  0
 17 18  2  0
 18 19  1  0
 18  1  1  0
 20 16  1  0
 21 20  2  0
 22 23  2  0
 22 21  1  0
 23 24  1  0
 24 20  1  0
  1 25  1  1
  2 26  1  0
  2 27  1  0
  3 28  1  6
  5 29  1  0
  6 30  1  0
  7 31  1  0
  9 32  1  0
 10 33  1  0
 11 34  1  0
 12 35  1  0
 14 36  1  0
 15 37  1  0
 21 38  1  0
 22 39  1  0
 23 40  1  0
M  ISO  8  25  13  26  13  27  13  28  13  29  14  30  14  31  14  32  14
M  ISO  8  33  14  34  14  35  14  36  14  37  14  38  14  39  14  40  14
M  END
>  <minimizedAffinity>  (1) 
-6.18562222

>  <minimizedRMSD>  (1) 
1.82173645

$$$$
