
     RDKit          3D

 23 24  0  0  0  0  0  0  0  0999 V2000
   45.7080   35.5210   42.9280 C   0  0  0  0  0  0  0  0  0  0  0  0
   45.8020   34.6560   44.0910 N   0  0  0  0  0  0  0  0  0  0  0  0
   46.6730   33.6090   43.9910 C   0  0  0  0  0  0  0  0  0  0  0  0
   46.8750   32.6950   45.0150 C   0  0  0  0  0  0  0  0  0  0  0  0
   46.1410   32.8840   46.1810 C   0  0  0  0  0  0  0  0  0  0  0  0
   46.2930   32.0790   47.1340 O   0  0  0  0  0  0  0  0  0  0  0  0
   45.2920   33.9350   46.2280 N   0  0  0  0  0  0  0  0  0  0  0  0
   45.1090   34.8080   45.2310 C   0  0  0  0  0  0  0  0  0  0  0  0
   44.3230   35.7670   45.3020 O   0  0  0  0  0  0  0  0  0  0  0  0
   44.6730   35.0450   41.9630 C   0  0  0  0  0  0  0  0  0  0  0  0
   45.1070   34.2400   40.9020 C   0  0  0  0  0  0  0  0  0  0  0  0
   44.1370   33.7890   39.9910 C   0  0  0  0  0  0  0  0  0  0  0  0
   42.8460   34.1620   40.1980 N   0  0  0  0  0  0  0  0  0  0  0  0
   42.4720   34.9450   41.2440 C   0  0  0  0  0  0  0  0  0  0  0  0
   43.3970   35.3820   42.1230 N   0  0  0  0  0  0  0  0  0  0  0  0
   45.4447   36.5361   43.2600 H   0  0  0  0  0  0  0  0  0  0  0  0
   46.6816   35.5115   42.4162 H   0  0  0  0  0  0  0  0  0  0  0  0
   47.2399   33.4847   43.0566 H   0  0  0  0  0  0  0  0  0  0  0  0
   47.5828   31.8596   44.9095 H   0  0  0  0  0  0  0  0  0  0  0  0
   44.7481   34.0732   47.0917 H   0  0  0  0  0  0  0  0  0  0  0  0
   46.1673   33.9710   40.7864 H   0  0  0  0  0  0  0  0  0  0  0  0
   44.4135   33.1537   39.1366 H   0  0  0  0  0  0  0  0  0  0  0  0
   41.4154   35.2222   41.3737 H   0  0  0  0  0  0  0  0  0  0  0  0
  1  2  1  0
  2  8  1  0
  3  2  1  0
  3  4  2  0
  4  5  1  0
  5  7  1  0
  5  6  2  0
  8  9  2  0
  8  7  1  0
 10 15  1  0
 10  1  1  0
 11 10  2  0
 12 13  2  0
 12 11  1  0
 13 14  1  0
 14 15  2  0
  1 16  1  0
  1 17  1  0
  3 18  1  0
  4 19  1  0
  7 20  1  0
 11 21  1  0
 12 22  1  0
 14 23  1  0
M  ISO  8  16   8  17   8  18  14  19  14  20   9  21  14  22  14  23  14
M  END
>  <minimizedAffinity>  (1) 
-4.60720301

>  <minimizedRMSD>  (1) 
5.14984417

$$$$
