
     RDKit          3D

 40 44  0  0  1  0  0  0  0  0999 V2000
   46.8570   32.1930   45.7900 C   0  0  1  0  0  0  0  0  0  0  0  0
   46.9950   32.5580   47.2080 C   0  0  0  0  0  0  0  0  0  0  0  0
   45.7100   31.8570   46.6080 C   0  0  2  0  0  0  0  0  0  0  0  0
   45.3510   30.5100   47.0570 C   0  0  0  0  0  0  0  0  0  0  0  0
   45.2490   30.0600   48.3340 C   0  0  0  0  0  0  0  0  0  0  0  0
   45.0310   28.7410   48.7180 C   0  0  0  0  0  0  0  0  0  0  0  0
   44.9070   27.8040   47.6820 C   0  0  0  0  0  0  0  0  0  0  0  0
   45.0050   28.2380   46.3600 C   0  0  0  0  0  0  0  0  0  0  0  0
   44.8110   27.2850   45.3760 C   0  0  0  0  0  0  0  0  0  0  0  0
   44.8270   27.6890   44.0430 C   0  0  0  0  0  0  0  0  0  0  0  0
   45.0290   29.0120   43.7070 C   0  0  0  0  0  0  0  0  0  0  0  0
   45.2170   29.9130   44.7280 C   0  0  0  0  0  0  0  0  0  0  0  0
   45.2190   29.5640   46.0720 C   0  0  0  0  0  0  0  0  0  0  0  0
   45.4360   34.8730   43.6870 C   0  0  0  0  0  0  0  0  0  0  0  0
   46.4890   35.1090   42.7370 C   0  0  0  0  0  0  0  0  0  0  0  0
   47.6810   34.3260   42.8710 C   0  0  0  0  0  0  0  0  0  0  0  0
   47.7730   33.4180   43.8560 N   0  0  0  0  0  0  0  0  0  0  0  0
   46.7230   33.2390   44.7340 C   0  0  0  0  0  0  0  0  0  0  0  0
   45.5970   33.9430   44.6510 N   0  0  0  0  0  0  0  0  0  0  0  0
   48.7520   34.5810   41.8910 C   0  0  0  0  0  0  0  0  0  0  0  0
   48.3280   34.9620   40.5170 C   0  0  0  0  0  0  0  0  0  0  0  0
   49.0580   35.9460   41.4360 C   0  0  0  0  0  0  0  0  0  0  0  0
   47.5013   31.6066   45.1184 H   0  0  0  0  0  0  0  0  0  0  0  0
   47.6804   32.0021   47.8646 H   0  0  0  0  0  0  0  0  0  0  0  0
   47.2114   33.4731   47.7788 H   0  0  0  0  0  0  0  0  0  0  0  0
   44.6315   32.0511   46.5119 H   0  0  0  0  0  0  0  0  0  0  0  0
   45.3476   30.8054   49.1369 H   0  0  0  0  0  0  0  0  0  0  0  0
   44.9598   28.4489   49.7761 H   0  0  0  0  0  0  0  0  0  0  0  0
   44.7348   26.7415   47.9088 H   0  0  0  0  0  0  0  0  0  0  0  0
   44.6475   26.2300   45.6408 H   0  0  0  0  0  0  0  0  0  0  0  0
   44.6767   26.9438   43.2480 H   0  0  0  0  0  0  0  0  0  0  0  0
   45.0393   29.3354   42.6557 H   0  0  0  0  0  0  0  0  0  0  0  0
   45.3747   30.9696   44.4657 H   0  0  0  0  0  0  0  0  0  0  0  0
   44.5010   35.4495   43.6280 H   0  0  0  0  0  0  0  0  0  0  0  0
   46.3836   35.8599   41.9401 H   0  0  0  0  0  0  0  0  0  0  0  0
   49.3785   33.7928   42.3339 H   0  0  0  0  0  0  0  0  0  0  0  0
   47.2624   35.1057   40.2852 H   0  0  0  0  0  0  0  0  0  0  0  0
   48.4877   34.5632   39.5043 H   0  0  0  0  0  0  0  0  0  0  0  0
   50.0969   36.2357   41.2201 H   0  0  0  0  0  0  0  0  0  0  0  0
   48.8565   36.9593   41.8136 H   0  0  0  0  0  0  0  0  0  0  0  0
  1  3  1  0
  1  2  1  0
  3  4  1  0
  3  2  1  0
  4  5  2  0
  5  6  1  0
  7  6  2  0
  8  7  1  0
  9  8  2  0
 10  9  1  0
 11 10  2  0
 11 12  1  0
 12 13  2  0
 13  8  1  0
 13  4  1  0
 14 19  2  0
 15 16  2  0
 15 14  1  0
 16 17  1  0
 17 18  2  0
 18  1  1  0
 19 18  1  0
 20 16  1  0
 21 22  1  0
 21 20  1  0
 22 20  1  0
  1 23  1  6
  2 24  1  0
  2 25  1  0
  3 26  1  6
  5 27  1  0
  6 28  1  0
  7 29  1  0
  9 30  1  0
 10 31  1  0
 11 32  1  0
 12 33  1  0
 14 34  1  0
 15 35  1  0
 20 36  1  0
 21 37  1  0
 21 38  1  0
 22 39  1  0
 22 40  1  0
M  ISO  8  23  13  24  13  25  13  26  13  27  14  28  14  29  14  30  14
M  ISO  8  31  14  32  14  33  14  34  14  35  14  36  13  37  13  38  13
M  ISO  2  39  13  40  13
M  END
>  <minimizedAffinity>  (1) 
-5.47435331

>  <minimizedRMSD>  (1) 
1.22728837

$$$$
