
     RDKit          3D

 32 34  0  0  0  0  0  0  0  0999 V2000
   45.5640   34.0340   41.8430 C   0  0  0  0  0  0  0  0  0  0  0  0
   44.6560   33.7690   40.8510 C   0  0  0  0  0  0  0  0  0  0  0  0
   45.3330   33.3830   39.6980 C   0  0  0  0  0  0  0  0  0  0  0  0
   46.6390   33.4260   40.0300 N   0  0  0  0  0  0  0  0  0  0  0  0
   46.7850   33.8060   41.2860 N   0  0  0  0  0  0  0  0  0  0  0  0
   44.4200   35.9740   44.8650 C   0  0  0  0  0  0  0  0  0  0  0  0
   44.6560   35.6750   43.4950 C   0  0  0  0  0  0  0  0  0  0  0  0
   45.2630   34.4660   43.2010 C   0  0  0  0  0  0  0  0  0  0  0  0
   45.5970   33.6350   44.2320 N   0  0  0  0  0  0  0  0  0  0  0  0
   45.3600   33.9480   45.5220 C   0  0  0  0  0  0  0  0  0  0  0  0
   44.7740   35.1140   45.8180 N   0  0  0  0  0  0  0  0  0  0  0  0
   48.1240   33.4750   36.2100 N   0  0  0  0  0  0  0  0  0  0  0  0
   46.9030   32.8360   36.6020 C   0  0  0  0  0  0  0  0  0  0  0  0
   46.9740   32.2360   37.9790 C   0  0  0  0  0  0  0  0  0  0  0  0
   47.6240   33.0710   39.0230 C   0  0  0  0  0  0  0  0  0  0  0  0
   48.3990   34.2380   38.5480 C   0  0  0  0  0  0  0  0  0  0  0  0
   48.2800   34.5960   37.1060 C   0  0  0  0  0  0  0  0  0  0  0  0
   43.5634   33.8489   40.9506 H   0  0  0  0  0  0  0  0  0  0  0  0
   44.8975   33.1037   38.7273 H   0  0  0  0  0  0  0  0  0  0  0  0
   43.9404   36.9249   45.1402 H   0  0  0  0  0  0  0  0  0  0  0  0
   44.3673   36.3775   42.6993 H   0  0  0  0  0  0  0  0  0  0  0  0
   45.6458   33.2512   46.3237 H   0  0  0  0  0  0  0  0  0  0  0  0
   48.9171   32.8248   36.3060 H   0  0  0  0  0  0  0  0  0  0  0  0
   46.0950   33.5822   36.5852 H   0  0  0  0  0  0  0  0  0  0  0  0
   46.7166   32.0158   35.8931 H   0  0  0  0  0  0  0  0  0  0  0  0
   45.9454   32.0269   38.3080 H   0  0  0  0  0  0  0  0  0  0  0  0
   47.6066   31.3416   37.8795 H   0  0  0  0  0  0  0  0  0  0  0  0
   48.4122   32.4425   39.4631 H   0  0  0  0  0  0  0  0  0  0  0  0
   48.0741   35.1109   39.1332 H   0  0  0  0  0  0  0  0  0  0  0  0
   49.4525   33.9512   38.6820 H   0  0  0  0  0  0  0  0  0  0  0  0
   49.1889   35.1424   36.8139 H   0  0  0  0  0  0  0  0  0  0  0  0
   47.3617   35.1944   37.0126 H   0  0  0  0  0  0  0  0  0  0  0  0
  1  8  1  0
  2  1  1  0
  3  4  1  0
  3  2  2  0
  4  5  1  0
  5  1  2  0
  6 11  2  0
  7  6  1  0
  8  7  2  0
  8  9  1  0
  9 10  2  0
 10 11  1  0
 12 13  1  0
 12 17  1  0
 13 14  1  0
 14 15  1  0
 15  4  1  0
 16 15  1  0
 17 16  1  0
  2 18  1  0
  3 19  1  0
  6 20  1  0
  7 21  1  0
 10 22  1  0
 12 23  1  0
 13 24  1  0
 13 25  1  0
 14 26  1  0
 14 27  1  0
 15 28  1  0
 16 29  1  0
 16 30  1  0
 17 31  1  0
 17 32  1  0
M  ISO  8  18  14  19  14  20  14  21  14  22  14  23   5  24  13  25  13
M  ISO  7  26  13  27  13  28  13  29  13  30  13  31  13  32  13
M  END
>  <minimizedAffinity>  (1) 
-4.52019787

>  <minimizedRMSD>  (1) 
2.97726607

$$$$
