
     RDKit          3D

 34 37  0  0  1  0  0  0  0  0999 V2000
   46.4300   32.5020   45.9640 C   0  0  1  0  0  0  0  0  0  0  0  0
   46.9720   32.6890   47.3180 C   0  0  0  0  0  0  0  0  0  0  0  0
   45.5470   32.0670   47.0250 C   0  0  2  0  0  0  0  0  0  0  0  0
   45.2840   30.6730   47.3960 C   0  0  0  0  0  0  0  0  0  0  0  0
   45.1550   30.1600   48.6500 C   0  0  0  0  0  0  0  0  0  0  0  0
   45.0160   28.8140   48.9660 C   0  0  0  0  0  0  0  0  0  0  0  0
   45.0130   27.9200   47.8770 C   0  0  0  0  0  0  0  0  0  0  0  0
   45.1430   28.4200   46.5790 C   0  0  0  0  0  0  0  0  0  0  0  0
   45.0790   27.5020   45.5440 C   0  0  0  0  0  0  0  0  0  0  0  0
   45.1420   27.9670   44.2400 C   0  0  0  0  0  0  0  0  0  0  0  0
   45.2620   29.3140   43.9740 C   0  0  0  0  0  0  0  0  0  0  0  0
   45.3220   30.1800   45.0420 C   0  0  0  0  0  0  0  0  0  0  0  0
   45.2720   29.7700   46.3610 C   0  0  0  0  0  0  0  0  0  0  0  0
   44.6890   35.5450   44.8040 C   0  0  0  0  0  0  0  0  0  0  0  0
   45.3020   35.7750   43.5210 C   0  0  0  0  0  0  0  0  0  0  0  0
   46.3190   34.8590   43.1030 C   0  0  0  0  0  0  0  0  0  0  0  0
   46.6590   33.8400   43.9040 N   0  0  0  0  0  0  0  0  0  0  0  0
   46.0360   33.6710   45.1230 C   0  0  0  0  0  0  0  0  0  0  0  0
   45.0870   34.4960   45.5530 N   0  0  0  0  0  0  0  0  0  0  0  0
   46.9120   35.0740   41.8700 O   0  0  0  0  0  0  0  0  0  0  0  0
   46.8425   32.0045   45.0739 H   0  0  0  0  0  0  0  0  0  0  0  0
   47.7942   32.0564   47.6839 H   0  0  0  0  0  0  0  0  0  0  0  0
   47.3709   33.5264   47.9093 H   0  0  0  0  0  0  0  0  0  0  0  0
   44.4916   32.2707   47.2588 H   0  0  0  0  0  0  0  0  0  0  0  0
   45.1613   30.8737   49.4870 H   0  0  0  0  0  0  0  0  0  0  0  0
   44.9143   28.4670   50.0049 H   0  0  0  0  0  0  0  0  0  0  0  0
   44.9092   26.8382   48.0473 H   0  0  0  0  0  0  0  0  0  0  0  0
   44.9802   26.4265   45.7526 H   0  0  0  0  0  0  0  0  0  0  0  0
   45.0956   27.2513   43.4060 H   0  0  0  0  0  0  0  0  0  0  0  0
   45.3084   29.6856   42.9397 H   0  0  0  0  0  0  0  0  0  0  0  0
   45.4147   31.2563   44.8347 H   0  0  0  0  0  0  0  0  0  0  0  0
   43.9017   36.2201   45.1705 H   0  0  0  0  0  0  0  0  0  0  0  0
   45.0002   36.6218   42.8871 H   0  0  0  0  0  0  0  0  0  0  0  0
   47.6193   34.4611   41.5473 H   0  0  0  0  0  0  0  0  0  0  0  0
  1  3  1  0
  1  2  1  0
  3  2  1  0
  3  4  1  0
  4  5  2  0
  5  6  1  0
  7  6  2  0
  8  7  1  0
  9  8  2  0
 10  9  1  0
 11 10  2  0
 11 12  1  0
 12 13  2  0
 13  8  1  0
 13  4  1  0
 14 19  2  0
 15 14  1  0
 16 15  2  0
 16 17  1  0
 17 18  2  0
 18 19  1  0
 18  1  1  0
 20 16  1  0
  1 21  1  6
  2 22  1  0
  2 23  1  0
  3 24  1  1
  5 25  1  0
  6 26  1  0
  7 27  1  0
  9 28  1  0
 10 29  1  0
 11 30  1  0
 12 31  1  0
 14 32  1  0
 15 33  1  0
 20 34  1  0
M  ISO  8  21  13  22  13  23  13  24  13  25  14  26  14  27  14  28  14
M  ISO  6  29  14  30  14  31  14  32  14  33  14  34   3
M  END
>  <minimizedAffinity>  (1) 
-4.81732559

>  <minimizedRMSD>  (1) 
0.215881556

$$$$
