
     RDKit          3D

 17 18  0  0  0  0  0  0  0  0999 V2000
   44.5620   35.8770   44.4070 C   0  0  0  0  0  0  0  0  0  0  0  0
   45.3420   35.9470   43.2190 C   0  0  0  0  0  0  0  0  0  0  0  0
   46.3360   34.9800   43.0600 C   0  0  0  0  0  0  0  0  0  0  0  0
   46.5120   34.0390   44.0200 N   0  0  0  0  0  0  0  0  0  0  0  0
   45.7500   34.0040   45.1420 C   0  0  0  0  0  0  0  0  0  0  0  0
   44.7890   34.9230   45.3140 N   0  0  0  0  0  0  0  0  0  0  0  0
   47.2030   34.9420   41.8840 C   0  0  0  0  0  0  0  0  0  0  0  0
   46.9800   34.2300   40.7240 C   0  0  0  0  0  0  0  0  0  0  0  0
   48.0220   34.4440   39.8380 C   0  0  0  0  0  0  0  0  0  0  0  0
   48.8610   35.2830   40.4820 N   0  0  0  0  0  0  0  0  0  0  0  0
   48.3830   35.5760   41.6810 N   0  0  0  0  0  0  0  0  0  0  0  0
   43.7650   36.6151   44.5800 H   0  0  0  0  0  0  0  0  0  0  0  0
   45.1698   36.7262   42.4618 H   0  0  0  0  0  0  0  0  0  0  0  0
   45.9191   33.2286   45.9037 H   0  0  0  0  0  0  0  0  0  0  0  0
   46.1067   33.5893   40.5320 H   0  0  0  0  0  0  0  0  0  0  0  0
   48.1405   34.0223   38.8290 H   0  0  0  0  0  0  0  0  0  0  0  0
   49.7454   35.6431   40.0960 H   0  0  0  0  0  0  0  0  0  0  0  0
  1  6  2  0
  2  1  1  0
  3  2  2  0
  3  4  1  0
  4  5  2  0
  5  6  1  0
  7  3  1  0
  8  7  1  0
  9 10  1  0
  9  8  2  0
 10 11  1  0
 11  7  2  0
  1 12  1  0
  2 13  1  0
  5 14  1  0
  8 15  1  0
  9 16  1  0
 10 17  1  0
M  ISO  6  12  14  13  14  14  14  15  14  16  14  17   9
M  END
>  <minimizedAffinity>  (1) 
-4.47950697

>  <minimizedRMSD>  (1) 
1.14042139

$$$$
