
     RDKit          3D

 37 39  0  0  1  0  0  0  0  0999 V2000
   41.9570   33.7960   39.5660 N   0  0  0  0  0  0  0  0  0  0  0  0
   41.9630   33.6780   41.0270 C   0  0  2  0  0  0  0  0  0  0  0  0
   40.8480   34.4240   41.6660 C   0  0  0  0  0  0  0  0  0  0  0  0
   39.8570   34.8810   40.7100 N   0  0  0  0  0  0  0  0  0  0  0  0
   40.3800   35.5610   39.5790 C   0  0  0  0  0  0  0  0  0  0  0  0
   41.8270   35.2520   39.3290 C   0  0  2  0  0  0  0  0  0  0  0  0
   45.3460   34.4890   41.9840 C   0  0  0  0  0  0  0  0  0  0  0  0
   44.5930   35.5780   42.4390 C   0  0  0  0  0  0  0  0  0  0  0  0
   43.2560   35.3830   42.1340 C   0  0  0  0  0  0  0  0  0  0  0  0
   43.2240   34.2090   41.5120 N   0  0  0  0  0  0  0  0  0  0  0  0
   44.4410   33.6870   41.4250 N   0  0  0  0  0  0  0  0  0  0  0  0
   49.0630   35.0350   42.0330 C   0  0  0  0  0  0  0  0  0  0  0  0
   47.6840   35.3320   41.8050 C   0  0  0  0  0  0  0  0  0  0  0  0
   46.7930   34.3430   42.1440 C   0  0  0  0  0  0  0  0  0  0  0  0
   47.2470   33.1710   42.6610 N   0  0  0  0  0  0  0  0  0  0  0  0
   48.5570   32.9210   42.8650 C   0  0  0  0  0  0  0  0  0  0  0  0
   49.4380   33.8560   42.5470 N   0  0  0  0  0  0  0  0  0  0  0  0
   42.2990   35.6210   37.9630 C   0  0  0  0  0  0  0  0  0  0  0  0
   41.3670   36.4890   37.1940 C   0  0  0  0  0  0  0  0  0  0  0  0
   42.8350   33.4361   39.1653 H   0  0  0  0  0  0  0  0  0  0  0  0
   41.8352   32.6169   41.2873 H   0  0  0  0  0  0  0  0  0  0  0  0
   40.3552   33.7635   42.3946 H   0  0  0  0  0  0  0  0  0  0  0  0
   41.2783   35.3141   42.1482 H   0  0  0  0  0  0  0  0  0  0  0  0
   39.3344   34.0592   40.3747 H   0  0  0  0  0  0  0  0  0  0  0  0
   39.7998   35.2653   38.6925 H   0  0  0  0  0  0  0  0  0  0  0  0
   40.3026   36.6401   39.7779 H   0  0  0  0  0  0  0  0  0  0  0  0
   42.4619   35.8527   39.9969 H   0  0  0  0  0  0  0  0  0  0  0  0
   45.0016   36.4563   42.9602 H   0  0  0  0  0  0  0  0  0  0  0  0
   42.4103   36.0503   42.3567 H   0  0  0  0  0  0  0  0  0  0  0  0
   49.8276   35.7852   41.7829 H   0  0  0  0  0  0  0  0  0  0  0  0
   47.3560   36.2938   41.3838 H   0  0  0  0  0  0  0  0  0  0  0  0
   48.8860   31.9599   43.2869 H   0  0  0  0  0  0  0  0  0  0  0  0
   43.2568   36.1524   38.0639 H   0  0  0  0  0  0  0  0  0  0  0  0
   42.3818   34.6800   37.3994 H   0  0  0  0  0  0  0  0  0  0  0  0
   40.7450   37.0683   37.8923 H   0  0  0  0  0  0  0  0  0  0  0  0
   41.9456   37.1775   36.5606 H   0  0  0  0  0  0  0  0  0  0  0  0
   40.7213   35.8630   36.5606 H   0  0  0  0  0  0  0  0  0  0  0  0
  1  2  1  0
  2 10  1  0
  2  3  1  0
  4  3  1  0
  5  4  1  0
  6  1  1  0
  6  5  1  0
  7 14  1  0
  7  8  1  0
  9  8  2  0
 10  9  1  0
 11 10  1  0
 11  7  2  0
 12 17  2  0
 13 12  1  0
 13 14  2  0
 14 15  1  0
 15 16  2  0
 17 16  1  0
 18  6  1  0
 19 18  1  0
  1 20  1  0
  2 21  1  6
  3 22  1  0
  3 23  1  0
  4 24  1  0
  5 25  1  0
  5 26  1  0
  6 27  1  1
  8 28  1  0
  9 29  1  0
 12 30  1  0
 13 31  1  0
 16 32  1  0
 18 33  1  0
 18 34  1  0
 19 35  1  0
 19 36  1  0
 19 37  1  0
M  ISO  8  20   5  21  13  22  13  23  13  24   5  25  13  26  13  27  13
M  ISO  8  28  14  29  14  30  14  31  14  32  14  33   8  34   8  35   8
M  ISO  2  36   8  37   8
M  END
>  <minimizedAffinity>  (1) 
-5.00470829

>  <minimizedRMSD>  (1) 
0.638747215

$$$$
