
     RDKit          3D

 45 48  0  0  1  0  0  0  0  0999 V2000
   40.8610   32.1440   40.3720 N   0  0  0  0  0  0  0  0  0  0  0  0
   40.8500   33.1480   41.4410 C   0  0  2  0  0  0  0  0  0  0  0  0
   39.7180   34.1020   41.3180 C   0  0  0  0  0  0  0  0  0  0  0  0
   38.7350   33.6850   40.3330 N   0  0  0  0  0  0  0  0  0  0  0  0
   39.2740   33.3200   39.0650 C   0  0  0  0  0  0  0  0  0  0  0  0
   40.7240   32.9380   39.1360 C   0  0  2  0  0  0  0  0  0  0  0  0
   41.1510   32.1490   37.9330 C   0  0  0  0  0  0  0  0  0  0  0  0
   40.2830   30.9900   37.5950 C   0  0  0  0  0  0  0  0  0  0  0  0
   41.1500   29.7280   37.5070 C   0  0  0  0  0  0  0  0  0  0  0  0
   42.1520   29.8640   36.5730 O   0  0  0  0  0  0  0  0  0  0  0  0
   42.8990   31.0210   36.7080 C   0  0  0  0  0  0  0  0  0  0  0  0
   42.5710   31.7060   38.0410 C   0  0  0  0  0  0  0  0  0  0  0  0
   44.2180   34.4280   41.2260 C   0  0  0  0  0  0  0  0  0  0  0  0
   43.4210   35.5760   41.3080 C   0  0  0  0  0  0  0  0  0  0  0  0
   42.0880   35.2180   41.4040 C   0  0  0  0  0  0  0  0  0  0  0  0
   42.1000   33.8870   41.3770 N   0  0  0  0  0  0  0  0  0  0  0  0
   43.3410   33.4260   41.2740 N   0  0  0  0  0  0  0  0  0  0  0  0
   47.7700   33.8920   40.1070 C   0  0  0  0  0  0  0  0  0  0  0  0
   46.3460   33.8150   40.0850 C   0  0  0  0  0  0  0  0  0  0  0  0
   45.6770   34.4200   41.1270 C   0  0  0  0  0  0  0  0  0  0  0  0
   46.3750   35.0440   42.1030 N   0  0  0  0  0  0  0  0  0  0  0  0
   47.7280   35.1010   42.1000 C   0  0  0  0  0  0  0  0  0  0  0  0
   48.3930   34.5240   41.1030 N   0  0  0  0  0  0  0  0  0  0  0  0
   41.7464   31.6177   40.3730 H   0  0  0  0  0  0  0  0  0  0  0  0
   40.7317   32.6249   42.4014 H   0  0  0  0  0  0  0  0  0  0  0  0
   39.2216   34.1864   42.2960 H   0  0  0  0  0  0  0  0  0  0  0  0
   40.1316   35.0657   40.9858 H   0  0  0  0  0  0  0  0  0  0  0  0
   38.2280   32.8721   40.7112 H   0  0  0  0  0  0  0  0  0  0  0  0
   39.1689   34.1740   38.3797 H   0  0  0  0  0  0  0  0  0  0  0  0
   38.7173   32.4402   38.7100 H   0  0  0  0  0  0  0  0  0  0  0  0
   41.3708   33.8276   39.1483 H   0  0  0  0  0  0  0  0  0  0  0  0
   41.0430   32.8587   37.0996 H   0  0  0  0  0  0  0  0  0  0  0  0
   39.5200   30.8599   38.3766 H   0  0  0  0  0  0  0  0  0  0  0  0
   39.7842   31.1671   36.6307 H   0  0  0  0  0  0  0  0  0  0  0  0
   41.6031   29.5372   38.4910 H   0  0  0  0  0  0  0  0  0  0  0  0
   40.5066   28.8900   37.2008 H   0  0  0  0  0  0  0  0  0  0  0  0
   43.9693   30.7685   36.6821 H   0  0  0  0  0  0  0  0  0  0  0  0
   42.6565   31.7053   35.8816 H   0  0  0  0  0  0  0  0  0  0  0  0
   43.2311   32.5716   38.1992 H   0  0  0  0  0  0  0  0  0  0  0  0
   42.7186   31.0254   38.8925 H   0  0  0  0  0  0  0  0  0  0  0  0
   43.7985   36.6092   41.2976 H   0  0  0  0  0  0  0  0  0  0  0  0
   41.2154   35.8829   41.4845 H   0  0  0  0  0  0  0  0  0  0  0  0
   48.3565   33.4287   39.3000 H   0  0  0  0  0  0  0  0  0  0  0  0
   45.8083   33.2983   39.2764 H   0  0  0  0  0  0  0  0  0  0  0  0
   48.2679   35.6158   42.9084 H   0  0  0  0  0  0  0  0  0  0  0  0
  1  2  1  0
  3  2  1  0
  4  3  1  0
  5  6  1  0
  5  4  1  0
  6  1  1  0
  7 12  1  0
  7  6  1  0
  8  7  1  0
  9  8  1  0
 10 11  1  0
 10  9  1  0
 11 12  1  0
 13 17  2  0
 13 14  1  0
 14 15  2  0
 16 15  1  0
 16  2  1  0
 17 16  1  0
 18 23  2  0
 19 18  1  0
 19 20  2  0
 20 13  1  0
 20 21  1  0
 22 21  2  0
 23 22  1  0
  1 24  1  0
  2 25  1  1
  3 26  1  0
  3 27  1  0
  4 28  1  0
  5 29  1  0
  5 30  1  0
  6 31  1  1
  7 32  1  0
  8 33  1  0
  8 34  1  0
  9 35  1  0
  9 36  1  0
 11 37  1  0
 11 38  1  0
 12 39  1  0
 12 40  1  0
 14 41  1  0
 15 42  1  0
 18 43  1  0
 19 44  1  0
 22 45  1  0
M  ISO  8  24   5  25  13  26  13  27  13  28   5  29  13  30  13  31  13
M  ISO  8  32  13  33  13  34  13  35  13  36  13  37  13  38  13  39  13
M  ISO  6  40  13  41  14  42  14  43  14  44  14  45  14
M  END
>  <minimizedAffinity>  (1) 
-5.04953003

>  <minimizedRMSD>  (1) 
2.79252386

$$$$
