
     RDKit          3D

 31 33  0  0  1  0  0  0  0  0999 V2000
   45.8760   33.9470   41.8410 N   0  0  0  0  0  0  0  0  0  0  0  0
   47.0970   33.2080   41.6890 C   0  0  1  0  0  0  0  0  0  0  0  0
   47.3730   32.7380   40.3130 C   0  0  0  0  0  0  0  0  0  0  0  0
   46.2690   32.3420   39.5510 N   0  0  0  0  0  0  0  0  0  0  0  0
   45.0370   32.9650   39.7830 C   0  0  0  0  0  0  0  0  0  0  0  0
   45.1780   34.2240   40.6170 C   0  0  0  0  0  0  0  0  0  0  0  0
   44.9370   35.5890   43.2870 C   0  0  0  0  0  0  0  0  0  0  0  0
   45.5020   34.3180   43.1530 C   0  0  0  0  0  0  0  0  0  0  0  0
   45.6370   33.5630   44.3030 C   0  0  0  0  0  0  0  0  0  0  0  0
   45.2330   34.0500   45.5000 N   0  0  0  0  0  0  0  0  0  0  0  0
   44.6840   35.2940   45.5980 C   0  0  0  0  0  0  0  0  0  0  0  0
   44.5420   36.0480   44.4900 N   0  0  0  0  0  0  0  0  0  0  0  0
   48.2210   34.1510   42.0410 C   0  0  0  0  0  0  0  0  0  0  0  0
   49.2660   34.1600   42.9640 C   0  0  0  0  0  0  0  0  0  0  0  0
   49.9500   35.3010   42.7870 N   0  0  0  0  0  0  0  0  0  0  0  0
   49.4000   36.0140   41.8080 C   0  0  0  0  0  0  0  0  0  0  0  0
   48.3510   35.3220   41.3510 N   0  0  0  0  0  0  0  0  0  0  0  0
   47.0095   32.3173   42.3286 H   0  0  0  0  0  0  0  0  0  0  0  0
   47.8728   33.5570   39.7750 H   0  0  0  0  0  0  0  0  0  0  0  0
   47.9812   31.8295   40.4345 H   0  0  0  0  0  0  0  0  0  0  0  0
   46.1346   31.3336   39.7123 H   0  0  0  0  0  0  0  0  0  0  0  0
   44.5866   33.2302   38.8151 H   0  0  0  0  0  0  0  0  0  0  0  0
   44.4028   32.2604   40.3409 H   0  0  0  0  0  0  0  0  0  0  0  0
   45.7396   34.9760   40.0434 H   0  0  0  0  0  0  0  0  0  0  0  0
   44.1737   34.6011   40.8604 H   0  0  0  0  0  0  0  0  0  0  0  0
   44.8131   36.2237   42.3972 H   0  0  0  0  0  0  0  0  0  0  0  0
   46.0770   32.5565   44.2451 H   0  0  0  0  0  0  0  0  0  0  0  0
   44.3589   35.6800   46.5754 H   0  0  0  0  0  0  0  0  0  0  0  0
   49.4890   33.3755   43.7021 H   0  0  0  0  0  0  0  0  0  0  0  0
   50.7789   35.5831   43.3294 H   0  0  0  0  0  0  0  0  0  0  0  0
   49.7445   36.9924   41.4419 H   0  0  0  0  0  0  0  0  0  0  0  0
  1  8  1  0
  2  1  1  0
  2 13  1  0
  3  2  1  0
  4  5  1  0
  4  3  1  0
  5  6  1  0
  6  1  1  0
  7 12  2  0
  8  7  1  0
  8  9  2  0
  9 10  1  0
 10 11  2  0
 12 11  1  0
 13 14  2  0
 15 14  1  0
 16 15  1  0
 17 16  2  0
 17 13  1  0
  2 18  1  1
  3 19  1  0
  3 20  1  0
  4 21  1  0
  5 22  1  0
  5 23  1  0
  6 24  1  0
  6 25  1  0
  7 26  1  0
  9 27  1  0
 11 28  1  0
 14 29  1  0
 15 30  1  0
 16 31  1  0
M  ISO  8  18  13  19  13  20  13  21   5  22  13  23  13  24  13  25  13
M  ISO  6  26  14  27  14  28  14  29  14  30   9  31  14
M  END
>  <minimizedAffinity>  (1) 
-4.91975307

>  <minimizedRMSD>  (1) 
2.70741296

$$$$
