
     RDKit          3D

 25 26  0  0  1  0  0  0  0  0999 V2000
   45.7670   34.4860   42.0210 N   0  0  0  0  0  0  0  0  0  0  0  0
   47.1120   34.3450   41.6020 C   0  0  1  0  0  0  0  0  0  0  0  0
   47.3280   34.2090   40.1450 C   0  0  0  0  0  0  0  0  0  0  0  0
   46.3280   33.5600   39.3960 N   0  0  0  0  0  0  0  0  0  0  0  0
   45.0200   33.4780   39.9420 C   0  0  0  0  0  0  0  0  0  0  0  0
   44.8340   34.6100   40.9440 C   0  0  0  0  0  0  0  0  0  0  0  0
   44.7550   35.5830   43.8930 C   0  0  0  0  0  0  0  0  0  0  0  0
   45.4920   34.4890   43.4210 C   0  0  0  0  0  0  0  0  0  0  0  0
   45.8940   33.4990   44.3220 C   0  0  0  0  0  0  0  0  0  0  0  0
   45.5540   33.6390   45.6270 N   0  0  0  0  0  0  0  0  0  0  0  0
   44.8440   34.7040   46.0590 C   0  0  0  0  0  0  0  0  0  0  0  0
   44.4480   35.6650   45.2050 N   0  0  0  0  0  0  0  0  0  0  0  0
   47.8200   35.4890   42.0360 O   0  0  0  0  0  0  0  0  0  0  0  0
   47.4625   33.4005   42.0437 H   0  0  0  0  0  0  0  0  0  0  0  0
   47.4421   35.2226   39.7331 H   0  0  0  0  0  0  0  0  0  0  0  0
   48.2116   33.5604   40.0527 H   0  0  0  0  0  0  0  0  0  0  0  0
   46.6496   32.5956   39.2303 H   0  0  0  0  0  0  0  0  0  0  0  0
   44.2767   33.5715   39.1365 H   0  0  0  0  0  0  0  0  0  0  0  0
   44.8849   32.5087   40.4442 H   0  0  0  0  0  0  0  0  0  0  0  0
   44.9937   35.5725   40.4361 H   0  0  0  0  0  0  0  0  0  0  0  0
   43.8133   34.5599   41.3509 H   0  0  0  0  0  0  0  0  0  0  0  0
   44.4283   36.3708   43.1983 H   0  0  0  0  0  0  0  0  0  0  0  0
   46.4721   32.6276   43.9807 H   0  0  0  0  0  0  0  0  0  0  0  0
   44.5858   34.7866   47.1251 H   0  0  0  0  0  0  0  0  0  0  0  0
   47.8345   35.5124   43.0256 H   0  0  0  0  0  0  0  0  0  0  0  0
  1  8  1  0
  2  1  1  0
  2 13  1  0
  3  2  1  0
  4  5  1  0
  4  3  1  0
  5  6  1  0
  6  1  1  0
  7 12  2  0
  8  7  1  0
  8  9  2  0
  9 10  1  0
 10 11  2  0
 12 11  1  0
  2 14  1  1
  3 15  1  0
  3 16  1  0
  4 17  1  0
  5 18  1  0
  5 19  1  0
  6 20  1  0
  6 21  1  0
  7 22  1  0
  9 23  1  0
 11 24  1  0
 13 25  1  0
M  ISO  8  14  13  15  13  16  13  17   5  18  13  19  13  20  13  21  13
M  ISO  4  22  14  23  14  24  14  25   3
M  END
>  <minimizedAffinity>  (1) 
-3.8956964

>  <minimizedRMSD>  (1) 
2.2983191

$$$$
