
     RDKit          3D

 26 27  0  0  1  0  0  0  0  0999 V2000
   43.6610   34.1470   41.5330 N   0  0  0  0  0  0  0  0  0  0  0  0
   43.1310   32.8610   41.1570 C   0  0  2  0  0  0  0  0  0  0  0  0
   42.6490   32.8470   39.7290 C   0  0  0  0  0  0  0  0  0  0  0  0
   41.8300   33.9420   39.4000 N   0  0  0  0  0  0  0  0  0  0  0  0
   42.1340   35.1920   39.9640 C   0  0  0  0  0  0  0  0  0  0  0  0
   43.5340   35.1950   40.5620 C   0  0  0  0  0  0  0  0  0  0  0  0
   44.0750   35.4440   43.4950 C   0  0  0  0  0  0  0  0  0  0  0  0
   44.2540   34.2460   42.8130 C   0  0  0  0  0  0  0  0  0  0  0  0
   44.9960   33.2640   43.4490 C   0  0  0  0  0  0  0  0  0  0  0  0
   45.5080   33.4990   44.6840 N   0  0  0  0  0  0  0  0  0  0  0  0
   45.3150   34.6710   45.3170 C   0  0  0  0  0  0  0  0  0  0  0  0
   44.5980   35.6440   44.7210 N   0  0  0  0  0  0  0  0  0  0  0  0
   42.0040   32.4450   41.9750 N   0  0  0  0  0  0  0  0  0  0  0  0
   43.9740   32.1691   41.3003 H   0  0  0  0  0  0  0  0  0  0  0  0
   43.5265   32.8575   39.0658 H   0  0  0  0  0  0  0  0  0  0  0  0
   42.0400   31.9396   39.6032 H   0  0  0  0  0  0  0  0  0  0  0  0
   41.8644   34.0524   38.3765 H   0  0  0  0  0  0  0  0  0  0  0  0
   42.0753   35.9633   39.1819 H   0  0  0  0  0  0  0  0  0  0  0  0
   41.4101   35.4000   40.7657 H   0  0  0  0  0  0  0  0  0  0  0  0
   44.2715   35.0392   39.7609 H   0  0  0  0  0  0  0  0  0  0  0  0
   43.7118   36.1628   41.0537 H   0  0  0  0  0  0  0  0  0  0  0  0
   43.4922   36.2485   43.0225 H   0  0  0  0  0  0  0  0  0  0  0  0
   45.1697   32.2968   42.9547 H   0  0  0  0  0  0  0  0  0  0  0  0
   45.7413   34.8341   46.3178 H   0  0  0  0  0  0  0  0  0  0  0  0
   42.2505   32.5360   42.9709 H   0  0  0  0  0  0  0  0  0  0  0  0
   41.1902   33.0411   41.7669 H   0  0  0  0  0  0  0  0  0  0  0  0
  1  8  1  0
  2  1  1  0
  2 13  1  0
  3  2  1  0
  4  3  1  0
  4  5  1  0
  5  6  1  0
  6  1  1  0
  7 12  2  0
  8  9  2  0
  8  7  1  0
  9 10  1  0
 10 11  2  0
 12 11  1  0
  2 14  1  6
  3 15  1  0
  3 16  1  0
  4 17  1  0
  5 18  1  0
  5 19  1  0
  6 20  1  0
  6 21  1  0
  7 22  1  0
  9 23  1  0
 11 24  1  0
 13 25  1  0
 13 26  1  0
M  ISO  8  14  13  15  13  16  13  17   5  18  13  19  13  20  13  21  13
M  ISO  5  22  14  23  14  24  14  25   5  26   5
M  END
>  <minimizedAffinity>  (1) 
-3.47968984

>  <minimizedRMSD>  (1) 
1.06299329

$$$$
