
     RDKit          3D

 34 35  0  0  1  0  0  0  0  0999 V2000
   45.3270   34.2160   41.7420 N   0  0  0  0  0  0  0  0  0  0  0  0
   46.4920   33.5270   41.2730 C   0  0  1  0  0  0  0  0  0  0  0  0
   46.5510   33.2730   39.8170 C   0  0  0  0  0  0  0  0  0  0  0  0
   45.3430   33.0100   39.1830 N   0  0  0  0  0  0  0  0  0  0  0  0
   44.1560   33.5100   39.7210 C   0  0  0  0  0  0  0  0  0  0  0  0
   44.4460   34.6260   40.6950 C   0  0  0  0  0  0  0  0  0  0  0  0
   44.6410   35.6390   43.5030 C   0  0  0  0  0  0  0  0  0  0  0  0
   45.1830   34.4070   43.1160 C   0  0  0  0  0  0  0  0  0  0  0  0
   45.5240   33.4960   44.1180 C   0  0  0  0  0  0  0  0  0  0  0  0
   45.3330   33.8040   45.4180 N   0  0  0  0  0  0  0  0  0  0  0  0
   44.8060   35.0060   45.7680 C   0  0  0  0  0  0  0  0  0  0  0  0
   44.4620   35.9170   44.8350 N   0  0  0  0  0  0  0  0  0  0  0  0
   47.7210   34.3310   41.6660 C   0  0  0  0  0  0  0  0  0  0  0  0
   50.0410   35.3240   43.0020 N   0  0  0  0  0  0  0  0  0  0  0  0
   50.0310   34.1420   42.4820 C   0  0  0  0  0  0  0  0  0  0  0  0
   48.7940   33.4920   42.1220 N   0  0  0  0  0  0  0  0  0  0  0  0
   51.3090   33.5240   42.2870 N   0  0  0  0  0  0  0  0  0  0  0  0
   49.1800   35.8480   43.1810 H   0  0  0  0  0  0  0  0  0  0  0  0
   46.4506   32.5342   41.7449 H   0  0  0  0  0  0  0  0  0  0  0  0
   46.9917   34.1612   39.3407 H   0  0  0  0  0  0  0  0  0  0  0  0
   47.1436   32.3529   39.7064 H   0  0  0  0  0  0  0  0  0  0  0  0
   45.2441   31.9856   39.1420 H   0  0  0  0  0  0  0  0  0  0  0  0
   43.5236   33.8948   38.9074 H   0  0  0  0  0  0  0  0  0  0  0  0
   43.6373   32.6991   40.2533 H   0  0  0  0  0  0  0  0  0  0  0  0
   44.9098   35.4607   40.1489 H   0  0  0  0  0  0  0  0  0  0  0  0
   43.4934   34.9273   41.1552 H   0  0  0  0  0  0  0  0  0  0  0  0
   44.3596   36.3815   42.7418 H   0  0  0  0  0  0  0  0  0  0  0  0
   45.9516   32.5198   43.8456 H   0  0  0  0  0  0  0  0  0  0  0  0
   44.6570   35.2407   46.8323 H   0  0  0  0  0  0  0  0  0  0  0  0
   48.0651   34.9026   40.7915 H   0  0  0  0  0  0  0  0  0  0  0  0
   47.4382   34.9981   42.4937 H   0  0  0  0  0  0  0  0  0  0  0  0
   48.6851   32.4700   42.1892 H   0  0  0  0  0  0  0  0  0  0  0  0
   51.3679   32.5813   41.8763 H   0  0  0  0  0  0  0  0  0  0  0  0
   52.1688   34.0225   42.5576 H   0  0  0  0  0  0  0  0  0  0  0  0
  1  8  1  0
  2 13  1  0
  2  1  1  0
  3  2  1  0
  4  5  1  0
  4  3  1  0
  5  6  1  0
  6  1  1  0
  7 12  2  0
  8  7  1  0
  8  9  2  0
  9 10  1  0
 10 11  2  0
 12 11  1  0
 13 16  1  0
 14 18  1  0
 15 14  2  0
 16 15  1  0
 17 15  1  0
  2 19  1  1
  3 20  1  0
  3 21  1  0
  4 22  1  0
  5 23  1  0
  5 24  1  0
  6 25  1  0
  6 26  1  0
  7 27  1  0
  9 28  1  0
 11 29  1  0
 13 30  1  0
 13 31  1  0
 16 32  1  0
 17 33  1  0
 17 34  1  0
M  ISO  8  19  13  20  13  21  13  22   5  23  13  24  13  25  13  26  13
M  ISO  5  27  14  28  14  29  14  30   8  31   8
M  END
>  <minimizedAffinity>  (1) 
-5.20728207

>  <minimizedRMSD>  (1) 
1.06865978

$$$$
