
     RDKit          3D

 25 26  0  0  0  0  0  0  0  0999 V2000
   44.2540   35.1430   42.6420 C   0  0  0  0  0  0  0  0  0  0  0  0
   44.6840   33.8060   42.5870 C   0  0  0  0  0  0  0  0  0  0  0  0
   45.1830   33.2310   43.7580 C   0  0  0  0  0  0  0  0  0  0  0  0
   45.2240   33.9860   44.8740 N   0  0  0  0  0  0  0  0  0  0  0  0
   44.7960   35.2840   44.8880 C   0  0  0  0  0  0  0  0  0  0  0  0
   44.3110   35.8630   43.7750 N   0  0  0  0  0  0  0  0  0  0  0  0
   43.7210   35.7530   41.3860 C   0  0  0  0  0  0  0  0  0  0  0  0
   42.4750   35.3260   40.9810 N   0  0  0  0  0  0  0  0  0  0  0  0
   41.3320   35.4810   41.7520 C   0  0  0  0  0  0  0  0  0  0  0  0
   40.2750   35.7860   40.6800 C   0  0  0  0  0  0  0  0  0  0  0  0
   40.7470   34.8920   39.5510 C   0  0  0  0  0  0  0  0  0  0  0  0
   42.2450   34.6760   39.7710 C   0  0  0  0  0  0  0  0  0  0  0  0
   44.6293   33.2305   41.6511 H   0  0  0  0  0  0  0  0  0  0  0  0
   45.5337   32.1884   43.7693 H   0  0  0  0  0  0  0  0  0  0  0  0
   44.8489   35.8628   45.8219 H   0  0  0  0  0  0  0  0  0  0  0  0
   43.6694   36.8413   41.5376 H   0  0  0  0  0  0  0  0  0  0  0  0
   44.4121   35.4376   40.5905 H   0  0  0  0  0  0  0  0  0  0  0  0
   41.0911   34.5596   42.3024 H   0  0  0  0  0  0  0  0  0  0  0  0
   41.4178   36.2552   42.5287 H   0  0  0  0  0  0  0  0  0  0  0  0
   39.2649   35.5114   41.0182 H   0  0  0  0  0  0  0  0  0  0  0  0
   40.1917   36.8499   40.4132 H   0  0  0  0  0  0  0  0  0  0  0  0
   40.5711   35.3792   38.5806 H   0  0  0  0  0  0  0  0  0  0  0  0
   40.2024   33.9363   39.5439 H   0  0  0  0  0  0  0  0  0  0  0  0
   42.4845   33.6049   39.8446 H   0  0  0  0  0  0  0  0  0  0  0  0
   42.8660   35.0567   38.9467 H   0  0  0  0  0  0  0  0  0  0  0  0
  1  6  1  0
  2  1  2  0
  2  3  1  0
  3  4  2  0
  4  5  1  0
  6  5  2  0
  7  1  1  0
  8  7  1  0
  8  9  1  0
 10  9  1  0
 11 12  1  0
 11 10  1  0
 12  8  1  0
  2 13  1  0
  3 14  1  0
  5 15  1  0
  7 16  1  0
  7 17  1  0
  9 18  1  0
  9 19  1  0
 10 20  1  0
 10 21  1  0
 11 22  1  0
 11 23  1  0
 12 24  1  0
 12 25  1  0
M  ISO  8  13  14  14  14  15  14  16   8  17   8  18  13  19  13  20  13
M  ISO  5  21  13  22  13  23  13  24  13  25  13
M  END
>  <minimizedAffinity>  (1) 
-3.83629131

>  <minimizedRMSD>  (1) 
1.93072164

$$$$
