
     RDKit          3D

 34 36  0  0  1  0  0  0  0  0999 V2000
   45.0760   34.3570   41.5990 N   0  0  0  0  0  0  0  0  0  0  0  0
   46.2810   33.8560   40.9790 C   0  0  1  0  0  0  0  0  0  0  0  0
   46.1860   33.7450   39.5060 C   0  0  0  0  0  0  0  0  0  0  0  0
   44.9640   33.3100   38.9750 N   0  0  0  0  0  0  0  0  0  0  0  0
   43.7930   33.6370   39.6750 C   0  0  0  0  0  0  0  0  0  0  0  0
   44.0230   34.7230   40.7040 C   0  0  0  0  0  0  0  0  0  0  0  0
   44.5730   35.6240   43.5610 C   0  0  0  0  0  0  0  0  0  0  0  0
   45.0610   34.4330   43.0100 C   0  0  0  0  0  0  0  0  0  0  0  0
   45.4910   33.4280   43.8820 C   0  0  0  0  0  0  0  0  0  0  0  0
   45.4270   33.6220   45.2270 N   0  0  0  0  0  0  0  0  0  0  0  0
   44.9530   34.7740   45.7230 C   0  0  0  0  0  0  0  0  0  0  0  0
   44.5310   35.7640   44.9160 N   0  0  0  0  0  0  0  0  0  0  0  0
   47.3940   34.8230   41.2960 C   0  0  0  0  0  0  0  0  0  0  0  0
   48.6720   34.1950   41.6300 C   0  0  0  0  0  0  0  0  0  0  0  0
   49.7890   34.7020   42.3960 C   0  0  0  0  0  0  0  0  0  0  0  0
   50.8380   33.8400   42.5230 C   0  0  0  0  0  0  0  0  0  0  0  0
   50.8620   32.5640   41.9670 C   0  0  0  0  0  0  0  0  0  0  0  0
   49.1970   32.4760   41.1190 S   0  0  0  0  0  0  0  0  0  0  0  0
   46.4585   32.8445   41.3732 H   0  0  0  0  0  0  0  0  0  0  0  0
   46.3948   34.7395   39.0848 H   0  0  0  0  0  0  0  0  0  0  0  0
   46.9091   32.9624   39.2329 H   0  0  0  0  0  0  0  0  0  0  0  0
   44.8793   33.7114   38.0302 H   0  0  0  0  0  0  0  0  0  0  0  0
   43.0368   33.9853   38.9561 H   0  0  0  0  0  0  0  0  0  0  0  0
   43.4562   32.7351   40.2072 H   0  0  0  0  0  0  0  0  0  0  0  0
   44.2948   35.6563   40.1892 H   0  0  0  0  0  0  0  0  0  0  0  0
   43.0986   34.8619   41.2839 H   0  0  0  0  0  0  0  0  0  0  0  0
   44.2271   36.4382   42.9071 H   0  0  0  0  0  0  0  0  0  0  0  0
   45.8808   32.4809   43.4806 H   0  0  0  0  0  0  0  0  0  0  0  0
   44.9083   34.9125   46.8133 H   0  0  0  0  0  0  0  0  0  0  0  0
   47.5481   35.4679   40.4183 H   0  0  0  0  0  0  0  0  0  0  0  0
   47.0775   35.3788   42.1909 H   0  0  0  0  0  0  0  0  0  0  0  0
   49.7922   35.7073   42.8426 H   0  0  0  0  0  0  0  0  0  0  0  0
   51.7153   34.1719   43.0976 H   0  0  0  0  0  0  0  0  0  0  0  0
   51.6554   31.8036   42.0142 H   0  0  0  0  0  0  0  0  0  0  0  0
  1  8  1  0
  2 13  1  0
  2  1  1  0
  3  2  1  0
  4  3  1  0
  4  5  1  0
  5  6  1  0
  6  1  1  0
  7 12  2  0
  8  7  1  0
  8  9  2  0
  9 10  1  0
 10 11  2  0
 12 11  1  0
 13 14  1  0
 14 15  2  0
 15 16  1  0
 17 16  2  0
 18 14  1  0
 18 17  1  0
  2 19  1  1
  3 20  1  0
  3 21  1  0
  4 22  1  0
  5 23  1  0
  5 24  1  0
  6 25  1  0
  6 26  1  0
  7 27  1  0
  9 28  1  0
 11 29  1  0
 13 30  1  0
 13 31  1  0
 15 32  1  0
 16 33  1  0
 17 34  1  0
M  ISO  8  19  13  20  13  21  13  22   5  23  13  24  13  25  13  26  13
M  ISO  8  27  14  28  14  29  14  30   8  31   8  32  14  33  14  34  14
M  END
>  <minimizedAffinity>  (1) 
-4.88953829

>  <minimizedRMSD>  (1) 
1.13455331

$$$$
