
     RDKit          3D

 24 25  0  0  0  0  0  0  0  0999 V2000
   47.6850   34.4110   39.8690 C   0  0  0  0  0  0  0  0  0  0  0  0
   46.6240   33.7160   40.4030 C   0  0  0  0  0  0  0  0  0  0  0  0
   45.9290   32.9050   39.5660 C   0  0  0  0  0  0  0  0  0  0  0  0
   46.2200   32.7360   38.2230 C   0  0  0  0  0  0  0  0  0  0  0  0
   47.2940   33.4510   37.7230 C   0  0  0  0  0  0  0  0  0  0  0  0
   48.0250   34.2820   38.5290 C   0  0  0  0  0  0  0  0  0  0  0  0
   45.0320   34.9240   43.6070 C   0  0  0  0  0  0  0  0  0  0  0  0
   45.2840   34.7370   42.2410 C   0  0  0  0  0  0  0  0  0  0  0  0
   46.3510   33.9190   41.8120 C   0  0  0  0  0  0  0  0  0  0  0  0
   47.0770   33.3580   42.7970 N   0  0  0  0  0  0  0  0  0  0  0  0
   46.8370   33.5370   44.0960 C   0  0  0  0  0  0  0  0  0  0  0  0
   45.8150   34.3190   44.5010 N   0  0  0  0  0  0  0  0  0  0  0  0
   43.9580   35.7480   43.9820 N   0  0  0  0  0  0  0  0  0  0  0  0
   49.1320   36.0140   41.3380 N   0  0  0  0  0  0  0  0  0  0  0  0
   48.4790   35.2940   40.6800 C   0  0  0  0  0  0  0  0  0  0  0  0
   49.1180   35.0100   38.0180 O   0  0  0  0  0  0  0  0  0  0  0  0
   45.0784   32.3450   39.9819 H   0  0  0  0  0  0  0  0  0  0  0  0
   45.6261   32.0657   37.5843 H   0  0  0  0  0  0  0  0  0  0  0  0
   47.5647   33.3502   36.6616 H   0  0  0  0  0  0  0  0  0  0  0  0
   44.6440   35.2326   41.4962 H   0  0  0  0  0  0  0  0  0  0  0  0
   47.4766   33.0437   44.8427 H   0  0  0  0  0  0  0  0  0  0  0  0
   43.3769   36.1972   43.2599 H   0  0  0  0  0  0  0  0  0  0  0  0
   43.7515   35.9030   44.9791 H   0  0  0  0  0  0  0  0  0  0  0  0
   49.6370   35.6069   38.6134 H   0  0  0  0  0  0  0  0  0  0  0  0
  1  2  2  0
  1 15  1  0
  2  9  1  0
  3  2  1  0
  4  3  2  0
  5  4  1  0
  5  6  2  0
  6  1  1  0
  7 13  1  0
  7 12  2  0
  8  7  1  0
  9  8  2  0
  9 10  1  0
 10 11  2  0
 11 12  1  0
 15 14  3  0
 16  6  1  0
  3 17  1  0
  4 18  1  0
  5 19  1  0
  8 20  1  0
 11 21  1  0
 13 22  1  0
 13 23  1  0
 16 24  1  0
M  ISO  6  17  14  18  14  19  14  20  14  21  14  24   3
M  END
>  <minimizedAffinity>  (1) 
-5.08178473

>  <minimizedRMSD>  (1) 
0.415427804

$$$$
