
     RDKit          3D

 32 34  0  0  0  0  0  0  0  0999 V2000
   44.5060   34.0300   40.2510 C   0  0  0  0  0  0  0  0  0  0  0  0
   45.8040   33.5980   40.0100 C   0  0  0  0  0  0  0  0  0  0  0  0
   46.0380   32.8570   38.8840 C   0  0  0  0  0  0  0  0  0  0  0  0
   45.0380   32.5230   37.9830 C   0  0  0  0  0  0  0  0  0  0  0  0
   43.7660   32.9650   38.2500 C   0  0  0  0  0  0  0  0  0  0  0  0
   43.4920   33.7080   39.3640 C   0  0  0  0  0  0  0  0  0  0  0  0
   47.7960   33.8400   43.2160 C   0  0  0  0  0  0  0  0  0  0  0  0
   46.7980   33.4490   42.2950 C   0  0  0  0  0  0  0  0  0  0  0  0
   46.8130   33.9750   40.9870 C   0  0  0  0  0  0  0  0  0  0  0  0
   47.8220   34.8440   40.7140 N   0  0  0  0  0  0  0  0  0  0  0  0
   48.7540   35.2000   41.5990 C   0  0  0  0  0  0  0  0  0  0  0  0
   48.7300   34.6900   42.8470 N   0  0  0  0  0  0  0  0  0  0  0  0
   47.7440   33.2950   44.5070 N   0  0  0  0  0  0  0  0  0  0  0  0
   42.1470   34.1810   39.6570 C   0  0  0  0  0  0  0  0  0  0  0  0
   41.6500   35.3770   39.2000 C   0  0  0  0  0  0  0  0  0  0  0  0
   40.3860   35.8730   39.4460 C   0  0  0  0  0  0  0  0  0  0  0  0
   39.5300   35.1190   40.2190 C   0  0  0  0  0  0  0  0  0  0  0  0
   40.0140   33.9150   40.6860 C   0  0  0  0  0  0  0  0  0  0  0  0
   41.2600   33.5000   40.4020 N   0  0  0  0  0  0  0  0  0  0  0  0
   43.9330   35.4470   42.3500 N   0  0  0  0  0  0  0  0  0  0  0  0
   44.2010   34.8070   41.4090 C   0  0  0  0  0  0  0  0  0  0  0  0
   47.0631   32.5114   38.6848 H   0  0  0  0  0  0  0  0  0  0  0  0
   45.2564   31.9250   37.0860 H   0  0  0  0  0  0  0  0  0  0  0  0
   42.9514   32.7163   37.5538 H   0  0  0  0  0  0  0  0  0  0  0  0
   46.0143   32.7386   42.5968 H   0  0  0  0  0  0  0  0  0  0  0  0
   49.5429   35.9102   41.3106 H   0  0  0  0  0  0  0  0  0  0  0  0
   48.4544   33.5566   45.2054 H   0  0  0  0  0  0  0  0  0  0  0  0
   46.9954   32.6331   44.7568 H   0  0  0  0  0  0  0  0  0  0  0  0
   42.3192   35.9946   38.5829 H   0  0  0  0  0  0  0  0  0  0  0  0
   40.0704   36.8438   39.0362 H   0  0  0  0  0  0  0  0  0  0  0  0
   38.5107   35.4606   40.4521 H   0  0  0  0  0  0  0  0  0  0  0  0
   39.3645   33.2793   41.3057 H   0  0  0  0  0  0  0  0  0  0  0  0
  1 21  1  0
  2  1  2  0
  2  9  1  0
  3  2  1  0
  4  5  1  0
  4  3  2  0
  5  6  2  0
  6 14  1  0
  6  1  1  0
  7 13  1  0
  8  7  2  0
  9  8  1  0
 10  9  2  0
 10 11  1  0
 11 12  2  0
 12  7  1  0
 14 19  2  0
 15 16  2  0
 15 14  1  0
 16 17  1  0
 17 18  2  0
 19 18  1  0
 21 20  3  0
  3 22  1  0
  4 23  1  0
  5 24  1  0
  8 25  1  0
 11 26  1  0
 13 27  1  0
 13 28  1  0
 15 29  1  0
 16 30  1  0
 17 31  1  0
 18 32  1  0
M  ISO  8  22  14  23  14  24  14  25  14  26  14  29  14  30  14  31  14
M  ISO  1  32  14
M  END
>  <minimizedAffinity>  (1) 
-5.24100685

>  <minimizedRMSD>  (1) 
6.35856104

$$$$
