
     RDKit          3D

 27 28  0  0  0  0  0  0  0  0999 V2000
   47.2990   34.1720   40.2120 C   0  0  0  0  0  0  0  0  0  0  0  0
   46.2120   33.5790   40.8320 C   0  0  0  0  0  0  0  0  0  0  0  0
   45.4020   32.7960   40.0660 C   0  0  0  0  0  0  0  0  0  0  0  0
   45.6130   32.5700   38.7170 C   0  0  0  0  0  0  0  0  0  0  0  0
   46.7110   33.1800   38.1280 C   0  0  0  0  0  0  0  0  0  0  0  0
   47.5450   33.9720   38.8680 C   0  0  0  0  0  0  0  0  0  0  0  0
   44.8990   34.9450   44.0950 C   0  0  0  0  0  0  0  0  0  0  0  0
   45.0440   34.7170   42.7100 C   0  0  0  0  0  0  0  0  0  0  0  0
   46.0280   33.8430   42.2510 C   0  0  0  0  0  0  0  0  0  0  0  0
   46.7970   33.2590   43.1990 N   0  0  0  0  0  0  0  0  0  0  0  0
   46.6470   33.4840   44.5070 C   0  0  0  0  0  0  0  0  0  0  0  0
   45.7020   34.3250   44.9490 N   0  0  0  0  0  0  0  0  0  0  0  0
   43.8790   35.8470   44.5030 N   0  0  0  0  0  0  0  0  0  0  0  0
   49.0030   33.9620   36.9990 C   0  0  0  0  0  0  0  0  0  0  0  0
   48.6110   33.0140   36.2700 O   0  0  0  0  0  0  0  0  0  0  0  0
   48.6560   34.5830   38.2450 N   0  0  0  0  0  0  0  0  0  0  0  0
   48.9330   35.7010   41.5490 N   0  0  0  0  0  0  0  0  0  0  0  0
   48.2000   35.0140   40.9550 C   0  0  0  0  0  0  0  0  0  0  0  0
   44.5346   32.3182   40.5449 H   0  0  0  0  0  0  0  0  0  0  0  0
   44.9349   31.9301   38.1332 H   0  0  0  0  0  0  0  0  0  0  0  0
   46.9123   33.0255   37.0577 H   0  0  0  0  0  0  0  0  0  0  0  0
   44.3824   35.2275   41.9947 H   0  0  0  0  0  0  0  0  0  0  0  0
   47.3044   32.9749   45.2271 H   0  0  0  0  0  0  0  0  0  0  0  0
   43.2821   36.3025   43.7979 H   0  0  0  0  0  0  0  0  0  0  0  0
   43.7368   36.0451   45.5037 H   0  0  0  0  0  0  0  0  0  0  0  0
   49.8703   34.4643   36.5457 H   0  0  0  0  0  0  0  0  0  0  0  0
   49.1622   35.3873   38.6423 H   0  0  0  0  0  0  0  0  0  0  0  0
  1  2  2  0
  1 18  1  0
  2  9  1  0
  3  2  1  0
  4  3  2  0
  5  4  1  0
  5  6  2  0
  6  1  1  0
  7 13  1  0
  7 12  2  0
  8  7  1  0
  9  8  2  0
  9 10  1  0
 10 11  2  0
 11 12  1  0
 14 16  1  0
 15 14  2  0
 16  6  1  0
 18 17  3  0
  3 19  1  0
  4 20  1  0
  5 21  1  0
  8 22  1  0
 11 23  1  0
 13 24  1  0
 13 25  1  0
 14 26  1  0
 16 27  1  0
M  ISO  6  19  14  20  14  21  14  22  14  23  14  26   6
M  END
>  <minimizedAffinity>  (1) 
-4.99533987

>  <minimizedRMSD>  (1) 
1.16452074

$$$$
