
     RDKit          3D

 15 15  0  0  0  0  0  0  0  0999 V2000
   45.5150   35.0580   43.9510 C   0  0  0  0  0  0  0  0  0  0  0  0
   46.5720   34.2680   43.5020 C   0  0  0  0  0  0  0  0  0  0  0  0
   47.0570   33.2560   44.3390 C   0  0  0  0  0  0  0  0  0  0  0  0
   46.4710   33.0910   45.5510 N   0  0  0  0  0  0  0  0  0  0  0  0
   45.4330   33.8860   45.9580 C   0  0  0  0  0  0  0  0  0  0  0  0
   44.9610   34.8630   45.1590 N   0  0  0  0  0  0  0  0  0  0  0  0
   45.0110   36.1320   43.0470 C   0  0  0  0  0  0  0  0  0  0  0  0
   43.6820   35.8450   42.5590 N   0  0  0  0  0  0  0  0  0  0  0  0
   47.0162   34.4364   42.5099 H   0  0  0  0  0  0  0  0  0  0  0  0
   47.8907   32.6121   44.0223 H   0  0  0  0  0  0  0  0  0  0  0  0
   44.9798   33.7254   46.9474 H   0  0  0  0  0  0  0  0  0  0  0  0
   44.9891   37.0820   43.6010 H   0  0  0  0  0  0  0  0  0  0  0  0
   45.6864   36.1938   42.1810 H   0  0  0  0  0  0  0  0  0  0  0  0
   43.0455   35.7075   43.3570 H   0  0  0  0  0  0  0  0  0  0  0  0
   43.3489   36.6335   41.9860 H   0  0  0  0  0  0  0  0  0  0  0  0
  1  6  2  0
  2  1  1  0
  2  3  2  0
  3  4  1  0
  4  5  2  0
  6  5  1  0
  7  1  1  0
  8  7  1  0
  2  9  1  0
  3 10  1  0
  5 11  1  0
  7 12  1  0
  7 13  1  0
  8 14  1  0
  8 15  1  0
M  ISO  7   9  14  10  14  11  14  12   8  13   8  14   5  15   5
M  END
>  <minimizedAffinity>  (1) 
-2.90517139

>  <minimizedRMSD>  (1) 
0.153411731

$$$$
