
     RDKit          3D

 33 35  0  0  0  0  0  0  0  0999 V2000
   45.1300   33.9400   40.7010 C   0  0  0  0  0  0  0  0  0  0  0  0
   44.0790   33.6360   39.8760 C   0  0  0  0  0  0  0  0  0  0  0  0
   44.3790   33.1560   38.6310 C   0  0  0  0  0  0  0  0  0  0  0  0
   45.6610   32.9670   38.1710 C   0  0  0  0  0  0  0  0  0  0  0  0
   46.6940   33.2820   39.0230 C   0  0  0  0  0  0  0  0  0  0  0  0
   46.4400   33.7680   40.2860 C   0  0  0  0  0  0  0  0  0  0  0  0
   40.7960   35.2590   40.7910 C   0  0  0  0  0  0  0  0  0  0  0  0
   42.0950   35.0930   40.2730 C   0  0  0  0  0  0  0  0  0  0  0  0
   42.7440   33.8490   40.3960 C   0  0  0  0  0  0  0  0  0  0  0  0
   42.0330   32.8830   41.0260 N   0  0  0  0  0  0  0  0  0  0  0  0
   40.8040   33.0610   41.5090 C   0  0  0  0  0  0  0  0  0  0  0  0
   40.1890   34.2450   41.3920 N   0  0  0  0  0  0  0  0  0  0  0  0
   40.1920   36.5270   40.6410 N   0  0  0  0  0  0  0  0  0  0  0  0
   47.6010   34.0730   41.1160 C   0  0  0  0  0  0  0  0  0  0  0  0
   48.1380   35.3320   40.9510 C   0  0  0  0  0  0  0  0  0  0  0  0
   49.2440   35.8030   41.6530 C   0  0  0  0  0  0  0  0  0  0  0  0
   49.8270   34.9460   42.5650 C   0  0  0  0  0  0  0  0  0  0  0  0
   49.3100   33.6820   42.7500 C   0  0  0  0  0  0  0  0  0  0  0  0
   48.2050   33.2420   42.0360 C   0  0  0  0  0  0  0  0  0  0  0  0
   44.7210   34.8620   43.1110 N   0  0  0  0  0  0  0  0  0  0  0  0
   44.9030   34.4510   42.0270 C   0  0  0  0  0  0  0  0  0  0  0  0
   43.5456   32.9064   37.9579 H   0  0  0  0  0  0  0  0  0  0  0  0
   45.8532   32.5786   37.1600 H   0  0  0  0  0  0  0  0  0  0  0  0
   47.7339   33.1442   38.6918 H   0  0  0  0  0  0  0  0  0  0  0  0
   42.6013   35.9324   39.7738 H   0  0  0  0  0  0  0  0  0  0  0  0
   40.2894   32.2272   42.0088 H   0  0  0  0  0  0  0  0  0  0  0  0
   40.7006   37.2869   40.1669 H   0  0  0  0  0  0  0  0  0  0  0  0
   39.2429   36.6918   41.0057 H   0  0  0  0  0  0  0  0  0  0  0  0
   47.6641   36.0046   40.2209 H   0  0  0  0  0  0  0  0  0  0  0  0
   49.6375   36.8168   41.4878 H   0  0  0  0  0  0  0  0  0  0  0  0
   50.7038   35.2720   43.1437 H   0  0  0  0  0  0  0  0  0  0  0  0
   49.7834   33.0079   43.4790 H   0  0  0  0  0  0  0  0  0  0  0  0
   47.8101   32.2291   42.2039 H   0  0  0  0  0  0  0  0  0  0  0  0
  1 21  1  0
  2  9  1  0
  2  1  2  0
  3  2  1  0
  4  3  2  0
  4  5  1  0
  5  6  2  0
  6  1  1  0
  6 14  1  0
  7 12  2  0
  8  9  2  0
  8  7  1  0
  9 10  1  0
 10 11  2  0
 12 11  1  0
 13  7  1  0
 14 19  1  0
 15 14  2  0
 15 16  1  0
 16 17  2  0
 17 18  1  0
 19 18  2  0
 21 20  3  0
  3 22  1  0
  4 23  1  0
  5 24  1  0
  8 25  1  0
 11 26  1  0
 13 27  1  0
 13 28  1  0
 15 29  1  0
 16 30  1  0
 17 31  1  0
 18 32  1  0
 19 33  1  0
M  ISO  8  22  14  23  14  24  14  25  14  26  14  29  14  30  14  31  14
M  ISO  2  32  14  33  14
M  END
>  <minimizedAffinity>  (1) 
-5.81200981

>  <minimizedRMSD>  (1) 
4.3499527

$$$$
