
     RDKit          3D

 46 50  0  0  0  0  0  0  0  0999 V2000
   45.0270   33.9910   40.8120 C   0  0  0  0  0  0  0  0  0  0  0  0
   43.9720   33.5830   40.0460 C   0  0  0  0  0  0  0  0  0  0  0  0
   44.2740   32.9380   38.8640 C   0  0  0  0  0  0  0  0  0  0  0  0
   45.5560   32.6970   38.4340 C   0  0  0  0  0  0  0  0  0  0  0  0
   46.5800   33.1260   39.2370 C   0  0  0  0  0  0  0  0  0  0  0  0
   46.3450   33.7690   40.4210 C   0  0  0  0  0  0  0  0  0  0  0  0
   40.7380   35.3560   40.8400 C   0  0  0  0  0  0  0  0  0  0  0  0
   42.0340   35.1080   40.3580 C   0  0  0  0  0  0  0  0  0  0  0  0
   42.6420   33.8540   40.5330 C   0  0  0  0  0  0  0  0  0  0  0  0
   41.8870   32.9420   41.1830 N   0  0  0  0  0  0  0  0  0  0  0  0
   40.6580   33.1810   41.6380 C   0  0  0  0  0  0  0  0  0  0  0  0
   40.0880   34.3770   41.4680 N   0  0  0  0  0  0  0  0  0  0  0  0
   40.1840   36.6350   40.6350 N   0  0  0  0  0  0  0  0  0  0  0  0
   47.4930   34.1850   41.1950 C   0  0  0  0  0  0  0  0  0  0  0  0
   48.0970   35.3530   40.7900 C   0  0  0  0  0  0  0  0  0  0  0  0
   49.2090   35.9270   41.4030 C   0  0  0  0  0  0  0  0  0  0  0  0
   49.7320   35.2630   42.4940 C   0  0  0  0  0  0  0  0  0  0  0  0
   49.1540   34.0830   42.9320 C   0  0  0  0  0  0  0  0  0  0  0  0
   48.0450   33.5530   42.2850 C   0  0  0  0  0  0  0  0  0  0  0  0
   47.6150   31.1510   42.0050 C   0  0  0  0  0  0  0  0  0  0  0  0
   47.4230   32.3140   42.7210 C   0  0  0  0  0  0  0  0  0  0  0  0
   46.6200   32.2440   43.8530 C   0  0  0  0  0  0  0  0  0  0  0  0
   46.0470   31.0190   44.2180 C   0  0  0  0  0  0  0  0  0  0  0  0
   45.2410   30.6810   45.2530 N   0  0  0  0  0  0  0  0  0  0  0  0
   44.9650   29.3890   45.1660 N   0  0  0  0  0  0  0  0  0  0  0  0
   45.5630   28.8300   44.0930 C   0  0  0  0  0  0  0  0  0  0  0  0
   46.2590   29.8730   43.4810 C   0  0  0  0  0  0  0  0  0  0  0  0
   47.0550   29.9160   42.3490 C   0  0  0  0  0  0  0  0  0  0  0  0
   44.6170   35.2350   43.0710 N   0  0  0  0  0  0  0  0  0  0  0  0
   44.7970   34.6720   42.0630 C   0  0  0  0  0  0  0  0  0  0  0  0
   43.4414   32.5978   38.2307 H   0  0  0  0  0  0  0  0  0  0  0  0
   45.7528   32.1803   37.4831 H   0  0  0  0  0  0  0  0  0  0  0  0
   47.6186   32.9485   38.9210 H   0  0  0  0  0  0  0  0  0  0  0  0
   42.5805   35.9073   39.8361 H   0  0  0  0  0  0  0  0  0  0  0  0
   40.1065   32.3847   42.1594 H   0  0  0  0  0  0  0  0  0  0  0  0
   40.7273   37.3588   40.1432 H   0  0  0  0  0  0  0  0  0  0  0  0
   39.2357   36.8463   40.9769 H   0  0  0  0  0  0  0  0  0  0  0  0
   47.6709   35.8716   39.9185 H   0  0  0  0  0  0  0  0  0  0  0  0
   49.6493   36.8653   41.0346 H   0  0  0  0  0  0  0  0  0  0  0  0
   50.6094   35.6716   43.0166 H   0  0  0  0  0  0  0  0  0  0  0  0
   49.5779   33.5598   43.8018 H   0  0  0  0  0  0  0  0  0  0  0  0
   48.2484   31.1974   41.1068 H   0  0  0  0  0  0  0  0  0  0  0  0
   46.4357   33.1440   44.4580 H   0  0  0  0  0  0  0  0  0  0  0  0
   44.9003   31.3212   45.9844 H   0  0  0  0  0  0  0  0  0  0  0  0
   45.5126   27.7795   43.7707 H   0  0  0  0  0  0  0  0  0  0  0  0
   47.2396   29.0156   41.7446 H   0  0  0  0  0  0  0  0  0  0  0  0
  1 30  1  0
  2  9  1  0
  2  1  2  0
  3  2  1  0
  4  3  2  0
  4  5  1  0
  5  6  2  0
  6  1  1  0
  6 14  1  0
  7 12  2  0
  8  9  2  0
  8  7  1  0
  9 10  1  0
 10 11  2  0
 12 11  1  0
 13  7  1  0
 14 19  1  0
 15 14  2  0
 15 16  1  0
 16 17  2  0
 17 18  1  0
 19 21  1  0
 19 18  2  0
 20 28  2  0
 20 21  1  0
 21 22  2  0
 22 23  1  0
 23 24  1  0
 25 24  1  0
 26 25  2  0
 27 26  1  0
 27 23  2  0
 28 27  1  0
 30 29  3  0
  3 31  1  0
  4 32  1  0
  5 33  1  0
  8 34  1  0
 11 35  1  0
 13 36  1  0
 13 37  1  0
 15 38  1  0
 16 39  1  0
 17 40  1  0
 18 41  1  0
 20 42  1  0
 22 43  1  0
 24 44  1  0
 26 45  1  0
 28 46  1  0
M  ISO  8  31  14  32  14  33  14  34  14  35  14  38  14  39  14  40  14
M  ISO  6  41  14  42  14  43  14  44   9  45  14  46  14
M  END
>  <minimizedAffinity>  (1) 
-6.46755981

>  <minimizedRMSD>  (1) 
1.28805113

$$$$
