
     RDKit          3D

 40 43  0  0  0  0  0  0  0  0999 V2000
   45.1800   33.9560   40.7030 C   0  0  0  0  0  0  0  0  0  0  0  0
   44.1180   33.6390   39.8800 C   0  0  0  0  0  0  0  0  0  0  0  0
   44.4210   33.1470   38.6380 C   0  0  0  0  0  0  0  0  0  0  0  0
   45.7000   32.9570   38.1760 C   0  0  0  0  0  0  0  0  0  0  0  0
   46.7350   33.2830   39.0240 C   0  0  0  0  0  0  0  0  0  0  0  0
   46.4870   33.7790   40.2760 C   0  0  0  0  0  0  0  0  0  0  0  0
   40.8320   35.2520   40.7850 C   0  0  0  0  0  0  0  0  0  0  0  0
   42.1330   35.0940   40.2640 C   0  0  0  0  0  0  0  0  0  0  0  0
   42.7800   33.8530   40.3980 C   0  0  0  0  0  0  0  0  0  0  0  0
   42.0810   32.8890   41.0360 N   0  0  0  0  0  0  0  0  0  0  0  0
   40.8510   33.0630   41.5200 C   0  0  0  0  0  0  0  0  0  0  0  0
   40.2300   34.2520   41.3900 N   0  0  0  0  0  0  0  0  0  0  0  0
   40.2260   36.5140   40.6250 N   0  0  0  0  0  0  0  0  0  0  0  0
   47.6470   34.0960   41.1020 C   0  0  0  0  0  0  0  0  0  0  0  0
   48.1450   35.3740   40.9520 C   0  0  0  0  0  0  0  0  0  0  0  0
   49.2520   35.8380   41.6680 C   0  0  0  0  0  0  0  0  0  0  0  0
   49.8610   34.9820   42.5520 C   0  0  0  0  0  0  0  0  0  0  0  0
   49.3790   33.7110   42.7140 C   0  0  0  0  0  0  0  0  0  0  0  0
   48.2760   33.2540   41.9970 C   0  0  0  0  0  0  0  0  0  0  0  0
   47.6880   31.9220   42.0970 C   0  0  0  0  0  0  0  0  0  0  0  0
   46.8880   31.6490   43.2080 C   0  0  0  0  0  0  0  0  0  0  0  0
   46.4410   30.3410   43.0980 C   0  0  0  0  0  0  0  0  0  0  0  0
   46.9740   29.8610   41.9360 N   0  0  0  0  0  0  0  0  0  0  0  0
   47.7080   30.7990   41.3530 N   0  0  0  0  0  0  0  0  0  0  0  0
   44.7670   34.8920   43.1020 N   0  0  0  0  0  0  0  0  0  0  0  0
   44.9500   34.4760   42.0190 C   0  0  0  0  0  0  0  0  0  0  0  0
   43.5874   32.8879   37.9688 H   0  0  0  0  0  0  0  0  0  0  0  0
   45.8905   32.5599   37.1680 H   0  0  0  0  0  0  0  0  0  0  0  0
   47.7741   33.1432   38.6913 H   0  0  0  0  0  0  0  0  0  0  0  0
   42.6356   35.9319   39.7587 H   0  0  0  0  0  0  0  0  0  0  0  0
   40.3403   32.2317   42.0281 H   0  0  0  0  0  0  0  0  0  0  0  0
   40.7325   37.2713   40.1445 H   0  0  0  0  0  0  0  0  0  0  0  0
   39.2766   36.6792   40.9886 H   0  0  0  0  0  0  0  0  0  0  0  0
   47.6518   36.0538   40.2416 H   0  0  0  0  0  0  0  0  0  0  0  0
   49.6258   36.8629   41.5269 H   0  0  0  0  0  0  0  0  0  0  0  0
   50.7352   35.3171   43.1294 H   0  0  0  0  0  0  0  0  0  0  0  0
   49.8742   33.0352   43.4268 H   0  0  0  0  0  0  0  0  0  0  0  0
   46.6539   32.3472   44.0252 H   0  0  0  0  0  0  0  0  0  0  0  0
   45.7908   29.8011   43.8020 H   0  0  0  0  0  0  0  0  0  0  0  0
   46.8275   28.9106   41.5668 H   0  0  0  0  0  0  0  0  0  0  0  0
  1 26  1  0
  2  9  1  0
  2  1  2  0
  3  2  1  0
  4  3  2  0
  4  5  1  0
  5  6  2  0
  6  1  1  0
  6 14  1  0
  7 12  2  0
  8  9  2  0
  8  7  1  0
  9 10  1  0
 10 11  2  0
 12 11  1  0
 13  7  1  0
 14 19  1  0
 15 14  2  0
 15 16  1  0
 16 17  2  0
 17 18  1  0
 19 20  1  0
 19 18  2  0
 20 21  1  0
 22 21  2  0
 23 22  1  0
 24 23  1  0
 24 20  2  0
 26 25  3  0
  3 27  1  0
  4 28  1  0
  5 29  1  0
  8 30  1  0
 11 31  1  0
 13 32  1  0
 13 33  1  0
 15 34  1  0
 16 35  1  0
 17 36  1  0
 18 37  1  0
 21 38  1  0
 22 39  1  0
 23 40  1  0
M  ISO  8  27  14  28  14  29  14  30  14  31  14  34  14  35  14  36  14
M  ISO  4  37  14  38  14  39  14  40   9
M  END
>  <minimizedAffinity>  (1) 
-5.93459272

>  <minimizedRMSD>  (1) 
0.455431759

$$$$
