
     RDKit          3D

 40 43  0  0  0  0  0  0  0  0999 V2000
   45.1240   33.9650   40.7240 C   0  0  0  0  0  0  0  0  0  0  0  0
   44.0770   33.6410   39.9050 C   0  0  0  0  0  0  0  0  0  0  0  0
   44.3770   33.1280   38.6660 C   0  0  0  0  0  0  0  0  0  0  0  0
   45.6520   32.9280   38.2190 C   0  0  0  0  0  0  0  0  0  0  0  0
   46.6840   33.2610   39.0580 C   0  0  0  0  0  0  0  0  0  0  0  0
   46.4390   33.7780   40.3070 C   0  0  0  0  0  0  0  0  0  0  0  0
   40.7970   35.2760   40.7960 C   0  0  0  0  0  0  0  0  0  0  0  0
   42.1030   35.1150   40.2780 C   0  0  0  0  0  0  0  0  0  0  0  0
   42.7430   33.8660   40.4140 C   0  0  0  0  0  0  0  0  0  0  0  0
   42.0220   32.9020   41.0510 N   0  0  0  0  0  0  0  0  0  0  0  0
   40.7900   33.0910   41.5260 C   0  0  0  0  0  0  0  0  0  0  0  0
   40.1830   34.2800   41.3970 N   0  0  0  0  0  0  0  0  0  0  0  0
   40.2010   36.5450   40.6360 N   0  0  0  0  0  0  0  0  0  0  0  0
   47.6040   34.1030   41.1330 C   0  0  0  0  0  0  0  0  0  0  0  0
   48.1310   35.3590   40.9330 C   0  0  0  0  0  0  0  0  0  0  0  0
   49.2460   35.8340   41.6390 C   0  0  0  0  0  0  0  0  0  0  0  0
   49.8230   34.9950   42.5660 C   0  0  0  0  0  0  0  0  0  0  0  0
   49.3090   33.7390   42.7780 C   0  0  0  0  0  0  0  0  0  0  0  0
   48.1980   33.2840   42.0640 C   0  0  0  0  0  0  0  0  0  0  0  0
   47.5730   31.9730   42.2100 C   0  0  0  0  0  0  0  0  0  0  0  0
   47.6210   30.7540   41.5360 C   0  0  0  0  0  0  0  0  0  0  0  0
   46.7910   29.8900   42.1700 N   0  0  0  0  0  0  0  0  0  0  0  0
   46.2290   30.5370   43.2150 C   0  0  0  0  0  0  0  0  0  0  0  0
   46.7000   31.7940   43.2410 N   0  0  0  0  0  0  0  0  0  0  0  0
   44.7140   34.9390   43.1100 N   0  0  0  0  0  0  0  0  0  0  0  0
   44.9000   34.5070   42.0330 C   0  0  0  0  0  0  0  0  0  0  0  0
   43.5444   32.8639   37.9974 H   0  0  0  0  0  0  0  0  0  0  0  0
   45.8446   32.5133   37.2185 H   0  0  0  0  0  0  0  0  0  0  0  0
   47.7223   33.1122   38.7265 H   0  0  0  0  0  0  0  0  0  0  0  0
   42.6118   35.9515   39.7766 H   0  0  0  0  0  0  0  0  0  0  0  0
   40.2669   32.2639   42.0283 H   0  0  0  0  0  0  0  0  0  0  0  0
   40.7155   37.2992   40.1591 H   0  0  0  0  0  0  0  0  0  0  0  0
   39.2515   36.7171   40.9961 H   0  0  0  0  0  0  0  0  0  0  0  0
   47.6583   36.0170   40.1890 H   0  0  0  0  0  0  0  0  0  0  0  0
   49.6460   36.8426   41.4583 H   0  0  0  0  0  0  0  0  0  0  0  0
   50.6993   35.3321   43.1392 H   0  0  0  0  0  0  0  0  0  0  0  0
   49.7802   33.0804   43.5225 H   0  0  0  0  0  0  0  0  0  0  0  0
   48.2267   30.5318   40.6451 H   0  0  0  0  0  0  0  0  0  0  0  0
   46.6186   28.9106   41.9019 H   0  0  0  0  0  0  0  0  0  0  0  0
   45.5073   30.1063   43.9247 H   0  0  0  0  0  0  0  0  0  0  0  0
  1 26  1  0
  2  9  1  0
  2  1  2  0
  3  2  1  0
  4  3  2  0
  4  5  1  0
  5  6  2  0
  6  1  1  0
  6 14  1  0
  7 12  2  0
  8  9  2  0
  8  7  1  0
  9 10  1  0
 10 11  2  0
 12 11  1  0
 13  7  1  0
 14 19  1  0
 15 14  2  0
 15 16  1  0
 16 17  2  0
 17 18  1  0
 19 20  1  0
 19 18  2  0
 20 24  1  0
 21 22  1  0
 21 20  2  0
 22 23  1  0
 23 24  2  0
 26 25  3  0
  3 27  1  0
  4 28  1  0
  5 29  1  0
  8 30  1  0
 11 31  1  0
 13 32  1  0
 13 33  1  0
 15 34  1  0
 16 35  1  0
 17 36  1  0
 18 37  1  0
 21 38  1  0
 22 39  1  0
 23 40  1  0
M  ISO  8  27  14  28  14  29  14  30  14  31  14  34  14  35  14  36  14
M  ISO  4  37  14  38  14  39   9  40  14
M  END
>  <minimizedAffinity>  (1) 
-5.92135525

>  <minimizedRMSD>  (1) 
0.393415451

$$$$
