
     RDKit          3D

 39 42  0  0  0  0  0  0  0  0999 V2000
   45.1060   33.9530   40.7280 C   0  0  0  0  0  0  0  0  0  0  0  0
   44.0540   33.6260   39.9110 C   0  0  0  0  0  0  0  0  0  0  0  0
   44.3530   33.1180   38.6790 C   0  0  0  0  0  0  0  0  0  0  0  0
   45.6320   32.9200   38.2270 C   0  0  0  0  0  0  0  0  0  0  0  0
   46.6580   33.2580   39.0700 C   0  0  0  0  0  0  0  0  0  0  0  0
   46.4210   33.7720   40.3160 C   0  0  0  0  0  0  0  0  0  0  0  0
   40.7780   35.2850   40.8130 C   0  0  0  0  0  0  0  0  0  0  0  0
   42.0790   35.1040   40.2960 C   0  0  0  0  0  0  0  0  0  0  0  0
   42.7180   33.8510   40.4280 C   0  0  0  0  0  0  0  0  0  0  0  0
   41.9980   32.9010   41.0640 N   0  0  0  0  0  0  0  0  0  0  0  0
   40.7670   33.1000   41.5430 C   0  0  0  0  0  0  0  0  0  0  0  0
   40.1640   34.2810   41.4180 N   0  0  0  0  0  0  0  0  0  0  0  0
   40.1940   36.5660   40.6460 N   0  0  0  0  0  0  0  0  0  0  0  0
   47.5700   34.0970   41.1340 C   0  0  0  0  0  0  0  0  0  0  0  0
   48.1200   35.3380   40.9290 C   0  0  0  0  0  0  0  0  0  0  0  0
   49.2300   35.8300   41.6230 C   0  0  0  0  0  0  0  0  0  0  0  0
   49.7990   35.0050   42.5680 C   0  0  0  0  0  0  0  0  0  0  0  0
   49.2710   33.7620   42.7930 C   0  0  0  0  0  0  0  0  0  0  0  0
   48.1700   33.3070   42.0880 C   0  0  0  0  0  0  0  0  0  0  0  0
   47.5610   31.9710   42.2930 C   0  0  0  0  0  0  0  0  0  0  0  0
   47.9060   30.8990   41.5820 C   0  0  0  0  0  0  0  0  0  0  0  0
   46.8290   29.6060   42.2890 S   0  0  0  0  0  0  0  0  0  0  0  0
   46.0560   30.8560   43.5040 C   0  0  0  0  0  0  0  0  0  0  0  0
   46.6320   31.7680   43.1990 N   0  0  0  0  0  0  0  0  0  0  0  0
   44.6950   34.9310   43.1150 N   0  0  0  0  0  0  0  0  0  0  0  0
   44.8760   34.4990   42.0470 C   0  0  0  0  0  0  0  0  0  0  0  0
   43.5201   32.8526   38.0113 H   0  0  0  0  0  0  0  0  0  0  0  0
   45.8270   32.5060   37.2267 H   0  0  0  0  0  0  0  0  0  0  0  0
   47.6964   33.1128   38.7375 H   0  0  0  0  0  0  0  0  0  0  0  0
   42.5934   35.9356   39.7922 H   0  0  0  0  0  0  0  0  0  0  0  0
   40.2431   32.2755   42.0487 H   0  0  0  0  0  0  0  0  0  0  0  0
   40.7177   37.3122   40.1666 H   0  0  0  0  0  0  0  0  0  0  0  0
   39.2460   36.7505   41.0041 H   0  0  0  0  0  0  0  0  0  0  0  0
   47.6581   35.9869   40.1703 H   0  0  0  0  0  0  0  0  0  0  0  0
   49.6320   36.8341   41.4225 H   0  0  0  0  0  0  0  0  0  0  0  0
   50.6752   35.3439   43.1403 H   0  0  0  0  0  0  0  0  0  0  0  0
   49.7317   33.1108   43.5504 H   0  0  0  0  0  0  0  0  0  0  0  0
   48.6493   30.8145   40.7756 H   0  0  0  0  0  0  0  0  0  0  0  0
   45.2797   30.7225   44.2718 H   0  0  0  0  0  0  0  0  0  0  0  0
  1 26  1  0
  2  9  1  0
  2  1  2  0
  3  2  1  0
  4  3  2  0
  4  5  1  0
  5  6  2  0
  6  1  1  0
  6 14  1  0
  7 12  2  0
  8  9  2  0
  8  7  1  0
  9 10  1  0
 10 11  2  0
 12 11  1  0
 13  7  1  0
 14 19  1  0
 15 14  2  0
 15 16  1  0
 16 17  2  0
 17 18  1  0
 19 20  1  0
 19 18  2  0
 20 24  1  0
 21 22  1  0
 21 20  2  0
 22 23  1  0
 24 23  2  0
 26 25  3  0
  3 27  1  0
  4 28  1  0
  5 29  1  0
  8 30  1  0
 11 31  1  0
 13 32  1  0
 13 33  1  0
 15 34  1  0
 16 35  1  0
 17 36  1  0
 18 37  1  0
 21 38  1  0
 23 39  1  0
M  ISO  8  27  14  28  14  29  14  30  14  31  14  34  14  35  14  36  14
M  ISO  3  37  14  38  14  39  14
M  END
>  <minimizedAffinity>  (1) 
-5.94462967

>  <minimizedRMSD>  (1) 
0.484257728

$$$$
