
     RDKit          3D

 35 37  0  0  0  0  0  0  0  0999 V2000
   45.1380   33.9470   40.6990 C   0  0  0  0  0  0  0  0  0  0  0  0
   44.0860   33.6370   39.8770 C   0  0  0  0  0  0  0  0  0  0  0  0
   44.3890   33.1510   38.6400 C   0  0  0  0  0  0  0  0  0  0  0  0
   45.6680   32.9600   38.1880 C   0  0  0  0  0  0  0  0  0  0  0  0
   46.7050   33.2770   39.0270 C   0  0  0  0  0  0  0  0  0  0  0  0
   46.4560   33.7750   40.2960 C   0  0  0  0  0  0  0  0  0  0  0  0
   40.8040   35.2700   40.7900 C   0  0  0  0  0  0  0  0  0  0  0  0
   42.0990   35.0930   40.2740 C   0  0  0  0  0  0  0  0  0  0  0  0
   42.7500   33.8550   40.3970 C   0  0  0  0  0  0  0  0  0  0  0  0
   42.0460   32.8940   41.0300 N   0  0  0  0  0  0  0  0  0  0  0  0
   40.8190   33.0700   41.5150 C   0  0  0  0  0  0  0  0  0  0  0  0
   40.1980   34.2620   41.3950 N   0  0  0  0  0  0  0  0  0  0  0  0
   40.2000   36.5270   40.6400 N   0  0  0  0  0  0  0  0  0  0  0  0
   47.6160   34.0830   41.1200 C   0  0  0  0  0  0  0  0  0  0  0  0
   48.1430   35.3550   40.9480 C   0  0  0  0  0  0  0  0  0  0  0  0
   49.2530   35.8120   41.6590 C   0  0  0  0  0  0  0  0  0  0  0  0
   49.8410   34.9480   42.5680 C   0  0  0  0  0  0  0  0  0  0  0  0
   49.3240   33.6890   42.7410 C   0  0  0  0  0  0  0  0  0  0  0  0
   48.2280   33.2590   42.0280 C   0  0  0  0  0  0  0  0  0  0  0  0
   47.6610   31.9420   42.1890 C   0  0  0  0  0  0  0  0  0  0  0  0
   47.9680   31.2410   43.1750 O   0  0  0  0  0  0  0  0  0  0  0  0
   44.7390   34.8800   43.1120 N   0  0  0  0  0  0  0  0  0  0  0  0
   44.9100   34.4680   42.0270 C   0  0  0  0  0  0  0  0  0  0  0  0
   43.5580   32.8974   37.9654 H   0  0  0  0  0  0  0  0  0  0  0  0
   45.8578   32.5633   37.1797 H   0  0  0  0  0  0  0  0  0  0  0  0
   47.7425   33.1349   38.6903 H   0  0  0  0  0  0  0  0  0  0  0  0
   42.6059   35.9295   39.7706 H   0  0  0  0  0  0  0  0  0  0  0  0
   40.3068   32.2365   42.0180 H   0  0  0  0  0  0  0  0  0  0  0  0
   40.7048   37.2873   40.1625 H   0  0  0  0  0  0  0  0  0  0  0  0
   39.2516   36.6898   41.0074 H   0  0  0  0  0  0  0  0  0  0  0  0
   47.6665   36.0301   40.2220 H   0  0  0  0  0  0  0  0  0  0  0  0
   49.6487   36.8264   41.5026 H   0  0  0  0  0  0  0  0  0  0  0  0
   50.7183   35.2697   43.1484 H   0  0  0  0  0  0  0  0  0  0  0  0
   49.7956   33.0085   43.4652 H   0  0  0  0  0  0  0  0  0  0  0  0
   46.9553   31.5542   41.4397 H   0  0  0  0  0  0  0  0  0  0  0  0
  1 23  1  0
  2  9  1  0
  2  1  2  0
  3  2  1  0
  4  3  2  0
  4  5  1  0
  5  6  2  0
  6  1  1  0
  6 14  1  0
  7 12  2  0
  8  9  2  0
  8  7  1  0
  9 10  1  0
 10 11  2  0
 12 11  1  0
 13  7  1  0
 14 19  1  0
 15 14  2  0
 15 16  1  0
 16 17  2  0
 17 18  1  0
 19 20  1  0
 19 18  2  0
 20 21  2  0
 23 22  3  0
  3 24  1  0
  4 25  1  0
  5 26  1  0
  8 27  1  0
 11 28  1  0
 13 29  1  0
 13 30  1  0
 15 31  1  0
 16 32  1  0
 17 33  1  0
 18 34  1  0
 20 35  1  0
M  ISO  8  24  14  25  14  26  14  27  14  28  14  31  14  32  14  33  14
M  ISO  2  34  14  35   6
M  END
>  <minimizedAffinity>  (1) 
-5.75854015

>  <minimizedRMSD>  (1) 
0.0168376323

$$$$
