
     RDKit          3D

 22 23  0  0  0  0  0  0  0  0999 V2000
   46.3060   34.2950   41.3520 C   0  0  0  0  0  0  0  0  0  0  0  0
   47.5720   34.6960   41.0400 C   0  0  0  0  0  0  0  0  0  0  0  0
   48.1280   34.3980   39.8150 C   0  0  0  0  0  0  0  0  0  0  0  0
   47.3740   33.6820   38.9060 C   0  0  0  0  0  0  0  0  0  0  0  0
   46.0880   33.2470   39.1610 C   0  0  0  0  0  0  0  0  0  0  0  0
   45.6010   33.5890   40.4200 C   0  0  0  0  0  0  0  0  0  0  0  0
   44.6670   36.0890   44.2430 C   0  0  0  0  0  0  0  0  0  0  0  0
   45.1300   35.8530   42.9300 C   0  0  0  0  0  0  0  0  0  0  0  0
   45.7860   34.6460   42.6660 C   0  0  0  0  0  0  0  0  0  0  0  0
   45.9440   33.7630   43.6820 N   0  0  0  0  0  0  0  0  0  0  0  0
   45.4950   34.0010   44.9390 C   0  0  0  0  0  0  0  0  0  0  0  0
   44.8520   35.1740   45.2150 N   0  0  0  0  0  0  0  0  0  0  0  0
   48.3640   35.4510   42.0000 C   0  0  0  0  0  0  0  0  0  0  0  0
   49.2430   36.2720   41.6190 O   0  0  0  0  0  0  0  0  0  0  0  0
   49.1491   34.7230   39.5667 H   0  0  0  0  0  0  0  0  0  0  0  0
   47.8205   33.4460   37.9288 H   0  0  0  0  0  0  0  0  0  0  0  0
   45.4968   32.6769   38.4292 H   0  0  0  0  0  0  0  0  0  0  0  0
   44.5813   33.2693   40.6808 H   0  0  0  0  0  0  0  0  0  0  0  0
   44.1490   37.0312   44.4753 H   0  0  0  0  0  0  0  0  0  0  0  0
   44.9788   36.5987   42.1356 H   0  0  0  0  0  0  0  0  0  0  0  0
   45.6477   33.2539   45.7318 H   0  0  0  0  0  0  0  0  0  0  0  0
   48.1931   35.3032   43.0765 H   0  0  0  0  0  0  0  0  0  0  0  0
  1  9  1  0
  2  1  2  0
  2 13  1  0
  3  2  1  0
  4  5  1  0
  4  3  2  0
  5  6  2  0
  6  1  1  0
  7 12  2  0
  8  7  1  0
  9  8  2  0
  9 10  1  0
 10 11  2  0
 11 12  1  0
 14 13  2  0
  3 15  1  0
  4 16  1  0
  5 17  1  0
  6 18  1  0
  7 19  1  0
  8 20  1  0
 11 21  1  0
 13 22  1  0
M  ISO  8  15  14  16  14  17  14  18  14  19  14  20  14  21  14  22   6
M  END
>  <minimizedAffinity>  (1) 
-4.77816677

>  <minimizedRMSD>  (1) 
1.01392269

$$$$
