
     RDKit          3D

 23 24  0  0  0  0  0  0  0  0999 V2000
   46.2430   34.1750   41.2720 C   0  0  0  0  0  0  0  0  0  0  0  0
   47.4940   34.6030   40.9290 C   0  0  0  0  0  0  0  0  0  0  0  0
   48.0490   34.3310   39.7010 C   0  0  0  0  0  0  0  0  0  0  0  0
   47.2980   33.6010   38.8100 C   0  0  0  0  0  0  0  0  0  0  0  0
   46.0200   33.1310   39.0860 C   0  0  0  0  0  0  0  0  0  0  0  0
   45.5300   33.4490   40.3510 C   0  0  0  0  0  0  0  0  0  0  0  0
   44.5270   35.8780   44.1710 C   0  0  0  0  0  0  0  0  0  0  0  0
   44.9500   35.6440   42.8370 C   0  0  0  0  0  0  0  0  0  0  0  0
   45.7490   34.5170   42.5970 C   0  0  0  0  0  0  0  0  0  0  0  0
   46.0660   33.7230   43.6380 N   0  0  0  0  0  0  0  0  0  0  0  0
   45.6560   33.9580   44.9030 C   0  0  0  0  0  0  0  0  0  0  0  0
   44.8820   35.0400   45.1700 N   0  0  0  0  0  0  0  0  0  0  0  0
   48.3050   35.4020   41.9180 C   0  0  0  0  0  0  0  0  0  0  0  0
   48.7770   34.5910   42.9460 F   0  0  0  0  0  0  0  0  0  0  0  0
   49.3410   36.0820   41.2950 F   0  0  0  0  0  0  0  0  0  0  0  0
   47.5080   36.3500   42.5310 F   0  0  0  0  0  0  0  0  0  0  0  0
   49.0575   34.6846   39.4406 H   0  0  0  0  0  0  0  0  0  0  0  0
   47.7329   33.3769   37.8248 H   0  0  0  0  0  0  0  0  0  0  0  0
   45.4364   32.5491   38.3575 H   0  0  0  0  0  0  0  0  0  0  0  0
   44.5229   33.1013   40.6248 H   0  0  0  0  0  0  0  0  0  0  0  0
   43.9010   36.7543   44.3953 H   0  0  0  0  0  0  0  0  0  0  0  0
   44.6615   36.3223   42.0205 H   0  0  0  0  0  0  0  0  0  0  0  0
   45.9484   33.2748   45.7140 H   0  0  0  0  0  0  0  0  0  0  0  0
  1  9  1  0
  2  1  2  0
  2 13  1  0
  3  2  1  0
  4  5  1  0
  4  3  2  0
  5  6  2  0
  6  1  1  0
  7 12  2  0
  8  7  1  0
  9  8  2  0
  9 10  1  0
 10 11  2  0
 11 12  1  0
 13 16  1  0
 13 14  1  0
 15 13  1  0
  3 17  1  0
  4 18  1  0
  5 19  1  0
  6 20  1  0
  7 21  1  0
  8 22  1  0
 11 23  1  0
M  ISO  7  17  14  18  14  19  14  20  14  21  14  22  14  23  14
M  END
>  <minimizedAffinity>  (1) 
-5.14668083

>  <minimizedRMSD>  (1) 
1.16273916

$$$$
