
     RDKit          3D

 34 36  0  0  1  0  0  0  0  0999 V2000
   44.7410   33.8180   40.4300 C   0  0  0  0  0  0  0  0  0  0  0  0
   43.5050   34.3730   40.7260 C   0  0  0  0  0  0  0  0  0  0  0  0
   43.3380   35.3090   41.7110 C   0  0  0  0  0  0  0  0  0  0  0  0
   44.4810   35.6870   42.4170 C   0  0  0  0  0  0  0  0  0  0  0  0
   45.7320   35.1750   42.1760 C   0  0  0  0  0  0  0  0  0  0  0  0
   45.8120   34.2240   41.1500 C   0  0  0  0  0  0  0  0  0  0  0  0
   45.0690   32.0890   37.0940 C   0  0  0  0  0  0  0  0  0  0  0  0
   45.0570   33.1420   38.0430 C   0  0  0  0  0  0  0  0  0  0  0  0
   44.7850   32.8340   39.3620 C   0  0  0  0  0  0  0  0  0  0  0  0
   44.5410   31.5280   39.6800 N   0  0  0  0  0  0  0  0  0  0  0  0
   44.5580   30.5430   38.7570 C   0  0  0  0  0  0  0  0  0  0  0  0
   44.8240   30.8200   37.4530 N   0  0  0  0  0  0  0  0  0  0  0  0
   42.2470   33.9920   39.9840 C   0  0  1  0  0  0  0  0  0  0  0  0
   41.1800   33.6990   40.9870 C   0  0  0  0  0  0  0  0  0  0  0  0
   39.8660   34.3710   40.7590 C   0  0  0  0  0  0  0  0  0  0  0  0
   40.1070   35.8110   40.4480 C   0  0  0  0  0  0  0  0  0  0  0  0
   40.8550   35.9460   39.1500 C   0  0  0  0  0  0  0  0  0  0  0  0
   41.8880   34.9190   38.8970 C   0  0  0  0  0  0  0  0  0  0  0  0
   42.3518   35.7417   41.9349 H   0  0  0  0  0  0  0  0  0  0  0  0
   44.3734   36.4388   43.2128 H   0  0  0  0  0  0  0  0  0  0  0  0
   46.6147   35.4910   42.7513 H   0  0  0  0  0  0  0  0  0  0  0  0
   46.7941   33.7859   40.9186 H   0  0  0  0  0  0  0  0  0  0  0  0
   45.2840   32.3177   36.0397 H   0  0  0  0  0  0  0  0  0  0  0  0
   45.2593   34.1789   37.7367 H   0  0  0  0  0  0  0  0  0  0  0  0
   44.3546   29.5062   39.0631 H   0  0  0  0  0  0  0  0  0  0  0  0
   42.4151   33.0682   39.4110 H   0  0  0  0  0  0  0  0  0  0  0  0
   41.0071   32.6127   40.9871 H   0  0  0  0  0  0  0  0  0  0  0  0
   41.5541   34.0949   41.9427 H   0  0  0  0  0  0  0  0  0  0  0  0
   39.3481   33.8925   39.9147 H   0  0  0  0  0  0  0  0  0  0  0  0
   39.2414   34.2838   41.6602 H   0  0  0  0  0  0  0  0  0  0  0  0
   39.1413   36.3313   40.3662 H   0  0  0  0  0  0  0  0  0  0  0  0
   40.7073   36.2561   41.2552 H   0  0  0  0  0  0  0  0  0  0  0  0
   40.6470   36.7561   38.4355 H   0  0  0  0  0  0  0  0  0  0  0  0
   42.3793   34.8485   37.9154 H   0  0  0  0  0  0  0  0  0  0  0  0
  1  2  1  0
  1  6  2  0
  2  3  2  0
  3  4  1  0
  5  4  2  0
  6  5  1  0
  7 12  2  0
  7  8  1  0
  8  9  2  0
  9 10  1  0
  9  1  1  0
 11 10  2  0
 12 11  1  0
 13  2  1  0
 13 14  1  0
 15 14  1  0
 16 15  1  0
 17 16  1  0
 18 17  2  0
 18 13  1  0
  3 19  1  0
  4 20  1  0
  5 21  1  0
  6 22  1  0
  7 23  1  0
  8 24  1  0
 11 25  1  0
 13 26  1  6
 14 27  1  0
 14 28  1  0
 15 29  1  0
 15 30  1  0
 16 31  1  0
 16 32  1  0
 17 33  1  0
 18 34  1  0
M  ISO  8  19  14  20  14  21  14  22  14  23  14  24  14  25  14  26  13
M  ISO  8  27  13  28  13  29  13  30  13  31  13  32  13  33  13  34  13
M  END
>  <minimizedAffinity>  (1) 
-4.6701932

>  <minimizedRMSD>  (1) 
7.31564379

$$$$
