
     RDKit          3D

 26 27  0  0  0  0  0  0  0  0999 V2000
   46.4950   34.3560   41.3360 C   0  0  0  0  0  0  0  0  0  0  0  0
   47.7390   34.8400   41.0500 C   0  0  0  0  0  0  0  0  0  0  0  0
   48.3180   34.5780   39.8170 C   0  0  0  0  0  0  0  0  0  0  0  0
   47.6190   33.8290   38.8990 C   0  0  0  0  0  0  0  0  0  0  0  0
   46.3660   33.3150   39.1270 C   0  0  0  0  0  0  0  0  0  0  0  0
   45.8390   33.6140   40.3860 C   0  0  0  0  0  0  0  0  0  0  0  0
   44.6990   36.0200   44.2120 C   0  0  0  0  0  0  0  0  0  0  0  0
   45.2020   35.8230   42.9000 C   0  0  0  0  0  0  0  0  0  0  0  0
   45.9390   34.6590   42.6360 C   0  0  0  0  0  0  0  0  0  0  0  0
   46.1220   33.7980   43.6550 N   0  0  0  0  0  0  0  0  0  0  0  0
   45.6380   33.9990   44.8990 C   0  0  0  0  0  0  0  0  0  0  0  0
   44.9240   35.1120   45.1800 N   0  0  0  0  0  0  0  0  0  0  0  0
   48.4820   35.6480   42.0510 C   0  0  0  0  0  0  0  0  0  0  0  0
   49.7460   34.9400   42.4730 C   0  0  0  0  0  0  0  0  0  0  0  0
   49.3201   34.9630   39.5771 H   0  0  0  0  0  0  0  0  0  0  0  0
   48.0911   33.6302   37.9256 H   0  0  0  0  0  0  0  0  0  0  0  0
   45.8224   32.7175   38.3804 H   0  0  0  0  0  0  0  0  0  0  0  0
   44.8372   33.2313   40.6307 H   0  0  0  0  0  0  0  0  0  0  0  0
   44.1182   36.9257   44.4409 H   0  0  0  0  0  0  0  0  0  0  0  0
   45.0185   36.5651   42.1090 H   0  0  0  0  0  0  0  0  0  0  0  0
   45.8252   33.2545   45.6868 H   0  0  0  0  0  0  0  0  0  0  0  0
   48.7430   36.6207   41.6085 H   0  0  0  0  0  0  0  0  0  0  0  0
   47.8437   35.7911   42.9354 H   0  0  0  0  0  0  0  0  0  0  0  0
   49.8001   34.9097   43.5713 H   0  0  0  0  0  0  0  0  0  0  0  0
   49.7407   33.9135   42.0777 H   0  0  0  0  0  0  0  0  0  0  0  0
   50.6186   35.4807   42.0777 H   0  0  0  0  0  0  0  0  0  0  0  0
  1  9  1  0
  2  1  2  0
  2 13  1  0
  3  2  1  0
  4  5  1  0
  4  3  2  0
  5  6  2  0
  6  1  1  0
  7 12  2  0
  8  7  1  0
  9  8  2  0
  9 10  1  0
 10 11  2  0
 11 12  1  0
 13 14  1  0
  3 15  1  0
  4 16  1  0
  5 17  1  0
  6 18  1  0
  7 19  1  0
  8 20  1  0
 11 21  1  0
 13 22  1  0
 13 23  1  0
 14 24  1  0
 14 25  1  0
 14 26  1  0
M  ISO  8  15  14  16  14  17  14  18  14  19  14  20  14  21  14  22   8
M  ISO  4  23   8  24   8  25   8  26   8
M  END
>  <minimizedAffinity>  (1) 
-5.02370119

>  <minimizedRMSD>  (1) 
0.905136824

$$$$
