
     RDKit          3D

 23 24  0  0  0  0  0  0  0  0999 V2000
   46.6080   34.4170   41.4500 C   0  0  0  0  0  0  0  0  0  0  0  0
   47.8850   34.9080   41.2390 C   0  0  0  0  0  0  0  0  0  0  0  0
   48.5290   34.6590   40.0470 C   0  0  0  0  0  0  0  0  0  0  0  0
   47.8780   33.9200   39.0890 C   0  0  0  0  0  0  0  0  0  0  0  0
   46.6120   33.4140   39.2560 C   0  0  0  0  0  0  0  0  0  0  0  0
   46.0010   33.6940   40.4830 C   0  0  0  0  0  0  0  0  0  0  0  0
   44.6880   36.0580   44.2690 C   0  0  0  0  0  0  0  0  0  0  0  0
   45.2310   35.8620   42.9780 C   0  0  0  0  0  0  0  0  0  0  0  0
   45.9980   34.7250   42.7390 C   0  0  0  0  0  0  0  0  0  0  0  0
   46.1710   33.8740   43.7680 N   0  0  0  0  0  0  0  0  0  0  0  0
   45.6500   34.0630   45.0000 C   0  0  0  0  0  0  0  0  0  0  0  0
   44.9060   35.1600   45.2500 N   0  0  0  0  0  0  0  0  0  0  0  0
   48.5720   35.7110   42.3000 C   0  0  0  0  0  0  0  0  0  0  0  0
   49.5434   35.0439   39.8659 H   0  0  0  0  0  0  0  0  0  0  0  0
   48.3974   33.7235   38.1394 H   0  0  0  0  0  0  0  0  0  0  0  0
   46.1100   32.8255   38.4739 H   0  0  0  0  0  0  0  0  0  0  0  0
   44.9867   33.3106   40.6679 H   0  0  0  0  0  0  0  0  0  0  0  0
   44.0816   36.9524   44.4746 H   0  0  0  0  0  0  0  0  0  0  0  0
   45.0507   36.5945   42.1774 H   0  0  0  0  0  0  0  0  0  0  0  0
   45.8317   33.3256   45.7957 H   0  0  0  0  0  0  0  0  0  0  0  0
   48.2625   35.3493   43.2917 H   0  0  0  0  0  0  0  0  0  0  0  0
   49.6615   35.6029   42.1939 H   0  0  0  0  0  0  0  0  0  0  0  0
   48.2966   36.7707   42.1939 H   0  0  0  0  0  0  0  0  0  0  0  0
  1  9  1  0
  2  1  2  0
  2 13  1  0
  3  2  1  0
  4  5  1  0
  4  3  2  0
  5  6  2  0
  6  1  1  0
  7 12  2  0
  8  7  1  0
  9  8  2  0
  9 10  1  0
 10 11  2  0
 11 12  1  0
  3 14  1  0
  4 15  1  0
  5 16  1  0
  6 17  1  0
  7 18  1  0
  8 19  1  0
 11 20  1  0
 13 21  1  0
 13 22  1  0
 13 23  1  0
M  ISO  8  14  14  15  14  16  14  17  14  18  14  19  14  20  14  21   8
M  ISO  2  22   8  23   8
M  END
>  <minimizedAffinity>  (1) 
-4.57034159

>  <minimizedRMSD>  (1) 
0.683279455

$$$$
