
     RDKit          3D

 32 34  0  0  0  0  0  0  0  0999 V2000
   47.3880   34.7620   42.1400 C   0  0  0  0  0  0  0  0  0  0  0  0
   47.8670   33.6370   42.7910 C   0  0  0  0  0  0  0  0  0  0  0  0
   49.2420   33.5300   42.9600 C   0  0  0  0  0  0  0  0  0  0  0  0
   50.0720   34.5080   42.4970 C   0  0  0  0  0  0  0  0  0  0  0  0
   49.6190   35.6250   41.8530 C   0  0  0  0  0  0  0  0  0  0  0  0
   48.2290   35.7210   41.6870 C   0  0  0  0  0  0  0  0  0  0  0  0
   43.6920   35.4280   42.5970 C   0  0  0  0  0  0  0  0  0  0  0  0
   45.0710   35.4150   42.8510 C   0  0  0  0  0  0  0  0  0  0  0  0
   45.9470   34.8270   41.9650 C   0  0  0  0  0  0  0  0  0  0  0  0
   45.3690   34.2940   40.8840 N   0  0  0  0  0  0  0  0  0  0  0  0
   44.0530   34.2890   40.6080 C   0  0  0  0  0  0  0  0  0  0  0  0
   43.2100   34.8630   41.4780 N   0  0  0  0  0  0  0  0  0  0  0  0
   46.9670   32.5840   43.2880 C   0  0  0  0  0  0  0  0  0  0  0  0
   46.8420   32.4070   44.7240 C   0  0  0  0  0  0  0  0  0  0  0  0
   46.3710   33.1770   45.7950 C   0  0  0  0  0  0  0  0  0  0  0  0
   46.3720   32.7710   47.1070 C   0  0  0  0  0  0  0  0  0  0  0  0
   46.8620   31.5310   47.3980 C   0  0  0  0  0  0  0  0  0  0  0  0
   47.3240   30.7770   46.3430 C   0  0  0  0  0  0  0  0  0  0  0  0
   47.3170   31.1900   45.0510 N   0  0  0  0  0  0  0  0  0  0  0  0
   49.6635   32.6513   43.4702 H   0  0  0  0  0  0  0  0  0  0  0  0
   51.1553   34.3925   42.6488 H   0  0  0  0  0  0  0  0  0  0  0  0
   50.3041   36.4035   41.4861 H   0  0  0  0  0  0  0  0  0  0  0  0
   47.8111   36.6000   41.1745 H   0  0  0  0  0  0  0  0  0  0  0  0
   43.0051   35.9009   43.3142 H   0  0  0  0  0  0  0  0  0  0  0  0
   45.4583   35.8802   43.7694 H   0  0  0  0  0  0  0  0  0  0  0  0
   43.6754   33.8228   39.6860 H   0  0  0  0  0  0  0  0  0  0  0  0
   45.9621   32.8036   42.8981 H   0  0  0  0  0  0  0  0  0  0  0  0
   47.4252   31.6473   42.9377 H   0  0  0  0  0  0  0  0  0  0  0  0
   45.9723   34.1771   45.5695 H   0  0  0  0  0  0  0  0  0  0  0  0
   45.9882   33.4275   47.9018 H   0  0  0  0  0  0  0  0  0  0  0  0
   46.8867   31.1508   48.4299 H   0  0  0  0  0  0  0  0  0  0  0  0
   47.7243   29.7760   46.5616 H   0  0  0  0  0  0  0  0  0  0  0  0
  1  2  1  0
  2  3  2  0
  2 13  1  0
  4  3  1  0
  5  4  2  0
  6  5  1  0
  6  1  2  0
  7  8  2  0
  9  1  1  0
  9  8  1  0
 10  9  2  0
 11 10  1  0
 11 12  2  0
 12  7  1  0
 13 14  1  0
 14 19  1  0
 14 15  2  0
 15 16  1  0
 16 17  2  0
 18 17  1  0
 19 18  2  0
  3 20  1  0
  4 21  1  0
  5 22  1  0
  6 23  1  0
  7 24  1  0
  8 25  1  0
 11 26  1  0
 13 27  1  0
 13 28  1  0
 15 29  1  0
 16 30  1  0
 17 31  1  0
 18 32  1  0
M  ISO  8  20  14  21  14  22  14  23  14  24  14  25  14  26  14  27   8
M  ISO  5  28   8  29  14  30  14  31  14  32  14
M  END
>  <minimizedAffinity>  (1) 
-5.18786907

>  <minimizedRMSD>  (1) 
5.14727545

$$$$
