
     RDKit          3D

 29 30  0  0  0  0  0  0  0  0999 V2000
   46.7940   34.7690   42.1510 C   0  0  0  0  0  0  0  0  0  0  0  0
   46.1210   34.1630   41.0920 C   0  0  0  0  0  0  0  0  0  0  0  0
   46.7620   34.0530   39.8790 C   0  0  0  0  0  0  0  0  0  0  0  0
   48.0380   34.5380   39.7360 C   0  0  0  0  0  0  0  0  0  0  0  0
   48.7240   35.1370   40.7520 C   0  0  0  0  0  0  0  0  0  0  0  0
   48.0470   35.2340   41.9680 C   0  0  0  0  0  0  0  0  0  0  0  0
   45.3870   34.0960   45.6010 C   0  0  0  0  0  0  0  0  0  0  0  0
   46.1400   33.9200   44.4160 C   0  0  0  0  0  0  0  0  0  0  0  0
   46.0640   34.8570   43.4050 C   0  0  0  0  0  0  0  0  0  0  0  0
   45.2520   35.9110   43.6250 N   0  0  0  0  0  0  0  0  0  0  0  0
   44.5270   36.1010   44.7460 C   0  0  0  0  0  0  0  0  0  0  0  0
   44.5990   35.1890   45.7280 N   0  0  0  0  0  0  0  0  0  0  0  0
   44.7390   33.6520   41.2620 C   0  0  0  0  0  0  0  0  0  0  0  0
   43.8730   34.0150   40.2490 O   0  0  0  0  0  0  0  0  0  0  0  0
   41.9340   32.8880   41.5180 O   0  0  0  0  0  0  0  0  0  0  0  0
   42.3680   34.2730   41.0260 P   0  0  0  0  0  0  0  0  0  0  0  0
   42.4980   35.3560   42.2930 O   0  0  0  0  0  0  0  0  0  0  0  0
   41.2430   34.8720   39.9150 O   0  0  0  0  0  0  0  0  0  0  0  0
   46.2534   33.5780   39.0271 H   0  0  0  0  0  0  0  0  0  0  0  0
   48.5302   34.4392   38.7572 H   0  0  0  0  0  0  0  0  0  0  0  0
   49.7469   35.5195   40.6206 H   0  0  0  0  0  0  0  0  0  0  0  0
   48.5585   35.7117   42.8166 H   0  0  0  0  0  0  0  0  0  0  0  0
   45.4415   33.3527   46.4100 H   0  0  0  0  0  0  0  0  0  0  0  0
   46.7857   33.0370   44.3004 H   0  0  0  0  0  0  0  0  0  0  0  0
   43.8869   36.9891   44.8538 H   0  0  0  0  0  0  0  0  0  0  0  0
   44.7800   32.5536   41.3039 H   0  0  0  0  0  0  0  0  0  0  0  0
   44.3480   34.0992   42.1878 H   0  0  0  0  0  0  0  0  0  0  0  0
   42.4394   34.8675   43.1521 H   0  0  0  0  0  0  0  0  0  0  0  0
   40.4821   35.2772   40.4018 H   0  0  0  0  0  0  0  0  0  0  0  0
  1  9  1  0
  2 13  1  0
  2  1  2  0
  3  2  1  0
  4  3  2  0
  4  5  1  0
  5  6  2  0
  6  1  1  0
  7 12  2  0
  8  7  1  0
  9 10  1  0
  9  8  2  0
 10 11  2  0
 11 12  1  0
 14 16  1  0
 14 13  1  0
 16 15  2  0
 16 17  1  0
 18 16  1  0
  3 19  1  0
  4 20  1  0
  5 21  1  0
  6 22  1  0
  7 23  1  0
  8 24  1  0
 11 25  1  0
 13 26  1  0
 13 27  1  0
 17 28  1  0
 18 29  1  0
M  ISO  8  19  14  20  14  21  14  22  14  23  14  24  14  25  14  26   8
M  ISO  3  27   8  28   3  29   3
M  END
>  <minimizedAffinity>  (1) 
-5.56461906

>  <minimizedRMSD>  (1) 
4.77500629

$$$$
