
     RDKit          3D

 37 39  0  0  0  0  0  0  0  0999 V2000
   45.4970   34.1550   40.9950 C   0  0  0  0  0  0  0  0  0  0  0  0
   44.2880   34.8000   40.9120 C   0  0  0  0  0  0  0  0  0  0  0  0
   43.8650   35.6390   41.9240 C   0  0  0  0  0  0  0  0  0  0  0  0
   44.6910   35.8020   43.0060 C   0  0  0  0  0  0  0  0  0  0  0  0
   45.9110   35.1790   43.1320 C   0  0  0  0  0  0  0  0  0  0  0  0
   46.2780   34.3450   42.0770 C   0  0  0  0  0  0  0  0  0  0  0  0
   47.0790   32.7100   37.8680 C   0  0  0  0  0  0  0  0  0  0  0  0
   46.7990   33.6060   38.9170 C   0  0  0  0  0  0  0  0  0  0  0  0
   45.8520   33.2920   39.8760 C   0  0  0  0  0  0  0  0  0  0  0  0
   45.2350   32.1030   39.7370 N   0  0  0  0  0  0  0  0  0  0  0  0
   45.4910   31.2320   38.7370 C   0  0  0  0  0  0  0  0  0  0  0  0
   46.4130   31.5380   37.8030 N   0  0  0  0  0  0  0  0  0  0  0  0
   43.3920   34.6080   39.7160 C   0  0  0  0  0  0  0  0  0  0  0  0
   42.0760   34.3580   40.2000 N   0  0  0  0  0  0  0  0  0  0  0  0
   41.6860   32.9870   40.3000 C   0  0  0  0  0  0  0  0  0  0  0  0
   41.6810   32.3930   38.9080 C   0  0  0  0  0  0  0  0  0  0  0  0
   41.4400   33.3760   37.8850 N   0  0  0  0  0  0  0  0  0  0  0  0
   40.6260   34.4770   38.3110 C   0  0  0  0  0  0  0  0  0  0  0  0
   41.0230   35.1090   39.6050 C   0  0  0  0  0  0  0  0  0  0  0  0
   42.8976   36.1592   41.8640 H   0  0  0  0  0  0  0  0  0  0  0  0
   44.3603   36.4670   43.8174 H   0  0  0  0  0  0  0  0  0  0  0  0
   46.5563   35.3295   44.0100 H   0  0  0  0  0  0  0  0  0  0  0  0
   47.2437   33.8209   42.1296 H   0  0  0  0  0  0  0  0  0  0  0  0
   47.8335   32.9627   37.1085 H   0  0  0  0  0  0  0  0  0  0  0  0
   47.3373   34.5635   38.9749 H   0  0  0  0  0  0  0  0  0  0  0  0
   44.9489   30.2763   38.6851 H   0  0  0  0  0  0  0  0  0  0  0  0
   43.7411   33.7524   39.1192 H   0  0  0  0  0  0  0  0  0  0  0  0
   43.4049   35.5024   39.0758 H   0  0  0  0  0  0  0  0  0  0  0  0
   42.4004   32.4421   40.9346 H   0  0  0  0  0  0  0  0  0  0  0  0
   40.6851   32.9089   40.7496 H   0  0  0  0  0  0  0  0  0  0  0  0
   42.6585   31.9241   38.7221 H   0  0  0  0  0  0  0  0  0  0  0  0
   40.8625   31.6595   38.8630 H   0  0  0  0  0  0  0  0  0  0  0  0
   40.9690   32.9121   37.0952 H   0  0  0  0  0  0  0  0  0  0  0  0
   40.6667   35.2504   37.5298 H   0  0  0  0  0  0  0  0  0  0  0  0
   39.6201   34.0628   38.4739 H   0  0  0  0  0  0  0  0  0  0  0  0
   41.3662   36.1376   39.4200 H   0  0  0  0  0  0  0  0  0  0  0  0
   40.1577   35.1261   40.2839 H   0  0  0  0  0  0  0  0  0  0  0  0
  1  6  2  0
  2  1  1  0
  2  3  2  0
  3  4  1  0
  4  5  2  0
  6  5  1  0
  7  8  2  0
  8  9  1  0
  9  1  1  0
 10  9  2  0
 11 10  1  0
 12  7  1  0
 12 11  2  0
 13 14  1  0
 13  2  1  0
 14 15  1  0
 16 15  1  0
 17 18  1  0
 17 16  1  0
 18 19  1  0
 19 14  1  0
  3 20  1  0
  4 21  1  0
  5 22  1  0
  6 23  1  0
  7 24  1  0
  8 25  1  0
 11 26  1  0
 13 27  1  0
 13 28  1  0
 15 29  1  0
 15 30  1  0
 16 31  1  0
 16 32  1  0
 17 33  1  0
 18 34  1  0
 18 35  1  0
 19 36  1  0
 19 37  1  0
M  ISO  8  20  14  21  14  22  14  23  14  24  14  25  14  26  14  27   8
M  ISO  8  28   8  29  13  30  13  31  13  32  13  33   5  34  13  35  13
M  ISO  2  36  13  37  13
M  END
>  <minimizedAffinity>  (1) 
-4.3730278

>  <minimizedRMSD>  (1) 
7.07755136

$$$$
