
     RDKit          3D

 31 32  0  0  0  0  0  0  0  0999 V2000
   42.2070   34.1730   40.1950 C   0  0  0  0  0  0  0  0  0  0  0  0
   42.2900   35.1400   41.1900 C   0  0  0  0  0  0  0  0  0  0  0  0
   41.2380   36.0210   41.3430 C   0  0  0  0  0  0  0  0  0  0  0  0
   40.1470   35.9320   40.5290 C   0  0  0  0  0  0  0  0  0  0  0  0
   40.0340   34.9960   39.5430 C   0  0  0  0  0  0  0  0  0  0  0  0
   41.1120   34.1300   39.4200 C   0  0  0  0  0  0  0  0  0  0  0  0
   44.6140   31.2930   40.5930 C   0  0  0  0  0  0  0  0  0  0  0  0
   43.4700   32.0920   40.7870 C   0  0  0  0  0  0  0  0  0  0  0  0
   43.3440   33.2690   40.0740 C   0  0  0  0  0  0  0  0  0  0  0  0
   44.3440   33.5930   39.2170 N   0  0  0  0  0  0  0  0  0  0  0  0
   45.4380   32.8180   39.0380 C   0  0  0  0  0  0  0  0  0  0  0  0
   45.5700   31.6720   39.7250 N   0  0  0  0  0  0  0  0  0  0  0  0
   43.4910   35.2160   42.0680 C   0  0  0  0  0  0  0  0  0  0  0  0
   43.2190   35.6690   43.4010 N   0  0  0  0  0  0  0  0  0  0  0  0
   44.6490   35.8470   44.3410 S   0  0  0  0  0  0  0  0  0  0  0  0
   45.8210   35.2090   43.6530 O   0  0  0  0  0  0  0  0  0  0  0  0
   44.4870   35.3040   45.7100 O   0  0  0  0  0  0  0  0  0  0  0  0
   44.9380   37.5120   44.4390 O   0  0  0  0  0  0  0  0  0  0  0  0
   41.2797   36.7959   42.1226 H   0  0  0  0  0  0  0  0  0  0  0  0
   39.3227   36.6458   40.6739 H   0  0  0  0  0  0  0  0  0  0  0  0
   39.1504   34.9319   38.8910 H   0  0  0  0  0  0  0  0  0  0  0  0
   41.0658   33.3589   38.6369 H   0  0  0  0  0  0  0  0  0  0  0  0
   44.7265   30.3537   41.1544 H   0  0  0  0  0  0  0  0  0  0  0  0
   42.6879   31.7832   41.4962 H   0  0  0  0  0  0  0  0  0  0  0  0
   46.2202   33.1269   38.3290 H   0  0  0  0  0  0  0  0  0  0  0  0
   43.9371   34.2124   42.1294 H   0  0  0  0  0  0  0  0  0  0  0  0
   44.1664   35.9567   41.6150 H   0  0  0  0  0  0  0  0  0  0  0  0
   42.7421   36.5805   43.3493 H   0  0  0  0  0  0  0  0  0  0  0  0
   46.4543   34.8643   44.3314 H   0  0  0  0  0  0  0  0  0  0  0  0
   44.6975   36.0095   46.3719 H   0  0  0  0  0  0  0  0  0  0  0  0
   44.9851   37.7833   45.3899 H   0  0  0  0  0  0  0  0  0  0  0  0
  1  2  2  0
  2  3  1  0
  2 13  1  0
  4  3  2  0
  5  4  1  0
  6  5  2  0
  6  1  1  0
  7  8  2  0
  9  1  1  0
  9  8  1  0
 10  9  2  0
 11 10  1  0
 11 12  2  0
 12  7  1  0
 13 14  1  0
 14 15  1  0
 15 18  1  0
 15 17  1  0
 16 15  1  0
  3 19  1  0
  4 20  1  0
  5 21  1  0
  6 22  1  0
  7 23  1  0
  8 24  1  0
 11 25  1  0
 13 26  1  0
 13 27  1  0
 14 28  1  0
 16 29  1  0
 17 30  1  0
 18 31  1  0
M  ISO  8  19  14  20  14  21  14  22  14  23  14  24  14  25  14  26   8
M  ISO  5  27   8  28   5  29   3  30   3  31   3
M  END
>  <minimizedAffinity>  (1) 
-5.21024036

>  <minimizedRMSD>  (1) 
6.23218632

$$$$
