
     RDKit          3D

 53 55  0  0  0  0  0  0  0  0999 V2000
   43.1650   32.5350   41.6880 C   0  0  0  0  0  0  0  0  0  0  0  0
   43.6770   34.9760   41.9070 C   0  0  0  0  0  0  0  0  0  0  0  0
   43.9860   33.6660   42.2160 C   0  0  0  0  0  0  0  0  0  0  0  0
   45.0690   33.4360   43.0240 C   0  0  0  0  0  0  0  0  0  0  0  0
   45.8100   34.4760   43.5010 C   0  0  0  0  0  0  0  0  0  0  0  0
   45.5200   35.7830   43.2050 C   0  0  0  0  0  0  0  0  0  0  0  0
   44.4270   35.9710   42.3920 C   0  0  0  0  0  0  0  0  0  0  0  0
   40.1930   35.6190   40.5610 C   0  0  0  0  0  0  0  0  0  0  0  0
   41.2300   35.4570   41.4900 C   0  0  0  0  0  0  0  0  0  0  0  0
   42.5100   35.1700   41.0400 C   0  0  0  0  0  0  0  0  0  0  0  0
   42.6760   35.0620   39.6900 N   0  0  0  0  0  0  0  0  0  0  0  0
   41.6640   35.2230   38.8060 C   0  0  0  0  0  0  0  0  0  0  0  0
   40.4320   35.5000   39.2570 N   0  0  0  0  0  0  0  0  0  0  0  0
   42.8440   31.5370   42.6520 N   0  0  0  0  0  0  0  0  0  0  0  0
   41.2080   31.0330   42.5570 S   0  0  0  0  0  0  0  0  0  0  0  0
   40.2810   32.2140   42.3810 O   0  0  0  0  0  0  0  0  0  0  0  0
   40.7960   30.2320   43.7330 O   0  0  0  0  0  0  0  0  0  0  0  0
   41.0720   30.0590   41.1900 O   0  0  0  0  0  0  0  0  0  0  0  0
   39.7400   29.8380   40.9340 C   0  0  0  0  0  0  0  0  0  0  0  0
   39.4530   28.3270   40.9930 C   0  0  0  0  0  0  0  0  0  0  0  0
   38.0420   28.0760   41.4710 C   0  0  0  0  0  0  0  0  0  0  0  0
   37.6160   26.6910   41.1310 C   0  0  0  0  0  0  0  0  0  0  0  0
   36.2270   26.6050   40.5860 C   0  0  0  0  0  0  0  0  0  0  0  0
   36.1290   27.5390   39.4080 C   0  0  0  0  0  0  0  0  0  0  0  0
   36.3820   28.9740   39.7840 C   0  0  0  0  0  0  0  0  0  0  0  0
   37.1460   29.1740   41.0380 C   0  0  0  0  0  0  0  0  0  0  0  0
   42.2243   32.9478   41.2947 H   0  0  0  0  0  0  0  0  0  0  0  0
   43.7737   32.0403   40.9168 H   0  0  0  0  0  0  0  0  0  0  0  0
   45.3423   32.4041   43.2896 H   0  0  0  0  0  0  0  0  0  0  0  0
   46.6729   34.2585   44.1476 H   0  0  0  0  0  0  0  0  0  0  0  0
   46.1189   36.6213   43.5904 H   0  0  0  0  0  0  0  0  0  0  0  0
   44.1532   37.0022   42.1245 H   0  0  0  0  0  0  0  0  0  0  0  0
   39.1754   35.8459   40.9117 H   0  0  0  0  0  0  0  0  0  0  0  0
   41.0302   35.5567   42.5671 H   0  0  0  0  0  0  0  0  0  0  0  0
   41.8506   35.1274   37.7262 H   0  0  0  0  0  0  0  0  0  0  0  0
   43.4509   30.7196   42.4956 H   0  0  0  0  0  0  0  0  0  0  0  0
   40.0115   32.5573   43.2696 H   0  0  0  0  0  0  0  0  0  0  0  0
   41.0431   30.7125   44.5625 H   0  0  0  0  0  0  0  0  0  0  0  0
   39.4900   30.2204   39.9334 H   0  0  0  0  0  0  0  0  0  0  0  0
   39.1295   30.3581   41.6869 H   0  0  0  0  0  0  0  0  0  0  0  0
   39.5775   27.8952   39.9890 H   0  0  0  0  0  0  0  0  0  0  0  0
   40.1563   27.8579   41.6968 H   0  0  0  0  0  0  0  0  0  0  0  0
   37.9855   28.1067   42.5691 H   0  0  0  0  0  0  0  0  0  0  0  0
   38.3098   26.2896   40.3777 H   0  0  0  0  0  0  0  0  0  0  0  0
   37.6301   26.1122   42.0663 H   0  0  0  0  0  0  0  0  0  0  0  0
   36.0158   25.5747   40.2638 H   0  0  0  0  0  0  0  0  0  0  0  0
   35.4960   26.8868   41.3582 H   0  0  0  0  0  0  0  0  0  0  0  0
   35.1192   27.4601   38.9790 H   0  0  0  0  0  0  0  0  0  0  0  0
   36.9021   27.2434   38.6835 H   0  0  0  0  0  0  0  0  0  0  0  0
   36.9438   29.4462   38.9646 H   0  0  0  0  0  0  0  0  0  0  0  0
   35.3925   29.4229   39.9553 H   0  0  0  0  0  0  0  0  0  0  0  0
   37.7653   30.0737   40.9076 H   0  0  0  0  0  0  0  0  0  0  0  0
   36.3817   29.2420   41.8262 H   0  0  0  0  0  0  0  0  0  0  0  0
  1  3  1  0
  1 14  1  0
  2  3  1  0
  2  7  2  0
  3  4  2  0
  4  5  1  0
  6  5  2  0
  7  6  1  0
  8  9  2  0
 10  9  1  0
 10  2  1  0
 11 10  2  0
 12 13  2  0
 12 11  1  0
 13  8  1  0
 15 14  1  0
 15 17  1  0
 16 15  1  0
 18 15  1  0
 19 20  1  0
 19 18  1  0
 20 21  1  0
 22 21  1  0
 23 22  1  0
 24 25  1  0
 24 23  1  0
 25 26  1  0
 26 21  1  0
  1 27  1  0
  1 28  1  0
  4 29  1  0
  5 30  1  0
  6 31  1  0
  7 32  1  0
  8 33  1  0
  9 34  1  0
 12 35  1  0
 14 36  1  0
 16 37  1  0
 17 38  1  0
 19 39  1  0
 19 40  1  0
 20 41  1  0
 20 42  1  0
 21 43  1  0
 22 44  1  0
 22 45  1  0
 23 46  1  0
 23 47  1  0
 24 48  1  0
 24 49  1  0
 25 50  1  0
 25 51  1  0
 26 52  1  0
 26 53  1  0
M  ISO  8  27   8  28   8  29  14  30  14  31  14  32  14  33  14  34  14
M  ISO  8  35  14  36   5  37   3  38   3  39   8  40   8  41   8  42   8
M  ISO  8  43  13  44  13  45  13  46  13  47  13  48  13  49  13  50  13
M  ISO  3  51  13  52  13  53  13
M  END
>  <minimizedAffinity>  (1) 
-5.4860425

>  <minimizedRMSD>  (1) 
2.16284609

$$$$
