
     RDKit          3D

 52 54  0  0  0  0  0  0  0  0999 V2000
   43.1120   32.5270   41.6800 C   0  0  0  0  0  0  0  0  0  0  0  0
   43.7020   34.9470   41.9090 C   0  0  0  0  0  0  0  0  0  0  0  0
   43.9620   33.6230   42.2160 C   0  0  0  0  0  0  0  0  0  0  0  0
   45.0350   33.3410   43.0360 C   0  0  0  0  0  0  0  0  0  0  0  0
   45.8190   34.3560   43.5310 C   0  0  0  0  0  0  0  0  0  0  0  0
   45.5750   35.6760   43.2360 C   0  0  0  0  0  0  0  0  0  0  0  0
   44.4910   35.9210   42.4110 C   0  0  0  0  0  0  0  0  0  0  0  0
   40.2680   35.7440   40.5560 C   0  0  0  0  0  0  0  0  0  0  0  0
   41.2950   35.5380   41.4950 C   0  0  0  0  0  0  0  0  0  0  0  0
   42.5570   35.1890   41.0400 C   0  0  0  0  0  0  0  0  0  0  0  0
   42.7330   35.0650   39.6860 N   0  0  0  0  0  0  0  0  0  0  0  0
   41.7190   35.2710   38.8030 C   0  0  0  0  0  0  0  0  0  0  0  0
   40.4990   35.6090   39.2550 N   0  0  0  0  0  0  0  0  0  0  0  0
   42.8540   31.4670   42.5980 N   0  0  0  0  0  0  0  0  0  0  0  0
   41.2030   31.0020   42.6330 S   0  0  0  0  0  0  0  0  0  0  0  0
   40.3070   32.2030   42.5680 O   0  0  0  0  0  0  0  0  0  0  0  0
   40.9010   30.2010   43.8630 O   0  0  0  0  0  0  0  0  0  0  0  0
   40.9230   30.0390   41.2920 O   0  0  0  0  0  0  0  0  0  0  0  0
   39.6660   29.4620   41.4230 C   0  0  0  0  0  0  0  0  0  0  0  0
   39.1190   29.1520   40.0220 C   0  0  0  0  0  0  0  0  0  0  0  0
   38.7140   30.3680   39.4340 N   0  0  0  0  0  0  0  0  0  0  0  0
   38.5400   30.3980   38.0360 C   0  0  0  0  0  0  0  0  0  0  0  0
   39.0090   31.7730   37.5440 C   0  0  0  0  0  0  0  0  0  0  0  0
   38.3600   32.8910   38.3000 C   0  0  0  0  0  0  0  0  0  0  0  0
   38.3090   32.6990   39.7850 C   0  0  0  0  0  0  0  0  0  0  0  0
   37.9880   31.2840   40.2120 C   0  0  0  0  0  0  0  0  0  0  0  0
   42.1471   32.9594   41.3766 H   0  0  0  0  0  0  0  0  0  0  0  0
   43.6708   32.0828   40.8431 H   0  0  0  0  0  0  0  0  0  0  0  0
   45.2648   32.2970   43.2955 H   0  0  0  0  0  0  0  0  0  0  0  0
   46.6680   34.1039   44.1834 H   0  0  0  0  0  0  0  0  0  0  0  0
   46.2028   36.4881   43.6314 H   0  0  0  0  0  0  0  0  0  0  0  0
   44.2600   36.9645   42.1505 H   0  0  0  0  0  0  0  0  0  0  0  0
   39.2615   36.0202   40.9034 H   0  0  0  0  0  0  0  0  0  0  0  0
   41.1000   35.6519   42.5716 H   0  0  0  0  0  0  0  0  0  0  0  0
   41.8967   35.1614   37.7230 H   0  0  0  0  0  0  0  0  0  0  0  0
   43.4197   30.6507   42.3250 H   0  0  0  0  0  0  0  0  0  0  0  0
   40.0857   32.4997   43.4862 H   0  0  0  0  0  0  0  0  0  0  0  0
   41.1048   30.7415   44.6670 H   0  0  0  0  0  0  0  0  0  0  0  0
   39.7445   28.5313   42.0041 H   0  0  0  0  0  0  0  0  0  0  0  0
   38.9886   30.1533   41.9457 H   0  0  0  0  0  0  0  0  0  0  0  0
   39.9041   28.6844   39.4097 H   0  0  0  0  0  0  0  0  0  0  0  0
   38.2685   28.4576   40.0886 H   0  0  0  0  0  0  0  0  0  0  0  0
   39.1405   29.6055   37.5654 H   0  0  0  0  0  0  0  0  0  0  0  0
   37.4852   30.2306   37.7725 H   0  0  0  0  0  0  0  0  0  0  0  0
   40.0992   31.8433   37.6726 H   0  0  0  0  0  0  0  0  0  0  0  0
   38.7260   31.8696   36.4854 H   0  0  0  0  0  0  0  0  0  0  0  0
   38.9208   33.8145   38.0934 H   0  0  0  0  0  0  0  0  0  0  0  0
   37.3156   32.9314   37.9570 H   0  0  0  0  0  0  0  0  0  0  0  0
   39.2891   32.9724   40.2029 H   0  0  0  0  0  0  0  0  0  0  0  0
   37.4953   33.3369   40.1605 H   0  0  0  0  0  0  0  0  0  0  0  0
   36.9115   31.0998   40.0806 H   0  0  0  0  0  0  0  0  0  0  0  0
   38.2637   31.1560   41.2692 H   0  0  0  0  0  0  0  0  0  0  0  0
  1  3  1  0
  1 14  1  0
  2  3  1  0
  2  7  2  0
  3  4  2  0
  4  5  1  0
  6  5  2  0
  7  6  1  0
  8  9  2  0
 10  9  1  0
 10  2  1  0
 11 10  2  0
 12 13  2  0
 12 11  1  0
 13  8  1  0
 14 15  1  0
 15 17  1  0
 16 15  1  0
 18 19  1  0
 18 15  1  0
 20 19  1  0
 21 20  1  0
 21 26  1  0
 22 21  1  0
 23 22  1  0
 23 24  1  0
 24 25  1  0
 25 26  1  0
  1 27  1  0
  1 28  1  0
  4 29  1  0
  5 30  1  0
  6 31  1  0
  7 32  1  0
  8 33  1  0
  9 34  1  0
 12 35  1  0
 14 36  1  0
 16 37  1  0
 17 38  1  0
 19 39  1  0
 19 40  1  0
 20 41  1  0
 20 42  1  0
 22 43  1  0
 22 44  1  0
 23 45  1  0
 23 46  1  0
 24 47  1  0
 24 48  1  0
 25 49  1  0
 25 50  1  0
 26 51  1  0
 26 52  1  0
M  ISO  8  27   8  28   8  29  14  30  14  31  14  32  14  33  14  34  14
M  ISO  8  35  14  36   5  37   3  38   3  39   8  40   8  41   8  42   8
M  ISO  8  43  13  44  13  45  13  46  13  47  13  48  13  49  13  50  13
M  ISO  2  51  13  52  13
M  END
>  <minimizedAffinity>  (1) 
-5.6014142

>  <minimizedRMSD>  (1) 
2.39630675

$$$$
