
     RDKit          3D

 18 19  0  0  0  0  0  0  0  0999 V2000
   45.3140   33.2420   47.3890 C   0  0  0  0  0  0  0  0  0  0  0  0
   45.8170   33.3250   46.0810 C   0  0  0  0  0  0  0  0  0  0  0  0
   46.9010   32.4930   45.7490 C   0  0  0  0  0  0  0  0  0  0  0  0
   47.3890   31.6650   46.7160 N   0  0  0  0  0  0  0  0  0  0  0  0
   46.8790   31.6160   47.9550 C   0  0  0  0  0  0  0  0  0  0  0  0
   45.8370   32.4050   48.3010 N   0  0  0  0  0  0  0  0  0  0  0  0
   45.2180   34.2470   45.1300 C   0  0  0  0  0  0  0  0  0  0  0  0
   45.2080   34.0420   43.7700 C   0  0  0  0  0  0  0  0  0  0  0  0
   44.5560   35.1290   43.2500 C   0  0  0  0  0  0  0  0  0  0  0  0
   44.1830   35.9650   44.2550 N   0  0  0  0  0  0  0  0  0  0  0  0
   44.5940   35.4100   45.3820 N   0  0  0  0  0  0  0  0  0  0  0  0
   44.2530   34.0550   47.7170 O   0  0  0  0  0  0  0  0  0  0  0  0
   47.3412   32.5097   44.7411 H   0  0  0  0  0  0  0  0  0  0  0  0
   47.3120   30.9281   48.6962 H   0  0  0  0  0  0  0  0  0  0  0  0
   45.6319   33.1896   43.2189 H   0  0  0  0  0  0  0  0  0  0  0  0
   44.3634   35.2996   42.1805 H   0  0  0  0  0  0  0  0  0  0  0  0
   43.6782   36.8575   44.1572 H   0  0  0  0  0  0  0  0  0  0  0  0
   43.8724   34.6693   47.0403 H   0  0  0  0  0  0  0  0  0  0  0  0
  1 12  1  0
  1  6  2  0
  2  1  1  0
  3  2  2  0
  3  4  1  0
  4  5  2  0
  5  6  1  0
  7 11  2  0
  7  2  1  0
  8  7  1  0
  9  8  2  0
  9 10  1  0
 10 11  1  0
  3 13  1  0
  5 14  1  0
  8 15  1  0
  9 16  1  0
 10 17  1  0
 12 18  1  0
M  ISO  6  13  14  14  14  15  14  16  14  17   9  18   3
M  END
>  <minimizedAffinity>  (1) 
-4.79349041

>  <minimizedRMSD>  (1) 
3.76279736

$$$$
