
     RDKit          3D

 41 44  0  0  0  0  0  0  0  0999 V2000
   48.4380   33.0200   41.5180 C   0  0  0  0  0  0  0  0  0  0  0  0
   48.0590   34.2890   41.8760 C   0  0  0  0  0  0  0  0  0  0  0  0
   48.9970   35.1370   42.4210 C   0  0  0  0  0  0  0  0  0  0  0  0
   50.2880   34.6810   42.5910 C   0  0  0  0  0  0  0  0  0  0  0  0
   50.6260   33.4190   42.2240 C   0  0  0  0  0  0  0  0  0  0  0  0
   49.7000   32.5280   41.6660 C   0  0  0  0  0  0  0  0  0  0  0  0
   46.6390   34.6200   41.6160 C   0  0  0  0  0  0  0  0  0  0  0  0
   45.9350   34.8940   42.9240 C   0  0  0  0  0  0  0  0  0  0  0  0
   45.9990   33.8910   43.8820 C   0  0  0  0  0  0  0  0  0  0  0  0
   45.3650   34.1130   45.1080 C   0  0  0  0  0  0  0  0  0  0  0  0
   44.7290   35.2910   45.2810 N   0  0  0  0  0  0  0  0  0  0  0  0
   44.6830   36.2530   44.3250 C   0  0  0  0  0  0  0  0  0  0  0  0
   45.2850   36.0480   43.1540 N   0  0  0  0  0  0  0  0  0  0  0  0
   47.5500   32.0730   40.9510 O   0  0  0  0  0  0  0  0  0  0  0  0
   50.1190   31.2510   41.3100 O   0  0  0  0  0  0  0  0  0  0  0  0
   51.3790   30.8130   41.1270 C   0  0  0  0  0  0  0  0  0  0  0  0
   51.8680   30.1340   42.2510 C   0  0  0  0  0  0  0  0  0  0  0  0
   53.1460   29.5900   42.3010 C   0  0  0  0  0  0  0  0  0  0  0  0
   53.9790   29.7200   41.1970 C   0  0  0  0  0  0  0  0  0  0  0  0
   53.5230   30.3830   40.0790 C   0  0  0  0  0  0  0  0  0  0  0  0
   54.2740   30.5500   38.9300 C   0  0  0  0  0  0  0  0  0  0  0  0
   53.7510   31.2190   37.8230 C   0  0  0  0  0  0  0  0  0  0  0  0
   52.4540   31.7420   37.8360 C   0  0  0  0  0  0  0  0  0  0  0  0
   51.7220   31.5720   38.9740 C   0  0  0  0  0  0  0  0  0  0  0  0
   52.2520   30.9090   40.0630 C   0  0  0  0  0  0  0  0  0  0  0  0
   48.7218   36.1604   42.7158 H   0  0  0  0  0  0  0  0  0  0  0  0
   51.0487   35.3451   43.0271 H   0  0  0  0  0  0  0  0  0  0  0  0
   51.6635   33.0838   42.3698 H   0  0  0  0  0  0  0  0  0  0  0  0
   46.5825   35.5127   40.9758 H   0  0  0  0  0  0  0  0  0  0  0  0
   46.1531   33.7727   41.1100 H   0  0  0  0  0  0  0  0  0  0  0  0
   46.5325   32.9500   43.6823 H   0  0  0  0  0  0  0  0  0  0  0  0
   45.3838   33.3541   45.9041 H   0  0  0  0  0  0  0  0  0  0  0  0
   44.1516   37.1970   44.5157 H   0  0  0  0  0  0  0  0  0  0  0  0
   46.6028   32.3146   40.7942 H   0  0  0  0  0  0  0  0  0  0  0  0
   51.2141   30.0272   43.1291 H   0  0  0  0  0  0  0  0  0  0  0  0
   53.4931   29.0637   43.2024 H   0  0  0  0  0  0  0  0  0  0  0  0
   54.9943   29.2970   41.2154 H   0  0  0  0  0  0  0  0  0  0  0  0
   55.2978   30.1499   38.8882 H   0  0  0  0  0  0  0  0  0  0  0  0
   54.3711   31.3374   36.9222 H   0  0  0  0  0  0  0  0  0  0  0  0
   52.0409   32.2693   36.9634 H   0  0  0  0  0  0  0  0  0  0  0  0
   50.6970   31.9679   39.0249 H   0  0  0  0  0  0  0  0  0  0  0  0
  1  6  2  0
  1  2  1  0
  2  3  2  0
  3  4  1  0
  5  4  2  0
  6  5  1  0
  7  2  1  0
  7  8  1  0
  8 13  1  0
  8  9  2  0
  9 10  1  0
 10 11  2  0
 12 11  1  0
 13 12  2  0
 14  1  1  0
 15  6  1  0
 16 15  1  0
 16 17  2  0
 17 18  1  0
 19 18  2  0
 20 19  1  0
 21 20  2  0
 22 23  2  0
 22 21  1  0
 23 24  1  0
 24 25  2  0
 25 20  1  0
 25 16  1  0
  3 26  1  0
  4 27  1  0
  5 28  1  0
  7 29  1  0
  7 30  1  0
  9 31  1  0
 10 32  1  0
 12 33  1  0
 14 34  1  0
 17 35  1  0
 18 36  1  0
 19 37  1  0
 21 38  1  0
 22 39  1  0
 23 40  1  0
 24 41  1  0
M  ISO  8  26  14  27  14  28  14  29   8  30   8  31  14  32  14  33  14
M  ISO  8  34   3  35  14  36  14  37  14  38  14  39  14  40  14  41  14
M  END
>  <minimizedAffinity>  (1) 
-5.86790037

>  <minimizedRMSD>  (1) 
0.524442554

$$$$
