
     RDKit          3D

 27 29  0  0  0  0  0  0  0  0999 V2000
   45.7810   34.2320   41.0340 C   0  0  0  0  0  0  0  0  0  0  0  0
   46.4180   34.7990   42.1330 C   0  0  0  0  0  0  0  0  0  0  0  0
   47.7910   35.0710   42.0110 C   0  0  0  0  0  0  0  0  0  0  0  0
   48.4050   34.7660   40.8300 N   0  0  0  0  0  0  0  0  0  0  0  0
   47.7360   34.2190   39.7980 C   0  0  0  0  0  0  0  0  0  0  0  0
   46.4180   33.9430   39.8820 N   0  0  0  0  0  0  0  0  0  0  0  0
   45.6720   35.0850   43.3460 C   0  0  0  0  0  0  0  0  0  0  0  0
   45.0800   36.3060   43.5950 C   0  0  0  0  0  0  0  0  0  0  0  0
   44.4930   36.1400   44.8300 C   0  0  0  0  0  0  0  0  0  0  0  0
   44.7120   34.8940   45.3060 N   0  0  0  0  0  0  0  0  0  0  0  0
   45.4250   34.2790   44.3930 N   0  0  0  0  0  0  0  0  0  0  0  0
   44.4240   33.9580   41.1440 O   0  0  0  0  0  0  0  0  0  0  0  0
   43.4060   34.7090   40.6220 C   0  0  0  0  0  0  0  0  0  0  0  0
   42.7250   35.6240   41.1870 O   0  0  0  0  0  0  0  0  0  0  0  0
   42.6990   34.7930   39.2870 C   0  0  0  0  0  0  0  0  0  0  0  0
   42.0520   33.5500   38.7380 C   0  0  0  0  0  0  0  0  0  0  0  0
   41.2410   34.7130   39.2180 C   0  0  0  0  0  0  0  0  0  0  0  0
   48.3554   35.5170   42.8432 H   0  0  0  0  0  0  0  0  0  0  0  0
   48.2752   33.9922   38.8664 H   0  0  0  0  0  0  0  0  0  0  0  0
   45.0774   37.2020   42.9569 H   0  0  0  0  0  0  0  0  0  0  0  0
   43.9221   36.9177   45.3584 H   0  0  0  0  0  0  0  0  0  0  0  0
   44.3855   34.5066   46.2028 H   0  0  0  0  0  0  0  0  0  0  0  0
   43.4421   35.5177   38.9229 H   0  0  0  0  0  0  0  0  0  0  0  0
   42.0731   32.6130   39.3139 H   0  0  0  0  0  0  0  0  0  0  0  0
   42.1235   32.9708   37.8056 H   0  0  0  0  0  0  0  0  0  0  0  0
   40.6930   35.3336   38.4937 H   0  0  0  0  0  0  0  0  0  0  0  0
   40.4266   34.8367   39.9470 H   0  0  0  0  0  0  0  0  0  0  0  0
  1 12  1  0
  1  2  1  0
  2  7  1  0
  3  2  2  0
  4  3  1  0
  5  6  1  0
  5  4  2  0
  6  1  2  0
  7  8  1  0
  7 11  2  0
  8  9  2  0
  9 10  1  0
 11 10  1  0
 13 12  1  0
 13 14  2  0
 15 13  1  0
 16 17  1  0
 16 15  1  0
 17 15  1  0
  3 18  1  0
  5 19  1  0
  8 20  1  0
  9 21  1  0
 10 22  1  0
 15 23  1  0
 16 24  1  0
 16 25  1  0
 17 26  1  0
 17 27  1  0
M  ISO  8  18  14  19  14  20  14  21  14  22   9  23  13  24  13  25  13
M  ISO  2  26  13  27  13
M  END
>  <minimizedAffinity>  (1) 
-4.78811312

>  <minimizedRMSD>  (1) 
0.768272221

$$$$
