
     RDKit          3D

 38 40  0  0  0  0  0  0  0  0999 V2000
   48.2760   33.2690   41.1110 C   0  0  0  0  0  0  0  0  0  0  0  0
   48.0340   34.4260   41.8060 C   0  0  0  0  0  0  0  0  0  0  0  0
   49.0340   35.0040   42.5680 C   0  0  0  0  0  0  0  0  0  0  0  0
   50.2750   34.3880   42.6120 C   0  0  0  0  0  0  0  0  0  0  0  0
   50.4940   33.2240   41.9030 C   0  0  0  0  0  0  0  0  0  0  0  0
   49.4850   32.6330   41.1270 C   0  0  0  0  0  0  0  0  0  0  0  0
   46.6560   34.9670   41.6590 C   0  0  0  0  0  0  0  0  0  0  0  0
   45.9810   34.9970   43.0040 C   0  0  0  0  0  0  0  0  0  0  0  0
   46.1820   33.8940   43.8480 C   0  0  0  0  0  0  0  0  0  0  0  0
   45.5650   33.9200   45.0910 C   0  0  0  0  0  0  0  0  0  0  0  0
   44.8130   34.9970   45.4150 N   0  0  0  0  0  0  0  0  0  0  0  0
   44.6390   36.0440   44.5770 C   0  0  0  0  0  0  0  0  0  0  0  0
   45.2220   36.0380   43.3810 N   0  0  0  0  0  0  0  0  0  0  0  0
   47.3430   32.5990   40.3150 O   0  0  0  0  0  0  0  0  0  0  0  0
   49.8480   31.4720   40.4700 O   0  0  0  0  0  0  0  0  0  0  0  0
   50.9280   31.5730   38.4950 C   0  0  0  0  0  0  0  0  0  0  0  0
   51.0910   31.4150   39.8670 C   0  0  0  0  0  0  0  0  0  0  0  0
   52.3630   31.2420   40.3570 C   0  0  0  0  0  0  0  0  0  0  0  0
   53.4430   31.2290   39.5020 C   0  0  0  0  0  0  0  0  0  0  0  0
   53.3130   31.3850   38.1210 C   0  0  0  0  0  0  0  0  0  0  0  0
   52.0270   31.5590   37.6300 C   0  0  0  0  0  0  0  0  0  0  0  0
   49.4300   31.8070   37.6220 S   0  0  0  0  0  0  0  0  0  0  0  0
   49.0640   33.2600   37.7240 O   0  0  0  0  0  0  0  0  0  0  0  0
   49.6850   31.5160   36.1570 O   0  0  0  0  0  0  0  0  0  0  0  0
   48.8480   35.9329   43.1271 H   0  0  0  0  0  0  0  0  0  0  0  0
   51.0857   34.8269   43.2122 H   0  0  0  0  0  0  0  0  0  0  0  0
   51.4845   32.7476   41.9474 H   0  0  0  0  0  0  0  0  0  0  0  0
   46.7046   35.9872   41.2506 H   0  0  0  0  0  0  0  0  0  0  0  0
   46.0815   34.3246   40.9754 H   0  0  0  0  0  0  0  0  0  0  0  0
   46.8043   33.0421   43.5366 H   0  0  0  0  0  0  0  0  0  0  0  0
   45.6846   33.0844   45.7963 H   0  0  0  0  0  0  0  0  0  0  0  0
   44.0172   36.8982   44.8832 H   0  0  0  0  0  0  0  0  0  0  0  0
   46.4254   32.9580   40.2193 H   0  0  0  0  0  0  0  0  0  0  0  0
   52.5198   31.1132   41.4381 H   0  0  0  0  0  0  0  0  0  0  0  0
   54.4489   31.0900   39.9248 H   0  0  0  0  0  0  0  0  0  0  0  0
   54.1878   31.3707   37.4542 H   0  0  0  0  0  0  0  0  0  0  0  0
   51.8701   31.6873   36.5488 H   0  0  0  0  0  0  0  0  0  0  0  0
   48.4458   30.9982   38.1261 H   0  0  0  0  0  0  0  0  0  0  0  0
  1  6  2  0
  1  2  1  0
  2  3  2  0
  3  4  1  0
  5  4  2  0
  6  5  1  0
  7  2  1  0
  7  8  1  0
  8 13  1  0
  8  9  2  0
  9 10  1  0
 10 11  2  0
 12 11  1  0
 13 12  2  0
 14  1  1  0
 15  6  1  0
 16 17  2  0
 17 18  1  0
 17 15  1  0
 19 18  2  0
 20 19  1  0
 21 20  2  0
 21 16  1  0
 22 23  2  0
 22 16  1  0
 24 22  2  0
  3 25  1  0
  4 26  1  0
  5 27  1  0
  7 28  1  0
  7 29  1  0
  9 30  1  0
 10 31  1  0
 12 32  1  0
 14 33  1  0
 18 34  1  0
 19 35  1  0
 20 36  1  0
 21 37  1  0
 22 38  1  0
M  ISO  8  25  14  26  14  27  14  28   8  29   8  30  14  31  14  32  14
M  ISO  6  33   3  34  14  35  14  36  14  37  14  38  11
M  END
>  <minimizedAffinity>  (1) 
-5.71831608

>  <minimizedRMSD>  (1) 
2.62363696

$$$$
