
     RDKit          3D

 41 43  0  0  1  0  0  0  0  0999 V2000
   43.4500   34.3980   40.6850 C   0  0  0  0  0  0  0  0  0  0  0  0
   43.3530   35.6090   40.3390 O   0  0  0  0  0  0  0  0  0  0  0  0
   42.0950   33.9660   40.4270 N   0  0  0  0  0  0  0  0  0  0  0  0
   41.6520   34.1030   39.0610 C   0  0  0  0  0  0  0  0  0  0  0  0
   40.8150   35.3740   39.0340 C   0  0  0  0  0  0  0  0  0  0  0  0
   40.0740   35.4440   40.3780 C   0  0  0  0  0  0  0  0  0  0  0  0
   39.7880   34.0480   40.9290 C   0  0  0  0  0  0  0  0  0  0  0  0
   41.1040   33.4090   41.3570 C   0  0  1  0  0  0  0  0  0  0  0  0
   44.5470   33.7300   41.1620 O   0  0  0  0  0  0  0  0  0  0  0  0
   45.8570   34.1140   41.0170 C   0  0  0  0  0  0  0  0  0  0  0  0
   46.4690   34.7700   42.0920 C   0  0  0  0  0  0  0  0  0  0  0  0
   47.8070   35.1600   41.9370 C   0  0  0  0  0  0  0  0  0  0  0  0
   48.4220   34.8700   40.7430 N   0  0  0  0  0  0  0  0  0  0  0  0
   47.7990   34.2490   39.7620 C   0  0  0  0  0  0  0  0  0  0  0  0
   46.5180   33.8630   39.8800 N   0  0  0  0  0  0  0  0  0  0  0  0
   45.7200   35.0270   43.3140 C   0  0  0  0  0  0  0  0  0  0  0  0
   45.0430   36.2290   43.5400 C   0  0  0  0  0  0  0  0  0  0  0  0
   44.4880   36.0330   44.7940 C   0  0  0  0  0  0  0  0  0  0  0  0
   44.8080   34.8080   45.2850 N   0  0  0  0  0  0  0  0  0  0  0  0
   45.5460   34.2320   44.3740 N   0  0  0  0  0  0  0  0  0  0  0  0
   41.0060   32.0570   41.0270 O   0  0  0  0  0  0  0  0  0  0  0  0
   41.9380   29.7050   41.5890 O   0  0  0  0  0  0  0  0  0  0  0  0
   41.6260   31.0380   42.2080 P   0  0  0  0  0  0  0  0  0  0  0  0
   40.5240   30.9500   43.4690 O   0  0  0  0  0  0  0  0  0  0  0  0
   43.0990   31.7240   42.7120 O   0  0  0  0  0  0  0  0  0  0  0  0
   42.5141   34.1953   38.3841 H   0  0  0  0  0  0  0  0  0  0  0  0
   41.0768   33.2268   38.7273 H   0  0  0  0  0  0  0  0  0  0  0  0
   41.4649   36.2533   38.9133 H   0  0  0  0  0  0  0  0  0  0  0  0
   40.1070   35.3634   38.1922 H   0  0  0  0  0  0  0  0  0  0  0  0
   40.6945   35.9941   41.1008 H   0  0  0  0  0  0  0  0  0  0  0  0
   39.1141   35.9570   40.2183 H   0  0  0  0  0  0  0  0  0  0  0  0
   39.1147   34.1235   41.7956 H   0  0  0  0  0  0  0  0  0  0  0  0
   39.3082   33.4318   40.1543 H   0  0  0  0  0  0  0  0  0  0  0  0
   41.3430   33.5665   42.4191 H   0  0  0  0  0  0  0  0  0  0  0  0
   48.3454   35.6799   42.7431 H   0  0  0  0  0  0  0  0  0  0  0  0
   48.3395   34.0423   38.8265 H   0  0  0  0  0  0  0  0  0  0  0  0
   44.9694   37.1102   42.8857 H   0  0  0  0  0  0  0  0  0  0  0  0
   43.8691   36.7728   45.3228 H   0  0  0  0  0  0  0  0  0  0  0  0
   44.5256   34.4125   46.1932 H   0  0  0  0  0  0  0  0  0  0  0  0
   41.0068   30.9886   44.3324 H   0  0  0  0  0  0  0  0  0  0  0  0
   43.1341   31.7403   43.7012 H   0  0  0  0  0  0  0  0  0  0  0  0
  1  9  1  0
  2  1  2  0
  3  1  1  0
  3  8  1  0
  4  3  1  0
  5  4  1  0
  5  6  1  0
  6  7  1  0
  7  8  1  0
 10  9  1  0
 10 11  1  0
 11 16  1  0
 12 11  2  0
 13 12  1  0
 14 15  1  0
 14 13  2  0
 15 10  2  0
 16 17  1  0
 16 20  2  0
 17 18  2  0
 18 19  1  0
 20 19  1  0
 21  8  1  0
 21 23  1  0
 22 23  2  0
 23 25  1  0
 23 24  1  0
  4 26  1  0
  4 27  1  0
  5 28  1  0
  5 29  1  0
  6 30  1  0
  6 31  1  0
  7 32  1  0
  7 33  1  0
  8 34  1  1
 12 35  1  0
 14 36  1  0
 17 37  1  0
 18 38  1  0
 19 39  1  0
 24 40  1  0
 25 41  1  0
M  ISO  8  26  13  27  13  28  13  29  13  30  13  31  13  32  13  33  13
M  ISO  8  34  13  35  14  36  14  37  14  38  14  39   9  40   3  41   3
M  END
>  <minimizedAffinity>  (1) 
-6.70055342

>  <minimizedRMSD>  (1) 
0.608406723

$$$$
