
     RDKit          3D

 18 18  0  0  0  0  0  0  0  0999 V2000
   44.6070   36.0010   44.4000 C   0  0  0  0  0  0  0  0  0  0  0  0
   45.3140   35.8890   43.1940 C   0  0  0  0  0  0  0  0  0  0  0  0
   46.1940   34.8420   42.9820 C   0  0  0  0  0  0  0  0  0  0  0  0
   46.3250   33.9490   43.9990 N   0  0  0  0  0  0  0  0  0  0  0  0
   45.6470   34.0630   45.1440 C   0  0  0  0  0  0  0  0  0  0  0  0
   44.7870   35.0810   45.3570 N   0  0  0  0  0  0  0  0  0  0  0  0
   46.9210   34.7570   41.7000 C   0  0  0  0  0  0  0  0  0  0  0  0
   48.3170   35.3250   41.8910 C   0  0  0  0  0  0  0  0  0  0  0  0
   48.9370   35.6020   40.6200 N   0  0  0  0  0  0  0  0  0  0  0  0
   43.9104   36.8374   44.5588 H   0  0  0  0  0  0  0  0  0  0  0  0
   45.1673   36.6429   42.4065 H   0  0  0  0  0  0  0  0  0  0  0  0
   45.7930   33.3094   45.9319 H   0  0  0  0  0  0  0  0  0  0  0  0
   46.3873   35.3374   40.9330 H   0  0  0  0  0  0  0  0  0  0  0  0
   46.9852   33.7080   41.3753 H   0  0  0  0  0  0  0  0  0  0  0  0
   48.2503   36.2578   42.4702 H   0  0  0  0  0  0  0  0  0  0  0  0
   48.9282   34.5836   42.4264 H   0  0  0  0  0  0  0  0  0  0  0  0
   49.8667   36.0174   40.7748 H   0  0  0  0  0  0  0  0  0  0  0  0
   49.0368   34.7255   40.0884 H   0  0  0  0  0  0  0  0  0  0  0  0
  1  6  2  0
  2  1  1  0
  3  2  2  0
  3  4  1  0
  4  5  2  0
  5  6  1  0
  7  8  1  0
  7  3  1  0
  9  8  1  0
  1 10  1  0
  2 11  1  0
  5 12  1  0
  7 13  1  0
  7 14  1  0
  8 15  1  0
  8 16  1  0
  9 17  1  0
  9 18  1  0
M  ISO  8  10  14  11  14  12  14  13   8  14   8  15   8  16   8  17   5
M  ISO  1  18   5
M  END
>  <minimizedAffinity>  (1) 
-3.69415522

>  <minimizedRMSD>  (1) 
0.163953871

$$$$
