
     RDKit          3D

 17 17  0  0  0  0  0  0  0  0999 V2000
   44.5920   36.0290   44.4820 C   0  0  0  0  0  0  0  0  0  0  0  0
   45.3270   35.9350   43.2790 C   0  0  0  0  0  0  0  0  0  0  0  0
   46.1940   34.8540   43.1290 C   0  0  0  0  0  0  0  0  0  0  0  0
   46.2750   33.9650   44.1450 N   0  0  0  0  0  0  0  0  0  0  0  0
   45.5580   34.0800   45.2880 C   0  0  0  0  0  0  0  0  0  0  0  0
   44.7240   35.1100   45.4460 N   0  0  0  0  0  0  0  0  0  0  0  0
   46.9770   34.7180   41.8890 C   0  0  0  0  0  0  0  0  0  0  0  0
   48.4160   35.1250   42.1460 C   0  0  0  0  0  0  0  0  0  0  0  0
   48.9240   34.4610   43.2420 O   0  0  0  0  0  0  0  0  0  0  0  0
   43.8999   36.8713   44.6287 H   0  0  0  0  0  0  0  0  0  0  0  0
   45.2185   36.6903   42.4867 H   0  0  0  0  0  0  0  0  0  0  0  0
   45.6625   33.3273   46.0833 H   0  0  0  0  0  0  0  0  0  0  0  0
   46.5467   35.3667   41.1118 H   0  0  0  0  0  0  0  0  0  0  0  0
   46.9489   33.6709   41.5532 H   0  0  0  0  0  0  0  0  0  0  0  0
   49.0235   34.8799   41.2623 H   0  0  0  0  0  0  0  0  0  0  0  0
   48.4467   36.2067   42.3435 H   0  0  0  0  0  0  0  0  0  0  0  0
   48.5947   34.8914   44.0705 H   0  0  0  0  0  0  0  0  0  0  0  0
  1  6  2  0
  2  1  1  0
  3  2  2  0
  3  4  1  0
  4  5  2  0
  5  6  1  0
  7  8  1  0
  7  3  1  0
  8  9  1  0
  1 10  1  0
  2 11  1  0
  5 12  1  0
  7 13  1  0
  7 14  1  0
  8 15  1  0
  8 16  1  0
  9 17  1  0
M  ISO  8  10  14  11  14  12  14  13   8  14   8  15   8  16   8  17   3
M  END
>  <minimizedAffinity>  (1) 
-3.52776694

>  <minimizedRMSD>  (1) 
0.231230736

$$$$
