
     RDKit          3D

 31 32  0  0  0  0  0  0  0  0999 V2000
   46.3220   34.9110   41.8040 C   0  0  0  0  0  0  0  0  0  0  0  0
   44.4710   35.9790   44.8930 C   0  0  0  0  0  0  0  0  0  0  0  0
   44.9780   35.9890   43.5670 C   0  0  0  0  0  0  0  0  0  0  0  0
   45.7820   34.9290   43.1780 C   0  0  0  0  0  0  0  0  0  0  0  0
   46.0410   33.9480   44.0740 N   0  0  0  0  0  0  0  0  0  0  0  0
   45.5440   33.9640   45.3310 C   0  0  0  0  0  0  0  0  0  0  0  0
   44.7590   34.9740   45.7520 N   0  0  0  0  0  0  0  0  0  0  0  0
   47.8240   34.9190   41.8480 C   0  0  0  0  0  0  0  0  0  0  0  0
   48.3750   34.1810   40.7560 N   0  0  0  0  0  0  0  0  0  0  0  0
   49.2530   33.1320   41.1070 C   0  0  0  0  0  0  0  0  0  0  0  0
   49.1630   31.8600   40.3320 C   0  0  0  0  0  0  0  0  0  0  0  0
   48.6840   32.0020   38.9190 C   0  0  0  0  0  0  0  0  0  0  0  0
   48.4580   33.4400   38.5160 C   0  0  0  0  0  0  0  0  0  0  0  0
   47.5450   33.9990   39.6190 C   0  0  0  0  0  0  0  0  0  0  0  0
   45.9677   35.7994   41.2606 H   0  0  0  0  0  0  0  0  0  0  0  0
   45.9782   34.0011   41.2902 H   0  0  0  0  0  0  0  0  0  0  0  0
   43.8296   36.8068   45.2297 H   0  0  0  0  0  0  0  0  0  0  0  0
   44.7412   36.8089   42.8729 H   0  0  0  0  0  0  0  0  0  0  0  0
   45.7841   33.1405   46.0196 H   0  0  0  0  0  0  0  0  0  0  0  0
   48.1793   35.9587   41.7945 H   0  0  0  0  0  0  0  0  0  0  0  0
   48.1483   34.4471   42.7872 H   0  0  0  0  0  0  0  0  0  0  0  0
   50.2792   33.5121   40.9955 H   0  0  0  0  0  0  0  0  0  0  0  0
   48.9578   32.8545   42.1297 H   0  0  0  0  0  0  0  0  0  0  0  0
   50.1646   31.4060   40.3070 H   0  0  0  0  0  0  0  0  0  0  0  0
   48.4115   31.2434   40.8468 H   0  0  0  0  0  0  0  0  0  0  0  0
   49.4370   31.5636   38.2475 H   0  0  0  0  0  0  0  0  0  0  0  0
   47.7171   31.4828   38.8448 H   0  0  0  0  0  0  0  0  0  0  0  0
   49.4100   33.9900   38.4810 H   0  0  0  0  0  0  0  0  0  0  0  0
   48.0149   33.5330   37.5135 H   0  0  0  0  0  0  0  0  0  0  0  0
   47.1098   34.9593   39.3053 H   0  0  0  0  0  0  0  0  0  0  0  0
   46.7085   33.3180   39.8345 H   0  0  0  0  0  0  0  0  0  0  0  0
  1  8  1  0
  1  4  1  0
  2  7  2  0
  3  2  1  0
  4  3  2  0
  4  5  1  0
  5  6  2  0
  6  7  1  0
  9 10  1  0
  9  8  1  0
 11 10  1  0
 12 11  1  0
 13 12  1  0
 13 14  1  0
 14  9  1  0
  1 15  1  0
  1 16  1  0
  2 17  1  0
  3 18  1  0
  6 19  1  0
  8 20  1  0
  8 21  1  0
 10 22  1  0
 10 23  1  0
 11 24  1  0
 11 25  1  0
 12 26  1  0
 12 27  1  0
 13 28  1  0
 13 29  1  0
 14 30  1  0
 14 31  1  0
M  ISO  8  15   8  16   8  17  14  18  14  19  14  20   8  21   8  22  13
M  ISO  8  23  13  24  13  25  13  26  13  27  13  28  13  29  13  30  13
M  ISO  1  31  13
M  END
>  <minimizedAffinity>  (1) 
-3.93838573

>  <minimizedRMSD>  (1) 
1.27474713

$$$$
