
     RDKit          3D

 35 37  0  0  0  0  0  0  0  0999 V2000
   48.4890   33.0930   41.3640 C   0  0  0  0  0  0  0  0  0  0  0  0
   48.0590   34.3120   41.8240 C   0  0  0  0  0  0  0  0  0  0  0  0
   48.9530   35.1370   42.4660 C   0  0  0  0  0  0  0  0  0  0  0  0
   50.2640   34.7170   42.6310 C   0  0  0  0  0  0  0  0  0  0  0  0
   50.6470   33.4890   42.1520 C   0  0  0  0  0  0  0  0  0  0  0  0
   49.7650   32.6230   41.4930 C   0  0  0  0  0  0  0  0  0  0  0  0
   46.6330   34.6280   41.5740 C   0  0  0  0  0  0  0  0  0  0  0  0
   45.9330   34.9040   42.8790 C   0  0  0  0  0  0  0  0  0  0  0  0
   45.9740   33.9110   43.8440 C   0  0  0  0  0  0  0  0  0  0  0  0
   45.3360   34.1530   45.0620 C   0  0  0  0  0  0  0  0  0  0  0  0
   44.7170   35.3410   45.2270 N   0  0  0  0  0  0  0  0  0  0  0  0
   44.6950   36.2900   44.2650 C   0  0  0  0  0  0  0  0  0  0  0  0
   45.3010   36.0660   43.1010 N   0  0  0  0  0  0  0  0  0  0  0  0
   47.6470   32.1730   40.6950 O   0  0  0  0  0  0  0  0  0  0  0  0
   50.2600   31.4190   41.0550 O   0  0  0  0  0  0  0  0  0  0  0  0
   51.2690   31.4030   40.1080 C   0  0  0  0  0  0  0  0  0  0  0  0
   52.6230   31.2560   40.1920 C   0  0  0  0  0  0  0  0  0  0  0  0
   53.4040   31.2830   39.0560 C   0  0  0  0  0  0  0  0  0  0  0  0
   52.8680   31.4580   37.7970 C   0  0  0  0  0  0  0  0  0  0  0  0
   51.5100   31.6070   37.6970 C   0  0  0  0  0  0  0  0  0  0  0  0
   50.7030   31.5820   38.8400 C   0  0  0  0  0  0  0  0  0  0  0  0
   48.6315   36.1187   42.8441 H   0  0  0  0  0  0  0  0  0  0  0  0
   50.9923   35.3636   43.1424 H   0  0  0  0  0  0  0  0  0  0  0  0
   51.6909   33.1715   42.2916 H   0  0  0  0  0  0  0  0  0  0  0  0
   46.5639   35.5157   40.9281 H   0  0  0  0  0  0  0  0  0  0  0  0
   46.1531   33.7704   41.0797 H   0  0  0  0  0  0  0  0  0  0  0  0
   46.4939   32.9600   43.6562 H   0  0  0  0  0  0  0  0  0  0  0  0
   45.3377   33.3986   45.8626 H   0  0  0  0  0  0  0  0  0  0  0  0
   44.1780   37.2444   44.4432 H   0  0  0  0  0  0  0  0  0  0  0  0
   46.6953   32.3964   40.5384 H   0  0  0  0  0  0  0  0  0  0  0  0
   53.0958   31.1147   41.1751 H   0  0  0  0  0  0  0  0  0  0  0  0
   54.4925   31.1607   39.1572 H   0  0  0  0  0  0  0  0  0  0  0  0
   53.5094   31.4772   36.9036 H   0  0  0  0  0  0  0  0  0  0  0  0
   51.0491   31.7477   36.7082 H   0  0  0  0  0  0  0  0  0  0  0  0
   49.6143   31.7041   38.7413 H   0  0  0  0  0  0  0  0  0  0  0  0
  1  6  2  0
  1  2  1  0
  2  3  2  0
  3  4  1  0
  5  4  2  0
  6  5  1  0
  7  2  1  0
  7  8  1  0
  8 13  1  0
  8  9  2  0
  9 10  1  0
 10 11  2  0
 12 11  1  0
 13 12  2  0
 14  1  1  0
 15  6  1  0
 16 17  2  0
 16 15  1  0
 18 17  1  0
 19 18  2  0
 20 19  1  0
 20 21  2  0
 21 16  1  0
  3 22  1  0
  4 23  1  0
  5 24  1  0
  7 25  1  0
  7 26  1  0
  9 27  1  0
 10 28  1  0
 12 29  1  0
 14 30  1  0
 17 31  1  0
 18 32  1  0
 19 33  1  0
 20 34  1  0
 21 35  1  0
M  ISO  8  22  14  23  14  24  14  25   8  26   8  27  14  28  14  29  14
M  ISO  6  30   3  31  14  32  14  33  14  34  14  35  14
M  END
>  <minimizedAffinity>  (1) 
-5.53671503

>  <minimizedRMSD>  (1) 
1.69142103

$$$$
