
     RDKit          3D

 33 34  0  0  1  0  0  0  0  0999 V2000
   48.5140   33.8990   41.3240 N   0  0  0  0  0  0  0  0  0  0  0  0
   49.0350   33.0730   42.3290 C   0  0  0  0  0  0  0  0  0  0  0  0
   48.9460   31.5970   42.1100 C   0  0  0  0  0  0  0  0  0  0  0  0
   49.0320   31.1660   40.6690 C   0  0  0  0  0  0  0  0  0  0  0  0
   49.2490   32.3200   39.7440 C   0  0  0  0  0  0  0  0  0  0  0  0
   48.1320   33.3330   40.0990 C   0  0  2  0  0  0  0  0  0  0  0  0
   47.7700   35.0500   41.7600 C   0  0  0  0  0  0  0  0  0  0  0  0
   46.3000   34.7740   41.7550 C   0  0  0  0  0  0  0  0  0  0  0  0
   44.4980   36.0370   44.7990 C   0  0  0  0  0  0  0  0  0  0  0  0
   45.0030   35.9660   43.4850 C   0  0  0  0  0  0  0  0  0  0  0  0
   45.7630   34.8710   43.1290 C   0  0  0  0  0  0  0  0  0  0  0  0
   45.9890   33.9230   44.0500 N   0  0  0  0  0  0  0  0  0  0  0  0
   45.5010   34.0000   45.3070 C   0  0  0  0  0  0  0  0  0  0  0  0
   44.7500   35.0590   45.6900 N   0  0  0  0  0  0  0  0  0  0  0  0
   48.2070   34.3140   38.9740 C   0  0  0  0  0  0  0  0  0  0  0  0
   48.3180   34.5130   37.8040 O   0  0  0  0  0  0  0  0  0  0  0  0
   50.0986   33.3269   42.4487 H   0  0  0  0  0  0  0  0  0  0  0  0
   48.4086   33.2685   43.2119 H   0  0  0  0  0  0  0  0  0  0  0  0
   49.7701   31.1191   42.6599 H   0  0  0  0  0  0  0  0  0  0  0  0
   47.9514   31.2904   42.4662 H   0  0  0  0  0  0  0  0  0  0  0  0
   49.8704   30.4624   40.5596 H   0  0  0  0  0  0  0  0  0  0  0  0
   48.0748   30.6950   40.4008 H   0  0  0  0  0  0  0  0  0  0  0  0
   49.1600   31.9977   38.6961 H   0  0  0  0  0  0  0  0  0  0  0  0
   50.2529   32.7558   39.8550 H   0  0  0  0  0  0  0  0  0  0  0  0
   47.1116   32.9360   40.2050 H   0  0  0  0  0  0  0  0  0  0  0  0
   48.0825   35.3142   42.7810 H   0  0  0  0  0  0  0  0  0  0  0  0
   47.9722   35.8800   41.0670 H   0  0  0  0  0  0  0  0  0  0  0  0
   45.7934   35.5097   41.1130 H   0  0  0  0  0  0  0  0  0  0  0  0
   46.1244   33.7589   41.3693 H   0  0  0  0  0  0  0  0  0  0  0  0
   43.8900   36.9026   45.1007 H   0  0  0  0  0  0  0  0  0  0  0  0
   44.7957   36.7662   42.7592 H   0  0  0  0  0  0  0  0  0  0  0  0
   45.7157   33.1953   46.0256 H   0  0  0  0  0  0  0  0  0  0  0  0
   48.1199   35.3074   39.4384 H   0  0  0  0  0  0  0  0  0  0  0  0
  1  7  1  0
  1  2  1  0
  3  2  1  0
  4  3  1  0
  5  6  1  0
  5  4  1  0
  6  1  1  0
  8  7  1  0
  8 11  1  0
  9 14  2  0
 10  9  1  0
 11 10  2  0
 11 12  1  0
 12 13  2  0
 13 14  1  0
 15  6  1  0
 16 15  2  0
  2 17  1  0
  2 18  1  0
  3 19  1  0
  3 20  1  0
  4 21  1  0
  4 22  1  0
  5 23  1  0
  5 24  1  0
  6 25  1  1
  7 26  1  0
  7 27  1  0
  8 28  1  0
  8 29  1  0
  9 30  1  0
 10 31  1  0
 13 32  1  0
 15 33  1  0
M  ISO  8  17  13  18  13  19  13  20  13  21  13  22  13  23  13  24  13
M  ISO  8  25  13  26   8  27   8  28   8  29   8  30  14  31  14  32  14
M  ISO  1  33   6
M  END
>  <minimizedAffinity>  (1) 
-4.20397377

>  <minimizedRMSD>  (1) 
1.10850132

$$$$
