
     RDKit          3D

 32 33  0  0  1  0  0  0  0  0999 V2000
   48.9850   33.4510   40.8840 N   0  0  0  0  0  0  0  0  0  0  0  0
   49.1540   33.1230   42.2520 C   0  0  0  0  0  0  0  0  0  0  0  0
   49.2860   31.6690   42.5890 C   0  0  0  0  0  0  0  0  0  0  0  0
   49.9360   30.8440   41.5300 C   0  0  0  0  0  0  0  0  0  0  0  0
   50.3860   31.6500   40.3280 C   0  0  0  0  0  0  0  0  0  0  0  0
   49.1180   32.4270   39.9280 C   0  0  2  0  0  0  0  0  0  0  0  0
   48.0550   34.4940   40.6160 C   0  0  0  0  0  0  0  0  0  0  0  0
   46.6790   33.9630   40.4240 C   0  0  0  0  0  0  0  0  0  0  0  0
   43.5470   35.2370   42.0680 C   0  0  0  0  0  0  0  0  0  0  0  0
   44.4180   34.6620   41.1180 C   0  0  0  0  0  0  0  0  0  0  0  0
   45.7580   34.5590   41.3970 C   0  0  0  0  0  0  0  0  0  0  0  0
   46.1600   35.0270   42.5900 N   0  0  0  0  0  0  0  0  0  0  0  0
   45.3320   35.5780   43.5030 C   0  0  0  0  0  0  0  0  0  0  0  0
   44.0150   35.6860   43.2460 N   0  0  0  0  0  0  0  0  0  0  0  0
   49.3820   32.9540   38.6690 O   0  0  0  0  0  0  0  0  0  0  0  0
   50.0640   33.6300   42.6054 H   0  0  0  0  0  0  0  0  0  0  0  0
   48.2241   33.4477   42.7418 H   0  0  0  0  0  0  0  0  0  0  0  0
   49.8849   31.5825   43.5076 H   0  0  0  0  0  0  0  0  0  0  0  0
   48.2632   31.2808   42.7035 H   0  0  0  0  0  0  0  0  0  0  0  0
   50.8157   30.3479   41.9659 H   0  0  0  0  0  0  0  0  0  0  0  0
   49.1849   30.1235   41.1741 H   0  0  0  0  0  0  0  0  0  0  0  0
   51.2011   32.3378   40.5974 H   0  0  0  0  0  0  0  0  0  0  0  0
   50.7825   31.0249   39.5144 H   0  0  0  0  0  0  0  0  0  0  0  0
   48.1984   31.8243   39.8945 H   0  0  0  0  0  0  0  0  0  0  0  0
   48.0520   35.1962   41.4627 H   0  0  0  0  0  0  0  0  0  0  0  0
   48.3619   34.9994   39.6884 H   0  0  0  0  0  0  0  0  0  0  0  0
   46.3367   34.2040   39.4068 H   0  0  0  0  0  0  0  0  0  0  0  0
   46.6947   32.8729   40.5705 H   0  0  0  0  0  0  0  0  0  0  0  0
   42.4735   35.3188   41.8424 H   0  0  0  0  0  0  0  0  0  0  0  0
   44.0245   34.2977   40.1576 H   0  0  0  0  0  0  0  0  0  0  0  0
   45.7350   35.9400   44.4604 H   0  0  0  0  0  0  0  0  0  0  0  0
   49.8233   33.8349   38.7659 H   0  0  0  0  0  0  0  0  0  0  0  0
  1  2  1  0
  2  3  1  0
  4  3  1  0
  5  4  1  0
  6  5  1  0
  6  1  1  0
  7  1  1  0
  8  7  1  0
  8 11  1  0
  9 14  2  0
 10 11  2  0
 10  9  1  0
 11 12  1  0
 12 13  2  0
 14 13  1  0
 15  6  1  0
  2 16  1  0
  2 17  1  0
  3 18  1  0
  3 19  1  0
  4 20  1  0
  4 21  1  0
  5 22  1  0
  5 23  1  0
  6 24  1  6
  7 25  1  0
  7 26  1  0
  8 27  1  0
  8 28  1  0
  9 29  1  0
 10 30  1  0
 13 31  1  0
 15 32  1  0
M  ISO  8  16  13  17  13  18  13  19  13  20  13  21  13  22  13  23  13
M  ISO  8  24  13  25   8  26   8  27   8  28   8  29  14  30  14  31  14
M  ISO  1  32   3
M  END
>  <minimizedAffinity>  (1) 
-3.66267395

>  <minimizedRMSD>  (1) 
2.38141155

$$$$
