
     RDKit          3D

 48 50  0  0  1  0  0  0  0  0999 V2000
   46.6750   34.3810   43.4970 N   0  0  0  0  0  0  0  0  0  0  0  0
   46.4330   34.9330   42.2140 C   0  0  0  0  0  0  0  0  0  0  0  0
   44.9810   35.0000   41.7990 C   0  0  0  0  0  0  0  0  0  0  0  0
   44.0270   35.2390   42.9390 C   0  0  0  0  0  0  0  0  0  0  0  0
   44.7480   35.4420   44.2470 C   0  0  0  0  0  0  0  0  0  0  0  0
   45.6320   34.1490   44.3790 C   0  0  2  0  0  0  0  0  0  0  0  0
   47.8400   33.5480   43.5670 C   0  0  0  0  0  0  0  0  0  0  0  0
   47.6240   32.3460   42.6990 C   0  0  0  0  0  0  0  0  0  0  0  0
   51.2090   32.3050   41.5710 C   0  0  0  0  0  0  0  0  0  0  0  0
   50.0550   32.5070   42.3490 C   0  0  0  0  0  0  0  0  0  0  0  0
   48.8320   32.1240   41.8600 C   0  0  0  0  0  0  0  0  0  0  0  0
   48.7970   31.5690   40.6440 N   0  0  0  0  0  0  0  0  0  0  0  0
   49.9040   31.3760   39.9000 C   0  0  0  0  0  0  0  0  0  0  0  0
   51.1070   31.7370   40.3470 N   0  0  0  0  0  0  0  0  0  0  0  0
   46.0460   34.2310   45.7020 O   0  0  0  0  0  0  0  0  0  0  0  0
   45.5900   31.6340   45.5620 O   0  0  0  0  0  0  0  0  0  0  0  0
   46.0160   32.7480   46.4910 P   0  0  2  0  0  0  0  0  0  0  0  0
   44.7760   32.8600   47.6650 O   0  0  0  0  0  0  0  0  0  0  0  0
   47.4580   32.4630   47.2750 O   0  0  0  0  0  0  0  0  0  0  0  0
   47.5350   31.2990   47.9700 C   0  0  2  0  0  0  0  0  0  0  0  0
   48.5940   31.4870   49.0510 C   0  0  0  0  0  0  0  0  0  0  0  0
   49.1640   30.0960   49.1780 C   0  0  0  0  0  0  0  0  0  0  0  0
   48.5740   29.2930   48.2170 O   0  0  0  0  0  0  0  0  0  0  0  0
   48.1160   30.1410   47.2070 C   0  0  0  0  0  0  0  0  0  0  0  0
   46.8363   35.9564   42.2036 H   0  0  0  0  0  0  0  0  0  0  0  0
   46.9217   34.2572   41.4968 H   0  0  0  0  0  0  0  0  0  0  0  0
   44.8661   35.8198   41.0746 H   0  0  0  0  0  0  0  0  0  0  0  0
   44.7269   34.0182   41.3729 H   0  0  0  0  0  0  0  0  0  0  0  0
   43.4298   36.1364   42.7199 H   0  0  0  0  0  0  0  0  0  0  0  0
   43.3876   34.3495   43.0385 H   0  0  0  0  0  0  0  0  0  0  0  0
   45.3744   36.3457   44.2153 H   0  0  0  0  0  0  0  0  0  0  0  0
   44.0645   35.5840   45.0971 H   0  0  0  0  0  0  0  0  0  0  0  0
   45.1767   33.1713   44.1627 H   0  0  0  0  0  0  0  0  0  0  0  0
   48.7175   34.1082   43.2118 H   0  0  0  0  0  0  0  0  0  0  0  0
   48.0137   33.2332   44.6066 H   0  0  0  0  0  0  0  0  0  0  0  0
   47.4478   31.4630   43.3309 H   0  0  0  0  0  0  0  0  0  0  0  0
   46.7500   32.5104   42.0516 H   0  0  0  0  0  0  0  0  0  0  0  0
   52.1934   32.6084   41.9570 H   0  0  0  0  0  0  0  0  0  0  0  0
   50.1327   32.9695   43.3440 H   0  0  0  0  0  0  0  0  0  0  0  0
   49.8134   30.9125   38.9065 H   0  0  0  0  0  0  0  0  0  0  0  0
   45.1746   32.8240   48.5705 H   0  0  0  0  0  0  0  0  0  0  0  0
   46.5020   31.0869   48.2831 H   0  0  0  0  0  0  0  0  0  0  0  0
   49.3636   32.2069   48.7355 H   0  0  0  0  0  0  0  0  0  0  0  0
   48.1977   31.8914   49.9941 H   0  0  0  0  0  0  0  0  0  0  0  0
   50.2524   30.1247   49.0211 H   0  0  0  0  0  0  0  0  0  0  0  0
   48.9619   29.6948   50.1821 H   0  0  0  0  0  0  0  0  0  0  0  0
   47.3476   29.6465   46.5946 H   0  0  0  0  0  0  0  0  0  0  0  0
   48.9063   30.4405   46.5030 H   0  0  0  0  0  0  0  0  0  0  0  0
  1  7  1  0
  1  6  1  0
  2  1  1  0
  3  2  1  0
  3  4  1  0
  4  5  1  0
  5  6  1  0
  6 15  1  0
  8  7  1  0
  9 10  2  0
 11 10  1  0
 11  8  1  0
 12 11  2  0
 13 14  2  0
 13 12  1  0
 14  9  1  0
 15 17  1  0
 17 16  2  0
 17 19  1  0
 17 18  1  0
 20 19  1  0
 20 21  1  0
 21 22  1  0
 23 22  1  0
 24 20  1  0
 24 23  1  0
  2 25  1  0
  2 26  1  0
  3 27  1  0
  3 28  1  0
  4 29  1  0
  4 30  1  0
  5 31  1  0
  5 32  1  0
  6 33  1  6
  7 34  1  0
  7 35  1  0
  8 36  1  0
  8 37  1  0
  9 38  1  0
 10 39  1  0
 13 40  1  0
 18 41  1  0
 20 42  1  1
 21 43  1  0
 21 44  1  0
 22 45  1  0
 22 46  1  0
 24 47  1  0
 24 48  1  0
M  ISO  8  25  13  26  13  27  13  28  13  29  13  30  13  31  13  32  13
M  ISO  8  33  13  34   8  35   8  36   8  37   8  38  14  39  14  40  14
M  ISO  8  41   3  42  13  43  13  44  13  45  13  46  13  47  13  48  13
M  END
>  <minimizedAffinity>  (1) 
-4.88489199

>  <minimizedRMSD>  (1) 
2.51757169

$$$$
