
     RDKit          3D

 47 49  0  0  1  0  0  0  0  0999 V2000
   47.2460   34.1020   43.0370 N   0  0  0  0  0  0  0  0  0  0  0  0
   46.7070   35.3000   42.4820 C   0  0  0  0  0  0  0  0  0  0  0  0
   45.2360   35.5180   42.7210 C   0  0  0  0  0  0  0  0  0  0  0  0
   44.7190   34.9560   44.0130 C   0  0  0  0  0  0  0  0  0  0  0  0
   45.8400   34.4060   44.8640 C   0  0  0  0  0  0  0  0  0  0  0  0
   46.5030   33.3370   43.9190 C   0  0  2  0  0  0  0  0  0  0  0  0
   48.2180   33.4540   42.2080 C   0  0  0  0  0  0  0  0  0  0  0  0
   47.5050   32.6270   41.1830 C   0  0  0  0  0  0  0  0  0  0  0  0
   49.3700   32.3340   37.9300 C   0  0  0  0  0  0  0  0  0  0  0  0
   48.8590   32.0270   39.2110 C   0  0  0  0  0  0  0  0  0  0  0  0
   48.0440   32.9460   39.8350 C   0  0  0  0  0  0  0  0  0  0  0  0
   47.7700   34.0990   39.1910 N   0  0  0  0  0  0  0  0  0  0  0  0
   48.2730   34.3630   37.9680 C   0  0  0  0  0  0  0  0  0  0  0  0
   49.0690   33.4980   37.3280 N   0  0  0  0  0  0  0  0  0  0  0  0
   47.3280   32.6560   44.8160 O   0  0  0  0  0  0  0  0  0  0  0  0
   47.4360   30.1660   43.8850 O   0  0  0  0  0  0  0  0  0  0  0  0
   46.8740   31.0400   45.0040 P   0  0  2  0  0  0  0  0  0  0  0  0
   45.1730   31.0090   44.8160 O   0  0  0  0  0  0  0  0  0  0  0  0
   47.2300   30.4690   46.5230 O   0  0  0  0  0  0  0  0  0  0  0  0
   46.8210   27.0160   47.2830 N   0  0  0  0  0  0  0  0  0  0  0  0
   47.2880   28.2130   46.8260 C   0  0  0  0  0  0  0  0  0  0  0  0
   46.5680   29.3860   47.0770 C   0  0  0  0  0  0  0  0  0  0  0  0
   45.3960   29.2790   47.7880 C   0  0  0  0  0  0  0  0  0  0  0  0
   44.8450   30.3960   47.9470 O   0  0  0  0  0  0  0  0  0  0  0  0
   44.9870   28.0800   48.2110 N   0  0  0  0  0  0  0  0  0  0  0  0
   45.6720   26.9540   47.9720 C   0  0  0  0  0  0  0  0  0  0  0  0
   45.1380   25.9240   48.4440 O   0  0  0  0  0  0  0  0  0  0  0  0
   46.8743   35.2757   41.3951 H   0  0  0  0  0  0  0  0  0  0  0  0
   47.2226   36.1282   42.9902 H   0  0  0  0  0  0  0  0  0  0  0  0
   45.0456   36.6014   42.7184 H   0  0  0  0  0  0  0  0  0  0  0  0
   44.7087   34.9832   41.9173 H   0  0  0  0  0  0  0  0  0  0  0  0
   44.2054   35.7535   44.5699 H   0  0  0  0  0  0  0  0  0  0  0  0
   44.0265   34.1337   43.7798 H   0  0  0  0  0  0  0  0  0  0  0  0
   46.5569   35.1956   45.1334 H   0  0  0  0  0  0  0  0  0  0  0  0
   45.4950   33.9871   45.8208 H   0  0  0  0  0  0  0  0  0  0  0  0
   45.8510   32.6499   43.3598 H   0  0  0  0  0  0  0  0  0  0  0  0
   48.8387   34.2106   41.7057 H   0  0  0  0  0  0  0  0  0  0  0  0
   48.8641   32.8106   42.8233 H   0  0  0  0  0  0  0  0  0  0  0  0
   47.6611   31.5596   41.3983 H   0  0  0  0  0  0  0  0  0  0  0  0
   46.4283   32.8504   41.2124 H   0  0  0  0  0  0  0  0  0  0  0  0
   50.0227   31.6112   37.4185 H   0  0  0  0  0  0  0  0  0  0  0  0
   49.1069   31.0735   39.7002 H   0  0  0  0  0  0  0  0  0  0  0  0
   48.0217   35.3173   37.4821 H   0  0  0  0  0  0  0  0  0  0  0  0
   44.7426   31.0012   45.7075 H   0  0  0  0  0  0  0  0  0  0  0  0
   47.3540   26.1543   47.0979 H   0  0  0  0  0  0  0  0  0  0  0  0
   48.2304   28.2562   46.2603 H   0  0  0  0  0  0  0  0  0  0  0  0
   44.1075   28.0186   48.7436 H   0  0  0  0  0  0  0  0  0  0  0  0
  1  6  1  0
  2  3  1  0
  2  1  1  0
  3  4  1  0
  4  5  1  0
  6 15  1  0
  6  5  1  0
  7  1  1  0
  8  7  1  0
  9 10  2  0
 10 11  1  0
 11  8  1  0
 12 11  2  0
 13 12  1  0
 14  9  1  0
 14 13  2  0
 15 17  1  0
 17 16  2  0
 17 19  1  0
 18 17  1  0
 19 22  1  0
 20 26  1  0
 21 22  2  0
 21 20  1  0
 22 23  1  0
 23 24  2  0
 23 25  1  0
 26 25  1  0
 26 27  2  0
  2 28  1  0
  2 29  1  0
  3 30  1  0
  3 31  1  0
  4 32  1  0
  4 33  1  0
  5 34  1  0
  5 35  1  0
  6 36  1  6
  7 37  1  0
  7 38  1  0
  8 39  1  0
  8 40  1  0
  9 41  1  0
 10 42  1  0
 13 43  1  0
 18 44  1  0
 20 45  1  0
 21 46  1  0
 25 47  1  0
M  ISO  8  28  13  29  13  30  13  31  13  32  13  33  13  34  13  35  13
M  ISO  8  36  13  37   8  38   8  39   8  40   8  41  14  42  14  43  14
M  ISO  4  44   3  45   9  46  14  47   9
M  END
>  <minimizedAffinity>  (1) 
-4.68471575

>  <minimizedRMSD>  (1) 
1.32594264

$$$$
