
     RDKit          3D

 50 52  0  0  1  0  0  0  0  0999 V2000
   46.7380   34.3720   43.4820 N   0  0  0  0  0  0  0  0  0  0  0  0
   46.4720   34.9530   42.2250 C   0  0  0  0  0  0  0  0  0  0  0  0
   45.0110   34.9750   41.8350 C   0  0  0  0  0  0  0  0  0  0  0  0
   44.0730   35.1790   42.9960 C   0  0  0  0  0  0  0  0  0  0  0  0
   44.8210   35.3880   44.2980 C   0  0  0  0  0  0  0  0  0  0  0  0
   45.7430   34.1080   44.3930 C   0  0  2  0  0  0  0  0  0  0  0  0
   47.9430   33.5820   43.5290 C   0  0  0  0  0  0  0  0  0  0  0  0
   47.7200   32.3470   42.7370 C   0  0  0  0  0  0  0  0  0  0  0  0
   51.2300   32.1360   41.4250 C   0  0  0  0  0  0  0  0  0  0  0  0
   50.1290   32.3560   42.2740 C   0  0  0  0  0  0  0  0  0  0  0  0
   48.8660   32.1100   41.8310 C   0  0  0  0  0  0  0  0  0  0  0  0
   48.7330   31.6620   40.5860 N   0  0  0  0  0  0  0  0  0  0  0  0
   49.7720   31.4460   39.7610 C   0  0  0  0  0  0  0  0  0  0  0  0
   51.0290   31.6810   40.1730 N   0  0  0  0  0  0  0  0  0  0  0  0
   46.1630   34.1900   45.7060 O   0  0  0  0  0  0  0  0  0  0  0  0
   45.6390   31.5870   45.5760 O   0  0  0  0  0  0  0  0  0  0  0  0
   46.0330   32.7150   46.5210 P   0  0  2  0  0  0  0  0  0  0  0  0
   44.7360   32.9010   47.6070 O   0  0  0  0  0  0  0  0  0  0  0  0
   47.4010   32.3490   47.4060 O   0  0  0  0  0  0  0  0  0  0  0  0
   47.6320   30.9830   47.3300 C   0  0  0  0  0  0  0  0  0  0  0  0
   48.6330   30.6880   48.4100 C   0  0  0  0  0  0  0  0  0  0  0  0
   49.0920   29.3890   48.5170 C   0  0  0  0  0  0  0  0  0  0  0  0
   50.0090   28.9920   49.4630 C   0  0  0  0  0  0  0  0  0  0  0  0
   50.5070   29.9280   50.3630 C   0  0  0  0  0  0  0  0  0  0  0  0
   50.0380   31.2320   50.2460 C   0  0  0  0  0  0  0  0  0  0  0  0
   49.1160   31.6270   49.2940 C   0  0  0  0  0  0  0  0  0  0  0  0
   46.8374   35.9904   42.2429 H   0  0  0  0  0  0  0  0  0  0  0  0
   46.9831   34.3267   41.4790 H   0  0  0  0  0  0  0  0  0  0  0  0
   44.8564   35.7936   41.1167 H   0  0  0  0  0  0  0  0  0  0  0  0
   44.7797   33.9886   41.4067 H   0  0  0  0  0  0  0  0  0  0  0  0
   43.4496   36.0635   42.7982 H   0  0  0  0  0  0  0  0  0  0  0  0
   43.4565   34.2738   43.0989 H   0  0  0  0  0  0  0  0  0  0  0  0
   45.4243   36.3072   44.2634 H   0  0  0  0  0  0  0  0  0  0  0  0
   44.1542   35.5052   45.1650 H   0  0  0  0  0  0  0  0  0  0  0  0
   45.3261   33.1127   44.1793 H   0  0  0  0  0  0  0  0  0  0  0  0
   48.7795   34.1532   43.1001 H   0  0  0  0  0  0  0  0  0  0  0  0
   48.1887   33.3260   44.5702 H   0  0  0  0  0  0  0  0  0  0  0  0
   47.6130   31.4913   43.4198 H   0  0  0  0  0  0  0  0  0  0  0  0
   46.8052   32.4641   42.1374 H   0  0  0  0  0  0  0  0  0  0  0  0
   52.2511   32.3349   41.7826 H   0  0  0  0  0  0  0  0  0  0  0  0
   50.2897   32.7273   43.2969 H   0  0  0  0  0  0  0  0  0  0  0  0
   49.5919   31.0743   38.7415 H   0  0  0  0  0  0  0  0  0  0  0  0
   45.0741   32.8525   48.5362 H   0  0  0  0  0  0  0  0  0  0  0  0
   46.7006   30.4247   47.5054 H   0  0  0  0  0  0  0  0  0  0  0  0
   48.0007   30.6847   46.3375 H   0  0  0  0  0  0  0  0  0  0  0  0
   48.7062   28.6371   47.8129 H   0  0  0  0  0  0  0  0  0  0  0  0
   50.3446   27.9454   49.5069 H   0  0  0  0  0  0  0  0  0  0  0  0
   51.2402   29.6490   51.1341 H   0  0  0  0  0  0  0  0  0  0  0  0
   50.4203   31.9885   50.9471 H   0  0  0  0  0  0  0  0  0  0  0  0
   48.7748   32.6716   49.2438 H   0  0  0  0  0  0  0  0  0  0  0  0
  1  7  1  0
  1  6  1  0
  2  1  1  0
  3  2  1  0
  3  4  1  0
  4  5  1  0
  5  6  1  0
  6 15  1  0
  8  7  1  0
  9 10  2  0
 11 10  1  0
 11  8  1  0
 12 11  2  0
 13 14  2  0
 13 12  1  0
 14  9  1  0
 15 17  1  0
 17 16  2  0
 17 19  1  0
 17 18  1  0
 20 19  1  0
 20 21  1  0
 21 22  2  0
 21 26  1  0
 22 23  1  0
 23 24  2  0
 25 24  1  0
 26 25  2  0
  2 27  1  0
  2 28  1  0
  3 29  1  0
  3 30  1  0
  4 31  1  0
  4 32  1  0
  5 33  1  0
  5 34  1  0
  6 35  1  6
  7 36  1  0
  7 37  1  0
  8 38  1  0
  8 39  1  0
  9 40  1  0
 10 41  1  0
 13 42  1  0
 18 43  1  0
 20 44  1  0
 20 45  1  0
 22 46  1  0
 23 47  1  0
 24 48  1  0
 25 49  1  0
 26 50  1  0
M  ISO  8  27  13  28  13  29  13  30  13  31  13  32  13  33  13  34  13
M  ISO  8  35  13  36   8  37   8  38   8  39   8  40  14  41  14  42  14
M  ISO  8  43   3  44   8  45   8  46  14  47  14  48  14  49  14  50  14
M  END
>  <minimizedAffinity>  (1) 
-5.14454937

>  <minimizedRMSD>  (1) 
2.97688961

$$$$
