
     RDKit          3D

 48 50  0  0  1  0  0  0  0  0999 V2000
   46.7680   34.3790   43.4850 N   0  0  0  0  0  0  0  0  0  0  0  0
   46.4790   34.9390   42.2160 C   0  0  0  0  0  0  0  0  0  0  0  0
   45.0130   34.9670   41.8430 C   0  0  0  0  0  0  0  0  0  0  0  0
   44.0710   35.1290   43.0120 C   0  0  0  0  0  0  0  0  0  0  0  0
   44.8260   35.3580   44.3000 C   0  0  0  0  0  0  0  0  0  0  0  0
   45.7690   34.0970   44.3940 C   0  0  2  0  0  0  0  0  0  0  0  0
   47.9670   33.5660   43.5090 C   0  0  0  0  0  0  0  0  0  0  0  0
   47.7180   32.3310   42.7300 C   0  0  0  0  0  0  0  0  0  0  0  0
   51.2360   32.1210   41.3980 C   0  0  0  0  0  0  0  0  0  0  0  0
   50.1280   32.3350   42.2440 C   0  0  0  0  0  0  0  0  0  0  0  0
   48.8620   32.0940   41.8140 C   0  0  0  0  0  0  0  0  0  0  0  0
   48.7220   31.6490   40.5630 N   0  0  0  0  0  0  0  0  0  0  0  0
   49.7580   31.4360   39.7380 C   0  0  0  0  0  0  0  0  0  0  0  0
   51.0220   31.6660   40.1360 N   0  0  0  0  0  0  0  0  0  0  0  0
   46.2010   34.1800   45.6970 O   0  0  0  0  0  0  0  0  0  0  0  0
   45.6430   31.5700   45.6090 O   0  0  0  0  0  0  0  0  0  0  0  0
   46.0750   32.7370   46.5260 P   0  0  2  0  0  0  0  0  0  0  0  0
   44.7350   32.9080   47.6000 O   0  0  0  0  0  0  0  0  0  0  0  0
   47.3910   32.3310   47.4370 O   0  0  0  0  0  0  0  0  0  0  0  0
   47.6270   30.9830   47.3940 C   0  0  0  0  0  0  0  0  0  0  0  0
   48.6080   30.4280   48.3130 C   0  0  0  0  0  0  0  0  0  0  0  0
   48.9990   31.3980   49.2440 C   0  0  0  0  0  0  0  0  0  0  0  0
   49.9060   31.0040   50.2350 C   0  0  0  0  0  0  0  0  0  0  0  0
   50.4060   29.7580   50.3230 N   0  0  0  0  0  0  0  0  0  0  0  0
   49.9980   28.8650   49.4040 C   0  0  0  0  0  0  0  0  0  0  0  0
   49.1290   29.1760   48.4270 N   0  0  0  0  0  0  0  0  0  0  0  0
   46.8521   35.9738   42.2077 H   0  0  0  0  0  0  0  0  0  0  0  0
   46.9698   34.2890   41.4766 H   0  0  0  0  0  0  0  0  0  0  0  0
   44.8505   35.8074   41.1522 H   0  0  0  0  0  0  0  0  0  0  0  0
   44.7866   33.9892   41.3928 H   0  0  0  0  0  0  0  0  0  0  0  0
   43.4130   35.9904   42.8248 H   0  0  0  0  0  0  0  0  0  0  0  0
   43.4838   34.2045   43.1144 H   0  0  0  0  0  0  0  0  0  0  0  0
   45.4131   36.2870   44.2532 H   0  0  0  0  0  0  0  0  0  0  0  0
   44.1661   35.4692   45.1730 H   0  0  0  0  0  0  0  0  0  0  0  0
   45.3565   33.1001   44.1794 H   0  0  0  0  0  0  0  0  0  0  0  0
   48.8021   34.1244   43.0609 H   0  0  0  0  0  0  0  0  0  0  0  0
   48.2254   33.3092   44.5469 H   0  0  0  0  0  0  0  0  0  0  0  0
   47.6130   31.4778   43.4163 H   0  0  0  0  0  0  0  0  0  0  0  0
   46.7928   32.4424   42.1455 H   0  0  0  0  0  0  0  0  0  0  0  0
   52.2575   32.3194   41.7545 H   0  0  0  0  0  0  0  0  0  0  0  0
   50.2914   32.7027   43.2678 H   0  0  0  0  0  0  0  0  0  0  0  0
   49.5707   31.0670   38.7188 H   0  0  0  0  0  0  0  0  0  0  0  0
   45.0550   32.8672   48.5360 H   0  0  0  0  0  0  0  0  0  0  0  0
   46.6705   30.4778   47.5936 H   0  0  0  0  0  0  0  0  0  0  0  0
   48.0604   30.8136   46.3973 H   0  0  0  0  0  0  0  0  0  0  0  0
   48.6100   32.4259   49.1987 H   0  0  0  0  0  0  0  0  0  0  0  0
   50.2255   31.7496   50.9780 H   0  0  0  0  0  0  0  0  0  0  0  0
   50.3912   27.8389   49.4539 H   0  0  0  0  0  0  0  0  0  0  0  0
  1  7  1  0
  1  6  1  0
  2  1  1  0
  3  2  1  0
  3  4  1  0
  4  5  1  0
  5  6  1  0
  6 15  1  0
  8  7  1  0
  9 10  2  0
 11 10  1  0
 11  8  1  0
 12 11  2  0
 13 14  2  0
 13 12  1  0
 14  9  1  0
 15 17  1  0
 17 16  2  0
 17 19  1  0
 17 18  1  0
 20 19  1  0
 20 21  1  0
 21 26  1  0
 21 22  2  0
 22 23  1  0
 23 24  2  0
 25 24  1  0
 26 25  2  0
  2 27  1  0
  2 28  1  0
  3 29  1  0
  3 30  1  0
  4 31  1  0
  4 32  1  0
  5 33  1  0
  5 34  1  0
  6 35  1  6
  7 36  1  0
  7 37  1  0
  8 38  1  0
  8 39  1  0
  9 40  1  0
 10 41  1  0
 13 42  1  0
 18 43  1  0
 20 44  1  0
 20 45  1  0
 22 46  1  0
 23 47  1  0
 25 48  1  0
M  ISO  8  27  13  28  13  29  13  30  13  31  13  32  13  33  13  34  13
M  ISO  8  35  13  36   8  37   8  38   8  39   8  40  14  41  14  42  14
M  ISO  6  43   3  44   8  45   8  46  14  47  14  48  14
M  END
>  <minimizedAffinity>  (1) 
-5.02615261

>  <minimizedRMSD>  (1) 
4.06367922

$$$$
