
     RDKit          3D

 43 46  0  0  0  0  0  0  0  0999 V2000
   47.6480   31.7450   39.2010 C   0  0  0  0  0  0  0  0  0  0  0  0
   47.1760   33.0210   39.0730 C   0  0  0  0  0  0  0  0  0  0  0  0
   47.7850   33.8970   38.1870 C   0  0  0  0  0  0  0  0  0  0  0  0
   48.8610   33.4840   37.4390 C   0  0  0  0  0  0  0  0  0  0  0  0
   49.3730   32.1940   37.5370 C   0  0  0  0  0  0  0  0  0  0  0  0
   48.7420   31.3300   38.4360 C   0  0  0  0  0  0  0  0  0  0  0  0
   45.3240   35.5630   43.1650 Cl  0  0  0  0  0  0  0  0  0  0  0  0
   45.1670   34.6850   41.6650 C   0  0  0  0  0  0  0  0  0  0  0  0
   46.2550   34.2290   41.0010 C   0  0  0  0  0  0  0  0  0  0  0  0
   46.0330   33.5490   39.8090 C   0  0  0  0  0  0  0  0  0  0  0  0
   44.7700   33.3420   39.3120 C   0  0  0  0  0  0  0  0  0  0  0  0
   43.6890   33.8030   39.9880 C   0  0  0  0  0  0  0  0  0  0  0  0
   43.8940   34.4850   41.1820 C   0  0  0  0  0  0  0  0  0  0  0  0
   49.5600   35.8590   41.8390 C   0  0  0  0  0  0  0  0  0  0  0  0
   48.2900   35.6350   41.2980 C   0  0  0  0  0  0  0  0  0  0  0  0
   47.5800   34.4820   41.5400 C   0  0  0  0  0  0  0  0  0  0  0  0
   48.2260   33.6230   42.3280 N   0  0  0  0  0  0  0  0  0  0  0  0
   49.4330   33.8000   42.8630 C   0  0  0  0  0  0  0  0  0  0  0  0
   50.0890   34.9230   42.6090 N   0  0  0  0  0  0  0  0  0  0  0  0
   46.9190   30.6340   40.2320 S   0  0  0  0  0  0  0  0  0  0  0  0
   45.5630   30.1900   39.7110 O   0  0  0  0  0  0  0  0  0  0  0  0
   47.7960   29.3430   40.0570 O   0  0  0  0  0  0  0  0  0  0  0  0
   44.5960   31.5050   42.2250 F   0  0  0  0  0  0  0  0  0  0  0  0
   45.6980   30.9990   42.8250 C   0  0  0  0  0  0  0  0  0  0  0  0
   46.6820   30.7400   41.8990 C   0  0  0  0  0  0  0  0  0  0  0  0
   47.8310   30.3830   42.6860 C   0  0  0  0  0  0  0  0  0  0  0  0
   47.9910   30.2910   44.0780 C   0  0  0  0  0  0  0  0  0  0  0  0
   46.8530   30.5960   44.7830 C   0  0  0  0  0  0  0  0  0  0  0  0
   45.6710   30.9600   44.1850 C   0  0  0  0  0  0  0  0  0  0  0  0
   47.4059   34.9244   38.0829 H   0  0  0  0  0  0  0  0  0  0  0  0
   49.3313   34.1938   36.7425 H   0  0  0  0  0  0  0  0  0  0  0  0
   50.2344   31.8693   36.9349 H   0  0  0  0  0  0  0  0  0  0  0  0
   49.1144   30.3006   38.5441 H   0  0  0  0  0  0  0  0  0  0  0  0
   44.6349   32.8012   38.3637 H   0  0  0  0  0  0  0  0  0  0  0  0
   42.6724   33.6410   39.6004 H   0  0  0  0  0  0  0  0  0  0  0  0
   43.0307   34.8683   41.7458 H   0  0  0  0  0  0  0  0  0  0  0  0
   50.1055   36.7909   41.6292 H   0  0  0  0  0  0  0  0  0  0  0  0
   47.8429   36.4084   40.6561 H   0  0  0  0  0  0  0  0  0  0  0  0
   49.8782   33.0261   43.5056 H   0  0  0  0  0  0  0  0  0  0  0  0
   48.7319   30.1427   42.1024 H   0  0  0  0  0  0  0  0  0  0  0  0
   48.9377   30.0021   44.5578 H   0  0  0  0  0  0  0  0  0  0  0  0
   46.8895   30.5464   45.8813 H   0  0  0  0  0  0  0  0  0  0  0  0
   44.7676   31.2025   44.7639 H   0  0  0  0  0  0  0  0  0  0  0  0
  1 20  1  0
  2  1  1  0
  2 10  1  0
  3  2  2  0
  4  5  2  0
  4  3  1  0
  5  6  1  0
  6  1  2  0
  8  7  1  0
  9 16  1  0
  9  8  2  0
 10  9  1  0
 11 10  2  0
 11 12  1  0
 12 13  2  0
 13  8  1  0
 14 19  2  0
 15 16  2  0
 15 14  1  0
 16 17  1  0
 17 18  2  0
 19 18  1  0
 20 25  1  0
 21 20  2  0
 22 20  2  0
 23 24  1  0
 24 29  2  0
 25 26  2  0
 25 24  1  0
 26 27  1  0
 27 28  2  0
 29 28  1  0
  3 30  1  0
  4 31  1  0
  5 32  1  0
  6 33  1  0
 11 34  1  0
 12 35  1  0
 13 36  1  0
 14 37  1  0
 15 38  1  0
 18 39  1  0
 26 40  1  0
 27 41  1  0
 28 42  1  0
 29 43  1  0
M  ISO  8  30  14  31  14  32  14  33  14  34  14  35  14  36  14  37  14
M  ISO  6  38  14  39  14  40  14  41  14  42  14  43  14
M  END
>  <minimizedAffinity>  (1) 
-4.90520477

>  <minimizedRMSD>  (1) 
1.22336614

$$$$
