
     RDKit          3D

 32 34  0  0  0  0  0  0  0  0999 V2000
   48.4920   33.1350   41.3590 C   0  0  0  0  0  0  0  0  0  0  0  0
   48.0570   34.3450   41.8520 C   0  0  0  0  0  0  0  0  0  0  0  0
   48.9430   35.1880   42.5180 C   0  0  0  0  0  0  0  0  0  0  0  0
   50.2540   34.7680   42.6640 C   0  0  0  0  0  0  0  0  0  0  0  0
   50.6600   33.5680   42.1670 C   0  0  0  0  0  0  0  0  0  0  0  0
   49.7800   32.7150   41.4960 C   0  0  0  0  0  0  0  0  0  0  0  0
   46.6250   34.6470   41.6070 C   0  0  0  0  0  0  0  0  0  0  0  0
   45.9250   34.9020   42.9150 C   0  0  0  0  0  0  0  0  0  0  0  0
   45.9870   33.8840   43.8790 C   0  0  0  0  0  0  0  0  0  0  0  0
   45.3560   34.1080   45.0950 C   0  0  0  0  0  0  0  0  0  0  0  0
   44.7260   35.2820   45.2800 N   0  0  0  0  0  0  0  0  0  0  0  0
   44.6800   36.2570   44.3260 C   0  0  0  0  0  0  0  0  0  0  0  0
   45.2820   36.0590   43.1460 N   0  0  0  0  0  0  0  0  0  0  0  0
   47.6860   32.2250   40.6810 O   0  0  0  0  0  0  0  0  0  0  0  0
   50.3090   31.5170   41.0240 O   0  0  0  0  0  0  0  0  0  0  0  0
   51.5940   31.0540   41.0620 C   0  0  0  0  0  0  0  0  0  0  0  0
   52.3370   31.2770   39.7040 C   0  0  0  0  0  0  0  0  0  0  0  0
   52.0890   29.9090   40.2710 C   0  0  0  0  0  0  0  0  0  0  0  0
   48.6112   36.1583   42.9160 H   0  0  0  0  0  0  0  0  0  0  0  0
   50.9759   35.4118   43.1878 H   0  0  0  0  0  0  0  0  0  0  0  0
   51.7084   33.2615   42.2969 H   0  0  0  0  0  0  0  0  0  0  0  0
   46.5442   35.5400   40.9698 H   0  0  0  0  0  0  0  0  0  0  0  0
   46.1542   33.7888   41.1052 H   0  0  0  0  0  0  0  0  0  0  0  0
   46.5172   32.9414   43.6780 H   0  0  0  0  0  0  0  0  0  0  0  0
   45.3708   33.3449   45.8871 H   0  0  0  0  0  0  0  0  0  0  0  0
   44.1511   37.2007   44.5252 H   0  0  0  0  0  0  0  0  0  0  0  0
   46.7301   32.4303   40.5256 H   0  0  0  0  0  0  0  0  0  0  0  0
   51.6916   31.2742   42.1353 H   0  0  0  0  0  0  0  0  0  0  0  0
   53.3535   31.6971   39.6881 H   0  0  0  0  0  0  0  0  0  0  0  0
   52.1188   31.7933   38.7575 H   0  0  0  0  0  0  0  0  0  0  0  0
   51.3679   29.2415   39.7766 H   0  0  0  0  0  0  0  0  0  0  0  0
   52.7423   29.0547   40.5018 H   0  0  0  0  0  0  0  0  0  0  0  0
  1  6  2  0
  1  2  1  0
  2  3  2  0
  3  4  1  0
  5  4  2  0
  6  5  1  0
  7  2  1  0
  7  8  1  0
  8 13  1  0
  8  9  2  0
  9 10  1  0
 10 11  2  0
 12 11  1  0
 13 12  2  0
 14  1  1  0
 15 16  1  0
 15  6  1  0
 17 18  1  0
 17 16  1  0
 18 16  1  0
  3 19  1  0
  4 20  1  0
  5 21  1  0
  7 22  1  0
  7 23  1  0
  9 24  1  0
 10 25  1  0
 12 26  1  0
 14 27  1  0
 16 28  1  0
 17 29  1  0
 17 30  1  0
 18 31  1  0
 18 32  1  0
M  ISO  8  19  14  20  14  21  14  22   8  23   8  24  14  25  14  26  14
M  ISO  6  27   3  28  13  29  13  30  13  31  13  32  13
M  END
>  <minimizedAffinity>  (1) 
-4.6816473

>  <minimizedRMSD>  (1) 
0.332883865

$$$$
