
     RDKit          3D

 30 33  0  0  0  0  0  0  0  0999 V2000
   47.6000   31.8000   44.1960 C   0  0  0  0  0  0  0  0  0  0  0  0
   47.1290   33.0760   43.8960 C   0  0  0  0  0  0  0  0  0  0  0  0
   46.2850   33.7950   44.7530 C   0  0  0  0  0  0  0  0  0  0  0  0
   45.8990   33.2150   45.9520 C   0  0  0  0  0  0  0  0  0  0  0  0
   45.1160   33.5820   46.9930 N   0  0  0  0  0  0  0  0  0  0  0  0
   45.0910   32.5850   47.9090 C   0  0  0  0  0  0  0  0  0  0  0  0
   45.8700   31.6020   47.4200 N   0  0  0  0  0  0  0  0  0  0  0  0
   46.3750   31.9580   46.2270 C   0  0  0  0  0  0  0  0  0  0  0  0
   47.2110   31.2190   45.4040 C   0  0  0  0  0  0  0  0  0  0  0  0
   47.2650   33.9750   40.3350 C   0  0  0  0  0  0  0  0  0  0  0  0
   48.2890   34.9180   40.2950 C   0  0  0  0  0  0  0  0  0  0  0  0
   48.9310   35.2410   41.4960 C   0  0  0  0  0  0  0  0  0  0  0  0
   48.5050   34.6050   42.6290 N   0  0  0  0  0  0  0  0  0  0  0  0
   47.5190   33.7030   42.6460 C   0  0  0  0  0  0  0  0  0  0  0  0
   46.9120   33.3990   41.5020 N   0  0  0  0  0  0  0  0  0  0  0  0
   45.8050   35.1460   44.3740 C   0  0  0  0  0  0  0  0  0  0  0  0
   44.4480   35.5360   45.0190 C   0  0  0  0  0  0  0  0  0  0  0  0
   44.5720   35.3350   43.5550 C   0  0  0  0  0  0  0  0  0  0  0  0
   48.2613   31.2642   43.4991 H   0  0  0  0  0  0  0  0  0  0  0  0
   44.6171   34.4793   47.0756 H   0  0  0  0  0  0  0  0  0  0  0  0
   44.5432   32.5794   48.8629 H   0  0  0  0  0  0  0  0  0  0  0  0
   47.5542   30.2143   45.6918 H   0  0  0  0  0  0  0  0  0  0  0  0
   46.7407   33.6982   39.4085 H   0  0  0  0  0  0  0  0  0  0  0  0
   48.5842   35.3944   39.3485 H   0  0  0  0  0  0  0  0  0  0  0  0
   49.7469   35.9781   41.5272 H   0  0  0  0  0  0  0  0  0  0  0  0
   46.8273   35.5418   44.2832 H   0  0  0  0  0  0  0  0  0  0  0  0
   43.8976   34.8077   45.6327 H   0  0  0  0  0  0  0  0  0  0  0  0
   44.0942   36.3472   45.6724 H   0  0  0  0  0  0  0  0  0  0  0  0
   44.4968   36.2010   42.8809 H   0  0  0  0  0  0  0  0  0  0  0  0
   44.0396   34.7064   42.8260 H   0  0  0  0  0  0  0  0  0  0  0  0
  1  9  2  0
  2  1  1  0
  2  3  2  0
  3  4  1  0
  4  8  2  0
  4  5  1  0
  5  6  1  0
  7  6  2  0
  8  7  1  0
  9  8  1  0
 10 15  2  0
 11 10  1  0
 11 12  2  0
 12 13  1  0
 13 14  2  0
 14  2  1  0
 15 14  1  0
 16  3  1  0
 16 17  1  0
 18 16  1  0
 18 17  1  0
  1 19  1  0
  5 20  1  0
  6 21  1  0
  9 22  1  0
 10 23  1  0
 11 24  1  0
 12 25  1  0
 16 26  1  0
 17 27  1  0
 17 28  1  0
 18 29  1  0
 18 30  1  0
M  ISO  8  19  14  20   9  21  14  22  14  23  14  24  14  25  14  26  13
M  ISO  4  27  13  28  13  29  13  30  13
M  END
>  <minimizedAffinity>  (1) 
-5.27186108

>  <minimizedRMSD>  (1) 
1.59920716

$$$$
