
     RDKit          3D

 27 29  0  0  0  0  0  0  0  0999 V2000
   47.6430   31.9620   44.0530 C   0  0  0  0  0  0  0  0  0  0  0  0
   47.1380   33.1850   43.6710 C   0  0  0  0  0  0  0  0  0  0  0  0
   46.2730   33.8950   44.4730 C   0  0  0  0  0  0  0  0  0  0  0  0
   45.8720   33.4040   45.7060 C   0  0  0  0  0  0  0  0  0  0  0  0
   45.0550   33.8360   46.7120 N   0  0  0  0  0  0  0  0  0  0  0  0
   45.0720   32.8740   47.6910 C   0  0  0  0  0  0  0  0  0  0  0  0
   45.8990   31.8710   47.2640 N   0  0  0  0  0  0  0  0  0  0  0  0
   46.3970   32.1730   46.0600 C   0  0  0  0  0  0  0  0  0  0  0  0
   47.2580   31.4410   45.2880 C   0  0  0  0  0  0  0  0  0  0  0  0
   47.4580   33.6780   40.0450 C   0  0  0  0  0  0  0  0  0  0  0  0
   48.2720   34.8310   39.9770 C   0  0  0  0  0  0  0  0  0  0  0  0
   48.7110   35.4400   41.1840 C   0  0  0  0  0  0  0  0  0  0  0  0
   48.2950   34.8390   42.3400 N   0  0  0  0  0  0  0  0  0  0  0  0
   47.5250   33.7490   42.3880 C   0  0  0  0  0  0  0  0  0  0  0  0
   47.1080   33.1690   41.2420 N   0  0  0  0  0  0  0  0  0  0  0  0
   44.6070   35.1650   43.2370 C   0  0  0  0  0  0  0  0  0  0  0  0
   44.0450   34.1480   42.7220 O   0  0  0  0  0  0  0  0  0  0  0  0
   45.7220   35.1690   44.1230 N   0  0  0  0  0  0  0  0  0  0  0  0
   48.3338   31.4091   43.3994 H   0  0  0  0  0  0  0  0  0  0  0  0
   44.5250   34.7190   46.7321 H   0  0  0  0  0  0  0  0  0  0  0  0
   44.5222   32.9039   48.6433 H   0  0  0  0  0  0  0  0  0  0  0  0
   47.6364   30.4673   45.6326 H   0  0  0  0  0  0  0  0  0  0  0  0
   47.1099   33.1957   39.1197 H   0  0  0  0  0  0  0  0  0  0  0  0
   48.5621   35.2517   39.0029 H   0  0  0  0  0  0  0  0  0  0  0  0
   49.3456   36.3385   41.1881 H   0  0  0  0  0  0  0  0  0  0  0  0
   44.1877   36.1463   42.9701 H   0  0  0  0  0  0  0  0  0  0  0  0
   46.1132   36.0465   44.4942 H   0  0  0  0  0  0  0  0  0  0  0  0
  1  9  2  0
  2  1  1  0
  2  3  2  0
  3  4  1  0
  4  8  2  0
  4  5  1  0
  5  6  1  0
  7  6  2  0
  8  7  1  0
  9  8  1  0
 10 15  2  0
 11 10  1  0
 11 12  2  0
 12 13  1  0
 13 14  2  0
 14  2  1  0
 15 14  1  0
 16 18  1  0
 17 16  2  0
 18  3  1  0
  1 19  1  0
  5 20  1  0
  6 21  1  0
  9 22  1  0
 10 23  1  0
 11 24  1  0
 12 25  1  0
 16 26  1  0
 18 27  1  0
M  ISO  8  19  14  20   9  21  14  22  14  23  14  24  14  25  14  26   6
M  END
>  <minimizedAffinity>  (1) 
-4.94267893

>  <minimizedRMSD>  (1) 
2.0805738

$$$$
