
     RDKit          3D

 32 35  0  0  0  0  0  0  0  0999 V2000
   45.8760   31.4110   44.4230 C   0  0  0  0  0  0  0  0  0  0  0  0
   46.3050   32.4540   43.6130 C   0  0  0  0  0  0  0  0  0  0  0  0
   47.5620   32.4930   43.0430 C   0  0  0  0  0  0  0  0  0  0  0  0
   48.4740   31.4700   43.2600 C   0  0  0  0  0  0  0  0  0  0  0  0
   49.7360   31.1610   42.8970 N   0  0  0  0  0  0  0  0  0  0  0  0
   50.0900   29.9760   43.4530 C   0  0  0  0  0  0  0  0  0  0  0  0
   49.0300   29.5530   44.1670 N   0  0  0  0  0  0  0  0  0  0  0  0
   48.0230   30.4350   44.0740 C   0  0  0  0  0  0  0  0  0  0  0  0
   46.7740   30.3680   44.6580 C   0  0  0  0  0  0  0  0  0  0  0  0
   44.5970   35.6980   43.8650 C   0  0  0  0  0  0  0  0  0  0  0  0
   43.6680   35.6340   42.8210 C   0  0  0  0  0  0  0  0  0  0  0  0
   43.6330   34.4770   42.0340 C   0  0  0  0  0  0  0  0  0  0  0  0
   44.5160   33.4760   42.3400 N   0  0  0  0  0  0  0  0  0  0  0  0
   45.3930   33.5690   43.3460 C   0  0  0  0  0  0  0  0  0  0  0  0
   45.4510   34.6740   44.1240 N   0  0  0  0  0  0  0  0  0  0  0  0
   48.0230   33.5860   42.1900 C   0  0  0  0  0  0  0  0  0  0  0  0
   47.7160   33.8440   40.8650 C   0  0  0  0  0  0  0  0  0  0  0  0
   48.2780   34.9510   40.2620 C   0  0  0  0  0  0  0  0  0  0  0  0
   49.1220   35.7690   40.9680 C   0  0  0  0  0  0  0  0  0  0  0  0
   49.4230   35.5050   42.2900 C   0  0  0  0  0  0  0  0  0  0  0  0
   48.8670   34.4270   42.8570 N   0  0  0  0  0  0  0  0  0  0  0  0
   44.8676   31.4066   44.8626 H   0  0  0  0  0  0  0  0  0  0  0  0
   50.3379   31.7365   42.2909 H   0  0  0  0  0  0  0  0  0  0  0  0
   51.0555   29.4606   43.3422 H   0  0  0  0  0  0  0  0  0  0  0  0
   46.4933   29.5144   45.2925 H   0  0  0  0  0  0  0  0  0  0  0  0
   44.6369   36.6008   44.4922 H   0  0  0  0  0  0  0  0  0  0  0  0
   42.9826   36.4714   42.6236 H   0  0  0  0  0  0  0  0  0  0  0  0
   42.9224   34.3756   41.2005 H   0  0  0  0  0  0  0  0  0  0  0  0
   47.0393   33.1816   40.3053 H   0  0  0  0  0  0  0  0  0  0  0  0
   48.0478   35.1780   39.2106 H   0  0  0  0  0  0  0  0  0  0  0  0
   49.5652   36.6469   40.4752 H   0  0  0  0  0  0  0  0  0  0  0  0
   50.0987   36.1602   42.8594 H   0  0  0  0  0  0  0  0  0  0  0  0
  1  9  2  0
  2  1  1  0
  3  4  1  0
  3  2  2  0
  4  8  2  0
  5  4  1  0
  5  6  1  0
  6  7  2  0
  8  7  1  0
  8  9  1  0
 10 15  2  0
 11 10  1  0
 12 13  1  0
 12 11  2  0
 13 14  2  0
 14  2  1  0
 14 15  1  0
 16 21  1  0
 16  3  1  0
 17 16  2  0
 18 17  1  0
 18 19  2  0
 19 20  1  0
 20 21  2  0
  1 22  1  0
  5 23  1  0
  6 24  1  0
  9 25  1  0
 10 26  1  0
 11 27  1  0
 12 28  1  0
 17 29  1  0
 18 30  1  0
 19 31  1  0
 20 32  1  0
M  ISO  8  22  14  23   9  24  14  25  14  26  14  27  14  28  14  29  14
M  ISO  3  30  14  31  14  32  14
M  END
>  <minimizedAffinity>  (1) 
-4.63931656

>  <minimizedRMSD>  (1) 
4.72526455

$$$$
