
     RDKit          3D

 43 46  0  0  1  0  0  0  0  0999 V2000
   47.4540   32.5510   44.2800 C   0  0  0  0  0  0  0  0  0  0  0  0
   46.7630   33.5290   43.5640 C   0  0  0  0  0  0  0  0  0  0  0  0
   45.7350   34.2810   44.1130 C   0  0  0  0  0  0  0  0  0  0  0  0
   45.3600   34.0580   45.4510 C   0  0  0  0  0  0  0  0  0  0  0  0
   44.4480   34.5730   46.2860 N   0  0  0  0  0  0  0  0  0  0  0  0
   44.5350   33.9670   47.4840 C   0  0  0  0  0  0  0  0  0  0  0  0
   45.5260   33.0630   47.3680 N   0  0  0  0  0  0  0  0  0  0  0  0
   46.0490   33.0970   46.1320 C   0  0  0  0  0  0  0  0  0  0  0  0
   47.0890   32.3230   45.6120 C   0  0  0  0  0  0  0  0  0  0  0  0
   46.9770   33.2100   39.9250 C   0  0  0  0  0  0  0  0  0  0  0  0
   47.8310   34.2460   39.5650 C   0  0  0  0  0  0  0  0  0  0  0  0
   48.3300   35.0550   40.5840 C   0  0  0  0  0  0  0  0  0  0  0  0
   47.9680   34.8020   41.8840 N   0  0  0  0  0  0  0  0  0  0  0  0
   47.1320   33.7760   42.1810 C   0  0  0  0  0  0  0  0  0  0  0  0
   46.6200   32.9620   41.2220 N   0  0  0  0  0  0  0  0  0  0  0  0
   44.8710   35.5160   43.1850 S   0  0  0  0  0  0  0  0  0  0  0  0
   42.3360   35.4620   42.5080 N   0  0  0  0  0  0  0  0  0  0  0  0
   43.5950   34.8480   42.0990 C   0  0  1  0  0  0  0  0  0  0  0  0
   43.9710   35.2750   40.6840 C   0  0  0  0  0  0  0  0  0  0  0  0
   42.9090   35.2500   39.8000 O   0  0  0  0  0  0  0  0  0  0  0  0
   41.7670   34.6600   40.2580 C   0  0  0  0  0  0  0  0  0  0  0  0
   41.3090   35.3780   41.5070 C   0  0  1  0  0  0  0  0  0  0  0  0
   40.1920   34.7480   42.0800 O   0  0  0  0  0  0  0  0  0  0  0  0
   40.6170   32.1700   41.9760 O   0  0  0  0  0  0  0  0  0  0  0  0
   39.9330   33.3150   41.2570 P   0  0  0  0  0  0  0  0  0  0  0  0
   40.4760   33.3500   39.6640 O   0  0  0  0  0  0  0  0  0  0  0  0
   38.2770   32.9230   41.1810 O   0  0  0  0  0  0  0  0  0  0  0  0
   48.2643   31.9743   43.8101 H   0  0  0  0  0  0  0  0  0  0  0  0
   43.7807   35.3203   46.0469 H   0  0  0  0  0  0  0  0  0  0  0  0
   43.9224   34.1686   48.3751 H   0  0  0  0  0  0  0  0  0  0  0  0
   47.6002   31.5654   46.2241 H   0  0  0  0  0  0  0  0  0  0  0  0
   46.5713   32.5625   39.1337 H   0  0  0  0  0  0  0  0  0  0  0  0
   48.1031   34.4209   38.5136 H   0  0  0  0  0  0  0  0  0  0  0  0
   49.0078   35.8888   40.3489 H   0  0  0  0  0  0  0  0  0  0  0  0
   42.0023   34.9871   43.3589 H   0  0  0  0  0  0  0  0  0  0  0  0
   43.5018   33.7529   42.1455 H   0  0  0  0  0  0  0  0  0  0  0  0
   44.3671   36.3005   40.7235 H   0  0  0  0  0  0  0  0  0  0  0  0
   44.7156   34.5540   40.3156 H   0  0  0  0  0  0  0  0  0  0  0  0
   40.9843   34.7241   39.4878 H   0  0  0  0  0  0  0  0  0  0  0  0
   41.9616   33.6020   40.4877 H   0  0  0  0  0  0  0  0  0  0  0  0
   41.0473   36.3950   41.1795 H   0  0  0  0  0  0  0  0  0  0  0  0
   41.4639   33.4137   39.6534 H   0  0  0  0  0  0  0  0  0  0  0  0
   37.9157   32.8375   42.0987 H   0  0  0  0  0  0  0  0  0  0  0  0
  1  9  2  0
  2  3  2  0
  2  1  1  0
  3  4  1  0
  4  8  2  0
  4  5  1  0
  5  6  1  0
  7  6  2  0
  8  7  1  0
  9  8  1  0
 10 15  2  0
 11 10  1  0
 11 12  2  0
 12 13  1  0
 13 14  2  0
 14  2  1  0
 15 14  1  0
 16  3  1  0
 18 17  1  0
 18 16  1  0
 19 18  1  0
 20 21  1  0
 20 19  1  0
 21 22  1  0
 22 23  1  0
 22 17  1  0
 25 24  2  0
 25 23  1  0
 26 25  1  0
 27 25  1  0
  1 28  1  0
  5 29  1  0
  6 30  1  0
  9 31  1  0
 10 32  1  0
 11 33  1  0
 12 34  1  0
 17 35  1  0
 18 36  1  6
 19 37  1  0
 19 38  1  0
 21 39  1  0
 21 40  1  0
 22 41  1  6
 26 42  1  0
 27 43  1  0
M  ISO  8  28  14  29   9  30  14  31  14  32  14  33  14  34  14  35   5
M  ISO  8  36  13  37  13  38  13  39  13  40  13  41  13  42   3  43   3
M  END
>  <minimizedAffinity>  (1) 
-6.73325491

>  <minimizedRMSD>  (1) 
0.328860819

$$$$
