
     RDKit          3D

 33 35  0  0  0  0  0  0  0  0999 V2000
   48.5100   33.0310   41.4090 C   0  0  0  0  0  0  0  0  0  0  0  0
   48.0760   34.2630   41.8310 C   0  0  0  0  0  0  0  0  0  0  0  0
   48.9590   35.1270   42.4460 C   0  0  0  0  0  0  0  0  0  0  0  0
   50.2770   34.7260   42.6220 C   0  0  0  0  0  0  0  0  0  0  0  0
   50.6900   33.4910   42.1920 C   0  0  0  0  0  0  0  0  0  0  0  0
   49.8000   32.6110   41.5690 C   0  0  0  0  0  0  0  0  0  0  0  0
   46.6440   34.5500   41.5730 C   0  0  0  0  0  0  0  0  0  0  0  0
   45.9440   34.8530   42.8730 C   0  0  0  0  0  0  0  0  0  0  0  0
   45.9860   33.8640   43.8690 C   0  0  0  0  0  0  0  0  0  0  0  0
   45.3490   34.1390   45.0680 C   0  0  0  0  0  0  0  0  0  0  0  0
   44.7290   35.3280   45.2110 N   0  0  0  0  0  0  0  0  0  0  0  0
   44.7030   36.2720   44.2230 C   0  0  0  0  0  0  0  0  0  0  0  0
   45.3130   36.0230   43.0620 N   0  0  0  0  0  0  0  0  0  0  0  0
   47.7090   32.0780   40.7790 O   0  0  0  0  0  0  0  0  0  0  0  0
   50.3370   31.3820   41.1720 O   0  0  0  0  0  0  0  0  0  0  0  0
   51.1180   31.4330   40.0240 C   0  0  0  0  0  0  0  0  0  0  0  0
   52.4830   31.2600   40.1560 C   0  0  0  0  0  0  0  0  0  0  0  0
   53.3440   31.2960   39.0570 C   0  0  0  0  0  0  0  0  0  0  0  0
   52.8280   31.5050   37.8410 N   0  0  0  0  0  0  0  0  0  0  0  0
   51.5000   31.6730   37.7150 C   0  0  0  0  0  0  0  0  0  0  0  0
   50.6690   31.6390   38.7730 N   0  0  0  0  0  0  0  0  0  0  0  0
   48.6246   36.1165   42.7910 H   0  0  0  0  0  0  0  0  0  0  0  0
   50.9940   35.4031   43.1093 H   0  0  0  0  0  0  0  0  0  0  0  0
   51.7372   33.1882   42.3395 H   0  0  0  0  0  0  0  0  0  0  0  0
   46.5602   35.4175   40.9018 H   0  0  0  0  0  0  0  0  0  0  0  0
   46.1757   33.6725   41.1032 H   0  0  0  0  0  0  0  0  0  0  0  0
   46.5045   32.9081   43.7036 H   0  0  0  0  0  0  0  0  0  0  0  0
   45.3489   33.4034   45.8858 H   0  0  0  0  0  0  0  0  0  0  0  0
   44.1840   37.2286   44.3831 H   0  0  0  0  0  0  0  0  0  0  0  0
   46.7529   32.2698   40.6082 H   0  0  0  0  0  0  0  0  0  0  0  0
   52.9041   31.0887   41.1576 H   0  0  0  0  0  0  0  0  0  0  0  0
   54.4269   31.1550   39.1891 H   0  0  0  0  0  0  0  0  0  0  0  0
   51.0786   31.8440   36.7134 H   0  0  0  0  0  0  0  0  0  0  0  0
  1  6  2  0
  1  2  1  0
  2  3  2  0
  3  4  1  0
  5  4  2  0
  6  5  1  0
  7  2  1  0
  7  8  1  0
  8 13  1  0
  8  9  2  0
  9 10  1  0
 10 11  2  0
 12 11  1  0
 13 12  2  0
 14  1  1  0
 15  6  1  0
 16 17  2  0
 16 15  1  0
 18 17  1  0
 19 18  2  0
 20 19  1  0
 20 21  2  0
 21 16  1  0
  3 22  1  0
  4 23  1  0
  5 24  1  0
  7 25  1  0
  7 26  1  0
  9 27  1  0
 10 28  1  0
 12 29  1  0
 14 30  1  0
 17 31  1  0
 18 32  1  0
 20 33  1  0
M  ISO  8  22  14  23  14  24  14  25   8  26   8  27  14  28  14  29  14
M  ISO  4  30   3  31  14  32  14  33  14
M  END
>  <minimizedAffinity>  (1) 
-5.4579916

>  <minimizedRMSD>  (1) 
1.45631373

$$$$
