
     RDKit          3D

 23 24  0  0  0  0  0  0  0  0999 V2000
   45.9700   33.1230   46.6360 C   0  0  0  0  0  0  0  0  0  0  0  0
   45.2410   32.9800   47.8490 C   0  0  0  0  0  0  0  0  0  0  0  0
   45.6720   32.1010   48.7820 C   0  0  0  0  0  0  0  0  0  0  0  0
   46.8360   31.3580   48.5100 C   0  0  0  0  0  0  0  0  0  0  0  0
   47.3320   31.9540   46.8320 S   0  0  0  0  0  0  0  0  0  0  0  0
   44.4420   35.8150   44.5680 C   0  0  0  0  0  0  0  0  0  0  0  0
   45.0900   35.5500   43.3330 C   0  0  0  0  0  0  0  0  0  0  0  0
   46.0040   34.4800   43.2740 C   0  0  0  0  0  0  0  0  0  0  0  0
   46.2190   33.7470   44.4220 N   0  0  0  0  0  0  0  0  0  0  0  0
   45.5620   34.0570   45.5720 C   0  0  0  0  0  0  0  0  0  0  0  0
   44.6770   35.0850   45.6510 N   0  0  0  0  0  0  0  0  0  0  0  0
   47.5280   30.4090   49.2160 O   0  0  0  0  0  0  0  0  0  0  0  0
   49.6920   29.8960   50.7150 O   0  0  0  0  0  0  0  0  0  0  0  0
   49.2330   30.5290   49.4350 P   0  0  0  0  0  0  0  0  0  0  0  0
   49.9710   29.7970   48.0980 O   0  0  0  0  0  0  0  0  0  0  0  0
   49.6480   32.1670   49.4640 O   0  0  0  0  0  0  0  0  0  0  0  0
   44.3354   33.5786   48.0265 H   0  0  0  0  0  0  0  0  0  0  0  0
   45.1272   31.9702   49.7286 H   0  0  0  0  0  0  0  0  0  0  0  0
   43.7259   36.6478   44.6289 H   0  0  0  0  0  0  0  0  0  0  0  0
   44.8835   36.1648   42.4445 H   0  0  0  0  0  0  0  0  0  0  0  0
   46.5308   34.2362   42.3396 H   0  0  0  0  0  0  0  0  0  0  0  0
   50.6380   29.1354   48.4104 H   0  0  0  0  0  0  0  0  0  0  0  0
   49.7251   32.4713   50.4029 H   0  0  0  0  0  0  0  0  0  0  0  0
  1  5  1  0
  1  2  2  0
  2  3  1  0
  4  3  2  0
  4 12  1  0
  5  4  1  0
  6 11  2  0
  7  6  1  0
  8  7  2  0
  8  9  1  0
  9 10  2  0
 10 11  1  0
 10  1  1  0
 12 14  1  0
 14 16  1  0
 14 13  2  0
 15 14  1  0
  2 17  1  0
  3 18  1  0
  6 19  1  0
  7 20  1  0
  8 21  1  0
 15 22  1  0
 16 23  1  0
M  ISO  7  17  14  18  14  19  14  20  14  21  14  22   3  23   3
M  END
>  <minimizedAffinity>  (1) 
-4.74379635

>  <minimizedRMSD>  (1) 
0.792674601

$$$$
