
     RDKit          3D

 32 34  0  0  0  0  0  0  0  0999 V2000
   45.9420   33.1070   46.1670 C   0  0  0  0  0  0  0  0  0  0  0  0
   45.4850   32.9590   47.5010 C   0  0  0  0  0  0  0  0  0  0  0  0
   46.1200   32.1100   48.3300 C   0  0  0  0  0  0  0  0  0  0  0  0
   47.2290   31.3930   47.8290 C   0  0  0  0  0  0  0  0  0  0  0  0
   47.3460   31.9750   46.1000 S   0  0  0  0  0  0  0  0  0  0  0  0
   44.2770   35.9360   44.3950 C   0  0  0  0  0  0  0  0  0  0  0  0
   44.2700   35.4240   43.0870 C   0  0  0  0  0  0  0  0  0  0  0  0
   44.8210   34.1460   42.8780 C   0  0  0  0  0  0  0  0  0  0  0  0
   45.3320   33.4760   43.9570 N   0  0  0  0  0  0  0  0  0  0  0  0
   45.3160   34.0150   45.1990 C   0  0  0  0  0  0  0  0  0  0  0  0
   44.7860   35.2470   45.4170 N   0  0  0  0  0  0  0  0  0  0  0  0
   48.1380   30.4510   48.3260 N   0  0  0  0  0  0  0  0  0  0  0  0
   48.9990   31.1190   49.2480 C   0  0  0  0  0  0  0  0  0  0  0  0
   49.5700   30.2100   50.3130 C   0  0  0  0  0  0  0  0  0  0  0  0
   50.1590   28.9690   49.7220 C   0  0  0  0  0  0  0  0  0  0  0  0
   49.8010   28.7690   48.2700 C   0  0  0  0  0  0  0  0  0  0  0  0
   48.3120   29.0650   48.0450 C   0  0  0  0  0  0  0  0  0  0  0  0
   44.6172   33.5343   47.8560 H   0  0  0  0  0  0  0  0  0  0  0  0
   45.7845   31.9781   49.3693 H   0  0  0  0  0  0  0  0  0  0  0  0
   43.8509   36.9328   44.5814 H   0  0  0  0  0  0  0  0  0  0  0  0
   43.8474   36.0033   42.2529 H   0  0  0  0  0  0  0  0  0  0  0  0
   44.8406   33.6972   41.8739 H   0  0  0  0  0  0  0  0  0  0  0  0
   49.8339   31.5621   48.6853 H   0  0  0  0  0  0  0  0  0  0  0  0
   48.3918   31.8774   49.7639 H   0  0  0  0  0  0  0  0  0  0  0  0
   50.3553   30.7517   50.8607 H   0  0  0  0  0  0  0  0  0  0  0  0
   48.7522   29.9147   50.9868 H   0  0  0  0  0  0  0  0  0  0  0  0
   51.2542   29.0284   49.8062 H   0  0  0  0  0  0  0  0  0  0  0  0
   49.7451   28.1157   50.2792 H   0  0  0  0  0  0  0  0  0  0  0  0
   50.4042   29.4487   47.6502 H   0  0  0  0  0  0  0  0  0  0  0  0
   50.0053   27.7248   47.9907 H   0  0  0  0  0  0  0  0  0  0  0  0
   48.0329   28.8487   47.0032 H   0  0  0  0  0  0  0  0  0  0  0  0
   47.6762   28.4411   48.6903 H   0  0  0  0  0  0  0  0  0  0  0  0
  1  2  2  0
  2  3  1  0
  4 12  1  0
  4  3  2  0
  5  1  1  0
  5  4  1  0
  6 11  2  0
  7  6  1  0
  8  7  2  0
  8  9  1  0
  9 10  2  0
 10 11  1  0
 10  1  1  0
 12 13  1  0
 13 14  1  0
 15 14  1  0
 16 15  1  0
 17 16  1  0
 17 12  1  0
  2 18  1  0
  3 19  1  0
  6 20  1  0
  7 21  1  0
  8 22  1  0
 13 23  1  0
 13 24  1  0
 14 25  1  0
 14 26  1  0
 15 27  1  0
 15 28  1  0
 16 29  1  0
 16 30  1  0
 17 31  1  0
 17 32  1  0
M  ISO  8  18  14  19  14  20  14  21  14  22  14  23  13  24  13  25  13
M  ISO  7  26  13  27  13  28  13  29  13  30  13  31  13  32  13
M  END
>  <minimizedAffinity>  (1) 
-4.55844784

>  <minimizedRMSD>  (1) 
1.24352491

$$$$
