
     RDKit          3D

 20 21  0  0  0  0  0  0  0  0999 V2000
   46.3040   33.2050   45.7800 C   0  0  0  0  0  0  0  0  0  0  0  0
   47.0550   33.0920   44.5850 C   0  0  0  0  0  0  0  0  0  0  0  0
   46.7250   33.8760   43.5390 C   0  0  0  0  0  0  0  0  0  0  0  0
   45.6470   34.7820   43.6610 C   0  0  0  0  0  0  0  0  0  0  0  0
   45.0810   34.4900   45.3740 S   0  0  0  0  0  0  0  0  0  0  0  0
   47.7140   30.9730   48.4050 C   0  0  0  0  0  0  0  0  0  0  0  0
   46.6820   31.0630   49.3750 C   0  0  0  0  0  0  0  0  0  0  0  0
   45.5740   31.8780   49.0760 C   0  0  0  0  0  0  0  0  0  0  0  0
   45.5410   32.5380   47.8740 N   0  0  0  0  0  0  0  0  0  0  0  0
   46.5660   32.4100   46.9810 C   0  0  0  0  0  0  0  0  0  0  0  0
   47.6450   31.6350   47.2420 N   0  0  0  0  0  0  0  0  0  0  0  0
   44.9480   35.7770   42.8800 C   0  0  0  0  0  0  0  0  0  0  0  0
   43.5770   35.8120   43.1550 F   0  0  0  0  0  0  0  0  0  0  0  0
   45.0860   35.5320   41.5500 F   0  0  0  0  0  0  0  0  0  0  0  0
   45.3820   37.0800   43.1520 F   0  0  0  0  0  0  0  0  0  0  0  0
   47.8900   32.3797   44.5116 H   0  0  0  0  0  0  0  0  0  0  0  0
   47.2905   33.8111   42.5977 H   0  0  0  0  0  0  0  0  0  0  0  0
   48.5923   30.3442   48.6130 H   0  0  0  0  0  0  0  0  0  0  0  0
   46.7457   30.5153   50.3268 H   0  0  0  0  0  0  0  0  0  0  0  0
   44.7480   31.9839   49.7946 H   0  0  0  0  0  0  0  0  0  0  0  0
  1 10  1  0
  2  1  2  0
  3  4  2  0
  3  2  1  0
  4  5  1  0
  5  1  1  0
  6  7  2  0
  8  7  1  0
  9  8  2  0
 10 11  2  0
 10  9  1  0
 11  6  1  0
 12 15  1  0
 12 13  1  0
 12  4  1  0
 14 12  1  0
  2 16  1  0
  3 17  1  0
  6 18  1  0
  7 19  1  0
  8 20  1  0
M  ISO  5  16  14  17  14  18  14  19  14  20  14
M  END
>  <minimizedAffinity>  (1) 
-4.54049778

>  <minimizedRMSD>  (1) 
6.6480217

$$$$
