
     RDKit          3D

 39 41  0  0  1  0  0  0  0  0999 V2000
   47.6710   30.0220   48.3130 C   0  0  1  0  0  0  0  0  0  0  0  0
   47.6150   28.8340   47.4160 C   0  0  0  0  0  0  0  0  0  0  0  0
   48.9140   28.0920   47.2740 C   0  0  0  0  0  0  0  0  0  0  0  0
   49.6600   27.9270   48.5810 C   0  0  0  0  0  0  0  0  0  0  0  0
   49.6740   29.1810   49.4140 C   0  0  0  0  0  0  0  0  0  0  0  0
   49.1570   30.3430   48.5810 C   0  0  2  0  0  0  0  0  0  0  0  0
   45.9730   33.1350   46.2720 C   0  0  0  0  0  0  0  0  0  0  0  0
   45.3770   32.9380   47.5260 C   0  0  0  0  0  0  0  0  0  0  0  0
   45.8600   31.9370   48.2980 C   0  0  0  0  0  0  0  0  0  0  0  0
   46.9220   31.1380   47.8360 C   0  0  0  0  0  0  0  0  0  0  0  0
   47.2730   31.8440   46.1900 S   0  0  0  0  0  0  0  0  0  0  0  0
   44.4200   36.0480   44.5470 C   0  0  0  0  0  0  0  0  0  0  0  0
   45.0680   35.9420   43.2870 C   0  0  0  0  0  0  0  0  0  0  0  0
   45.9840   34.9040   43.0880 C   0  0  0  0  0  0  0  0  0  0  0  0
   46.2070   34.0430   44.1280 N   0  0  0  0  0  0  0  0  0  0  0  0
   45.5720   34.1750   45.3110 C   0  0  0  0  0  0  0  0  0  0  0  0
   44.6750   35.1770   45.5320 N   0  0  0  0  0  0  0  0  0  0  0  0
   49.3260   31.6540   49.3060 C   0  0  0  0  0  0  0  0  0  0  0  0
   50.3240   31.4440   50.4290 C   0  0  0  0  0  0  0  0  0  0  0  0
   47.1728   29.7816   49.2638 H   0  0  0  0  0  0  0  0  0  0  0  0
   46.8645   28.1370   47.8171 H   0  0  0  0  0  0  0  0  0  0  0  0
   47.3627   29.2128   46.4145 H   0  0  0  0  0  0  0  0  0  0  0  0
   48.7017   27.0930   46.8655 H   0  0  0  0  0  0  0  0  0  0  0  0
   49.5558   28.6869   46.6075 H   0  0  0  0  0  0  0  0  0  0  0  0
   49.1776   27.1265   49.1611 H   0  0  0  0  0  0  0  0  0  0  0  0
   50.7043   27.6844   48.3349 H   0  0  0  0  0  0  0  0  0  0  0  0
   49.0291   29.0445   50.2946 H   0  0  0  0  0  0  0  0  0  0  0  0
   50.7017   29.3927   49.7442 H   0  0  0  0  0  0  0  0  0  0  0  0
   49.7178   30.4558   47.6414 H   0  0  0  0  0  0  0  0  0  0  0  0
   44.5475   33.5737   47.8694 H   0  0  0  0  0  0  0  0  0  0  0  0
   45.4214   31.7476   49.2888 H   0  0  0  0  0  0  0  0  0  0  0  0
   43.6966   36.8592   44.7164 H   0  0  0  0  0  0  0  0  0  0  0  0
   44.8534   36.6622   42.4837 H   0  0  0  0  0  0  0  0  0  0  0  0
   46.5074   34.7838   42.1280 H   0  0  0  0  0  0  0  0  0  0  0  0
   49.7019   32.4191   48.6109 H   0  0  0  0  0  0  0  0  0  0  0  0
   48.3613   31.9936   49.7110 H   0  0  0  0  0  0  0  0  0  0  0  0
   49.8139   31.5513   51.3977 H   0  0  0  0  0  0  0  0  0  0  0  0
   50.7559   30.4353   50.3518 H   0  0  0  0  0  0  0  0  0  0  0  0
   51.1258   32.1931   50.3518 H   0  0  0  0  0  0  0  0  0  0  0  0
  1  6  1  0
  2  1  1  0
  3  2  1  0
  3  4  1  0
  4  5  1  0
  6 18  1  0
  6  5  1  0
  7  8  2  0
  8  9  1  0
 10  9  2  0
 10  1  1  0
 11  7  1  0
 11 10  1  0
 12 17  2  0
 13 12  1  0
 14 13  2  0
 14 15  1  0
 15 16  2  0
 16 17  1  0
 16  7  1  0
 18 19  1  0
  1 20  1  1
  2 21  1  0
  2 22  1  0
  3 23  1  0
  3 24  1  0
  4 25  1  0
  4 26  1  0
  5 27  1  0
  5 28  1  0
  6 29  1  6
  8 30  1  0
  9 31  1  0
 12 32  1  0
 13 33  1  0
 14 34  1  0
 18 35  1  0
 18 36  1  0
 19 37  1  0
 19 38  1  0
 19 39  1  0
M  ISO  8  20  13  21  13  22  13  23  13  24  13  25  13  26  13  27  13
M  ISO  8  28  13  29  13  30  14  31  14  32  14  33  14  34  14  35   8
M  ISO  4  36   8  37   8  38   8  39   8
M  END
>  <minimizedAffinity>  (1) 
-5.09065199

>  <minimizedRMSD>  (1) 
0.998402596

$$$$
