
     RDKit          3D

 34 36  0  0  1  0  0  0  0  0999 V2000
   47.7360   30.2330   48.5550 C   0  0  1  0  0  0  0  0  0  0  0  0
   47.8650   29.0450   47.6670 C   0  0  0  0  0  0  0  0  0  0  0  0
   49.2280   28.4310   47.6200 C   0  0  0  0  0  0  0  0  0  0  0  0
   49.8800   28.3360   48.9840 C   0  0  0  0  0  0  0  0  0  0  0  0
   49.7160   29.5960   49.7990 C   0  0  0  0  0  0  0  0  0  0  0  0
   49.1640   30.7150   48.9110 C   0  0  2  0  0  0  0  0  0  0  0  0
   45.8570   33.1240   46.3410 C   0  0  0  0  0  0  0  0  0  0  0  0
   45.2720   32.9520   47.6060 C   0  0  0  0  0  0  0  0  0  0  0  0
   45.8040   32.0330   48.4290 C   0  0  0  0  0  0  0  0  0  0  0  0
   46.9160   31.2740   48.0150 C   0  0  0  0  0  0  0  0  0  0  0  0
   47.2320   31.9130   46.3310 S   0  0  0  0  0  0  0  0  0  0  0  0
   44.3640   36.0020   44.5080 C   0  0  0  0  0  0  0  0  0  0  0  0
   44.6500   35.6050   43.1770 C   0  0  0  0  0  0  0  0  0  0  0  0
   45.3330   34.3840   42.9680 C   0  0  0  0  0  0  0  0  0  0  0  0
   45.6780   33.6570   44.0690 N   0  0  0  0  0  0  0  0  0  0  0  0
   45.3820   34.0840   45.3320 C   0  0  0  0  0  0  0  0  0  0  0  0
   44.7290   35.2490   45.5490 N   0  0  0  0  0  0  0  0  0  0  0  0
   49.1340   31.9090   49.5870 O   0  0  0  0  0  0  0  0  0  0  0  0
   47.2006   29.9371   49.4692 H   0  0  0  0  0  0  0  0  0  0  0  0
   47.1584   28.2788   48.0186 H   0  0  0  0  0  0  0  0  0  0  0  0
   47.6550   29.4012   46.6477 H   0  0  0  0  0  0  0  0  0  0  0  0
   49.1420   27.4176   47.2009 H   0  0  0  0  0  0  0  0  0  0  0  0
   49.8607   29.0799   46.9966 H   0  0  0  0  0  0  0  0  0  0  0  0
   49.4241   27.4996   49.5341 H   0  0  0  0  0  0  0  0  0  0  0  0
   50.9576   28.1811   48.8263 H   0  0  0  0  0  0  0  0  0  0  0  0
   49.0171   29.4077   50.6273 H   0  0  0  0  0  0  0  0  0  0  0  0
   50.6932   29.8991   50.2030 H   0  0  0  0  0  0  0  0  0  0  0  0
   49.7817   30.8970   48.0192 H   0  0  0  0  0  0  0  0  0  0  0  0
   44.4033   33.5524   47.9141 H   0  0  0  0  0  0  0  0  0  0  0  0
   45.3707   31.8731   49.4273 H   0  0  0  0  0  0  0  0  0  0  0  0
   43.8316   36.9479   44.6865 H   0  0  0  0  0  0  0  0  0  0  0  0
   44.3474   36.2327   42.3258 H   0  0  0  0  0  0  0  0  0  0  0  0
   45.5770   34.0337   41.9542 H   0  0  0  0  0  0  0  0  0  0  0  0
   49.1383   31.7365   50.5618 H   0  0  0  0  0  0  0  0  0  0  0  0
  1  6  1  0
  2  1  1  0
  3  2  1  0
  3  4  1  0
  4  5  1  0
  6 18  1  0
  6  5  1  0
  7  8  2  0
  8  9  1  0
 10  9  2  0
 10  1  1  0
 11  7  1  0
 11 10  1  0
 12 17  2  0
 13 12  1  0
 14 13  2  0
 14 15  1  0
 15 16  2  0
 16 17  1  0
 16  7  1  0
  1 19  1  1
  2 20  1  0
  2 21  1  0
  3 22  1  0
  3 23  1  0
  4 24  1  0
  4 25  1  0
  5 26  1  0
  5 27  1  0
  6 28  1  6
  8 29  1  0
  9 30  1  0
 12 31  1  0
 13 32  1  0
 14 33  1  0
 18 34  1  0
M  ISO  8  19  13  20  13  21  13  22  13  23  13  24  13  25  13  26  13
M  ISO  8  27  13  28  13  29  14  30  14  31  14  32  14  33  14  34   3
M  END
>  <minimizedAffinity>  (1) 
-4.92368746

>  <minimizedRMSD>  (1) 
0.531765938

$$$$
