
     RDKit          3D

 36 38  0  0  1  0  0  0  0  0999 V2000
   47.6760   29.3980   47.7830 C   0  0  1  0  0  0  0  0  0  0  0  0
   47.6540   28.4020   46.6630 C   0  0  0  0  0  0  0  0  0  0  0  0
   48.9490   27.6860   46.4290 C   0  0  0  0  0  0  0  0  0  0  0  0
   49.6170   27.2530   47.7200 C   0  0  0  0  0  0  0  0  0  0  0  0
   49.6150   28.3410   48.7740 C   0  0  0  0  0  0  0  0  0  0  0  0
   49.1540   29.6520   48.1290 C   0  0  2  0  0  0  0  0  0  0  0  0
   46.0180   32.8120   46.2290 C   0  0  0  0  0  0  0  0  0  0  0  0
   45.5620   32.5250   47.5120 C   0  0  0  0  0  0  0  0  0  0  0  0
   46.0370   31.4330   48.1170 C   0  0  0  0  0  0  0  0  0  0  0  0
   46.9640   30.6070   47.4760 C   0  0  0  0  0  0  0  0  0  0  0  0
   47.1800   31.4450   45.8880 S   0  0  0  0  0  0  0  0  0  0  0  0
   44.4670   35.9300   44.9130 C   0  0  0  0  0  0  0  0  0  0  0  0
   45.0510   35.9800   43.6280 C   0  0  0  0  0  0  0  0  0  0  0  0
   45.9510   34.9400   43.2730 C   0  0  0  0  0  0  0  0  0  0  0  0
   46.1860   33.9710   44.1950 N   0  0  0  0  0  0  0  0  0  0  0  0
   45.6040   33.9690   45.4040 C   0  0  0  0  0  0  0  0  0  0  0  0
   44.7390   34.9500   45.7730 N   0  0  0  0  0  0  0  0  0  0  0  0
   49.1920   30.7040   49.1930 C   0  0  0  0  0  0  0  0  0  0  0  0
   49.1140   30.4670   50.4090 O   0  0  0  0  0  0  0  0  0  0  0  0
   49.3210   32.0600   48.9090 O   0  0  0  0  0  0  0  0  0  0  0  0
   47.1428   28.9923   48.6554 H   0  0  0  0  0  0  0  0  0  0  0  0
   46.8840   27.6499   46.8899 H   0  0  0  0  0  0  0  0  0  0  0  0
   47.4480   28.9738   45.7462 H   0  0  0  0  0  0  0  0  0  0  0  0
   48.7525   26.7932   45.8172 H   0  0  0  0  0  0  0  0  0  0  0  0
   49.6290   28.3848   45.9198 H   0  0  0  0  0  0  0  0  0  0  0  0
   49.0815   26.3779   48.1168 H   0  0  0  0  0  0  0  0  0  0  0  0
   50.6662   27.0177   47.4880 H   0  0  0  0  0  0  0  0  0  0  0  0
   48.9267   28.0669   49.5871 H   0  0  0  0  0  0  0  0  0  0  0  0
   50.6271   28.4632   49.1871 H   0  0  0  0  0  0  0  0  0  0  0  0
   49.7597   29.9557   47.2625 H   0  0  0  0  0  0  0  0  0  0  0  0
   44.8322   33.1779   48.0130 H   0  0  0  0  0  0  0  0  0  0  0  0
   45.6945   31.1811   49.1315 H   0  0  0  0  0  0  0  0  0  0  0  0
   43.7669   36.7238   45.2124 H   0  0  0  0  0  0  0  0  0  0  0  0
   44.8173   36.7951   42.9273 H   0  0  0  0  0  0  0  0  0  0  0  0
   46.4396   34.9202   42.2877 H   0  0  0  0  0  0  0  0  0  0  0  0
   49.3415   32.7204   49.6463 H   0  0  0  0  0  0  0  0  0  0  0  0
  1  6  1  0
  2  1  1  0
  3  2  1  0
  3  4  1  0
  4  5  1  0
  6  5  1  0
  6 18  1  0
  7  8  2  0
  8  9  1  0
 10  1  1  0
 10  9  2  0
 11  7  1  0
 11 10  1  0
 12 17  2  0
 13 12  1  0
 14 13  2  0
 14 15  1  0
 15 16  2  0
 16 17  1  0
 16  7  1  0
 18 19  2  0
 20 18  1  0
  1 21  1  1
  2 22  1  0
  2 23  1  0
  3 24  1  0
  3 25  1  0
  4 26  1  0
  4 27  1  0
  5 28  1  0
  5 29  1  0
  6 30  1  6
  8 31  1  0
  9 32  1  0
 12 33  1  0
 13 34  1  0
 14 35  1  0
 20 36  1  0
M  ISO  8  21  13  22  13  23  13  24  13  25  13  26  13  27  13  28  13
M  ISO  8  29  13  30  13  31  14  32  14  33  14  34  14  35  14  36   3
M  END
>  <minimizedAffinity>  (1) 
-4.77988815

>  <minimizedRMSD>  (1) 
0.690016985

$$$$
