
     RDKit          3D

 41 44  0  0  1  0  0  0  0  0999 V2000
   47.6320   29.3210   47.3900 C   0  0  1  0  0  0  0  0  0  0  0  0
   47.6740   28.4150   46.1960 C   0  0  0  0  0  0  0  0  0  0  0  0
   48.9940   27.7190   45.9860 C   0  0  0  0  0  0  0  0  0  0  0  0
   49.5870   27.1710   47.2490 C   0  0  0  0  0  0  0  0  0  0  0  0
   49.4630   28.1180   48.4150 C   0  0  0  0  0  0  0  0  0  0  0  0
   49.0650   29.5090   47.9010 C   0  0  2  0  0  0  0  0  0  0  0  0
   46.0540   32.8110   45.9610 C   0  0  0  0  0  0  0  0  0  0  0  0
   45.6900   32.5720   47.2820 C   0  0  0  0  0  0  0  0  0  0  0  0
   46.1630   31.4410   47.8500 C   0  0  0  0  0  0  0  0  0  0  0  0
   46.9830   30.5590   47.1250 C   0  0  0  0  0  0  0  0  0  0  0  0
   47.1100   31.3680   45.5020 S   0  0  0  0  0  0  0  0  0  0  0  0
   44.5540   36.0040   44.7490 C   0  0  0  0  0  0  0  0  0  0  0  0
   45.1480   36.0890   43.4910 C   0  0  0  0  0  0  0  0  0  0  0  0
   46.0240   35.0740   43.0940 C   0  0  0  0  0  0  0  0  0  0  0  0
   46.2460   34.0480   43.9760 N   0  0  0  0  0  0  0  0  0  0  0  0
   45.6570   33.9980   45.1790 C   0  0  0  0  0  0  0  0  0  0  0  0
   44.8040   34.9880   45.5630 N   0  0  0  0  0  0  0  0  0  0  0  0
   49.1320   30.4870   48.9810 C   0  0  0  0  0  0  0  0  0  0  0  0
   48.1830   30.6180   49.7860 O   0  0  0  0  0  0  0  0  0  0  0  0
   50.1420   31.4360   49.3930 C   0  0  0  0  0  0  0  0  0  0  0  0
   51.5460   30.8560   49.0260 C   0  0  0  0  0  0  0  0  0  0  0  0
   52.6680   32.1170   49.5500 S   0  0  0  0  0  0  0  0  0  0  0  0
   51.3060   33.2520   50.1770 C   0  0  0  0  0  0  0  0  0  0  0  0
   50.5280   32.5440   49.8920 N   0  0  0  0  0  0  0  0  0  0  0  0
   47.0200   28.8516   48.1743 H   0  0  0  0  0  0  0  0  0  0  0  0
   46.8964   27.6469   46.3200 H   0  0  0  0  0  0  0  0  0  0  0  0
   47.5123   29.0521   45.3140 H   0  0  0  0  0  0  0  0  0  0  0  0
   48.8412   26.8868   45.2831 H   0  0  0  0  0  0  0  0  0  0  0  0
   49.6977   28.4693   45.5964 H   0  0  0  0  0  0  0  0  0  0  0  0
   49.0696   26.2337   47.5017 H   0  0  0  0  0  0  0  0  0  0  0  0
   50.6599   27.0105   47.0671 H   0  0  0  0  0  0  0  0  0  0  0  0
   48.6928   27.7484   49.1079 H   0  0  0  0  0  0  0  0  0  0  0  0
   50.4270   28.1822   48.9409 H   0  0  0  0  0  0  0  0  0  0  0  0
   49.7330   29.8889   47.1139 H   0  0  0  0  0  0  0  0  0  0  0  0
   45.0475   33.2707   47.8379 H   0  0  0  0  0  0  0  0  0  0  0  0
   45.9031   31.2074   48.8930 H   0  0  0  0  0  0  0  0  0  0  0  0
   43.8634   36.7965   45.0731 H   0  0  0  0  0  0  0  0  0  0  0  0
   44.9322   36.9369   42.8243 H   0  0  0  0  0  0  0  0  0  0  0  0
   46.5166   35.0978   42.1108 H   0  0  0  0  0  0  0  0  0  0  0  0
   51.7805   29.8909   48.5532 H   0  0  0  0  0  0  0  0  0  0  0  0
   51.2978   34.2457   50.6487 H   0  0  0  0  0  0  0  0  0  0  0  0
  1  6  1  0
  2  1  1  0
  3  2  1  0
  3  4  1  0
  4  5  1  0
  6  5  1  0
  6 18  1  0
  7  8  2  0
  8  9  1  0
 10  1  1  0
 10  9  2  0
 11  7  1  0
 11 10  1  0
 12 17  2  0
 13 12  1  0
 14 13  2  0
 14 15  1  0
 15 16  2  0
 16 17  1  0
 16  7  1  0
 18 20  1  0
 18 19  2  0
 20 24  1  0
 21 20  2  0
 21 22  1  0
 22 23  1  0
 24 23  2  0
  1 25  1  1
  2 26  1  0
  2 27  1  0
  3 28  1  0
  3 29  1  0
  4 30  1  0
  4 31  1  0
  5 32  1  0
  5 33  1  0
  6 34  1  6
  8 35  1  0
  9 36  1  0
 12 37  1  0
 13 38  1  0
 14 39  1  0
 21 40  1  0
 23 41  1  0
M  ISO  8  25  13  26  13  27  13  28  13  29  13  30  13  31  13  32  13
M  ISO  8  33  13  34  13  35  14  36  14  37  14  38  14  39  14  40  14
M  ISO  1  41  14
M  END
>  <minimizedAffinity>  (1) 
-5.43710947

>  <minimizedRMSD>  (1) 
1.9425863

$$$$
