
     RDKit          3D

 30 32  0  0  1  0  0  0  0  0999 V2000
   45.6140   34.3870   44.8850 C   0  0  0  0  0  0  0  0  0  0  0  0
   46.4260   34.3410   43.7100 C   0  0  0  0  0  0  0  0  0  0  0  0
   47.3060   33.2800   43.6640 C   0  0  0  0  0  0  0  0  0  0  0  0
   47.3520   32.3630   44.7000 N   0  0  0  0  0  0  0  0  0  0  0  0
   46.5750   32.4370   45.7850 C   0  0  0  0  0  0  0  0  0  0  0  0
   45.6920   33.4680   45.8750 N   0  0  0  0  0  0  0  0  0  0  0  0
   48.1390   33.0970   42.4270 C   0  0  0  0  0  0  0  0  0  0  0  0
   49.5090   33.7920   42.5880 C   0  0  0  0  0  0  0  0  0  0  0  0
   49.3050   32.2520   42.5190 C   0  0  0  0  0  0  0  0  0  0  0  0
   44.8620   36.1620   42.9550 C   0  0  1  0  0  0  0  0  0  0  0  0
   46.1510   35.3980   42.7810 C   0  0  2  0  0  0  0  0  0  0  0  0
   45.7840   34.8080   41.5340 O   0  0  0  0  0  0  0  0  0  0  0  0
   44.5200   34.2470   41.7290 C   0  0  0  0  0  0  0  0  0  0  0  0
   43.8630   35.0690   42.8500 C   0  0  2  0  0  0  0  0  0  0  0  0
   44.7860   37.0370   43.9610 O   0  0  0  0  0  0  0  0  0  0  0  0
   42.6080   35.5520   42.4290 O   0  0  0  0  0  0  0  0  0  0  0  0
   44.8907   35.2091   44.9897 H   0  0  0  0  0  0  0  0  0  0  0  0
   46.6476   31.6843   46.5839 H   0  0  0  0  0  0  0  0  0  0  0  0
   47.3088   33.1071   41.7055 H   0  0  0  0  0  0  0  0  0  0  0  0
   49.9651   34.3368   41.7482 H   0  0  0  0  0  0  0  0  0  0  0  0
   49.9683   34.5112   43.2821 H   0  0  0  0  0  0  0  0  0  0  0  0
   49.4649   31.6405   43.4193 H   0  0  0  0  0  0  0  0  0  0  0  0
   49.7225   31.4508   41.8914 H   0  0  0  0  0  0  0  0  0  0  0  0
   44.6961   36.9443   42.1997 H   0  0  0  0  0  0  0  0  0  0  0  0
   47.0478   36.0259   42.8885 H   0  0  0  0  0  0  0  0  0  0  0  0
   43.9250   34.3141   40.8062 H   0  0  0  0  0  0  0  0  0  0  0  0
   44.5874   33.1819   41.9954 H   0  0  0  0  0  0  0  0  0  0  0  0
   43.6573   34.5347   43.7893 H   0  0  0  0  0  0  0  0  0  0  0  0
   44.8281   36.5527   44.8234 H   0  0  0  0  0  0  0  0  0  0  0  0
   42.0538   35.7653   43.2212 H   0  0  0  0  0  0  0  0  0  0  0  0
  1  6  2  0
  2  1  1  0
  3  2  2  0
  3  4  1  0
  4  5  2  0
  5  6  1  0
  7  9  1  0
  7  8  1  0
  7  3  1  0
  9  8  1  0
 10 15  1  0
 11 10  1  0
 11  2  1  0
 12 13  1  0
 12 11  1  0
 13 14  1  0
 14 16  1  0
 14 10  1  0
  1 17  1  0
  5 18  1  0
  7 19  1  0
  8 20  1  0
  8 21  1  0
  9 22  1  0
  9 23  1  0
 10 24  1  6
 11 25  1  6
 13 26  1  0
 13 27  1  0
 14 28  1  1
 15 29  1  0
 16 30  1  0
M  ISO  8  17  14  18  14  19  13  20  13  21  13  22  13  23  13  24  13
M  ISO  6  25  13  26  13  27  13  28  13  29   3  30   3
M  END
>  <minimizedAffinity>  (1) 
-4.90454102

>  <minimizedRMSD>  (1) 
2.06256318

$$$$
