
     RDKit          3D

 33 35  0  0  0  0  0  0  0  0999 V2000
   47.6520   31.9250   43.7190 C   0  0  0  0  0  0  0  0  0  0  0  0
   47.4320   33.2420   43.2730 C   0  0  0  0  0  0  0  0  0  0  0  0
   48.1560   33.6010   42.1510 C   0  0  0  0  0  0  0  0  0  0  0  0
   49.0120   32.6940   41.5570 N   0  0  0  0  0  0  0  0  0  0  0  0
   49.1880   31.4450   42.0200 C   0  0  0  0  0  0  0  0  0  0  0  0
   48.4900   31.0690   43.1200 N   0  0  0  0  0  0  0  0  0  0  0  0
   47.9290   34.9640   41.5390 C   0  0  0  0  0  0  0  0  0  0  0  0
   49.1750   35.8440   41.7220 C   0  0  0  0  0  0  0  0  0  0  0  0
   48.6650   35.3110   40.3480 C   0  0  0  0  0  0  0  0  0  0  0  0
   46.5150   34.1160   43.9700 C   0  0  0  0  0  0  0  0  0  0  0  0
   45.1580   34.1010   43.2930 C   0  0  0  0  0  0  0  0  0  0  0  0
   44.5380   35.4530   43.5760 C   0  0  0  0  0  0  0  0  0  0  0  0
   44.5810   35.6750   45.0650 C   0  0  0  0  0  0  0  0  0  0  0  0
   44.9230   34.4360   45.8530 C   0  0  0  0  0  0  0  0  0  0  0  0
   46.2590   33.8420   45.4140 C   0  0  0  0  0  0  0  0  0  0  0  0
   47.1053   31.5798   44.6089 H   0  0  0  0  0  0  0  0  0  0  0  0
   49.8779   30.7482   41.5215 H   0  0  0  0  0  0  0  0  0  0  0  0
   46.8533   35.0287   41.7595 H   0  0  0  0  0  0  0  0  0  0  0  0
   49.0780   36.9082   41.9830 H   0  0  0  0  0  0  0  0  0  0  0  0
   50.1084   35.8038   42.3027 H   0  0  0  0  0  0  0  0  0  0  0  0
   49.2381   34.5377   39.8155 H   0  0  0  0  0  0  0  0  0  0  0  0
   48.4004   35.7825   39.3901 H   0  0  0  0  0  0  0  0  0  0  0  0
   47.0383   35.0824   43.9222 H   0  0  0  0  0  0  0  0  0  0  0  0
   44.5317   33.2982   43.7092 H   0  0  0  0  0  0  0  0  0  0  0  0
   45.2479   33.9162   42.2124 H   0  0  0  0  0  0  0  0  0  0  0  0
   45.1086   36.2413   43.0632 H   0  0  0  0  0  0  0  0  0  0  0  0
   43.5004   35.4843   43.2121 H   0  0  0  0  0  0  0  0  0  0  0  0
   45.3384   36.4432   45.2798 H   0  0  0  0  0  0  0  0  0  0  0  0
   43.5711   35.9834   45.3733 H   0  0  0  0  0  0  0  0  0  0  0  0
   44.9815   34.6964   46.9201 H   0  0  0  0  0  0  0  0  0  0  0  0
   44.1378   33.6867   45.6740 H   0  0  0  0  0  0  0  0  0  0  0  0
   46.2401   32.7542   45.5763 H   0  0  0  0  0  0  0  0  0  0  0  0
   47.0613   34.3052   46.0071 H   0  0  0  0  0  0  0  0  0  0  0  0
  2  1  2  0
  2 10  1  0
  3  2  1  0
  4  5  1  0
  4  3  2  0
  5  6  2  0
  6  1  1  0
  7  8  1  0
  7  3  1  0
  9  7  1  0
  9  8  1  0
 10 15  1  0
 11 12  1  0
 11 10  1  0
 12 13  1  0
 13 14  1  0
 15 14  1  0
  1 16  1  0
  5 17  1  0
  7 18  1  0
  8 19  1  0
  8 20  1  0
  9 21  1  0
  9 22  1  0
 10 23  1  0
 11 24  1  0
 11 25  1  0
 12 26  1  0
 12 27  1  0
 13 28  1  0
 13 29  1  0
 14 30  1  0
 14 31  1  0
 15 32  1  0
 15 33  1  0
M  ISO  8  16  14  17  14  18  13  19  13  20  13  21  13  22  13  23  13
M  ISO  8  24  13  25  13  26  13  27  13  28  13  29  13  30  13  31  13
M  ISO  2  32  13  33  13
M  END
>  <minimizedAffinity>  (1) 
-4.6985116

>  <minimizedRMSD>  (1) 
4.28194427

$$$$
