
     RDKit          3D

 33 36  0  0  0  0  0  0  0  0999 V2000
   43.6470   35.1570   42.3420 C   0  0  0  0  0  0  0  0  0  0  0  0
   43.1600   34.6200   41.1480 C   0  0  0  0  0  0  0  0  0  0  0  0
   44.2340   34.1470   40.3920 C   0  0  0  0  0  0  0  0  0  0  0  0
   45.5550   34.2310   40.8300 N   0  0  0  0  0  0  0  0  0  0  0  0
   45.8950   34.7690   42.0010 C   0  0  0  0  0  0  0  0  0  0  0  0
   44.9040   35.2440   42.7720 N   0  0  0  0  0  0  0  0  0  0  0  0
   41.8030   34.5570   40.7520 C   0  0  0  0  0  0  0  0  0  0  0  0
   41.1470   35.5490   40.0530 C   0  0  0  0  0  0  0  0  0  0  0  0
   39.8280   35.5210   39.6530 C   0  0  0  0  0  0  0  0  0  0  0  0
   39.1420   34.3620   40.0120 C   0  0  0  0  0  0  0  0  0  0  0  0
   39.7220   33.3070   40.7180 C   0  0  0  0  0  0  0  0  0  0  0  0
   38.9650   32.1970   41.0310 C   0  0  0  0  0  0  0  0  0  0  0  0
   39.5540   31.1480   41.7380 C   0  0  0  0  0  0  0  0  0  0  0  0
   40.8790   31.2900   42.0840 C   0  0  0  0  0  0  0  0  0  0  0  0
   41.6540   32.3850   41.7830 C   0  0  0  0  0  0  0  0  0  0  0  0
   41.0520   33.4170   41.0820 C   0  0  0  0  0  0  0  0  0  0  0  0
   43.9360   33.4430   39.1030 C   0  0  0  0  0  0  0  0  0  0  0  0
   45.1850   32.9570   38.4040 C   0  0  0  0  0  0  0  0  0  0  0  0
   44.1330   32.0290   39.0340 C   0  0  0  0  0  0  0  0  0  0  0  0
   42.8851   35.5652   43.0224 H   0  0  0  0  0  0  0  0  0  0  0  0
   46.9455   34.8217   42.3228 H   0  0  0  0  0  0  0  0  0  0  0  0
   41.7297   36.4444   39.7908 H   0  0  0  0  0  0  0  0  0  0  0  0
   39.3563   36.3446   39.0969 H   0  0  0  0  0  0  0  0  0  0  0  0
   38.0844   34.2739   39.7227 H   0  0  0  0  0  0  0  0  0  0  0  0
   37.9095   32.1395   40.7268 H   0  0  0  0  0  0  0  0  0  0  0  0
   38.9842   30.2464   42.0073 H   0  0  0  0  0  0  0  0  0  0  0  0
   41.3517   30.4680   42.6415 H   0  0  0  0  0  0  0  0  0  0  0  0
   42.7098   32.4394   42.0867 H   0  0  0  0  0  0  0  0  0  0  0  0
   43.0700   34.0693   38.8428 H   0  0  0  0  0  0  0  0  0  0  0  0
   46.1735   33.0824   38.8700 H   0  0  0  0  0  0  0  0  0  0  0  0
   45.6514   33.0851   37.4161 H   0  0  0  0  0  0  0  0  0  0  0  0
   43.4860   31.4176   38.3878 H   0  0  0  0  0  0  0  0  0  0  0  0
   44.1658   31.2178   39.7763 H   0  0  0  0  0  0  0  0  0  0  0  0
  1  6  2  0
  2  1  1  0
  3  4  1  0
  3  2  2  0
  4  5  2  0
  5  6  1  0
  7 16  1  0
  7  2  1  0
  8  7  2  0
  9 10  2  0
  9  8  1  0
 10 11  1  0
 11 12  1  0
 11 16  2  0
 12 13  2  0
 13 14  1  0
 15 14  2  0
 16 15  1  0
 17  3  1  0
 18 19  1  0
 18 17  1  0
 19 17  1  0
  1 20  1  0
  5 21  1  0
  8 22  1  0
  9 23  1  0
 10 24  1  0
 12 25  1  0
 13 26  1  0
 14 27  1  0
 15 28  1  0
 17 29  1  0
 18 30  1  0
 18 31  1  0
 19 32  1  0
 19 33  1  0
M  ISO  8  20  14  21  14  22  14  23  14  24  14  25  14  26  14  27  14
M  ISO  6  28  14  29  13  30  13  31  13  32  13  33  13
M  END
>  <minimizedAffinity>  (1) 
-4.89611673

>  <minimizedRMSD>  (1) 
4.88756371

$$$$
