
     RDKit          3D

 20 21  0  0  0  0  0  0  0  0999 V2000
   45.3530   34.2520   44.6740 C   0  0  0  0  0  0  0  0  0  0  0  0
   45.7970   34.9970   43.5490 C   0  0  0  0  0  0  0  0  0  0  0  0
   46.9820   34.5330   43.0000 C   0  0  0  0  0  0  0  0  0  0  0  0
   47.6680   33.4440   43.5020 N   0  0  0  0  0  0  0  0  0  0  0  0
   47.1810   32.7830   44.5770 C   0  0  0  0  0  0  0  0  0  0  0  0
   46.0250   33.1900   45.1600 N   0  0  0  0  0  0  0  0  0  0  0  0
   47.4480   35.2240   41.7330 C   0  0  0  0  0  0  0  0  0  0  0  0
   48.9500   35.5400   41.8200 C   0  0  0  0  0  0  0  0  0  0  0  0
   48.3230   34.4880   40.8620 C   0  0  0  0  0  0  0  0  0  0  0  0
   45.0650   36.1640   43.0070 C   0  0  0  0  0  0  0  0  0  0  0  0
   44.4194   34.5554   45.1703 H   0  0  0  0  0  0  0  0  0  0  0  0
   47.7227   31.9143   44.9793 H   0  0  0  0  0  0  0  0  0  0  0  0
   46.5201   35.7771   41.5254 H   0  0  0  0  0  0  0  0  0  0  0  0
   49.3486   36.4883   41.4304 H   0  0  0  0  0  0  0  0  0  0  0  0
   49.7243   35.5552   42.6012 H   0  0  0  0  0  0  0  0  0  0  0  0
   48.4954   33.4164   41.0409 H   0  0  0  0  0  0  0  0  0  0  0  0
   48.3613   34.3197   39.7756 H   0  0  0  0  0  0  0  0  0  0  0  0
   44.6819   36.7747   43.8378 H   0  0  0  0  0  0  0  0  0  0  0  0
   45.7454   36.7695   42.3902 H   0  0  0  0  0  0  0  0  0  0  0  0
   44.2237   35.8150   42.3902 H   0  0  0  0  0  0  0  0  0  0  0  0
  1  6  2  0
  2  1  1  0
  3  4  1  0
  3  2  2  0
  4  5  2  0
  5  6  1  0
  7  8  1  0
  7  3  1  0
  9  7  1  0
  9  8  1  0
 10  2  1  0
  1 11  1  0
  5 12  1  0
  7 13  1  0
  8 14  1  0
  8 15  1  0
  9 16  1  0
  9 17  1  0
 10 18  1  0
 10 19  1  0
 10 20  1  0
M  ISO  8  11  14  12  14  13  13  14  13  15  13  16  13  17  13  18   8
M  ISO  2  19   8  20   8
M  END
>  <minimizedAffinity>  (1) 
-3.79317546

>  <minimizedRMSD>  (1) 
1.39823008

$$$$
