
     RDKit          3D

 18 19  0  0  0  0  0  0  0  0999 V2000
   44.5670   35.5650   45.0890 C   0  0  0  0  0  0  0  0  0  0  0  0
   45.0760   35.7860   43.7730 C   0  0  0  0  0  0  0  0  0  0  0  0
   46.0230   34.8610   43.3590 C   0  0  0  0  0  0  0  0  0  0  0  0
   46.4270   33.8180   44.1750 N   0  0  0  0  0  0  0  0  0  0  0  0
   45.9090   33.6680   45.3980 C   0  0  0  0  0  0  0  0  0  0  0  0
   44.9780   34.5380   45.8650 N   0  0  0  0  0  0  0  0  0  0  0  0
   46.5220   35.0020   41.9350 C   0  0  0  0  0  0  0  0  0  0  0  0
   48.0300   35.2810   41.9200 C   0  0  0  0  0  0  0  0  0  0  0  0
   47.3830   33.9530   41.4400 C   0  0  0  0  0  0  0  0  0  0  0  0
   44.6480   36.8400   42.9860 O   0  0  0  0  0  0  0  0  0  0  0  0
   43.8108   36.2580   45.4864 H   0  0  0  0  0  0  0  0  0  0  0  0
   46.2402   32.8320   46.0316 H   0  0  0  0  0  0  0  0  0  0  0  0
   45.6180   35.4629   41.5103 H   0  0  0  0  0  0  0  0  0  0  0  0
   48.4628   35.9880   41.1969 H   0  0  0  0  0  0  0  0  0  0  0  0
   48.7969   35.5814   42.6491 H   0  0  0  0  0  0  0  0  0  0  0  0
   47.3792   33.7034   40.3687 H   0  0  0  0  0  0  0  0  0  0  0  0
   47.5264   32.8920   41.6924 H   0  0  0  0  0  0  0  0  0  0  0  0
   45.0223   36.9635   42.0778 H   0  0  0  0  0  0  0  0  0  0  0  0
  1  6  2  0
  2  1  1  0
  3  2  2  0
  3  4  1  0
  4  5  2  0
  5  6  1  0
  7  3  1  0
  8  7  1  0
  9  8  1  0
  9  7  1  0
 10  2  1  0
  1 11  1  0
  5 12  1  0
  7 13  1  0
  8 14  1  0
  8 15  1  0
  9 16  1  0
  9 17  1  0
 10 18  1  0
M  ISO  8  11  14  12  14  13  13  14  13  15  13  16  13  17  13  18   3
M  END
>  <minimizedAffinity>  (1) 
-3.98067045

>  <minimizedRMSD>  (1) 
0.690071106

$$$$
