
     RDKit          3D

 21 22  0  0  0  0  0  0  0  0999 V2000
   44.7240   35.0240   44.7320 C   0  0  0  0  0  0  0  0  0  0  0  0
   45.2290   35.2680   43.4140 C   0  0  0  0  0  0  0  0  0  0  0  0
   46.4100   34.5970   43.1180 C   0  0  0  0  0  0  0  0  0  0  0  0
   47.0260   33.7660   44.0430 N   0  0  0  0  0  0  0  0  0  0  0  0
   46.5060   33.5800   45.2530 C   0  0  0  0  0  0  0  0  0  0  0  0
   45.3560   34.2070   45.6030 N   0  0  0  0  0  0  0  0  0  0  0  0
   46.9390   34.7490   41.7080 C   0  0  0  0  0  0  0  0  0  0  0  0
   48.3100   35.4450   41.7260 C   0  0  0  0  0  0  0  0  0  0  0  0
   48.0910   33.9520   41.3560 C   0  0  0  0  0  0  0  0  0  0  0  0
   43.5590   35.7980   41.5800 C   0  0  0  0  0  0  0  0  0  0  0  0
   43.1110   34.6220   41.5080 O   0  0  0  0  0  0  0  0  0  0  0  0
   44.5840   36.1100   42.5030 N   0  0  0  0  0  0  0  0  0  0  0  0
   43.7920   35.5174   45.0450 H   0  0  0  0  0  0  0  0  0  0  0  0
   47.0099   32.9163   45.9710 H   0  0  0  0  0  0  0  0  0  0  0  0
   45.9723   34.8930   41.2032 H   0  0  0  0  0  0  0  0  0  0  0  0
   48.5759   36.1817   40.9537 H   0  0  0  0  0  0  0  0  0  0  0  0
   48.9125   36.0116   42.4512 H   0  0  0  0  0  0  0  0  0  0  0  0
   48.4387   33.1638   42.0400 H   0  0  0  0  0  0  0  0  0  0  0  0
   48.3580   33.3277   40.4906 H   0  0  0  0  0  0  0  0  0  0  0  0
   43.1524   36.5821   40.9244 H   0  0  0  0  0  0  0  0  0  0  0  0
   44.8981   37.0909   42.5043 H   0  0  0  0  0  0  0  0  0  0  0  0
  1  6  2  0
  2  1  1  0
  3  2  2  0
  3  4  1  0
  4  5  2  0
  5  6  1  0
  7  8  1  0
  7  3  1  0
  9  7  1  0
  9  8  1  0
 10 12  1  0
 11 10  2  0
 12  2  1  0
  1 13  1  0
  5 14  1  0
  7 15  1  0
  8 16  1  0
  8 17  1  0
  9 18  1  0
  9 19  1  0
 10 20  1  0
 12 21  1  0
M  ISO  8  13  14  14  14  15  13  16  13  17  13  18  13  19  13  20   6
M  END
>  <minimizedAffinity>  (1) 
-3.86519194

>  <minimizedRMSD>  (1) 
1.15758026

$$$$
