
     RDKit          3D

 48 52  0  0  0  0  0  0  0  0999 V2000
   48.5480   33.0400   41.4720 C   0  0  0  0  0  0  0  0  0  0  0  0
   48.0850   34.2710   41.8530 C   0  0  0  0  0  0  0  0  0  0  0  0
   48.9420   35.1550   42.4420 C   0  0  0  0  0  0  0  0  0  0  0  0
   50.2700   34.7970   42.6490 C   0  0  0  0  0  0  0  0  0  0  0  0
   50.7010   33.5480   42.2530 C   0  0  0  0  0  0  0  0  0  0  0  0
   49.8370   32.6430   41.6520 C   0  0  0  0  0  0  0  0  0  0  0  0
   46.6680   34.5720   41.5990 C   0  0  0  0  0  0  0  0  0  0  0  0
   45.9490   34.8660   42.9010 C   0  0  0  0  0  0  0  0  0  0  0  0
   45.9730   33.8840   43.8920 C   0  0  0  0  0  0  0  0  0  0  0  0
   45.3100   34.1850   45.0640 C   0  0  0  0  0  0  0  0  0  0  0  0
   44.6940   35.3750   45.1880 N   0  0  0  0  0  0  0  0  0  0  0  0
   44.6920   36.3070   44.2030 C   0  0  0  0  0  0  0  0  0  0  0  0
   45.3210   36.0410   43.0690 N   0  0  0  0  0  0  0  0  0  0  0  0
   47.7390   32.0680   40.8600 O   0  0  0  0  0  0  0  0  0  0  0  0
   50.3820   31.4040   41.2920 O   0  0  0  0  0  0  0  0  0  0  0  0
   51.0090   31.3960   40.0500 C   0  0  0  0  0  0  0  0  0  0  0  0
   52.3820   31.2610   40.0090 C   0  0  0  0  0  0  0  0  0  0  0  0
   53.0940   31.2420   38.8030 C   0  0  0  0  0  0  0  0  0  0  0  0
   52.4270   31.3590   37.6590 N   0  0  0  0  0  0  0  0  0  0  0  0
   51.0880   31.4900   37.7010 C   0  0  0  0  0  0  0  0  0  0  0  0
   50.4040   31.5080   38.8530 N   0  0  0  0  0  0  0  0  0  0  0  0
   50.2980   31.6230   36.4590 C   0  0  0  0  0  0  0  0  0  0  0  0
   49.1470   32.3470   36.4380 C   0  0  0  0  0  0  0  0  0  0  0  0
   48.3450   32.5210   35.3080 C   0  0  0  0  0  0  0  0  0  0  0  0
   48.7630   31.9050   34.1280 C   0  0  0  0  0  0  0  0  0  0  0  0
   48.0560   32.0110   32.9720 N   0  0  0  0  0  0  0  0  0  0  0  0
   48.4710   31.4080   31.8350 C   0  0  0  0  0  0  0  0  0  0  0  0
   49.6270   30.6800   31.8570 C   0  0  0  0  0  0  0  0  0  0  0  0
   50.4240   30.5100   32.9860 C   0  0  0  0  0  0  0  0  0  0  0  0
   49.9270   31.1610   34.1150 C   0  0  0  0  0  0  0  0  0  0  0  0
   50.6790   31.0270   35.2710 C   0  0  0  0  0  0  0  0  0  0  0  0
   48.5835   36.1476   42.7521 H   0  0  0  0  0  0  0  0  0  0  0  0
   50.9687   35.5020   43.1232 H   0  0  0  0  0  0  0  0  0  0  0  0
   51.7508   33.2633   42.4168 H   0  0  0  0  0  0  0  0  0  0  0  0
   46.5963   35.4492   40.9392 H   0  0  0  0  0  0  0  0  0  0  0  0
   46.1980   33.7001   41.1206 H   0  0  0  0  0  0  0  0  0  0  0  0
   46.4910   32.9245   43.7471 H   0  0  0  0  0  0  0  0  0  0  0  0
   45.2852   33.4587   45.8897 H   0  0  0  0  0  0  0  0  0  0  0  0
   44.1762   37.2683   44.3440 H   0  0  0  0  0  0  0  0  0  0  0  0
   46.7835   32.2585   40.6842 H   0  0  0  0  0  0  0  0  0  0  0  0
   52.9354   31.1652   40.9548 H   0  0  0  0  0  0  0  0  0  0  0  0
   54.1885   31.1319   38.8024 H   0  0  0  0  0  0  0  0  0  0  0  0
   48.8262   32.8278   37.3739 H   0  0  0  0  0  0  0  0  0  0  0  0
   47.4224   33.1187   35.3467 H   0  0  0  0  0  0  0  0  0  0  0  0
   47.8873   31.5021   30.9074 H   0  0  0  0  0  0  0  0  0  0  0  0
   49.9488   30.1971   30.9225 H   0  0  0  0  0  0  0  0  0  0  0  0
   51.3530   29.9210   32.9874 H   0  0  0  0  0  0  0  0  0  0  0  0
   51.6031   30.4310   35.2429 H   0  0  0  0  0  0  0  0  0  0  0  0
  1  6  2  0
  1  2  1  0
  2  3  2  0
  3  4  1  0
  5  4  2  0
  6  5  1  0
  7  2  1  0
  7  8  1  0
  8 13  1  0
  8  9  2  0
  9 10  1  0
 10 11  2  0
 12 11  1  0
 13 12  2  0
 14  1  1  0
 15  6  1  0
 16 15  1  0
 17 16  2  0
 18 17  1  0
 19 20  1  0
 19 18  2  0
 20 21  2  0
 21 16  1  0
 22 20  1  0
 23 22  2  0
 24 23  1  0
 25 24  2  0
 26 25  1  0
 27 28  1  0
 27 26  2  0
 28 29  2  0
 29 30  1  0
 30 25  1  0
 30 31  2  0
 31 22  1  0
  3 32  1  0
  4 33  1  0
  5 34  1  0
  7 35  1  0
  7 36  1  0
  9 37  1  0
 10 38  1  0
 12 39  1  0
 14 40  1  0
 17 41  1  0
 18 42  1  0
 23 43  1  0
 24 44  1  0
 27 45  1  0
 28 46  1  0
 29 47  1  0
 31 48  1  0
M  ISO  8  32  14  33  14  34  14  35   8  36   8  37  14  38  14  39  14
M  ISO  8  40   3  41  14  42  14  43  14  44  14  45  14  46  14  47  14
M  ISO  1  48  14
M  END
>  <minimizedAffinity>  (1) 
-6.67295647

>  <minimizedRMSD>  (1) 
0.546783626

$$$$
