
     RDKit          3D

 30 32  0  0  1  0  0  0  0  0999 V2000
   46.5340   35.0770   41.9470 C   0  0  1  0  0  0  0  0  0  0  0  0
   48.0770   35.2090   41.9080 C   0  0  0  0  0  0  0  0  0  0  0  0
   47.2530   34.0480   41.2900 C   0  0  2  0  0  0  0  0  0  0  0  0
   44.6640   35.3790   45.1910 C   0  0  0  0  0  0  0  0  0  0  0  0
   45.1170   35.7000   43.8850 C   0  0  0  0  0  0  0  0  0  0  0  0
   46.0620   34.8530   43.3710 C   0  0  0  0  0  0  0  0  0  0  0  0
   46.5380   33.7690   44.0830 N   0  0  0  0  0  0  0  0  0  0  0  0
   46.0810   33.5030   45.3200 C   0  0  0  0  0  0  0  0  0  0  0  0
   45.1410   34.3090   45.8780 N   0  0  0  0  0  0  0  0  0  0  0  0
   44.6480   36.8350   43.1620 N   0  0  0  0  0  0  0  0  0  0  0  0
   46.3180   33.2360   39.1090 C   0  0  0  0  0  0  0  0  0  0  0  0
   47.2870   33.9320   39.8040 C   0  0  0  0  0  0  0  0  0  0  0  0
   48.3410   34.5570   39.1380 C   0  0  0  0  0  0  0  0  0  0  0  0
   48.4120   34.4740   37.7470 C   0  0  0  0  0  0  0  0  0  0  0  0
   47.4320   33.7720   37.0730 C   0  0  0  0  0  0  0  0  0  0  0  0
   46.3760   33.1440   37.7180 C   0  0  0  0  0  0  0  0  0  0  0  0
   44.3690   32.0790   40.3770 N   0  0  0  0  0  0  0  0  0  0  0  0
   45.2450   32.6010   39.8110 C   0  0  0  0  0  0  0  0  0  0  0  0
   45.6589   35.6559   41.6168 H   0  0  0  0  0  0  0  0  0  0  0  0
   48.5638   35.9595   41.2678 H   0  0  0  0  0  0  0  0  0  0  0  0
   48.8981   35.3233   42.6311 H   0  0  0  0  0  0  0  0  0  0  0  0
   47.2168   32.9537   41.3956 H   0  0  0  0  0  0  0  0  0  0  0  0
   43.9020   36.0174   45.6620 H   0  0  0  0  0  0  0  0  0  0  0  0
   46.4669   32.6365   45.8771 H   0  0  0  0  0  0  0  0  0  0  0  0
   45.0067   37.0271   42.2158 H   0  0  0  0  0  0  0  0  0  0  0  0
   43.9504   37.4632   43.5857 H   0  0  0  0  0  0  0  0  0  0  0  0
   49.1071   35.1087   39.7025 H   0  0  0  0  0  0  0  0  0  0  0  0
   49.2328   34.9584   37.1977 H   0  0  0  0  0  0  0  0  0  0  0  0
   47.4912   33.7079   35.9765 H   0  0  0  0  0  0  0  0  0  0  0  0
   45.6108   32.5925   37.1520 H   0  0  0  0  0  0  0  0  0  0  0  0
  1  6  1  0
  2  1  1  0
  3  2  1  0
  3  1  1  0
  4  9  2  0
  5  4  1  0
  6  5  2  0
  6  7  1  0
  7  8  2  0
  8  9  1  0
 10  5  1  0
 11 12  2  0
 11 18  1  0
 12  3  1  0
 13 12  1  0
 14 13  2  0
 15 16  2  0
 15 14  1  0
 16 11  1  0
 18 17  3  0
  1 19  1  6
  2 20  1  0
  2 21  1  0
  3 22  1  1
  4 23  1  0
  8 24  1  0
 10 25  1  0
 10 26  1  0
 13 27  1  0
 14 28  1  0
 15 29  1  0
 16 30  1  0
M  ISO  8  19  13  20  13  21  13  22  13  23  14  24  14  27  14  28  14
M  ISO  2  29  14  30  14
M  END
>  <minimizedAffinity>  (1) 
-5.42107964

>  <minimizedRMSD>  (1) 
0.937124133

$$$$
