
     RDKit          3D

 34 37  0  0  1  0  0  0  0  0999 V2000
   46.5310   34.9600   41.9580 C   0  0  1  0  0  0  0  0  0  0  0  0
   48.0410   35.3200   41.9670 C   0  0  0  0  0  0  0  0  0  0  0  0
   47.4260   33.9790   41.4620 C   0  0  2  0  0  0  0  0  0  0  0  0
   47.5600   33.6980   39.9950 C   0  0  0  0  0  0  0  0  0  0  0  0
   48.2910   34.6390   39.2740 C   0  0  0  0  0  0  0  0  0  0  0  0
   48.4650   34.4590   37.9100 C   0  0  0  0  0  0  0  0  0  0  0  0
   47.9130   33.3560   37.2890 C   0  0  0  0  0  0  0  0  0  0  0  0
   48.0570   33.1390   35.9530 N   0  0  0  0  0  0  0  0  0  0  0  0
   47.5110   32.0580   35.3690 C   0  0  0  0  0  0  0  0  0  0  0  0
   46.7810   31.1090   36.0550 C   0  0  0  0  0  0  0  0  0  0  0  0
   46.6550   31.3630   37.4170 C   0  0  0  0  0  0  0  0  0  0  0  0
   47.1980   32.4620   38.0660 C   0  0  0  0  0  0  0  0  0  0  0  0
   46.9900   32.5850   39.4260 C   0  0  0  0  0  0  0  0  0  0  0  0
   44.5890   35.5140   45.1220 C   0  0  0  0  0  0  0  0  0  0  0  0
   45.0800   35.7430   43.7940 C   0  0  0  0  0  0  0  0  0  0  0  0
   46.0150   34.8320   43.3730 C   0  0  0  0  0  0  0  0  0  0  0  0
   46.4450   33.7830   44.1770 N   0  0  0  0  0  0  0  0  0  0  0  0
   45.9460   33.6290   45.4060 C   0  0  0  0  0  0  0  0  0  0  0  0
   45.0150   34.4960   45.8830 N   0  0  0  0  0  0  0  0  0  0  0  0
   44.6520   36.8380   42.9890 N   0  0  0  0  0  0  0  0  0  0  0  0
   45.6033   35.3603   41.5231 H   0  0  0  0  0  0  0  0  0  0  0  0
   48.4510   36.0558   41.2595 H   0  0  0  0  0  0  0  0  0  0  0  0
   48.7933   35.6400   42.7030 H   0  0  0  0  0  0  0  0  0  0  0  0
   47.5415   32.9113   41.7002 H   0  0  0  0  0  0  0  0  0  0  0  0
   48.7249   35.5140   39.7801 H   0  0  0  0  0  0  0  0  0  0  0  0
   49.0403   35.1918   37.3252 H   0  0  0  0  0  0  0  0  0  0  0  0
   47.6538   31.9229   34.2867 H   0  0  0  0  0  0  0  0  0  0  0  0
   46.3374   30.2284   35.5674 H   0  0  0  0  0  0  0  0  0  0  0  0
   46.0850   30.6420   38.0214 H   0  0  0  0  0  0  0  0  0  0  0  0
   46.4137   31.8501   40.0073 H   0  0  0  0  0  0  0  0  0  0  0  0
   43.8335   36.2004   45.5320 H   0  0  0  0  0  0  0  0  0  0  0  0
   46.2906   32.7955   46.0357 H   0  0  0  0  0  0  0  0  0  0  0  0
   45.0342   36.9601   42.0404 H   0  0  0  0  0  0  0  0  0  0  0  0
   43.9604   37.5074   43.3557 H   0  0  0  0  0  0  0  0  0  0  0  0
  1  2  1  0
  1 16  1  0
  3  1  1  0
  3  2  1  0
  4  3  1  0
  5  4  2  0
  6  5  1  0
  7  6  2  0
  7 12  1  0
  8  7  1  0
  9  8  2  0
  9 10  1  0
 10 11  2  0
 11 12  1  0
 12 13  2  0
 13  4  1  0
 14 19  2  0
 15 14  1  0
 16 15  2  0
 16 17  1  0
 17 18  2  0
 18 19  1  0
 20 15  1  0
  1 21  1  6
  2 22  1  0
  2 23  1  0
  3 24  1  1
  5 25  1  0
  6 26  1  0
  9 27  1  0
 10 28  1  0
 11 29  1  0
 13 30  1  0
 14 31  1  0
 18 32  1  0
 20 33  1  0
 20 34  1  0
M  ISO  8  21  13  22  13  23  13  24  13  25  14  26  14  27  14  28  14
M  ISO  4  29  14  30  14  31  14  32  14
M  END
>  <minimizedAffinity>  (1) 
-5.85643339

>  <minimizedRMSD>  (1) 
0.500866771

$$$$
