
     RDKit          3D

 25 26  0  0  1  0  0  0  0  0999 V2000
   44.8210   35.1280   44.9920 C   0  0  0  0  0  0  0  0  0  0  0  0
   45.3030   35.5350   43.7080 C   0  0  0  0  0  0  0  0  0  0  0  0
   46.3520   34.7920   43.2340 C   0  0  0  0  0  0  0  0  0  0  0  0
   46.8990   33.7310   43.9510 N   0  0  0  0  0  0  0  0  0  0  0  0
   46.3990   33.4060   45.1450 C   0  0  0  0  0  0  0  0  0  0  0  0
   45.3570   34.1040   45.6710 N   0  0  0  0  0  0  0  0  0  0  0  0
   46.8630   35.0940   41.8440 C   0  0  1  0  0  0  0  0  0  0  0  0
   48.3550   35.5160   41.9050 C   0  0  0  0  0  0  0  0  0  0  0  0
   47.8010   34.2170   41.2470 C   0  0  2  0  0  0  0  0  0  0  0  0
   47.8580   34.1830   39.7260 C   0  0  0  0  0  0  0  0  0  0  0  0
   46.7380   33.3470   39.1860 C   0  0  0  0  0  0  0  0  0  0  0  0
   44.7660   36.6440   42.9970 N   0  0  0  0  0  0  0  0  0  0  0  0
   43.9786   35.6761   45.4391 H   0  0  0  0  0  0  0  0  0  0  0  0
   46.8332   32.5668   45.7082 H   0  0  0  0  0  0  0  0  0  0  0  0
   45.9183   35.4960   41.4492 H   0  0  0  0  0  0  0  0  0  0  0  0
   48.7339   36.3447   41.2888 H   0  0  0  0  0  0  0  0  0  0  0  0
   49.0908   35.7826   42.6780 H   0  0  0  0  0  0  0  0  0  0  0  0
   48.0034   33.1421   41.3636 H   0  0  0  0  0  0  0  0  0  0  0  0
   47.7678   35.2075   39.3358 H   0  0  0  0  0  0  0  0  0  0  0  0
   48.8170   33.7452   39.4119 H   0  0  0  0  0  0  0  0  0  0  0  0
   46.1644   32.9188   40.0212 H   0  0  0  0  0  0  0  0  0  0  0  0
   46.0764   33.9739   38.5702 H   0  0  0  0  0  0  0  0  0  0  0  0
   47.1509   32.5345   38.5702 H   0  0  0  0  0  0  0  0  0  0  0  0
   45.1474   36.8979   42.0745 H   0  0  0  0  0  0  0  0  0  0  0  0
   43.9958   37.1931   43.4047 H   0  0  0  0  0  0  0  0  0  0  0  0
  1  6  2  0
  2  1  1  0
  3  2  2  0
  3  4  1  0
  4  5  2  0
  5  6  1  0
  7  8  1  0
  7  3  1  0
  9  7  1  0
  9  8  1  0
 10  9  1  0
 11 10  1  0
 12  2  1  0
  1 13  1  0
  5 14  1  0
  7 15  1  6
  8 16  1  0
  8 17  1  0
  9 18  1  1
 10 19  1  0
 10 20  1  0
 11 21  1  0
 11 22  1  0
 11 23  1  0
 12 24  1  0
 12 25  1  0
M  ISO  8  13  14  14  14  15  13  16  13  17  13  18  13  19   8  20   8
M  ISO  3  21   8  22   8  23   8
M  END
>  <minimizedAffinity>  (1) 
-4.27550888

>  <minimizedRMSD>  (1) 
0.656501591

$$$$
