
     RDKit          3D

 35 37  0  0  1  0  0  0  0  0999 V2000
   46.5150   34.9140   41.9480 C   0  0  1  0  0  0  0  0  0  0  0  0
   48.0200   35.2880   41.9540 C   0  0  0  0  0  0  0  0  0  0  0  0
   47.4170   33.9250   41.4810 C   0  0  2  0  0  0  0  0  0  0  0  0
   44.5860   35.5300   45.1110 C   0  0  0  0  0  0  0  0  0  0  0  0
   45.0710   35.7380   43.7820 C   0  0  0  0  0  0  0  0  0  0  0  0
   46.0000   34.8190   43.3750 C   0  0  0  0  0  0  0  0  0  0  0  0
   46.4180   33.7890   44.1970 N   0  0  0  0  0  0  0  0  0  0  0  0
   45.9290   33.6440   45.4330 C   0  0  0  0  0  0  0  0  0  0  0  0
   45.0010   34.5270   45.8960 N   0  0  0  0  0  0  0  0  0  0  0  0
   44.6520   36.8210   42.9600 N   0  0  0  0  0  0  0  0  0  0  0  0
   47.6060   33.5660   40.0380 C   0  0  0  0  0  0  0  0  0  0  0  0
   46.2890   33.3550   39.3210 C   0  0  0  0  0  0  0  0  0  0  0  0
   46.4650   32.8160   37.9400 C   0  0  0  0  0  0  0  0  0  0  0  0
   47.8260   33.0970   37.3640 C   0  0  0  0  0  0  0  0  0  0  0  0
   48.2660   34.4720   37.8060 C   0  0  0  0  0  0  0  0  0  0  0  0
   48.3770   34.6160   39.3030 C   0  0  0  0  0  0  0  0  0  0  0  0
   45.5858   35.2943   41.4986 H   0  0  0  0  0  0  0  0  0  0  0  0
   48.4265   36.0085   41.2290 H   0  0  0  0  0  0  0  0  0  0  0  0
   48.7662   35.6343   42.6843 H   0  0  0  0  0  0  0  0  0  0  0  0
   47.5166   32.8619   41.7454 H   0  0  0  0  0  0  0  0  0  0  0  0
   43.8348   36.2283   45.5085 H   0  0  0  0  0  0  0  0  0  0  0  0
   46.2738   32.8173   46.0715 H   0  0  0  0  0  0  0  0  0  0  0  0
   45.0340   36.9235   42.0090 H   0  0  0  0  0  0  0  0  0  0  0  0
   43.9667   37.5026   43.3159 H   0  0  0  0  0  0  0  0  0  0  0  0
   48.1711   32.6223   40.0406 H   0  0  0  0  0  0  0  0  0  0  0  0
   45.6822   32.6445   39.9014 H   0  0  0  0  0  0  0  0  0  0  0  0
   45.7967   34.3349   39.2351 H   0  0  0  0  0  0  0  0  0  0  0  0
   46.3152   31.7266   37.9680 H   0  0  0  0  0  0  0  0  0  0  0  0
   45.7274   33.3177   37.2964 H   0  0  0  0  0  0  0  0  0  0  0  0
   47.7778   33.0594   36.2657 H   0  0  0  0  0  0  0  0  0  0  0  0
   48.5447   32.3427   37.7170 H   0  0  0  0  0  0  0  0  0  0  0  0
   49.2503   34.6820   37.3621 H   0  0  0  0  0  0  0  0  0  0  0  0
   47.4962   35.1818   37.4690 H   0  0  0  0  0  0  0  0  0  0  0  0
   49.4369   34.5392   39.5872 H   0  0  0  0  0  0  0  0  0  0  0  0
   47.9547   35.5941   39.5770 H   0  0  0  0  0  0  0  0  0  0  0  0
  1  2  1  0
  1  6  1  0
  3  1  1  0
  3  2  1  0
  4  9  2  0
  5  4  1  0
  6  5  2  0
  6  7  1  0
  7  8  2  0
  8  9  1  0
 10  5  1  0
 11  3  1  0
 12 11  1  0
 13 12  1  0
 14 15  1  0
 14 13  1  0
 15 16  1  0
 16 11  1  0
  1 17  1  6
  2 18  1  0
  2 19  1  0
  3 20  1  1
  4 21  1  0
  8 22  1  0
 10 23  1  0
 10 24  1  0
 11 25  1  0
 12 26  1  0
 12 27  1  0
 13 28  1  0
 13 29  1  0
 14 30  1  0
 14 31  1  0
 15 32  1  0
 15 33  1  0
 16 34  1  0
 16 35  1  0
M  ISO  8  17  13  18  13  19  13  20  13  21  14  22  14  25  13  26  13
M  ISO  8  27  13  28  13  29  13  30  13  31  13  32  13  33  13  34  13
M  ISO  1  35  13
M  END
>  <minimizedAffinity>  (1) 
-5.27630615

>  <minimizedRMSD>  (1) 
0.321839958

$$$$
