
     RDKit          3D

 21 22  0  0  1  0  0  0  0  0999 V2000
   44.6530   35.3160   45.1370 C   0  0  0  0  0  0  0  0  0  0  0  0
   45.1360   35.6780   43.8540 C   0  0  0  0  0  0  0  0  0  0  0  0
   46.1520   34.8900   43.3780 C   0  0  0  0  0  0  0  0  0  0  0  0
   46.6530   33.8310   44.1090 N   0  0  0  0  0  0  0  0  0  0  0  0
   46.1570   33.5300   45.3250 C   0  0  0  0  0  0  0  0  0  0  0  0
   45.1450   34.2850   45.8380 N   0  0  0  0  0  0  0  0  0  0  0  0
   46.6670   35.1450   41.9800 C   0  0  1  0  0  0  0  0  0  0  0  0
   48.1480   34.7000   41.8630 C   0  0  0  0  0  0  0  0  0  0  0  0
   46.9450   34.0450   41.1320 C   0  0  1  0  0  0  0  0  0  0  0  0
   46.7950   32.6580   41.4490 N   0  0  0  0  0  0  0  0  0  0  0  0
   44.6390   36.7920   43.1140 N   0  0  0  0  0  0  0  0  0  0  0  0
   43.8373   35.9083   45.5771 H   0  0  0  0  0  0  0  0  0  0  0  0
   46.5645   32.6838   45.8976 H   0  0  0  0  0  0  0  0  0  0  0  0
   46.0711   36.0510   41.7956 H   0  0  0  0  0  0  0  0  0  0  0  0
   48.8795   35.3100   41.3128 H   0  0  0  0  0  0  0  0  0  0  0  0
   48.9540   34.3824   42.5409 H   0  0  0  0  0  0  0  0  0  0  0  0
   46.5712   33.8644   40.1133 H   0  0  0  0  0  0  0  0  0  0  0  0
   46.7821   32.5391   42.4720 H   0  0  0  0  0  0  0  0  0  0  0  0
   45.9113   32.3086   41.0516 H   0  0  0  0  0  0  0  0  0  0  0  0
   45.0281   37.0081   42.1851 H   0  0  0  0  0  0  0  0  0  0  0  0
   43.8911   37.3801   43.5087 H   0  0  0  0  0  0  0  0  0  0  0  0
  1  6  2  0
  2  1  1  0
  3  2  2  0
  3  4  1  0
  4  5  2  0
  5  6  1  0
  7  3  1  0
  8  7  1  0
  9 10  1  0
  9  8  1  0
  9  7  1  0
 11  2  1  0
  1 12  1  0
  5 13  1  0
  7 14  1  6
  8 15  1  0
  8 16  1  0
  9 17  1  6
 10 18  1  0
 10 19  1  0
 11 20  1  0
 11 21  1  0
M  ISO  8  12  14  13  14  14  13  15  13  16  13  17  13  18   5  19   5
M  END
>  <minimizedAffinity>  (1) 
-3.88401222

>  <minimizedRMSD>  (1) 
0.469318956

$$$$
