
     RDKit          3D

 20 21  0  0  1  0  0  0  0  0999 V2000
   44.6550   35.3250   45.1520 C   0  0  0  0  0  0  0  0  0  0  0  0
   45.1330   35.6820   43.8650 C   0  0  0  0  0  0  0  0  0  0  0  0
   46.1320   34.8870   43.3660 C   0  0  0  0  0  0  0  0  0  0  0  0
   46.6260   33.8180   44.0890 N   0  0  0  0  0  0  0  0  0  0  0  0
   46.1430   33.5210   45.3010 C   0  0  0  0  0  0  0  0  0  0  0  0
   45.1470   34.2840   45.8340 N   0  0  0  0  0  0  0  0  0  0  0  0
   46.6410   35.1390   41.9630 C   0  0  1  0  0  0  0  0  0  0  0  0
   48.1420   34.7470   41.8740 C   0  0  0  0  0  0  0  0  0  0  0  0
   46.9590   34.0350   41.1330 C   0  0  1  0  0  0  0  0  0  0  0  0
   46.8130   32.6960   41.4990 O   0  0  0  0  0  0  0  0  0  0  0  0
   44.6500   36.8070   43.1360 N   0  0  0  0  0  0  0  0  0  0  0  0
   43.8519   35.9248   45.6052 H   0  0  0  0  0  0  0  0  0  0  0  0
   46.5471   32.6666   45.8637 H   0  0  0  0  0  0  0  0  0  0  0  0
   46.0139   36.0184   41.7544 H   0  0  0  0  0  0  0  0  0  0  0  0
   48.8589   35.3740   41.3236 H   0  0  0  0  0  0  0  0  0  0  0  0
   48.9502   34.4689   42.5664 H   0  0  0  0  0  0  0  0  0  0  0  0
   46.6277   33.8219   40.1059 H   0  0  0  0  0  0  0  0  0  0  0  0
   46.8050   32.6227   42.4863 H   0  0  0  0  0  0  0  0  0  0  0  0
   45.0334   37.0200   42.2040 H   0  0  0  0  0  0  0  0  0  0  0  0
   43.9175   37.4073   43.5410 H   0  0  0  0  0  0  0  0  0  0  0  0
  1  6  2  0
  2  1  1  0
  3  2  2  0
  3  4  1  0
  4  5  2  0
  5  6  1  0
  7  3  1  0
  8  7  1  0
  9 10  1  0
  9  8  1  0
  9  7  1  0
 11  2  1  0
  1 12  1  0
  5 13  1  0
  7 14  1  6
  8 15  1  0
  8 16  1  0
  9 17  1  6
 10 18  1  0
 11 19  1  0
 11 20  1  0
M  ISO  7  12  14  13  14  14  13  15  13  16  13  17  13  18   3
M  END
>  <minimizedAffinity>  (1) 
-3.89541626

>  <minimizedRMSD>  (1) 
0.446530521

$$$$
