
     RDKit          3D

 38 41  0  0  1  0  0  0  0  0999 V2000
   47.2280   35.2810   41.8750 C   0  0  1  0  0  0  0  0  0  0  0  0
   48.7520   35.3450   41.9680 C   0  0  0  0  0  0  0  0  0  0  0  0
   47.9330   34.3630   41.0710 C   0  0  2  0  0  0  0  0  0  0  0  0
   44.9460   34.8190   44.8090 C   0  0  0  0  0  0  0  0  0  0  0  0
   45.4850   35.3780   43.6170 C   0  0  0  0  0  0  0  0  0  0  0  0
   46.6290   34.7810   43.1690 C   0  0  0  0  0  0  0  0  0  0  0  0
   47.2050   33.7240   43.8350 N   0  0  0  0  0  0  0  0  0  0  0  0
   46.6630   33.2280   44.9580 C   0  0  0  0  0  0  0  0  0  0  0  0
   45.5220   33.7830   45.4490 N   0  0  0  0  0  0  0  0  0  0  0  0
   44.8870   36.4740   42.9710 N   0  0  0  0  0  0  0  0  0  0  0  0
   48.0750   34.5060   39.5790 C   0  0  0  0  0  0  0  0  0  0  0  0
   47.1950   33.5970   38.8430 C   0  0  0  0  0  0  0  0  0  0  0  0
   46.0100   33.2750   39.5210 C   0  0  0  0  0  0  0  0  0  0  0  0
   45.0140   32.5430   38.8860 C   0  0  0  0  0  0  0  0  0  0  0  0
   45.1310   32.0980   37.5850 C   0  0  0  0  0  0  0  0  0  0  0  0
   46.2760   32.3990   36.9210 C   0  0  0  0  0  0  0  0  0  0  0  0
   46.4700   31.9330   35.6220 C   0  0  0  0  0  0  0  0  0  0  0  0
   47.6700   32.2210   35.0030 C   0  0  0  0  0  0  0  0  0  0  0  0
   48.6580   32.9490   35.6360 C   0  0  0  0  0  0  0  0  0  0  0  0
   48.4390   33.4000   36.9200 C   0  0  0  0  0  0  0  0  0  0  0  0
   47.2290   33.1120   37.5540 C   0  0  0  0  0  0  0  0  0  0  0  0
   46.4145   35.9757   41.6188 H   0  0  0  0  0  0  0  0  0  0  0  0
   49.3106   36.1827   41.5251 H   0  0  0  0  0  0  0  0  0  0  0  0
   49.5192   35.2762   42.7533 H   0  0  0  0  0  0  0  0  0  0  0  0
   47.8392   33.2738   40.9492 H   0  0  0  0  0  0  0  0  0  0  0  0
   44.0229   35.2495   45.2243 H   0  0  0  0  0  0  0  0  0  0  0  0
   47.1365   32.3812   45.4763 H   0  0  0  0  0  0  0  0  0  0  0  0
   45.3038   36.8540   42.1092 H   0  0  0  0  0  0  0  0  0  0  0  0
   44.0320   36.8970   43.3595 H   0  0  0  0  0  0  0  0  0  0  0  0
   47.8278   35.5405   39.2986 H   0  0  0  0  0  0  0  0  0  0  0  0
   49.1127   34.2529   39.3160 H   0  0  0  0  0  0  0  0  0  0  0  0
   45.8684   33.6038   40.5611 H   0  0  0  0  0  0  0  0  0  0  0  0
   44.0949   32.3087   39.4431 H   0  0  0  0  0  0  0  0  0  0  0  0
   44.3270   31.5213   37.1043 H   0  0  0  0  0  0  0  0  0  0  0  0
   45.6907   31.3533   35.1056 H   0  0  0  0  0  0  0  0  0  0  0  0
   47.8437   31.8609   33.9782 H   0  0  0  0  0  0  0  0  0  0  0  0
   49.6065   33.1660   35.1228 H   0  0  0  0  0  0  0  0  0  0  0  0
   49.2124   33.9829   37.4416 H   0  0  0  0  0  0  0  0  0  0  0  0
  1  2  1  0
  1  6  1  0
  3  1  1  0
  3  2  1  0
  4  9  2  0
  5  4  1  0
  6  5  2  0
  6  7  1  0
  7  8  2  0
  8  9  1  0
 10  5  1  0
 11  3  1  0
 12 13  2  0
 12 11  1  0
 14 13  1  0
 15 14  2  0
 16 21  2  0
 16 15  1  0
 17 16  1  0
 18 17  2  0
 18 19  1  0
 19 20  2  0
 20 21  1  0
 21 12  1  0
  1 22  1  6
  2 23  1  0
  2 24  1  0
  3 25  1  1
  4 26  1  0
  8 27  1  0
 10 28  1  0
 10 29  1  0
 11 30  1  0
 11 31  1  0
 13 32  1  0
 14 33  1  0
 15 34  1  0
 17 35  1  0
 18 36  1  0
 19 37  1  0
 20 38  1  0
M  ISO  8  22  13  23  13  24  13  25  13  26  14  27  14  30   8  31   8
M  ISO  7  32  14  33  14  34  14  35  14  36  14  37  14  38  14
M  END
>  <minimizedAffinity>  (1) 
-5.59677505

>  <minimizedRMSD>  (1) 
1.55295956

$$$$
