
     RDKit          3D

 36 38  0  0  1  0  0  0  0  0999 V2000
   47.0750   35.1940   41.7600 C   0  0  1  0  0  0  0  0  0  0  0  0
   48.5580   35.6310   41.8580 C   0  0  0  0  0  0  0  0  0  0  0  0
   48.0250   34.4090   41.0820 C   0  0  2  0  0  0  0  0  0  0  0  0
   45.0010   34.8380   44.8600 C   0  0  0  0  0  0  0  0  0  0  0  0
   45.4660   35.3590   43.6230 C   0  0  0  0  0  0  0  0  0  0  0  0
   46.5550   34.7370   43.0950 C   0  0  0  0  0  0  0  0  0  0  0  0
   47.1520   33.6800   43.7300 N   0  0  0  0  0  0  0  0  0  0  0  0
   46.6790   33.2150   44.9050 C   0  0  0  0  0  0  0  0  0  0  0  0
   45.5940   33.8030   45.4670 N   0  0  0  0  0  0  0  0  0  0  0  0
   44.8490   36.4760   43.0020 N   0  0  0  0  0  0  0  0  0  0  0  0
   48.1080   34.4220   39.5700 C   0  0  0  0  0  0  0  0  0  0  0  0
   47.5670   33.2200   39.0320 N   0  0  0  0  0  0  0  0  0  0  0  0
   48.4340   32.0800   39.0760 C   0  0  0  0  0  0  0  0  0  0  0  0
   49.6460   32.1880   38.2020 C   0  0  0  0  0  0  0  0  0  0  0  0
   49.6810   33.3340   37.3520 N   0  0  0  0  0  0  0  0  0  0  0  0
   48.4230   33.7390   36.8030 C   0  0  0  0  0  0  0  0  0  0  0  0
   47.2240   33.4160   37.6280 C   0  0  0  0  0  0  0  0  0  0  0  0
   46.1233   35.6229   41.4132 H   0  0  0  0  0  0  0  0  0  0  0  0
   48.9208   36.5236   41.3274 H   0  0  0  0  0  0  0  0  0  0  0  0
   49.2939   35.8297   42.6511 H   0  0  0  0  0  0  0  0  0  0  0  0
   48.2432   33.3309   41.0926 H   0  0  0  0  0  0  0  0  0  0  0  0
   44.1236   35.3010   45.3352 H   0  0  0  0  0  0  0  0  0  0  0  0
   47.1696   32.3657   45.4030 H   0  0  0  0  0  0  0  0  0  0  0  0
   45.2095   36.8306   42.1047 H   0  0  0  0  0  0  0  0  0  0  0  0
   44.0407   36.9321   43.4486 H   0  0  0  0  0  0  0  0  0  0  0  0
   47.5389   35.2803   39.1833 H   0  0  0  0  0  0  0  0  0  0  0  0
   49.1637   34.5025   39.2717 H   0  0  0  0  0  0  0  0  0  0  0  0
   48.7702   31.9437   40.1145 H   0  0  0  0  0  0  0  0  0  0  0  0
   47.8502   31.2278   38.6979 H   0  0  0  0  0  0  0  0  0  0  0  0
   50.5329   32.2190   38.8520 H   0  0  0  0  0  0  0  0  0  0  0  0
   49.6209   31.3135   37.5352 H   0  0  0  0  0  0  0  0  0  0  0  0
   50.0559   34.1222   37.8990 H   0  0  0  0  0  0  0  0  0  0  0  0
   48.4516   34.8294   36.6606 H   0  0  0  0  0  0  0  0  0  0  0  0
   48.3064   33.1703   35.8687 H   0  0  0  0  0  0  0  0  0  0  0  0
   46.5048   34.2446   37.5499 H   0  0  0  0  0  0  0  0  0  0  0  0
   46.7914   32.4785   37.2485 H   0  0  0  0  0  0  0  0  0  0  0  0
  1  2  1  0
  1  6  1  0
  3  1  1  0
  3  2  1  0
  4  9  2  0
  5  4  1  0
  6  5  2  0
  6  7  1  0
  7  8  2  0
  8  9  1  0
 10  5  1  0
 11  3  1  0
 12 13  1  0
 12 11  1  0
 14 13  1  0
 15 14  1  0
 16 15  1  0
 16 17  1  0
 17 12  1  0
  1 18  1  6
  2 19  1  0
  2 20  1  0
  3 21  1  1
  4 22  1  0
  8 23  1  0
 10 24  1  0
 10 25  1  0
 11 26  1  0
 11 27  1  0
 13 28  1  0
 13 29  1  0
 14 30  1  0
 14 31  1  0
 15 32  1  0
 16 33  1  0
 16 34  1  0
 17 35  1  0
 17 36  1  0
M  ISO  8  18  13  19  13  20  13  21  13  22  14  23  14  26   8  27   8
M  ISO  8  28  13  29  13  30  13  31  13  32   5  33  13  34  13  35  13
M  ISO  1  36  13
M  END
>  <minimizedAffinity>  (1) 
-5.17492914

>  <minimizedRMSD>  (1) 
2.52593708

$$$$
