
     RDKit          3D

 29 31  0  0  1  0  0  0  0  0999 V2000
   47.0720   35.1940   41.7670 C   0  0  1  0  0  0  0  0  0  0  0  0
   48.5750   35.5780   41.8700 C   0  0  0  0  0  0  0  0  0  0  0  0
   47.9790   34.3790   41.0720 C   0  0  2  0  0  0  0  0  0  0  0  0
   44.9860   34.8470   44.8640 C   0  0  0  0  0  0  0  0  0  0  0  0
   45.4500   35.3710   43.6290 C   0  0  0  0  0  0  0  0  0  0  0  0
   46.5500   34.7680   43.1180 C   0  0  0  0  0  0  0  0  0  0  0  0
   47.1760   33.7150   43.7670 N   0  0  0  0  0  0  0  0  0  0  0  0
   46.7020   33.2480   44.9400 C   0  0  0  0  0  0  0  0  0  0  0  0
   45.6020   33.8190   45.4880 N   0  0  0  0  0  0  0  0  0  0  0  0
   44.8380   36.4650   42.9980 N   0  0  0  0  0  0  0  0  0  0  0  0
   48.0690   34.3960   39.5670 C   0  0  0  0  0  0  0  0  0  0  0  0
   48.0860   33.0250   38.9470 C   0  0  0  0  0  0  0  0  0  0  0  0
   49.2640   32.1660   38.9220 C   0  0  0  0  0  0  0  0  0  0  0  0
   48.9460   32.9610   37.6680 C   0  0  0  0  0  0  0  0  0  0  0  0
   46.1327   35.6505   41.4216 H   0  0  0  0  0  0  0  0  0  0  0  0
   48.9707   36.4636   41.3512 H   0  0  0  0  0  0  0  0  0  0  0  0
   49.3215   35.7373   42.6621 H   0  0  0  0  0  0  0  0  0  0  0  0
   48.1422   33.2912   41.0648 H   0  0  0  0  0  0  0  0  0  0  0  0
   44.0945   35.2931   45.3289 H   0  0  0  0  0  0  0  0  0  0  0  0
   47.2039   32.4110   45.4475 H   0  0  0  0  0  0  0  0  0  0  0  0
   45.2061   36.8147   42.1018 H   0  0  0  0  0  0  0  0  0  0  0  0
   44.0207   36.9182   43.4311 H   0  0  0  0  0  0  0  0  0  0  0  0
   47.2006   34.9446   39.1733 H   0  0  0  0  0  0  0  0  0  0  0  0
   49.0228   34.8784   39.3072 H   0  0  0  0  0  0  0  0  0  0  0  0
   47.0583   32.8121   39.2766 H   0  0  0  0  0  0  0  0  0  0  0  0
   50.1439   32.4328   39.5259 H   0  0  0  0  0  0  0  0  0  0  0  0
   49.4352   31.0988   39.1265 H   0  0  0  0  0  0  0  0  0  0  0  0
   49.5739   33.8150   37.3740 H   0  0  0  0  0  0  0  0  0  0  0  0
   48.7754   32.7356   36.6050 H   0  0  0  0  0  0  0  0  0  0  0  0
  1  2  1  0
  1  6  1  0
  3  1  1  0
  3  2  1  0
  4  9  2  0
  5  4  1  0
  6  5  2  0
  6  7  1  0
  7  8  2  0
  8  9  1  0
 10  5  1  0
 11  3  1  0
 12 11  1  0
 13 12  1  0
 14 13  1  0
 14 12  1  0
  1 15  1  6
  2 16  1  0
  2 17  1  0
  3 18  1  1
  4 19  1  0
  8 20  1  0
 10 21  1  0
 10 22  1  0
 11 23  1  0
 11 24  1  0
 12 25  1  0
 13 26  1  0
 13 27  1  0
 14 28  1  0
 14 29  1  0
M  ISO  8  15  13  16  13  17  13  18  13  19  14  20  14  23   8  24   8
M  ISO  5  25  13  26  13  27  13  28  13  29  13
M  END
>  <minimizedAffinity>  (1) 
-4.35038471

>  <minimizedRMSD>  (1) 
1.06865263

$$$$
