
     RDKit          3D

 27 28  0  0  0  0  0  0  0  0999 V2000
   46.3710   34.3150   41.5690 C   0  0  0  0  0  0  0  0  0  0  0  0
   44.7280   36.3240   44.2310 C   0  0  0  0  0  0  0  0  0  0  0  0
   45.2840   35.9680   42.9770 C   0  0  0  0  0  0  0  0  0  0  0  0
   45.7980   34.6730   42.8700 C   0  0  0  0  0  0  0  0  0  0  0  0
   45.7520   33.8280   43.9320 N   0  0  0  0  0  0  0  0  0  0  0  0
   45.2020   34.2330   45.1150 C   0  0  0  0  0  0  0  0  0  0  0  0
   44.7000   35.4620   45.2560 N   0  0  0  0  0  0  0  0  0  0  0  0
   47.7800   34.0900   41.5660 N   0  0  0  0  0  0  0  0  0  0  0  0
   48.4160   35.2490   40.9640 C   0  0  0  0  0  0  0  0  0  0  0  0
   49.2810   35.9940   41.9540 C   0  0  0  0  0  0  0  0  0  0  0  0
   50.3570   35.1370   42.3580 N   0  0  0  0  0  0  0  0  0  0  0  0
   49.8590   33.8220   42.7370 C   0  0  0  0  0  0  0  0  0  0  0  0
   48.3350   33.8440   42.8660 C   0  0  0  0  0  0  0  0  0  0  0  0
   45.8788   33.3944   41.2223 H   0  0  0  0  0  0  0  0  0  0  0  0
   46.1990   35.1801   40.9117 H   0  0  0  0  0  0  0  0  0  0  0  0
   44.3094   37.3323   44.3659 H   0  0  0  0  0  0  0  0  0  0  0  0
   45.3096   36.6732   42.1332 H   0  0  0  0  0  0  0  0  0  0  0  0
   45.1723   33.5354   45.9650 H   0  0  0  0  0  0  0  0  0  0  0  0
   49.0433   34.9146   40.1246 H   0  0  0  0  0  0  0  0  0  0  0  0
   47.6252   35.9320   40.6202 H   0  0  0  0  0  0  0  0  0  0  0  0
   49.6869   36.9010   41.4822 H   0  0  0  0  0  0  0  0  0  0  0  0
   48.6833   36.2849   42.8304 H   0  0  0  0  0  0  0  0  0  0  0  0
   51.0186   35.0344   41.5753 H   0  0  0  0  0  0  0  0  0  0  0  0
   50.1468   33.0902   41.9678 H   0  0  0  0  0  0  0  0  0  0  0  0
   50.2946   33.5424   43.7076 H   0  0  0  0  0  0  0  0  0  0  0  0
   48.0311   34.6431   43.5582 H   0  0  0  0  0  0  0  0  0  0  0  0
   47.9724   32.8827   43.2589 H   0  0  0  0  0  0  0  0  0  0  0  0
  1  4  1  0
  2  7  2  0
  3  2  1  0
  4  3  2  0
  4  5  1  0
  5  6  2  0
  6  7  1  0
  8  1  1  0
  8 13  1  0
  9  8  1  0
  9 10  1  0
 10 11  1  0
 11 12  1  0
 12 13  1  0
  1 14  1  0
  1 15  1  0
  2 16  1  0
  3 17  1  0
  6 18  1  0
  9 19  1  0
  9 20  1  0
 10 21  1  0
 10 22  1  0
 11 23  1  0
 12 24  1  0
 12 25  1  0
 13 26  1  0
 13 27  1  0
M  ISO  8  14   8  15   8  16  14  17  14  18  14  19  13  20  13  21  13
M  ISO  6  22  13  23   5  24  13  25  13  26  13  27  13
M  END
>  <minimizedAffinity>  (1) 
-4.37447596

>  <minimizedRMSD>  (1) 
1.57693481

$$$$
