
     RDKit          3D

 43 46  0  0  0  0  0  0  0  0999 V2000
   48.4870   33.0800   41.3670 C   0  0  0  0  0  0  0  0  0  0  0  0
   48.0660   34.3050   41.8170 C   0  0  0  0  0  0  0  0  0  0  0  0
   48.9570   35.1210   42.4520 C   0  0  0  0  0  0  0  0  0  0  0  0
   50.2660   34.7070   42.6350 C   0  0  0  0  0  0  0  0  0  0  0  0
   50.6560   33.4700   42.1710 C   0  0  0  0  0  0  0  0  0  0  0  0
   49.7620   32.6310   41.5240 C   0  0  0  0  0  0  0  0  0  0  0  0
   46.6580   34.6600   41.5780 C   0  0  0  0  0  0  0  0  0  0  0  0
   45.9490   34.9150   42.8910 C   0  0  0  0  0  0  0  0  0  0  0  0
   45.9850   33.9080   43.8540 C   0  0  0  0  0  0  0  0  0  0  0  0
   45.3340   34.1600   45.0450 C   0  0  0  0  0  0  0  0  0  0  0  0
   44.7130   35.3400   45.2090 N   0  0  0  0  0  0  0  0  0  0  0  0
   44.6950   36.3030   44.2500 C   0  0  0  0  0  0  0  0  0  0  0  0
   45.3170   36.0700   43.1040 N   0  0  0  0  0  0  0  0  0  0  0  0
   47.6520   32.1680   40.7030 O   0  0  0  0  0  0  0  0  0  0  0  0
   50.2660   31.3920   41.0910 O   0  0  0  0  0  0  0  0  0  0  0  0
   50.7460   31.4000   39.7830 C   0  0  0  0  0  0  0  0  0  0  0  0
   52.1110   31.4330   39.5930 C   0  0  0  0  0  0  0  0  0  0  0  0
   52.6990   31.4450   38.3300 C   0  0  0  0  0  0  0  0  0  0  0  0
   51.9020   31.4230   37.2580 N   0  0  0  0  0  0  0  0  0  0  0  0
   50.5600   31.3900   37.4380 C   0  0  0  0  0  0  0  0  0  0  0  0
   50.0140   31.3800   38.6640 N   0  0  0  0  0  0  0  0  0  0  0  0
   48.8920   33.8670   37.0200 Cl  0  0  0  0  0  0  0  0  0  0  0  0
   48.8360   32.4330   35.9860 C   0  0  0  0  0  0  0  0  0  0  0  0
   49.6540   31.3640   36.2900 C   0  0  0  0  0  0  0  0  0  0  0  0
   49.5690   30.2730   35.4490 C   0  0  0  0  0  0  0  0  0  0  0  0
   48.7250   30.2080   34.3510 C   0  0  0  0  0  0  0  0  0  0  0  0
   47.9400   31.3370   34.1290 C   0  0  0  0  0  0  0  0  0  0  0  0
   47.9630   32.4650   34.9160 C   0  0  0  0  0  0  0  0  0  0  0  0
   48.6356   36.1071   42.8183 H   0  0  0  0  0  0  0  0  0  0  0  0
   50.9880   35.3604   43.1465 H   0  0  0  0  0  0  0  0  0  0  0  0
   51.6958   33.1420   42.3165 H   0  0  0  0  0  0  0  0  0  0  0  0
   46.6130   35.5683   40.9592 H   0  0  0  0  0  0  0  0  0  0  0  0
   46.1621   33.8257   41.0603 H   0  0  0  0  0  0  0  0  0  0  0  0
   46.5076   32.9571   43.6735 H   0  0  0  0  0  0  0  0  0  0  0  0
   45.3239   33.4069   45.8467 H   0  0  0  0  0  0  0  0  0  0  0  0
   44.1744   37.2566   44.4221 H   0  0  0  0  0  0  0  0  0  0  0  0
   46.7031   32.3961   40.5368 H   0  0  0  0  0  0  0  0  0  0  0  0
   52.7647   31.4506   40.4775 H   0  0  0  0  0  0  0  0  0  0  0  0
   53.7930   31.4719   38.2182 H   0  0  0  0  0  0  0  0  0  0  0  0
   50.2085   29.4038   35.6624 H   0  0  0  0  0  0  0  0  0  0  0  0
   48.6784   29.3236   33.6985 H   0  0  0  0  0  0  0  0  0  0  0  0
   47.2564   31.3259   33.2673 H   0  0  0  0  0  0  0  0  0  0  0  0
   47.3265   33.3373   34.7065 H   0  0  0  0  0  0  0  0  0  0  0  0
  1  6  2  0
  1  2  1  0
  2  3  2  0
  3  4  1  0
  5  4  2  0
  6  5  1  0
  7  2  1  0
  7  8  1  0
  8 13  1  0
  8  9  2  0
  9 10  1  0
 10 11  2  0
 12 11  1  0
 13 12  2  0
 14  1  1  0
 15  6  1  0
 16 15  1  0
 17 16  2  0
 18 17  1  0
 19 20  1  0
 19 18  2  0
 20 21  2  0
 21 16  1  0
 23 24  2  0
 23 22  1  0
 24 20  1  0
 25 24  1  0
 26 25  2  0
 27 26  1  0
 27 28  2  0
 28 23  1  0
  3 29  1  0
  4 30  1  0
  5 31  1  0
  7 32  1  0
  7 33  1  0
  9 34  1  0
 10 35  1  0
 12 36  1  0
 14 37  1  0
 17 38  1  0
 18 39  1  0
 25 40  1  0
 26 41  1  0
 27 42  1  0
 28 43  1  0
M  ISO  8  29  14  30  14  31  14  32   8  33   8  34  14  35  14  36  14
M  ISO  7  37   3  38  14  39  14  40  14  41  14  42  14  43  14
M  END
>  <minimizedAffinity>  (1) 
-6.17803144

>  <minimizedRMSD>  (1) 
1.01584017

$$$$
