
     RDKit          3D

 21 22  0  0  0  0  0  0  0  0999 V2000
   47.3870   34.9970   41.9430 C   0  0  0  0  0  0  0  0  0  0  0  0
   44.6560   36.0100   44.2620 C   0  0  0  0  0  0  0  0  0  0  0  0
   45.5550   36.0110   43.1630 C   0  0  0  0  0  0  0  0  0  0  0  0
   46.4730   34.9750   43.0820 C   0  0  0  0  0  0  0  0  0  0  0  0
   46.4750   34.0110   44.0490 N   0  0  0  0  0  0  0  0  0  0  0  0
   45.6010   34.0520   45.0770 C   0  0  0  0  0  0  0  0  0  0  0  0
   44.7000   35.0420   45.1820 N   0  0  0  0  0  0  0  0  0  0  0  0
   46.9160   34.2910   40.7370 C   0  0  0  0  0  0  0  0  0  0  0  0
   47.7680   34.1710   39.6540 C   0  0  0  0  0  0  0  0  0  0  0  0
   47.4090   33.5200   38.4730 C   0  0  0  0  0  0  0  0  0  0  0  0
   46.1770   32.9920   38.3980 N   0  0  0  0  0  0  0  0  0  0  0  0
   45.3490   33.1060   39.4450 C   0  0  0  0  0  0  0  0  0  0  0  0
   45.6750   33.7360   40.6100 N   0  0  0  0  0  0  0  0  0  0  0  0
   47.5657   36.0481   41.6722 H   0  0  0  0  0  0  0  0  0  0  0  0
   48.2913   34.4636   42.2712 H   0  0  0  0  0  0  0  0  0  0  0  0
   43.9139   36.8164   44.3572 H   0  0  0  0  0  0  0  0  0  0  0  0
   45.5243   36.8055   42.4028 H   0  0  0  0  0  0  0  0  0  0  0  0
   45.6274   33.2613   45.8413 H   0  0  0  0  0  0  0  0  0  0  0  0
   48.7745   34.6087   39.7270 H   0  0  0  0  0  0  0  0  0  0  0  0
   48.1125   33.4420   37.6310 H   0  0  0  0  0  0  0  0  0  0  0  0
   44.3450   32.6646   39.3599 H   0  0  0  0  0  0  0  0  0  0  0  0
  1  4  1  0
  2  7  2  0
  3  2  1  0
  4  3  2  0
  4  5  1  0
  5  6  2  0
  6  7  1  0
  8  1  1  0
  9  8  2  0
 10  9  1  0
 11 10  2  0
 11 12  1  0
 12 13  2  0
 13  8  1  0
  1 14  1  0
  1 15  1  0
  2 16  1  0
  3 17  1  0
  6 18  1  0
  9 19  1  0
 10 20  1  0
 12 21  1  0
M  ISO  8  14   8  15   8  16  14  17  14  18  14  19  14  20  14  21  14
M  END
>  <minimizedAffinity>  (1) 
-3.97835946

>  <minimizedRMSD>  (1) 
1.29610467

$$$$
