
     RDKit          3D

 41 44  0  0  0  0  0  0  0  0999 V2000
   48.5140   33.1050   41.4320 C   0  0  0  0  0  0  0  0  0  0  0  0
   48.0740   34.3310   41.8530 C   0  0  0  0  0  0  0  0  0  0  0  0
   48.9480   35.1790   42.4700 C   0  0  0  0  0  0  0  0  0  0  0  0
   50.2740   34.7750   42.6580 C   0  0  0  0  0  0  0  0  0  0  0  0
   50.6790   33.5420   42.2230 C   0  0  0  0  0  0  0  0  0  0  0  0
   49.7910   32.6700   41.5920 C   0  0  0  0  0  0  0  0  0  0  0  0
   46.6650   34.6630   41.6110 C   0  0  0  0  0  0  0  0  0  0  0  0
   45.9470   34.9250   42.9150 C   0  0  0  0  0  0  0  0  0  0  0  0
   45.9830   33.9190   43.8790 C   0  0  0  0  0  0  0  0  0  0  0  0
   45.3260   34.1630   45.0710 C   0  0  0  0  0  0  0  0  0  0  0  0
   44.6980   35.3440   45.2290 N   0  0  0  0  0  0  0  0  0  0  0  0
   44.6820   36.3010   44.2690 C   0  0  0  0  0  0  0  0  0  0  0  0
   45.3090   36.0790   43.1230 N   0  0  0  0  0  0  0  0  0  0  0  0
   47.6890   32.1670   40.7880 O   0  0  0  0  0  0  0  0  0  0  0  0
   50.3120   31.4280   41.1850 O   0  0  0  0  0  0  0  0  0  0  0  0
   50.8730   31.4370   39.9100 C   0  0  0  0  0  0  0  0  0  0  0  0
   52.2490   31.3360   39.8020 C   0  0  0  0  0  0  0  0  0  0  0  0
   52.8840   31.3390   38.5500 C   0  0  0  0  0  0  0  0  0  0  0  0
   52.1470   31.4430   37.4420 N   0  0  0  0  0  0  0  0  0  0  0  0
   50.8060   31.5410   37.5670 C   0  0  0  0  0  0  0  0  0  0  0  0
   50.2020   31.5370   38.7600 N   0  0  0  0  0  0  0  0  0  0  0  0
   50.0000   31.6540   36.3530 C   0  0  0  0  0  0  0  0  0  0  0  0
   48.8710   32.4460   36.3330 C   0  0  0  0  0  0  0  0  0  0  0  0
   48.1750   32.4870   35.1320 C   0  0  0  0  0  0  0  0  0  0  0  0
   48.5630   31.7970   34.0320 N   0  0  0  0  0  0  0  0  0  0  0  0
   49.6700   31.0330   34.0850 C   0  0  0  0  0  0  0  0  0  0  0  0
   50.3420   30.9890   35.2340 N   0  0  0  0  0  0  0  0  0  0  0  0
   48.6135   36.1684   42.8153 H   0  0  0  0  0  0  0  0  0  0  0  0
   50.9897   35.4468   43.1544 H   0  0  0  0  0  0  0  0  0  0  0  0
   51.7238   33.2328   42.3736 H   0  0  0  0  0  0  0  0  0  0  0  0
   46.6090   35.5628   40.9807 H   0  0  0  0  0  0  0  0  0  0  0  0
   46.1828   33.8131   41.1060 H   0  0  0  0  0  0  0  0  0  0  0  0
   46.5116   32.9712   43.6992 H   0  0  0  0  0  0  0  0  0  0  0  0
   45.3165   33.4094   45.8723 H   0  0  0  0  0  0  0  0  0  0  0  0
   44.1545   37.2511   44.4395 H   0  0  0  0  0  0  0  0  0  0  0  0
   46.7369   32.3789   40.6188 H   0  0  0  0  0  0  0  0  0  0  0  0
   52.8569   31.2517   40.7149 H   0  0  0  0  0  0  0  0  0  0  0  0
   53.9788   31.2564   38.4827 H   0  0  0  0  0  0  0  0  0  0  0  0
   48.5412   33.0120   37.2166 H   0  0  0  0  0  0  0  0  0  0  0  0
   47.2685   33.1071   35.0708 H   0  0  0  0  0  0  0  0  0  0  0  0
   50.0088   30.4631   33.2072 H   0  0  0  0  0  0  0  0  0  0  0  0
  1  6  2  0
  1  2  1  0
  2  3  2  0
  3  4  1  0
  5  4  2  0
  6  5  1  0
  7  2  1  0
  7  8  1  0
  8 13  1  0
  8  9  2  0
  9 10  1  0
 10 11  2  0
 12 11  1  0
 13 12  2  0
 14  1  1  0
 15  6  1  0
 16 15  1  0
 17 16  2  0
 18 17  1  0
 19 20  1  0
 19 18  2  0
 20 21  2  0
 21 16  1  0
 22 20  1  0
 23 22  2  0
 24 23  1  0
 25 26  1  0
 25 24  2  0
 26 27  2  0
 27 22  1  0
  3 28  1  0
  4 29  1  0
  5 30  1  0
  7 31  1  0
  7 32  1  0
  9 33  1  0
 10 34  1  0
 12 35  1  0
 14 36  1  0
 17 37  1  0
 18 38  1  0
 23 39  1  0
 24 40  1  0
 26 41  1  0
M  ISO  8  28  14  29  14  30  14  31   8  32   8  33  14  34  14  35  14
M  ISO  6  36   3  37  14  38  14  39  14  40  14  41  14
M  END
>  <minimizedAffinity>  (1) 
-5.99629927

>  <minimizedRMSD>  (1) 
0.646625578

$$$$
