
     RDKit          3D

 42 45  0  0  0  0  0  0  0  0999 V2000
   48.5040   33.0910   41.4210 C   0  0  0  0  0  0  0  0  0  0  0  0
   48.0730   34.3170   41.8430 C   0  0  0  0  0  0  0  0  0  0  0  0
   48.9490   35.1610   42.4580 C   0  0  0  0  0  0  0  0  0  0  0  0
   50.2680   34.7680   42.6490 C   0  0  0  0  0  0  0  0  0  0  0  0
   50.6750   33.5260   42.2140 C   0  0  0  0  0  0  0  0  0  0  0  0
   49.7840   32.6570   41.5840 C   0  0  0  0  0  0  0  0  0  0  0  0
   46.6600   34.6510   41.5980 C   0  0  0  0  0  0  0  0  0  0  0  0
   45.9440   34.9200   42.9030 C   0  0  0  0  0  0  0  0  0  0  0  0
   45.9770   33.9160   43.8700 C   0  0  0  0  0  0  0  0  0  0  0  0
   45.3200   34.1720   45.0610 C   0  0  0  0  0  0  0  0  0  0  0  0
   44.6990   35.3580   45.2120 N   0  0  0  0  0  0  0  0  0  0  0  0
   44.6870   36.3130   44.2490 C   0  0  0  0  0  0  0  0  0  0  0  0
   45.3140   36.0760   43.1060 N   0  0  0  0  0  0  0  0  0  0  0  0
   47.6800   32.1510   40.7790 O   0  0  0  0  0  0  0  0  0  0  0  0
   50.3070   31.4180   41.1830 O   0  0  0  0  0  0  0  0  0  0  0  0
   50.8860   31.4350   39.9110 C   0  0  0  0  0  0  0  0  0  0  0  0
   52.2550   31.3320   39.8060 C   0  0  0  0  0  0  0  0  0  0  0  0
   52.9260   31.3390   38.5920 C   0  0  0  0  0  0  0  0  0  0  0  0
   52.2140   31.4500   37.4730 N   0  0  0  0  0  0  0  0  0  0  0  0
   50.8650   31.5520   37.5580 C   0  0  0  0  0  0  0  0  0  0  0  0
   50.2330   31.5440   38.7380 N   0  0  0  0  0  0  0  0  0  0  0  0
   50.0210   31.6780   36.3480 C   0  0  0  0  0  0  0  0  0  0  0  0
   50.3370   30.8940   35.2450 C   0  0  0  0  0  0  0  0  0  0  0  0
   49.6080   30.9440   34.0750 C   0  0  0  0  0  0  0  0  0  0  0  0
   48.5220   31.8210   34.0280 C   0  0  0  0  0  0  0  0  0  0  0  0
   48.2550   32.5760   35.1520 C   0  0  0  0  0  0  0  0  0  0  0  0
   48.9870   32.5030   36.2780 N   0  0  0  0  0  0  0  0  0  0  0  0
   48.6128   36.1502   42.8021 H   0  0  0  0  0  0  0  0  0  0  0  0
   50.9816   35.4434   43.1437 H   0  0  0  0  0  0  0  0  0  0  0  0
   51.7190   33.2145   42.3658 H   0  0  0  0  0  0  0  0  0  0  0  0
   46.6050   35.5480   40.9636 H   0  0  0  0  0  0  0  0  0  0  0  0
   46.1758   33.8004   41.0959 H   0  0  0  0  0  0  0  0  0  0  0  0
   46.5008   32.9648   43.6945 H   0  0  0  0  0  0  0  0  0  0  0  0
   45.3052   33.4233   45.8668 H   0  0  0  0  0  0  0  0  0  0  0  0
   44.1659   37.2676   44.4140 H   0  0  0  0  0  0  0  0  0  0  0  0
   46.7279   32.3620   40.6085 H   0  0  0  0  0  0  0  0  0  0  0  0
   52.8452   31.2397   40.7296 H   0  0  0  0  0  0  0  0  0  0  0  0
   54.0221   31.2547   38.5549 H   0  0  0  0  0  0  0  0  0  0  0  0
   51.1970   30.2109   35.3069 H   0  0  0  0  0  0  0  0  0  0  0  0
   49.8722   30.3164   33.2111 H   0  0  0  0  0  0  0  0  0  0  0  0
   47.9000   31.9071   33.1248 H   0  0  0  0  0  0  0  0  0  0  0  0
   47.4026   33.2708   35.1257 H   0  0  0  0  0  0  0  0  0  0  0  0
  1  6  2  0
  1  2  1  0
  2  3  2  0
  3  4  1  0
  5  4  2  0
  6  5  1  0
  7  2  1  0
  7  8  1  0
  8 13  1  0
  8  9  2  0
  9 10  1  0
 10 11  2  0
 12 11  1  0
 13 12  2  0
 14  1  1  0
 15  6  1  0
 16 15  1  0
 17 16  2  0
 18 17  1  0
 19 20  1  0
 19 18  2  0
 20 21  2  0
 21 16  1  0
 22 20  1  0
 23 22  2  0
 24 23  1  0
 25 24  2  0
 25 26  1  0
 26 27  2  0
 27 22  1  0
  3 28  1  0
  4 29  1  0
  5 30  1  0
  7 31  1  0
  7 32  1  0
  9 33  1  0
 10 34  1  0
 12 35  1  0
 14 36  1  0
 17 37  1  0
 18 38  1  0
 23 39  1  0
 24 40  1  0
 25 41  1  0
 26 42  1  0
M  ISO  8  28  14  29  14  30  14  31   8  32   8  33  14  34  14  35  14
M  ISO  7  36   3  37  14  38  14  39  14  40  14  41  14  42  14
M  END
>  <minimizedAffinity>  (1) 
-5.99625015

>  <minimizedRMSD>  (1) 
0.582282841

$$$$
