
     RDKit          3D

 49 52  0  0  0  0  0  0  0  0999 V2000
   48.5530   33.0490   41.4490 C   0  0  0  0  0  0  0  0  0  0  0  0
   48.0890   34.2750   41.8510 C   0  0  0  0  0  0  0  0  0  0  0  0
   48.9480   35.1480   42.4520 C   0  0  0  0  0  0  0  0  0  0  0  0
   50.2740   34.7780   42.6480 C   0  0  0  0  0  0  0  0  0  0  0  0
   50.7100   33.5420   42.2340 C   0  0  0  0  0  0  0  0  0  0  0  0
   49.8400   32.6480   41.6210 C   0  0  0  0  0  0  0  0  0  0  0  0
   46.6640   34.5730   41.5970 C   0  0  0  0  0  0  0  0  0  0  0  0
   45.9510   34.8630   42.8980 C   0  0  0  0  0  0  0  0  0  0  0  0
   45.9840   33.8800   43.8840 C   0  0  0  0  0  0  0  0  0  0  0  0
   45.3270   34.1670   45.0680 C   0  0  0  0  0  0  0  0  0  0  0  0
   44.7060   35.3550   45.1980 N   0  0  0  0  0  0  0  0  0  0  0  0
   44.6950   36.2900   44.2120 C   0  0  0  0  0  0  0  0  0  0  0  0
   45.3190   36.0360   43.0710 N   0  0  0  0  0  0  0  0  0  0  0  0
   47.7490   32.0840   40.8210 O   0  0  0  0  0  0  0  0  0  0  0  0
   50.3900   31.4200   41.2410 O   0  0  0  0  0  0  0  0  0  0  0  0
   50.9550   31.4110   39.9630 C   0  0  0  0  0  0  0  0  0  0  0  0
   52.3220   31.3840   39.8530 C   0  0  0  0  0  0  0  0  0  0  0  0
   52.9710   31.3730   38.6130 C   0  0  0  0  0  0  0  0  0  0  0  0
   52.2420   31.3890   37.5040 N   0  0  0  0  0  0  0  0  0  0  0  0
   50.8940   31.4160   37.6060 C   0  0  0  0  0  0  0  0  0  0  0  0
   50.2860   31.4260   38.8030 N   0  0  0  0  0  0  0  0  0  0  0  0
   50.0320   31.4350   36.3870 C   0  0  0  0  0  0  0  0  0  0  0  0
   49.3660   30.1220   36.1120 C   0  0  0  0  0  0  0  0  0  0  0  0
   47.9740   30.3590   35.5760 C   0  0  0  0  0  0  0  0  0  0  0  0
   47.9580   31.4450   34.5130 C   0  0  0  0  0  0  0  0  0  0  0  0
   48.5000   32.7550   35.0270 C   0  0  0  0  0  0  0  0  0  0  0  0
   48.9990   32.5650   36.4640 C   0  0  0  0  0  0  0  0  0  0  0  0
   48.5944   36.1370   42.7790 H   0  0  0  0  0  0  0  0  0  0  0  0
   50.9735   35.4740   43.1340 H   0  0  0  0  0  0  0  0  0  0  0  0
   51.7609   33.2567   42.3898 H   0  0  0  0  0  0  0  0  0  0  0  0
   46.5882   35.4503   40.9378 H   0  0  0  0  0  0  0  0  0  0  0  0
   46.1951   33.7011   41.1175 H   0  0  0  0  0  0  0  0  0  0  0  0
   46.5057   32.9240   43.7297 H   0  0  0  0  0  0  0  0  0  0  0  0
   45.3123   33.4362   45.8900 H   0  0  0  0  0  0  0  0  0  0  0  0
   44.1737   37.2474   44.3594 H   0  0  0  0  0  0  0  0  0  0  0  0
   46.7930   32.2735   40.6468 H   0  0  0  0  0  0  0  0  0  0  0  0
   52.9287   31.3705   40.7704 H   0  0  0  0  0  0  0  0  0  0  0  0
   54.0694   31.3514   38.5584 H   0  0  0  0  0  0  0  0  0  0  0  0
   50.7050   31.6243   35.5377 H   0  0  0  0  0  0  0  0  0  0  0  0
   49.9535   29.5627   35.3690 H   0  0  0  0  0  0  0  0  0  0  0  0
   49.3031   29.5432   37.0453 H   0  0  0  0  0  0  0  0  0  0  0  0
   47.5975   29.4238   35.1358 H   0  0  0  0  0  0  0  0  0  0  0  0
   47.3366   30.6867   36.4104 H   0  0  0  0  0  0  0  0  0  0  0  0
   46.9213   31.5977   34.1785 H   0  0  0  0  0  0  0  0  0  0  0  0
   48.6023   31.1154   33.6846 H   0  0  0  0  0  0  0  0  0  0  0  0
   49.3332   33.0842   34.3887 H   0  0  0  0  0  0  0  0  0  0  0  0
   47.7059   33.5160   35.0091 H   0  0  0  0  0  0  0  0  0  0  0  0
   48.1675   32.2825   37.1265 H   0  0  0  0  0  0  0  0  0  0  0  0
   49.4321   33.4895   36.8735 H   0  0  0  0  0  0  0  0  0  0  0  0
  1  6  2  0
  1  2  1  0
  2  3  2  0
  3  4  1  0
  5  4  2  0
  6  5  1  0
  7  2  1  0
  7  8  1  0
  8 13  1  0
  8  9  2  0
  9 10  1  0
 10 11  2  0
 12 11  1  0
 13 12  2  0
 14  1  1  0
 15  6  1  0
 16 15  1  0
 17 16  2  0
 18 17  1  0
 19 20  1  0
 19 18  2  0
 20 21  2  0
 21 16  1  0
 22 27  1  0
 22 20  1  0
 23 22  1  0
 24 23  1  0
 25 26  1  0
 25 24  1  0
 26 27  1  0
  3 28  1  0
  4 29  1  0
  5 30  1  0
  7 31  1  0
  7 32  1  0
  9 33  1  0
 10 34  1  0
 12 35  1  0
 14 36  1  0
 17 37  1  0
 18 38  1  0
 22 39  1  0
 23 40  1  0
 23 41  1  0
 24 42  1  0
 24 43  1  0
 25 44  1  0
 25 45  1  0
 26 46  1  0
 26 47  1  0
 27 48  1  0
 27 49  1  0
M  ISO  8  28  14  29  14  30  14  31   8  32   8  33  14  34  14  35  14
M  ISO  8  36   3  37  14  38  14  39  13  40  13  41  13  42  13  43  13
M  ISO  6  44  13  45  13  46  13  47  13  48  13  49  13
M  END
>  <minimizedAffinity>  (1) 
-5.9009943

>  <minimizedRMSD>  (1) 
0.636092544

$$$$
