
     RDKit          3D

 36 37  0  0  1  0  0  0  0  0999 V2000
   46.4980   34.7110   43.3110 O   0  0  0  0  0  0  0  0  0  0  0  0
   46.4020   33.8420   42.2250 C   0  0  1  0  0  0  0  0  0  0  0  0
   45.6510   34.4640   41.0660 C   0  0  0  0  0  0  0  0  0  0  0  0
   45.9630   33.4940   39.9560 C   0  0  0  0  0  0  0  0  0  0  0  0
   47.3130   32.8990   40.2960 C   0  0  0  0  0  0  0  0  0  0  0  0
   47.7460   33.6030   41.5710 C   0  0  1  0  0  0  0  0  0  0  0  0
   48.5080   34.8660   41.2970 C   0  0  0  0  0  0  0  0  0  0  0  0
   49.9010   34.9270   42.4680 S   0  0  0  0  0  0  0  0  0  0  0  0
   44.4760   35.4400   44.7560 O   0  0  0  0  0  0  0  0  0  0  0  0
   45.3750   34.2570   44.4770 P   0  0  1  0  0  0  0  0  0  0  0  0
   44.5140   32.9050   43.9910 O   0  0  0  0  0  0  0  0  0  0  0  0
   46.1940   33.8260   45.8810 O   0  0  0  0  0  0  0  0  0  0  0  0
   46.5170   32.5040   45.8090 C   0  0  0  0  0  0  0  0  0  0  0  0
   45.4580   31.6120   49.2690 C   0  0  0  0  0  0  0  0  0  0  0  0
   45.9490   32.3650   48.1870 C   0  0  0  0  0  0  0  0  0  0  0  0
   46.0040   31.7280   46.9500 C   0  0  0  0  0  0  0  0  0  0  0  0
   45.5860   30.4280   46.8460 N   0  0  0  0  0  0  0  0  0  0  0  0
   45.1210   29.7380   47.9040 C   0  0  0  0  0  0  0  0  0  0  0  0
   45.0590   30.3270   49.0980 N   0  0  0  0  0  0  0  0  0  0  0  0
   45.9302   32.9453   42.6532 H   0  0  0  0  0  0  0  0  0  0  0  0
   44.5705   34.5126   41.2662 H   0  0  0  0  0  0  0  0  0  0  0  0
   45.9385   35.5034   40.8494 H   0  0  0  0  0  0  0  0  0  0  0  0
   46.0078   34.0185   38.9902 H   0  0  0  0  0  0  0  0  0  0  0  0
   45.1889   32.7175   39.8672 H   0  0  0  0  0  0  0  0  0  0  0  0
   47.2263   31.8153   40.4636 H   0  0  0  0  0  0  0  0  0  0  0  0
   48.0404   33.0357   39.4823 H   0  0  0  0  0  0  0  0  0  0  0  0
   48.4506   33.0346   42.1958 H   0  0  0  0  0  0  0  0  0  0  0  0
   48.8854   34.8607   40.2638 H   0  0  0  0  0  0  0  0  0  0  0  0
   47.8588   35.7455   41.4198 H   0  0  0  0  0  0  0  0  0  0  0  0
   49.4205   34.9060   43.7508 H   0  0  0  0  0  0  0  0  0  0  0  0
   44.1989   32.4102   44.7885 H   0  0  0  0  0  0  0  0  0  0  0  0
   46.0933   32.0887   44.8827 H   0  0  0  0  0  0  0  0  0  0  0  0
   47.6144   32.4300   45.8250 H   0  0  0  0  0  0  0  0  0  0  0  0
   45.3969   32.0713   50.2667 H   0  0  0  0  0  0  0  0  0  0  0  0
   46.2743   33.4083   48.3122 H   0  0  0  0  0  0  0  0  0  0  0  0
   44.7942   28.6945   47.7840 H   0  0  0  0  0  0  0  0  0  0  0  0
  1 10  1  0
  2  1  1  0
  3  2  1  0
  4  5  1  0
  4  3  1  0
  5  6  1  0
  6  2  1  0
  7  6  1  0
  7  8  1  0
 10  9  2  0
 10 12  1  0
 11 10  1  0
 13 12  1  0
 13 16  1  0
 15 14  2  0
 16 15  1  0
 17 16  2  0
 17 18  1  0
 18 19  2  0
 19 14  1  0
  2 20  1  1
  3 21  1  0
  3 22  1  0
  4 23  1  0
  4 24  1  0
  5 25  1  0
  5 26  1  0
  6 27  1  1
  7 28  1  0
  7 29  1  0
  8 30  1  0
 11 31  1  0
 13 32  1  0
 13 33  1  0
 14 34  1  0
 15 35  1  0
 18 36  1  0
M  ISO  8  20  13  21  13  22  13  23  13  24  13  25  13  26  13  27  13
M  ISO  8  28   8  29   8  30  11  31   3  32   8  33   8  34  14  35  14
M  ISO  1  36  14
M  END
>  <minimizedAffinity>  (1) 
-4.72959137

>  <minimizedRMSD>  (1) 
0.918652415

$$$$
