
     RDKit          3D

 36 37  0  0  1  0  0  0  0  0999 V2000
   46.6020   34.8970   43.2600 O   0  0  0  0  0  0  0  0  0  0  0  0
   46.7880   33.9830   42.2240 C   0  0  1  0  0  0  0  0  0  0  0  0
   46.0710   34.4130   40.9570 C   0  0  0  0  0  0  0  0  0  0  0  0
   46.6920   33.4650   39.9480 C   0  0  0  0  0  0  0  0  0  0  0  0
   48.0750   33.1460   40.4710 C   0  0  0  0  0  0  0  0  0  0  0  0
   48.2230   33.9660   41.7410 C   0  0  1  0  0  0  0  0  0  0  0  0
   48.7600   35.3440   41.4590 C   0  0  0  0  0  0  0  0  0  0  0  0
   49.6600   35.7570   42.4150 O   0  0  0  0  0  0  0  0  0  0  0  0
   44.7330   35.3530   44.9950 O   0  0  0  0  0  0  0  0  0  0  0  0
   45.5630   34.2420   44.4030 P   0  0  1  0  0  0  0  0  0  0  0  0
   44.6060   33.0370   43.7150 O   0  0  0  0  0  0  0  0  0  0  0  0
   46.4700   33.4930   45.6070 O   0  0  0  0  0  0  0  0  0  0  0  0
   46.2270   32.1560   45.5720 C   0  0  0  0  0  0  0  0  0  0  0  0
   45.6500   31.9040   49.2400 C   0  0  0  0  0  0  0  0  0  0  0  0
   45.9830   32.4500   47.9900 C   0  0  0  0  0  0  0  0  0  0  0  0
   45.8810   31.6010   46.8910 C   0  0  0  0  0  0  0  0  0  0  0  0
   45.4710   30.3090   47.0790 N   0  0  0  0  0  0  0  0  0  0  0  0
   45.1590   29.8180   48.2900 C   0  0  0  0  0  0  0  0  0  0  0  0
   45.2500   30.6120   49.3600 N   0  0  0  0  0  0  0  0  0  0  0  0
   46.4367   33.0298   42.6458 H   0  0  0  0  0  0  0  0  0  0  0  0
   44.9838   34.2654   41.0363 H   0  0  0  0  0  0  0  0  0  0  0  0
   46.1802   35.4792   40.7096 H   0  0  0  0  0  0  0  0  0  0  0  0
   46.7583   33.9469   38.9614 H   0  0  0  0  0  0  0  0  0  0  0  0
   46.0875   32.5541   39.8263 H   0  0  0  0  0  0  0  0  0  0  0  0
   48.1647   32.0724   40.6931 H   0  0  0  0  0  0  0  0  0  0  0  0
   48.8567   33.3855   39.7351 H   0  0  0  0  0  0  0  0  0  0  0  0
   48.9387   33.5641   42.4733 H   0  0  0  0  0  0  0  0  0  0  0  0
   49.2620   35.3351   40.4802 H   0  0  0  0  0  0  0  0  0  0  0  0
   47.9124   36.0451   41.4679 H   0  0  0  0  0  0  0  0  0  0  0  0
   49.2866   35.5856   43.3157 H   0  0  0  0  0  0  0  0  0  0  0  0
   44.1817   32.5028   44.4324 H   0  0  0  0  0  0  0  0  0  0  0  0
   45.3905   31.9694   44.8825 H   0  0  0  0  0  0  0  0  0  0  0  0
   47.1512   31.6615   45.2384 H   0  0  0  0  0  0  0  0  0  0  0  0
   45.7144   32.5347   50.1389 H   0  0  0  0  0  0  0  0  0  0  0  0
   46.3080   33.4956   47.8842 H   0  0  0  0  0  0  0  0  0  0  0  0
   44.8321   28.7734   48.3990 H   0  0  0  0  0  0  0  0  0  0  0  0
  1 10  1  0
  2  1  1  0
  3  2  1  0
  4  5  1  0
  4  3  1  0
  5  6  1  0
  6  2  1  0
  7  6  1  0
  7  8  1  0
 10  9  2  0
 10 12  1  0
 11 10  1  0
 13 12  1  0
 13 16  1  0
 14 19  2  0
 15 14  1  0
 16 17  1  0
 16 15  2  0
 17 18  2  0
 18 19  1  0
  2 20  1  1
  3 21  1  0
  3 22  1  0
  4 23  1  0
  4 24  1  0
  5 25  1  0
  5 26  1  0
  6 27  1  1
  7 28  1  0
  7 29  1  0
  8 30  1  0
 11 31  1  0
 13 32  1  0
 13 33  1  0
 14 34  1  0
 15 35  1  0
 18 36  1  0
M  ISO  8  20  13  21  13  22  13  23  13  24  13  25  13  26  13  27  13
M  ISO  8  28   8  29   8  30   3  31   3  32   8  33   8  34  14  35  14
M  ISO  1  36  14
M  END
>  <minimizedAffinity>  (1) 
-4.95079374

>  <minimizedRMSD>  (1) 
0.474121153

$$$$
