
     RDKit          3D

 40 43  0  0  0  0  0  0  0  0999 V2000
   48.3310   33.1030   41.4490 C   0  0  0  0  0  0  0  0  0  0  0  0
   47.9060   34.3200   41.9150 C   0  0  0  0  0  0  0  0  0  0  0  0
   48.8070   35.1570   42.5030 C   0  0  0  0  0  0  0  0  0  0  0  0
   50.1380   34.7710   42.6220 C   0  0  0  0  0  0  0  0  0  0  0  0
   50.5320   33.5400   42.1420 C   0  0  0  0  0  0  0  0  0  0  0  0
   49.6140   32.6690   41.5360 C   0  0  0  0  0  0  0  0  0  0  0  0
   46.4820   34.6460   41.7490 C   0  0  0  0  0  0  0  0  0  0  0  0
   45.8330   34.8780   43.1000 C   0  0  0  0  0  0  0  0  0  0  0  0
   45.9530   33.8710   44.0550 C   0  0  0  0  0  0  0  0  0  0  0  0
   45.3590   34.0990   45.2790 C   0  0  0  0  0  0  0  0  0  0  0  0
   44.7050   35.2620   45.4810 N   0  0  0  0  0  0  0  0  0  0  0  0
   44.6090   36.2200   44.5260 C   0  0  0  0  0  0  0  0  0  0  0  0
   45.1750   36.0170   43.3460 N   0  0  0  0  0  0  0  0  0  0  0  0
   47.4800   32.1730   40.8290 O   0  0  0  0  0  0  0  0  0  0  0  0
   50.1300   31.4530   41.0880 O   0  0  0  0  0  0  0  0  0  0  0  0
   50.5410   31.4610   39.7580 C   0  0  0  0  0  0  0  0  0  0  0  0
   51.8910   31.4020   39.4860 C   0  0  0  0  0  0  0  0  0  0  0  0
   52.4030   31.4050   38.1900 C   0  0  0  0  0  0  0  0  0  0  0  0
   51.5400   31.4680   37.1660 N   0  0  0  0  0  0  0  0  0  0  0  0
   50.2290   31.5240   37.4360 C   0  0  0  0  0  0  0  0  0  0  0  0
   49.7290   31.5230   38.6760 N   0  0  0  0  0  0  0  0  0  0  0  0
   49.2920   31.5940   36.2800 C   0  0  0  0  0  0  0  0  0  0  0  0
   47.8530   31.8180   36.5550 C   0  0  0  0  0  0  0  0  0  0  0  0
   48.6630   32.9640   36.0320 C   0  0  0  0  0  0  0  0  0  0  0  0
   48.4818   36.1367   42.8830 H   0  0  0  0  0  0  0  0  0  0  0  0
   50.8700   35.4421   43.0950 H   0  0  0  0  0  0  0  0  0  0  0  0
   51.5848   33.2353   42.2358 H   0  0  0  0  0  0  0  0  0  0  0  0
   46.3871   35.5570   41.1398 H   0  0  0  0  0  0  0  0  0  0  0  0
   45.9785   33.8046   41.2505 H   0  0  0  0  0  0  0  0  0  0  0  0
   46.4958   32.9380   43.8431 H   0  0  0  0  0  0  0  0  0  0  0  0
   45.4175   33.3448   46.0776 H   0  0  0  0  0  0  0  0  0  0  0  0
   44.0670   37.1554   44.7292 H   0  0  0  0  0  0  0  0  0  0  0  0
   46.5197   32.3828   40.7108 H   0  0  0  0  0  0  0  0  0  0  0  0
   52.5954   31.3503   40.3293 H   0  0  0  0  0  0  0  0  0  0  0  0
   53.4874   31.3569   38.0117 H   0  0  0  0  0  0  0  0  0  0  0  0
   49.8499   30.8532   35.6884 H   0  0  0  0  0  0  0  0  0  0  0  0
   47.0952   31.3474   35.9114 H   0  0  0  0  0  0  0  0  0  0  0  0
   47.2074   31.6719   37.4336 H   0  0  0  0  0  0  0  0  0  0  0  0
   48.9087   33.8128   36.6870 H   0  0  0  0  0  0  0  0  0  0  0  0
   48.5902   33.6518   35.1767 H   0  0  0  0  0  0  0  0  0  0  0  0
  1  6  2  0
  1  2  1  0
  2  3  2  0
  3  4  1  0
  5  4  2  0
  6  5  1  0
  7  2  1  0
  7  8  1  0
  8 13  1  0
  8  9  2  0
  9 10  1  0
 10 11  2  0
 12 11  1  0
 13 12  2  0
 14  1  1  0
 15  6  1  0
 16 15  1  0
 17 16  2  0
 18 17  1  0
 19 20  1  0
 19 18  2  0
 20 21  2  0
 21 16  1  0
 22 23  1  0
 22 20  1  0
 24 22  1  0
 24 23  1  0
  3 25  1  0
  4 26  1  0
  5 27  1  0
  7 28  1  0
  7 29  1  0
  9 30  1  0
 10 31  1  0
 12 32  1  0
 14 33  1  0
 17 34  1  0
 18 35  1  0
 22 36  1  0
 23 37  1  0
 23 38  1  0
 24 39  1  0
 24 40  1  0
M  ISO  8  25  14  26  14  27  14  28   8  29   8  30  14  31  14  32  14
M  ISO  8  33   3  34  14  35  14  36  13  37  13  38  13  39  13  40  13
M  END
>  <minimizedAffinity>  (1) 
-5.53011322

>  <minimizedRMSD>  (1) 
0.813889027

$$$$
