
     RDKit          3D

 26 28  0  0  0  0  0  0  0  0999 V2000
   47.4300   31.7920   43.9070 C   0  0  0  0  0  0  0  0  0  0  0  0
   47.4420   33.1510   43.6580 C   0  0  0  0  0  0  0  0  0  0  0  0
   48.4500   33.7270   42.9110 C   0  0  0  0  0  0  0  0  0  0  0  0
   49.4770   32.9680   42.3880 C   0  0  0  0  0  0  0  0  0  0  0  0
   50.5620   33.2480   41.6430 N   0  0  0  0  0  0  0  0  0  0  0  0
   51.2030   32.0820   41.4400 C   0  0  0  0  0  0  0  0  0  0  0  0
   50.5750   31.0070   42.0320 C   0  0  0  0  0  0  0  0  0  0  0  0
   49.4660   31.6010   42.6370 C   0  0  0  0  0  0  0  0  0  0  0  0
   48.4580   30.9990   43.3880 C   0  0  0  0  0  0  0  0  0  0  0  0
   44.8970   34.6590   45.8560 C   0  0  0  0  0  0  0  0  0  0  0  0
   44.4320   35.7180   45.0560 C   0  0  0  0  0  0  0  0  0  0  0  0
   44.9940   35.9060   43.7720 C   0  0  0  0  0  0  0  0  0  0  0  0
   45.9620   35.0320   43.3960 N   0  0  0  0  0  0  0  0  0  0  0  0
   46.3930   34.0250   44.1750 C   0  0  0  0  0  0  0  0  0  0  0  0
   45.8650   33.8350   45.4060 N   0  0  0  0  0  0  0  0  0  0  0  0
   44.3250   34.4810   47.1440 N   0  0  0  0  0  0  0  0  0  0  0  0
   46.6240   31.3408   44.5044 H   0  0  0  0  0  0  0  0  0  0  0  0
   48.4342   34.8118   42.7292 H   0  0  0  0  0  0  0  0  0  0  0  0
   50.8468   34.1748   41.2955 H   0  0  0  0  0  0  0  0  0  0  0  0
   52.1339   31.9956   40.8603 H   0  0  0  0  0  0  0  0  0  0  0  0
   50.8727   29.9481   42.0285 H   0  0  0  0  0  0  0  0  0  0  0  0
   48.4710   29.9142   43.5700 H   0  0  0  0  0  0  0  0  0  0  0  0
   43.6427   36.3902   45.4236 H   0  0  0  0  0  0  0  0  0  0  0  0
   44.6630   36.7203   43.1107 H   0  0  0  0  0  0  0  0  0  0  0  0
   44.6482   33.7129   47.7493 H   0  0  0  0  0  0  0  0  0  0  0  0
   43.5871   35.1201   47.4726 H   0  0  0  0  0  0  0  0  0  0  0  0
  2  1  2  0
  2 14  1  0
  3  2  1  0
  4  8  1  0
  4  3  2  0
  5  4  1  0
  6  5  1  0
  6  7  2  0
  7  8  1  0
  8  9  2  0
  9  1  1  0
 10 16  1  0
 11 10  2  0
 12 11  1  0
 13 12  2  0
 13 14  1  0
 14 15  2  0
 15 10  1  0
  1 17  1  0
  3 18  1  0
  5 19  1  0
  6 20  1  0
  7 21  1  0
  9 22  1  0
 11 23  1  0
 12 24  1  0
 16 25  1  0
 16 26  1  0
M  ISO  8  17  14  18  14  19   9  20  14  21  14  22  14  23  14  24  14
M  END
>  <minimizedAffinity>  (1) 
-5.50532055

>  <minimizedRMSD>  (1) 
6.25867748

$$$$
