
     RDKit          3D

 28 29  0  0  0  0  0  0  0  0999 V2000
   44.8990   34.9850   44.4570 C   0  0  0  0  0  0  0  0  0  0  0  0
   45.7510   34.8040   43.3310 C   0  0  0  0  0  0  0  0  0  0  0  0
   46.8700   33.9500   43.4580 C   0  0  0  0  0  0  0  0  0  0  0  0
   47.0610   33.3500   44.6590 N   0  0  0  0  0  0  0  0  0  0  0  0
   46.2280   33.5460   45.7080 C   0  0  0  0  0  0  0  0  0  0  0  0
   45.1720   34.3500   45.5940 N   0  0  0  0  0  0  0  0  0  0  0  0
   43.7820   35.8430   44.3180 N   0  0  0  0  0  0  0  0  0  0  0  0
   46.4970   32.8550   46.9980 C   0  0  0  0  0  0  0  0  0  0  0  0
   45.2480   32.6200   47.8100 C   0  0  0  0  0  0  0  0  0  0  0  0
   45.6930   32.0160   49.1240 C   0  0  0  0  0  0  0  0  0  0  0  0
   46.5190   30.7740   48.9360 C   0  0  0  0  0  0  0  0  0  0  0  0
   47.6070   30.8980   47.9140 C   0  0  0  0  0  0  0  0  0  0  0  0
   47.0370   31.4830   46.6390 C   0  0  0  0  0  0  0  0  0  0  0  0
   45.5427   35.3184   42.3813 H   0  0  0  0  0  0  0  0  0  0  0  0
   47.5579   33.7790   42.6169 H   0  0  0  0  0  0  0  0  0  0  0  0
   43.6049   36.3166   43.4206 H   0  0  0  0  0  0  0  0  0  0  0  0
   43.1462   35.9938   45.1142 H   0  0  0  0  0  0  0  0  0  0  0  0
   47.1818   33.4794   47.5906 H   0  0  0  0  0  0  0  0  0  0  0  0
   44.7261   33.5719   47.9874 H   0  0  0  0  0  0  0  0  0  0  0  0
   44.5519   31.9516   47.2821 H   0  0  0  0  0  0  0  0  0  0  0  0
   46.2931   32.7597   49.6689 H   0  0  0  0  0  0  0  0  0  0  0  0
   44.7899   31.7351   49.6857 H   0  0  0  0  0  0  0  0  0  0  0  0
   46.9820   30.5204   49.9011 H   0  0  0  0  0  0  0  0  0  0  0  0
   45.8334   29.9960   48.5689 H   0  0  0  0  0  0  0  0  0  0  0  0
   48.3981   31.5583   48.2988 H   0  0  0  0  0  0  0  0  0  0  0  0
   48.0289   29.9039   47.7049 H   0  0  0  0  0  0  0  0  0  0  0  0
   46.2273   30.8441   46.2566 H   0  0  0  0  0  0  0  0  0  0  0  0
   47.8050   31.5507   45.8544 H   0  0  0  0  0  0  0  0  0  0  0  0
  1  6  2  0
  2  3  2  0
  2  1  1  0
  3  4  1  0
  4  5  2  0
  5  8  1  0
  6  5  1  0
  7  1  1  0
  8  9  1  0
  9 10  1  0
 11 10  1  0
 12 11  1  0
 13  8  1  0
 13 12  1  0
  2 14  1  0
  3 15  1  0
  7 16  1  0
  7 17  1  0
  8 18  1  0
  9 19  1  0
  9 20  1  0
 10 21  1  0
 10 22  1  0
 11 23  1  0
 11 24  1  0
 12 25  1  0
 12 26  1  0
 13 27  1  0
 13 28  1  0
M  ISO  8  14  14  15  14  18  13  19  13  20  13  21  13  22  13  23  13
M  ISO  5  24  13  25  13  26  13  27  13  28  13
M  END
>  <minimizedAffinity>  (1) 
-5.13493824

>  <minimizedRMSD>  (1) 
1.33832908

$$$$
