
     RDKit          3D

 18 18  0  0  0  0  0  0  0  0999 V2000
   44.8450   35.1700   44.0860 C   0  0  0  0  0  0  0  0  0  0  0  0
   45.7350   35.2630   42.9970 C   0  0  0  0  0  0  0  0  0  0  0  0
   46.9140   34.4930   43.0230 C   0  0  0  0  0  0  0  0  0  0  0  0
   47.1200   33.7010   44.1100 N   0  0  0  0  0  0  0  0  0  0  0  0
   46.2560   33.6340   45.1310 C   0  0  0  0  0  0  0  0  0  0  0  0
   45.1340   34.3570   45.1220 N   0  0  0  0  0  0  0  0  0  0  0  0
   43.6620   35.9420   44.0620 N   0  0  0  0  0  0  0  0  0  0  0  0
   46.6270   32.7780   46.1490 O   0  0  0  0  0  0  0  0  0  0  0  0
   46.6420   32.1410   48.6950 O   0  0  0  0  0  0  0  0  0  0  0  0
   45.7460   32.3480   47.4940 P   0  0  0  0  0  0  0  0  0  0  0  0
   44.5470   33.4460   47.9270 O   0  0  0  0  0  0  0  0  0  0  0  0
   44.9780   30.8540   47.2020 O   0  0  0  0  0  0  0  0  0  0  0  0
   45.5135   35.9228   42.1451 H   0  0  0  0  0  0  0  0  0  0  0  0
   47.6396   34.5304   42.1971 H   0  0  0  0  0  0  0  0  0  0  0  0
   43.4637   36.5557   43.2589 H   0  0  0  0  0  0  0  0  0  0  0  0
   42.9978   35.8911   44.8476 H   0  0  0  0  0  0  0  0  0  0  0  0
   44.4890   33.4991   48.9139 H   0  0  0  0  0  0  0  0  0  0  0  0
   44.7563   30.4227   48.0651 H   0  0  0  0  0  0  0  0  0  0  0  0
  1  6  2  0
  2  3  2  0
  2  1  1  0
  3  4  1  0
  4  5  2  0
  5  8  1  0
  6  5  1  0
  7  1  1  0
  8 10  1  0
 10 11  1  0
 10  9  2  0
 12 10  1  0
  2 13  1  0
  3 14  1  0
  7 15  1  0
  7 16  1  0
 11 17  1  0
 12 18  1  0
M  ISO  4  13  14  14  14  17   3  18   3
M  END
>  <minimizedAffinity>  (1) 
-4.91458893

>  <minimizedRMSD>  (1) 
1.68803203

$$$$
