
     RDKit          3D

 22 23  0  0  0  0  0  0  0  0999 V2000
   44.9490   34.9170   45.2680 C   0  0  0  0  0  0  0  0  0  0  0  0
   44.3770   35.9090   44.4530 C   0  0  0  0  0  0  0  0  0  0  0  0
   44.9330   36.1640   43.1720 C   0  0  0  0  0  0  0  0  0  0  0  0
   46.0070   35.4190   42.8080 N   0  0  0  0  0  0  0  0  0  0  0  0
   46.5350   34.4780   43.6060 C   0  0  0  0  0  0  0  0  0  0  0  0
   46.0170   34.2300   44.8160 N   0  0  0  0  0  0  0  0  0  0  0  0
   44.3920   34.6660   46.5440 N   0  0  0  0  0  0  0  0  0  0  0  0
   47.6850   33.6870   43.2040 C   0  0  0  0  0  0  0  0  0  0  0  0
   48.8360   34.3120   42.7570 C   0  0  0  0  0  0  0  0  0  0  0  0
   49.9690   33.6510   42.3570 C   0  0  0  0  0  0  0  0  0  0  0  0
   49.9550   32.2540   42.4060 C   0  0  0  0  0  0  0  0  0  0  0  0
   48.8210   31.5890   42.8490 C   0  0  0  0  0  0  0  0  0  0  0  0
   47.7060   32.3000   43.2400 C   0  0  0  0  0  0  0  0  0  0  0  0
   43.5066   36.4824   44.8045 H   0  0  0  0  0  0  0  0  0  0  0  0
   44.5123   36.9307   42.5048 H   0  0  0  0  0  0  0  0  0  0  0  0
   44.8015   33.9418   47.1513 H   0  0  0  0  0  0  0  0  0  0  0  0
   43.5770   35.2074   46.8657 H   0  0  0  0  0  0  0  0  0  0  0  0
   48.8425   35.4114   42.7201 H   0  0  0  0  0  0  0  0  0  0  0  0
   50.8567   34.2002   42.0101 H   0  0  0  0  0  0  0  0  0  0  0  0
   50.8418   31.6829   42.0938 H   0  0  0  0  0  0  0  0  0  0  0  0
   48.8112   30.4898   42.8886 H   0  0  0  0  0  0  0  0  0  0  0  0
   46.8150   31.7565   43.5875 H   0  0  0  0  0  0  0  0  0  0  0  0
  1  7  1  0
  2  1  2  0
  3  2  1  0
  4  3  2  0
  4  5  1  0
  5  6  2  0
  6  1  1  0
  8 13  1  0
  8  5  1  0
  9  8  2  0
 10 11  2  0
 10  9  1  0
 11 12  1  0
 12 13  2  0
  2 14  1  0
  3 15  1  0
  7 16  1  0
  7 17  1  0
  9 18  1  0
 10 19  1  0
 11 20  1  0
 12 21  1  0
 13 22  1  0
M  ISO  7  14  14  15  14  18  14  19  14  20  14  21  14  22  14
M  END
>  <minimizedAffinity>  (1) 
-4.79437733

>  <minimizedRMSD>  (1) 
5.22165346

$$$$
