
     RDKit          3D

 15 15  0  0  0  0  0  0  0  0999 V2000
   44.9080   35.1030   44.1790 C   0  0  0  0  0  0  0  0  0  0  0  0
   45.7530   35.2190   43.0630 C   0  0  0  0  0  0  0  0  0  0  0  0
   46.9460   34.4530   43.0240 C   0  0  0  0  0  0  0  0  0  0  0  0
   47.1890   33.6450   44.0940 N   0  0  0  0  0  0  0  0  0  0  0  0
   46.3590   33.5630   45.1400 C   0  0  0  0  0  0  0  0  0  0  0  0
   45.2360   34.2790   45.1850 N   0  0  0  0  0  0  0  0  0  0  0  0
   43.7160   35.8650   44.2260 N   0  0  0  0  0  0  0  0  0  0  0  0
   46.6860   32.6560   46.2830 C   0  0  0  0  0  0  0  0  0  0  0  0
   45.4938   35.8928   42.2330 H   0  0  0  0  0  0  0  0  0  0  0  0
   47.6403   34.5084   42.1726 H   0  0  0  0  0  0  0  0  0  0  0  0
   43.4759   36.4941   43.4466 H   0  0  0  0  0  0  0  0  0  0  0  0
   43.0888   35.7903   45.0396 H   0  0  0  0  0  0  0  0  0  0  0  0
   46.4973   33.1793   47.2320 H   0  0  0  0  0  0  0  0  0  0  0  0
   46.0557   31.7561   46.2289 H   0  0  0  0  0  0  0  0  0  0  0  0
   47.7455   32.3653   46.2289 H   0  0  0  0  0  0  0  0  0  0  0  0
  1  7  1  0
  1  6  2  0
  2  1  1  0
  3  2  2  0
  3  4  1  0
  4  5  2  0
  5  6  1  0
  5  8  1  0
  2  9  1  0
  3 10  1  0
  7 11  1  0
  7 12  1  0
  8 13  1  0
  8 14  1  0
  8 15  1  0
M  ISO  5   9  14  10  14  13   8  14   8  15   8
M  END
>  <minimizedAffinity>  (1) 
-3.54134345

>  <minimizedRMSD>  (1) 
1.12070501

$$$$
