
     RDKit          3D

 29 30  0  0  0  0  0  0  0  0999 V2000
   44.8930   35.0560   44.4470 C   0  0  0  0  0  0  0  0  0  0  0  0
   45.8640   34.9330   43.4420 C   0  0  0  0  0  0  0  0  0  0  0  0
   46.9300   34.0420   43.6200 C   0  0  0  0  0  0  0  0  0  0  0  0
   46.9430   33.3500   44.7770 N   0  0  0  0  0  0  0  0  0  0  0  0
   46.0170   33.4700   45.7310 C   0  0  0  0  0  0  0  0  0  0  0  0
   45.0050   34.3250   45.5490 N   0  0  0  0  0  0  0  0  0  0  0  0
   43.8070   35.9690   44.2580 N   0  0  0  0  0  0  0  0  0  0  0  0
   46.0190   32.7320   46.9830 C   0  0  0  0  0  0  0  0  0  0  0  0
   45.0960   32.8210   47.8480 O   0  0  0  0  0  0  0  0  0  0  0  0
   47.0450   31.8190   47.4020 N   0  0  0  0  0  0  0  0  0  0  0  0
   47.0240   30.5510   46.7300 C   0  0  0  0  0  0  0  0  0  0  0  0
   48.3480   29.8540   46.9270 C   0  0  0  0  0  0  0  0  0  0  0  0
   48.6910   29.6510   48.3810 C   0  0  0  0  0  0  0  0  0  0  0  0
   48.3670   30.8530   49.2260 C   0  0  0  0  0  0  0  0  0  0  0  0
   48.0420   32.0730   48.3960 C   0  0  0  0  0  0  0  0  0  0  0  0
   45.7889   35.5312   42.5220 H   0  0  0  0  0  0  0  0  0  0  0  0
   47.7130   33.9140   42.8581 H   0  0  0  0  0  0  0  0  0  0  0  0
   43.7453   36.5238   43.3924 H   0  0  0  0  0  0  0  0  0  0  0  0
   43.0872   36.0712   44.9876 H   0  0  0  0  0  0  0  0  0  0  0  0
   46.8491   30.7086   45.6555 H   0  0  0  0  0  0  0  0  0  0  0  0
   46.2175   29.9294   47.1460 H   0  0  0  0  0  0  0  0  0  0  0  0
   48.3041   28.8708   46.4357 H   0  0  0  0  0  0  0  0  0  0  0  0
   49.1277   30.4946   46.4892 H   0  0  0  0  0  0  0  0  0  0  0  0
   48.1212   28.7899   48.7603 H   0  0  0  0  0  0  0  0  0  0  0  0
   49.7758   29.4808   48.4464 H   0  0  0  0  0  0  0  0  0  0  0  0
   47.4993   30.6157   49.8591 H   0  0  0  0  0  0  0  0  0  0  0  0
   49.2563   31.0867   49.8298 H   0  0  0  0  0  0  0  0  0  0  0  0
   48.9605   32.4111   47.8939 H   0  0  0  0  0  0  0  0  0  0  0  0
   47.6427   32.8393   49.0767 H   0  0  0  0  0  0  0  0  0  0  0  0
  1  6  2  0
  2  3  2  0
  2  1  1  0
  3  4  1  0
  4  5  2  0
  5  8  1  0
  6  5  1  0
  7  1  1  0
  8 10  1  0
  8  9  2  0
 10 15  1  0
 11 12  1  0
 11 10  1  0
 12 13  1  0
 13 14  1  0
 15 14  1  0
  2 16  1  0
  3 17  1  0
  7 18  1  0
  7 19  1  0
 11 20  1  0
 11 21  1  0
 12 22  1  0
 12 23  1  0
 13 24  1  0
 13 25  1  0
 14 26  1  0
 14 27  1  0
 15 28  1  0
 15 29  1  0
M  ISO  8  16  14  17  14  20  13  21  13  22  13  23  13  24  13  25  13
M  ISO  4  26  13  27  13  28  13  29  13
M  END
>  <minimizedAffinity>  (1) 
-5.19656849

>  <minimizedRMSD>  (1) 
0.761696935

$$$$
