
     RDKit          3D

 24 25  0  0  0  0  0  0  0  0999 V2000
   44.9100   35.0400   44.4810 C   0  0  0  0  0  0  0  0  0  0  0  0
   45.8710   34.9080   43.4780 C   0  0  0  0  0  0  0  0  0  0  0  0
   46.9300   34.0030   43.6730 C   0  0  0  0  0  0  0  0  0  0  0  0
   46.9400   33.3190   44.8330 N   0  0  0  0  0  0  0  0  0  0  0  0
   46.0150   33.4520   45.7890 C   0  0  0  0  0  0  0  0  0  0  0  0
   44.9890   34.3240   45.6090 N   0  0  0  0  0  0  0  0  0  0  0  0
   43.8420   35.9600   44.2630 N   0  0  0  0  0  0  0  0  0  0  0  0
   46.0320   32.7070   47.0320 C   0  0  0  0  0  0  0  0  0  0  0  0
   45.0950   32.7940   47.8880 O   0  0  0  0  0  0  0  0  0  0  0  0
   47.1000   31.7940   47.4270 C   0  0  0  0  0  0  0  0  0  0  0  0
   47.4040   30.6250   46.7630 C   0  0  0  0  0  0  0  0  0  0  0  0
   48.4000   29.7480   47.1280 C   0  0  0  0  0  0  0  0  0  0  0  0
   49.1690   30.0420   48.2460 C   0  0  0  0  0  0  0  0  0  0  0  0
   48.9180   31.1930   48.9530 C   0  0  0  0  0  0  0  0  0  0  0  0
   47.9050   32.0200   48.5240 C   0  0  0  0  0  0  0  0  0  0  0  0
   45.8018   35.4998   42.5533 H   0  0  0  0  0  0  0  0  0  0  0  0
   47.7131   33.8607   42.9137 H   0  0  0  0  0  0  0  0  0  0  0  0
   43.7994   36.5016   43.3879 H   0  0  0  0  0  0  0  0  0  0  0  0
   43.1134   36.0827   44.9806 H   0  0  0  0  0  0  0  0  0  0  0  0
   46.8057   30.3742   45.8747 H   0  0  0  0  0  0  0  0  0  0  0  0
   48.5830   28.8328   46.5458 H   0  0  0  0  0  0  0  0  0  0  0  0
   49.9717   29.3598   48.5627 H   0  0  0  0  0  0  0  0  0  0  0  0
   49.5134   31.4479   49.8421 H   0  0  0  0  0  0  0  0  0  0  0  0
   47.7223   32.9368   49.1038 H   0  0  0  0  0  0  0  0  0  0  0  0
  1  6  2  0
  2  3  2  0
  2  1  1  0
  3  4  1  0
  4  5  2  0
  5  8  1  0
  6  5  1  0
  7  1  1  0
  8 10  1  0
  8  9  2  0
 10 15  2  0
 11 12  2  0
 11 10  1  0
 12 13  1  0
 13 14  2  0
 15 14  1  0
  2 16  1  0
  3 17  1  0
  7 18  1  0
  7 19  1  0
 11 20  1  0
 12 21  1  0
 13 22  1  0
 14 23  1  0
 15 24  1  0
M  ISO  7  16  14  17  14  20  14  21  14  22  14  23  14  24  14
M  END
>  <minimizedAffinity>  (1) 
-5.09094763

>  <minimizedRMSD>  (1) 
0.572359502

$$$$
