
     RDKit          3D

 24 25  0  0  0  0  0  0  0  0999 V2000
   45.0480   34.9950   44.3220 C   0  0  0  0  0  0  0  0  0  0  0  0
   46.0970   34.7130   43.4450 C   0  0  0  0  0  0  0  0  0  0  0  0
   47.0580   33.7660   43.8290 C   0  0  0  0  0  0  0  0  0  0  0  0
   46.9030   33.1810   45.0340 N   0  0  0  0  0  0  0  0  0  0  0  0
   45.8960   33.4640   45.8560 C   0  0  0  0  0  0  0  0  0  0  0  0
   44.9670   34.3690   45.5040 N   0  0  0  0  0  0  0  0  0  0  0  0
   44.0790   35.9560   43.9270 N   0  0  0  0  0  0  0  0  0  0  0  0
   45.7110   32.8390   47.1680 C   0  0  0  0  0  0  0  0  0  0  0  0
   44.7620   33.1060   47.9440 O   0  0  0  0  0  0  0  0  0  0  0  0
   45.5350   30.1780   46.2930 F   0  0  0  0  0  0  0  0  0  0  0  0
   46.5800   30.5470   47.0930 C   0  0  0  0  0  0  0  0  0  0  0  0
   46.7180   31.8520   47.5560 C   0  0  0  0  0  0  0  0  0  0  0  0
   47.8000   32.1430   48.3570 C   0  0  0  0  0  0  0  0  0  0  0  0
   48.7530   31.2150   48.7260 C   0  0  0  0  0  0  0  0  0  0  0  0
   48.5870   29.9140   48.2460 C   0  0  0  0  0  0  0  0  0  0  0  0
   47.5170   29.5700   47.4370 C   0  0  0  0  0  0  0  0  0  0  0  0
   46.1685   35.2229   42.4729 H   0  0  0  0  0  0  0  0  0  0  0  0
   47.9038   33.5109   43.1736 H   0  0  0  0  0  0  0  0  0  0  0  0
   44.1613   36.4249   43.0136 H   0  0  0  0  0  0  0  0  0  0  0  0
   43.2942   36.1838   44.5540 H   0  0  0  0  0  0  0  0  0  0  0  0
   47.9111   33.1741   48.7237 H   0  0  0  0  0  0  0  0  0  0  0  0
   49.6035   31.4875   49.3682 H   0  0  0  0  0  0  0  0  0  0  0  0
   49.3241   29.1438   48.5171 H   0  0  0  0  0  0  0  0  0  0  0  0
   47.4063   28.5391   47.0695 H   0  0  0  0  0  0  0  0  0  0  0  0
  1  6  2  0
  2  3  2  0
  2  1  1  0
  3  4  1  0
  4  5  2  0
  5  8  1  0
  6  5  1  0
  7  1  1  0
  8 12  1  0
  8  9  2  0
 10 11  1  0
 11 16  2  0
 11 12  1  0
 12 13  2  0
 13 14  1  0
 15 14  2  0
 16 15  1  0
  2 17  1  0
  3 18  1  0
  7 19  1  0
  7 20  1  0
 13 21  1  0
 14 22  1  0
 15 23  1  0
 16 24  1  0
M  ISO  6  17  14  18  14  21  14  22  14  23  14  24  14
M  END
>  <minimizedAffinity>  (1) 
-4.96252346

>  <minimizedRMSD>  (1) 
1.56069434

$$$$
