
     RDKit          3D

 21 22  0  0  0  0  0  0  0  0999 V2000
   45.0380   35.0250   44.2900 C   0  0  0  0  0  0  0  0  0  0  0  0
   46.0860   34.7740   43.3790 C   0  0  0  0  0  0  0  0  0  0  0  0
   47.0780   33.8420   43.7200 C   0  0  0  0  0  0  0  0  0  0  0  0
   46.9610   33.2370   44.9170 N   0  0  0  0  0  0  0  0  0  0  0  0
   45.9590   33.4860   45.7760 C   0  0  0  0  0  0  0  0  0  0  0  0
   45.0050   34.3720   45.4670 N   0  0  0  0  0  0  0  0  0  0  0  0
   44.0390   35.9660   43.9430 N   0  0  0  0  0  0  0  0  0  0  0  0
   45.8210   32.8440   47.0660 C   0  0  0  0  0  0  0  0  0  0  0  0
   44.8710   32.9830   47.8490 O   0  0  0  0  0  0  0  0  0  0  0  0
   46.8580   31.9500   47.5340 C   0  0  0  0  0  0  0  0  0  0  0  0
   47.9120   32.1090   48.4350 C   0  0  0  0  0  0  0  0  0  0  0  0
   48.7250   31.0530   48.6610 C   0  0  0  0  0  0  0  0  0  0  0  0
   48.5080   29.8100   47.9940 C   0  0  0  0  0  0  0  0  0  0  0  0
   46.9950   30.1800   46.9390 S   0  0  0  0  0  0  0  0  0  0  0  0
   46.1248   35.3018   42.4147 H   0  0  0  0  0  0  0  0  0  0  0  0
   47.9130   33.6161   43.0405 H   0  0  0  0  0  0  0  0  0  0  0  0
   44.0837   36.4542   43.0372 H   0  0  0  0  0  0  0  0  0  0  0  0
   43.2674   36.1625   44.5964 H   0  0  0  0  0  0  0  0  0  0  0  0
   48.0767   33.0682   48.9476 H   0  0  0  0  0  0  0  0  0  0  0  0
   49.5629   31.1527   49.3666 H   0  0  0  0  0  0  0  0  0  0  0  0
   49.0799   28.8739   48.0760 H   0  0  0  0  0  0  0  0  0  0  0  0
  1  6  2  0
  2  3  2  0
  2  1  1  0
  3  4  1  0
  4  5  2  0
  5  8  1  0
  6  5  1  0
  7  1  1  0
  8 10  1  0
  8  9  2  0
 10 11  2  0
 11 12  1  0
 13 12  2  0
 14 10  1  0
 14 13  1  0
  2 15  1  0
  3 16  1  0
  7 17  1  0
  7 18  1  0
 11 19  1  0
 12 20  1  0
 13 21  1  0
M  ISO  5  15  14  16  14  19  14  20  14  21  14
M  END
>  <minimizedAffinity>  (1) 
-4.59239197

>  <minimizedRMSD>  (1) 
0.888975143

$$$$
