
     RDKit          3D

 21 22  0  0  0  0  0  0  0  0999 V2000
   44.8990   35.0250   44.5250 C   0  0  0  0  0  0  0  0  0  0  0  0
   45.8260   34.8420   43.4960 C   0  0  0  0  0  0  0  0  0  0  0  0
   46.8910   33.9420   43.6890 C   0  0  0  0  0  0  0  0  0  0  0  0
   46.9440   33.3080   44.8750 N   0  0  0  0  0  0  0  0  0  0  0  0
   46.0590   33.4850   45.8500 C   0  0  0  0  0  0  0  0  0  0  0  0
   45.0400   34.3510   45.6580 N   0  0  0  0  0  0  0  0  0  0  0  0
   43.8420   35.9370   44.2990 N   0  0  0  0  0  0  0  0  0  0  0  0
   46.0980   32.8110   47.1330 C   0  0  0  0  0  0  0  0  0  0  0  0
   45.0630   32.6070   47.8170 O   0  0  0  0  0  0  0  0  0  0  0  0
   47.3680   32.3170   47.7220 C   0  0  0  0  0  0  0  0  0  0  0  0
   47.5890   30.8070   47.4450 C   0  0  0  0  0  0  0  0  0  0  0  0
   47.4490   31.3760   48.8230 C   0  0  0  0  0  0  0  0  0  0  0  0
   45.7252   35.3929   42.5492 H   0  0  0  0  0  0  0  0  0  0  0  0
   47.6444   33.7652   42.9073 H   0  0  0  0  0  0  0  0  0  0  0  0
   43.7761   36.4367   43.4007 H   0  0  0  0  0  0  0  0  0  0  0  0
   43.1381   36.1016   45.0327 H   0  0  0  0  0  0  0  0  0  0  0  0
   47.8635   33.2893   47.5835 H   0  0  0  0  0  0  0  0  0  0  0  0
   46.7854   30.1956   47.0087 H   0  0  0  0  0  0  0  0  0  0  0  0
   48.3291   30.1962   46.9073 H   0  0  0  0  0  0  0  0  0  0  0  0
   48.3238   31.3985   49.4895 H   0  0  0  0  0  0  0  0  0  0  0  0
   46.7894   31.1470   49.6730 H   0  0  0  0  0  0  0  0  0  0  0  0
  1  6  2  0
  2  3  2  0
  2  1  1  0
  3  4  1  0
  4  5  2  0
  5  8  1  0
  6  5  1  0
  7  1  1  0
  8 10  1  0
  8  9  2  0
 10 12  1  0
 11 10  1  0
 11 12  1  0
  2 13  1  0
  3 14  1  0
  7 15  1  0
  7 16  1  0
 10 17  1  0
 11 18  1  0
 11 19  1  0
 12 20  1  0
 12 21  1  0
M  ISO  7  13  14  14  14  17  13  18  13  19  13  20  13  21  13
M  END
>  <minimizedAffinity>  (1) 
-4.42462063

>  <minimizedRMSD>  (1) 
0.637963593

$$$$
