
     RDKit          3D

 16 16  0  0  0  0  0  0  0  0999 V2000
   44.8980   35.0500   44.4680 C   0  0  0  0  0  0  0  0  0  0  0  0
   45.8460   34.8770   43.4430 C   0  0  0  0  0  0  0  0  0  0  0  0
   46.9090   33.9840   43.6340 C   0  0  0  0  0  0  0  0  0  0  0  0
   46.9660   33.3190   44.8250 N   0  0  0  0  0  0  0  0  0  0  0  0
   46.0510   33.5010   45.7890 C   0  0  0  0  0  0  0  0  0  0  0  0
   45.0400   34.3580   45.5910 N   0  0  0  0  0  0  0  0  0  0  0  0
   43.8200   35.9470   44.2900 N   0  0  0  0  0  0  0  0  0  0  0  0
   46.1100   32.7960   47.0540 C   0  0  0  0  0  0  0  0  0  0  0  0
   45.1100   32.6730   47.8170 O   0  0  0  0  0  0  0  0  0  0  0  0
   47.3400   32.1970   47.4950 N   0  0  0  0  0  0  0  0  0  0  0  0
   45.7537   35.4372   42.5008 H   0  0  0  0  0  0  0  0  0  0  0  0
   47.6684   33.8249   42.8542 H   0  0  0  0  0  0  0  0  0  0  0  0
   43.7288   36.4743   43.4099 H   0  0  0  0  0  0  0  0  0  0  0  0
   43.1258   36.0732   45.0404 H   0  0  0  0  0  0  0  0  0  0  0  0
   47.3758   31.6973   48.3949 H   0  0  0  0  0  0  0  0  0  0  0  0
   48.1856   32.2675   46.9111 H   0  0  0  0  0  0  0  0  0  0  0  0
  1  6  2  0
  2  3  2  0
  2  1  1  0
  3  4  1  0
  4  5  2  0
  5  8  1  0
  6  5  1  0
  7  1  1  0
  8 10  1  0
  8  9  2  0
  2 11  1  0
  3 12  1  0
  7 13  1  0
  7 14  1  0
 10 15  1  0
 10 16  1  0
M  ISO  2  11  14  12  14
M  END
>  <minimizedAffinity>  (1) 
-3.95355344

>  <minimizedRMSD>  (1) 
0.325513452

$$$$
