
     RDKit          3D

 15 15  0  0  0  0  0  0  0  0999 V2000
   44.9110   35.0360   44.4880 C   0  0  0  0  0  0  0  0  0  0  0  0
   45.8250   34.8820   43.4410 C   0  0  0  0  0  0  0  0  0  0  0  0
   46.8950   33.9920   43.6110 C   0  0  0  0  0  0  0  0  0  0  0  0
   46.9800   33.3340   44.7860 N   0  0  0  0  0  0  0  0  0  0  0  0
   46.0880   33.5030   45.7730 C   0  0  0  0  0  0  0  0  0  0  0  0
   45.0470   34.3590   45.6250 N   0  0  0  0  0  0  0  0  0  0  0  0
   43.8310   35.9410   44.3010 N   0  0  0  0  0  0  0  0  0  0  0  0
   46.1710   32.7940   47.0480 C   0  0  0  0  0  0  0  0  0  0  0  0
   45.1710   32.6100   47.7970 O   0  0  0  0  0  0  0  0  0  0  0  0
   47.3890   32.2920   47.4820 O   0  0  0  0  0  0  0  0  0  0  0  0
   45.7071   35.4468   42.5044 H   0  0  0  0  0  0  0  0  0  0  0  0
   47.6383   33.8358   42.8153 H   0  0  0  0  0  0  0  0  0  0  0  0
   43.7397   36.4577   43.4147 H   0  0  0  0  0  0  0  0  0  0  0  0
   43.1397   36.0801   45.0518 H   0  0  0  0  0  0  0  0  0  0  0  0
   47.4469   31.8114   48.3456 H   0  0  0  0  0  0  0  0  0  0  0  0
  1  6  2  0
  2  3  2  0
  2  1  1  0
  3  4  1  0
  4  5  2  0
  5  8  1  0
  6  5  1  0
  7  1  1  0
  8 10  1  0
  8  9  2  0
  2 11  1  0
  3 12  1  0
  7 13  1  0
  7 14  1  0
 10 15  1  0
M  ISO  3  11  14  12  14  15   3
M  END
>  <minimizedAffinity>  (1) 
-3.94407248

>  <minimizedRMSD>  (1) 
0.296572268

$$$$
