
     RDKit          3D

 30 31  0  0  0  0  0  0  0  0999 V2000
   44.8500   35.1160   44.3260 C   0  0  0  0  0  0  0  0  0  0  0  0
   45.7780   35.0520   43.2850 C   0  0  0  0  0  0  0  0  0  0  0  0
   46.8750   34.1930   43.4230 C   0  0  0  0  0  0  0  0  0  0  0  0
   46.9490   33.4850   44.5680 N   0  0  0  0  0  0  0  0  0  0  0  0
   46.0650   33.5480   45.5560 C   0  0  0  0  0  0  0  0  0  0  0  0
   45.0000   34.3750   45.4330 N   0  0  0  0  0  0  0  0  0  0  0  0
   43.7390   35.9820   44.1910 N   0  0  0  0  0  0  0  0  0  0  0  0
   46.1410   32.7900   46.7870 C   0  0  0  0  0  0  0  0  0  0  0  0
   45.2600   32.7740   47.6710 O   0  0  0  0  0  0  0  0  0  0  0  0
   47.2840   31.9320   47.1550 C   0  0  0  0  0  0  0  0  0  0  0  0
   47.3470   31.8570   48.6830 C   0  0  0  0  0  0  0  0  0  0  0  0
   48.5950   31.1080   49.0840 C   0  0  0  0  0  0  0  0  0  0  0  0
   48.5880   29.7590   48.4370 C   0  0  0  0  0  0  0  0  0  0  0  0
   48.4790   29.8380   46.9430 C   0  0  0  0  0  0  0  0  0  0  0  0
   47.1380   30.5040   46.6220 C   0  0  0  0  0  0  0  0  0  0  0  0
   45.6504   35.6617   42.3783 H   0  0  0  0  0  0  0  0  0  0  0  0
   47.6384   34.1004   42.6365 H   0  0  0  0  0  0  0  0  0  0  0  0
   43.6287   36.5491   43.3383 H   0  0  0  0  0  0  0  0  0  0  0  0
   43.0407   36.0452   44.9455 H   0  0  0  0  0  0  0  0  0  0  0  0
   48.1922   32.3706   46.7160 H   0  0  0  0  0  0  0  0  0  0  0  0
   47.3757   32.8737   49.1019 H   0  0  0  0  0  0  0  0  0  0  0  0
   46.4586   31.3347   49.0678 H   0  0  0  0  0  0  0  0  0  0  0  0
   49.4824   31.6690   48.7556 H   0  0  0  0  0  0  0  0  0  0  0  0
   48.6220   30.9933   50.1777 H   0  0  0  0  0  0  0  0  0  0  0  0
   49.5224   29.2392   48.6954 H   0  0  0  0  0  0  0  0  0  0  0  0
   47.7064   29.2155   48.8078 H   0  0  0  0  0  0  0  0  0  0  0  0
   49.3054   30.4391   46.5360 H   0  0  0  0  0  0  0  0  0  0  0  0
   48.5349   28.8355   46.4936 H   0  0  0  0  0  0  0  0  0  0  0  0
   46.9564   30.5102   45.5371 H   0  0  0  0  0  0  0  0  0  0  0  0
   46.2875   29.9729   47.0742 H   0  0  0  0  0  0  0  0  0  0  0  0
  1  6  2  0
  2  3  2  0
  2  1  1  0
  3  4  1  0
  4  5  2  0
  5  8  1  0
  6  5  1  0
  7  1  1  0
  8 10  1  0
  8  9  2  0
 10 11  1  0
 11 12  1  0
 13 12  1  0
 14 13  1  0
 15 14  1  0
 15 10  1  0
  2 16  1  0
  3 17  1  0
  7 18  1  0
  7 19  1  0
 10 20  1  0
 11 21  1  0
 11 22  1  0
 12 23  1  0
 12 24  1  0
 13 25  1  0
 13 26  1  0
 14 27  1  0
 14 28  1  0
 15 29  1  0
 15 30  1  0
M  ISO  8  16  14  17  14  20  13  21  13  22  13  23  13  24  13  25  13
M  ISO  5  26  13  27  13  28  13  29  13  30  13
M  END
>  <minimizedAffinity>  (1) 
-5.05777931

>  <minimizedRMSD>  (1) 
0.218242928

$$$$
