
     RDKit          3D

 45 48  0  0  1  0  0  0  0  0999 V2000
   47.2790   31.8280   47.3490 C   0  0  1  0  0  0  0  0  0  0  0  0
   47.8580   32.4170   48.6200 C   0  0  0  0  0  0  0  0  0  0  0  0
   49.0820   31.6490   49.0250 C   0  0  0  0  0  0  0  0  0  0  0  0
   48.7900   30.1940   49.1060 C   0  0  0  0  0  0  0  0  0  0  0  0
   48.1570   29.6290   47.8740 C   0  0  0  0  0  0  0  0  0  0  0  0
   46.8550   30.3800   47.6550 C   0  0  2  0  0  0  0  0  0  0  0  0
   45.9770   29.7540   46.6950 C   0  0  0  0  0  0  0  0  0  0  0  0
   45.8090   30.0030   45.3260 C   0  0  0  0  0  0  0  0  0  0  0  0
   44.9120   29.2990   44.5500 C   0  0  0  0  0  0  0  0  0  0  0  0
   44.1320   28.3090   45.0950 C   0  0  0  0  0  0  0  0  0  0  0  0
   43.2540   27.6130   44.3600 N   0  0  0  0  0  0  0  0  0  0  0  0
   42.4660   26.6270   44.8650 C   0  0  0  0  0  0  0  0  0  0  0  0
   42.5720   26.3250   46.1980 C   0  0  0  0  0  0  0  0  0  0  0  0
   43.4690   27.0280   46.9750 C   0  0  0  0  0  0  0  0  0  0  0  0
   44.2540   28.0220   46.4300 C   0  0  0  0  0  0  0  0  0  0  0  0
   45.1540   28.7340   47.1900 C   0  0  0  0  0  0  0  0  0  0  0  0
   46.1160   32.6560   46.9370 C   0  0  0  0  0  0  0  0  0  0  0  0
   45.1920   32.5960   47.7930 O   0  0  0  0  0  0  0  0  0  0  0  0
   44.9160   35.0400   44.4920 C   0  0  0  0  0  0  0  0  0  0  0  0
   45.8470   34.9380   43.4500 C   0  0  0  0  0  0  0  0  0  0  0  0
   46.9170   34.0360   43.5850 C   0  0  0  0  0  0  0  0  0  0  0  0
   46.9550   33.3300   44.7310 N   0  0  0  0  0  0  0  0  0  0  0  0
   46.0830   33.4210   45.7120 C   0  0  0  0  0  0  0  0  0  0  0  0
   45.0410   34.2910   45.5960 N   0  0  0  0  0  0  0  0  0  0  0  0
   43.8480   35.9450   44.3510 N   0  0  0  0  0  0  0  0  0  0  0  0
   48.0101   31.8223   46.5272 H   0  0  0  0  0  0  0  0  0  0  0  0
   48.1283   33.4688   48.4449 H   0  0  0  0  0  0  0  0  0  0  0  0
   47.1086   32.3554   49.4229 H   0  0  0  0  0  0  0  0  0  0  0  0
   49.8752   31.8167   48.2816 H   0  0  0  0  0  0  0  0  0  0  0  0
   49.4057   31.9991   50.0163 H   0  0  0  0  0  0  0  0  0  0  0  0
   49.7357   29.6612   49.2840 H   0  0  0  0  0  0  0  0  0  0  0  0
   48.0669   30.0605   49.9241 H   0  0  0  0  0  0  0  0  0  0  0  0
   48.8230   29.7688   47.0098 H   0  0  0  0  0  0  0  0  0  0  0  0
   47.9720   28.5507   47.9887 H   0  0  0  0  0  0  0  0  0  0  0  0
   46.2071   30.3645   48.5438 H   0  0  0  0  0  0  0  0  0  0  0  0
   46.4153   30.7894   44.8527 H   0  0  0  0  0  0  0  0  0  0  0  0
   44.8202   29.5340   43.4793 H   0  0  0  0  0  0  0  0  0  0  0  0
   41.7600   26.0843   44.2192 H   0  0  0  0  0  0  0  0  0  0  0  0
   41.9505   25.5332   46.6417 H   0  0  0  0  0  0  0  0  0  0  0  0
   43.5595   26.7921   48.0456 H   0  0  0  0  0  0  0  0  0  0  0  0
   45.2324   28.4852   48.2586 H   0  0  0  0  0  0  0  0  0  0  0  0
   45.7428   35.5521   42.5433 H   0  0  0  0  0  0  0  0  0  0  0  0
   47.6784   33.9142   42.8005 H   0  0  0  0  0  0  0  0  0  0  0  0
   43.7647   36.5143   43.4967 H   0  0  0  0  0  0  0  0  0  0  0  0
   43.1494   36.0383   45.1021 H   0  0  0  0  0  0  0  0  0  0  0  0
  1  6  1  0
  1  2  1  0
  2  3  1  0
  3  4  1  0
  5  4  1  0
  6  5  1  0
  7 16  1  0
  7  6  1  0
  8  7  2  0
  9 10  2  0
  9  8  1  0
 10 15  1  0
 11 12  2  0
 11 10  1  0
 12 13  1  0
 13 14  2  0
 15 14  1  0
 15 16  2  0
 17  1  1  0
 17 18  2  0
 19 24  2  0
 20 21  2  0
 20 19  1  0
 21 22  1  0
 22 23  2  0
 23 17  1  0
 24 23  1  0
 25 19  1  0
  1 26  1  6
  2 27  1  0
  2 28  1  0
  3 29  1  0
  3 30  1  0
  4 31  1  0
  4 32  1  0
  5 33  1  0
  5 34  1  0
  6 35  1  1
  8 36  1  0
  9 37  1  0
 12 38  1  0
 13 39  1  0
 14 40  1  0
 16 41  1  0
 20 42  1  0
 21 43  1  0
 25 44  1  0
 25 45  1  0
M  ISO  8  26  13  27  13  28  13  29  13  30  13  31  13  32  13  33  13
M  ISO  8  34  13  35  13  36  14  37  14  38  14  39  14  40  14  41  14
M  ISO  2  42  14  43  14
M  END
>  <minimizedAffinity>  (1) 
-6.26527691

>  <minimizedRMSD>  (1) 
2.40635252

$$$$
