
     RDKit          3D

 40 42  0  0  1  0  0  0  0  0999 V2000
   47.1480   31.9270   47.1680 C   0  0  1  0  0  0  0  0  0  0  0  0
   47.7040   32.4150   48.5210 C   0  0  0  0  0  0  0  0  0  0  0  0
   48.8970   31.5930   48.9100 C   0  0  0  0  0  0  0  0  0  0  0  0
   48.5370   30.1510   48.8900 C   0  0  0  0  0  0  0  0  0  0  0  0
   47.9700   29.7060   47.5860 C   0  0  0  0  0  0  0  0  0  0  0  0
   46.6720   30.5220   47.3600 C   0  0  2  0  0  0  0  0  0  0  0  0
   44.7440   28.8030   48.2940 F   0  0  0  0  0  0  0  0  0  0  0  0
   44.8410   28.9880   46.9340 C   0  0  0  0  0  0  0  0  0  0  0  0
   45.8000   29.8780   46.4200 C   0  0  0  0  0  0  0  0  0  0  0  0
   45.7240   29.9090   45.0510 C   0  0  0  0  0  0  0  0  0  0  0  0
   44.8790   29.2170   44.2160 C   0  0  0  0  0  0  0  0  0  0  0  0
   43.9840   28.3770   44.8210 C   0  0  0  0  0  0  0  0  0  0  0  0
   43.9480   28.2450   46.1920 C   0  0  0  0  0  0  0  0  0  0  0  0
   46.0720   32.8640   46.7630 C   0  0  0  0  0  0  0  0  0  0  0  0
   45.1820   32.9480   47.6500 O   0  0  0  0  0  0  0  0  0  0  0  0
   44.9480   35.0830   44.1370 C   0  0  0  0  0  0  0  0  0  0  0  0
   45.9210   34.9640   43.1570 C   0  0  0  0  0  0  0  0  0  0  0  0
   47.0000   34.1110   43.3940 C   0  0  0  0  0  0  0  0  0  0  0  0
   46.9890   33.4690   44.5820 N   0  0  0  0  0  0  0  0  0  0  0  0
   46.0690   33.5770   45.5170 C   0  0  0  0  0  0  0  0  0  0  0  0
   45.0290   34.3980   45.2920 N   0  0  0  0  0  0  0  0  0  0  0  0
   43.8420   35.9510   43.9230 N   0  0  0  0  0  0  0  0  0  0  0  0
   47.8981   31.9172   46.3635 H   0  0  0  0  0  0  0  0  0  0  0  0
   48.0013   33.4705   48.4337 H   0  0  0  0  0  0  0  0  0  0  0  0
   46.9256   32.3100   49.2911 H   0  0  0  0  0  0  0  0  0  0  0  0
   49.7154   31.7759   48.1982 H   0  0  0  0  0  0  0  0  0  0  0  0
   49.2202   31.8748   49.9230 H   0  0  0  0  0  0  0  0  0  0  0  0
   49.4424   29.5616   49.0970 H   0  0  0  0  0  0  0  0  0  0  0  0
   47.7605   29.9971   49.6538 H   0  0  0  0  0  0  0  0  0  0  0  0
   48.6866   29.9021   46.7748 H   0  0  0  0  0  0  0  0  0  0  0  0
   47.7607   28.6261   47.5947 H   0  0  0  0  0  0  0  0  0  0  0  0
   45.9557   30.5692   48.1935 H   0  0  0  0  0  0  0  0  0  0  0  0
   46.4381   30.5806   44.5519 H   0  0  0  0  0  0  0  0  0  0  0  0
   44.9200   29.3321   43.1228 H   0  0  0  0  0  0  0  0  0  0  0  0
   43.2821   27.7979   44.2029 H   0  0  0  0  0  0  0  0  0  0  0  0
   43.2299   27.5686   46.6787 H   0  0  0  0  0  0  0  0  0  0  0  0
   45.8447   35.5280   42.2157 H   0  0  0  0  0  0  0  0  0  0  0  0
   47.8074   33.9707   42.6603 H   0  0  0  0  0  0  0  0  0  0  0  0
   43.7666   36.4819   43.0436 H   0  0  0  0  0  0  0  0  0  0  0  0
   43.1164   36.0488   44.6474 H   0  0  0  0  0  0  0  0  0  0  0  0
  1  6  1  0
  1  2  1  0
  2  3  1  0
  4  3  1  0
  5  4  1  0
  6  5  1  0
  8  7  1  0
  9  8  2  0
  9  6  1  0
 10  9  1  0
 11 12  1  0
 11 10  2  0
 12 13  2  0
 13  8  1  0
 14  1  1  0
 14 15  2  0
 16 21  2  0
 17 18  2  0
 17 16  1  0
 18 19  1  0
 19 20  2  0
 20 14  1  0
 21 20  1  0
 22 16  1  0
  1 23  1  6
  2 24  1  0
  2 25  1  0
  3 26  1  0
  3 27  1  0
  4 28  1  0
  4 29  1  0
  5 30  1  0
  5 31  1  0
  6 32  1  1
 10 33  1  0
 11 34  1  0
 12 35  1  0
 13 36  1  0
 17 37  1  0
 18 38  1  0
 22 39  1  0
 22 40  1  0
M  ISO  8  23  13  24  13  25  13  26  13  27  13  28  13  29  13  30  13
M  ISO  8  31  13  32  13  33  14  34  14  35  14  36  14  37  14  38  14
M  END
>  <minimizedAffinity>  (1) 
-5.98235226

>  <minimizedRMSD>  (1) 
1.47953928

$$$$
