
     RDKit          3D

 46 48  0  0  1  0  0  0  0  0999 V2000
   47.2890   31.8000   47.2520 C   0  0  1  0  0  0  0  0  0  0  0  0
   47.8010   32.2270   48.6410 C   0  0  0  0  0  0  0  0  0  0  0  0
   49.0130   31.4250   48.9940 C   0  0  0  0  0  0  0  0  0  0  0  0
   48.7310   29.9740   48.8520 C   0  0  0  0  0  0  0  0  0  0  0  0
   48.2020   29.6110   47.5040 C   0  0  0  0  0  0  0  0  0  0  0  0
   46.8460   30.3580   47.3500 C   0  0  2  0  0  0  0  0  0  0  0  0
   46.0080   29.7550   46.3340 C   0  0  0  0  0  0  0  0  0  0  0  0
   46.5740   28.7070   45.4440 C   0  0  0  0  0  0  0  0  0  0  0  0
   45.9420   27.3400   45.6730 C   0  0  0  0  0  0  0  0  0  0  0  0
   44.4560   27.3360   45.3870 C   0  0  0  0  0  0  0  0  0  0  0  0
   43.8510   28.6430   45.9060 C   0  0  0  0  0  0  0  0  0  0  0  0
   44.7860   29.1410   47.0160 C   0  0  0  0  0  0  0  0  0  0  0  0
   46.1670   32.7100   46.9090 C   0  0  0  0  0  0  0  0  0  0  0  0
   45.2900   32.7410   47.8170 O   0  0  0  0  0  0  0  0  0  0  0  0
   44.9220   35.0360   44.4300 C   0  0  0  0  0  0  0  0  0  0  0  0
   45.8380   34.9160   43.3690 C   0  0  0  0  0  0  0  0  0  0  0  0
   46.9040   34.0270   43.5200 C   0  0  0  0  0  0  0  0  0  0  0  0
   46.9490   33.3590   44.6900 N   0  0  0  0  0  0  0  0  0  0  0  0
   46.0950   33.4660   45.6850 C   0  0  0  0  0  0  0  0  0  0  0  0
   45.0510   34.3220   45.5680 N   0  0  0  0  0  0  0  0  0  0  0  0
   43.8290   35.9400   44.2920 N   0  0  0  0  0  0  0  0  0  0  0  0
   48.0551   31.8683   46.4656 H   0  0  0  0  0  0  0  0  0  0  0  0
   48.0609   33.2957   48.6233 H   0  0  0  0  0  0  0  0  0  0  0  0
   47.0151   32.0530   49.3908 H   0  0  0  0  0  0  0  0  0  0  0  0
   49.8391   31.7014   48.3224 H   0  0  0  0  0  0  0  0  0  0  0  0
   49.2891   31.6351   50.0378 H   0  0  0  0  0  0  0  0  0  0  0  0
   49.6640   29.4173   49.0238 H   0  0  0  0  0  0  0  0  0  0  0  0
   47.9566   29.7159   49.5894 H   0  0  0  0  0  0  0  0  0  0  0  0
   48.9043   29.9316   46.7205 H   0  0  0  0  0  0  0  0  0  0  0  0
   48.0720   28.5231   47.4057 H   0  0  0  0  0  0  0  0  0  0  0  0
   46.1216   30.2870   48.1747 H   0  0  0  0  0  0  0  0  0  0  0  0
   45.8122   30.6021   45.6602 H   0  0  0  0  0  0  0  0  0  0  0  0
   47.6551   28.6313   45.6322 H   0  0  0  0  0  0  0  0  0  0  0  0
   46.3626   29.0020   44.4056 H   0  0  0  0  0  0  0  0  0  0  0  0
   46.4309   26.6096   45.0117 H   0  0  0  0  0  0  0  0  0  0  0  0
   46.0802   27.0800   46.7329 H   0  0  0  0  0  0  0  0  0  0  0  0
   44.2882   27.2557   44.3028 H   0  0  0  0  0  0  0  0  0  0  0  0
   43.9811   26.4793   45.8874 H   0  0  0  0  0  0  0  0  0  0  0  0
   43.7939   29.3843   45.0953 H   0  0  0  0  0  0  0  0  0  0  0  0
   42.8297   28.4878   46.2840 H   0  0  0  0  0  0  0  0  0  0  0  0
   45.0936   28.3004   47.6553 H   0  0  0  0  0  0  0  0  0  0  0  0
   44.2789   29.8823   47.6510 H   0  0  0  0  0  0  0  0  0  0  0  0
   45.7180   35.5051   42.4478 H   0  0  0  0  0  0  0  0  0  0  0  0
   47.6594   33.8809   42.7339 H   0  0  0  0  0  0  0  0  0  0  0  0
   43.7213   36.4897   43.4276 H   0  0  0  0  0  0  0  0  0  0  0  0
   43.1467   36.0437   45.0566 H   0  0  0  0  0  0  0  0  0  0  0  0
  1  6  1  0
  1  2  1  0
  2  3  1  0
  4  3  1  0
  5  4  1  0
  6  5  1  0
  7 12  1  0
  7  6  1  0
  8  9  1  0
  8  7  1  0
 10  9  1  0
 10 11  1  0
 11 12  1  0
 13  1  1  0
 13 14  2  0
 15 20  2  0
 16 17  2  0
 16 15  1  0
 17 18  1  0
 18 19  2  0
 19 13  1  0
 20 19  1  0
 21 15  1  0
  1 22  1  6
  2 23  1  0
  2 24  1  0
  3 25  1  0
  3 26  1  0
  4 27  1  0
  4 28  1  0
  5 29  1  0
  5 30  1  0
  6 31  1  1
  7 32  1  0
  8 33  1  0
  8 34  1  0
  9 35  1  0
  9 36  1  0
 10 37  1  0
 10 38  1  0
 11 39  1  0
 11 40  1  0
 12 41  1  0
 12 42  1  0
 16 43  1  0
 17 44  1  0
 21 45  1  0
 21 46  1  0
M  ISO  8  22  13  23  13  24  13  25  13  26  13  27  13  28  13  29  13
M  ISO  8  30  13  31  13  32  13  33  13  34  13  35  13  36  13  37  13
M  ISO  7  38  13  39  13  40  13  41  13  42  13  43  14  44  14
M  END
>  <minimizedAffinity>  (1) 
-5.70976067

>  <minimizedRMSD>  (1) 
1.08613098

$$$$
