
     RDKit          3D

 41 44  0  0  1  0  0  0  0  0999 V2000
   47.4840   31.8140   47.2410 C   0  0  1  0  0  0  0  0  0  0  0  0
   47.7070   32.0890   48.7090 C   0  0  0  0  0  0  0  0  0  0  0  0
   49.0010   31.4750   49.1490 C   0  0  0  0  0  0  0  0  0  0  0  0
   49.0460   30.0280   48.7920 C   0  0  0  0  0  0  0  0  0  0  0  0
   48.7490   29.7480   47.3480 C   0  0  0  0  0  0  0  0  0  0  0  0
   47.3390   30.2790   47.0630 C   0  0  2  0  0  0  0  0  0  0  0  0
   46.8190   29.9070   45.8030 N   0  0  0  0  0  0  0  0  0  0  0  0
   47.5270   30.0290   44.6620 C   0  0  0  0  0  0  0  0  0  0  0  0
   46.7450   29.5910   43.6550 N   0  0  0  0  0  0  0  0  0  0  0  0
   45.5800   29.2070   44.1690 C   0  0  0  0  0  0  0  0  0  0  0  0
   44.4280   28.6880   43.6270 C   0  0  0  0  0  0  0  0  0  0  0  0
   43.3740   28.3820   44.4040 N   0  0  0  0  0  0  0  0  0  0  0  0
   43.3840   28.5630   45.7380 C   0  0  0  0  0  0  0  0  0  0  0  0
   44.5130   29.0780   46.3070 N   0  0  0  0  0  0  0  0  0  0  0  0
   45.5830   29.3930   45.5460 C   0  0  0  0  0  0  0  0  0  0  0  0
   46.2540   32.5100   46.7950 C   0  0  0  0  0  0  0  0  0  0  0  0
   45.3050   32.2700   47.5870 O   0  0  0  0  0  0  0  0  0  0  0  0
   44.9470   34.9840   44.5120 C   0  0  0  0  0  0  0  0  0  0  0  0
   45.8660   34.9720   43.4490 C   0  0  0  0  0  0  0  0  0  0  0  0
   46.9640   34.0970   43.5150 C   0  0  0  0  0  0  0  0  0  0  0  0
   47.0300   33.3340   44.6230 N   0  0  0  0  0  0  0  0  0  0  0  0
   46.1670   33.3420   45.6270 C   0  0  0  0  0  0  0  0  0  0  0  0
   45.1190   34.1810   45.5590 N   0  0  0  0  0  0  0  0  0  0  0  0
   43.8520   35.8670   44.4300 N   0  0  0  0  0  0  0  0  0  0  0  0
   48.3268   32.1804   46.6364 H   0  0  0  0  0  0  0  0  0  0  0  0
   47.7430   33.1757   48.8757 H   0  0  0  0  0  0  0  0  0  0  0  0
   46.8814   31.6523   49.2901 H   0  0  0  0  0  0  0  0  0  0  0  0
   49.8343   31.9952   48.6539 H   0  0  0  0  0  0  0  0  0  0  0  0
   49.0854   31.5726   50.2414 H   0  0  0  0  0  0  0  0  0  0  0  0
   50.0525   29.6466   49.0188 H   0  0  0  0  0  0  0  0  0  0  0  0
   48.2624   29.5294   49.3814 H   0  0  0  0  0  0  0  0  0  0  0  0
   49.4813   30.2602   46.7066 H   0  0  0  0  0  0  0  0  0  0  0  0
   48.8094   28.6697   47.1392 H   0  0  0  0  0  0  0  0  0  0  0  0
   46.5951   29.8413   47.7450 H   0  0  0  0  0  0  0  0  0  0  0  0
   48.5531   30.4146   44.5698 H   0  0  0  0  0  0  0  0  0  0  0  0
   44.3676   28.5206   42.5415 H   0  0  0  0  0  0  0  0  0  0  0  0
   42.5084   28.3036   46.3513 H   0  0  0  0  0  0  0  0  0  0  0  0
   45.7287   35.6347   42.5818 H   0  0  0  0  0  0  0  0  0  0  0  0
   47.7180   34.0393   42.7162 H   0  0  0  0  0  0  0  0  0  0  0  0
   43.7433   36.4777   43.6077 H   0  0  0  0  0  0  0  0  0  0  0  0
   43.1603   35.9018   45.1924 H   0  0  0  0  0  0  0  0  0  0  0  0
  1  2  1  0
  2  3  1  0
  4  3  1  0
  5  4  1  0
  6  1  1  0
  6  5  1  0
  7  6  1  0
  8  7  1  0
  9 10  1  0
  9  8  2  0
 10 15  2  0
 11 10  1  0
 11 12  2  0
 12 13  1  0
 13 14  2  0
 15  7  1  0
 15 14  1  0
 16  1  1  0
 16 17  2  0
 18 23  2  0
 19 20  2  0
 19 18  1  0
 20 21  1  0
 21 22  2  0
 22 16  1  0
 23 22  1  0
 24 18  1  0
  1 25  1  6
  2 26  1  0
  2 27  1  0
  3 28  1  0
  3 29  1  0
  4 30  1  0
  4 31  1  0
  5 32  1  0
  5 33  1  0
  6 34  1  1
  8 35  1  0
 11 36  1  0
 13 37  1  0
 19 38  1  0
 20 39  1  0
 24 40  1  0
 24 41  1  0
M  ISO  8  25  13  26  13  27  13  28  13  29  13  30  13  31  13  32  13
M  ISO  7  33  13  34  13  35  14  36  14  37  14  38  14  39  14
M  END
>  <minimizedAffinity>  (1) 
-5.65313959

>  <minimizedRMSD>  (1) 
1.10145128

$$$$
