
     RDKit          3D

 33 34  0  0  1  0  0  0  0  0999 V2000
   47.2280   31.8410   47.4090 C   0  0  1  0  0  0  0  0  0  0  0  0
   47.9450   32.4200   48.6090 C   0  0  0  0  0  0  0  0  0  0  0  0
   49.0880   31.5690   49.0170 C   0  0  0  0  0  0  0  0  0  0  0  0
   48.6980   30.1420   49.1260 C   0  0  0  0  0  0  0  0  0  0  0  0
   48.0010   29.6110   47.8980 C   0  0  0  0  0  0  0  0  0  0  0  0
   46.7220   30.4530   47.7630 C   0  0  2  0  0  0  0  0  0  0  0  0
   45.7450   29.8170   46.8970 C   0  0  0  0  0  0  0  0  0  0  0  0
   45.7120   30.4170   45.6670 F   0  0  0  0  0  0  0  0  0  0  0  0
   44.4850   30.1350   47.4480 F   0  0  0  0  0  0  0  0  0  0  0  0
   45.7430   28.4430   46.8700 F   0  0  0  0  0  0  0  0  0  0  0  0
   46.1310   32.7590   47.0190 C   0  0  0  0  0  0  0  0  0  0  0  0
   45.2650   32.8200   47.9300 O   0  0  0  0  0  0  0  0  0  0  0  0
   44.9170   35.0240   44.4750 C   0  0  0  0  0  0  0  0  0  0  0  0
   45.8380   34.8610   43.4250 C   0  0  0  0  0  0  0  0  0  0  0  0
   46.8910   33.9710   43.5990 C   0  0  0  0  0  0  0  0  0  0  0  0
   46.9300   33.3350   44.7870 N   0  0  0  0  0  0  0  0  0  0  0  0
   46.0740   33.4780   45.7770 C   0  0  0  0  0  0  0  0  0  0  0  0
   45.0320   34.3430   45.6350 N   0  0  0  0  0  0  0  0  0  0  0  0
   43.8460   35.9340   44.3110 N   0  0  0  0  0  0  0  0  0  0  0  0
   47.9045   31.7414   46.5473 H   0  0  0  0  0  0  0  0  0  0  0  0
   48.3183   33.4227   48.3537 H   0  0  0  0  0  0  0  0  0  0  0  0
   47.2339   32.4705   49.4467 H   0  0  0  0  0  0  0  0  0  0  0  0
   49.8881   31.6637   48.2681 H   0  0  0  0  0  0  0  0  0  0  0  0
   49.4315   31.9071   50.0058 H   0  0  0  0  0  0  0  0  0  0  0  0
   49.6063   29.5452   49.2957 H   0  0  0  0  0  0  0  0  0  0  0  0
   47.9851   30.0652   49.9602 H   0  0  0  0  0  0  0  0  0  0  0  0
   48.6384   29.7331   47.0099 H   0  0  0  0  0  0  0  0  0  0  0  0
   47.7784   28.5372   47.9843 H   0  0  0  0  0  0  0  0  0  0  0  0
   46.1155   30.5417   48.6764 H   0  0  0  0  0  0  0  0  0  0  0  0
   45.7275   35.4252   42.4872 H   0  0  0  0  0  0  0  0  0  0  0  0
   47.6448   33.7966   42.8171 H   0  0  0  0  0  0  0  0  0  0  0  0
   43.7471   36.4597   43.4308 H   0  0  0  0  0  0  0  0  0  0  0  0
   43.1653   36.0707   45.0718 H   0  0  0  0  0  0  0  0  0  0  0  0
  1  6  1  0
  1  2  1  0
  2  3  1  0
  3  4  1  0
  5  4  1  0
  6  5  1  0
  7  9  1  0
  7  6  1  0
  8  7  1  0
 10  7  1  0
 11  1  1  0
 11 12  2  0
 13 18  2  0
 14 15  2  0
 14 13  1  0
 15 16  1  0
 16 17  2  0
 17 11  1  0
 18 17  1  0
 19 13  1  0
  1 20  1  6
  2 21  1  0
  2 22  1  0
  3 23  1  0
  3 24  1  0
  4 25  1  0
  4 26  1  0
  5 27  1  0
  5 28  1  0
  6 29  1  1
 14 30  1  0
 15 31  1  0
 19 32  1  0
 19 33  1  0
M  ISO  8  20  13  21  13  22  13  23  13  24  13  25  13  26  13  27  13
M  ISO  4  28  13  29  13  30  14  31  14
M  END
>  <minimizedAffinity>  (1) 
-5.54288197

>  <minimizedRMSD>  (1) 
1.13326621

$$$$
