
     RDKit          3D

 38 39  0  0  1  0  0  0  0  0999 V2000
   47.3030   31.8510   47.2810 C   0  0  1  0  0  0  0  0  0  0  0  0
   47.7870   32.3090   48.6300 C   0  0  0  0  0  0  0  0  0  0  0  0
   49.0120   31.5350   49.0200 C   0  0  0  0  0  0  0  0  0  0  0  0
   48.7660   30.0780   48.9350 C   0  0  0  0  0  0  0  0  0  0  0  0
   48.1910   29.6140   47.6250 C   0  0  0  0  0  0  0  0  0  0  0  0
   46.8800   30.3590   47.4200 C   0  0  2  0  0  0  0  0  0  0  0  0
   46.1420   32.6800   46.8660 C   0  0  0  0  0  0  0  0  0  0  0  0
   45.2250   32.6080   47.7290 O   0  0  0  0  0  0  0  0  0  0  0  0
   44.9140   35.0580   44.4350 C   0  0  0  0  0  0  0  0  0  0  0  0
   45.8370   34.9720   43.3880 C   0  0  0  0  0  0  0  0  0  0  0  0
   46.9120   34.0780   43.5180 C   0  0  0  0  0  0  0  0  0  0  0  0
   46.9700   33.3640   44.6580 N   0  0  0  0  0  0  0  0  0  0  0  0
   46.0820   33.4540   45.6550 C   0  0  0  0  0  0  0  0  0  0  0  0
   45.0520   34.3060   45.5370 N   0  0  0  0  0  0  0  0  0  0  0  0
   43.8360   35.9540   44.3050 N   0  0  0  0  0  0  0  0  0  0  0  0
   46.0650   29.9380   46.3670 N   0  0  0  0  0  0  0  0  0  0  0  0
   45.0320   28.6180   46.6790 S   0  0  0  0  0  0  0  0  0  0  0  0
   43.6920   28.7560   46.0390 O   0  0  0  0  0  0  0  0  0  0  0  0
   44.9280   28.3750   48.1480 O   0  0  0  0  0  0  0  0  0  0  0  0
   45.7550   27.2380   46.0240 O   0  0  0  0  0  0  0  0  0  0  0  0
   48.0907   31.9542   46.5201 H   0  0  0  0  0  0  0  0  0  0  0  0
   48.0308   33.3807   48.5860 H   0  0  0  0  0  0  0  0  0  0  0  0
   46.9970   32.1390   49.3763 H   0  0  0  0  0  0  0  0  0  0  0  0
   49.8368   31.8010   48.3426 H   0  0  0  0  0  0  0  0  0  0  0  0
   49.2711   31.7875   50.0588 H   0  0  0  0  0  0  0  0  0  0  0  0
   49.7230   29.5590   49.0923 H   0  0  0  0  0  0  0  0  0  0  0  0
   48.0156   29.8438   49.7045 H   0  0  0  0  0  0  0  0  0  0  0  0
   48.8874   29.8440   46.8052 H   0  0  0  0  0  0  0  0  0  0  0  0
   48.0249   28.5267   47.6347 H   0  0  0  0  0  0  0  0  0  0  0  0
   46.2173   30.1574   48.2745 H   0  0  0  0  0  0  0  0  0  0  0  0
   45.7237   35.5895   42.4848 H   0  0  0  0  0  0  0  0  0  0  0  0
   47.6691   33.9666   42.7278 H   0  0  0  0  0  0  0  0  0  0  0  0
   43.7414   36.5258   43.4536 H   0  0  0  0  0  0  0  0  0  0  0  0
   43.1418   36.0377   45.0613 H   0  0  0  0  0  0  0  0  0  0  0  0
   46.6790   29.6753   45.5828 H   0  0  0  0  0  0  0  0  0  0  0  0
   42.9971   28.8276   46.7405 H   0  0  0  0  0  0  0  0  0  0  0  0
   45.2665   29.1658   48.6381 H   0  0  0  0  0  0  0  0  0  0  0  0
   46.0641   26.6481   46.7565 H   0  0  0  0  0  0  0  0  0  0  0  0
  1  6  1  0
  1  2  1  0
  2  3  1  0
  4  3  1  0
  5  4  1  0
  6  5  1  0
  7  1  1  0
  7  8  2  0
  9 14  2  0
 10 11  2  0
 10  9  1  0
 11 12  1  0
 12 13  2  0
 13  7  1  0
 14 13  1  0
 15  9  1  0
 16 17  1  0
 16  6  1  0
 17 19  1  0
 18 17  1  0
 20 17  1  0
  1 21  1  6
  2 22  1  0
  2 23  1  0
  3 24  1  0
  3 25  1  0
  4 26  1  0
  4 27  1  0
  5 28  1  0
  5 29  1  0
  6 30  1  1
 10 31  1  0
 11 32  1  0
 15 33  1  0
 15 34  1  0
 16 35  1  0
 18 36  1  0
 19 37  1  0
 20 38  1  0
M  ISO  8  21  13  22  13  23  13  24  13  25  13  26  13  27  13  28  13
M  ISO  8  29  13  30  13  31  14  32  14  35   5  36   3  37   3  38   3
M  END
>  <minimizedAffinity>  (1) 
-5.28364038

>  <minimizedRMSD>  (1) 
1.33729661

$$$$
