
     RDKit          3D

 22 23  0  0  1  0  0  0  0  0999 V2000
   46.1830   33.5990   41.7120 C   0  0  1  0  0  0  0  0  0  0  0  0
   46.9470   34.3500   40.7650 C   0  0  0  0  0  0  0  0  0  0  0  0
   47.6750   33.3800   41.6570 C   0  0  1  0  0  0  0  0  0  0  0  0
   45.2950   35.6880   42.9310 C   0  0  0  0  0  0  0  0  0  0  0  0
   45.6490   34.3100   42.9480 C   0  0  0  0  0  0  0  0  0  0  0  0
   45.5070   33.6160   44.1210 C   0  0  0  0  0  0  0  0  0  0  0  0
   45.0420   34.2520   45.2140 N   0  0  0  0  0  0  0  0  0  0  0  0
   44.7010   35.5700   45.2070 C   0  0  0  0  0  0  0  0  0  0  0  0
   44.8330   36.2980   44.0340 N   0  0  0  0  0  0  0  0  0  0  0  0
   48.4230   33.8770   42.7640 N   0  0  0  0  0  0  0  0  0  0  0  0
   49.7820   34.1500   42.6750 C   0  0  0  0  0  0  0  0  0  0  0  0
   50.7370   33.4540   42.2440 O   0  0  0  0  0  0  0  0  0  0  0  0
   50.3130   35.3880   43.1120 O   0  0  0  0  0  0  0  0  0  0  0  0
   45.2941   32.9567   41.6263 H   0  0  0  0  0  0  0  0  0  0  0  0
   47.0835   35.4318   40.9103 H   0  0  0  0  0  0  0  0  0  0  0  0
   46.8894   34.4961   39.6763 H   0  0  0  0  0  0  0  0  0  0  0  0
   48.3712   32.5439   41.4950 H   0  0  0  0  0  0  0  0  0  0  0  0
   45.4016   36.2627   41.9991 H   0  0  0  0  0  0  0  0  0  0  0  0
   45.7703   32.5491   44.1698 H   0  0  0  0  0  0  0  0  0  0  0  0
   44.3250   36.0521   46.1215 H   0  0  0  0  0  0  0  0  0  0  0  0
   47.9399   34.0390   43.6592 H   0  0  0  0  0  0  0  0  0  0  0  0
   51.2848   35.5629   43.0399 H   0  0  0  0  0  0  0  0  0  0  0  0
  1  5  1  0
  2  3  1  0
  2  1  1  0
  3  1  1  0
  3 10  1  0
  4  5  2  0
  4  9  1  0
  5  6  1  0
  6  7  2  0
  8  7  1  0
  9  8  2  0
 11 10  1  0
 11 13  1  0
 12 11  2  0
  1 14  1  6
  2 15  1  0
  2 16  1  0
  3 17  1  6
  4 18  1  0
  6 19  1  0
  8 20  1  0
 10 21  1  0
 13 22  1  0
M  ISO  8  14  13  15  13  16  13  17  13  18  14  19  14  20  14  22   3
M  END
>  <minimizedAffinity>  (1) 
-4.62223482

>  <minimizedRMSD>  (1) 
0.497758597

$$$$
