
     RDKit          3D

 12 12  0  0  0  0  0  0  0  0999 V2000
   46.2180   34.8380   43.1900 C   0  0  0  0  0  0  0  0  0  0  0  0
   45.3200   35.9130   43.2810 C   0  0  0  0  0  0  0  0  0  0  0  0
   44.5610   36.0100   44.4520 C   0  0  0  0  0  0  0  0  0  0  0  0
   44.7390   35.0640   45.4210 N   0  0  0  0  0  0  0  0  0  0  0  0
   45.6160   34.0510   45.2820 C   0  0  0  0  0  0  0  0  0  0  0  0
   46.3530   33.9370   44.1730 N   0  0  0  0  0  0  0  0  0  0  0  0
   46.9660   34.7950   41.9660 C   0  0  0  0  0  0  0  0  0  0  0  0
   48.0540   35.3950   41.7290 O   0  0  0  0  0  0  0  0  0  0  0  0
   45.2177   36.6465   42.4677 H   0  0  0  0  0  0  0  0  0  0  0  0
   43.8385   36.8281   44.5891 H   0  0  0  0  0  0  0  0  0  0  0  0
   45.7265   33.3111   46.0884 H   0  0  0  0  0  0  0  0  0  0  0  0
   46.5523   34.1794   41.1537 H   0  0  0  0  0  0  0  0  0  0  0  0
  1  2  2  0
  1  6  1  0
  2  3  1  0
  3  4  2  0
  5  4  1  0
  6  5  2  0
  7  1  1  0
  8  7  2  0
  2  9  1  0
  3 10  1  0
  5 11  1  0
  7 12  1  0
M  ISO  4   9  14  10  14  11  14  12   6
M  END
>  <minimizedAffinity>  (1) 
-3.10831404

>  <minimizedRMSD>  (1) 
3.21295333

$$$$
