
     RDKit          3D

 25 26  0  0  0  0  0  0  0  0999 V2000
   45.3600   33.7790   40.3790 C   0  0  0  0  0  0  0  0  0  0  0  0
   46.6110   34.1150   40.8630 C   0  0  0  0  0  0  0  0  0  0  0  0
   47.7160   33.6580   40.1620 C   0  0  0  0  0  0  0  0  0  0  0  0
   47.5590   32.8930   39.0180 C   0  0  0  0  0  0  0  0  0  0  0  0
   46.2960   32.5540   38.5320 C   0  0  0  0  0  0  0  0  0  0  0  0
   45.2010   33.0140   39.2380 C   0  0  0  0  0  0  0  0  0  0  0  0
   43.9640   34.3570   41.2680 S   0  0  0  0  0  0  0  0  0  0  0  0
   42.9180   33.2560   41.2700 O   0  0  0  0  0  0  0  0  0  0  0  0
   43.3060   35.5230   40.5510 O   0  0  0  0  0  0  0  0  0  0  0  0
   46.8570   34.9170   42.0590 C   0  0  0  0  0  0  0  0  0  0  0  0
   47.8460   35.6910   41.8350 O   0  0  0  0  0  0  0  0  0  0  0  0
   46.1350   34.8820   43.3120 C   0  0  0  0  0  0  0  0  0  0  0  0
   45.2890   35.9830   43.5490 C   0  0  0  0  0  0  0  0  0  0  0  0
   44.5850   35.9720   44.7480 C   0  0  0  0  0  0  0  0  0  0  0  0
   44.7520   34.9260   45.5950 N   0  0  0  0  0  0  0  0  0  0  0  0
   45.5690   33.9010   45.3240 C   0  0  0  0  0  0  0  0  0  0  0  0
   46.2620   33.8660   44.1920 N   0  0  0  0  0  0  0  0  0  0  0  0
   48.7272   33.9052   40.5176 H   0  0  0  0  0  0  0  0  0  0  0  0
   48.4524   32.5441   38.4793 H   0  0  0  0  0  0  0  0  0  0  0  0
   46.1768   31.9452   37.6236 H   0  0  0  0  0  0  0  0  0  0  0  0
   44.1878   32.7681   38.8873 H   0  0  0  0  0  0  0  0  0  0  0  0
   44.3810   34.7244   42.5202 H   0  0  0  0  0  0  0  0  0  0  0  0
   45.1907   36.8059   42.8257 H   0  0  0  0  0  0  0  0  0  0  0  0
   43.9046   36.7972   45.0051 H   0  0  0  0  0  0  0  0  0  0  0  0
   45.6674   33.0782   46.0474 H   0  0  0  0  0  0  0  0  0  0  0  0
  1  2  2  0
  1  7  1  0
  2 10  1  0
  3  2  1  0
  4  3  2  0
  5  4  1  0
  5  6  2  0
  6  1  1  0
  7  8  2  0
  9  7  2  0
 10 12  1  0
 11 10  2  0
 12 13  2  0
 12 17  1  0
 13 14  1  0
 14 15  2  0
 16 15  1  0
 17 16  2  0
  3 18  1  0
  4 19  1  0
  5 20  1  0
  6 21  1  0
  7 22  1  0
 13 23  1  0
 14 24  1  0
 16 25  1  0
M  ISO  8  18  14  19  14  20  14  21  14  22  11  23  14  24  14  25  14
M  END
>  <minimizedAffinity>  (1) 
-4.50593138

>  <minimizedRMSD>  (1) 
0.270847082

$$$$
