
     RDKit          3D

 22 23  0  0  0  0  0  0  0  0999 V2000
   47.5550   35.1110   41.9230 C   0  0  0  0  0  0  0  0  0  0  0  0
   48.6100   35.7900   41.8900 O   0  0  0  0  0  0  0  0  0  0  0  0
   46.6600   34.9220   43.0170 C   0  0  0  0  0  0  0  0  0  0  0  0
   45.6760   35.9060   43.0560 C   0  0  0  0  0  0  0  0  0  0  0  0
   44.7200   35.8300   44.0930 C   0  0  0  0  0  0  0  0  0  0  0  0
   44.8350   34.7960   44.9820 N   0  0  0  0  0  0  0  0  0  0  0  0
   45.8200   33.8710   44.8870 C   0  0  0  0  0  0  0  0  0  0  0  0
   46.7370   33.9330   43.9000 N   0  0  0  0  0  0  0  0  0  0  0  0
   47.1560   34.4080   40.7010 C   0  0  0  0  0  0  0  0  0  0  0  0
   48.0450   34.3930   39.6440 C   0  0  0  0  0  0  0  0  0  0  0  0
   47.7560   33.7480   38.4360 C   0  0  0  0  0  0  0  0  0  0  0  0
   46.5260   33.1070   38.3130 C   0  0  0  0  0  0  0  0  0  0  0  0
   45.6230   33.1110   39.3580 C   0  0  0  0  0  0  0  0  0  0  0  0
   45.9710   33.7640   40.5210 C   0  0  0  0  0  0  0  0  0  0  0  0
   45.6442   36.7118   42.3079 H   0  0  0  0  0  0  0  0  0  0  0  0
   43.9141   36.5733   44.1825 H   0  0  0  0  0  0  0  0  0  0  0  0
   45.8727   33.0575   45.6256 H   0  0  0  0  0  0  0  0  0  0  0  0
   49.0122   34.9050   39.7553 H   0  0  0  0  0  0  0  0  0  0  0  0
   48.4797   33.7475   37.6076 H   0  0  0  0  0  0  0  0  0  0  0  0
   46.2711   32.5926   37.3747 H   0  0  0  0  0  0  0  0  0  0  0  0
   44.6504   32.6057   39.2646 H   0  0  0  0  0  0  0  0  0  0  0  0
   45.2493   33.7645   41.3512 H   0  0  0  0  0  0  0  0  0  0  0  0
  1  3  1  0
  2  1  2  0
  3  4  2  0
  3  8  1  0
  4  5  1  0
  5  6  2  0
  7  6  1  0
  8  7  2  0
  9  1  1  0
 10  9  2  0
 11 10  1  0
 12 11  2  0
 12 13  1  0
 13 14  2  0
 14  9  1  0
  4 15  1  0
  5 16  1  0
  7 17  1  0
 10 18  1  0
 11 19  1  0
 12 20  1  0
 13 21  1  0
 14 22  1  0
M  ISO  8  15  14  16  14  17  14  18  14  19  14  20  14  21  14  22  14
M  END
>  <minimizedAffinity>  (1) 
-4.39054489

>  <minimizedRMSD>  (1) 
1.38625038

$$$$
