
     RDKit          3D

 19 20  0  0  0  0  0  0  0  0999 V2000
   46.4640   34.9300   43.0750 C   0  0  0  0  0  0  0  0  0  0  0  0
   45.5490   35.9840   43.1690 C   0  0  0  0  0  0  0  0  0  0  0  0
   44.6700   35.9930   44.2660 C   0  0  0  0  0  0  0  0  0  0  0  0
   44.7630   34.9720   45.1710 N   0  0  0  0  0  0  0  0  0  0  0  0
   45.6560   33.9860   45.0360 C   0  0  0  0  0  0  0  0  0  0  0  0
   46.4960   33.9570   44.0090 N   0  0  0  0  0  0  0  0  0  0  0  0
   47.3120   35.0010   41.9280 C   0  0  0  0  0  0  0  0  0  0  0  0
   48.4080   35.6530   41.8650 O   0  0  0  0  0  0  0  0  0  0  0  0
   46.9350   34.2810   40.6970 C   0  0  0  0  0  0  0  0  0  0  0  0
   47.6170   34.0280   39.5920 C   0  0  0  0  0  0  0  0  0  0  0  0
   47.1140   33.3460   38.5440 C   0  0  0  0  0  0  0  0  0  0  0  0
   45.7440   32.9190   38.7520 C   0  0  0  0  0  0  0  0  0  0  0  0
   45.3530   33.5670   40.4620 S   0  0  0  0  0  0  0  0  0  0  0  0
   45.5184   36.7793   42.4097 H   0  0  0  0  0  0  0  0  0  0  0  0
   43.9299   36.7969   44.3926 H   0  0  0  0  0  0  0  0  0  0  0  0
   45.6951   33.1852   45.7891 H   0  0  0  0  0  0  0  0  0  0  0  0
   48.6519   34.3946   39.5248 H   0  0  0  0  0  0  0  0  0  0  0  0
   47.6833   33.1353   37.6267 H   0  0  0  0  0  0  0  0  0  0  0  0
   45.0932   32.3520   38.0701 H   0  0  0  0  0  0  0  0  0  0  0  0
  1  2  2  0
  1  6  1  0
  2  3  1  0
  3  4  2  0
  5  4  1  0
  6  5  2  0
  7  1  1  0
  8  7  2  0
  9  7  1  0
 10  9  2  0
 11 12  2  0
 11 10  1  0
 12 13  1  0
 13  9  1  0
  2 14  1  0
  3 15  1  0
  5 16  1  0
 10 17  1  0
 11 18  1  0
 12 19  1  0
M  ISO  6  14  14  15  14  16  14  17  14  18  14  19  14
M  END
>  <minimizedAffinity>  (1) 
-4.03205252

>  <minimizedRMSD>  (1) 
0.876495063

$$$$
