
     RDKit          3D

 14 14  0  0  0  0  0  0  0  0999 V2000
   46.1470   34.8900   43.2250 C   0  0  0  0  0  0  0  0  0  0  0  0
   45.2460   35.9450   43.3530 C   0  0  0  0  0  0  0  0  0  0  0  0
   44.5100   36.0110   44.5520 C   0  0  0  0  0  0  0  0  0  0  0  0
   44.7290   35.0420   45.5010 N   0  0  0  0  0  0  0  0  0  0  0  0
   45.6180   34.0420   45.3180 C   0  0  0  0  0  0  0  0  0  0  0  0
   46.3240   33.9760   44.1730 N   0  0  0  0  0  0  0  0  0  0  0  0
   46.8540   34.8910   41.9830 C   0  0  0  0  0  0  0  0  0  0  0  0
   48.0130   35.3290   41.7690 O   0  0  0  0  0  0  0  0  0  0  0  0
   45.9750   34.2860   41.0090 N   0  0  0  0  0  0  0  0  0  0  0  0
   45.1156   36.6911   42.5553 H   0  0  0  0  0  0  0  0  0  0  0  0
   43.7802   36.8159   44.7238 H   0  0  0  0  0  0  0  0  0  0  0  0
   45.7650   33.2840   46.1015 H   0  0  0  0  0  0  0  0  0  0  0  0
   46.2831   34.1819   40.0317 H   0  0  0  0  0  0  0  0  0  0  0  0
   45.0402   33.9588   41.2919 H   0  0  0  0  0  0  0  0  0  0  0  0
  1  2  2  0
  1  6  1  0
  2  3  1  0
  3  4  2  0
  5  4  1  0
  6  5  2  0
  7  1  1  0
  8  7  2  0
  9  7  1  0
  2 10  1  0
  3 11  1  0
  5 12  1  0
  9 13  1  0
  9 14  1  0
M  ISO  3  10  14  11  14  12  14
M  END
>  <minimizedAffinity>  (1) 
-3.39199877

>  <minimizedRMSD>  (1) 
0.160128146

$$$$
