
     RDKit          3D

 32 34  0  0  0  0  0  0  0  0999 V2000
   47.6210   35.0870   41.7610 C   0  0  0  0  0  0  0  0  0  0  0  0
   48.6530   35.8040   41.7940 O   0  0  0  0  0  0  0  0  0  0  0  0
   46.2590   33.6800   40.1480 C   0  0  0  0  0  0  0  0  0  0  0  0
   47.4060   34.4230   40.4610 C   0  0  0  0  0  0  0  0  0  0  0  0
   48.3940   34.5480   39.5050 C   0  0  0  0  0  0  0  0  0  0  0  0
   48.3260   33.9800   38.2370 C   0  0  0  0  0  0  0  0  0  0  0  0
   49.1520   33.9740   37.1760 N   0  0  0  0  0  0  0  0  0  0  0  0
   48.5850   33.2600   36.1930 C   0  0  0  0  0  0  0  0  0  0  0  0
   47.3520   32.7960   36.6530 C   0  0  0  0  0  0  0  0  0  0  0  0
   47.1860   33.2530   37.9510 C   0  0  0  0  0  0  0  0  0  0  0  0
   46.1920   33.1140   38.8820 C   0  0  0  0  0  0  0  0  0  0  0  0
   46.6940   34.8810   42.8290 C   0  0  0  0  0  0  0  0  0  0  0  0
   45.7100   35.8660   42.9780 C   0  0  0  0  0  0  0  0  0  0  0  0
   44.7990   35.6580   44.0320 C   0  0  0  0  0  0  0  0  0  0  0  0
   44.9170   34.5570   44.8170 N   0  0  0  0  0  0  0  0  0  0  0  0
   45.8850   33.6460   44.6230 C   0  0  0  0  0  0  0  0  0  0  0  0
   46.7690   33.8250   43.6190 N   0  0  0  0  0  0  0  0  0  0  0  0
   45.9180   32.5540   45.4840 O   0  0  0  0  0  0  0  0  0  0  0  0
   45.6390   31.2350   47.6910 O   0  0  0  0  0  0  0  0  0  0  0  0
   45.9340   32.6420   47.1680 P   0  0  0  0  0  0  0  0  0  0  0  0
   44.6300   33.6070   47.7010 O   0  0  0  0  0  0  0  0  0  0  0  0
   47.4020   33.2000   47.7820 O   0  0  0  0  0  0  0  0  0  0  0  0
   45.4448   33.5507   40.8763 H   0  0  0  0  0  0  0  0  0  0  0  0
   49.2898   35.1325   39.7616 H   0  0  0  0  0  0  0  0  0  0  0  0
   50.0688   34.4408   37.1266 H   0  0  0  0  0  0  0  0  0  0  0  0
   49.0161   33.0728   35.1985 H   0  0  0  0  0  0  0  0  0  0  0  0
   46.6394   32.1782   36.0869 H   0  0  0  0  0  0  0  0  0  0  0  0
   45.3004   32.5277   38.6151 H   0  0  0  0  0  0  0  0  0  0  0  0
   45.6523   36.7430   42.3166 H   0  0  0  0  0  0  0  0  0  0  0  0
   43.9949   36.3852   44.2182 H   0  0  0  0  0  0  0  0  0  0  0  0
   44.6122   33.6202   48.6908 H   0  0  0  0  0  0  0  0  0  0  0  0
   47.3716   33.1884   48.7715 H   0  0  0  0  0  0  0  0  0  0  0  0
  1  2  2  0
  1 12  1  0
  3  4  2  0
  4  1  1  0
  5  4  1  0
  6  5  2  0
  7  6  1  0
  8  9  2  0
  8  7  1  0
  9 10  1  0
 10  6  1  0
 10 11  2  0
 11  3  1  0
 12 13  2  0
 12 17  1  0
 13 14  1  0
 14 15  2  0
 16 15  1  0
 16 18  1  0
 17 16  2  0
 18 20  1  0
 20 19  2  0
 20 21  1  0
 20 22  1  0
  3 23  1  0
  5 24  1  0
  7 25  1  0
  8 26  1  0
  9 27  1  0
 11 28  1  0
 13 29  1  0
 14 30  1  0
 21 31  1  0
 22 32  1  0
M  ISO  8  23  14  24  14  25   9  26  14  27  14  28  14  29  14  30  14
M  ISO  2  31   3  32   3
M  END
>  <minimizedAffinity>  (1) 
-6.8054204

>  <minimizedRMSD>  (1) 
0.74140811

$$$$
