
     RDKit          3D

 38 41  0  0  0  0  0  0  0  0999 V2000
   47.5660   35.1020   42.0210 C   0  0  0  0  0  0  0  0  0  0  0  0
   48.6540   35.7510   42.0660 O   0  0  0  0  0  0  0  0  0  0  0  0
   46.2010   33.7180   40.4200 C   0  0  0  0  0  0  0  0  0  0  0  0
   47.3390   34.4690   40.7170 C   0  0  0  0  0  0  0  0  0  0  0  0
   48.2810   34.6170   39.7350 C   0  0  0  0  0  0  0  0  0  0  0  0
   48.1940   34.0820   38.4610 C   0  0  0  0  0  0  0  0  0  0  0  0
   48.9740   34.1010   37.3680 N   0  0  0  0  0  0  0  0  0  0  0  0
   48.3870   33.4010   36.3910 C   0  0  0  0  0  0  0  0  0  0  0  0
   47.1820   32.9130   36.8760 C   0  0  0  0  0  0  0  0  0  0  0  0
   47.0440   33.3370   38.1890 C   0  0  0  0  0  0  0  0  0  0  0  0
   46.0800   33.1640   39.1450 C   0  0  0  0  0  0  0  0  0  0  0  0
   46.6180   34.9590   43.0770 C   0  0  0  0  0  0  0  0  0  0  0  0
   45.5740   35.8950   43.0950 C   0  0  0  0  0  0  0  0  0  0  0  0
   44.6380   35.7640   44.1290 C   0  0  0  0  0  0  0  0  0  0  0  0
   44.7960   34.7520   45.0400 N   0  0  0  0  0  0  0  0  0  0  0  0
   45.8120   33.8990   44.9620 C   0  0  0  0  0  0  0  0  0  0  0  0
   46.7320   33.9990   43.9760 N   0  0  0  0  0  0  0  0  0  0  0  0
   45.9720   32.8510   45.9100 N   0  0  0  0  0  0  0  0  0  0  0  0
   45.5790   32.8110   47.3040 C   0  0  0  0  0  0  0  0  0  0  0  0
   46.7620   32.2220   48.0430 C   0  0  0  0  0  0  0  0  0  0  0  0
   47.3120   31.2500   47.0040 C   0  0  0  0  0  0  0  0  0  0  0  0
   46.5700   31.5540   45.7200 C   0  0  0  0  0  0  0  0  0  0  0  0
   45.4158   33.5659   41.1752 H   0  0  0  0  0  0  0  0  0  0  0  0
   49.1772   35.2071   39.9770 H   0  0  0  0  0  0  0  0  0  0  0  0
   49.8828   34.5800   37.2936 H   0  0  0  0  0  0  0  0  0  0  0  0
   48.7892   33.2403   35.3799 H   0  0  0  0  0  0  0  0  0  0  0  0
   46.4621   32.2974   36.3167 H   0  0  0  0  0  0  0  0  0  0  0  0
   45.1854   32.5721   38.9016 H   0  0  0  0  0  0  0  0  0  0  0  0
   45.4943   36.6892   42.3381 H   0  0  0  0  0  0  0  0  0  0  0  0
   43.7909   36.4612   44.2085 H   0  0  0  0  0  0  0  0  0  0  0  0
   45.3628   33.8250   47.6714 H   0  0  0  0  0  0  0  0  0  0  0  0
   44.6672   32.2140   47.4532 H   0  0  0  0  0  0  0  0  0  0  0  0
   47.5005   32.9952   48.3014 H   0  0  0  0  0  0  0  0  0  0  0  0
   46.5041   31.7541   49.0045 H   0  0  0  0  0  0  0  0  0  0  0  0
   48.3924   31.4058   46.8680 H   0  0  0  0  0  0  0  0  0  0  0  0
   47.1717   30.2041   47.3144 H   0  0  0  0  0  0  0  0  0  0  0  0
   45.7930   30.7969   45.5381 H   0  0  0  0  0  0  0  0  0  0  0  0
   47.2437   31.5422   44.8505 H   0  0  0  0  0  0  0  0  0  0  0  0
  1  2  2  0
  1 12  1  0
  3  4  2  0
  4  1  1  0
  5  4  1  0
  6  5  2  0
  7  6  1  0
  8  9  2  0
  8  7  1  0
  9 10  1  0
 10  6  1  0
 10 11  2  0
 11  3  1  0
 12 13  2  0
 12 17  1  0
 13 14  1  0
 14 15  2  0
 16 15  1  0
 16 18  1  0
 17 16  2  0
 18 19  1  0
 19 20  1  0
 21 20  1  0
 22 18  1  0
 22 21  1  0
  3 23  1  0
  5 24  1  0
  7 25  1  0
  8 26  1  0
  9 27  1  0
 11 28  1  0
 13 29  1  0
 14 30  1  0
 19 31  1  0
 19 32  1  0
 20 33  1  0
 20 34  1  0
 21 35  1  0
 21 36  1  0
 22 37  1  0
 22 38  1  0
M  ISO  8  23  14  24  14  25   9  26  14  27  14  28  14  29  14  30  14
M  ISO  8  31  13  32  13  33  13  34  13  35  13  36  13  37  13  38  13
M  END
>  <minimizedAffinity>  (1) 
-6.62135267

>  <minimizedRMSD>  (1) 
0.44383949

$$$$
