
     RDKit          3D

 33 36  0  0  0  0  0  0  0  0999 V2000
   47.6530   35.1190   41.8180 C   0  0  0  0  0  0  0  0  0  0  0  0
   48.6850   35.8460   41.8340 O   0  0  0  0  0  0  0  0  0  0  0  0
   46.3050   33.6950   40.2370 C   0  0  0  0  0  0  0  0  0  0  0  0
   47.4480   34.4530   40.5270 C   0  0  0  0  0  0  0  0  0  0  0  0
   48.4070   34.5740   39.5570 C   0  0  0  0  0  0  0  0  0  0  0  0
   48.3250   33.9940   38.2950 C   0  0  0  0  0  0  0  0  0  0  0  0
   49.1390   33.9920   37.2200 N   0  0  0  0  0  0  0  0  0  0  0  0
   48.5720   33.2670   36.2500 C   0  0  0  0  0  0  0  0  0  0  0  0
   47.3610   32.7960   36.7240 C   0  0  0  0  0  0  0  0  0  0  0  0
   47.1910   33.2500   38.0240 C   0  0  0  0  0  0  0  0  0  0  0  0
   46.2130   33.1060   38.9690 C   0  0  0  0  0  0  0  0  0  0  0  0
   46.7360   34.9180   42.9020 C   0  0  0  0  0  0  0  0  0  0  0  0
   45.6270   35.7770   42.9150 C   0  0  0  0  0  0  0  0  0  0  0  0
   44.7160   35.5880   43.9770 C   0  0  0  0  0  0  0  0  0  0  0  0
   44.9680   34.6140   44.8880 N   0  0  0  0  0  0  0  0  0  0  0  0
   46.0570   33.8190   44.8170 C   0  0  0  0  0  0  0  0  0  0  0  0
   46.9430   33.9810   43.8100 N   0  0  0  0  0  0  0  0  0  0  0  0
   46.2230   32.8060   45.8540 C   0  0  0  0  0  0  0  0  0  0  0  0
   47.0070   31.6750   45.7590 C   0  0  0  0  0  0  0  0  0  0  0  0
   46.8400   31.0520   46.9560 N   0  0  0  0  0  0  0  0  0  0  0  0
   45.9990   31.7390   47.7760 C   0  0  0  0  0  0  0  0  0  0  0  0
   45.6240   32.8370   47.0620 N   0  0  0  0  0  0  0  0  0  0  0  0
   45.5055   33.5666   40.9815 H   0  0  0  0  0  0  0  0  0  0  0  0
   49.3018   35.1694   39.7912 H   0  0  0  0  0  0  0  0  0  0  0  0
   50.0488   34.4707   37.1564 H   0  0  0  0  0  0  0  0  0  0  0  0
   48.9940   33.0785   35.2518 H   0  0  0  0  0  0  0  0  0  0  0  0
   46.6523   32.1676   36.1647 H   0  0  0  0  0  0  0  0  0  0  0  0
   45.3232   32.5070   38.7252 H   0  0  0  0  0  0  0  0  0  0  0  0
   45.4766   36.5492   42.1462 H   0  0  0  0  0  0  0  0  0  0  0  0
   43.8188   36.2184   44.0644 H   0  0  0  0  0  0  0  0  0  0  0  0
   47.6258   31.3512   44.9092 H   0  0  0  0  0  0  0  0  0  0  0  0
   47.2963   30.1647   47.2119 H   0  0  0  0  0  0  0  0  0  0  0  0
   45.6888   31.4665   48.7956 H   0  0  0  0  0  0  0  0  0  0  0  0
  1  2  2  0
  1 12  1  0
  3  4  2  0
  4  1  1  0
  5  4  1  0
  6  5  2  0
  7  6  1  0
  8  9  2  0
  8  7  1  0
  9 10  1  0
 10  6  1  0
 10 11  2  0
 11  3  1  0
 12 13  2  0
 12 17  1  0
 13 14  1  0
 14 15  2  0
 16 15  1  0
 16 18  1  0
 17 16  2  0
 18 22  1  0
 19 18  2  0
 19 20  1  0
 20 21  1  0
 22 21  2  0
  3 23  1  0
  5 24  1  0
  7 25  1  0
  8 26  1  0
  9 27  1  0
 11 28  1  0
 13 29  1  0
 14 30  1  0
 19 31  1  0
 20 32  1  0
 21 33  1  0
M  ISO  8  23  14  24  14  25   9  26  14  27  14  28  14  29  14  30  14
M  ISO  3  31  14  32   9  33  14
M  END
>  <minimizedAffinity>  (1) 
-6.20828056

>  <minimizedRMSD>  (1) 
0.189960584

$$$$
