
     RDKit          3D

 27 29  0  0  0  0  0  0  0  0999 V2000
   46.3060   33.6790   40.1940 C   0  0  0  0  0  0  0  0  0  0  0  0
   47.4380   34.4270   40.4810 C   0  0  0  0  0  0  0  0  0  0  0  0
   48.4200   34.5670   39.5080 C   0  0  0  0  0  0  0  0  0  0  0  0
   48.3480   34.0040   38.2530 C   0  0  0  0  0  0  0  0  0  0  0  0
   49.1410   33.9940   37.1720 N   0  0  0  0  0  0  0  0  0  0  0  0
   48.5720   33.2730   36.2020 C   0  0  0  0  0  0  0  0  0  0  0  0
   47.3450   32.7920   36.6830 C   0  0  0  0  0  0  0  0  0  0  0  0
   47.2040   33.2570   37.9830 C   0  0  0  0  0  0  0  0  0  0  0  0
   46.2220   33.1040   38.9250 C   0  0  0  0  0  0  0  0  0  0  0  0
   47.6840   35.0960   41.7750 C   0  0  0  0  0  0  0  0  0  0  0  0
   48.7030   35.8430   41.7980 O   0  0  0  0  0  0  0  0  0  0  0  0
   46.7850   34.8610   42.8790 C   0  0  0  0  0  0  0  0  0  0  0  0
   45.6740   35.6810   42.9420 C   0  0  0  0  0  0  0  0  0  0  0  0
   44.8040   35.4430   44.0260 C   0  0  0  0  0  0  0  0  0  0  0  0
   45.0990   34.4540   44.9150 N   0  0  0  0  0  0  0  0  0  0  0  0
   46.2030   33.6870   44.7960 C   0  0  0  0  0  0  0  0  0  0  0  0
   47.0500   33.8950   43.7700 N   0  0  0  0  0  0  0  0  0  0  0  0
   46.5150   32.6770   45.6950 O   0  0  0  0  0  0  0  0  0  0  0  0
   45.5061   33.5442   40.9370 H   0  0  0  0  0  0  0  0  0  0  0  0
   49.3099   35.1644   39.7553 H   0  0  0  0  0  0  0  0  0  0  0  0
   50.0514   34.4703   37.1003 H   0  0  0  0  0  0  0  0  0  0  0  0
   48.9917   33.0888   35.2020 H   0  0  0  0  0  0  0  0  0  0  0  0
   46.6289   32.1640   36.1328 H   0  0  0  0  0  0  0  0  0  0  0  0
   45.3341   32.5058   38.6722 H   0  0  0  0  0  0  0  0  0  0  0  0
   45.4814   36.4666   42.1965 H   0  0  0  0  0  0  0  0  0  0  0  0
   43.8956   36.0503   44.1525 H   0  0  0  0  0  0  0  0  0  0  0  0
   47.3361   32.1384   45.5690 H   0  0  0  0  0  0  0  0  0  0  0  0
  1  2  2  0
  2 10  1  0
  3  2  1  0
  4  3  2  0
  5  4  1  0
  6  7  2  0
  6  5  1  0
  7  8  1  0
  8  4  1  0
  8  9  2  0
  9  1  1  0
 10 11  2  0
 10 12  1  0
 12 13  2  0
 12 17  1  0
 13 14  1  0
 14 15  2  0
 16 15  1  0
 16 18  1  0
 17 16  2  0
  1 19  1  0
  3 20  1  0
  5 21  1  0
  6 22  1  0
  7 23  1  0
  9 24  1  0
 13 25  1  0
 14 26  1  0
 18 27  1  0
M  ISO  8  19  14  20  14  21   9  22  14  23  14  24  14  25  14  26  14
M  ISO  1  27   3
M  END
>  <minimizedAffinity>  (1) 
-5.51033497

>  <minimizedRMSD>  (1) 
0.0277771708

$$$$
