
     RDKit          3D

 17 17  0  0  0  0  0  0  0  0999 V2000
   46.0750   35.0540   43.0630 C   0  0  0  0  0  0  0  0  0  0  0  0
   46.3100   34.0030   43.9630 C   0  0  0  0  0  0  0  0  0  0  0  0
   45.6100   34.0340   45.1810 C   0  0  0  0  0  0  0  0  0  0  0  0
   44.7540   35.0700   45.4160 N   0  0  0  0  0  0  0  0  0  0  0  0
   44.5760   36.0440   44.5130 C   0  0  0  0  0  0  0  0  0  0  0  0
   45.2210   36.0520   43.3440 N   0  0  0  0  0  0  0  0  0  0  0  0
   46.7700   35.0050   41.8770 O   0  0  0  0  0  0  0  0  0  0  0  0
   48.1590   34.7390   41.9050 C   0  0  0  0  0  0  0  0  0  0  0  0
   49.0190   35.8860   41.5020 C   0  0  0  0  0  0  0  0  0  0  0  0
   47.0119   33.1901   43.7252 H   0  0  0  0  0  0  0  0  0  0  0  0
   45.7493   33.2398   45.9292 H   0  0  0  0  0  0  0  0  0  0  0  0
   43.8771   36.8620   44.7419 H   0  0  0  0  0  0  0  0  0  0  0  0
   48.4321   34.4493   42.9304 H   0  0  0  0  0  0  0  0  0  0  0  0
   48.3382   33.9417   41.1687 H   0  0  0  0  0  0  0  0  0  0  0  0
   49.3991   36.3930   42.4012 H   0  0  0  0  0  0  0  0  0  0  0  0
   49.8652   35.5174   40.9036 H   0  0  0  0  0  0  0  0  0  0  0  0
   48.4280   36.5949   40.9036 H   0  0  0  0  0  0  0  0  0  0  0  0
  1  6  2  0
  1  2  1  0
  2  3  2  0
  3  4  1  0
  5  4  2  0
  6  5  1  0
  7  8  1  0
  7  1  1  0
  9  8  1  0
  2 10  1  0
  3 11  1  0
  5 12  1  0
  8 13  1  0
  8 14  1  0
  9 15  1  0
  9 16  1  0
  9 17  1  0
M  ISO  8  10  14  11  14  12  14  13   8  14   8  15   8  16   8  17   8
M  END
>  <minimizedAffinity>  (1) 
-3.58906746

>  <minimizedRMSD>  (1) 
3.8290143

$$$$
