
     RDKit          3D

 28 29  0  0  0  0  0  0  0  0999 V2000
   45.5730   34.1160   45.3790 C   0  0  0  0  0  0  0  0  0  0  0  0
   46.3660   33.9460   44.2330 C   0  0  0  0  0  0  0  0  0  0  0  0
   47.1860   32.7990   44.1900 C   0  0  0  0  0  0  0  0  0  0  0  0
   47.1550   31.9410   45.2500 N   0  0  0  0  0  0  0  0  0  0  0  0
   46.3700   32.1650   46.3210 C   0  0  0  0  0  0  0  0  0  0  0  0
   45.5890   33.2320   46.3930 N   0  0  0  0  0  0  0  0  0  0  0  0
   46.3950   31.1860   47.4300 C   0  0  0  0  0  0  0  0  0  0  0  0
   45.2280   30.2600   47.4760 C   0  0  0  0  0  0  0  0  0  0  0  0
   45.1460   29.9900   48.9810 C   0  0  0  0  0  0  0  0  0  0  0  0
   45.2120   31.4100   49.5120 C   0  0  0  0  0  0  0  0  0  0  0  0
   46.3790   31.9730   48.7370 C   0  0  0  0  0  0  0  0  0  0  0  0
   44.7910   35.2400   45.3870 O   0  0  0  0  0  0  0  0  0  0  0  0
   44.4260   35.9610   44.2680 C   0  0  0  0  0  0  0  0  0  0  0  0
   45.0730   36.9820   43.8290 O   0  0  0  0  0  0  0  0  0  0  0  0
   43.2980   35.6660   43.4670 N   0  0  0  0  0  0  0  0  0  0  0  0
   46.3487   34.6729   43.4076 H   0  0  0  0  0  0  0  0  0  0  0  0
   47.8341   32.6014   43.3235 H   0  0  0  0  0  0  0  0  0  0  0  0
   47.2931   30.5695   47.2771 H   0  0  0  0  0  0  0  0  0  0  0  0
   44.3131   30.7405   47.0991 H   0  0  0  0  0  0  0  0  0  0  0  0
   45.3325   29.3592   46.8535 H   0  0  0  0  0  0  0  0  0  0  0  0
   44.2024   29.4957   49.2555 H   0  0  0  0  0  0  0  0  0  0  0  0
   45.9213   29.3146   49.3717 H   0  0  0  0  0  0  0  0  0  0  0  0
   44.2848   31.9617   49.2977 H   0  0  0  0  0  0  0  0  0  0  0  0
   45.3291   31.4733   50.6039 H   0  0  0  0  0  0  0  0  0  0  0  0
   47.3185   31.8254   49.2897 H   0  0  0  0  0  0  0  0  0  0  0  0
   46.2820   33.0557   48.5686 H   0  0  0  0  0  0  0  0  0  0  0  0
   43.0844   36.2475   42.6441 H   0  0  0  0  0  0  0  0  0  0  0  0
   42.6902   34.8697   43.7066 H   0  0  0  0  0  0  0  0  0  0  0  0
  1 12  1  0
  1  6  2  0
  2  1  1  0
  3  2  2  0
  3  4  1  0
  4  5  2  0
  5  6  1  0
  5  7  1  0
  7  8  1  0
  7 11  1  0
  8  9  1  0
  9 10  1  0
 11 10  1  0
 13 12  1  0
 14 13  2  0
 15 13  1  0
  2 16  1  0
  3 17  1  0
  7 18  1  0
  8 19  1  0
  8 20  1  0
  9 21  1  0
  9 22  1  0
 10 23  1  0
 10 24  1  0
 11 25  1  0
 11 26  1  0
 15 27  1  0
 15 28  1  0
M  ISO  8  16  14  17  14  18  13  19  13  20  13  21  13  22  13  23  13
M  ISO  3  24  13  25  13  26  13
M  END
>  <minimizedAffinity>  (1) 
-5.2111783

>  <minimizedRMSD>  (1) 
0.453326374

$$$$
