
     RDKit          3D

 18 18  0  0  0  0  0  0  0  0999 V2000
   45.3360   34.2010   45.7410 C   0  0  0  0  0  0  0  0  0  0  0  0
   46.1960   33.7780   44.7150 C   0  0  0  0  0  0  0  0  0  0  0  0
   46.9260   32.6110   44.9570 C   0  0  0  0  0  0  0  0  0  0  0  0
   46.7720   31.9640   46.1390 N   0  0  0  0  0  0  0  0  0  0  0  0
   45.9280   32.4230   47.0870 C   0  0  0  0  0  0  0  0  0  0  0  0
   45.2120   33.5350   46.8920 N   0  0  0  0  0  0  0  0  0  0  0  0
   45.7830   31.6820   48.3780 C   0  0  0  0  0  0  0  0  0  0  0  0
   45.7560   32.5870   49.4210 F   0  0  0  0  0  0  0  0  0  0  0  0
   46.7930   30.7770   48.5800 F   0  0  0  0  0  0  0  0  0  0  0  0
   44.5630   31.0320   48.4040 F   0  0  0  0  0  0  0  0  0  0  0  0
   44.6290   35.3470   45.4870 O   0  0  0  0  0  0  0  0  0  0  0  0
   44.4240   35.8840   44.2240 C   0  0  0  0  0  0  0  0  0  0  0  0
   45.1680   36.7940   43.7050 O   0  0  0  0  0  0  0  0  0  0  0  0
   43.3810   35.5040   43.3480 N   0  0  0  0  0  0  0  0  0  0  0  0
   46.2902   34.3352   43.7713 H   0  0  0  0  0  0  0  0  0  0  0  0
   47.6185   32.2212   44.1964 H   0  0  0  0  0  0  0  0  0  0  0  0
   43.2959   35.9511   42.4240 H   0  0  0  0  0  0  0  0  0  0  0  0
   42.7064   34.7801   43.6339 H   0  0  0  0  0  0  0  0  0  0  0  0
  1  6  2  0
  2  3  2  0
  2  1  1  0
  3  4  1  0
  4  5  2  0
  5  7  1  0
  6  5  1  0
  7 10  1  0
  7  9  1  0
  7  8  1  0
 11  1  1  0
 12 11  1  0
 13 12  2  0
 14 12  1  0
  2 15  1  0
  3 16  1  0
 14 17  1  0
 14 18  1  0
M  ISO  2  15  14  16  14
M  END
>  <minimizedAffinity>  (1) 
-4.74345207

>  <minimizedRMSD>  (1) 
0.937296748

$$$$
