
     RDKit          3D

 16 16  0  0  0  0  0  0  0  0999 V2000
   45.5300   34.0370   45.5890 C   0  0  0  0  0  0  0  0  0  0  0  0
   46.2390   33.8970   44.3720 C   0  0  0  0  0  0  0  0  0  0  0  0
   47.0720   32.7830   44.2360 C   0  0  0  0  0  0  0  0  0  0  0  0
   47.1580   31.8980   45.2700 N   0  0  0  0  0  0  0  0  0  0  0  0
   46.4630   32.0750   46.4120 C   0  0  0  0  0  0  0  0  0  0  0  0
   45.6700   33.1250   46.5560 N   0  0  0  0  0  0  0  0  0  0  0  0
   46.6540   31.0940   47.3700 O   0  0  0  0  0  0  0  0  0  0  0  0
   44.7300   35.1270   45.6920 O   0  0  0  0  0  0  0  0  0  0  0  0
   44.3660   35.9390   44.6230 C   0  0  0  0  0  0  0  0  0  0  0  0
   45.0130   37.0070   44.3250 O   0  0  0  0  0  0  0  0  0  0  0  0
   43.2800   35.7350   43.7320 N   0  0  0  0  0  0  0  0  0  0  0  0
   46.1383   34.6367   43.5641 H   0  0  0  0  0  0  0  0  0  0  0  0
   47.6474   32.6231   43.3123 H   0  0  0  0  0  0  0  0  0  0  0  0
   46.1799   31.1501   48.2373 H   0  0  0  0  0  0  0  0  0  0  0  0
   43.1047   36.4070   42.9713 H   0  0  0  0  0  0  0  0  0  0  0  0
   42.6673   34.9150   43.8461 H   0  0  0  0  0  0  0  0  0  0  0  0
  1  8  1  0
  1  6  2  0
  2  1  1  0
  3  2  2  0
  3  4  1  0
  4  5  2  0
  5  6  1  0
  5  7  1  0
  9  8  1  0
 10  9  2  0
 11  9  1  0
  2 12  1  0
  3 13  1  0
  7 14  1  0
 11 15  1  0
 11 16  1  0
M  ISO  3  12  14  13  14  14   3
M  END
>  <minimizedAffinity>  (1) 
-3.84634447

>  <minimizedRMSD>  (1) 
0.0119801136

$$$$
