
     RDKit          3D

 43 46  0  0  1  0  0  0  0  0999 V2000
   45.4500   34.3280   45.0410 C   0  0  0  0  0  0  0  0  0  0  0  0
   46.4010   34.1220   44.0210 C   0  0  0  0  0  0  0  0  0  0  0  0
   47.3500   33.1060   44.2180 C   0  0  0  0  0  0  0  0  0  0  0  0
   47.2810   32.3930   45.3830 N   0  0  0  0  0  0  0  0  0  0  0  0
   46.3480   32.6380   46.3190 C   0  0  0  0  0  0  0  0  0  0  0  0
   45.4420   33.5950   46.1530 N   0  0  0  0  0  0  0  0  0  0  0  0
   46.3720   31.8220   47.5220 N   0  0  0  0  0  0  0  0  0  0  0  0
   45.8880   32.3720   48.7310 C   0  0  0  0  0  0  0  0  0  0  0  0
   45.1730   31.3790   49.5520 C   0  0  0  0  0  0  0  0  0  0  0  0
   44.9070   30.0480   48.9380 C   0  0  0  0  0  0  0  0  0  0  0  0
   45.9830   29.4960   48.0670 C   0  0  0  0  0  0  0  0  0  0  0  0
   46.9020   30.4760   47.4190 C   0  0  2  0  0  0  0  0  0  0  0  0
   49.2590   29.5690   47.5740 C   0  0  0  0  0  0  0  0  0  0  0  0
   48.2860   30.4740   47.9920 C   0  0  0  0  0  0  0  0  0  0  0  0
   48.7390   31.3130   48.9850 C   0  0  0  0  0  0  0  0  0  0  0  0
   50.0000   31.2960   49.5310 C   0  0  0  0  0  0  0  0  0  0  0  0
   50.6250   32.0110   50.4820 N   0  0  0  0  0  0  0  0  0  0  0  0
   51.8860   31.5600   50.6190 C   0  0  0  0  0  0  0  0  0  0  0  0
   52.0620   30.5550   49.7530 N   0  0  0  0  0  0  0  0  0  0  0  0
   50.9180   30.3760   49.0750 C   0  0  0  0  0  0  0  0  0  0  0  0
   50.5280   29.5050   48.0800 C   0  0  0  0  0  0  0  0  0  0  0  0
   44.5610   35.3260   44.7880 O   0  0  0  0  0  0  0  0  0  0  0  0
   44.3560   35.9320   43.5590 C   0  0  0  0  0  0  0  0  0  0  0  0
   45.0770   36.8710   43.1010 O   0  0  0  0  0  0  0  0  0  0  0  0
   43.3110   35.5770   42.6550 N   0  0  0  0  0  0  0  0  0  0  0  0
   46.3997   34.7333   43.1065 H   0  0  0  0  0  0  0  0  0  0  0  0
   48.1207   32.8914   43.4630 H   0  0  0  0  0  0  0  0  0  0  0  0
   46.7397   32.7607   49.3085 H   0  0  0  0  0  0  0  0  0  0  0  0
   45.1768   33.1713   48.4754 H   0  0  0  0  0  0  0  0  0  0  0  0
   45.7698   31.2103   50.4605 H   0  0  0  0  0  0  0  0  0  0  0  0
   44.1777   31.8161   49.7201 H   0  0  0  0  0  0  0  0  0  0  0  0
   44.7353   29.3307   49.7541 H   0  0  0  0  0  0  0  0  0  0  0  0
   44.0415   30.1980   48.2758 H   0  0  0  0  0  0  0  0  0  0  0  0
   46.5971   28.8240   48.6845 H   0  0  0  0  0  0  0  0  0  0  0  0
   45.4537   29.0088   47.2348 H   0  0  0  0  0  0  0  0  0  0  0  0
   46.9702   30.1569   46.3685 H   0  0  0  0  0  0  0  0  0  0  0  0
   48.9877   28.8560   46.7815 H   0  0  0  0  0  0  0  0  0  0  0  0
   48.0318   32.0602   49.3743 H   0  0  0  0  0  0  0  0  0  0  0  0
   50.2055   32.7821   51.0208 H   0  0  0  0  0  0  0  0  0  0  0  0
   52.6394   31.9492   51.3197 H   0  0  0  0  0  0  0  0  0  0  0  0
   51.2374   28.7586   47.6931 H   0  0  0  0  0  0  0  0  0  0  0  0
   43.2178   36.0710   41.7560 H   0  0  0  0  0  0  0  0  0  0  0  0
   42.6498   34.8267   42.9013 H   0  0  0  0  0  0  0  0  0  0  0  0
  1  6  2  0
  2  3  2  0
  2  1  1  0
  3  4  1  0
  4  5  2  0
  5  7  1  0
  6  5  1  0
  7  8  1  0
  8  9  1  0
 10  9  1  0
 11 10  1  0
 12  7  1  0
 12 14  1  0
 12 11  1  0
 13 14  2  0
 13 21  1  0
 14 15  1  0
 15 16  2  0
 16 17  1  0
 17 18  1  0
 19 18  2  0
 20 16  1  0
 20 19  1  0
 21 20  2  0
 22  1  1  0
 23 22  1  0
 24 23  2  0
 25 23  1  0
  2 26  1  0
  3 27  1  0
  8 28  1  0
  8 29  1  0
  9 30  1  0
  9 31  1  0
 10 32  1  0
 10 33  1  0
 11 34  1  0
 11 35  1  0
 12 36  1  6
 13 37  1  0
 15 38  1  0
 17 39  1  0
 18 40  1  0
 21 41  1  0
 25 42  1  0
 25 43  1  0
M  ISO  8  26  14  27  14  28  13  29  13  30  13  31  13  32  13  33  13
M  ISO  8  34  13  35  13  36  13  37  14  38  14  39   9  40  14  41  14
M  END
>  <minimizedAffinity>  (1) 
-6.81650257

>  <minimizedRMSD>  (1) 
0.88126862

$$$$
