
     RDKit          3D

 39 41  0  0  1  0  0  0  0  0999 V2000
   45.5940   34.2890   45.1040 C   0  0  0  0  0  0  0  0  0  0  0  0
   46.4600   34.0110   44.0250 C   0  0  0  0  0  0  0  0  0  0  0  0
   47.2960   32.9020   44.1400 C   0  0  0  0  0  0  0  0  0  0  0  0
   47.2120   32.1630   45.2990 N   0  0  0  0  0  0  0  0  0  0  0  0
   46.3710   32.4760   46.2890 C   0  0  0  0  0  0  0  0  0  0  0  0
   45.5640   33.5290   46.2000 N   0  0  0  0  0  0  0  0  0  0  0  0
   46.3850   31.6140   47.4530 N   0  0  0  0  0  0  0  0  0  0  0  0
   46.0670   32.1860   48.7190 C   0  0  0  0  0  0  0  0  0  0  0  0
   45.3040   31.2640   49.5710 C   0  0  0  0  0  0  0  0  0  0  0  0
   44.8290   29.9890   48.9510 C   0  0  0  0  0  0  0  0  0  0  0  0
   45.7700   29.3450   47.9850 C   0  0  0  0  0  0  0  0  0  0  0  0
   46.7230   30.2110   47.2900 C   0  0  2  0  0  0  0  0  0  0  0  0
   48.1500   30.0800   47.6160 C   0  0  0  0  0  0  0  0  0  0  0  0
   48.8780   30.5790   48.6500 C   0  0  0  0  0  0  0  0  0  0  0  0
   50.2220   30.3850   48.8550 C   0  0  0  0  0  0  0  0  0  0  0  0
   50.9110   29.6160   47.9370 C   0  0  0  0  0  0  0  0  0  0  0  0
   50.1420   29.1230   46.8990 C   0  0  0  0  0  0  0  0  0  0  0  0
   48.8490   29.3220   46.7220 N   0  0  0  0  0  0  0  0  0  0  0  0
   44.7920   35.3850   44.9490 O   0  0  0  0  0  0  0  0  0  0  0  0
   44.4670   35.9630   43.7310 C   0  0  0  0  0  0  0  0  0  0  0  0
   45.1300   36.9130   43.1970 O   0  0  0  0  0  0  0  0  0  0  0  0
   43.3580   35.5640   42.9370 N   0  0  0  0  0  0  0  0  0  0  0  0
   46.4746   34.6459   43.1268 H   0  0  0  0  0  0  0  0  0  0  0  0
   47.9955   32.6277   43.3366 H   0  0  0  0  0  0  0  0  0  0  0  0
   47.0029   32.4502   49.2330 H   0  0  0  0  0  0  0  0  0  0  0  0
   45.4427   33.0738   48.5401 H   0  0  0  0  0  0  0  0  0  0  0  0
   45.9441   30.9974   50.4249 H   0  0  0  0  0  0  0  0  0  0  0  0
   44.3853   31.8121   49.8270 H   0  0  0  0  0  0  0  0  0  0  0  0
   44.6344   29.2715   49.7618 H   0  0  0  0  0  0  0  0  0  0  0  0
   43.9367   30.2559   48.3657 H   0  0  0  0  0  0  0  0  0  0  0  0
   46.3515   28.5953   48.5417 H   0  0  0  0  0  0  0  0  0  0  0  0
   45.1241   28.9445   47.1897 H   0  0  0  0  0  0  0  0  0  0  0  0
   46.6120   29.8473   46.2578 H   0  0  0  0  0  0  0  0  0  0  0  0
   48.3425   31.1933   49.3888 H   0  0  0  0  0  0  0  0  0  0  0  0
   50.7336   30.8277   49.7223 H   0  0  0  0  0  0  0  0  0  0  0  0
   51.9883   29.4117   48.0251 H   0  0  0  0  0  0  0  0  0  0  0  0
   50.6572   28.5055   46.1485 H   0  0  0  0  0  0  0  0  0  0  0  0
   43.1708   36.0347   42.0402 H   0  0  0  0  0  0  0  0  0  0  0  0
   42.7414   34.8041   43.2584 H   0  0  0  0  0  0  0  0  0  0  0  0
  1  6  2  0
  2  3  2  0
  2  1  1  0
  3  4  1  0
  4  5  2  0
  5  7  1  0
  6  5  1  0
  7  8  1  0
  8  9  1  0
 10  9  1  0
 11 10  1  0
 12  7  1  0
 12 13  1  0
 12 11  1  0
 13 14  2  0
 14 15  1  0
 16 15  2  0
 17 16  1  0
 18 17  2  0
 18 13  1  0
 19  1  1  0
 20 19  1  0
 21 20  2  0
 22 20  1  0
  2 23  1  0
  3 24  1  0
  8 25  1  0
  8 26  1  0
  9 27  1  0
  9 28  1  0
 10 29  1  0
 10 30  1  0
 11 31  1  0
 11 32  1  0
 12 33  1  6
 14 34  1  0
 15 35  1  0
 16 36  1  0
 17 37  1  0
 22 38  1  0
 22 39  1  0
M  ISO  8  23  14  24  14  25  13  26  13  27  13  28  13  29  13  30  13
M  ISO  7  31  13  32  13  33  13  34  14  35  14  36  14  37  14
M  END
>  <minimizedAffinity>  (1) 
-6.00478697

>  <minimizedRMSD>  (1) 
0.334662199

$$$$
