
     RDKit          3D

 37 39  0  0  1  0  0  0  0  0999 V2000
   45.4750   34.3240   45.0680 C   0  0  0  0  0  0  0  0  0  0  0  0
   46.4060   34.1000   44.0370 C   0  0  0  0  0  0  0  0  0  0  0  0
   47.3390   33.0620   44.2100 C   0  0  0  0  0  0  0  0  0  0  0  0
   47.2750   32.3430   45.3740 N   0  0  0  0  0  0  0  0  0  0  0  0
   46.3660   32.6030   46.3180 C   0  0  0  0  0  0  0  0  0  0  0  0
   45.4700   33.5840   46.1730 N   0  0  0  0  0  0  0  0  0  0  0  0
   46.3940   31.7810   47.4980 N   0  0  0  0  0  0  0  0  0  0  0  0
   45.9410   32.3340   48.7410 C   0  0  0  0  0  0  0  0  0  0  0  0
   45.2190   31.3520   49.5620 C   0  0  0  0  0  0  0  0  0  0  0  0
   44.9040   30.0290   48.9500 C   0  0  0  0  0  0  0  0  0  0  0  0
   45.9270   29.4610   48.0290 C   0  0  0  0  0  0  0  0  0  0  0  0
   46.8680   30.4260   47.4280 C   0  0  2  0  0  0  0  0  0  0  0  0
   48.2180   30.4230   48.0810 C   0  0  0  0  0  0  0  0  0  0  0  0
   49.2020   29.4660   48.0840 C   0  0  0  0  0  0  0  0  0  0  0  0
   50.2390   29.9100   48.8080 N   0  0  0  0  0  0  0  0  0  0  0  0
   49.9190   31.1450   49.2650 C   0  0  0  0  0  0  0  0  0  0  0  0
   48.6900   31.4400   48.8150 N   0  0  0  0  0  0  0  0  0  0  0  0
   44.6040   35.3380   44.8400 O   0  0  0  0  0  0  0  0  0  0  0  0
   44.3750   35.9500   43.6160 C   0  0  0  0  0  0  0  0  0  0  0  0
   45.0760   36.8970   43.1460 O   0  0  0  0  0  0  0  0  0  0  0  0
   43.3220   35.5960   42.7210 N   0  0  0  0  0  0  0  0  0  0  0  0
   46.4041   34.7163   43.1259 H   0  0  0  0  0  0  0  0  0  0  0  0
   48.0914   32.8362   43.4400 H   0  0  0  0  0  0  0  0  0  0  0  0
   46.8134   32.6936   49.3063 H   0  0  0  0  0  0  0  0  0  0  0  0
   45.2447   33.1534   48.5091 H   0  0  0  0  0  0  0  0  0  0  0  0
   45.8287   31.1620   50.4576 H   0  0  0  0  0  0  0  0  0  0  0  0
   44.2370   31.8129   49.7442 H   0  0  0  0  0  0  0  0  0  0  0  0
   44.7553   29.3094   49.7685 H   0  0  0  0  0  0  0  0  0  0  0  0
   44.0151   30.2020   48.3256 H   0  0  0  0  0  0  0  0  0  0  0  0
   46.5167   28.7248   48.5949 H   0  0  0  0  0  0  0  0  0  0  0  0
   45.3619   29.0360   47.1864 H   0  0  0  0  0  0  0  0  0  0  0  0
   46.9468   30.0899   46.3836 H   0  0  0  0  0  0  0  0  0  0  0  0
   49.1483   28.4925   47.5748 H   0  0  0  0  0  0  0  0  0  0  0  0
   51.1189   29.4045   48.9848 H   0  0  0  0  0  0  0  0  0  0  0  0
   50.5527   31.7895   49.8919 H   0  0  0  0  0  0  0  0  0  0  0  0
   43.2151   36.0973   41.8276 H   0  0  0  0  0  0  0  0  0  0  0  0
   42.6686   34.8391   42.9682 H   0  0  0  0  0  0  0  0  0  0  0  0
  1  6  2  0
  2  3  2  0
  2  1  1  0
  3  4  1  0
  4  5  2  0
  5  7  1  0
  6  5  1  0
  7  8  1  0
  8  9  1  0
 10  9  1  0
 11 10  1  0
 12  7  1  0
 12 11  1  0
 12 13  1  0
 13 14  2  0
 13 17  1  0
 14 15  1  0
 15 16  1  0
 17 16  2  0
 18  1  1  0
 19 18  1  0
 20 19  2  0
 21 19  1  0
  2 22  1  0
  3 23  1  0
  8 24  1  0
  8 25  1  0
  9 26  1  0
  9 27  1  0
 10 28  1  0
 10 29  1  0
 11 30  1  0
 11 31  1  0
 12 32  1  6
 14 33  1  0
 15 34  1  0
 16 35  1  0
 21 36  1  0
 21 37  1  0
M  ISO  8  22  14  23  14  24  13  25  13  26  13  27  13  28  13  29  13
M  ISO  6  30  13  31  13  32  13  33  14  34   9  35  14
M  END
>  <minimizedAffinity>  (1) 
-5.96134806

>  <minimizedRMSD>  (1) 
0.484607458

$$$$
