
     RDKit          3D

 40 42  0  0  1  0  0  0  0  0999 V2000
   45.6080   34.3660   45.0390 C   0  0  0  0  0  0  0  0  0  0  0  0
   46.4280   34.0870   43.9370 C   0  0  0  0  0  0  0  0  0  0  0  0
   47.2690   32.9710   44.0240 C   0  0  0  0  0  0  0  0  0  0  0  0
   47.2230   32.2400   45.1770 N   0  0  0  0  0  0  0  0  0  0  0  0
   46.4240   32.5520   46.1910 C   0  0  0  0  0  0  0  0  0  0  0  0
   45.6170   33.6060   46.1330 N   0  0  0  0  0  0  0  0  0  0  0  0
   46.4780   31.6850   47.3360 N   0  0  0  0  0  0  0  0  0  0  0  0
   46.1860   32.2480   48.6330 C   0  0  0  0  0  0  0  0  0  0  0  0
   45.4150   31.3310   49.4830 C   0  0  0  0  0  0  0  0  0  0  0  0
   44.9650   30.0470   48.8910 C   0  0  0  0  0  0  0  0  0  0  0  0
   45.8530   29.4240   47.8970 C   0  0  0  0  0  0  0  0  0  0  0  0
   46.8210   30.3110   47.2090 C   0  0  1  0  0  0  0  0  0  0  0  0
   44.9950   29.6510   45.1840 F   0  0  0  0  0  0  0  0  0  0  0  0
   46.3260   29.5070   44.8630 C   0  0  0  0  0  0  0  0  0  0  0  0
   47.2300   29.8210   45.8910 C   0  0  0  0  0  0  0  0  0  0  0  0
   48.5490   29.6380   45.4500 C   0  0  0  0  0  0  0  0  0  0  0  0
   48.9000   29.2130   44.1940 C   0  0  0  0  0  0  0  0  0  0  0  0
   47.9290   28.9410   43.2850 C   0  0  0  0  0  0  0  0  0  0  0  0
   46.6130   29.0840   43.6030 C   0  0  0  0  0  0  0  0  0  0  0  0
   44.8010   35.4690   44.9120 O   0  0  0  0  0  0  0  0  0  0  0  0
   44.4700   36.0860   43.7360 C   0  0  0  0  0  0  0  0  0  0  0  0
   45.1110   37.0230   43.1640 O   0  0  0  0  0  0  0  0  0  0  0  0
   43.3220   35.7240   43.0030 N   0  0  0  0  0  0  0  0  0  0  0  0
   46.4114   34.7207   43.0380 H   0  0  0  0  0  0  0  0  0  0  0  0
   47.9397   32.6941   43.1973 H   0  0  0  0  0  0  0  0  0  0  0  0
   47.1349   32.4830   49.1374 H   0  0  0  0  0  0  0  0  0  0  0  0
   45.5771   33.1506   48.4764 H   0  0  0  0  0  0  0  0  0  0  0  0
   46.0408   31.0882   50.3545 H   0  0  0  0  0  0  0  0  0  0  0  0
   44.4841   31.8749   49.7013 H   0  0  0  0  0  0  0  0  0  0  0  0
   44.8332   29.3297   49.7145 H   0  0  0  0  0  0  0  0  0  0  0  0
   44.0455   30.2926   48.3395 H   0  0  0  0  0  0  0  0  0  0  0  0
   46.4287   28.6404   48.4114 H   0  0  0  0  0  0  0  0  0  0  0  0
   45.1832   29.0621   47.1030 H   0  0  0  0  0  0  0  0  0  0  0  0
   47.7783   30.2591   47.7484 H   0  0  0  0  0  0  0  0  0  0  0  0
   49.3598   29.8505   46.1624 H   0  0  0  0  0  0  0  0  0  0  0  0
   49.9600   29.0935   43.9253 H   0  0  0  0  0  0  0  0  0  0  0  0
   48.2095   28.6003   42.2774 H   0  0  0  0  0  0  0  0  0  0  0  0
   45.8183   28.8673   42.8740 H   0  0  0  0  0  0  0  0  0  0  0  0
   43.1003   36.2077   42.1211 H   0  0  0  0  0  0  0  0  0  0  0  0
   42.7047   34.9757   43.3492 H   0  0  0  0  0  0  0  0  0  0  0  0
  1  6  2  0
  2  3  2  0
  2  1  1  0
  3  4  1  0
  4  5  2  0
  5  7  1  0
  6  5  1  0
  7  8  1  0
  8  9  1  0
 10  9  1  0
 11 10  1  0
 12  7  1  0
 12 11  1  0
 14 13  1  0
 14 15  2  0
 15 12  1  0
 16 15  1  0
 17 16  2  0
 18 19  2  0
 18 17  1  0
 19 14  1  0
 20  1  1  0
 21 20  1  0
 22 21  2  0
 23 21  1  0
  2 24  1  0
  3 25  1  0
  8 26  1  0
  8 27  1  0
  9 28  1  0
  9 29  1  0
 10 30  1  0
 10 31  1  0
 11 32  1  0
 11 33  1  0
 12 34  1  1
 16 35  1  0
 17 36  1  0
 18 37  1  0
 19 38  1  0
 23 39  1  0
 23 40  1  0
M  ISO  8  24  14  25  14  26  13  27  13  28  13  29  13  30  13  31  13
M  ISO  7  32  13  33  13  34  13  35  14  36  14  37  14  38  14
M  END
>  <minimizedAffinity>  (1) 
-5.70631075

>  <minimizedRMSD>  (1) 
0.686773837

$$$$
