
     RDKit          3D

 42 44  0  0  1  0  0  0  0  0999 V2000
   45.5370   34.3230   45.0030 C   0  0  0  0  0  0  0  0  0  0  0  0
   46.4270   34.0850   43.9450 C   0  0  0  0  0  0  0  0  0  0  0  0
   47.3260   33.0300   44.0940 C   0  0  0  0  0  0  0  0  0  0  0  0
   47.2760   32.3090   45.2540 N   0  0  0  0  0  0  0  0  0  0  0  0
   46.4020   32.5840   46.2330 C   0  0  0  0  0  0  0  0  0  0  0  0
   45.5320   33.5850   46.1160 N   0  0  0  0  0  0  0  0  0  0  0  0
   46.4580   31.7460   47.3920 N   0  0  0  0  0  0  0  0  0  0  0  0
   46.0650   32.3090   48.6580 C   0  0  0  0  0  0  0  0  0  0  0  0
   45.3610   31.3260   49.4950 C   0  0  0  0  0  0  0  0  0  0  0  0
   44.9990   30.0240   48.8960 C   0  0  0  0  0  0  0  0  0  0  0  0
   45.9600   29.4430   47.9310 C   0  0  0  0  0  0  0  0  0  0  0  0
   46.9000   30.3850   47.3010 C   0  0  1  0  0  0  0  0  0  0  0  0
   47.4740   29.9790   46.0670 N   0  0  0  0  0  0  0  0  0  0  0  0
   48.7830   29.3510   46.3630 C   0  0  0  0  0  0  0  0  0  0  0  0
   49.1320   28.7680   44.9860 C   0  0  0  0  0  0  0  0  0  0  0  0
   47.8040   28.7430   44.2170 C   0  0  0  0  0  0  0  0  0  0  0  0
   46.8410   28.8660   45.4120 C   0  0  0  0  0  0  0  0  0  0  0  0
   44.6640   35.3700   44.8250 O   0  0  0  0  0  0  0  0  0  0  0  0
   44.4260   36.0140   43.6370 C   0  0  0  0  0  0  0  0  0  0  0  0
   45.0830   36.9720   43.1520 O   0  0  0  0  0  0  0  0  0  0  0  0
   43.3630   35.6510   42.7850 N   0  0  0  0  0  0  0  0  0  0  0  0
   46.4159   34.7047   43.0362 H   0  0  0  0  0  0  0  0  0  0  0  0
   48.0516   32.7859   43.3041 H   0  0  0  0  0  0  0  0  0  0  0  0
   46.9645   32.6516   49.1905 H   0  0  0  0  0  0  0  0  0  0  0  0
   45.3796   33.1469   48.4628 H   0  0  0  0  0  0  0  0  0  0  0  0
   46.0044   31.1173   50.3625 H   0  0  0  0  0  0  0  0  0  0  0  0
   44.3935   31.8011   49.7145 H   0  0  0  0  0  0  0  0  0  0  0  0
   44.8749   29.3028   49.7173 H   0  0  0  0  0  0  0  0  0  0  0  0
   44.0873   30.2192   48.3123 H   0  0  0  0  0  0  0  0  0  0  0  0
   46.5521   28.6838   48.4631 H   0  0  0  0  0  0  0  0  0  0  0  0
   45.3469   29.0456   47.1087 H   0  0  0  0  0  0  0  0  0  0  0  0
   47.8023   30.3459   47.9289 H   0  0  0  0  0  0  0  0  0  0  0  0
   49.5254   30.0942   46.6892 H   0  0  0  0  0  0  0  0  0  0  0  0
   48.7638   28.6153   47.1806 H   0  0  0  0  0  0  0  0  0  0  0  0
   49.8652   29.4058   44.4707 H   0  0  0  0  0  0  0  0  0  0  0  0
   49.5836   27.7680   45.0631 H   0  0  0  0  0  0  0  0  0  0  0  0
   47.7120   29.5910   43.5225 H   0  0  0  0  0  0  0  0  0  0  0  0
   47.6467   27.8699   43.5667 H   0  0  0  0  0  0  0  0  0  0  0  0
   45.8132   29.0982   45.0964 H   0  0  0  0  0  0  0  0  0  0  0  0
   46.7096   27.9593   46.0208 H   0  0  0  0  0  0  0  0  0  0  0  0
   43.2157   36.1580   41.9006 H   0  0  0  0  0  0  0  0  0  0  0  0
   42.7337   34.8788   43.0469 H   0  0  0  0  0  0  0  0  0  0  0  0
  1  6  2  0
  2  3  2  0
  2  1  1  0
  3  4  1  0
  4  5  2  0
  5  7  1  0
  6  5  1  0
  7  8  1  0
  8  9  1  0
 10  9  1  0
 11 10  1  0
 12  7  1  0
 12 11  1  0
 13 14  1  0
 13 12  1  0
 15 14  1  0
 16 15  1  0
 16 17  1  0
 17 13  1  0
 18  1  1  0
 19 18  1  0
 20 19  2  0
 21 19  1  0
  2 22  1  0
  3 23  1  0
  8 24  1  0
  8 25  1  0
  9 26  1  0
  9 27  1  0
 10 28  1  0
 10 29  1  0
 11 30  1  0
 11 31  1  0
 12 32  1  1
 14 33  1  0
 14 34  1  0
 15 35  1  0
 15 36  1  0
 16 37  1  0
 16 38  1  0
 17 39  1  0
 17 40  1  0
 21 41  1  0
 21 42  1  0
M  ISO  8  22  14  23  14  24  13  25  13  26  13  27  13  28  13  29  13
M  ISO  8  30  13  31  13  32  13  33  13  34  13  35  13  36  13  37  13
M  ISO  3  38  13  39  13  40  13
M  END
>  <minimizedAffinity>  (1) 
-5.5096817

>  <minimizedRMSD>  (1) 
0.352904201

$$$$
