
     RDKit          3D

 32 33  0  0  1  0  0  0  0  0999 V2000
   45.6100   34.3640   45.0230 C   0  0  0  0  0  0  0  0  0  0  0  0
   46.4170   34.0930   43.8980 C   0  0  0  0  0  0  0  0  0  0  0  0
   47.2540   32.9720   43.9670 C   0  0  0  0  0  0  0  0  0  0  0  0
   47.2310   32.2220   45.1130 N   0  0  0  0  0  0  0  0  0  0  0  0
   46.4480   32.5280   46.1390 C   0  0  0  0  0  0  0  0  0  0  0  0
   45.6350   33.5940   46.1070 N   0  0  0  0  0  0  0  0  0  0  0  0
   46.5050   31.6670   47.2940 N   0  0  0  0  0  0  0  0  0  0  0  0
   46.2310   32.2020   48.5880 C   0  0  0  0  0  0  0  0  0  0  0  0
   45.4760   31.2790   49.4480 C   0  0  0  0  0  0  0  0  0  0  0  0
   45.0100   29.9970   48.8400 C   0  0  0  0  0  0  0  0  0  0  0  0
   45.9030   29.3730   47.8310 C   0  0  0  0  0  0  0  0  0  0  0  0
   46.8390   30.2780   47.1360 C   0  0  2  0  0  0  0  0  0  0  0  0
   48.2120   30.0950   47.7150 C   0  0  0  0  0  0  0  0  0  0  0  0
   48.6090   29.0620   48.2350 O   0  0  0  0  0  0  0  0  0  0  0  0
   44.8180   35.4650   44.8980 O   0  0  0  0  0  0  0  0  0  0  0  0
   44.4500   36.0710   43.7120 C   0  0  0  0  0  0  0  0  0  0  0  0
   45.1040   37.0120   43.1680 O   0  0  0  0  0  0  0  0  0  0  0  0
   43.3010   35.7180   42.9600 N   0  0  0  0  0  0  0  0  0  0  0  0
   46.3901   34.7346   43.0049 H   0  0  0  0  0  0  0  0  0  0  0  0
   47.9100   32.7021   43.1263 H   0  0  0  0  0  0  0  0  0  0  0  0
   47.1870   32.4350   49.0796 H   0  0  0  0  0  0  0  0  0  0  0  0
   45.6100   33.0988   48.4463 H   0  0  0  0  0  0  0  0  0  0  0  0
   46.1196   31.0237   50.3027 H   0  0  0  0  0  0  0  0  0  0  0  0
   44.5531   31.8218   49.7003 H   0  0  0  0  0  0  0  0  0  0  0  0
   44.8716   29.2723   49.6559 H   0  0  0  0  0  0  0  0  0  0  0  0
   44.0913   30.2543   48.2925 H   0  0  0  0  0  0  0  0  0  0  0  0
   46.4992   28.6027   48.3421 H   0  0  0  0  0  0  0  0  0  0  0  0
   45.2345   28.9855   47.0480 H   0  0  0  0  0  0  0  0  0  0  0  0
   46.7860   30.0223   46.0674 H   0  0  0  0  0  0  0  0  0  0  0  0
   48.9068   30.9465   47.6684 H   0  0  0  0  0  0  0  0  0  0  0  0
   43.0875   36.2135   42.0827 H   0  0  0  0  0  0  0  0  0  0  0  0
   42.6798   34.9660   43.2911 H   0  0  0  0  0  0  0  0  0  0  0  0
  1  6  2  0
  2  3  2  0
  2  1  1  0
  3  4  1  0
  4  5  2  0
  5  7  1  0
  6  5  1  0
  7  8  1  0
  8  9  1  0
 10  9  1  0
 11 10  1  0
 12  7  1  0
 12 13  1  0
 12 11  1  0
 13 14  2  0
 15  1  1  0
 16 15  1  0
 17 16  2  0
 18 16  1  0
  2 19  1  0
  3 20  1  0
  8 21  1  0
  8 22  1  0
  9 23  1  0
  9 24  1  0
 10 25  1  0
 10 26  1  0
 11 27  1  0
 11 28  1  0
 12 29  1  6
 13 30  1  0
 18 31  1  0
 18 32  1  0
M  ISO  8  19  14  20  14  21  13  22  13  23  13  24  13  25  13  26  13
M  ISO  4  27  13  28  13  29  13  30   6
M  END
>  <minimizedAffinity>  (1) 
-5.34790373

>  <minimizedRMSD>  (1) 
0.05242116

$$$$
