
     RDKit          3D

 24 25  0  0  1  0  0  0  0  0999 V2000
   47.2740   34.6280   42.2980 N   0  0  0  0  0  0  0  0  0  0  0  0
   48.6870   34.8780   42.1840 C   0  0  0  0  0  0  0  0  0  0  0  0
   48.7200   35.5200   40.8220 C   0  0  0  0  0  0  0  0  0  0  0  0
   47.9660   34.4660   40.0350 C   0  0  0  0  0  0  0  0  0  0  0  0
   46.9030   34.0250   41.0180 C   0  0  2  0  0  0  0  0  0  0  0  0
   44.5820   36.0280   44.4520 C   0  0  0  0  0  0  0  0  0  0  0  0
   45.4550   35.9390   43.3530 C   0  0  0  0  0  0  0  0  0  0  0  0
   46.3440   34.8520   43.3250 C   0  0  0  0  0  0  0  0  0  0  0  0
   46.3080   33.9500   44.3620 N   0  0  0  0  0  0  0  0  0  0  0  0
   45.4500   34.0780   45.3980 C   0  0  0  0  0  0  0  0  0  0  0  0
   44.5890   35.1160   45.4390 N   0  0  0  0  0  0  0  0  0  0  0  0
   45.5800   34.3810   40.5970 N   0  0  0  0  0  0  0  0  0  0  0  0
   49.0469   35.5608   42.9677 H   0  0  0  0  0  0  0  0  0  0  0  0
   49.3287   33.9919   42.2983 H   0  0  0  0  0  0  0  0  0  0  0  0
   48.2011   36.4899   40.8121 H   0  0  0  0  0  0  0  0  0  0  0  0
   49.7230   35.7627   40.4412 H   0  0  0  0  0  0  0  0  0  0  0  0
   47.5156   34.8936   39.1271 H   0  0  0  0  0  0  0  0  0  0  0  0
   48.6037   33.6435   39.6789 H   0  0  0  0  0  0  0  0  0  0  0  0
   46.8651   32.9285   41.0965 H   0  0  0  0  0  0  0  0  0  0  0  0
   43.8735   36.8678   44.5052 H   0  0  0  0  0  0  0  0  0  0  0  0
   45.4421   36.6894   42.5488 H   0  0  0  0  0  0  0  0  0  0  0  0
   45.4535   33.3349   46.2091 H   0  0  0  0  0  0  0  0  0  0  0  0
   44.9876   34.5404   41.4244 H   0  0  0  0  0  0  0  0  0  0  0  0
   45.6193   35.2413   40.0320 H   0  0  0  0  0  0  0  0  0  0  0  0
  1  8  1  0
  2  1  1  0
  3  2  1  0
  4  3  1  0
  4  5  1  0
  5  1  1  0
  6 11  2  0
  7  6  1  0
  8  7  2  0
  8  9  1  0
  9 10  2  0
 10 11  1  0
 12  5  1  0
  2 13  1  0
  2 14  1  0
  3 15  1  0
  3 16  1  0
  4 17  1  0
  4 18  1  0
  5 19  1  1
  6 20  1  0
  7 21  1  0
 10 22  1  0
 12 23  1  0
 12 24  1  0
M  ISO  8  13  13  14  13  15  13  16  13  17  13  18  13  19  13  20  14
M  ISO  4  21  14  22  14  23   5  24   5
M  END
>  <minimizedAffinity>  (1) 
-4.69433165

>  <minimizedRMSD>  (1) 
0.187758818

$$$$
