
     RDKit          3D

 36 38  0  0  1  0  0  0  0  0999 V2000
   47.2510   34.6690   42.3130 N   0  0  0  0  0  0  0  0  0  0  0  0
   48.6910   34.6510   42.3180 C   0  0  0  0  0  0  0  0  0  0  0  0
   48.9460   35.5240   41.1170 C   0  0  0  0  0  0  0  0  0  0  0  0
   48.0970   34.7710   40.1160 C   0  0  0  0  0  0  0  0  0  0  0  0
   46.8670   34.4500   40.9460 C   0  0  1  0  0  0  0  0  0  0  0  0
   44.5030   35.9430   44.4630 C   0  0  0  0  0  0  0  0  0  0  0  0
   45.3680   35.8660   43.3750 C   0  0  0  0  0  0  0  0  0  0  0  0
   46.3270   34.8510   43.3550 C   0  0  0  0  0  0  0  0  0  0  0  0
   46.3430   34.0050   44.4150 N   0  0  0  0  0  0  0  0  0  0  0  0
   45.5080   34.0790   45.4670 C   0  0  0  0  0  0  0  0  0  0  0  0
   44.5760   35.0630   45.4890 N   0  0  0  0  0  0  0  0  0  0  0  0
   46.3840   33.1120   40.6990 N   0  0  0  0  0  0  0  0  0  0  0  0
   45.0130   33.0560   40.3540 C   0  0  0  0  0  0  0  0  0  0  0  0
   44.6670   32.0740   39.2710 C   0  0  0  0  0  0  0  0  0  0  0  0
   45.4210   30.8750   39.2490 N   0  0  0  0  0  0  0  0  0  0  0  0
   46.7010   30.9180   39.8980 C   0  0  0  0  0  0  0  0  0  0  0  0
   47.1880   32.3700   39.7940 C   0  0  0  0  0  0  0  0  0  0  0  0
   49.1051   35.0868   43.2392 H   0  0  0  0  0  0  0  0  0  0  0  0
   49.1502   33.6521   42.2808 H   0  0  0  0  0  0  0  0  0  0  0  0
   48.5925   36.5544   41.2698 H   0  0  0  0  0  0  0  0  0  0  0  0
   50.0016   35.6649   40.8414 H   0  0  0  0  0  0  0  0  0  0  0  0
   48.5994   33.8553   39.7708 H   0  0  0  0  0  0  0  0  0  0  0  0
   47.8833   35.3334   39.1951 H   0  0  0  0  0  0  0  0  0  0  0  0
   46.0165   35.0943   40.6785 H   0  0  0  0  0  0  0  0  0  0  0  0
   43.7425   36.7374   44.4896 H   0  0  0  0  0  0  0  0  0  0  0  0
   45.2977   36.5890   42.5489 H   0  0  0  0  0  0  0  0  0  0  0  0
   45.5800   33.3557   46.2926 H   0  0  0  0  0  0  0  0  0  0  0  0
   44.4458   32.7823   41.2558 H   0  0  0  0  0  0  0  0  0  0  0  0
   44.7561   34.0500   39.9591 H   0  0  0  0  0  0  0  0  0  0  0  0
   43.6079   31.8021   39.3905 H   0  0  0  0  0  0  0  0  0  0  0  0
   44.8997   32.5852   38.3252 H   0  0  0  0  0  0  0  0  0  0  0  0
   44.8605   30.1430   39.7082 H   0  0  0  0  0  0  0  0  0  0  0  0
   46.6030   30.6238   40.9534 H   0  0  0  0  0  0  0  0  0  0  0  0
   47.4118   30.2231   39.4269 H   0  0  0  0  0  0  0  0  0  0  0  0
   47.0572   32.7456   38.7684 H   0  0  0  0  0  0  0  0  0  0  0  0
   48.2574   32.4573   40.0364 H   0  0  0  0  0  0  0  0  0  0  0  0
  1  2  1  0
  1  8  1  0
  3  2  1  0
  4  5  1  0
  4  3  1  0
  5  1  1  0
  6 11  2  0
  7  6  1  0
  8  7  2  0
  8  9  1  0
  9 10  2  0
 10 11  1  0
 12 17  1  0
 12  5  1  0
 13 12  1  0
 14 13  1  0
 15 14  1  0
 15 16  1  0
 17 16  1  0
  2 18  1  0
  2 19  1  0
  3 20  1  0
  3 21  1  0
  4 22  1  0
  4 23  1  0
  5 24  1  6
  6 25  1  0
  7 26  1  0
 10 27  1  0
 13 28  1  0
 13 29  1  0
 14 30  1  0
 14 31  1  0
 15 32  1  0
 16 33  1  0
 16 34  1  0
 17 35  1  0
 17 36  1  0
M  ISO  8  18  13  19  13  20  13  21  13  22  13  23  13  24  13  25  14
M  ISO  8  26  14  27  14  28  13  29  13  30  13  31  13  32   5  33  13
M  ISO  3  34  13  35  13  36  13
M  END
>  <minimizedAffinity>  (1) 
-4.68071556

>  <minimizedRMSD>  (1) 
1.21116745

$$$$
