
     RDKit          3D

 34 36  0  0  1  0  0  0  0  0999 V2000
   47.1780   34.4600   42.5400 N   0  0  0  0  0  0  0  0  0  0  0  0
   48.5680   34.0250   42.5780 C   0  0  0  0  0  0  0  0  0  0  0  0
   49.1420   35.0280   41.5990 C   0  0  0  0  0  0  0  0  0  0  0  0
   48.1990   34.8150   40.4410 C   0  0  0  0  0  0  0  0  0  0  0  0
   46.8620   34.6230   41.1450 C   0  0  1  0  0  0  0  0  0  0  0  0
   44.4930   35.8440   44.7130 C   0  0  0  0  0  0  0  0  0  0  0  0
   45.3330   35.7270   43.5910 C   0  0  0  0  0  0  0  0  0  0  0  0
   46.2720   34.6950   43.5980 C   0  0  0  0  0  0  0  0  0  0  0  0
   46.3040   33.8820   44.6860 N   0  0  0  0  0  0  0  0  0  0  0  0
   45.4950   34.0070   45.7480 C   0  0  0  0  0  0  0  0  0  0  0  0
   44.5800   35.0000   45.7600 N   0  0  0  0  0  0  0  0  0  0  0  0
   46.1430   33.4890   40.6030 N   0  0  0  0  0  0  0  0  0  0  0  0
   44.7640   33.8360   40.4020 C   0  0  0  0  0  0  0  0  0  0  0  0
   44.3600   33.2360   39.0630 C   0  0  0  0  0  0  0  0  0  0  0  0
   45.5680   32.4920   38.5380 C   0  0  0  0  0  0  0  0  0  0  0  0
   46.6930   33.1310   39.3300 C   0  0  0  0  0  0  0  0  0  0  0  0
   49.0072   34.1268   43.5814 H   0  0  0  0  0  0  0  0  0  0  0  0
   48.7447   32.9664   42.3371 H   0  0  0  0  0  0  0  0  0  0  0  0
   49.0896   36.0560   41.9869 H   0  0  0  0  0  0  0  0  0  0  0  0
   50.2084   34.8951   41.3644 H   0  0  0  0  0  0  0  0  0  0  0  0
   48.4757   33.9226   39.8604 H   0  0  0  0  0  0  0  0  0  0  0  0
   48.2002   35.6400   39.7135 H   0  0  0  0  0  0  0  0  0  0  0  0
   46.1917   35.4825   40.9971 H   0  0  0  0  0  0  0  0  0  0  0  0
   43.7429   36.6482   44.7366 H   0  0  0  0  0  0  0  0  0  0  0  0
   45.2529   36.4215   42.7417 H   0  0  0  0  0  0  0  0  0  0  0  0
   45.5755   33.3114   46.5963 H   0  0  0  0  0  0  0  0  0  0  0  0
   44.1449   33.4169   41.2089 H   0  0  0  0  0  0  0  0  0  0  0  0
   44.6225   34.9268   40.4088 H   0  0  0  0  0  0  0  0  0  0  0  0
   43.5166   32.5427   39.1972 H   0  0  0  0  0  0  0  0  0  0  0  0
   44.0404   34.0185   38.3590 H   0  0  0  0  0  0  0  0  0  0  0  0
   45.4952   31.4139   38.7438 H   0  0  0  0  0  0  0  0  0  0  0  0
   45.6951   32.5612   37.4476 H   0  0  0  0  0  0  0  0  0  0  0  0
   47.5191   32.4165   39.4605 H   0  0  0  0  0  0  0  0  0  0  0  0
   47.0952   34.0123   38.8088 H   0  0  0  0  0  0  0  0  0  0  0  0
  1  2  1  0
  1  8  1  0
  3  2  1  0
  4  5  1  0
  4  3  1  0
  5  1  1  0
  6 11  2  0
  7  8  2  0
  7  6  1  0
  8  9  1  0
  9 10  2  0
 10 11  1  0
 12 13  1  0
 12  5  1  0
 14 13  1  0
 15 14  1  0
 15 16  1  0
 16 12  1  0
  2 17  1  0
  2 18  1  0
  3 19  1  0
  3 20  1  0
  4 21  1  0
  4 22  1  0
  5 23  1  1
  6 24  1  0
  7 25  1  0
 10 26  1  0
 13 27  1  0
 13 28  1  0
 14 29  1  0
 14 30  1  0
 15 31  1  0
 15 32  1  0
 16 33  1  0
 16 34  1  0
M  ISO  8  17  13  18  13  19  13  20  13  21  13  22  13  23  13  24  14
M  ISO  8  25  14  26  14  27  13  28  13  29  13  30  13  31  13  32  13
M  ISO  2  33  13  34  13
M  END
>  <minimizedAffinity>  (1) 
-4.67908144

>  <minimizedRMSD>  (1) 
1.27208662

$$$$
