
     RDKit          3D

 29 31  0  0  1  0  0  0  0  0999 V2000
   47.2880   34.6670   42.2970 N   0  0  0  0  0  0  0  0  0  0  0  0
   48.7290   34.7320   42.2750 C   0  0  0  0  0  0  0  0  0  0  0  0
   48.9070   35.5490   41.0220 C   0  0  0  0  0  0  0  0  0  0  0  0
   48.0810   34.6920   40.0630 C   0  0  0  0  0  0  0  0  0  0  0  0
   46.9050   34.3410   40.9280 C   0  0  1  0  0  0  0  0  0  0  0  0
   44.5120   35.9060   44.4290 C   0  0  0  0  0  0  0  0  0  0  0  0
   45.3790   35.8610   43.3180 C   0  0  0  0  0  0  0  0  0  0  0  0
   46.3450   34.8530   43.3300 C   0  0  0  0  0  0  0  0  0  0  0  0
   46.3930   33.9860   44.3970 N   0  0  0  0  0  0  0  0  0  0  0  0
   45.5480   34.0610   45.4380 C   0  0  0  0  0  0  0  0  0  0  0  0
   44.6000   35.0340   45.4470 N   0  0  0  0  0  0  0  0  0  0  0  0
   46.3980   32.9770   40.7600 C   0  0  0  0  0  0  0  0  0  0  0  0
   45.1170   32.7130   40.3370 C   0  0  0  0  0  0  0  0  0  0  0  0
   45.0170   31.3210   40.3030 C   0  0  0  0  0  0  0  0  0  0  0  0
   46.1950   30.7970   40.6930 N   0  0  0  0  0  0  0  0  0  0  0  0
   47.0220   31.7900   40.9670 N   0  0  0  0  0  0  0  0  0  0  0  0
   49.1327   35.2428   43.1616 H   0  0  0  0  0  0  0  0  0  0  0  0
   49.2473   33.7618   42.2856 H   0  0  0  0  0  0  0  0  0  0  0  0
   48.4953   36.5635   41.1284 H   0  0  0  0  0  0  0  0  0  0  0  0
   49.9484   35.7313   40.7184 H   0  0  0  0  0  0  0  0  0  0  0  0
   48.6323   33.7938   39.7477 H   0  0  0  0  0  0  0  0  0  0  0  0
   47.8157   35.1948   39.1213 H   0  0  0  0  0  0  0  0  0  0  0  0
   46.0310   34.9329   40.6184 H   0  0  0  0  0  0  0  0  0  0  0  0
   43.7349   36.6838   44.4634 H   0  0  0  0  0  0  0  0  0  0  0  0
   45.2989   36.5793   42.4888 H   0  0  0  0  0  0  0  0  0  0  0  0
   45.6223   33.3458   46.2704 H   0  0  0  0  0  0  0  0  0  0  0  0
   44.3361   33.4438   40.0798 H   0  0  0  0  0  0  0  0  0  0  0  0
   44.1257   30.7482   40.0073 H   0  0  0  0  0  0  0  0  0  0  0  0
   46.4137   29.7931   40.7653 H   0  0  0  0  0  0  0  0  0  0  0  0
  1  8  1  0
  2  1  1  0
  3  2  1  0
  4  5  1  0
  4  3  1  0
  5  1  1  0
  6 11  2  0
  7  8  2  0
  7  6  1  0
  8  9  1  0
  9 10  2  0
 10 11  1  0
 12  5  1  0
 12 16  2  0
 13 12  1  0
 14 13  2  0
 14 15  1  0
 15 16  1  0
  2 17  1  0
  2 18  1  0
  3 19  1  0
  3 20  1  0
  4 21  1  0
  4 22  1  0
  5 23  1  6
  6 24  1  0
  7 25  1  0
 10 26  1  0
 13 27  1  0
 14 28  1  0
 15 29  1  0
M  ISO  8  17  13  18  13  19  13  20  13  21  13  22  13  23  13  24  14
M  ISO  5  25  14  26  14  27  14  28  14  29   9
M  END
>  <minimizedAffinity>  (1) 
-4.57632256

>  <minimizedRMSD>  (1) 
0.115654737

$$$$
