
     RDKit          3D

 25 26  0  0  1  0  0  0  0  0999 V2000
   47.2420   34.6280   42.3180 N   0  0  0  0  0  0  0  0  0  0  0  0
   48.6810   34.6950   42.2910 C   0  0  0  0  0  0  0  0  0  0  0  0
   48.8710   35.5100   41.0350 C   0  0  0  0  0  0  0  0  0  0  0  0
   48.0300   34.6850   40.0790 C   0  0  0  0  0  0  0  0  0  0  0  0
   46.8780   34.2630   40.9660 C   0  0  1  0  0  0  0  0  0  0  0  0
   44.5110   35.9730   44.4530 C   0  0  0  0  0  0  0  0  0  0  0  0
   45.3730   35.8860   43.3460 C   0  0  0  0  0  0  0  0  0  0  0  0
   46.3210   34.8450   43.3440 C   0  0  0  0  0  0  0  0  0  0  0  0
   46.3390   33.9930   44.4160 N   0  0  0  0  0  0  0  0  0  0  0  0
   45.4900   34.1150   45.4620 C   0  0  0  0  0  0  0  0  0  0  0  0
   44.5720   35.1080   45.4810 N   0  0  0  0  0  0  0  0  0  0  0  0
   46.7230   32.7460   40.9290 C   0  0  0  0  0  0  0  0  0  0  0  0
   49.0843   35.2072   43.1770 H   0  0  0  0  0  0  0  0  0  0  0  0
   49.1944   33.7222   42.2991 H   0  0  0  0  0  0  0  0  0  0  0  0
   48.4830   36.5333   41.1460 H   0  0  0  0  0  0  0  0  0  0  0  0
   49.9159   35.6653   40.7285 H   0  0  0  0  0  0  0  0  0  0  0  0
   48.5875   33.8137   39.7047 H   0  0  0  0  0  0  0  0  0  0  0  0
   47.7201   35.2292   39.1747 H   0  0  0  0  0  0  0  0  0  0  0  0
   45.9435   34.7385   40.6334 H   0  0  0  0  0  0  0  0  0  0  0  0
   43.7604   36.7766   44.4794 H   0  0  0  0  0  0  0  0  0  0  0  0
   45.3094   36.6029   42.5141 H   0  0  0  0  0  0  0  0  0  0  0  0
   45.5464   33.4044   46.2997 H   0  0  0  0  0  0  0  0  0  0  0  0
   46.6832   32.3563   41.9569 H   0  0  0  0  0  0  0  0  0  0  0  0
   45.7935   32.4851   40.4017 H   0  0  0  0  0  0  0  0  0  0  0  0
   47.5805   32.3026   40.4017 H   0  0  0  0  0  0  0  0  0  0  0  0
  1  8  1  0
  2  1  1  0
  3  2  1  0
  4  5  1  0
  4  3  1  0
  5  1  1  0
  6 11  2  0
  7  6  1  0
  8  7  2  0
  8  9  1  0
  9 10  2  0
 10 11  1  0
 12  5  1  0
  2 13  1  0
  2 14  1  0
  3 15  1  0
  3 16  1  0
  4 17  1  0
  4 18  1  0
  5 19  1  6
  6 20  1  0
  7 21  1  0
 10 22  1  0
 12 23  1  0
 12 24  1  0
 12 25  1  0
M  ISO  8  13  13  14  13  15  13  16  13  17  13  18  13  19  13  20  14
M  ISO  5  21  14  22  14  23   8  24   8  25   8
M  END
>  <minimizedAffinity>  (1) 
-4.48920345

>  <minimizedRMSD>  (1) 
0.0179663673

$$$$
