
     RDKit          3D

 28 29  0  0  1  0  0  0  0  0999 V2000
   47.2600   34.5210   42.3470 N   0  0  0  0  0  0  0  0  0  0  0  0
   48.6420   34.9510   42.1590 C   0  0  0  0  0  0  0  0  0  0  0  0
   48.5660   35.3660   40.7150 C   0  0  0  0  0  0  0  0  0  0  0  0
   47.9980   34.0890   40.1380 C   0  0  0  0  0  0  0  0  0  0  0  0
   46.9600   33.7230   41.1880 C   0  0  2  0  0  0  0  0  0  0  0  0
   44.6050   35.9930   44.4690 C   0  0  0  0  0  0  0  0  0  0  0  0
   45.4710   35.8430   43.3940 C   0  0  0  0  0  0  0  0  0  0  0  0
   46.3550   34.7670   43.3790 C   0  0  0  0  0  0  0  0  0  0  0  0
   46.3270   33.8970   44.4440 N   0  0  0  0  0  0  0  0  0  0  0  0
   45.4710   34.0630   45.4870 C   0  0  0  0  0  0  0  0  0  0  0  0
   44.6090   35.1110   45.5010 N   0  0  0  0  0  0  0  0  0  0  0  0
   45.6040   33.9960   40.5780 C   0  0  0  0  0  0  0  0  0  0  0  0
   45.5290   33.1130   39.3220 C   0  0  0  0  0  0  0  0  0  0  0  0
   48.9050   35.7927   42.8166 H   0  0  0  0  0  0  0  0  0  0  0  0
   49.4078   34.1973   42.3945 H   0  0  0  0  0  0  0  0  0  0  0  0
   47.8922   36.2226   40.5659 H   0  0  0  0  0  0  0  0  0  0  0  0
   49.5107   35.7102   40.2689 H   0  0  0  0  0  0  0  0  0  0  0  0
   47.5336   34.2625   39.1561 H   0  0  0  0  0  0  0  0  0  0  0  0
   48.7478   33.3055   39.9537 H   0  0  0  0  0  0  0  0  0  0  0  0
   46.9666   32.6681   41.4996 H   0  0  0  0  0  0  0  0  0  0  0  0
   43.9041   36.8406   44.4847 H   0  0  0  0  0  0  0  0  0  0  0  0
   45.4589   36.5652   42.5644 H   0  0  0  0  0  0  0  0  0  0  0  0
   45.4771   33.3463   46.3214 H   0  0  0  0  0  0  0  0  0  0  0  0
   44.8045   33.7275   41.2841 H   0  0  0  0  0  0  0  0  0  0  0  0
   45.4747   35.0609   40.3346 H   0  0  0  0  0  0  0  0  0  0  0  0
   45.4394   32.0580   39.6203 H   0  0  0  0  0  0  0  0  0  0  0  0
   44.6520   33.4006   38.7235 H   0  0  0  0  0  0  0  0  0  0  0  0
   46.4419   33.2485   38.7235 H   0  0  0  0  0  0  0  0  0  0  0  0
  1  8  1  0
  2  1  1  0
  3  2  1  0
  4  3  1  0
  4  5  1  0
  5  1  1  0
  6 11  2  0
  7  6  1  0
  8  7  2  0
  8  9  1  0
  9 10  2  0
 10 11  1  0
 12  5  1  0
 13 12  1  0
  2 14  1  0
  2 15  1  0
  3 16  1  0
  3 17  1  0
  4 18  1  0
  4 19  1  0
  5 20  1  1
  6 21  1  0
  7 22  1  0
 10 23  1  0
 12 24  1  0
 12 25  1  0
 13 26  1  0
 13 27  1  0
 13 28  1  0
M  ISO  8  14  13  15  13  16  13  17  13  18  13  19  13  20  13  21  14
M  ISO  7  22  14  23  14  24   8  25   8  26   8  27   8  28   8
M  END
>  <minimizedAffinity>  (1) 
-4.29200315

>  <minimizedRMSD>  (1) 
0.518556893

$$$$
