
     RDKit          3D

 36 39  0  0  1  0  0  0  0  0999 V2000
   47.1510   34.3730   42.6480 N   0  0  0  0  0  0  0  0  0  0  0  0
   48.5090   33.8380   42.6170 C   0  0  0  0  0  0  0  0  0  0  0  0
   49.1100   34.8380   41.6670 C   0  0  0  0  0  0  0  0  0  0  0  0
   48.1170   34.7730   40.5280 C   0  0  0  0  0  0  0  0  0  0  0  0
   46.7900   34.6780   41.2620 C   0  0  1  0  0  0  0  0  0  0  0  0
   45.9750   33.5400   40.8060 C   0  0  0  0  0  0  0  0  0  0  0  0
   46.4920   32.3090   40.6320 N   0  0  0  0  0  0  0  0  0  0  0  0
   45.7920   31.2370   40.2190 C   0  0  0  0  0  0  0  0  0  0  0  0
   44.4860   31.3970   39.9580 N   0  0  0  0  0  0  0  0  0  0  0  0
   43.9240   32.5880   40.1110 C   0  0  0  0  0  0  0  0  0  0  0  0
   42.5760   32.6770   39.8240 C   0  0  0  0  0  0  0  0  0  0  0  0
   41.9820   33.9330   39.9850 C   0  0  0  0  0  0  0  0  0  0  0  0
   42.6410   35.0710   40.4060 C   0  0  0  0  0  0  0  0  0  0  0  0
   43.9850   34.9020   40.6740 C   0  0  0  0  0  0  0  0  0  0  0  0
   44.6260   33.7100   40.5370 C   0  0  0  0  0  0  0  0  0  0  0  0
   44.5180   35.7370   44.8920 C   0  0  0  0  0  0  0  0  0  0  0  0
   45.3300   35.6420   43.7650 C   0  0  0  0  0  0  0  0  0  0  0  0
   46.2620   34.6000   43.7210 C   0  0  0  0  0  0  0  0  0  0  0  0
   46.3320   33.7320   44.7810 N   0  0  0  0  0  0  0  0  0  0  0  0
   45.5250   33.8540   45.8670 C   0  0  0  0  0  0  0  0  0  0  0  0
   44.6160   34.8680   45.9130 N   0  0  0  0  0  0  0  0  0  0  0  0
   48.9890   33.8635   43.6064 H   0  0  0  0  0  0  0  0  0  0  0  0
   48.6037   32.7812   42.3270 H   0  0  0  0  0  0  0  0  0  0  0  0
   49.1530   35.8437   42.1106 H   0  0  0  0  0  0  0  0  0  0  0  0
   50.1503   34.6266   41.3789 H   0  0  0  0  0  0  0  0  0  0  0  0
   48.2891   33.8869   39.8993 H   0  0  0  0  0  0  0  0  0  0  0  0
   48.1796   35.6283   39.8391 H   0  0  0  0  0  0  0  0  0  0  0  0
   46.2186   35.6051   41.1069 H   0  0  0  0  0  0  0  0  0  0  0  0
   46.2769   30.2570   40.0987 H   0  0  0  0  0  0  0  0  0  0  0  0
   41.9985   31.8040   39.4858 H   0  0  0  0  0  0  0  0  0  0  0  0
   40.9090   34.0208   39.7592 H   0  0  0  0  0  0  0  0  0  0  0  0
   42.1331   36.0401   40.5195 H   0  0  0  0  0  0  0  0  0  0  0  0
   44.5648   35.7726   41.0144 H   0  0  0  0  0  0  0  0  0  0  0  0
   43.7751   36.5462   44.9486 H   0  0  0  0  0  0  0  0  0  0  0  0
   45.2416   36.3616   42.9377 H   0  0  0  0  0  0  0  0  0  0  0  0
   45.6046   33.1412   46.7010 H   0  0  0  0  0  0  0  0  0  0  0  0
  1 18  1  0
  2  1  1  0
  3  2  1  0
  4  5  1  0
  4  3  1  0
  5  1  1  0
  6  5  1  0
  7  6  2  0
  8  7  1  0
  9 10  1  0
  9  8  2  0
 10 15  2  0
 11 12  2  0
 11 10  1  0
 12 13  1  0
 13 14  2  0
 15 14  1  0
 15  6  1  0
 16 21  2  0
 17 16  1  0
 18 17  2  0
 18 19  1  0
 19 20  2  0
 20 21  1  0
  2 22  1  0
  2 23  1  0
  3 24  1  0
  3 25  1  0
  4 26  1  0
  4 27  1  0
  5 28  1  1
  8 29  1  0
 11 30  1  0
 12 31  1  0
 13 32  1  0
 14 33  1  0
 16 34  1  0
 17 35  1  0
 20 36  1  0
M  ISO  8  22  13  23  13  24  13  25  13  26  13  27  13  28  13  29  14
M  ISO  7  30  14  31  14  32  14  33  14  34  14  35  14  36  14
M  END
>  <minimizedAffinity>  (1) 
-5.48071575

>  <minimizedRMSD>  (1) 
1.59747946

$$$$
