
     RDKit          3D

 38 41  0  0  1  0  0  0  0  0999 V2000
   46.0180   32.9940   44.1600 N   0  0  0  0  0  0  0  0  0  0  0  0
   45.5980   34.0120   43.3210 C   0  0  0  0  0  0  0  0  0  0  0  0
   46.1710   35.0870   42.9950 O   0  0  0  0  0  0  0  0  0  0  0  0
   47.7010   31.5750   45.2940 C   0  0  1  0  0  0  0  0  0  0  0  0
   47.3890   30.9130   44.0810 C   0  0  0  0  0  0  0  0  0  0  0  0
   47.3360   32.4490   44.1410 C   0  0  1  0  0  0  0  0  0  0  0  0
   45.7380   30.4430   46.5500 C   0  0  0  0  0  0  0  0  0  0  0  0
   46.6870   31.4960   46.4370 C   0  0  0  0  0  0  0  0  0  0  0  0
   46.6710   32.4850   47.3920 C   0  0  0  0  0  0  0  0  0  0  0  0
   45.7570   32.4140   48.3910 N   0  0  0  0  0  0  0  0  0  0  0  0
   44.8580   31.4120   48.4940 C   0  0  0  0  0  0  0  0  0  0  0  0
   44.8530   30.3940   47.5370 N   0  0  0  0  0  0  0  0  0  0  0  0
   44.2450   33.9120   42.6260 C   0  0  2  0  0  0  0  0  0  0  0  0
   44.0960   32.7790   41.5680 C   0  0  0  0  0  0  0  0  0  0  0  0
   44.0820   34.2590   41.2210 C   0  0  1  0  0  0  0  0  0  0  0  0
   43.1600   33.9970   38.2650 Cl  0  0  0  0  0  0  0  0  0  0  0  0
   42.2350   34.7690   39.5220 C   0  0  0  0  0  0  0  0  0  0  0  0
   42.7550   34.8250   40.7930 C   0  0  0  0  0  0  0  0  0  0  0  0
   41.9340   35.4610   41.6970 C   0  0  0  0  0  0  0  0  0  0  0  0
   40.7010   35.9990   41.3920 C   0  0  0  0  0  0  0  0  0  0  0  0
   40.2330   35.9100   40.0980 C   0  0  0  0  0  0  0  0  0  0  0  0
   41.0140   35.2850   39.1520 C   0  0  0  0  0  0  0  0  0  0  0  0
   40.4300   35.1680   37.5140 Cl  0  0  0  0  0  0  0  0  0  0  0  0
   45.3417   32.6091   44.8348 H   0  0  0  0  0  0  0  0  0  0  0  0
   48.5665   31.5237   45.9709 H   0  0  0  0  0  0  0  0  0  0  0  0
   46.4571   30.3348   43.9955 H   0  0  0  0  0  0  0  0  0  0  0  0
   47.9047   30.1798   43.4435 H   0  0  0  0  0  0  0  0  0  0  0  0
   47.7921   33.2992   43.6127 H   0  0  0  0  0  0  0  0  0  0  0  0
   45.7377   29.6433   45.7947 H   0  0  0  0  0  0  0  0  0  0  0  0
   47.3869   33.3189   47.3464 H   0  0  0  0  0  0  0  0  0  0  0  0
   44.1360   31.3972   49.3238 H   0  0  0  0  0  0  0  0  0  0  0  0
   43.7230   34.2372   43.5380 H   0  0  0  0  0  0  0  0  0  0  0  0
   44.9564   32.1491   41.2978 H   0  0  0  0  0  0  0  0  0  0  0  0
   43.4319   31.9163   41.4109 H   0  0  0  0  0  0  0  0  0  0  0  0
   44.6591   34.8930   40.5317 H   0  0  0  0  0  0  0  0  0  0  0  0
   42.2862   35.5461   42.7356 H   0  0  0  0  0  0  0  0  0  0  0  0
   40.0996   36.4920   42.1700 H   0  0  0  0  0  0  0  0  0  0  0  0
   39.2535   36.3307   39.8265 H   0  0  0  0  0  0  0  0  0  0  0  0
  2  1  1  0
  3  2  2  0
  4  8  1  0
  5  6  1  0
  5  4  1  0
  6  1  1  0
  6  4  1  0
  7 12  2  0
  8  7  1  0
  8  9  2  0
  9 10  1  0
 10 11  2  0
 12 11  1  0
 13  2  1  0
 14 13  1  0
 15 14  1  0
 15 13  1  0
 16 17  1  0
 17 18  2  0
 18 15  1  0
 18 19  1  0
 20 19  2  0
 21 20  1  0
 22 17  1  0
 22 21  2  0
 23 22  1  0
  1 24  1  0
  4 25  1  1
  5 26  1  0
  5 27  1  0
  6 28  1  6
  7 29  1  0
  9 30  1  0
 11 31  1  0
 13 32  1  1
 14 33  1  0
 14 34  1  0
 15 35  1  6
 19 36  1  0
 20 37  1  0
 21 38  1  0
M  ISO  8  25  13  26  13  27  13  28  13  29  14  30  14  31  14  32  13
M  ISO  6  33  13  34  13  35  13  36  14  37  14  38  14
M  END
>  <minimizedAffinity>  (1) 
-5.3955102

>  <minimizedRMSD>  (1) 
4.82551146

$$$$
