
     RDKit          3D

 46 50  0  0  1  0  0  0  0  0999 V2000
   47.2050   34.3010   42.6950 N   0  0  0  0  0  0  0  0  0  0  0  0
   48.5530   33.7680   42.5780 C   0  0  0  0  0  0  0  0  0  0  0  0
   49.1190   34.8660   41.7070 C   0  0  0  0  0  0  0  0  0  0  0  0
   48.0980   34.8660   40.5900 C   0  0  0  0  0  0  0  0  0  0  0  0
   46.7890   34.7300   41.3330 C   0  0  1  0  0  0  0  0  0  0  0  0
   45.9490   33.6630   40.8300 C   0  0  0  0  0  0  0  0  0  0  0  0
   46.4560   32.4340   40.5680 N   0  0  0  0  0  0  0  0  0  0  0  0
   45.7430   31.3920   40.0910 C   0  0  0  0  0  0  0  0  0  0  0  0
   44.4350   31.5740   39.8570 N   0  0  0  0  0  0  0  0  0  0  0  0
   43.8910   32.7500   40.0960 C   0  0  0  0  0  0  0  0  0  0  0  0
   42.5360   32.8780   39.8400 C   0  0  0  0  0  0  0  0  0  0  0  0
   41.9590   34.1230   40.0960 C   0  0  0  0  0  0  0  0  0  0  0  0
   42.6380   35.2360   40.5840 C   0  0  0  0  0  0  0  0  0  0  0  0
   43.9840   35.0180   40.8100 C   0  0  0  0  0  0  0  0  0  0  0  0
   44.6070   33.8410   40.5870 C   0  0  0  0  0  0  0  0  0  0  0  0
   44.5920   35.4650   45.0860 C   0  0  0  0  0  0  0  0  0  0  0  0
   45.3750   35.4320   43.9390 C   0  0  0  0  0  0  0  0  0  0  0  0
   46.3440   34.4480   43.8110 C   0  0  0  0  0  0  0  0  0  0  0  0
   46.4810   33.5550   44.8270 N   0  0  0  0  0  0  0  0  0  0  0  0
   45.7090   33.6000   45.9440 C   0  0  0  0  0  0  0  0  0  0  0  0
   44.7610   34.5650   46.0640 N   0  0  0  0  0  0  0  0  0  0  0  0
   47.5530   31.5500   45.7200 F   0  0  0  0  0  0  0  0  0  0  0  0
   46.8120   31.6220   46.8640 C   0  0  0  0  0  0  0  0  0  0  0  0
   45.8940   32.6310   46.9920 C   0  0  0  0  0  0  0  0  0  0  0  0
   45.1620   32.6850   48.1460 C   0  0  0  0  0  0  0  0  0  0  0  0
   45.3550   31.7460   49.1390 C   0  0  0  0  0  0  0  0  0  0  0  0
   46.2800   30.7260   49.0140 C   0  0  0  0  0  0  0  0  0  0  0  0
   47.0230   30.6720   47.8420 C   0  0  0  0  0  0  0  0  0  0  0  0
   49.0627   33.6990   43.5503 H   0  0  0  0  0  0  0  0  0  0  0  0
   48.6417   32.7420   42.1915 H   0  0  0  0  0  0  0  0  0  0  0  0
   49.1481   35.8312   42.2338 H   0  0  0  0  0  0  0  0  0  0  0  0
   50.1594   34.7124   41.3845 H   0  0  0  0  0  0  0  0  0  0  0  0
   48.2566   34.0175   39.9082 H   0  0  0  0  0  0  0  0  0  0  0  0
   48.1472   35.7628   39.9550 H   0  0  0  0  0  0  0  0  0  0  0  0
   46.2210   35.6689   41.2559 H   0  0  0  0  0  0  0  0  0  0  0  0
   46.2215   30.4202   39.8994 H   0  0  0  0  0  0  0  0  0  0  0  0
   41.9418   32.0372   39.4527 H   0  0  0  0  0  0  0  0  0  0  0  0
   40.8829   34.2333   39.8964 H   0  0  0  0  0  0  0  0  0  0  0  0
   42.1473   36.2022   40.7728 H   0  0  0  0  0  0  0  0  0  0  0  0
   44.5848   35.8550   41.1953 H   0  0  0  0  0  0  0  0  0  0  0  0
   43.8211   36.2423   45.1930 H   0  0  0  0  0  0  0  0  0  0  0  0
   45.2284   36.1766   43.1427 H   0  0  0  0  0  0  0  0  0  0  0  0
   44.4154   33.4811   48.2835 H   0  0  0  0  0  0  0  0  0  0  0  0
   44.7543   31.8112   50.0582 H   0  0  0  0  0  0  0  0  0  0  0  0
   46.4222   29.9843   49.8138 H   0  0  0  0  0  0  0  0  0  0  0  0
   47.7720   29.8800   47.6949 H   0  0  0  0  0  0  0  0  0  0  0  0
  1 18  1  0
  2  1  1  0
  3  2  1  0
  4  5  1  0
  4  3  1  0
  5  1  1  0
  6  5  1  0
  7  6  2  0
  8  7  1  0
  9  8  2  0
  9 10  1  0
 10 15  2  0
 11 10  1  0
 11 12  2  0
 12 13  1  0
 13 14  2  0
 15 14  1  0
 15  6  1  0
 16 21  2  0
 17 16  1  0
 18 17  2  0
 18 19  1  0
 19 20  2  0
 20 21  1  0
 20 24  1  0
 22 23  1  0
 23 24  2  0
 23 28  1  0
 24 25  1  0
 25 26  2  0
 27 26  1  0
 28 27  2  0
  2 29  1  0
  2 30  1  0
  3 31  1  0
  3 32  1  0
  4 33  1  0
  4 34  1  0
  5 35  1  1
  8 36  1  0
 11 37  1  0
 12 38  1  0
 13 39  1  0
 14 40  1  0
 16 41  1  0
 17 42  1  0
 25 43  1  0
 26 44  1  0
 27 45  1  0
 28 46  1  0
M  ISO  8  29  13  30  13  31  13  32  13  33  13  34  13  35  13  36  14
M  ISO  8  37  14  38  14  39  14  40  14  41  14  42  14  43  14  44  14
M  ISO  2  45  14  46  14
M  END
>  <minimizedAffinity>  (1) 
-7.28859901

>  <minimizedRMSD>  (1) 
0.460814178

$$$$
