
     RDKit          3D

 49 53  0  0  1  0  0  0  0  0999 V2000
   47.1830   34.3280   42.6360 N   0  0  0  0  0  0  0  0  0  0  0  0
   48.5520   33.8110   42.5570 C   0  0  0  0  0  0  0  0  0  0  0  0
   49.1150   34.8480   41.6320 C   0  0  0  0  0  0  0  0  0  0  0  0
   48.0950   34.8160   40.5080 C   0  0  0  0  0  0  0  0  0  0  0  0
   46.7820   34.6830   41.2500 C   0  0  1  0  0  0  0  0  0  0  0  0
   44.5450   35.5550   44.9420 C   0  0  0  0  0  0  0  0  0  0  0  0
   45.3370   35.4720   43.8060 C   0  0  0  0  0  0  0  0  0  0  0  0
   46.3280   34.5030   43.7360 C   0  0  0  0  0  0  0  0  0  0  0  0
   46.4810   33.6690   44.7970 N   0  0  0  0  0  0  0  0  0  0  0  0
   45.7020   33.7540   45.9100 C   0  0  0  0  0  0  0  0  0  0  0  0
   44.7360   34.6990   45.9750 N   0  0  0  0  0  0  0  0  0  0  0  0
   45.9300   32.8410   46.9750 N   0  0  0  0  0  0  0  0  0  0  0  0
   47.1570   32.0770   47.0050 C   0  0  0  0  0  0  0  0  0  0  0  0
   47.4730   31.8580   48.4750 C   0  0  0  0  0  0  0  0  0  0  0  0
   46.4840   31.1450   49.1060 O   0  0  0  0  0  0  0  0  0  0  0  0
   45.2290   31.2470   48.5630 C   0  0  0  0  0  0  0  0  0  0  0  0
   44.9590   32.6600   48.0280 C   0  0  0  0  0  0  0  0  0  0  0  0
   45.9680   33.5730   40.7930 C   0  0  0  0  0  0  0  0  0  0  0  0
   46.5020   32.3390   40.6010 N   0  0  0  0  0  0  0  0  0  0  0  0
   45.8140   31.2610   40.1740 C   0  0  0  0  0  0  0  0  0  0  0  0
   44.5030   31.4060   39.9160 N   0  0  0  0  0  0  0  0  0  0  0  0
   43.9310   32.5940   40.0860 C   0  0  0  0  0  0  0  0  0  0  0  0
   42.5730   32.6770   39.8040 C   0  0  0  0  0  0  0  0  0  0  0  0
   41.9830   33.9220   39.9860 C   0  0  0  0  0  0  0  0  0  0  0  0
   42.6390   35.0700   40.4220 C   0  0  0  0  0  0  0  0  0  0  0  0
   43.9830   34.8870   40.6760 C   0  0  0  0  0  0  0  0  0  0  0  0
   44.6310   33.7120   40.5250 C   0  0  0  0  0  0  0  0  0  0  0  0
   49.0538   33.8096   43.5359 H   0  0  0  0  0  0  0  0  0  0  0  0
   48.6547   32.7659   42.2295 H   0  0  0  0  0  0  0  0  0  0  0  0
   49.1572   35.8371   42.1114 H   0  0  0  0  0  0  0  0  0  0  0  0
   50.1498   34.6568   41.3116 H   0  0  0  0  0  0  0  0  0  0  0  0
   48.2639   33.9553   39.8441 H   0  0  0  0  0  0  0  0  0  0  0  0
   48.1386   35.7003   39.8552 H   0  0  0  0  0  0  0  0  0  0  0  0
   46.2007   35.6080   41.1212 H   0  0  0  0  0  0  0  0  0  0  0  0
   43.7573   36.3202   45.0046 H   0  0  0  0  0  0  0  0  0  0  0  0
   45.1809   36.1678   42.9685 H   0  0  0  0  0  0  0  0  0  0  0  0
   47.0199   31.1121   46.4949 H   0  0  0  0  0  0  0  0  0  0  0  0
   47.9740   32.6031   46.4895 H   0  0  0  0  0  0  0  0  0  0  0  0
   48.4198   31.3041   48.5575 H   0  0  0  0  0  0  0  0  0  0  0  0
   47.5488   32.8424   48.9599 H   0  0  0  0  0  0  0  0  0  0  0  0
   45.1386   30.5283   47.7351 H   0  0  0  0  0  0  0  0  0  0  0  0
   44.4937   31.0311   49.3521 H   0  0  0  0  0  0  0  0  0  0  0  0
   45.1012   33.4093   48.8206 H   0  0  0  0  0  0  0  0  0  0  0  0
   43.9262   32.7805   47.6691 H   0  0  0  0  0  0  0  0  0  0  0  0
   46.3121   30.2894   40.0404 H   0  0  0  0  0  0  0  0  0  0  0  0
   41.9974   31.8064   39.4563 H   0  0  0  0  0  0  0  0  0  0  0  0
   40.9083   34.0076   39.7674 H   0  0  0  0  0  0  0  0  0  0  0  0
   42.1311   36.0370   40.5524 H   0  0  0  0  0  0  0  0  0  0  0  0
   44.5638   35.7540   41.0238 H   0  0  0  0  0  0  0  0  0  0  0  0
  1  8  1  0
  2  1  1  0
  3  2  1  0
  4  5  1  0
  4  3  1  0
  5  1  1  0
  6 11  2  0
  7  6  1  0
  8  7  2  0
  8  9  1  0
  9 10  2  0
 10 11  1  0
 10 12  1  0
 12 13  1  0
 12 17  1  0
 13 14  1  0
 14 15  1  0
 16 15  1  0
 17 16  1  0
 18  5  1  0
 19 18  2  0
 20 19  1  0
 21 22  1  0
 21 20  2  0
 22 27  2  0
 23 24  2  0
 23 22  1  0
 24 25  1  0
 25 26  2  0
 27 26  1  0
 27 18  1  0
  2 28  1  0
  2 29  1  0
  3 30  1  0
  3 31  1  0
  4 32  1  0
  4 33  1  0
  5 34  1  1
  6 35  1  0
  7 36  1  0
 13 37  1  0
 13 38  1  0
 14 39  1  0
 14 40  1  0
 16 41  1  0
 16 42  1  0
 17 43  1  0
 17 44  1  0
 20 45  1  0
 23 46  1  0
 24 47  1  0
 25 48  1  0
 26 49  1  0
M  ISO  8  28  13  29  13  30  13  31  13  32  13  33  13  34  13  35  14
M  ISO  8  36  14  37  13  38  13  39  13  40  13  41  13  42  13  43  13
M  ISO  6  44  13  45  14  46  14  47  14  48  14  49  14
M  END
>  <minimizedAffinity>  (1) 
-7.20229197

>  <minimizedRMSD>  (1) 
0.213921219

$$$$
