
     RDKit          3D

 42 46  0  0  1  0  0  0  0  0999 V2000
   47.1940   34.3290   42.6120 N   0  0  0  0  0  0  0  0  0  0  0  0
   48.5480   33.8010   42.5500 C   0  0  0  0  0  0  0  0  0  0  0  0
   49.1240   34.8310   41.6120 C   0  0  0  0  0  0  0  0  0  0  0  0
   48.1100   34.7820   40.4870 C   0  0  0  0  0  0  0  0  0  0  0  0
   46.7900   34.6680   41.2230 C   0  0  1  0  0  0  0  0  0  0  0  0
   45.9730   33.5580   40.7770 C   0  0  0  0  0  0  0  0  0  0  0  0
   46.4980   32.3200   40.5920 N   0  0  0  0  0  0  0  0  0  0  0  0
   45.8040   31.2420   40.1770 C   0  0  0  0  0  0  0  0  0  0  0  0
   44.4920   31.3880   39.9250 N   0  0  0  0  0  0  0  0  0  0  0  0
   43.9280   32.5700   40.0880 C   0  0  0  0  0  0  0  0  0  0  0  0
   42.5690   32.6630   39.8140 C   0  0  0  0  0  0  0  0  0  0  0  0
   41.9770   33.9200   39.9890 C   0  0  0  0  0  0  0  0  0  0  0  0
   42.6440   35.0650   40.4110 C   0  0  0  0  0  0  0  0  0  0  0  0
   43.9910   34.8780   40.6590 C   0  0  0  0  0  0  0  0  0  0  0  0
   44.6330   33.6990   40.5160 C   0  0  0  0  0  0  0  0  0  0  0  0
   44.5310   35.6100   44.8860 C   0  0  0  0  0  0  0  0  0  0  0  0
   45.3330   35.5080   43.7590 C   0  0  0  0  0  0  0  0  0  0  0  0
   46.3170   34.5350   43.7090 C   0  0  0  0  0  0  0  0  0  0  0  0
   46.4550   33.7170   44.7800 N   0  0  0  0  0  0  0  0  0  0  0  0
   45.6740   33.8130   45.8840 C   0  0  0  0  0  0  0  0  0  0  0  0
   44.7100   34.7660   45.9300 N   0  0  0  0  0  0  0  0  0  0  0  0
   45.8760   32.9030   46.9970 C   0  0  0  0  0  0  0  0  0  0  0  0
   44.9790   32.5650   47.9160 N   0  0  0  0  0  0  0  0  0  0  0  0
   45.4960   31.7070   48.7940 C   0  0  0  0  0  0  0  0  0  0  0  0
   46.7810   31.5080   48.3940 N   0  0  0  0  0  0  0  0  0  0  0  0
   47.0010   32.2440   47.2930 N   0  0  0  0  0  0  0  0  0  0  0  0
   49.0439   33.8062   43.5319 H   0  0  0  0  0  0  0  0  0  0  0  0
   48.6458   32.7509   42.2373 H   0  0  0  0  0  0  0  0  0  0  0  0
   49.1648   35.8265   42.0783 H   0  0  0  0  0  0  0  0  0  0  0  0
   50.1613   34.6373   41.3014 H   0  0  0  0  0  0  0  0  0  0  0  0
   48.2789   33.9084   39.8403 H   0  0  0  0  0  0  0  0  0  0  0  0
   48.1603   35.6549   39.8195 H   0  0  0  0  0  0  0  0  0  0  0  0
   46.2087   35.5910   41.0810 H   0  0  0  0  0  0  0  0  0  0  0  0
   46.2985   30.2679   40.0479 H   0  0  0  0  0  0  0  0  0  0  0  0
   41.9871   31.7927   39.4765 H   0  0  0  0  0  0  0  0  0  0  0  0
   40.9014   34.0085   39.7762 H   0  0  0  0  0  0  0  0  0  0  0  0
   42.1428   36.0361   40.5367 H   0  0  0  0  0  0  0  0  0  0  0  0
   44.5777   35.7459   40.9945 H   0  0  0  0  0  0  0  0  0  0  0  0
   43.7463   36.3795   44.9321 H   0  0  0  0  0  0  0  0  0  0  0  0
   45.1886   36.1945   42.9117 H   0  0  0  0  0  0  0  0  0  0  0  0
   44.9905   31.2547   49.6600 H   0  0  0  0  0  0  0  0  0  0  0  0
   47.4683   30.8965   48.8572 H   0  0  0  0  0  0  0  0  0  0  0  0
  1 18  1  0
  2  1  1  0
  3  2  1  0
  4  5  1  0
  4  3  1  0
  5  1  1  0
  6  5  1  0
  7  6  2  0
  8  7  1  0
  9 10  1  0
  9  8  2  0
 10 15  2  0
 11 12  2  0
 11 10  1  0
 12 13  1  0
 13 14  2  0
 15 14  1  0
 15  6  1  0
 16 21  2  0
 17 16  1  0
 18 17  2  0
 18 19  1  0
 19 20  2  0
 20 21  1  0
 20 22  1  0
 22 26  2  0
 22 23  1  0
 23 24  2  0
 25 24  1  0
 26 25  1  0
  2 27  1  0
  2 28  1  0
  3 29  1  0
  3 30  1  0
  4 31  1  0
  4 32  1  0
  5 33  1  1
  8 34  1  0
 11 35  1  0
 12 36  1  0
 13 37  1  0
 14 38  1  0
 16 39  1  0
 17 40  1  0
 24 41  1  0
 25 42  1  0
M  ISO  8  27  13  28  13  29  13  30  13  31  13  32  13  33  13  34  14
M  ISO  8  35  14  36  14  37  14  38  14  39  14  40  14  41  14  42   9
M  END
>  <minimizedAffinity>  (1) 
-6.58656168

>  <minimizedRMSD>  (1) 
0.162237823

$$$$
