
     RDKit          3D

 39 42  0  0  1  0  0  0  0  0999 V2000
   47.1940   34.3250   42.7060 N   0  0  0  0  0  0  0  0  0  0  0  0
   48.5370   33.7780   42.6080 C   0  0  0  0  0  0  0  0  0  0  0  0
   49.1280   34.8540   41.7240 C   0  0  0  0  0  0  0  0  0  0  0  0
   48.1120   34.8610   40.6030 C   0  0  0  0  0  0  0  0  0  0  0  0
   46.7970   34.7460   41.3340 C   0  0  1  0  0  0  0  0  0  0  0  0
   45.9440   33.6810   40.8360 C   0  0  0  0  0  0  0  0  0  0  0  0
   46.4550   32.4580   40.5370 N   0  0  0  0  0  0  0  0  0  0  0  0
   45.7350   31.4300   40.0620 C   0  0  0  0  0  0  0  0  0  0  0  0
   44.4230   31.6010   39.8640 N   0  0  0  0  0  0  0  0  0  0  0  0
   43.8750   32.7720   40.1380 C   0  0  0  0  0  0  0  0  0  0  0  0
   42.5150   32.8990   39.9240 C   0  0  0  0  0  0  0  0  0  0  0  0
   41.9310   34.1300   40.2170 C   0  0  0  0  0  0  0  0  0  0  0  0
   42.6210   35.2360   40.7090 C   0  0  0  0  0  0  0  0  0  0  0  0
   43.9740   35.0270   40.8960 C   0  0  0  0  0  0  0  0  0  0  0  0
   44.5950   33.8610   40.6320 C   0  0  0  0  0  0  0  0  0  0  0  0
   44.5770   35.5190   45.0760 C   0  0  0  0  0  0  0  0  0  0  0  0
   45.3680   35.4760   43.9360 C   0  0  0  0  0  0  0  0  0  0  0  0
   46.3290   34.4870   43.8130 C   0  0  0  0  0  0  0  0  0  0  0  0
   46.4490   33.5960   44.8330 N   0  0  0  0  0  0  0  0  0  0  0  0
   45.6720   33.6460   45.9430 C   0  0  0  0  0  0  0  0  0  0  0  0
   44.7310   34.6210   46.0530 N   0  0  0  0  0  0  0  0  0  0  0  0
   45.8110   32.6670   47.0520 C   0  0  0  0  0  0  0  0  0  0  0  0
   44.7490   32.8040   47.9500 F   0  0  0  0  0  0  0  0  0  0  0  0
   47.0400   32.7450   47.6830 F   0  0  0  0  0  0  0  0  0  0  0  0
   45.7150   31.3850   46.5680 F   0  0  0  0  0  0  0  0  0  0  0  0
   49.0369   33.7190   43.5861 H   0  0  0  0  0  0  0  0  0  0  0  0
   48.6157   32.7457   42.2364 H   0  0  0  0  0  0  0  0  0  0  0  0
   49.1746   35.8251   42.2387 H   0  0  0  0  0  0  0  0  0  0  0  0
   50.1660   34.6747   41.4072 H   0  0  0  0  0  0  0  0  0  0  0  0
   48.2641   34.0070   39.9266 H   0  0  0  0  0  0  0  0  0  0  0  0
   48.1764   35.7555   39.9660 H   0  0  0  0  0  0  0  0  0  0  0  0
   46.2428   35.6915   41.2393 H   0  0  0  0  0  0  0  0  0  0  0  0
   46.2144   30.4652   39.8397 H   0  0  0  0  0  0  0  0  0  0  0  0
   41.9169   32.0607   39.5373 H   0  0  0  0  0  0  0  0  0  0  0  0
   40.8492   34.2359   40.0480 H   0  0  0  0  0  0  0  0  0  0  0  0
   42.1298   36.1951   40.9300 H   0  0  0  0  0  0  0  0  0  0  0  0
   44.5788   35.8605   41.2826 H   0  0  0  0  0  0  0  0  0  0  0  0
   43.8126   36.3036   45.1763 H   0  0  0  0  0  0  0  0  0  0  0  0
   45.2325   36.2207   43.1379 H   0  0  0  0  0  0  0  0  0  0  0  0
  1 18  1  0
  2  1  1  0
  3  2  1  0
  4  5  1  0
  4  3  1  0
  5  1  1  0
  6  5  1  0
  7  6  2  0
  8  7  1  0
  9  8  2  0
  9 10  1  0
 10 15  2  0
 11 10  1  0
 11 12  2  0
 12 13  1  0
 13 14  2  0
 15  6  1  0
 15 14  1  0
 16 21  2  0
 17 16  1  0
 18 17  2  0
 18 19  1  0
 19 20  2  0
 20 21  1  0
 20 22  1  0
 22 24  1  0
 22 23  1  0
 25 22  1  0
  2 26  1  0
  2 27  1  0
  3 28  1  0
  3 29  1  0
  4 30  1  0
  4 31  1  0
  5 32  1  1
  8 33  1  0
 11 34  1  0
 12 35  1  0
 13 36  1  0
 14 37  1  0
 16 38  1  0
 17 39  1  0
M  ISO  8  26  13  27  13  28  13  29  13  30  13  31  13  32  13  33  14
M  ISO  6  34  14  35  14  36  14  37  14  38  14  39  14
M  END
>  <minimizedAffinity>  (1) 
-6.46092558

>  <minimizedRMSD>  (1) 
0.335808903

$$$$
