
     RDKit          3D

 43 47  0  0  1  0  0  0  0  0999 V2000
   47.4730   34.3130   43.0290 N   0  0  0  0  0  0  0  0  0  0  0  0
   48.8360   33.8110   42.8200 C   0  0  0  0  0  0  0  0  0  0  0  0
   49.4020   35.0500   42.1560 C   0  0  0  0  0  0  0  0  0  0  0  0
   48.3840   35.2730   41.0690 C   0  0  0  0  0  0  0  0  0  0  0  0
   47.0710   34.9870   41.7660 C   0  0  1  0  0  0  0  0  0  0  0  0
   46.2410   34.0230   41.0650 C   0  0  0  0  0  0  0  0  0  0  0  0
   46.7600   32.8790   40.5520 N   0  0  0  0  0  0  0  0  0  0  0  0
   46.0670   31.9440   39.8950 C   0  0  0  0  0  0  0  0  0  0  0  0
   44.7410   32.1400   39.7170 N   0  0  0  0  0  0  0  0  0  0  0  0
   44.1770   33.2400   40.1960 C   0  0  0  0  0  0  0  0  0  0  0  0
   42.8170   33.3880   39.9880 C   0  0  0  0  0  0  0  0  0  0  0  0
   42.2290   34.5510   40.4970 C   0  0  0  0  0  0  0  0  0  0  0  0
   42.9060   35.5530   41.1860 C   0  0  0  0  0  0  0  0  0  0  0  0
   44.2570   35.3170   41.3450 C   0  0  0  0  0  0  0  0  0  0  0  0
   44.8950   34.2200   40.8830 C   0  0  0  0  0  0  0  0  0  0  0  0
   44.7770   34.9350   45.5140 C   0  0  0  0  0  0  0  0  0  0  0  0
   45.5610   35.1070   44.3800 C   0  0  0  0  0  0  0  0  0  0  0  0
   46.6160   34.2380   44.1460 C   0  0  0  0  0  0  0  0  0  0  0  0
   46.8400   33.2470   45.0470 N   0  0  0  0  0  0  0  0  0  0  0  0
   46.0720   33.0830   46.1530 C   0  0  0  0  0  0  0  0  0  0  0  0
   45.0430   33.9290   46.3820 N   0  0  0  0  0  0  0  0  0  0  0  0
   46.3020   32.0070   47.1480 C   0  0  0  0  0  0  0  0  0  0  0  0
   47.4640   32.2910   48.1050 C   0  0  0  0  0  0  0  0  0  0  0  0
   46.0510   32.2380   48.5860 C   0  0  0  0  0  0  0  0  0  0  0  0
   49.3445   33.5732   43.7660 H   0  0  0  0  0  0  0  0  0  0  0  0
   48.9287   32.8703   42.2575 H   0  0  0  0  0  0  0  0  0  0  0  0
   49.4440   35.9001   42.8528 H   0  0  0  0  0  0  0  0  0  0  0  0
   50.4368   34.9443   41.7981 H   0  0  0  0  0  0  0  0  0  0  0  0
   48.5445   34.5808   40.2293 H   0  0  0  0  0  0  0  0  0  0  0  0
   48.4314   36.2813   40.6319 H   0  0  0  0  0  0  0  0  0  0  0  0
   46.5002   35.9225   41.8604 H   0  0  0  0  0  0  0  0  0  0  0  0
   46.5616   31.0401   39.5098 H   0  0  0  0  0  0  0  0  0  0  0  0
   42.2284   32.6302   39.4501 H   0  0  0  0  0  0  0  0  0  0  0  0
   41.1483   34.6837   40.3406 H   0  0  0  0  0  0  0  0  0  0  0  0
   42.4077   36.4551   41.5707 H   0  0  0  0  0  0  0  0  0  0  0  0
   44.8516   36.0705   41.8822 H   0  0  0  0  0  0  0  0  0  0  0  0
   43.9370   35.6182   45.7080 H   0  0  0  0  0  0  0  0  0  0  0  0
   45.3471   35.9240   43.6751 H   0  0  0  0  0  0  0  0  0  0  0  0
   45.9794   31.2131   46.4583 H   0  0  0  0  0  0  0  0  0  0  0  0
   48.1706   31.4912   48.3716 H   0  0  0  0  0  0  0  0  0  0  0  0
   48.2840   33.0228   48.1516 H   0  0  0  0  0  0  0  0  0  0  0  0
   45.5512   33.1630   48.9095 H   0  0  0  0  0  0  0  0  0  0  0  0
   45.5310   31.6720   49.3729 H   0  0  0  0  0  0  0  0  0  0  0  0
  1 18  1  0
  2  1  1  0
  3  2  1  0
  4  5  1  0
  4  3  1  0
  5  1  1  0
  6  5  1  0
  7  6  2  0
  8  7  1  0
  9  8  2  0
  9 10  1  0
 10 15  2  0
 11 10  1  0
 11 12  2  0
 12 13  1  0
 13 14  2  0
 15  6  1  0
 15 14  1  0
 16 21  2  0
 17 16  1  0
 18 17  2  0
 18 19  1  0
 19 20  2  0
 20 21  1  0
 20 22  1  0
 22 23  1  0
 22 24  1  0
 23 24  1  0
  2 25  1  0
  2 26  1  0
  3 27  1  0
  3 28  1  0
  4 29  1  0
  4 30  1  0
  5 31  1  1
  8 32  1  0
 11 33  1  0
 12 34  1  0
 13 35  1  0
 14 36  1  0
 16 37  1  0
 17 38  1  0
 22 39  1  0
 23 40  1  0
 23 41  1  0
 24 42  1  0
 24 43  1  0
M  ISO  8  25  13  26  13  27  13  28  13  29  13  30  13  31  13  32  14
M  ISO  8  33  14  34  14  35  14  36  14  37  14  38  14  39  13  40  13
M  ISO  3  41  13  42  13  43  13
M  END
>  <minimizedAffinity>  (1) 
-6.30399942

>  <minimizedRMSD>  (1) 
0.827731609

$$$$
