
     RDKit          3D

 42 45  0  0  1  0  0  0  0  0999 V2000
   47.7040   34.2000   43.0110 N   0  0  0  0  0  0  0  0  0  0  0  0
   49.0680   33.7850   42.7170 C   0  0  0  0  0  0  0  0  0  0  0  0
   49.5630   35.1040   42.1710 C   0  0  0  0  0  0  0  0  0  0  0  0
   48.4980   35.3750   41.1260 C   0  0  0  0  0  0  0  0  0  0  0  0
   47.2250   34.9720   41.8320 C   0  0  1  0  0  0  0  0  0  0  0  0
   46.4050   34.0450   41.0730 C   0  0  0  0  0  0  0  0  0  0  0  0
   46.9490   32.9480   40.4910 N   0  0  0  0  0  0  0  0  0  0  0  0
   46.2640   32.0480   39.7610 C   0  0  0  0  0  0  0  0  0  0  0  0
   44.9520   32.2400   39.5900 N   0  0  0  0  0  0  0  0  0  0  0  0
   44.3710   33.2990   40.1390 C   0  0  0  0  0  0  0  0  0  0  0  0
   43.0040   33.4420   39.9310 C   0  0  0  0  0  0  0  0  0  0  0  0
   42.3930   34.5460   40.5100 C   0  0  0  0  0  0  0  0  0  0  0  0
   43.0450   35.5110   41.2720 C   0  0  0  0  0  0  0  0  0  0  0  0
   44.4020   35.2880   41.4240 C   0  0  0  0  0  0  0  0  0  0  0  0
   45.0560   34.2380   40.8930 C   0  0  0  0  0  0  0  0  0  0  0  0
   45.0490   34.4410   45.6150 C   0  0  0  0  0  0  0  0  0  0  0  0
   45.7760   34.7530   44.4770 C   0  0  0  0  0  0  0  0  0  0  0  0
   46.8840   33.9890   44.1410 C   0  0  0  0  0  0  0  0  0  0  0  0
   47.2060   32.9560   44.9630 N   0  0  0  0  0  0  0  0  0  0  0  0
   46.4900   32.6540   46.0800 C   0  0  0  0  0  0  0  0  0  0  0  0
   45.4060   33.4120   46.3960 N   0  0  0  0  0  0  0  0  0  0  0  0
   46.9500   31.4960   46.8940 C   0  0  0  0  0  0  0  0  0  0  0  0
   47.6070   31.9720   48.1760 C   0  0  0  0  0  0  0  0  0  0  0  0
   49.6146   33.4739   43.6195 H   0  0  0  0  0  0  0  0  0  0  0  0
   49.1802   32.9118   42.0575 H   0  0  0  0  0  0  0  0  0  0  0  0
   49.5823   35.8847   42.9457 H   0  0  0  0  0  0  0  0  0  0  0  0
   50.5939   35.0883   41.7876 H   0  0  0  0  0  0  0  0  0  0  0  0
   48.6620   34.7645   40.2258 H   0  0  0  0  0  0  0  0  0  0  0  0
   48.4891   36.4171   40.7738 H   0  0  0  0  0  0  0  0  0  0  0  0
   46.6206   35.8691   42.0316 H   0  0  0  0  0  0  0  0  0  0  0  0
   46.7701   31.1780   39.3171 H   0  0  0  0  0  0  0  0  0  0  0  0
   42.4331   32.7144   39.3355 H   0  0  0  0  0  0  0  0  0  0  0  0
   41.3108   34.6673   40.3546 H   0  0  0  0  0  0  0  0  0  0  0  0
   42.5271   36.3748   41.7144 H   0  0  0  0  0  0  0  0  0  0  0  0
   44.9817   36.0127   42.0146 H   0  0  0  0  0  0  0  0  0  0  0  0
   44.1687   35.0450   45.8803 H   0  0  0  0  0  0  0  0  0  0  0  0
   45.4762   35.6013   43.8441 H   0  0  0  0  0  0  0  0  0  0  0  0
   46.0854   30.8636   47.1441 H   0  0  0  0  0  0  0  0  0  0  0  0
   47.6851   30.9221   46.3107 H   0  0  0  0  0  0  0  0  0  0  0  0
   47.0561   31.5729   49.0404 H   0  0  0  0  0  0  0  0  0  0  0  0
   48.6476   31.6168   48.2085 H   0  0  0  0  0  0  0  0  0  0  0  0
   47.5937   33.0714   48.2085 H   0  0  0  0  0  0  0  0  0  0  0  0
  1 18  1  0
  2  1  1  0
  3  2  1  0
  4  5  1  0
  4  3  1  0
  5  1  1  0
  6  5  1  0
  7  6  2  0
  8  7  1  0
  9  8  2  0
  9 10  1  0
 10 15  2  0
 11 10  1  0
 11 12  2  0
 12 13  1  0
 13 14  2  0
 15  6  1  0
 15 14  1  0
 16 21  2  0
 17 16  1  0
 18 17  2  0
 18 19  1  0
 19 20  2  0
 20 21  1  0
 20 22  1  0
 22 23  1  0
  2 24  1  0
  2 25  1  0
  3 26  1  0
  3 27  1  0
  4 28  1  0
  4 29  1  0
  5 30  1  1
  8 31  1  0
 11 32  1  0
 12 33  1  0
 13 34  1  0
 14 35  1  0
 16 36  1  0
 17 37  1  0
 22 38  1  0
 22 39  1  0
 23 40  1  0
 23 41  1  0
 23 42  1  0
M  ISO  8  24  13  25  13  26  13  27  13  28  13  29  13  30  13  31  14
M  ISO  8  32  14  33  14  34  14  35  14  36  14  37  14  38   8  39   8
M  ISO  3  40   8  41   8  42   8
M  END
>  <minimizedAffinity>  (1) 
-5.92869902

>  <minimizedRMSD>  (1) 
1.13915288

$$$$
