
     RDKit          3D

 36 38  0  0  0  0  0  0  0  0999 V2000
   42.7930   42.2370   45.6440 O   0  0  0  0  0  0  0  0  0  0  0  0
   44.2630   42.1510   45.9330 P   0  0  1  0  0  0  0  0  0  0  0  0
   44.5510   42.5320   47.5540 O   0  0  0  0  0  0  0  0  0  0  0  0
   44.7470   40.5580   45.6220 O   0  0  0  0  0  0  0  0  0  0  0  0
   45.2580   40.4190   44.3460 C   0  0  0  0  0  0  0  0  0  0  0  0
   44.9190   38.0000   44.6750 C   0  0  0  0  0  0  0  0  0  0  0  0
   45.2940   39.0120   43.9100 C   0  0  0  0  0  0  0  0  0  0  0  0
   45.0100   36.6610   44.1250 C   0  0  0  0  0  0  0  0  0  0  0  0
   45.1890   36.5080   42.7410 C   0  0  0  0  0  0  0  0  0  0  0  0
   45.2800   35.2170   42.1870 C   0  0  0  0  0  0  0  0  0  0  0  0
   45.1850   34.1650   43.0420 N   0  0  0  0  0  0  0  0  0  0  0  0
   45.0120   34.3290   44.3700 C   0  0  0  0  0  0  0  0  0  0  0  0
   44.9290   35.5610   44.8780 N   0  0  0  0  0  0  0  0  0  0  0  0
   45.0690   43.2780   44.9860 O   0  0  0  0  0  0  0  0  0  0  0  0
   45.4930   44.6370   46.8160 N   0  0  0  0  0  0  0  0  0  0  0  0
   45.6200   44.4680   45.4720 C   0  0  0  0  0  0  0  0  0  0  0  0
   46.2640   45.5270   44.9500 N   0  0  0  0  0  0  0  0  0  0  0  0
   46.5550   46.3860   45.9710 C   0  0  0  0  0  0  0  0  0  0  0  0
   47.2100   47.5990   45.8980 C   0  0  0  0  0  0  0  0  0  0  0  0
   47.3600   48.2400   47.0710 N   0  0  0  0  0  0  0  0  0  0  0  0
   46.9060   47.7360   48.2330 C   0  0  0  0  0  0  0  0  0  0  0  0
   46.2780   46.5470   48.2290 N   0  0  0  0  0  0  0  0  0  0  0  0
   46.0660   45.8130   47.1270 C   0  0  0  0  0  0  0  0  0  0  0  0
   47.6920   48.1370   44.6760 N   0  0  0  0  0  0  0  0  0  0  0  0
   44.0673   41.8922   48.1343 H   0  0  0  0  0  0  0  0  0  0  0  0
   44.6279   40.9899   43.6481 H   0  0  0  0  0  0  0  0  0  0  0  0
   46.2913   40.7963   44.3536 H   0  0  0  0  0  0  0  0  0  0  0  0
   44.5494   38.1689   45.6972 H   0  0  0  0  0  0  0  0  0  0  0  0
   45.6520   38.7912   42.8936 H   0  0  0  0  0  0  0  0  0  0  0  0
   45.2579   37.3934   42.0920 H   0  0  0  0  0  0  0  0  0  0  0  0
   45.4221   35.0660   41.1067 H   0  0  0  0  0  0  0  0  0  0  0  0
   44.9397   33.4524   45.0306 H   0  0  0  0  0  0  0  0  0  0  0  0
   45.0416   43.9850   47.4733 H   0  0  0  0  0  0  0  0  0  0  0  0
   47.0466   48.2891   49.1734 H   0  0  0  0  0  0  0  0  0  0  0  0
   48.1754   49.0465   44.6688 H   0  0  0  0  0  0  0  0  0  0  0  0
   47.5583   47.6179   43.7965 H   0  0  0  0  0  0  0  0  0  0  0  0
  2  1  2  0
  2  3  1  0
  4  2  1  0
  5  4  1  0
  7  5  1  0
  7  6  2  0
  8  6  1  0
  8 13  1  0
  9  8  2  0
 10  9  1  0
 10 11  2  0
 11 12  1  0
 12 13  2  0
 14 16  1  0
 14  2  1  0
 15 23  1  0
 16 15  1  0
 17 16  2  0
 17 18  1  0
 18 23  2  0
 19 18  1  0
 19 20  2  0
 20 21  1  0
 22 21  2  0
 23 22  1  0
 24 19  1  0
  3 25  1  0
  5 26  1  0
  5 27  1  0
  6 28  1  0
  7 29  1  0
  9 30  1  0
 10 31  1  0
 12 32  1  0
 15 33  1  0
 21 34  1  0
 24 35  1  0
 24 36  1  0
M  ISO  8  25   3  26   8  27   8  30  14  31  14  32  14  33   9  34  14
M  END
>  <minimizedAffinity>  (1) 
-2.83686471

>  <minimizedRMSD>  (1) 
0.857746899

$$$$
