
     RDKit          3D

 30 31  0  0  0  0  0  0  0  0999 V2000
   45.2640   40.1050   45.3590 C   0  0  0  0  0  0  0  0  0  0  0  0
   44.8020   37.6850   45.1280 C   0  0  0  0  0  0  0  0  0  0  0  0
   45.3070   38.8180   44.6330 C   0  0  0  0  0  0  0  0  0  0  0  0
   44.8940   36.4720   44.3390 C   0  0  0  0  0  0  0  0  0  0  0  0
   44.9760   36.6160   42.9450 C   0  0  0  0  0  0  0  0  0  0  0  0
   45.0670   35.4950   42.1150 C   0  0  0  0  0  0  0  0  0  0  0  0
   45.0710   34.2840   42.7340 N   0  0  0  0  0  0  0  0  0  0  0  0
   44.9900   34.1600   44.0870 C   0  0  0  0  0  0  0  0  0  0  0  0
   44.9030   35.2450   44.8740 N   0  0  0  0  0  0  0  0  0  0  0  0
   44.5460   41.0610   44.7030 O   0  0  0  0  0  0  0  0  0  0  0  0
   42.6280   42.5130   45.5990 O   0  0  0  0  0  0  0  0  0  0  0  0
   44.1400   42.3800   45.6570 P   0  0  1  0  0  0  0  0  0  0  0  0
   44.6690   42.2060   47.2300 O   0  0  0  0  0  0  0  0  0  0  0  0
   44.7800   43.8280   45.0470 O   0  0  0  0  0  0  0  0  0  0  0  0
   45.3700   44.5130   46.1010 C   0  0  0  0  0  0  0  0  0  0  0  0
   45.1180   45.9900   46.2150 C   0  0  0  0  0  0  0  0  0  0  0  0
   46.4200   45.5210   45.6660 C   0  0  0  0  0  0  0  0  0  0  0  0
   44.8058   39.9367   46.3448 H   0  0  0  0  0  0  0  0  0  0  0  0
   46.2981   40.4700   45.4450 H   0  0  0  0  0  0  0  0  0  0  0  0
   44.3239   37.6723   46.1186 H   0  0  0  0  0  0  0  0  0  0  0  0
   45.7768   38.7923   43.6387 H   0  0  0  0  0  0  0  0  0  0  0  0
   44.9686   37.6223   42.5009 H   0  0  0  0  0  0  0  0  0  0  0  0
   45.1318   35.5873   41.0208 H   0  0  0  0  0  0  0  0  0  0  0  0
   44.9959   33.1584   44.5418 H   0  0  0  0  0  0  0  0  0  0  0  0
   43.9378   42.4465   47.8526 H   0  0  0  0  0  0  0  0  0  0  0  0
   45.2982   43.6728   46.8074 H   0  0  0  0  0  0  0  0  0  0  0  0
   44.3863   46.4730   45.5507 H   0  0  0  0  0  0  0  0  0  0  0  0
   44.8232   46.6615   47.0349 H   0  0  0  0  0  0  0  0  0  0  0  0
   47.3414   45.6441   46.2540 H   0  0  0  0  0  0  0  0  0  0  0  0
   46.9861   45.7050   44.7410 H   0  0  0  0  0  0  0  0  0  0  0  0
  3  2  2  0
  3  1  1  0
  4  9  1  0
  4  2  1  0
  5  4  2  0
  6  7  2  0
  6  5  1  0
  7  8  1  0
  8  9  2  0
 10  1  1  0
 10 12  1  0
 12 11  2  0
 12 13  1  0
 14 12  1  0
 14 15  1  0
 15 16  1  0
 17 15  1  0
 17 16  1  0
  1 18  1  0
  1 19  1  0
  2 20  1  0
  3 21  1  0
  5 22  1  0
  6 23  1  0
  8 24  1  0
 13 25  1  0
 15 26  1  0
 16 27  1  0
 16 28  1  0
 17 29  1  0
 17 30  1  0
M  ISO  8  18   8  19   8  22  14  23  14  24  14  25   3  26  13  27  13
M  ISO  3  28  13  29  13  30  13
M  END
>  <minimizedAffinity>  (1) 
-2.72125125

>  <minimizedRMSD>  (1) 
1.01999998

$$$$
