
     RDKit          3D

 33 34  0  0  0  0  0  0  0  0999 V2000
   44.9320   40.6730   45.6290 O   0  0  0  0  0  0  0  0  0  0  0  0
   45.2130   40.5230   44.2860 C   0  0  0  0  0  0  0  0  0  0  0  0
   44.9340   38.0970   44.7220 C   0  0  0  0  0  0  0  0  0  0  0  0
   45.2170   39.1070   43.8820 C   0  0  0  0  0  0  0  0  0  0  0  0
   45.0100   36.7520   44.1510 C   0  0  0  0  0  0  0  0  0  0  0  0
   45.1980   36.5840   42.7720 C   0  0  0  0  0  0  0  0  0  0  0  0
   45.2760   35.2790   42.2770 C   0  0  0  0  0  0  0  0  0  0  0  0
   45.1700   34.2370   43.1330 N   0  0  0  0  0  0  0  0  0  0  0  0
   44.9870   34.4300   44.4750 C   0  0  0  0  0  0  0  0  0  0  0  0
   44.9110   35.6700   44.9600 N   0  0  0  0  0  0  0  0  0  0  0  0
   42.8840   42.2480   45.5780 O   0  0  0  0  0  0  0  0  0  0  0  0
   44.3300   42.2170   45.9850 P   0  0  1  0  0  0  0  0  0  0  0  0
   44.5090   42.5520   47.6260 O   0  0  0  0  0  0  0  0  0  0  0  0
   45.1370   43.4350   45.1250 O   0  0  0  0  0  0  0  0  0  0  0  0
   45.6210   44.5970   45.7220 C   0  0  0  0  0  0  0  0  0  0  0  0
   45.4800   44.8620   47.0580 C   0  0  0  0  0  0  0  0  0  0  0  0
   45.9570   46.0100   47.6560 C   0  0  0  0  0  0  0  0  0  0  0  0
   46.6130   46.9440   46.8630 C   0  0  0  0  0  0  0  0  0  0  0  0
   46.7740   46.7110   45.5110 C   0  0  0  0  0  0  0  0  0  0  0  0
   46.2790   45.5450   44.9530 C   0  0  0  0  0  0  0  0  0  0  0  0
   44.4503   41.0578   43.7009 H   0  0  0  0  0  0  0  0  0  0  0  0
   46.2159   40.9343   44.0989 H   0  0  0  0  0  0  0  0  0  0  0  0
   44.6621   38.2706   45.7736 H   0  0  0  0  0  0  0  0  0  0  0  0
   45.4645   38.8633   42.8383 H   0  0  0  0  0  0  0  0  0  0  0  0
   45.2815   37.4515   42.1008 H   0  0  0  0  0  0  0  0  0  0  0  0
   45.4222   35.1011   41.2014 H   0  0  0  0  0  0  0  0  0  0  0  0
   44.9029   33.5663   45.1510 H   0  0  0  0  0  0  0  0  0  0  0  0
   44.1155   41.8156   48.1580 H   0  0  0  0  0  0  0  0  0  0  0  0
   44.9606   44.1228   47.6855 H   0  0  0  0  0  0  0  0  0  0  0  0
   45.8215   46.1819   48.7340 H   0  0  0  0  0  0  0  0  0  0  0  0
   47.0041   47.8689   47.3120 H   0  0  0  0  0  0  0  0  0  0  0  0
   47.2930   47.4484   44.8810 H   0  0  0  0  0  0  0  0  0  0  0  0
   46.4105   45.3664   43.8756 H   0  0  0  0  0  0  0  0  0  0  0  0
  1 12  1  0
  2  1  1  0
  4  2  1  0
  4  3  2  0
  5  3  1  0
  5 10  1  0
  6  5  2  0
  7  6  1  0
  7  8  2  0
  8  9  1  0
  9 10  2  0
 12 11  2  0
 12 13  1  0
 14 15  1  0
 14 12  1  0
 15 16  2  0
 16 17  1  0
 18 17  2  0
 19 18  1  0
 20 19  2  0
 20 15  1  0
  2 21  1  0
  2 22  1  0
  3 23  1  0
  4 24  1  0
  6 25  1  0
  7 26  1  0
  9 27  1  0
 13 28  1  0
 16 29  1  0
 17 30  1  0
 18 31  1  0
 19 32  1  0
 20 33  1  0
M  ISO  8  21   8  22   8  25  14  26  14  27  14  28   3  29  14  30  14
M  ISO  3  31  14  32  14  33  14
M  END
>  <minimizedAffinity>  (1) 
-2.18907428

>  <minimizedRMSD>  (1) 
0.828667581

$$$$
