
     RDKit          3D

 34 36  0  0  1  0  0  0  0  0999 V2000
   48.2720   33.3410   43.3960 N   0  0  0  0  0  0  0  0  0  0  0  0
   49.4320   33.4520   42.6510 C   0  0  0  0  0  0  0  0  0  0  0  0
   50.5480   32.8790   42.7820 O   0  0  0  0  0  0  0  0  0  0  0  0
   46.2930   32.0970   44.2170 C   0  0  1  0  0  0  0  0  0  0  0  0
   46.5920   31.5490   42.9440 C   0  0  0  0  0  0  0  0  0  0  0  0
   47.7330   32.0890   43.8250 C   0  0  1  0  0  0  0  0  0  0  0  0
   45.2190   34.1720   43.0930 C   0  0  0  0  0  0  0  0  0  0  0  0
   45.6060   33.4640   44.2660 C   0  0  0  0  0  0  0  0  0  0  0  0
   45.3670   34.0540   45.4850 C   0  0  0  0  0  0  0  0  0  0  0  0
   44.7780   35.2720   45.5220 N   0  0  0  0  0  0  0  0  0  0  0  0
   44.4110   35.9420   44.4010 C   0  0  0  0  0  0  0  0  0  0  0  0
   44.6420   35.3680   43.1490 N   0  0  0  0  0  0  0  0  0  0  0  0
   49.4720   34.3850   41.4500 C   0  0  2  0  0  0  0  0  0  0  0  0
   48.9360   35.8340   41.6830 C   0  0  0  0  0  0  0  0  0  0  0  0
   48.2580   34.8210   40.7730 C   0  0  1  0  0  0  0  0  0  0  0  0
   48.3590   35.0680   39.3840 O   0  0  0  0  0  0  0  0  0  0  0  0
   49.0320   32.9210   38.1090 O   0  0  0  0  0  0  0  0  0  0  0  0
   47.8240   33.7430   38.4940 P   0  0  0  0  0  0  0  0  0  0  0  0
   46.7980   32.7600   39.4230 O   0  0  0  0  0  0  0  0  0  0  0  0
   47.0300   34.2050   37.0870 O   0  0  0  0  0  0  0  0  0  0  0  0
   47.7718   34.2035   43.6544 H   0  0  0  0  0  0  0  0  0  0  0  0
   45.7349   31.7122   45.0833 H   0  0  0  0  0  0  0  0  0  0  0  0
   46.3003   32.0897   42.0316 H   0  0  0  0  0  0  0  0  0  0  0  0
   46.3853   30.5910   42.4445 H   0  0  0  0  0  0  0  0  0  0  0  0
   48.6728   31.7137   44.2563 H   0  0  0  0  0  0  0  0  0  0  0  0
   45.4033   33.7149   42.1096 H   0  0  0  0  0  0  0  0  0  0  0  0
   45.6506   33.5431   46.4170 H   0  0  0  0  0  0  0  0  0  0  0  0
   43.9347   36.9306   44.4776 H   0  0  0  0  0  0  0  0  0  0  0  0
   50.3966   33.9134   41.0857 H   0  0  0  0  0  0  0  0  0  0  0  0
   48.4816   36.1149   42.6446 H   0  0  0  0  0  0  0  0  0  0  0  0
   49.3301   36.8564   41.5861 H   0  0  0  0  0  0  0  0  0  0  0  0
   47.2385   34.4124   40.7119 H   0  0  0  0  0  0  0  0  0  0  0  0
   46.9674   32.9223   40.3848 H   0  0  0  0  0  0  0  0  0  0  0  0
   46.1985   34.6888   37.3210 H   0  0  0  0  0  0  0  0  0  0  0  0
  1  6  1  0
  2  3  2  0
  2  1  1  0
  4  8  1  0
  5  6  1  0
  5  4  1  0
  6  4  1  0
  7 12  2  0
  7  8  1  0
  8  9  2  0
  9 10  1  0
 11 10  2  0
 12 11  1  0
 13 14  1  0
 13  2  1  0
 15 13  1  0
 15 14  1  0
 16 15  1  0
 17 18  2  0
 18 16  1  0
 18 19  1  0
 20 18  1  0
  1 21  1  0
  4 22  1  1
  5 23  1  0
  5 24  1  0
  6 25  1  1
  7 26  1  0
  9 27  1  0
 11 28  1  0
 13 29  1  6
 14 30  1  0
 14 31  1  0
 15 32  1  1
 19 33  1  0
 20 34  1  0
M  ISO  8  22  13  23  13  24  13  25  13  26  14  27  14  28  14  29  13
M  ISO  5  30  13  31  13  32  13  33   3  34   3
M  END
>  <minimizedAffinity>  (1) 
-4.92496014

>  <minimizedRMSD>  (1) 
1.77368915

$$$$
