
     RDKit          3D

 29 31  0  0  0  0  0  0  0  0999 V2000
   45.0810   33.5150   41.1270 F   0  0  0  0  0  0  0  0  0  0  0  0
   46.2910   34.1020   41.0040 C   0  0  0  0  0  0  0  0  0  0  0  0
   46.8570   34.7960   42.0560 C   0  0  0  0  0  0  0  0  0  0  0  0
   48.0890   35.3590   41.8430 C   0  0  0  0  0  0  0  0  0  0  0  0
   48.7700   35.2670   40.6600 C   0  0  0  0  0  0  0  0  0  0  0  0
   48.1660   34.5660   39.6460 C   0  0  0  0  0  0  0  0  0  0  0  0
   46.9130   33.9690   39.7980 C   0  0  0  0  0  0  0  0  0  0  0  0
   44.4700   35.9570   44.7680 C   0  0  0  0  0  0  0  0  0  0  0  0
   45.1840   35.9010   43.5610 C   0  0  0  0  0  0  0  0  0  0  0  0
   46.1090   34.8770   43.3000 C   0  0  0  0  0  0  0  0  0  0  0  0
   46.2540   33.9580   44.2920 N   0  0  0  0  0  0  0  0  0  0  0  0
   45.5670   34.0150   45.4510 C   0  0  0  0  0  0  0  0  0  0  0  0
   44.6960   34.9890   45.6860 N   0  0  0  0  0  0  0  0  0  0  0  0
   46.4440   33.2740   38.6140 C   0  0  0  0  0  0  0  0  0  0  0  0
   47.0380   33.2010   37.3790 C   0  0  0  0  0  0  0  0  0  0  0  0
   46.5750   32.5420   36.2870 C   0  0  0  0  0  0  0  0  0  0  0  0
   45.3830   31.8600   36.3820 C   0  0  0  0  0  0  0  0  0  0  0  0
   44.7700   31.9190   37.6080 C   0  0  0  0  0  0  0  0  0  0  0  0
   45.2890   32.5910   38.6420 N   0  0  0  0  0  0  0  0  0  0  0  0
   48.5557   35.9155   42.6691 H   0  0  0  0  0  0  0  0  0  0  0  0
   49.7572   35.7338   40.5273 H   0  0  0  0  0  0  0  0  0  0  0  0
   48.6865   34.4715   38.6816 H   0  0  0  0  0  0  0  0  0  0  0  0
   43.7480   36.7639   44.9620 H   0  0  0  0  0  0  0  0  0  0  0  0
   45.0150   36.6780   42.8010 H   0  0  0  0  0  0  0  0  0  0  0  0
   45.7312   33.2409   46.2151 H   0  0  0  0  0  0  0  0  0  0  0  0
   47.9928   33.7345   37.2617 H   0  0  0  0  0  0  0  0  0  0  0  0
   47.1412   32.5525   35.3440 H   0  0  0  0  0  0  0  0  0  0  0  0
   44.9523   31.3066   35.5345 H   0  0  0  0  0  0  0  0  0  0  0  0
   43.8139   31.3929   37.7463 H   0  0  0  0  0  0  0  0  0  0  0  0
  2  1  1  0
  2  3  2  0
  3 10  1  0
  4  3  1  0
  5  4  2  0
  6  7  2  0
  6  5  1  0
  7  2  1  0
  8 13  2  0
  9  8  1  0
 10  9  2  0
 10 11  1  0
 11 12  2  0
 12 13  1  0
 14 19  1  0
 14  7  1  0
 15 14  2  0
 16 17  2  0
 16 15  1  0
 17 18  1  0
 18 19  2  0
  4 20  1  0
  5 21  1  0
  6 22  1  0
  8 23  1  0
  9 24  1  0
 12 25  1  0
 15 26  1  0
 16 27  1  0
 17 28  1  0
 18 29  1  0
M  ISO  8  20  14  21  14  22  14  23  14  24  14  25  14  26  14  27  14
M  ISO  2  28  14  29  14
M  END
>  <minimizedAffinity>  (1) 
-5.73007154

>  <minimizedRMSD>  (1) 
0.17914322

$$$$
