
     RDKit          3D

 32 34  0  0  0  0  0  0  0  0999 V2000
   45.0620   33.3380   41.2480 F   0  0  0  0  0  0  0  0  0  0  0  0
   46.2560   33.9920   41.1080 C   0  0  0  0  0  0  0  0  0  0  0  0
   46.7850   34.7440   42.1120 C   0  0  0  0  0  0  0  0  0  0  0  0
   48.0020   35.3590   41.8520 C   0  0  0  0  0  0  0  0  0  0  0  0
   48.6780   35.2510   40.6660 C   0  0  0  0  0  0  0  0  0  0  0  0
   48.0930   34.4790   39.6910 C   0  0  0  0  0  0  0  0  0  0  0  0
   46.8750   33.8370   39.8940 C   0  0  0  0  0  0  0  0  0  0  0  0
   44.4620   35.9410   44.8510 C   0  0  0  0  0  0  0  0  0  0  0  0
   45.1520   35.8660   43.6380 C   0  0  0  0  0  0  0  0  0  0  0  0
   46.0560   34.8470   43.3610 C   0  0  0  0  0  0  0  0  0  0  0  0
   46.2110   33.9410   44.3590 N   0  0  0  0  0  0  0  0  0  0  0  0
   45.5510   34.0120   45.5210 C   0  0  0  0  0  0  0  0  0  0  0  0
   44.6840   34.9980   45.7740 N   0  0  0  0  0  0  0  0  0  0  0  0
   46.3710   33.0690   38.8150 N   0  0  0  0  0  0  0  0  0  0  0  0
   45.0960   32.9420   38.0940 C   0  0  0  0  0  0  0  0  0  0  0  0
   45.5740   33.1470   36.6630 C   0  0  0  0  0  0  0  0  0  0  0  0
   46.9640   32.5360   36.6180 C   0  0  0  0  0  0  0  0  0  0  0  0
   47.1490   32.0700   38.0670 C   0  0  0  0  0  0  0  0  0  0  0  0
   48.4512   35.9710   42.6480 H   0  0  0  0  0  0  0  0  0  0  0  0
   49.6409   35.7568   40.5019 H   0  0  0  0  0  0  0  0  0  0  0  0
   48.6020   34.3653   38.7225 H   0  0  0  0  0  0  0  0  0  0  0  0
   43.7512   36.7582   45.0430 H   0  0  0  0  0  0  0  0  0  0  0  0
   44.9737   36.6396   42.8766 H   0  0  0  0  0  0  0  0  0  0  0  0
   45.7258   33.2411   46.2860 H   0  0  0  0  0  0  0  0  0  0  0  0
   44.6456   31.9483   38.2347 H   0  0  0  0  0  0  0  0  0  0  0  0
   44.3093   33.6375   38.4218 H   0  0  0  0  0  0  0  0  0  0  0  0
   44.9046   32.6360   35.9554 H   0  0  0  0  0  0  0  0  0  0  0  0
   45.5819   34.2099   36.3797 H   0  0  0  0  0  0  0  0  0  0  0  0
   47.0070   31.6897   35.9166 H   0  0  0  0  0  0  0  0  0  0  0  0
   47.7441   33.2290   36.2700 H   0  0  0  0  0  0  0  0  0  0  0  0
   46.7455   31.0574   38.2151 H   0  0  0  0  0  0  0  0  0  0  0  0
   48.2017   32.0051   38.3795 H   0  0  0  0  0  0  0  0  0  0  0  0
  2  1  1  0
  2  3  2  0
  3 10  1  0
  4  3  1  0
  5  4  2  0
  6  7  2  0
  6  5  1  0
  7  2  1  0
  8 13  2  0
  9  8  1  0
 10  9  2  0
 10 11  1  0
 11 12  2  0
 12 13  1  0
 14  7  1  0
 15 14  1  0
 16 15  1  0
 17 16  1  0
 17 18  1  0
 18 14  1  0
  4 19  1  0
  5 20  1  0
  6 21  1  0
  8 22  1  0
  9 23  1  0
 12 24  1  0
 15 25  1  0
 15 26  1  0
 16 27  1  0
 16 28  1  0
 17 29  1  0
 17 30  1  0
 18 31  1  0
 18 32  1  0
M  ISO  8  19  14  20  14  21  14  22  14  23  14  24  14  25  13  26  13
M  ISO  6  27  13  28  13  29  13  30  13  31  13  32  13
M  END
>  <minimizedAffinity>  (1) 
-5.60200596

>  <minimizedRMSD>  (1) 
0.152125135

$$$$
