
     RDKit          3D

 34 37  0  0  1  0  0  0  0  0999 V2000
   47.7810   34.1010   43.4010 N   0  0  0  0  0  0  0  0  0  0  0  0
   48.8800   33.7320   42.6470 C   0  0  0  0  0  0  0  0  0  0  0  0
   49.9440   33.1430   42.9840 O   0  0  0  0  0  0  0  0  0  0  0  0
   45.6980   33.0190   44.1900 C   0  0  1  0  0  0  0  0  0  0  0  0
   46.5540   31.9650   43.7810 C   0  0  0  0  0  0  0  0  0  0  0  0
   47.1620   33.2480   44.3660 C   0  0  1  0  0  0  0  0  0  0  0  0
   44.6360   33.2950   41.8430 C   0  0  0  0  0  0  0  0  0  0  0  0
   45.0010   33.8410   43.1060 C   0  0  0  0  0  0  0  0  0  0  0  0
   44.7260   35.1680   43.3380 C   0  0  0  0  0  0  0  0  0  0  0  0
   44.1260   35.8970   42.3660 N   0  0  0  0  0  0  0  0  0  0  0  0
   43.7820   35.3690   41.1640 C   0  0  0  0  0  0  0  0  0  0  0  0
   44.0490   34.0230   40.9010 N   0  0  0  0  0  0  0  0  0  0  0  0
   48.9070   34.0330   41.1580 C   0  0  2  0  0  0  0  0  0  0  0  0
   48.8110   35.5370   40.7490 C   0  0  0  0  0  0  0  0  0  0  0  0
   47.7310   34.5140   40.4480 C   0  0  1  0  0  0  0  0  0  0  0  0
   47.5900   34.0990   38.9980 C   0  0  0  0  0  0  0  0  0  0  0  0
   46.7260   33.2250   38.5000 N   0  0  0  0  0  0  0  0  0  0  0  0
   46.9060   33.1230   37.1710 C   0  0  0  0  0  0  0  0  0  0  0  0
   47.9110   33.9620   36.8520 N   0  0  0  0  0  0  0  0  0  0  0  0
   48.3360   34.5610   37.9510 N   0  0  0  0  0  0  0  0  0  0  0  0
   47.3871   35.0421   43.2593 H   0  0  0  0  0  0  0  0  0  0  0  0
   44.8309   33.0590   44.8657 H   0  0  0  0  0  0  0  0  0  0  0  0
   46.5869   31.0295   44.3587 H   0  0  0  0  0  0  0  0  0  0  0  0
   46.6927   31.3969   42.8493 H   0  0  0  0  0  0  0  0  0  0  0  0
   47.8289   33.5250   45.1957 H   0  0  0  0  0  0  0  0  0  0  0  0
   44.8474   32.2346   41.6410 H   0  0  0  0  0  0  0  0  0  0  0  0
   44.9896   35.6318   44.3000 H   0  0  0  0  0  0  0  0  0  0  0  0
   43.2963   35.9964   40.4021 H   0  0  0  0  0  0  0  0  0  0  0  0
   49.5902   33.1894   40.9807 H   0  0  0  0  0  0  0  0  0  0  0  0
   48.6489   36.3147   41.5098 H   0  0  0  0  0  0  0  0  0  0  0  0
   49.4205   36.2479   40.1718 H   0  0  0  0  0  0  0  0  0  0  0  0
   46.6516   34.4613   40.6531 H   0  0  0  0  0  0  0  0  0  0  0  0
   46.3424   32.4798   36.4791 H   0  0  0  0  0  0  0  0  0  0  0  0
   48.2872   34.1123   35.9050 H   0  0  0  0  0  0  0  0  0  0  0  0
  1  6  1  0
  2  3  2  0
  2  1  1  0
  4  6  1  0
  5  4  1  0
  5  6  1  0
  7  8  2  0
  8  9  1  0
  8  4  1  0
 10  9  2  0
 11 10  1  0
 12 11  2  0
 12  7  1  0
 13  2  1  0
 14 13  1  0
 15 14  1  0
 15 13  1  0
 16 15  1  0
 17 16  1  0
 18 17  2  0
 19 18  1  0
 19 20  1  0
 20 16  2  0
  1 21  1  0
  4 22  1  1
  5 23  1  0
  5 24  1  0
  6 25  1  1
  7 26  1  0
  9 27  1  0
 11 28  1  0
 13 29  1  6
 14 30  1  0
 14 31  1  0
 15 32  1  1
 18 33  1  0
 19 34  1  0
M  ISO  8  22  13  23  13  24  13  25  13  26  14  27  14  28  14  29  13
M  ISO  5  30  13  31  13  32  13  33  14  34   9
M  END
>  <minimizedAffinity>  (1) 
-4.86438942

>  <minimizedRMSD>  (1) 
1.84402859

$$$$
