
     RDKit          3D

 23 24  0  0  0  0  0  0  0  0999 V2000
   45.1090   33.3490   41.2200 F   0  0  0  0  0  0  0  0  0  0  0  0
   46.3030   34.0080   41.0750 C   0  0  0  0  0  0  0  0  0  0  0  0
   46.8340   34.7660   42.0970 C   0  0  0  0  0  0  0  0  0  0  0  0
   48.0350   35.3820   41.8410 C   0  0  0  0  0  0  0  0  0  0  0  0
   48.7130   35.2870   40.6610 C   0  0  0  0  0  0  0  0  0  0  0  0
   48.1290   34.5100   39.6660 C   0  0  0  0  0  0  0  0  0  0  0  0
   46.9260   33.8660   39.8620 C   0  0  0  0  0  0  0  0  0  0  0  0
   44.4670   35.9370   44.8130 C   0  0  0  0  0  0  0  0  0  0  0  0
   45.1750   35.8640   43.6130 C   0  0  0  0  0  0  0  0  0  0  0  0
   46.0950   34.8500   43.3400 C   0  0  0  0  0  0  0  0  0  0  0  0
   46.2490   33.9410   44.3320 N   0  0  0  0  0  0  0  0  0  0  0  0
   45.5710   34.0070   45.4890 C   0  0  0  0  0  0  0  0  0  0  0  0
   44.6950   34.9840   45.7310 N   0  0  0  0  0  0  0  0  0  0  0  0
   46.3230   33.0370   38.7750 C   0  0  0  0  0  0  0  0  0  0  0  0
   46.3570   31.7240   39.2570 F   0  0  0  0  0  0  0  0  0  0  0  0
   47.0740   33.1640   37.6310 F   0  0  0  0  0  0  0  0  0  0  0  0
   45.0020   33.4420   38.5940 F   0  0  0  0  0  0  0  0  0  0  0  0
   48.4796   35.9925   42.6408 H   0  0  0  0  0  0  0  0  0  0  0  0
   49.6737   35.7994   40.5042 H   0  0  0  0  0  0  0  0  0  0  0  0
   48.6404   34.4067   38.6976 H   0  0  0  0  0  0  0  0  0  0  0  0
   43.7470   36.7472   45.0005 H   0  0  0  0  0  0  0  0  0  0  0  0
   45.0011   36.6374   42.8504 H   0  0  0  0  0  0  0  0  0  0  0  0
   45.7418   33.2371   46.2559 H   0  0  0  0  0  0  0  0  0  0  0  0
  2  1  1  0
  2  3  2  0
  3 10  1  0
  4  3  1  0
  5  4  2  0
  6  7  2  0
  6  5  1  0
  7  2  1  0
  8 13  2  0
  9  8  1  0
 10  9  2  0
 10 11  1  0
 11 12  2  0
 12 13  1  0
 14 15  1  0
 14  7  1  0
 16 14  1  0
 17 14  1  0
  4 18  1  0
  5 19  1  0
  6 20  1  0
  8 21  1  0
  9 22  1  0
 12 23  1  0
M  ISO  6  18  14  19  14  20  14  21  14  22  14  23  14
M  END
>  <minimizedAffinity>  (1) 
-5.34870052

>  <minimizedRMSD>  (1) 
0.355982423

$$$$
