
     RDKit          3D

 27 29  0  0  0  0  0  0  0  0999 V2000
   45.0740   33.4360   41.1200 F   0  0  0  0  0  0  0  0  0  0  0  0
   46.2860   34.0560   40.9930 C   0  0  0  0  0  0  0  0  0  0  0  0
   46.8490   34.7740   42.0250 C   0  0  0  0  0  0  0  0  0  0  0  0
   48.0700   35.3540   41.7860 C   0  0  0  0  0  0  0  0  0  0  0  0
   48.7450   35.2620   40.6020 C   0  0  0  0  0  0  0  0  0  0  0  0
   48.1330   34.5260   39.5930 C   0  0  0  0  0  0  0  0  0  0  0  0
   46.9120   33.9220   39.7700 C   0  0  0  0  0  0  0  0  0  0  0  0
   44.4820   35.9400   44.7450 C   0  0  0  0  0  0  0  0  0  0  0  0
   45.1900   35.8620   43.5490 C   0  0  0  0  0  0  0  0  0  0  0  0
   46.1060   34.8570   43.2780 C   0  0  0  0  0  0  0  0  0  0  0  0
   46.2730   33.9420   44.2620 N   0  0  0  0  0  0  0  0  0  0  0  0
   45.5900   34.0120   45.4230 C   0  0  0  0  0  0  0  0  0  0  0  0
   44.7050   34.9950   45.6680 N   0  0  0  0  0  0  0  0  0  0  0  0
   46.2810   33.1400   38.6700 C   0  0  0  0  0  0  0  0  0  0  0  0
   46.9010   33.1710   37.3150 C   0  0  0  0  0  0  0  0  0  0  0  0
   46.9700   31.9380   38.1220 C   0  0  0  0  0  0  0  0  0  0  0  0
   48.5346   35.9297   42.6001 H   0  0  0  0  0  0  0  0  0  0  0  0
   49.7221   35.7451   40.4542 H   0  0  0  0  0  0  0  0  0  0  0  0
   48.6424   34.4244   38.6234 H   0  0  0  0  0  0  0  0  0  0  0  0
   43.7623   36.7518   44.9265 H   0  0  0  0  0  0  0  0  0  0  0  0
   45.0148   36.6328   42.7840 H   0  0  0  0  0  0  0  0  0  0  0  0
   45.7615   33.2436   46.1912 H   0  0  0  0  0  0  0  0  0  0  0  0
   45.2816   33.3404   39.0835 H   0  0  0  0  0  0  0  0  0  0  0  0
   47.8104   33.7648   37.1407 H   0  0  0  0  0  0  0  0  0  0  0  0
   46.5446   33.4178   36.3040 H   0  0  0  0  0  0  0  0  0  0  0  0
   46.3832   31.0554   37.8274 H   0  0  0  0  0  0  0  0  0  0  0  0
   47.7824   31.2833   38.4703 H   0  0  0  0  0  0  0  0  0  0  0  0
  2  1  1  0
  2  3  2  0
  3 10  1  0
  4  3  1  0
  5  4  2  0
  6  7  2  0
  6  5  1  0
  7  2  1  0
  8 13  2  0
  9  8  1  0
 10  9  2  0
 10 11  1  0
 11 12  2  0
 12 13  1  0
 14  7  1  0
 15 16  1  0
 15 14  1  0
 16 14  1  0
  4 17  1  0
  5 18  1  0
  6 19  1  0
  8 20  1  0
  9 21  1  0
 12 22  1  0
 14 23  1  0
 15 24  1  0
 15 25  1  0
 16 26  1  0
 16 27  1  0
M  ISO  8  17  14  18  14  19  14  20  14  21  14  22  14  23  13  24  13
M  ISO  3  25  13  26  13  27  13
M  END
>  <minimizedAffinity>  (1) 
-5.30980349

>  <minimizedRMSD>  (1) 
0.070331268

$$$$
