
     RDKit          3D

 43 47  0  0  0  0  0  0  0  0999 V2000
   44.8440   32.7060   42.8900 F   0  0  0  0  0  0  0  0  0  0  0  0
   45.9820   33.4030   42.6390 C   0  0  0  0  0  0  0  0  0  0  0  0
   46.9670   33.5400   43.6000 C   0  0  0  0  0  0  0  0  0  0  0  0
   48.0790   34.2600   43.2500 C   0  0  0  0  0  0  0  0  0  0  0  0
   48.2710   34.8450   42.0270 C   0  0  0  0  0  0  0  0  0  0  0  0
   47.2610   34.6810   41.0990 C   0  0  0  0  0  0  0  0  0  0  0  0
   46.1210   33.9670   41.3910 C   0  0  0  0  0  0  0  0  0  0  0  0
   45.7740   32.8300   47.1220 C   0  0  0  0  0  0  0  0  0  0  0  0
   45.9590   33.4650   45.8910 C   0  0  0  0  0  0  0  0  0  0  0  0
   46.7480   32.9130   44.8960 C   0  0  0  0  0  0  0  0  0  0  0  0
   47.3320   31.7050   45.2090 N   0  0  0  0  0  0  0  0  0  0  0  0
   47.1440   31.1090   46.4000 C   0  0  0  0  0  0  0  0  0  0  0  0
   46.3810   31.6550   47.3460 N   0  0  0  0  0  0  0  0  0  0  0  0
   45.0590   33.8020   40.4020 C   0  0  0  0  0  0  0  0  0  0  0  0
   45.1370   33.0810   39.2240 C   0  0  0  0  0  0  0  0  0  0  0  0
   43.9020   33.1860   38.5820 C   0  0  0  0  0  0  0  0  0  0  0  0
   43.1430   33.9470   39.3740 N   0  0  0  0  0  0  0  0  0  0  0  0
   43.8150   34.3200   40.4580 N   0  0  0  0  0  0  0  0  0  0  0  0
   41.8050   34.2390   38.9830 C   0  0  0  0  0  0  0  0  0  0  0  0
   41.5190   35.1060   37.9240 C   0  0  0  0  0  0  0  0  0  0  0  0
   40.1910   35.3680   37.5700 C   0  0  0  0  0  0  0  0  0  0  0  0
   39.2000   34.7460   38.2990 C   0  0  0  0  0  0  0  0  0  0  0  0
   39.4460   33.8890   39.3460 C   0  0  0  0  0  0  0  0  0  0  0  0
   38.3900   33.2970   40.0380 C   0  0  0  0  0  0  0  0  0  0  0  0
   38.7080   32.4460   41.0800 C   0  0  0  0  0  0  0  0  0  0  0  0
   40.0200   32.1720   41.4470 C   0  0  0  0  0  0  0  0  0  0  0  0
   41.0170   32.7870   40.7280 C   0  0  0  0  0  0  0  0  0  0  0  0
   40.7620   33.6360   39.6890 C   0  0  0  0  0  0  0  0  0  0  0  0
   48.8721   34.3760   44.0034 H   0  0  0  0  0  0  0  0  0  0  0  0
   49.1823   35.4160   41.7955 H   0  0  0  0  0  0  0  0  0  0  0  0
   47.3705   35.1322   40.1018 H   0  0  0  0  0  0  0  0  0  0  0  0
   45.1399   33.2870   47.8960 H   0  0  0  0  0  0  0  0  0  0  0  0
   45.4641   34.4301   45.7074 H   0  0  0  0  0  0  0  0  0  0  0  0
   47.6337   30.1442   46.5985 H   0  0  0  0  0  0  0  0  0  0  0  0
   46.0136   32.5255   38.8592 H   0  0  0  0  0  0  0  0  0  0  0  0
   43.6135   32.7346   37.6213 H   0  0  0  0  0  0  0  0  0  0  0  0
   42.3396   35.5830   37.3681 H   0  0  0  0  0  0  0  0  0  0  0  0
   39.9463   36.0463   36.7393 H   0  0  0  0  0  0  0  0  0  0  0  0
   38.1530   34.9466   38.0278 H   0  0  0  0  0  0  0  0  0  0  0  0
   37.3438   33.4994   39.7651 H   0  0  0  0  0  0  0  0  0  0  0  0
   37.8912   31.9674   41.6401 H   0  0  0  0  0  0  0  0  0  0  0  0
   40.2512   31.4907   42.2791 H   0  0  0  0  0  0  0  0  0  0  0  0
   42.0637   32.5871   41.0007 H   0  0  0  0  0  0  0  0  0  0  0  0
  2  1  1  0
  2  3  2  0
  3 10  1  0
  4  3  1  0
  5  4  2  0
  6  7  2  0
  6  5  1  0
  7  2  1  0
  8 13  2  0
  9  8  1  0
 10 11  1  0
 10  9  2  0
 11 12  2  0
 12 13  1  0
 14 18  2  0
 14  7  1  0
 15 14  1  0
 16 15  2  0
 16 17  1  0
 17 18  1  0
 19 17  1  0
 19 28  1  0
 20 19  2  0
 21 20  1  0
 21 22  2  0
 22 23  1  0
 23 28  2  0
 23 24  1  0
 24 25  2  0
 25 26  1  0
 27 26  2  0
 28 27  1  0
  4 29  1  0
  5 30  1  0
  6 31  1  0
  8 32  1  0
  9 33  1  0
 12 34  1  0
 15 35  1  0
 16 36  1  0
 20 37  1  0
 21 38  1  0
 22 39  1  0
 24 40  1  0
 25 41  1  0
 26 42  1  0
 27 43  1  0
M  ISO  8  29  14  30  14  31  14  32  14  33  14  34  14  35  14  36  14
M  ISO  7  37  14  38  14  39  14  40  14  41  14  42  14  43  14
M  END
>  <minimizedAffinity>  (1) 
-7.19901276

>  <minimizedRMSD>  (1) 
3.71585917

$$$$
