
     RDKit          3D

 34 37  0  0  0  0  0  0  0  0999 V2000
   45.1910   33.4650   41.1790 F   0  0  0  0  0  0  0  0  0  0  0  0
   46.3900   34.1160   41.0730 C   0  0  0  0  0  0  0  0  0  0  0  0
   46.9050   34.8370   42.1260 C   0  0  0  0  0  0  0  0  0  0  0  0
   48.1140   35.4600   41.9350 C   0  0  0  0  0  0  0  0  0  0  0  0
   48.8210   35.3980   40.7670 C   0  0  0  0  0  0  0  0  0  0  0  0
   48.2700   34.6620   39.7360 C   0  0  0  0  0  0  0  0  0  0  0  0
   47.0570   34.0220   39.8840 C   0  0  0  0  0  0  0  0  0  0  0  0
   44.4730   35.8810   44.8450 C   0  0  0  0  0  0  0  0  0  0  0  0
   45.1930   35.8670   43.6460 C   0  0  0  0  0  0  0  0  0  0  0  0
   46.1320   34.8900   43.3640 C   0  0  0  0  0  0  0  0  0  0  0  0
   46.2990   33.9440   44.3500 N   0  0  0  0  0  0  0  0  0  0  0  0
   45.6030   33.9620   45.5010 C   0  0  0  0  0  0  0  0  0  0  0  0
   44.6990   34.9220   45.7470 N   0  0  0  0  0  0  0  0  0  0  0  0
   46.4820   33.2440   38.7840 C   0  0  0  0  0  0  0  0  0  0  0  0
   45.1660   32.9450   38.5680 C   0  0  0  0  0  0  0  0  0  0  0  0
   45.0540   32.1880   37.4140 C   0  0  0  0  0  0  0  0  0  0  0  0
   46.3040   32.0540   36.9660 N   0  0  0  0  0  0  0  0  0  0  0  0
   47.1790   32.6770   37.7690 N   0  0  0  0  0  0  0  0  0  0  0  0
   46.8570   31.3930   35.8330 C   0  0  0  0  0  0  0  0  0  0  0  0
   47.5480   30.2270   35.5620 C   0  0  0  0  0  0  0  0  0  0  0  0
   47.7730   30.2110   34.2350 N   0  0  0  0  0  0  0  0  0  0  0  0
   47.2530   31.3110   33.6590 C   0  0  0  0  0  0  0  0  0  0  0  0
   46.6790   32.0540   34.6500 N   0  0  0  0  0  0  0  0  0  0  0  0
   48.5366   36.0409   42.7680 H   0  0  0  0  0  0  0  0  0  0  0  0
   49.7869   35.9119   40.6529 H   0  0  0  0  0  0  0  0  0  0  0  0
   48.8082   34.5849   38.7798 H   0  0  0  0  0  0  0  0  0  0  0  0
   43.7320   36.6697   45.0422 H   0  0  0  0  0  0  0  0  0  0  0  0
   45.0072   36.6573   42.9038 H   0  0  0  0  0  0  0  0  0  0  0  0
   45.7779   33.1775   46.2520 H   0  0  0  0  0  0  0  0  0  0  0  0
   44.3284   33.2564   39.2094 H   0  0  0  0  0  0  0  0  0  0  0  0
   44.1347   31.7848   36.9643 H   0  0  0  0  0  0  0  0  0  0  0  0
   47.8545   29.4609   36.2895 H   0  0  0  0  0  0  0  0  0  0  0  0
   48.2720   29.4635   33.7319 H   0  0  0  0  0  0  0  0  0  0  0  0
   47.2847   31.5641   32.5890 H   0  0  0  0  0  0  0  0  0  0  0  0
  2  1  1  0
  2  3  2  0
  3 10  1  0
  4  3  1  0
  5  4  2  0
  6  7  2  0
  6  5  1  0
  7  2  1  0
  8 13  2  0
  9  8  1  0
 10  9  2  0
 10 11  1  0
 11 12  2  0
 12 13  1  0
 14  7  1  0
 15 14  1  0
 16 15  2  0
 17 16  1  0
 17 18  1  0
 18 14  2  0
 19 17  1  0
 20 19  2  0
 21 20  1  0
 22 21  1  0
 22 23  2  0
 23 19  1  0
  4 24  1  0
  5 25  1  0
  6 26  1  0
  8 27  1  0
  9 28  1  0
 12 29  1  0
 15 30  1  0
 16 31  1  0
 20 32  1  0
 21 33  1  0
 22 34  1  0
M  ISO  8  24  14  25  14  26  14  27  14  28  14  29  14  30  14  31  14
M  ISO  3  32  14  33   9  34  14
M  END
>  <minimizedAffinity>  (1) 
-5.9772954

>  <minimizedRMSD>  (1) 
2.4076817

$$$$
