
     RDKit          3D

 33 35  0  0  0  0  0  0  0  0999 V2000
   45.3170   33.3230   41.0720 F   0  0  0  0  0  0  0  0  0  0  0  0
   46.4850   34.0190   40.9480 C   0  0  0  0  0  0  0  0  0  0  0  0
   46.9420   34.8200   41.9700 C   0  0  0  0  0  0  0  0  0  0  0  0
   48.1300   35.4840   41.7560 C   0  0  0  0  0  0  0  0  0  0  0  0
   48.8650   35.3860   40.5890 C   0  0  0  0  0  0  0  0  0  0  0  0
   48.3580   34.5730   39.6070 C   0  0  0  0  0  0  0  0  0  0  0  0
   47.1860   33.8920   39.7670 C   0  0  0  0  0  0  0  0  0  0  0  0
   44.4820   35.9820   44.6050 C   0  0  0  0  0  0  0  0  0  0  0  0
   45.2280   35.9250   43.4170 C   0  0  0  0  0  0  0  0  0  0  0  0
   46.1540   34.9090   43.1880 C   0  0  0  0  0  0  0  0  0  0  0  0
   46.2750   33.9980   44.1900 N   0  0  0  0  0  0  0  0  0  0  0  0
   45.5620   34.0530   45.3260 C   0  0  0  0  0  0  0  0  0  0  0  0
   44.6710   35.0370   45.5340 N   0  0  0  0  0  0  0  0  0  0  0  0
   46.6530   33.0260   38.7110 C   0  0  0  0  0  0  0  0  0  0  0  0
   46.3760   31.6810   38.8150 C   0  0  0  0  0  0  0  0  0  0  0  0
   45.8900   31.2390   37.6000 C   0  0  0  0  0  0  0  0  0  0  0  0
   45.8830   32.3160   36.7920 N   0  0  0  0  0  0  0  0  0  0  0  0
   46.3370   33.3910   37.4430 N   0  0  0  0  0  0  0  0  0  0  0  0
   45.4460   32.3130   35.4070 C   0  0  0  0  0  0  0  0  0  0  0  0
   44.4940   31.1450   35.1460 C   0  0  0  0  0  0  0  0  0  0  0  0
   48.5158   36.1289   42.5593 H   0  0  0  0  0  0  0  0  0  0  0  0
   49.8098   35.9330   40.4545 H   0  0  0  0  0  0  0  0  0  0  0  0
   48.9124   34.4669   38.6629 H   0  0  0  0  0  0  0  0  0  0  0  0
   43.7541   36.7901   44.7697 H   0  0  0  0  0  0  0  0  0  0  0  0
   45.0783   36.6993   42.6501 H   0  0  0  0  0  0  0  0  0  0  0  0
   45.7091   33.2822   46.0969 H   0  0  0  0  0  0  0  0  0  0  0  0
   46.5178   31.0630   39.7139 H   0  0  0  0  0  0  0  0  0  0  0  0
   45.5736   30.2168   37.3449 H   0  0  0  0  0  0  0  0  0  0  0  0
   44.9269   33.2581   35.1896 H   0  0  0  0  0  0  0  0  0  0  0  0
   46.3269   32.2048   34.7572 H   0  0  0  0  0  0  0  0  0  0  0  0
   44.1539   30.7278   36.1053 H   0  0  0  0  0  0  0  0  0  0  0  0
   43.6255   31.5010   34.5725 H   0  0  0  0  0  0  0  0  0  0  0  0
   45.0178   30.3661   34.5725 H   0  0  0  0  0  0  0  0  0  0  0  0
  2  1  1  0
  2  3  2  0
  3 10  1  0
  4  3  1  0
  5  4  2  0
  6  7  2  0
  6  5  1  0
  7  2  1  0
  8 13  2  0
  9  8  1  0
 10  9  2  0
 10 11  1  0
 11 12  2  0
 12 13  1  0
 14 15  1  0
 14  7  1  0
 16 15  2  0
 17 18  1  0
 17 16  1  0
 18 14  2  0
 19 17  1  0
 20 19  1  0
  4 21  1  0
  5 22  1  0
  6 23  1  0
  8 24  1  0
  9 25  1  0
 12 26  1  0
 15 27  1  0
 16 28  1  0
 19 29  1  0
 19 30  1  0
 20 31  1  0
 20 32  1  0
 20 33  1  0
M  ISO  8  21  14  22  14  23  14  24  14  25  14  26  14  27  14  28  14
M  ISO  5  29   8  30   8  31   8  32   8  33   8
M  END
>  <minimizedAffinity>  (1) 
-5.49539518

>  <minimizedRMSD>  (1) 
0.642644703

$$$$
