
     RDKit          3D

 23 25  0  0  0  0  0  0  0  0999 V2000
   47.2270   31.3620   45.0860 C   0  0  0  0  0  0  0  0  0  0  0  0
   46.8820   32.6990   45.0930 C   0  0  0  0  0  0  0  0  0  0  0  0
   46.2770   33.3140   46.1830 C   0  0  0  0  0  0  0  0  0  0  0  0
   45.9940   32.5700   47.3300 C   0  0  0  0  0  0  0  0  0  0  0  0
   45.4330   32.8140   48.5420 N   0  0  0  0  0  0  0  0  0  0  0  0
   45.4330   31.6540   49.2600 C   0  0  0  0  0  0  0  0  0  0  0  0
   46.0000   30.7050   48.4740 N   0  0  0  0  0  0  0  0  0  0  0  0
   46.3520   31.2360   47.2890 C   0  0  0  0  0  0  0  0  0  0  0  0
   46.9520   30.6000   46.2230 C   0  0  0  0  0  0  0  0  0  0  0  0
   46.5200   35.2110   42.4240 C   0  0  0  0  0  0  0  0  0  0  0  0
   47.7170   35.0600   41.7070 C   0  0  0  0  0  0  0  0  0  0  0  0
   48.6450   34.0940   42.1470 C   0  0  0  0  0  0  0  0  0  0  0  0
   48.3110   33.3610   43.2550 N   0  0  0  0  0  0  0  0  0  0  0  0
   47.1540   33.5270   43.9220 C   0  0  0  0  0  0  0  0  0  0  0  0
   46.2680   34.4450   43.5080 N   0  0  0  0  0  0  0  0  0  0  0  0
   47.7067   30.9084   44.2062 H   0  0  0  0  0  0  0  0  0  0  0  0
   46.0221   34.3833   46.1420 H   0  0  0  0  0  0  0  0  0  0  0  0
   45.0688   33.7217   48.8649 H   0  0  0  0  0  0  0  0  0  0  0  0
   45.0472   31.5149   50.2807 H   0  0  0  0  0  0  0  0  0  0  0  0
   47.2050   29.5304   46.2668 H   0  0  0  0  0  0  0  0  0  0  0  0
   45.7811   35.9590   42.1008 H   0  0  0  0  0  0  0  0  0  0  0  0
   47.9261   35.6804   40.8230 H   0  0  0  0  0  0  0  0  0  0  0  0
   49.5985   33.9354   41.6219 H   0  0  0  0  0  0  0  0  0  0  0  0
  1  2  2  0
  1  9  1  0
  2  3  1  0
  3  4  2  0
  4  5  1  0
  5  6  1  0
  7  6  2  0
  8  4  1  0
  8  7  1  0
  9  8  2  0
 10 15  2  0
 11 12  2  0
 11 10  1  0
 12 13  1  0
 13 14  2  0
 14  2  1  0
 15 14  1  0
  1 16  1  0
  3 17  1  0
  5 18  1  0
  6 19  1  0
  9 20  1  0
 10 21  1  0
 11 22  1  0
 12 23  1  0
M  ISO  8  16  14  17  14  18   9  19  14  20  14  21  14  22  14  23  14
M  END
>  <minimizedAffinity>  (1) 
-4.95574141

>  <minimizedRMSD>  (1) 
2.40907836

$$$$
