
     RDKit          3D

 30 33  0  0  0  0  0  0  0  0999 V2000
   46.7090   34.9430   42.7070 C   0  0  0  0  0  0  0  0  0  0  0  0
   47.8740   34.5710   42.0380 C   0  0  0  0  0  0  0  0  0  0  0  0
   48.5540   33.4330   42.4890 C   0  0  0  0  0  0  0  0  0  0  0  0
   48.0490   32.7410   43.5600 N   0  0  0  0  0  0  0  0  0  0  0  0
   46.9140   33.1350   44.1800 C   0  0  0  0  0  0  0  0  0  0  0  0
   46.2640   34.2230   43.7500 N   0  0  0  0  0  0  0  0  0  0  0  0
   46.1030   31.0300   45.1610 C   0  0  0  0  0  0  0  0  0  0  0  0
   46.4300   32.3520   45.3140 C   0  0  0  0  0  0  0  0  0  0  0  0
   46.3220   33.0120   46.5330 C   0  0  0  0  0  0  0  0  0  0  0  0
   45.8680   32.3270   47.6570 C   0  0  0  0  0  0  0  0  0  0  0  0
   45.6420   32.6320   48.9650 N   0  0  0  0  0  0  0  0  0  0  0  0
   45.1830   31.4960   49.5840 C   0  0  0  0  0  0  0  0  0  0  0  0
   45.1360   30.5210   48.6490 N   0  0  0  0  0  0  0  0  0  0  0  0
   45.5470   30.9930   47.4630 C   0  0  0  0  0  0  0  0  0  0  0  0
   45.6480   30.3260   46.2660 C   0  0  0  0  0  0  0  0  0  0  0  0
   49.7830   32.9540   41.8640 C   0  0  0  0  0  0  0  0  0  0  0  0
   49.7810   32.0940   40.7720 C   0  0  0  0  0  0  0  0  0  0  0  0
   51.0900   31.8230   40.4090 C   0  0  0  0  0  0  0  0  0  0  0  0
   51.8530   32.5230   41.2890 N   0  0  0  0  0  0  0  0  0  0  0  0
   51.0810   33.1820   42.1340 N   0  0  0  0  0  0  0  0  0  0  0  0
   46.1505   35.8320   42.3786 H   0  0  0  0  0  0  0  0  0  0  0  0
   48.2474   35.1531   41.1826 H   0  0  0  0  0  0  0  0  0  0  0  0
   46.1994   30.5374   44.1822 H   0  0  0  0  0  0  0  0  0  0  0  0
   46.5951   34.0748   46.6094 H   0  0  0  0  0  0  0  0  0  0  0  0
   45.7890   33.5495   49.4095 H   0  0  0  0  0  0  0  0  0  0  0  0
   44.9051   31.3975   50.6438 H   0  0  0  0  0  0  0  0  0  0  0  0
   45.3756   29.2633   46.1863 H   0  0  0  0  0  0  0  0  0  0  0  0
   48.8846   31.6933   40.2761 H   0  0  0  0  0  0  0  0  0  0  0  0
   51.4368   31.1803   39.5864 H   0  0  0  0  0  0  0  0  0  0  0  0
   52.8829   32.5375   41.2960 H   0  0  0  0  0  0  0  0  0  0  0  0
  1  6  2  0
  2  3  2  0
  2  1  1  0
  3  4  1  0
  4  5  2  0
  5  8  1  0
  6  5  1  0
  7  8  2  0
  7 15  1  0
  8  9  1  0
  9 10  2  0
 10 11  1  0
 11 12  1  0
 13 12  2  0
 14 10  1  0
 14 13  1  0
 15 14  2  0
 16 20  2  0
 16  3  1  0
 17 16  1  0
 18 17  2  0
 18 19  1  0
 19 20  1  0
  1 21  1  0
  2 22  1  0
  7 23  1  0
  9 24  1  0
 11 25  1  0
 12 26  1  0
 15 27  1  0
 17 28  1  0
 18 29  1  0
 19 30  1  0
M  ISO  8  21  14  22  14  23  14  24  14  25   9  26  14  27  14  28  14
M  ISO  2  29  14  30   9
M  END
>  <minimizedAffinity>  (1) 
-5.99038696

>  <minimizedRMSD>  (1) 
0.898451924

$$$$
