
     RDKit          3D

 38 41  0  0  0  0  0  0  0  0999 V2000
   44.8810   34.5940   45.7240 C   0  0  0  0  0  0  0  0  0  0  0  0
   45.2260   34.8480   44.3910 C   0  0  0  0  0  0  0  0  0  0  0  0
   46.2620   34.0860   43.8420 C   0  0  0  0  0  0  0  0  0  0  0  0
   46.8720   33.1520   44.6200 N   0  0  0  0  0  0  0  0  0  0  0  0
   46.5100   32.9350   45.9080 C   0  0  0  0  0  0  0  0  0  0  0  0
   45.5260   33.6490   46.4490 N   0  0  0  0  0  0  0  0  0  0  0  0
   47.3840   30.6440   46.1540 C   0  0  0  0  0  0  0  0  0  0  0  0
   47.2220   31.9100   46.6710 C   0  0  0  0  0  0  0  0  0  0  0  0
   47.7110   32.2870   47.9220 C   0  0  0  0  0  0  0  0  0  0  0  0
   48.4000   31.3570   48.7030 C   0  0  0  0  0  0  0  0  0  0  0  0
   48.9950   31.3540   49.9130 N   0  0  0  0  0  0  0  0  0  0  0  0
   49.5130   30.0990   50.1280 C   0  0  0  0  0  0  0  0  0  0  0  0
   49.2250   29.3560   49.0430 N   0  0  0  0  0  0  0  0  0  0  0  0
   48.5440   30.0900   48.1480 C   0  0  0  0  0  0  0  0  0  0  0  0
   48.0680   29.6950   46.9130 C   0  0  0  0  0  0  0  0  0  0  0  0
   46.6770   34.2780   42.4960 N   0  0  0  0  0  0  0  0  0  0  0  0
   46.3160   33.3010   41.4870 C   0  0  0  0  0  0  0  0  0  0  0  0
   46.5460   33.9340   40.1080 C   0  0  0  0  0  0  0  0  0  0  0  0
   48.0130   34.2080   40.0000 C   0  0  0  0  0  0  0  0  0  0  0  0
   48.4720   35.1490   41.0630 C   0  0  0  0  0  0  0  0  0  0  0  0
   47.4510   35.4370   42.1340 C   0  0  0  0  0  0  0  0  0  0  0  0
   44.0708   35.1729   46.1913 H   0  0  0  0  0  0  0  0  0  0  0  0
   44.7038   35.6150   43.8002 H   0  0  0  0  0  0  0  0  0  0  0  0
   46.9822   30.3867   45.1629 H   0  0  0  0  0  0  0  0  0  0  0  0
   47.5546   33.3114   48.2911 H   0  0  0  0  0  0  0  0  0  0  0  0
   49.0514   32.1518   50.5620 H   0  0  0  0  0  0  0  0  0  0  0  0
   50.0611   29.7640   51.0209 H   0  0  0  0  0  0  0  0  0  0  0  0
   48.2226   28.6709   46.5423 H   0  0  0  0  0  0  0  0  0  0  0  0
   46.9434   32.4040   41.5950 H   0  0  0  0  0  0  0  0  0  0  0  0
   45.2622   33.0067   41.6007 H   0  0  0  0  0  0  0  0  0  0  0  0
   46.2306   33.2401   39.3149 H   0  0  0  0  0  0  0  0  0  0  0  0
   45.9613   34.8588   39.9947 H   0  0  0  0  0  0  0  0  0  0  0  0
   48.5622   33.2602   40.0999 H   0  0  0  0  0  0  0  0  0  0  0  0
   48.2070   34.6710   39.0212 H   0  0  0  0  0  0  0  0  0  0  0  0
   49.3604   34.7146   41.5447 H   0  0  0  0  0  0  0  0  0  0  0  0
   48.6755   36.1072   40.5625 H   0  0  0  0  0  0  0  0  0  0  0  0
   47.9750   35.8028   43.0293 H   0  0  0  0  0  0  0  0  0  0  0  0
   46.7540   36.1874   41.7326 H   0  0  0  0  0  0  0  0  0  0  0  0
  1  6  2  0
  2  1  1  0
  3  2  2  0
  3  4  1  0
  4  5  2  0
  5  6  1  0
  5  8  1  0
  7  8  2  0
  7 15  1  0
  8  9  1  0
  9 10  2  0
 10 11  1  0
 11 12  1  0
 13 12  2  0
 14 10  1  0
 14 13  1  0
 15 14  2  0
 16  3  1  0
 17 16  1  0
 18 17  1  0
 19 18  1  0
 19 20  1  0
 20 21  1  0
 21 16  1  0
  1 22  1  0
  2 23  1  0
  7 24  1  0
  9 25  1  0
 11 26  1  0
 12 27  1  0
 15 28  1  0
 17 29  1  0
 17 30  1  0
 18 31  1  0
 18 32  1  0
 19 33  1  0
 19 34  1  0
 20 35  1  0
 20 36  1  0
 21 37  1  0
 21 38  1  0
M  ISO  8  22  14  23  14  24  14  25  14  26   9  27  14  28  14  29  13
M  ISO  8  30  13  31  13  32  13  33  13  34  13  35  13  36  13  37  13
M  ISO  1  38  13
M  END
>  <minimizedAffinity>  (1) 
-5.98922443

>  <minimizedRMSD>  (1) 
3.33722186

$$$$
