
     RDKit          3D

 37 40  0  0  1  0  0  0  0  0999 V2000
   46.0230   31.2210   45.0950 C   0  0  0  0  0  0  0  0  0  0  0  0
   46.1660   32.5730   45.2800 C   0  0  0  0  0  0  0  0  0  0  0  0
   46.0370   33.1820   46.5310 C   0  0  0  0  0  0  0  0  0  0  0  0
   45.7490   32.4070   47.6560 C   0  0  0  0  0  0  0  0  0  0  0  0
   45.5590   32.6360   48.9790 N   0  0  0  0  0  0  0  0  0  0  0  0
   45.3020   31.4390   49.5910 C   0  0  0  0  0  0  0  0  0  0  0  0
   45.3410   30.4830   48.6160 N   0  0  0  0  0  0  0  0  0  0  0  0
   45.6110   31.0420   47.4270 C   0  0  0  0  0  0  0  0  0  0  0  0
   45.7350   30.4260   46.2050 C   0  0  0  0  0  0  0  0  0  0  0  0
   46.0330   35.3590   42.8720 C   0  0  0  0  0  0  0  0  0  0  0  0
   47.0850   35.0540   42.0100 C   0  0  0  0  0  0  0  0  0  0  0  0
   47.8470   33.8810   42.2570 C   0  0  0  0  0  0  0  0  0  0  0  0
   47.4980   33.1130   43.3380 N   0  0  0  0  0  0  0  0  0  0  0  0
   46.4680   33.4500   44.1490 C   0  0  0  0  0  0  0  0  0  0  0  0
   45.7480   34.5560   43.9170 N   0  0  0  0  0  0  0  0  0  0  0  0
   48.9790   33.5130   41.3640 C   0  0  2  0  0  0  0  0  0  0  0  0
   48.6250   32.2610   40.5940 C   0  0  0  0  0  0  0  0  0  0  0  0
   49.8180   32.0550   39.6550 C   0  0  0  0  0  0  0  0  0  0  0  0
   50.8860   31.5020   40.5700 C   0  0  0  0  0  0  0  0  0  0  0  0
   51.2170   32.3740   41.7170 C   0  0  0  0  0  0  0  0  0  0  0  0
   50.2640   33.4530   42.0800 C   0  0  0  0  0  0  0  0  0  0  0  0
   46.1328   30.7745   44.0957 H   0  0  0  0  0  0  0  0  0  0  0  0
   46.1622   34.2704   46.6293 H   0  0  0  0  0  0  0  0  0  0  0  0
   45.6009   33.5541   49.4440 H   0  0  0  0  0  0  0  0  0  0  0  0
   45.1027   31.2780   50.6607 H   0  0  0  0  0  0  0  0  0  0  0  0
   45.6108   29.3376   46.1047 H   0  0  0  0  0  0  0  0  0  0  0  0
   45.4301   36.2625   42.6983 H   0  0  0  0  0  0  0  0  0  0  0  0
   47.3200   35.7075   41.1570 H   0  0  0  0  0  0  0  0  0  0  0  0
   49.1357   34.3109   40.6232 H   0  0  0  0  0  0  0  0  0  0  0  0
   48.5092   31.4036   41.2733 H   0  0  0  0  0  0  0  0  0  0  0  0
   47.6711   32.3512   40.0538 H   0  0  0  0  0  0  0  0  0  0  0  0
   50.1368   33.0079   39.2073 H   0  0  0  0  0  0  0  0  0  0  0  0
   49.5904   31.3919   38.8074 H   0  0  0  0  0  0  0  0  0  0  0  0
   50.5369   30.5353   40.9619 H   0  0  0  0  0  0  0  0  0  0  0  0
   51.8019   31.4139   39.9672 H   0  0  0  0  0  0  0  0  0  0  0  0
   52.1461   32.2271   42.2872 H   0  0  0  0  0  0  0  0  0  0  0  0
   50.5109   34.1866   42.8616 H   0  0  0  0  0  0  0  0  0  0  0  0
  1  2  2  0
  1  9  1  0
  2  3  1  0
  3  4  2  0
  4  5  1  0
  5  6  1  0
  7  6  2  0
  8  4  1  0
  8  7  1  0
  9  8  2  0
 10 15  2  0
 11 12  2  0
 11 10  1  0
 12 13  1  0
 13 14  2  0
 14  2  1  0
 15 14  1  0
 16 21  1  0
 16 12  1  0
 17 16  1  0
 18 19  1  0
 18 17  1  0
 19 20  1  0
 20 21  2  0
  1 22  1  0
  3 23  1  0
  5 24  1  0
  6 25  1  0
  9 26  1  0
 10 27  1  0
 11 28  1  0
 16 29  1  6
 17 30  1  0
 17 31  1  0
 18 32  1  0
 18 33  1  0
 19 34  1  0
 19 35  1  0
 20 36  1  0
 21 37  1  0
M  ISO  8  22  14  23  14  24   9  25  14  26  14  27  14  28  14  29  13
M  ISO  8  30  13  31  13  32  13  33  13  34  13  35  13  36  13  37  13
M  END
>  <minimizedAffinity>  (1) 
-5.95913744

>  <minimizedRMSD>  (1) 
1.3065505

$$$$
