
     RDKit          3D

 29 31  0  0  0  0  0  0  0  0999 V2000
   46.3940   35.3210   42.5870 C   0  0  0  0  0  0  0  0  0  0  0  0
   47.3660   34.9050   41.6790 C   0  0  0  0  0  0  0  0  0  0  0  0
   48.0280   33.6860   41.9110 C   0  0  0  0  0  0  0  0  0  0  0  0
   47.6770   32.9650   43.0320 N   0  0  0  0  0  0  0  0  0  0  0  0
   46.7280   33.4070   43.8870 C   0  0  0  0  0  0  0  0  0  0  0  0
   46.1060   34.5610   43.6600 N   0  0  0  0  0  0  0  0  0  0  0  0
   46.3300   31.2070   44.9340 C   0  0  0  0  0  0  0  0  0  0  0  0
   46.4020   32.5890   45.0620 C   0  0  0  0  0  0  0  0  0  0  0  0
   46.1810   33.2540   46.2540 C   0  0  0  0  0  0  0  0  0  0  0  0
   45.8690   32.5220   47.3960 C   0  0  0  0  0  0  0  0  0  0  0  0
   45.5960   32.8170   48.7000 N   0  0  0  0  0  0  0  0  0  0  0  0
   45.3600   31.6380   49.3600 C   0  0  0  0  0  0  0  0  0  0  0  0
   45.4940   30.6340   48.4440 N   0  0  0  0  0  0  0  0  0  0  0  0
   45.8020   31.1540   47.2500 C   0  0  0  0  0  0  0  0  0  0  0  0
   46.0180   30.4650   46.0680 C   0  0  0  0  0  0  0  0  0  0  0  0
   49.0030   33.0900   41.1620 O   0  0  0  0  0  0  0  0  0  0  0  0
   51.3730   31.9480   40.7360 O   0  0  0  0  0  0  0  0  0  0  0  0
   50.4380   32.4220   41.8090 P   0  0  0  0  0  0  0  0  0  0  0  0
   51.2880   33.6150   42.6930 O   0  0  0  0  0  0  0  0  0  0  0  0
   50.0840   31.1710   42.8660 O   0  0  0  0  0  0  0  0  0  0  0  0
   45.8621   36.2705   42.4268 H   0  0  0  0  0  0  0  0  0  0  0  0
   47.6105   35.5177   40.7987 H   0  0  0  0  0  0  0  0  0  0  0  0
   46.5139   30.7160   43.9670 H   0  0  0  0  0  0  0  0  0  0  0  0
   46.2511   34.3508   46.2993 H   0  0  0  0  0  0  0  0  0  0  0  0
   45.5715   33.7591   49.1155 H   0  0  0  0  0  0  0  0  0  0  0  0
   45.1102   31.5230   50.4251 H   0  0  0  0  0  0  0  0  0  0  0  0
   45.9452   29.3682   46.0277 H   0  0  0  0  0  0  0  0  0  0  0  0
   51.1721   33.4523   43.6626 H   0  0  0  0  0  0  0  0  0  0  0  0
   50.1746   31.4912   43.7984 H   0  0  0  0  0  0  0  0  0  0  0  0
  1  6  2  0
  2  3  2  0
  2  1  1  0
  3  4  1  0
  4  5  2  0
  5  8  1  0
  6  5  1  0
  7  8  2  0
  7 15  1  0
  8  9  1  0
  9 10  2  0
 10 11  1  0
 11 12  1  0
 13 12  2  0
 14 10  1  0
 14 13  1  0
 15 14  2  0
 16 18  1  0
 16  3  1  0
 17 18  2  0
 18 19  1  0
 18 20  1  0
  1 21  1  0
  2 22  1  0
  7 23  1  0
  9 24  1  0
 11 25  1  0
 12 26  1  0
 15 27  1  0
 19 28  1  0
 20 29  1  0
M  ISO  8  21  14  22  14  23  14  24  14  25   9  26  14  27  14  28   3
M  ISO  1  29   3
M  END
>  <minimizedAffinity>  (1) 
-5.7907896

>  <minimizedRMSD>  (1) 
1.212363

$$$$
