
     RDKit          3D

 35 38  0  0  1  0  0  0  0  0999 V2000
   46.3200   32.1540   44.5020 C   0  0  1  0  0  0  0  0  0  0  0  0
   46.5890   31.4520   43.3020 C   0  0  0  0  0  0  0  0  0  0  0  0
   47.7400   32.1540   44.0470 C   0  0  1  0  0  0  0  0  0  0  0  0
   45.1110   34.0180   43.1780 C   0  0  0  0  0  0  0  0  0  0  0  0
   45.5690   33.4810   44.4120 C   0  0  0  0  0  0  0  0  0  0  0  0
   45.3340   34.2070   45.5520 C   0  0  0  0  0  0  0  0  0  0  0  0
   44.6840   35.3900   45.4590 N   0  0  0  0  0  0  0  0  0  0  0  0
   44.2510   35.8970   44.2800 C   0  0  0  0  0  0  0  0  0  0  0  0
   44.4760   35.1800   43.1000 N   0  0  0  0  0  0  0  0  0  0  0  0
   48.1940   33.3560   43.4220 N   0  0  0  0  0  0  0  0  0  0  0  0
   49.3420   33.4330   42.6540 C   0  0  0  0  0  0  0  0  0  0  0  0
   50.4930   32.9570   42.8460 O   0  0  0  0  0  0  0  0  0  0  0  0
   49.3110   34.1900   41.3350 C   0  0  2  0  0  0  0  0  0  0  0  0
   48.5910   35.5780   41.3440 C   0  0  0  0  0  0  0  0  0  0  0  0
   48.0810   34.3690   40.5790 C   0  0  1  0  0  0  0  0  0  0  0  0
   48.1990   34.4100   39.0540 C   0  0  0  0  0  0  0  0  0  0  0  0
   48.5290   33.0150   38.4810 C   0  0  0  0  0  0  0  0  0  0  0  0
   47.2450   33.6910   38.2100 C   0  0  0  0  0  0  0  0  0  0  0  0
   45.8177   31.8660   45.4373 H   0  0  0  0  0  0  0  0  0  0  0  0
   46.2330   31.8514   42.3409 H   0  0  0  0  0  0  0  0  0  0  0  0
   46.4069   30.4274   42.9455 H   0  0  0  0  0  0  0  0  0  0  0  0
   48.7136   31.8824   44.4810 H   0  0  0  0  0  0  0  0  0  0  0  0
   45.2898   33.4489   42.2538 H   0  0  0  0  0  0  0  0  0  0  0  0
   45.6700   33.8319   46.5300 H   0  0  0  0  0  0  0  0  0  0  0  0
   43.7272   36.8638   44.2506 H   0  0  0  0  0  0  0  0  0  0  0  0
   47.6359   34.2121   43.5503 H   0  0  0  0  0  0  0  0  0  0  0  0
   50.3009   33.7949   41.0630 H   0  0  0  0  0  0  0  0  0  0  0  0
   48.0684   35.9319   42.2449 H   0  0  0  0  0  0  0  0  0  0  0  0
   48.8587   36.6184   41.1075 H   0  0  0  0  0  0  0  0  0  0  0  0
   47.1198   33.8345   40.5586 H   0  0  0  0  0  0  0  0  0  0  0  0
   48.5738   35.4436   39.0188 H   0  0  0  0  0  0  0  0  0  0  0  0
   49.2783   32.9049   37.6833 H   0  0  0  0  0  0  0  0  0  0  0  0
   48.8387   32.0440   38.8948 H   0  0  0  0  0  0  0  0  0  0  0  0
   47.0332   34.0624   37.1965 H   0  0  0  0  0  0  0  0  0  0  0  0
   46.1926   33.3971   38.3372 H   0  0  0  0  0  0  0  0  0  0  0  0
  2  3  1  0
  2  1  1  0
  3  1  1  0
  4  5  2  0
  5  1  1  0
  5  6  1  0
  7  6  2  0
  8  7  1  0
  9  4  1  0
  9  8  2  0
 10  3  1  0
 11 12  2  0
 11 10  1  0
 13 14  1  0
 13 11  1  0
 15 13  1  0
 15 14  1  0
 16 15  1  0
 17 16  1  0
 18 17  1  0
 18 16  1  0
  1 19  1  1
  2 20  1  0
  2 21  1  0
  3 22  1  1
  4 23  1  0
  6 24  1  0
  8 25  1  0
 10 26  1  0
 13 27  1  6
 14 28  1  0
 14 29  1  0
 15 30  1  6
 16 31  1  0
 17 32  1  0
 17 33  1  0
 18 34  1  0
 18 35  1  0
M  ISO  8  19  13  20  13  21  13  22  13  23  14  24  14  25  14  27  13
M  ISO  8  28  13  29  13  30  13  31  13  32  13  33  13  34  13  35  13
M  END
>  <minimizedAffinity>  (1) 
-4.52278948

>  <minimizedRMSD>  (1) 
0.641987383

$$$$
