
     RDKit          3D

 24 26  0  0  0  0  0  0  0  0999 V2000
   47.2230   31.3710   45.0730 C   0  0  0  0  0  0  0  0  0  0  0  0
   46.8800   32.7160   45.0890 C   0  0  0  0  0  0  0  0  0  0  0  0
   46.2790   33.3190   46.1800 C   0  0  0  0  0  0  0  0  0  0  0  0
   45.9980   32.5680   47.3190 C   0  0  0  0  0  0  0  0  0  0  0  0
   45.4360   32.8170   48.5330 N   0  0  0  0  0  0  0  0  0  0  0  0
   45.4320   31.6550   49.2460 C   0  0  0  0  0  0  0  0  0  0  0  0
   45.9920   30.7150   48.4610 N   0  0  0  0  0  0  0  0  0  0  0  0
   46.3470   31.2420   47.2770 C   0  0  0  0  0  0  0  0  0  0  0  0
   46.9450   30.6090   46.2130 C   0  0  0  0  0  0  0  0  0  0  0  0
   46.5100   35.2160   42.4110 C   0  0  0  0  0  0  0  0  0  0  0  0
   47.7150   35.0840   41.7070 C   0  0  0  0  0  0  0  0  0  0  0  0
   48.6400   34.1370   42.1620 C   0  0  0  0  0  0  0  0  0  0  0  0
   48.3120   33.3940   43.2700 N   0  0  0  0  0  0  0  0  0  0  0  0
   47.1540   33.5420   43.9220 C   0  0  0  0  0  0  0  0  0  0  0  0
   46.2650   34.4460   43.4910 N   0  0  0  0  0  0  0  0  0  0  0  0
   49.8750   33.9300   41.5270 O   0  0  0  0  0  0  0  0  0  0  0  0
   47.6989   30.9180   44.1908 H   0  0  0  0  0  0  0  0  0  0  0  0
   46.0239   34.3885   46.1478 H   0  0  0  0  0  0  0  0  0  0  0  0
   45.0760   33.7260   48.8571 H   0  0  0  0  0  0  0  0  0  0  0  0
   45.0457   31.5127   50.2661 H   0  0  0  0  0  0  0  0  0  0  0  0
   47.1965   29.5390   46.2566 H   0  0  0  0  0  0  0  0  0  0  0  0
   45.7609   35.9508   42.0812 H   0  0  0  0  0  0  0  0  0  0  0  0
   47.9271   35.7053   40.8244 H   0  0  0  0  0  0  0  0  0  0  0  0
   50.5042   33.2508   41.8776 H   0  0  0  0  0  0  0  0  0  0  0  0
  1  2  2  0
  1  9  1  0
  2  3  1  0
  3  4  2  0
  4  5  1  0
  5  6  1  0
  7  6  2  0
  8  4  1  0
  8  7  1  0
  9  8  2  0
 10 15  2  0
 11 12  2  0
 11 10  1  0
 12 13  1  0
 13 14  2  0
 14  2  1  0
 15 14  1  0
 16 12  1  0
  1 17  1  0
  3 18  1  0
  5 19  1  0
  6 20  1  0
  9 21  1  0
 10 22  1  0
 11 23  1  0
 16 24  1  0
M  ISO  8  17  14  18  14  19   9  20  14  21  14  22  14  23  14  24   3
M  END
>  <minimizedAffinity>  (1) 
-5.41210651

>  <minimizedRMSD>  (1) 
0.0310456548

$$$$
