
     RDKit          3D

 26 28  0  0  0  0  0  0  0  0999 V2000
   47.1530   31.4120   45.2520 C   0  0  0  0  0  0  0  0  0  0  0  0
   46.6120   32.6690   45.3020 C   0  0  0  0  0  0  0  0  0  0  0  0
   45.8950   33.1400   46.4070 C   0  0  0  0  0  0  0  0  0  0  0  0
   45.7030   32.3220   47.5220 C   0  0  0  0  0  0  0  0  0  0  0  0
   45.0950   32.4220   48.7210 N   0  0  0  0  0  0  0  0  0  0  0  0
   45.2550   31.2540   49.3930 C   0  0  0  0  0  0  0  0  0  0  0  0
   45.9760   30.4270   48.5870 N   0  0  0  0  0  0  0  0  0  0  0  0
   46.2580   31.0650   47.4380 C   0  0  0  0  0  0  0  0  0  0  0  0
   46.9710   30.5710   46.3640 C   0  0  0  0  0  0  0  0  0  0  0  0
   45.8880   35.1000   42.6410 C   0  0  0  0  0  0  0  0  0  0  0  0
   47.1390   35.2950   42.0570 C   0  0  0  0  0  0  0  0  0  0  0  0
   48.2230   34.5850   42.5880 C   0  0  0  0  0  0  0  0  0  0  0  0
   48.0080   33.7380   43.6470 N   0  0  0  0  0  0  0  0  0  0  0  0
   46.7690   33.5870   44.1760 C   0  0  0  0  0  0  0  0  0  0  0  0
   45.7000   34.2570   43.6890 N   0  0  0  0  0  0  0  0  0  0  0  0
   49.5540   34.7790   41.9810 C   0  0  0  0  0  0  0  0  0  0  0  0
   47.7129   31.0706   44.3688 H   0  0  0  0  0  0  0  0  0  0  0  0
   45.4808   34.1590   46.3974 H   0  0  0  0  0  0  0  0  0  0  0  0
   44.5912   33.2498   49.0701 H   0  0  0  0  0  0  0  0  0  0  0  0
   44.8744   31.0199   50.3981 H   0  0  0  0  0  0  0  0  0  0  0  0
   47.3838   29.5515   46.3778 H   0  0  0  0  0  0  0  0  0  0  0  0
   45.0232   35.6481   42.2389 H   0  0  0  0  0  0  0  0  0  0  0  0
   47.2699   35.9827   41.2085 H   0  0  0  0  0  0  0  0  0  0  0  0
   50.3068   34.8887   42.7755 H   0  0  0  0  0  0  0  0  0  0  0  0
   49.8032   33.9077   41.3575 H   0  0  0  0  0  0  0  0  0  0  0  0
   49.5441   35.6852   41.3575 H   0  0  0  0  0  0  0  0  0  0  0  0
  1  2  2  0
  1  9  1  0
  2  3  1  0
  3  4  2  0
  4  5  1  0
  5  6  1  0
  7  6  2  0
  8  4  1  0
  8  7  1  0
  9  8  2  0
 10 15  2  0
 11 12  2  0
 11 10  1  0
 12 13  1  0
 13 14  2  0
 14  2  1  0
 15 14  1  0
 16 12  1  0
  1 17  1  0
  3 18  1  0
  5 19  1  0
  6 20  1  0
  9 21  1  0
 10 22  1  0
 11 23  1  0
 16 24  1  0
 16 25  1  0
 16 26  1  0
M  ISO  8  17  14  18  14  19   9  20  14  21  14  22  14  23  14  24   8
M  ISO  2  25   8  26   8
M  END
>  <minimizedAffinity>  (1) 
-5.18095207

>  <minimizedRMSD>  (1) 
0.55171448

$$$$
