
     RDKit          3D

 30 32  0  0  1  0  0  0  0  0999 V2000
   46.3000   32.1560   44.3780 C   0  0  1  0  0  0  0  0  0  0  0  0
   46.5830   31.5340   43.1370 C   0  0  0  0  0  0  0  0  0  0  0  0
   47.7270   32.1750   43.9390 C   0  0  1  0  0  0  0  0  0  0  0  0
   45.1210   34.1130   43.1530 C   0  0  0  0  0  0  0  0  0  0  0  0
   45.5670   33.4990   44.3570 C   0  0  0  0  0  0  0  0  0  0  0  0
   45.3390   34.1610   45.5400 C   0  0  0  0  0  0  0  0  0  0  0  0
   44.7050   35.3580   45.5120 N   0  0  0  0  0  0  0  0  0  0  0  0
   44.2830   35.9370   44.3640 C   0  0  0  0  0  0  0  0  0  0  0  0
   44.5020   35.2880   43.1460 N   0  0  0  0  0  0  0  0  0  0  0  0
   48.2050   33.4110   43.4030 N   0  0  0  0  0  0  0  0  0  0  0  0
   49.3840   33.5250   42.6900 C   0  0  0  0  0  0  0  0  0  0  0  0
   50.5280   33.0450   42.9130 O   0  0  0  0  0  0  0  0  0  0  0  0
   49.4130   34.3390   41.4050 C   0  0  2  0  0  0  0  0  0  0  0  0
   48.9130   35.8160   41.5120 C   0  0  0  0  0  0  0  0  0  0  0  0
   48.1930   34.7370   40.7200 C   0  0  1  0  0  0  0  0  0  0  0  0
   48.2620   34.8640   39.2490 N   0  0  0  0  0  0  0  0  0  0  0  0
   45.7819   31.8103   45.2847 H   0  0  0  0  0  0  0  0  0  0  0  0
   46.2423   31.9990   42.2002 H   0  0  0  0  0  0  0  0  0  0  0  0
   46.3999   30.5365   42.7111 H   0  0  0  0  0  0  0  0  0  0  0  0
   48.6932   31.8673   44.3654 H   0  0  0  0  0  0  0  0  0  0  0  0
   45.2947   33.5975   42.1969 H   0  0  0  0  0  0  0  0  0  0  0  0
   45.6665   33.7252   46.4954 H   0  0  0  0  0  0  0  0  0  0  0  0
   43.7717   36.9106   44.3894 H   0  0  0  0  0  0  0  0  0  0  0  0
   47.6423   34.2601   43.5558 H   0  0  0  0  0  0  0  0  0  0  0  0
   50.3178   33.8138   41.0653 H   0  0  0  0  0  0  0  0  0  0  0  0
   48.4892   36.1970   42.4529 H   0  0  0  0  0  0  0  0  0  0  0  0
   49.3248   36.8156   41.3090 H   0  0  0  0  0  0  0  0  0  0  0  0
   47.1662   34.3424   40.7224 H   0  0  0  0  0  0  0  0  0  0  0  0
   48.7394   35.7427   39.0023 H   0  0  0  0  0  0  0  0  0  0  0  0
   48.7863   34.0674   38.8598 H   0  0  0  0  0  0  0  0  0  0  0  0
  2  3  1  0
  2  1  1  0
  3  1  1  0
  4  5  2  0
  5  1  1  0
  5  6  1  0
  7  6  2  0
  8  7  1  0
  9  4  1  0
  9  8  2  0
 10  3  1  0
 11 12  2  0
 11 10  1  0
 13 14  1  0
 13 11  1  0
 15 13  1  0
 15 14  1  0
 16 15  1  0
  1 17  1  1
  2 18  1  0
  2 19  1  0
  3 20  1  1
  4 21  1  0
  6 22  1  0
  8 23  1  0
 10 24  1  0
 13 25  1  6
 14 26  1  0
 14 27  1  0
 15 28  1  1
 16 29  1  0
 16 30  1  0
M  ISO  8  17  13  18  13  19  13  20  13  21  14  22  14  23  14  25  13
M  ISO  5  26  13  27  13  28  13  29   5  30   5
M  END
>  <minimizedAffinity>  (1) 
-4.51044941

>  <minimizedRMSD>  (1) 
0.34072575

$$$$
