
     RDKit          3D

 30 32  0  0  0  0  0  0  0  0999 V2000
   47.1260   34.7760   42.5720 C   0  0  0  0  0  0  0  0  0  0  0  0
   48.3670   34.4130   42.0390 C   0  0  0  0  0  0  0  0  0  0  0  0
   49.0280   33.3300   42.6100 C   0  0  0  0  0  0  0  0  0  0  0  0
   48.4030   32.7130   43.6490 N   0  0  0  0  0  0  0  0  0  0  0  0
   47.2210   33.0630   44.1530 C   0  0  0  0  0  0  0  0  0  0  0  0
   46.5670   34.1070   43.6160 N   0  0  0  0  0  0  0  0  0  0  0  0
   46.2680   31.0110   45.0880 C   0  0  0  0  0  0  0  0  0  0  0  0
   46.6490   32.3330   45.2620 C   0  0  0  0  0  0  0  0  0  0  0  0
   46.5030   33.0000   46.4760 C   0  0  0  0  0  0  0  0  0  0  0  0
   45.9530   32.3250   47.5690 C   0  0  0  0  0  0  0  0  0  0  0  0
   45.6720   32.6440   48.8520 N   0  0  0  0  0  0  0  0  0  0  0  0
   45.1260   31.5300   49.4520 C   0  0  0  0  0  0  0  0  0  0  0  0
   45.0850   30.5530   48.5230 N   0  0  0  0  0  0  0  0  0  0  0  0
   45.5870   31.0110   47.3510 C   0  0  0  0  0  0  0  0  0  0  0  0
   45.7170   30.3230   46.1690 C   0  0  0  0  0  0  0  0  0  0  0  0
   48.2560   34.7970   39.7130 C   0  0  0  0  0  0  0  0  0  0  0  0
   47.3720   33.9120   39.9540 O   0  0  0  0  0  0  0  0  0  0  0  0
   48.9060   35.1530   40.9440 N   0  0  0  0  0  0  0  0  0  0  0  0
   50.3420   32.9110   42.0780 C   0  0  0  0  0  0  0  0  0  0  0  0
   51.2840   33.9430   42.2080 F   0  0  0  0  0  0  0  0  0  0  0  0
   50.8330   31.8660   42.8210 F   0  0  0  0  0  0  0  0  0  0  0  0
   50.1930   32.5740   40.7570 F   0  0  0  0  0  0  0  0  0  0  0  0
   46.5858   35.6281   42.1337 H   0  0  0  0  0  0  0  0  0  0  0  0
   46.3979   30.5141   44.1153 H   0  0  0  0  0  0  0  0  0  0  0  0
   46.8180   34.0494   46.5736 H   0  0  0  0  0  0  0  0  0  0  0  0
   45.8365   33.5563   49.3009 H   0  0  0  0  0  0  0  0  0  0  0  0
   44.7865   31.4520   50.4954 H   0  0  0  0  0  0  0  0  0  0  0  0
   45.3999   29.2736   46.0789 H   0  0  0  0  0  0  0  0  0  0  0  0
   48.4845   35.2198   38.7236 H   0  0  0  0  0  0  0  0  0  0  0  0
   49.6605   35.8495   41.0254 H   0  0  0  0  0  0  0  0  0  0  0  0
  1  6  2  0
  2  1  1  0
  2  3  2  0
  3  4  1  0
  4  5  2  0
  5  8  1  0
  6  5  1  0
  7  8  2  0
  7 15  1  0
  8  9  1  0
  9 10  2  0
 10 11  1  0
 11 12  1  0
 13 12  2  0
 14 10  1  0
 14 13  1  0
 15 14  2  0
 16 17  2  0
 16 18  1  0
 18  2  1  0
 19 20  1  0
 19  3  1  0
 19 21  1  0
 22 19  1  0
  1 23  1  0
  7 24  1  0
  9 25  1  0
 11 26  1  0
 12 27  1  0
 15 28  1  0
 16 29  1  0
 18 30  1  0
M  ISO  7  23  14  24  14  25  14  26   9  27  14  28  14  29   6
M  END
>  <minimizedAffinity>  (1) 
-5.92713737

>  <minimizedRMSD>  (1) 
1.73905659

$$$$
