
     RDKit          3D

 40 44  0  0  0  0  0  0  0  0999 V2000
   46.2160   33.3470   41.3530 C   0  0  0  0  0  0  0  0  0  0  0  0
   47.3920   34.0710   41.2020 C   0  0  0  0  0  0  0  0  0  0  0  0
   48.2330   34.1550   42.3050 C   0  0  0  0  0  0  0  0  0  0  0  0
   47.8450   33.5240   43.4530 N   0  0  0  0  0  0  0  0  0  0  0  0
   46.7060   32.8370   43.5640 C   0  0  0  0  0  0  0  0  0  0  0  0
   45.8750   32.7380   42.5150 N   0  0  0  0  0  0  0  0  0  0  0  0
   46.2880   30.8250   44.9190 C   0  0  0  0  0  0  0  0  0  0  0  0
   46.3870   32.2030   44.8280 C   0  0  0  0  0  0  0  0  0  0  0  0
   46.1890   33.0370   45.9270 C   0  0  0  0  0  0  0  0  0  0  0  0
   45.8800   32.4770   47.1630 C   0  0  0  0  0  0  0  0  0  0  0  0
   45.6300   32.9720   48.4110 N   0  0  0  0  0  0  0  0  0  0  0  0
   45.3830   31.8810   49.2350 C   0  0  0  0  0  0  0  0  0  0  0  0
   45.4900   30.7650   48.4700 N   0  0  0  0  0  0  0  0  0  0  0  0
   45.7900   31.1070   47.2140 C   0  0  0  0  0  0  0  0  0  0  0  0
   45.9800   30.2540   46.1480 C   0  0  0  0  0  0  0  0  0  0  0  0
   49.5020   34.9160   42.2000 C   0  0  0  0  0  0  0  0  0  0  0  0
   49.3630   35.9770   41.3060 F   0  0  0  0  0  0  0  0  0  0  0  0
   49.8250   35.4750   43.4070 F   0  0  0  0  0  0  0  0  0  0  0  0
   50.4840   34.0620   41.7590 F   0  0  0  0  0  0  0  0  0  0  0  0
   47.6770   34.6610   40.0020 O   0  0  0  0  0  0  0  0  0  0  0  0
   48.7240   32.6530   39.3410 C   0  0  0  0  0  0  0  0  0  0  0  0
   48.1350   33.8470   38.9720 C   0  0  0  0  0  0  0  0  0  0  0  0
   48.0440   34.1460   37.6270 C   0  0  0  0  0  0  0  0  0  0  0  0
   48.5410   33.2430   36.7390 C   0  0  0  0  0  0  0  0  0  0  0  0
   48.5690   33.3060   35.3930 N   0  0  0  0  0  0  0  0  0  0  0  0
   49.1410   32.2180   34.8960 N   0  0  0  0  0  0  0  0  0  0  0  0
   49.5060   31.4100   35.9050 C   0  0  0  0  0  0  0  0  0  0  0  0
   49.1350   32.0410   37.0770 C   0  0  0  0  0  0  0  0  0  0  0  0
   49.2250   31.7460   38.4240 C   0  0  0  0  0  0  0  0  0  0  0  0
   45.5335   33.2645   40.4943 H   0  0  0  0  0  0  0  0  0  0  0  0
   46.4504   30.1929   44.0335 H   0  0  0  0  0  0  0  0  0  0  0  0
   46.2762   34.1281   45.8184 H   0  0  0  0  0  0  0  0  0  0  0  0
   45.6254   33.9640   48.6882 H   0  0  0  0  0  0  0  0  0  0  0  0
   45.1449   31.9153   50.3084 H   0  0  0  0  0  0  0  0  0  0  0  0
   45.8913   29.1639   46.2655 H   0  0  0  0  0  0  0  0  0  0  0  0
   48.7980   32.4126   40.4119 H   0  0  0  0  0  0  0  0  0  0  0  0
   47.5842   35.0847   37.2843 H   0  0  0  0  0  0  0  0  0  0  0  0
   48.1995   34.0865   34.8316 H   0  0  0  0  0  0  0  0  0  0  0  0
   50.0045   30.4335   35.8155 H   0  0  0  0  0  0  0  0  0  0  0  0
   49.6869   30.8064   38.7614 H   0  0  0  0  0  0  0  0  0  0  0  0
  1  6  2  0
  2  1  1  0
  2  3  2  0
  3  4  1  0
  4  5  2  0
  5  8  1  0
  6  5  1  0
  7 15  2  0
  8  7  1  0
  8  9  2  0
  9 10  1  0
 10 14  2  0
 10 11  1  0
 11 12  1  0
 13 12  2  0
 14 13  1  0
 15 14  1  0
 16  3  1  0
 16 18  1  0
 17 16  1  0
 19 16  1  0
 20  2  1  0
 22 21  2  0
 22 20  1  0
 23 22  1  0
 24 28  1  0
 24 23  2  0
 25 24  1  0
 26 25  1  0
 26 27  2  0
 27 28  1  0
 28 29  2  0
 29 21  1  0
  1 30  1  0
  7 31  1  0
  9 32  1  0
 11 33  1  0
 12 34  1  0
 15 35  1  0
 21 36  1  0
 23 37  1  0
 25 38  1  0
 27 39  1  0
 29 40  1  0
M  ISO  8  30  14  31  14  32  14  33   9  34  14  35  14  36  14  37  14
M  ISO  3  38   9  39  14  40  14
M  END
>  <minimizedAffinity>  (1) 
-7.02210045

>  <minimizedRMSD>  (1) 
2.67750454

$$$$
