
     RDKit          3D

 42 46  0  0  0  0  0  0  0  0999 V2000
   45.0460   33.9570   44.0260 C   0  0  0  0  0  0  0  0  0  0  0  0
   45.8200   34.4820   42.9970 C   0  0  0  0  0  0  0  0  0  0  0  0
   47.1410   34.0720   42.9250 C   0  0  0  0  0  0  0  0  0  0  0  0
   47.5950   33.1870   43.8600 N   0  0  0  0  0  0  0  0  0  0  0  0
   46.8150   32.6950   44.8500 C   0  0  0  0  0  0  0  0  0  0  0  0
   45.5350   33.0800   44.9350 N   0  0  0  0  0  0  0  0  0  0  0  0
   47.8070   30.5120   45.4090 C   0  0  0  0  0  0  0  0  0  0  0  0
   47.3900   31.7590   45.7960 C   0  0  0  0  0  0  0  0  0  0  0  0
   47.4920   32.2060   47.1240 C   0  0  0  0  0  0  0  0  0  0  0  0
   48.0330   31.3770   48.1080 C   0  0  0  0  0  0  0  0  0  0  0  0
   48.2860   31.4440   49.4330 N   0  0  0  0  0  0  0  0  0  0  0  0
   48.8440   30.2590   49.8290 C   0  0  0  0  0  0  0  0  0  0  0  0
   48.9240   29.4710   48.7180 N   0  0  0  0  0  0  0  0  0  0  0  0
   48.4380   30.1290   47.6650 C   0  0  0  0  0  0  0  0  0  0  0  0
   48.3480   29.6710   46.3750 C   0  0  0  0  0  0  0  0  0  0  0  0
   48.0230   34.5980   41.8460 C   0  0  0  0  0  0  0  0  0  0  0  0
   48.0890   35.9840   41.8950 F   0  0  0  0  0  0  0  0  0  0  0  0
   49.2960   34.1350   41.9990 F   0  0  0  0  0  0  0  0  0  0  0  0
   47.4990   34.2070   40.6360 F   0  0  0  0  0  0  0  0  0  0  0  0
   45.2700   35.3620   42.1120 O   0  0  0  0  0  0  0  0  0  0  0  0
   44.2480   34.9710   41.2800 C   0  0  0  0  0  0  0  0  0  0  0  0
   44.3400   34.0250   40.2540 C   0  0  0  0  0  0  0  0  0  0  0  0
   43.2210   33.7210   39.4830 C   0  0  0  0  0  0  0  0  0  0  0  0
   42.0140   34.3380   39.7090 C   0  0  0  0  0  0  0  0  0  0  0  0
   40.9350   34.0240   38.9400 N   0  0  0  0  0  0  0  0  0  0  0  0
   39.7590   34.6310   39.1680 C   0  0  0  0  0  0  0  0  0  0  0  0
   39.5860   35.5620   40.1460 C   0  0  0  0  0  0  0  0  0  0  0  0
   40.6760   35.8850   40.9280 C   0  0  0  0  0  0  0  0  0  0  0  0
   41.9040   35.2870   40.7300 C   0  0  0  0  0  0  0  0  0  0  0  0
   43.0210   35.5600   41.4690 C   0  0  0  0  0  0  0  0  0  0  0  0
   43.9934   34.2666   44.1050 H   0  0  0  0  0  0  0  0  0  0  0  0
   47.7161   30.1854   44.3625 H   0  0  0  0  0  0  0  0  0  0  0  0
   47.1436   33.2149   47.3898 H   0  0  0  0  0  0  0  0  0  0  0  0
   48.0917   32.2511   50.0427 H   0  0  0  0  0  0  0  0  0  0  0  0
   49.1659   29.9930   50.8466 H   0  0  0  0  0  0  0  0  0  0  0  0
   48.6959   28.6614   46.1109 H   0  0  0  0  0  0  0  0  0  0  0  0
   45.2973   33.5206   40.0559 H   0  0  0  0  0  0  0  0  0  0  0  0
   43.3046   32.9744   38.6795 H   0  0  0  0  0  0  0  0  0  0  0  0
   38.8982   34.3644   38.5372 H   0  0  0  0  0  0  0  0  0  0  0  0
   38.6091   36.0412   40.3076 H   0  0  0  0  0  0  0  0  0  0  0  0
   40.5639   36.6344   41.7254 H   0  0  0  0  0  0  0  0  0  0  0  0
   42.9312   36.3051   42.2732 H   0  0  0  0  0  0  0  0  0  0  0  0
  1  6  2  0
  2  1  1  0
  3  2  2  0
  3  4  1  0
  4  5  2  0
  5  6  1  0
  5  8  1  0
  7  8  2  0
  7 15  1  0
  8  9  1  0
  9 10  2  0
 10 11  1  0
 11 12  1  0
 13 12  2  0
 14 10  1  0
 14 13  1  0
 15 14  2  0
 16 17  1  0
 16 18  1  0
 16  3  1  0
 19 16  1  0
 20  2  1  0
 21 30  1  0
 21 20  1  0
 22 21  2  0
 23 24  2  0
 23 22  1  0
 24 29  1  0
 25 26  2  0
 25 24  1  0
 26 27  1  0
 27 28  2  0
 29 28  1  0
 29 30  2  0
  1 31  1  0
  7 32  1  0
  9 33  1  0
 11 34  1  0
 12 35  1  0
 15 36  1  0
 22 37  1  0
 23 38  1  0
 26 39  1  0
 27 40  1  0
 28 41  1  0
 30 42  1  0
M  ISO  8  31  14  32  14  33  14  34   9  35  14  36  14  37  14  38  14
M  ISO  4  39  14  40  14  41  14  42  14
M  END
>  <minimizedAffinity>  (1) 
-6.97782707

>  <minimizedRMSD>  (1) 
2.43279672

$$$$
