
     RDKit          3D

 37 40  0  0  0  0  0  0  0  0999 V2000
   45.4860   33.5030   40.7780 C   0  0  0  0  0  0  0  0  0  0  0  0
   46.4530   34.2860   41.3970 C   0  0  0  0  0  0  0  0  0  0  0  0
   47.5700   34.6120   40.6400 C   0  0  0  0  0  0  0  0  0  0  0  0
   47.6390   34.1470   39.3560 N   0  0  0  0  0  0  0  0  0  0  0  0
   46.6810   33.3900   38.7900 C   0  0  0  0  0  0  0  0  0  0  0  0
   45.5930   33.0640   39.5030 N   0  0  0  0  0  0  0  0  0  0  0  0
   45.7840   32.3730   36.7300 C   0  0  0  0  0  0  0  0  0  0  0  0
   46.8470   32.9470   37.4220 C   0  0  0  0  0  0  0  0  0  0  0  0
   48.1030   33.1250   36.8510 C   0  0  0  0  0  0  0  0  0  0  0  0
   48.3200   32.7150   35.5320 C   0  0  0  0  0  0  0  0  0  0  0  0
   49.3730   32.7250   34.6710 N   0  0  0  0  0  0  0  0  0  0  0  0
   48.9460   32.1690   33.4890 C   0  0  0  0  0  0  0  0  0  0  0  0
   47.6520   31.8320   33.6490 N   0  0  0  0  0  0  0  0  0  0  0  0
   47.2410   32.1510   34.8820 C   0  0  0  0  0  0  0  0  0  0  0  0
   45.9820   31.9610   35.4180 C   0  0  0  0  0  0  0  0  0  0  0  0
   48.6490   35.4440   41.2270 C   0  0  0  0  0  0  0  0  0  0  0  0
   49.6410   34.6290   41.7780 F   0  0  0  0  0  0  0  0  0  0  0  0
   49.2490   36.2100   40.2760 F   0  0  0  0  0  0  0  0  0  0  0  0
   48.0900   36.2350   42.2130 F   0  0  0  0  0  0  0  0  0  0  0  0
   46.2930   34.7020   42.6800 O   0  0  0  0  0  0  0  0  0  0  0  0
   44.5270   35.6100   44.9850 Cl  0  0  0  0  0  0  0  0  0  0  0  0
   45.6470   34.2470   44.8330 C   0  0  0  0  0  0  0  0  0  0  0  0
   46.4480   33.8630   43.7660 C   0  0  0  0  0  0  0  0  0  0  0  0
   47.2490   32.7570   43.9260 C   0  0  0  0  0  0  0  0  0  0  0  0
   47.2910   32.0270   45.0770 C   0  0  0  0  0  0  0  0  0  0  0  0
   46.4960   32.3990   46.1490 C   0  0  0  0  0  0  0  0  0  0  0  0
   45.6750   33.5110   46.0200 C   0  0  0  0  0  0  0  0  0  0  0  0
   44.5898   33.2267   41.3529 H   0  0  0  0  0  0  0  0  0  0  0  0
   44.8041   32.2478   37.2138 H   0  0  0  0  0  0  0  0  0  0  0  0
   48.9172   33.5837   37.4313 H   0  0  0  0  0  0  0  0  0  0  0  0
   50.3180   33.0838   34.8688 H   0  0  0  0  0  0  0  0  0  0  0  0
   49.5494   32.0258   32.5805 H   0  0  0  0  0  0  0  0  0  0  0  0
   45.1716   31.5035   34.8316 H   0  0  0  0  0  0  0  0  0  0  0  0
   47.8865   32.4461   43.0852 H   0  0  0  0  0  0  0  0  0  0  0  0
   47.9506   31.1500   45.1537 H   0  0  0  0  0  0  0  0  0  0  0  0
   46.5150   31.8232   47.0861 H   0  0  0  0  0  0  0  0  0  0  0  0
   45.0383   33.8165   46.8634 H   0  0  0  0  0  0  0  0  0  0  0  0
  1  2  2  0
  2 20  1  0
  3 16  1  0
  3  2  1  0
  4  3  2  0
  5  4  1  0
  5  6  2  0
  6  1  1  0
  7  8  2  0
  8  5  1  0
  9  8  1  0
 10  9  2  0
 11 10  1  0
 12 13  2  0
 12 11  1  0
 13 14  1  0
 14 15  2  0
 14 10  1  0
 15  7  1  0
 16 17  1  0
 16 19  1  0
 18 16  1  0
 20 23  1  0
 22 21  1  0
 22 27  2  0
 23 24  2  0
 23 22  1  0
 24 25  1  0
 25 26  2  0
 27 26  1  0
  1 28  1  0
  7 29  1  0
  9 30  1  0
 11 31  1  0
 12 32  1  0
 15 33  1  0
 24 34  1  0
 25 35  1  0
 26 36  1  0
 27 37  1  0
M  ISO  8  28  14  29  14  30  14  31   9  32  14  33  14  34  14  35  14
M  ISO  2  36  14  37  14
M  END
>  <minimizedAffinity>  (1) 
-6.77688837

>  <minimizedRMSD>  (1) 
8.34206295

$$$$
