
     RDKit          3D

 41 45  0  0  1  0  0  0  0  0999 V2000
   49.7310   31.1510   41.9940 C   0  0  2  0  0  0  0  0  0  0  0  0
   50.5480   32.4850   41.9830 C   0  0  0  0  0  0  0  0  0  0  0  0
   49.3120   32.2430   41.1310 C   0  0  1  0  0  0  0  0  0  0  0  0
   49.6350   32.1200   39.6950 N   0  0  0  0  0  0  0  0  0  0  0  0
   50.7470   31.5390   39.1870 C   0  0  0  0  0  0  0  0  0  0  0  0
   50.7120   31.6070   37.8340 N   0  0  0  0  0  0  0  0  0  0  0  0
   49.5900   32.2250   37.4950 C   0  0  0  0  0  0  0  0  0  0  0  0
   48.9560   32.6100   36.3350 C   0  0  0  0  0  0  0  0  0  0  0  0
   47.7570   33.2560   36.3450 N   0  0  0  0  0  0  0  0  0  0  0  0
   47.1470   33.5420   37.5140 C   0  0  0  0  0  0  0  0  0  0  0  0
   47.7270   33.1870   38.6780 N   0  0  0  0  0  0  0  0  0  0  0  0
   48.8930   32.5590   38.6600 C   0  0  0  0  0  0  0  0  0  0  0  0
   49.5520   32.3340   35.0980 N   0  0  0  0  0  0  0  0  0  0  0  0
   47.7930   31.4230   43.5660 N   0  0  0  0  0  0  0  0  0  0  0  0
   49.0060   30.8170   43.2880 C   0  0  0  0  0  0  0  0  0  0  0  0
   49.6720   29.9750   43.9470 O   0  0  0  0  0  0  0  0  0  0  0  0
   45.3580   31.4410   44.0120 C   0  0  1  0  0  0  0  0  0  0  0  0
   45.5650   30.4430   43.0260 C   0  0  0  0  0  0  0  0  0  0  0  0
   46.6600   30.7170   44.0730 C   0  0  1  0  0  0  0  0  0  0  0  0
   45.5210   33.2900   42.1970 C   0  0  0  0  0  0  0  0  0  0  0  0
   45.4110   32.9040   43.5610 C   0  0  0  0  0  0  0  0  0  0  0  0
   45.3690   33.9010   44.5080 C   0  0  0  0  0  0  0  0  0  0  0  0
   45.4370   35.1920   44.1080 N   0  0  0  0  0  0  0  0  0  0  0  0
   45.5420   35.5520   42.8090 C   0  0  0  0  0  0  0  0  0  0  0  0
   45.5850   34.5620   41.8230 N   0  0  0  0  0  0  0  0  0  0  0  0
   49.9181   30.0843   41.8011 H   0  0  0  0  0  0  0  0  0  0  0  0
   50.5110   33.1717   42.8415 H   0  0  0  0  0  0  0  0  0  0  0  0
   51.5931   32.7810   41.8095 H   0  0  0  0  0  0  0  0  0  0  0  0
   48.3401   32.7404   40.9971 H   0  0  0  0  0  0  0  0  0  0  0  0
   51.5534   31.0828   39.7800 H   0  0  0  0  0  0  0  0  0  0  0  0
   46.1786   34.0637   37.5173 H   0  0  0  0  0  0  0  0  0  0  0  0
   50.4586   31.8466   35.0605 H   0  0  0  0  0  0  0  0  0  0  0  0
   49.0837   32.6184   34.2258 H   0  0  0  0  0  0  0  0  0  0  0  0
   47.7029   32.4353   43.3986 H   0  0  0  0  0  0  0  0  0  0  0  0
   44.5515   31.6203   44.7382 H   0  0  0  0  0  0  0  0  0  0  0  0
   44.9907   29.5056   43.0647 H   0  0  0  0  0  0  0  0  0  0  0  0
   45.5313   30.4200   41.9268 H   0  0  0  0  0  0  0  0  0  0  0  0
   47.2186   30.1507   44.8328 H   0  0  0  0  0  0  0  0  0  0  0  0
   45.5542   32.5073   41.4248 H   0  0  0  0  0  0  0  0  0  0  0  0
   45.2813   33.6522   45.5759 H   0  0  0  0  0  0  0  0  0  0  0  0
   45.5932   36.6149   42.5304 H   0  0  0  0  0  0  0  0  0  0  0  0
  1 15  1  0
  2  1  1  0
  3  2  1  0
  3  1  1  0
  4  3  1  0
  5  4  1  0
  6  5  2  0
  7  6  1  0
  7 12  2  0
  8  9  2  0
  8  7  1  0
  9 10  1  0
 10 11  2  0
 12 11  1  0
 12  4  1  0
 13  8  1  0
 14 19  1  0
 15 14  1  0
 15 16  2  0
 17 19  1  0
 18 17  1  0
 18 19  1  0
 20 21  2  0
 21 17  1  0
 21 22  1  0
 23 22  2  0
 24 23  1  0
 25 20  1  0
 25 24  2  0
  1 26  1  6
  2 27  1  0
  2 28  1  0
  3 29  1  6
  5 30  1  0
 10 31  1  0
 13 32  1  0
 13 33  1  0
 14 34  1  0
 17 35  1  1
 18 36  1  0
 18 37  1  0
 19 38  1  1
 20 39  1  0
 22 40  1  0
 24 41  1  0
M  ISO  8  26  13  27  13  28  13  29  13  30  14  31  14  35  13  36  13
M  ISO  5  37  13  38  13  39  14  40  14  41  14
M  END
>  <minimizedAffinity>  (1) 
-4.41030312

>  <minimizedRMSD>  (1) 
3.56890488

$$$$
