
     RDKit          3D

 34 37  0  0  0  0  0  0  0  0999 V2000
   45.9850   33.0760   41.6890 C   0  0  0  0  0  0  0  0  0  0  0  0
   47.1180   33.8030   41.3250 C   0  0  0  0  0  0  0  0  0  0  0  0
   48.1060   33.9350   42.2850 C   0  0  0  0  0  0  0  0  0  0  0  0
   47.8950   33.3470   43.5010 N   0  0  0  0  0  0  0  0  0  0  0  0
   46.7980   32.6550   43.8210 C   0  0  0  0  0  0  0  0  0  0  0  0
   45.8320   32.5150   42.9130 N   0  0  0  0  0  0  0  0  0  0  0  0
   47.1530   30.8160   45.4120 C   0  0  0  0  0  0  0  0  0  0  0  0
   46.6830   32.0760   45.1470 C   0  0  0  0  0  0  0  0  0  0  0  0
   46.0710   32.8770   46.1290 C   0  0  0  0  0  0  0  0  0  0  0  0
   45.9260   32.3870   47.4270 C   0  0  0  0  0  0  0  0  0  0  0  0
   45.4060   32.8530   48.5970 N   0  0  0  0  0  0  0  0  0  0  0  0
   45.5720   31.8700   49.5360 C   0  0  0  0  0  0  0  0  0  0  0  0
   46.1920   30.8160   48.9280 N   0  0  0  0  0  0  0  0  0  0  0  0
   46.4130   31.1190   47.6440 C   0  0  0  0  0  0  0  0  0  0  0  0
   47.0120   30.3220   46.7070 C   0  0  0  0  0  0  0  0  0  0  0  0
   49.3410   34.6960   41.9680 C   0  0  0  0  0  0  0  0  0  0  0  0
   49.0590   35.7710   41.1270 F   0  0  0  0  0  0  0  0  0  0  0  0
   49.8950   35.2140   43.1030 F   0  0  0  0  0  0  0  0  0  0  0  0
   50.2260   33.8340   41.3520 F   0  0  0  0  0  0  0  0  0  0  0  0
   47.2160   34.3410   40.0870 O   0  0  0  0  0  0  0  0  0  0  0  0
   47.3600   33.7300   38.8620 C   0  0  0  0  0  0  0  0  0  0  0  0
   48.6050   33.0610   38.4210 C   0  0  0  0  0  0  0  0  0  0  0  0
   48.3610   34.4460   37.9000 C   0  0  0  0  0  0  0  0  0  0  0  0
   45.1798   32.9525   40.9498 H   0  0  0  0  0  0  0  0  0  0  0  0
   47.6279   30.2121   44.6247 H   0  0  0  0  0  0  0  0  0  0  0  0
   45.7089   33.8840   45.8744 H   0  0  0  0  0  0  0  0  0  0  0  0
   44.9692   33.7736   48.7473 H   0  0  0  0  0  0  0  0  0  0  0  0
   45.2618   31.9204   50.5901 H   0  0  0  0  0  0  0  0  0  0  0  0
   47.3731   29.3167   46.9695 H   0  0  0  0  0  0  0  0  0  0  0  0
   46.3146   33.3881   38.8800 H   0  0  0  0  0  0  0  0  0  0  0  0
   49.4139   32.8908   39.1468 H   0  0  0  0  0  0  0  0  0  0  0  0
   48.8172   32.0956   37.9383 H   0  0  0  0  0  0  0  0  0  0  0  0
   48.9691   35.2899   38.2580 H   0  0  0  0  0  0  0  0  0  0  0  0
   48.3035   34.9190   36.9085 H   0  0  0  0  0  0  0  0  0  0  0  0
  1  6  2  0
  2  1  1  0
  2  3  2  0
  3  4  1  0
  4  5  2  0
  5  8  1  0
  6  5  1  0
  7 15  2  0
  8  7  1  0
  8  9  2  0
  9 10  1  0
 10 14  2  0
 10 11  1  0
 11 12  1  0
 13 12  2  0
 14 13  1  0
 15 14  1  0
 16  3  1  0
 16 18  1  0
 17 16  1  0
 19 16  1  0
 20  2  1  0
 21 20  1  0
 22 21  1  0
 23 22  1  0
 23 21  1  0
  1 24  1  0
  7 25  1  0
  9 26  1  0
 11 27  1  0
 12 28  1  0
 15 29  1  0
 21 30  1  0
 22 31  1  0
 22 32  1  0
 23 33  1  0
 23 34  1  0
M  ISO  8  24  14  25  14  26  14  27   9  28  14  29  14  30  13  31  13
M  ISO  3  32  13  33  13  34  13
M  END
>  <minimizedAffinity>  (1) 
-5.73815727

>  <minimizedRMSD>  (1) 
0.67962712

$$$$
