
     RDKit          3D

 31 33  0  0  0  0  0  0  0  0999 V2000
   46.0550   33.1650   41.4600 C   0  0  0  0  0  0  0  0  0  0  0  0
   47.2250   33.8730   41.2160 C   0  0  0  0  0  0  0  0  0  0  0  0
   48.1340   33.9620   42.2710 C   0  0  0  0  0  0  0  0  0  0  0  0
   47.8000   33.3530   43.4410 N   0  0  0  0  0  0  0  0  0  0  0  0
   46.6660   32.6770   43.6470 C   0  0  0  0  0  0  0  0  0  0  0  0
   45.7880   32.5820   42.6530 N   0  0  0  0  0  0  0  0  0  0  0  0
   46.4980   30.7010   45.1040 C   0  0  0  0  0  0  0  0  0  0  0  0
   46.4270   32.0710   44.9390 C   0  0  0  0  0  0  0  0  0  0  0  0
   46.1250   32.9450   45.9960 C   0  0  0  0  0  0  0  0  0  0  0  0
   45.8850   32.4170   47.2680 C   0  0  0  0  0  0  0  0  0  0  0  0
   45.5730   32.9470   48.4900 N   0  0  0  0  0  0  0  0  0  0  0  0
   45.4610   31.8890   49.3690 C   0  0  0  0  0  0  0  0  0  0  0  0
   45.7050   30.7580   48.6670 N   0  0  0  0  0  0  0  0  0  0  0  0
   45.9660   31.0510   47.3860 C   0  0  0  0  0  0  0  0  0  0  0  0
   46.2580   30.1740   46.3740 C   0  0  0  0  0  0  0  0  0  0  0  0
   49.4060   34.7050   42.0800 C   0  0  0  0  0  0  0  0  0  0  0  0
   49.2200   35.7880   41.2250 F   0  0  0  0  0  0  0  0  0  0  0  0
   49.8420   35.2220   43.2660 F   0  0  0  0  0  0  0  0  0  0  0  0
   50.3320   33.8470   41.5360 F   0  0  0  0  0  0  0  0  0  0  0  0
   47.4460   34.4400   39.9990 O   0  0  0  0  0  0  0  0  0  0  0  0
   47.7120   33.7720   38.8010 C   0  0  0  0  0  0  0  0  0  0  0  0
   48.4560   34.5690   37.7770 C   0  0  0  0  0  0  0  0  0  0  0  0
   48.7810   35.5680   38.1070 H   0  0  0  0  0  0  0  0  0  0  0  0
   45.3151   33.0741   40.6512 H   0  0  0  0  0  0  0  0  0  0  0  0
   46.7376   30.0424   44.2561 H   0  0  0  0  0  0  0  0  0  0  0  0
   46.0779   34.0307   45.8253 H   0  0  0  0  0  0  0  0  0  0  0  0
   45.4460   33.9448   48.7116 H   0  0  0  0  0  0  0  0  0  0  0  0
   45.2187   31.9530   50.4401 H   0  0  0  0  0  0  0  0  0  0  0  0
   46.3018   29.0902   46.5567 H   0  0  0  0  0  0  0  0  0  0  0  0
   47.3965   32.7333   38.6234 H   0  0  0  0  0  0  0  0  0  0  0  0
   48.6635   34.1849   36.7673 H   0  0  0  0  0  0  0  0  0  0  0  0
  1  6  2  0
  2  1  1  0
  2  3  2  0
  3  4  1  0
  4  5  2  0
  5  8  1  0
  6  5  1  0
  7 15  2  0
  8  7  1  0
  8  9  2  0
  9 10  1  0
 10 14  2  0
 10 11  1  0
 11 12  1  0
 13 12  2  0
 14 13  1  0
 15 14  1  0
 16  3  1  0
 16 18  1  0
 17 16  1  0
 19 16  1  0
 20  2  1  0
 21 20  1  0
 22 23  1  0
 22 21  2  0
  1 24  1  0
  7 25  1  0
  9 26  1  0
 11 27  1  0
 12 28  1  0
 15 29  1  0
 21 30  1  0
 22 31  1  0
M  ISO  6  24  14  25  14  26  14  27   9  28  14  29  14
M  END
>  <minimizedAffinity>  (1) 
-5.66065788

>  <minimizedRMSD>  (1) 
0.971178174

$$$$
