
     RDKit          3D

 30 32  0  0  0  0  0  0  0  0999 V2000
   46.4610   30.7490   45.0880 C   0  0  0  0  0  0  0  0  0  0  0  0
   46.4240   32.1160   44.9520 C   0  0  0  0  0  0  0  0  0  0  0  0
   46.1350   32.9790   46.0300 C   0  0  0  0  0  0  0  0  0  0  0  0
   45.8750   32.4370   47.2860 C   0  0  0  0  0  0  0  0  0  0  0  0
   45.5700   32.9120   48.5160 N   0  0  0  0  0  0  0  0  0  0  0  0
   45.4270   31.8380   49.3720 C   0  0  0  0  0  0  0  0  0  0  0  0
   45.6470   30.7210   48.6520 N   0  0  0  0  0  0  0  0  0  0  0  0
   45.9230   31.0590   47.3750 C   0  0  0  0  0  0  0  0  0  0  0  0
   46.2020   30.1940   46.3390 C   0  0  0  0  0  0  0  0  0  0  0  0
   46.0780   33.2820   41.4990 C   0  0  0  0  0  0  0  0  0  0  0  0
   47.2650   33.9770   41.2870 C   0  0  0  0  0  0  0  0  0  0  0  0
   48.1710   34.0340   42.3400 C   0  0  0  0  0  0  0  0  0  0  0  0
   47.8280   33.4110   43.4860 N   0  0  0  0  0  0  0  0  0  0  0  0
   46.6850   32.7470   43.6770 C   0  0  0  0  0  0  0  0  0  0  0  0
   45.7920   32.6760   42.6780 N   0  0  0  0  0  0  0  0  0  0  0  0
   49.4470   34.7640   42.1560 C   0  0  0  0  0  0  0  0  0  0  0  0
   49.2650   35.8740   41.3280 F   0  0  0  0  0  0  0  0  0  0  0  0
   49.8860   35.2480   43.3590 F   0  0  0  0  0  0  0  0  0  0  0  0
   50.3660   33.9080   41.5930 F   0  0  0  0  0  0  0  0  0  0  0  0
   47.4930   34.5700   40.0670 O   0  0  0  0  0  0  0  0  0  0  0  0
   47.8770   33.9150   38.9130 C   0  0  0  0  0  0  0  0  0  0  0  0
   46.6907   30.1057   44.2258 H   0  0  0  0  0  0  0  0  0  0  0  0
   46.1153   34.0685   45.8799 H   0  0  0  0  0  0  0  0  0  0  0  0
   45.4629   33.9044   48.7700 H   0  0  0  0  0  0  0  0  0  0  0  0
   45.1795   31.8857   50.4427 H   0  0  0  0  0  0  0  0  0  0  0  0
   46.2195   29.1052   46.4944 H   0  0  0  0  0  0  0  0  0  0  0  0
   45.3454   33.2221   40.6807 H   0  0  0  0  0  0  0  0  0  0  0  0
   48.4171   32.9937   39.1767 H   0  0  0  0  0  0  0  0  0  0  0  0
   46.9850   33.6606   38.3217 H   0  0  0  0  0  0  0  0  0  0  0  0
   48.5346   34.5691   38.3217 H   0  0  0  0  0  0  0  0  0  0  0  0
  1  9  2  0
  2  1  1  0
  2  3  2  0
  3  4  1  0
  4  8  2  0
  4  5  1  0
  5  6  1  0
  7  6  2  0
  8  7  1  0
  9  8  1  0
 10 15  2  0
 11 10  1  0
 11 12  2  0
 12 13  1  0
 13 14  2  0
 14  2  1  0
 15 14  1  0
 16 12  1  0
 16 18  1  0
 17 16  1  0
 19 16  1  0
 20 11  1  0
 21 20  1  0
  1 22  1  0
  3 23  1  0
  5 24  1  0
  6 25  1  0
  9 26  1  0
 10 27  1  0
 21 28  1  0
 21 29  1  0
 21 30  1  0
M  ISO  8  22  14  23  14  24   9  25  14  26  14  27  14  28   8  29   8
M  ISO  1  30   8
M  END
>  <minimizedAffinity>  (1) 
-5.55110455

>  <minimizedRMSD>  (1) 
0.49118939

$$$$
