
     RDKit          3D

 39 43  0  0  0  0  0  0  0  0999 V2000
   45.9420   33.3760   41.5700 C   0  0  0  0  0  0  0  0  0  0  0  0
   47.1610   34.0250   41.3120 C   0  0  0  0  0  0  0  0  0  0  0  0
   48.1060   34.0080   42.3140 C   0  0  0  0  0  0  0  0  0  0  0  0
   47.7920   33.3660   43.4760 N   0  0  0  0  0  0  0  0  0  0  0  0
   46.6210   32.7510   43.7050 C   0  0  0  0  0  0  0  0  0  0  0  0
   45.6880   32.7540   42.7510 N   0  0  0  0  0  0  0  0  0  0  0  0
   46.4570   30.7380   45.0950 C   0  0  0  0  0  0  0  0  0  0  0  0
   46.3890   32.0990   44.9780 C   0  0  0  0  0  0  0  0  0  0  0  0
   46.0950   32.9390   46.0700 C   0  0  0  0  0  0  0  0  0  0  0  0
   45.8600   32.3910   47.3250 C   0  0  0  0  0  0  0  0  0  0  0  0
   45.5600   32.8530   48.5610 N   0  0  0  0  0  0  0  0  0  0  0  0
   45.4500   31.7900   49.4040 C   0  0  0  0  0  0  0  0  0  0  0  0
   45.6830   30.6920   48.6740 N   0  0  0  0  0  0  0  0  0  0  0  0
   45.9390   31.0140   47.3970 C   0  0  0  0  0  0  0  0  0  0  0  0
   46.2250   30.1630   46.3450 C   0  0  0  0  0  0  0  0  0  0  0  0
   49.4100   34.6760   42.0970 C   0  0  0  0  0  0  0  0  0  0  0  0
   49.2550   35.8090   41.2900 F   0  0  0  0  0  0  0  0  0  0  0  0
   49.9250   35.1220   43.2900 F   0  0  0  0  0  0  0  0  0  0  0  0
   50.2520   33.7820   41.4800 F   0  0  0  0  0  0  0  0  0  0  0  0
   47.3380   34.6240   40.1070 O   0  0  0  0  0  0  0  0  0  0  0  0
   47.3260   33.9260   38.9230 C   0  0  0  0  0  0  0  0  0  0  0  0
   48.4930   34.3600   38.2910 C   0  0  0  0  0  0  0  0  0  0  0  0
   48.4580   33.4070   36.7050 S   0  0  0  0  0  0  0  0  0  0  0  0
   46.8560   32.5910   37.1930 C   0  0  0  0  0  0  0  0  0  0  0  0
   46.7100   33.0640   38.1760 N   0  0  0  0  0  0  0  0  0  0  0  0
   46.2360   31.6240   36.2710 C   0  0  0  0  0  0  0  0  0  0  0  0
   46.3470   30.2670   36.3640 C   0  0  0  0  0  0  0  0  0  0  0  0
   45.3320   29.6270   34.9000 S   0  0  0  0  0  0  0  0  0  0  0  0
   44.9550   31.4330   34.4580 C   0  0  0  0  0  0  0  0  0  0  0  0
   45.5040   31.9890   35.2580 N   0  0  0  0  0  0  0  0  0  0  0  0
   45.1669   33.3712   40.7895 H   0  0  0  0  0  0  0  0  0  0  0  0
   46.6896   30.1101   44.2223 H   0  0  0  0  0  0  0  0  0  0  0  0
   46.0515   34.0291   45.9291 H   0  0  0  0  0  0  0  0  0  0  0  0
   45.4358   33.8421   48.8201 H   0  0  0  0  0  0  0  0  0  0  0  0
   45.2150   31.8260   50.4780 H   0  0  0  0  0  0  0  0  0  0  0  0
   46.2680   29.0732   46.4884 H   0  0  0  0  0  0  0  0  0  0  0  0
   49.2419   35.0836   38.6453 H   0  0  0  0  0  0  0  0  0  0  0  0
   46.8979   29.6815   37.1148 H   0  0  0  0  0  0  0  0  0  0  0  0
   44.3518   31.8307   33.6286 H   0  0  0  0  0  0  0  0  0  0  0  0
  1  6  2  0
  2  1  1  0
  2  3  2  0
  3  4  1  0
  4  5  2  0
  5  8  1  0
  6  5  1  0
  7 15  2  0
  8  7  1  0
  8  9  2  0
  9 10  1  0
 10 14  2  0
 10 11  1  0
 11 12  1  0
 13 12  2  0
 14 13  1  0
 15 14  1  0
 16  3  1  0
 16 18  1  0
 17 16  1  0
 19 16  1  0
 20  2  1  0
 21 20  1  0
 22 21  2  0
 23 24  1  0
 23 22  1  0
 24 25  2  0
 25 21  1  0
 26 27  2  0
 26 24  1  0
 28 27  1  0
 29 28  1  0
 29 30  2  0
 30 26  1  0
  1 31  1  0
  7 32  1  0
  9 33  1  0
 11 34  1  0
 12 35  1  0
 15 36  1  0
 22 37  1  0
 27 38  1  0
 29 39  1  0
M  ISO  8  31  14  32  14  33  14  34   9  35  14  36  14  37  14  38  14
M  ISO  1  39  14
M  END
>  <minimizedAffinity>  (1) 
-6.22818327

>  <minimizedRMSD>  (1) 
0.563969791

$$$$
