
     RDKit          3D

 12 12  0  0  0  0  0  0  0  0999 V2000
   44.5140   35.9160   44.6740 C   0  0  0  0  0  0  0  0  0  0  0  0
   45.1560   35.8970   43.4210 C   0  0  0  0  0  0  0  0  0  0  0  0
   46.0800   34.8590   43.1990 C   0  0  0  0  0  0  0  0  0  0  0  0
   46.2970   33.9470   44.1900 N   0  0  0  0  0  0  0  0  0  0  0  0
   45.6530   34.0160   45.3710 C   0  0  0  0  0  0  0  0  0  0  0  0
   44.7620   34.9980   45.6130 N   0  0  0  0  0  0  0  0  0  0  0  0
   45.8750   33.0490   46.4420 C   0  0  0  0  0  0  0  0  0  0  0  0
   45.1710   33.0080   47.4890 O   0  0  0  0  0  0  0  0  0  0  0  0
   43.7851   36.7118   44.8868 H   0  0  0  0  0  0  0  0  0  0  0  0
   44.9456   36.6562   42.6533 H   0  0  0  0  0  0  0  0  0  0  0  0
   46.6182   34.7843   42.2425 H   0  0  0  0  0  0  0  0  0  0  0  0
   46.6936   32.3226   46.3315 H   0  0  0  0  0  0  0  0  0  0  0  0
  1  6  2  0
  2  1  1  0
  3  2  2  0
  3  4  1  0
  4  5  2  0
  5  6  1  0
  5  7  1  0
  7  8  2  0
  1  9  1  0
  2 10  1  0
  3 11  1  0
  7 12  1  0
M  ISO  4   9  14  10  14  11  14  12   6
M  END
>  <minimizedAffinity>  (1) 
-3.18825054

>  <minimizedRMSD>  (1) 
0.523588121

$$$$
