
     RDKit          3D

 29 31  0  0  1  0  0  0  0  0999 V2000
   46.3130   32.2520   44.6630 C   0  0  1  0  0  0  0  0  0  0  0  0
   46.5640   31.4400   43.5300 C   0  0  0  0  0  0  0  0  0  0  0  0
   47.7210   32.2240   44.1700 C   0  0  1  0  0  0  0  0  0  0  0  0
   45.0910   33.9840   43.1710 C   0  0  0  0  0  0  0  0  0  0  0  0
   45.5420   33.5570   44.4530 C   0  0  0  0  0  0  0  0  0  0  0  0
   45.2810   34.3700   45.5270 C   0  0  0  0  0  0  0  0  0  0  0  0
   44.6130   35.5310   45.3320 N   0  0  0  0  0  0  0  0  0  0  0  0
   44.1860   35.9310   44.1100 C   0  0  0  0  0  0  0  0  0  0  0  0
   44.4380   35.1260   42.9950 N   0  0  0  0  0  0  0  0  0  0  0  0
   48.1450   33.3640   43.4230 N   0  0  0  0  0  0  0  0  0  0  0  0
   49.2790   33.3790   42.6310 C   0  0  0  0  0  0  0  0  0  0  0  0
   50.4420   32.9430   42.8530 O   0  0  0  0  0  0  0  0  0  0  0  0
   49.2180   33.9950   41.2420 C   0  0  2  0  0  0  0  0  0  0  0  0
   48.5970   35.4250   41.1420 C   0  0  0  0  0  0  0  0  0  0  0  0
   47.9610   34.1840   40.5360 C   0  0  1  0  0  0  0  0  0  0  0  0
   48.0140   34.0940   38.6960 S   0  0  0  0  0  0  0  0  0  0  0  0
   45.8396   32.0519   45.6356 H   0  0  0  0  0  0  0  0  0  0  0  0
   46.1778   31.7390   42.5444 H   0  0  0  0  0  0  0  0  0  0  0  0
   46.3890   30.3831   43.2802 H   0  0  0  0  0  0  0  0  0  0  0  0
   48.7097   32.0068   44.6005 H   0  0  0  0  0  0  0  0  0  0  0  0
   45.2906   33.3458   42.2976 H   0  0  0  0  0  0  0  0  0  0  0  0
   45.6111   34.0813   46.5358 H   0  0  0  0  0  0  0  0  0  0  0  0
   43.6451   36.8820   43.9960 H   0  0  0  0  0  0  0  0  0  0  0  0
   47.5763   34.2211   43.4765 H   0  0  0  0  0  0  0  0  0  0  0  0
   50.1601   33.5013   40.9615 H   0  0  0  0  0  0  0  0  0  0  0  0
   48.1541   35.9063   42.0264 H   0  0  0  0  0  0  0  0  0  0  0  0
   48.9204   36.4133   40.7835 H   0  0  0  0  0  0  0  0  0  0  0  0
   46.9747   33.7047   40.6219 H   0  0  0  0  0  0  0  0  0  0  0  0
   48.6815   32.9605   38.3133 H   0  0  0  0  0  0  0  0  0  0  0  0
  2  3  1  0
  2  1  1  0
  3  1  1  0
  4  5  2  0
  5  1  1  0
  5  6  1  0
  7  6  2  0
  8  7  1  0
  9  4  1  0
  9  8  2  0
 10  3  1  0
 11 12  2  0
 11 10  1  0
 13 11  1  0
 14 13  1  0
 15 14  1  0
 15 13  1  0
 16 15  1  0
  1 17  1  1
  2 18  1  0
  2 19  1  0
  3 20  1  1
  4 21  1  0
  6 22  1  0
  8 23  1  0
 10 24  1  0
 13 25  1  6
 14 26  1  0
 14 27  1  0
 15 28  1  1
 16 29  1  0
M  ISO  8  17  13  18  13  19  13  20  13  21  14  22  14  23  14  25  13
M  ISO  4  26  13  27  13  28  13  29  11
M  END
>  <minimizedAffinity>  (1) 
-4.11145353

>  <minimizedRMSD>  (1) 
0.595426083

$$$$
