
     RDKit          3D

 22 23  0  0  0  0  0  0  0  0999 V2000
   45.6150   33.1190   46.8610 C   0  0  0  0  0  0  0  0  0  0  0  0
   44.7170   33.4340   47.6800 O   0  0  0  0  0  0  0  0  0  0  0  0
   44.9810   35.4340   44.1240 C   0  0  0  0  0  0  0  0  0  0  0  0
   45.9650   35.1120   43.1600 C   0  0  0  0  0  0  0  0  0  0  0  0
   46.8400   34.0750   43.4980 C   0  0  0  0  0  0  0  0  0  0  0  0
   46.7260   33.4350   44.6880 N   0  0  0  0  0  0  0  0  0  0  0  0
   45.7650   33.7870   45.5700 C   0  0  0  0  0  0  0  0  0  0  0  0
   44.9080   34.7790   45.2760 N   0  0  0  0  0  0  0  0  0  0  0  0
   45.4320   30.3960   46.0490 F   0  0  0  0  0  0  0  0  0  0  0  0
   46.4300   30.7130   46.9020 C   0  0  0  0  0  0  0  0  0  0  0  0
   46.5010   32.0380   47.2820 C   0  0  0  0  0  0  0  0  0  0  0  0
   47.5280   32.3880   48.1650 C   0  0  0  0  0  0  0  0  0  0  0  0
   48.4470   31.4780   48.6540 C   0  0  0  0  0  0  0  0  0  0  0  0
   48.3660   30.1530   48.2650 C   0  0  0  0  0  0  0  0  0  0  0  0
   47.3510   29.8140   47.3940 C   0  0  0  0  0  0  0  0  0  0  0  0
   44.2638   36.2414   43.9151 H   0  0  0  0  0  0  0  0  0  0  0  0
   46.0375   35.6459   42.2010 H   0  0  0  0  0  0  0  0  0  0  0  0
   47.6284   33.7755   42.7918 H   0  0  0  0  0  0  0  0  0  0  0  0
   47.6083   33.4372   48.4856 H   0  0  0  0  0  0  0  0  0  0  0  0
   49.2363   31.8051   49.3469 H   0  0  0  0  0  0  0  0  0  0  0  0
   49.0800   29.4020   48.6341 H   0  0  0  0  0  0  0  0  0  0  0  0
   47.2725   28.7646   47.0736 H   0  0  0  0  0  0  0  0  0  0  0  0
  1 11  1  0
  1  2  2  0
  3  8  2  0
  4  5  2  0
  4  3  1  0
  5  6  1  0
  6  7  2  0
  7  1  1  0
  8  7  1  0
  9 10  1  0
 10 11  2  0
 10 15  1  0
 11 12  1  0
 12 13  2  0
 14 13  1  0
 15 14  2  0
  3 16  1  0
  4 17  1  0
  5 18  1  0
 12 19  1  0
 13 20  1  0
 14 21  1  0
 15 22  1  0
M  ISO  7  16  14  17  14  18  14  19  14  20  14  21  14  22  14
M  END
>  <minimizedAffinity>  (1) 
-4.52971458

>  <minimizedRMSD>  (1) 
1.21196294

$$$$
