
     RDKit          3D

 28 29  0  0  0  0  0  0  0  0999 V2000
   45.0170   35.4620   44.0260 C   0  0  0  0  0  0  0  0  0  0  0  0
   46.0170   35.1010   43.1140 C   0  0  0  0  0  0  0  0  0  0  0  0
   46.8930   34.0640   43.4550 C   0  0  0  0  0  0  0  0  0  0  0  0
   46.7100   33.4740   44.6600 N   0  0  0  0  0  0  0  0  0  0  0  0
   45.7400   33.8390   45.5200 C   0  0  0  0  0  0  0  0  0  0  0  0
   44.8880   34.8440   45.1930 N   0  0  0  0  0  0  0  0  0  0  0  0
   45.5630   33.1870   46.8160 C   0  0  0  0  0  0  0  0  0  0  0  0
   44.6840   33.5990   47.6220 O   0  0  0  0  0  0  0  0  0  0  0  0
   46.4510   32.0410   47.1220 C   0  0  0  0  0  0  0  0  0  0  0  0
   46.8490   32.0290   48.5930 C   0  0  0  0  0  0  0  0  0  0  0  0
   48.1620   31.2560   48.6480 C   0  0  0  0  0  0  0  0  0  0  0  0
   48.2510   30.2830   47.5140 C   0  0  0  0  0  0  0  0  0  0  0  0
   46.9260   29.6700   47.1260 C   0  0  0  0  0  0  0  0  0  0  0  0
   45.8720   30.6970   46.8120 C   0  0  0  0  0  0  0  0  0  0  0  0
   44.3232   36.2760   43.7690 H   0  0  0  0  0  0  0  0  0  0  0  0
   46.1119   35.6217   42.1497 H   0  0  0  0  0  0  0  0  0  0  0  0
   47.6948   33.7424   42.7741 H   0  0  0  0  0  0  0  0  0  0  0  0
   47.3174   32.1998   46.4631 H   0  0  0  0  0  0  0  0  0  0  0  0
   46.9904   33.0555   48.9623 H   0  0  0  0  0  0  0  0  0  0  0  0
   46.0747   31.5678   49.2237 H   0  0  0  0  0  0  0  0  0  0  0  0
   49.0010   31.9643   48.5827 H   0  0  0  0  0  0  0  0  0  0  0  0
   48.2053   30.6994   49.5958 H   0  0  0  0  0  0  0  0  0  0  0  0
   48.6588   30.8088   46.6381 H   0  0  0  0  0  0  0  0  0  0  0  0
   48.8968   29.4588   47.8513 H   0  0  0  0  0  0  0  0  0  0  0  0
   47.0780   29.0407   46.2367 H   0  0  0  0  0  0  0  0  0  0  0  0
   46.5694   29.0855   47.9869 H   0  0  0  0  0  0  0  0  0  0  0  0
   44.9792   30.5206   47.4299 H   0  0  0  0  0  0  0  0  0  0  0  0
   45.5737   30.6369   45.7549 H   0  0  0  0  0  0  0  0  0  0  0  0
  1  6  2  0
  2  3  2  0
  2  1  1  0
  3  4  1  0
  4  5  2  0
  5  7  1  0
  6  5  1  0
  7  9  1  0
  7  8  2  0
  9 10  1  0
 10 11  1  0
 12 11  1  0
 13 12  1  0
 14  9  1  0
 14 13  1  0
  1 15  1  0
  2 16  1  0
  3 17  1  0
  9 18  1  0
 10 19  1  0
 10 20  1  0
 11 21  1  0
 11 22  1  0
 12 23  1  0
 12 24  1  0
 13 25  1  0
 13 26  1  0
 14 27  1  0
 14 28  1  0
M  ISO  8  15  14  16  14  17  14  18  13  19  13  20  13  21  13  22  13
M  ISO  6  23  13  24  13  25  13  26  13  27  13  28  13
M  END
>  <minimizedAffinity>  (1) 
-4.25867844

>  <minimizedRMSD>  (1) 
1.66465855

$$$$
