
     RDKit          3D

 19 20  0  0  0  0  0  0  0  0999 V2000
   45.3600   33.4380   46.6910 C   0  0  0  0  0  0  0  0  0  0  0  0
   44.6040   33.7680   47.6370 O   0  0  0  0  0  0  0  0  0  0  0  0
   44.6750   36.0130   44.2230 C   0  0  0  0  0  0  0  0  0  0  0  0
   45.5270   35.6870   43.1450 C   0  0  0  0  0  0  0  0  0  0  0  0
   46.3430   34.5560   43.2930 C   0  0  0  0  0  0  0  0  0  0  0  0
   46.2710   33.8450   44.4490 N   0  0  0  0  0  0  0  0  0  0  0  0
   45.4410   34.1930   45.4540 C   0  0  0  0  0  0  0  0  0  0  0  0
   44.6570   35.2720   45.3250 N   0  0  0  0  0  0  0  0  0  0  0  0
   46.1780   32.2480   46.8680 C   0  0  0  0  0  0  0  0  0  0  0  0
   47.3330   32.2040   47.6550 C   0  0  0  0  0  0  0  0  0  0  0  0
   47.7670   30.8820   47.5240 C   0  0  0  0  0  0  0  0  0  0  0  0
   46.8840   30.2020   46.6880 C   0  0  0  0  0  0  0  0  0  0  0  0
   45.9650   31.0660   46.3340 O   0  0  0  0  0  0  0  0  0  0  0  0
   44.0178   36.8920   44.1490 H   0  0  0  0  0  0  0  0  0  0  0  0
   45.5497   36.2944   42.2282 H   0  0  0  0  0  0  0  0  0  0  0  0
   47.0283   34.2502   42.4887 H   0  0  0  0  0  0  0  0  0  0  0  0
   47.7909   33.0164   48.2383 H   0  0  0  0  0  0  0  0  0  0  0  0
   48.6585   30.4498   48.0020 H   0  0  0  0  0  0  0  0  0  0  0  0
   46.9462   29.1465   46.3846 H   0  0  0  0  0  0  0  0  0  0  0  0
  1  9  1  0
  1  2  2  0
  3  8  2  0
  4  5  2  0
  4  3  1  0
  5  6  1  0
  6  7  2  0
  7  1  1  0
  8  7  1  0
  9 10  2  0
 11 10  1  0
 12 11  2  0
 13 12  1  0
 13  9  1  0
  3 14  1  0
  4 15  1  0
  5 16  1  0
 10 17  1  0
 11 18  1  0
 12 19  1  0
M  ISO  6  14  14  15  14  16  14  17  14  18  14  19  14
M  END
>  <minimizedAffinity>  (1) 
-3.97422242

>  <minimizedRMSD>  (1) 
1.08324862

$$$$
