
     RDKit          3D

 13 13  0  0  0  0  0  0  0  0999 V2000
   44.4600   35.9260   44.4960 C   0  0  0  0  0  0  0  0  0  0  0  0
   45.0900   35.8500   43.2480 C   0  0  0  0  0  0  0  0  0  0  0  0
   46.0690   34.8590   43.1010 C   0  0  0  0  0  0  0  0  0  0  0  0
   46.3560   34.0420   44.1460 N   0  0  0  0  0  0  0  0  0  0  0  0
   45.7120   34.1650   45.3260 C   0  0  0  0  0  0  0  0  0  0  0  0
   44.7720   35.1040   45.4920 N   0  0  0  0  0  0  0  0  0  0  0  0
   45.9960   33.3050   46.4640 C   0  0  0  0  0  0  0  0  0  0  0  0
   45.1330   32.9870   47.3150 O   0  0  0  0  0  0  0  0  0  0  0  0
   47.2360   32.7440   46.7390 O   0  0  0  0  0  0  0  0  0  0  0  0
   43.6838   36.6888   44.6566 H   0  0  0  0  0  0  0  0  0  0  0  0
   44.8298   36.5329   42.4258 H   0  0  0  0  0  0  0  0  0  0  0  0
   46.6014   34.7438   42.1453 H   0  0  0  0  0  0  0  0  0  0  0  0
   47.3527   32.1671   47.5350 H   0  0  0  0  0  0  0  0  0  0  0  0
  1  6  2  0
  2  1  1  0
  3  2  2  0
  3  4  1  0
  4  5  2  0
  5  6  1  0
  5  7  1  0
  7  9  1  0
  7  8  2  0
  1 10  1  0
  2 11  1  0
  3 12  1  0
  9 13  1  0
M  ISO  4  10  14  11  14  12  14  13   3
M  END
>  <minimizedAffinity>  (1) 
-3.54059291

>  <minimizedRMSD>  (1) 
0.361399084

$$$$
