
     RDKit          3D

 36 39  0  0  0  0  0  0  0  0999 V2000
   44.1990   31.8900   42.9350 Cl  0  0  0  0  0  0  0  0  0  0  0  0
   45.5680   32.9890   42.8890 C   0  0  0  0  0  0  0  0  0  0  0  0
   46.6740   32.7300   43.6520 C   0  0  0  0  0  0  0  0  0  0  0  0
   47.7230   33.6110   43.5750 C   0  0  0  0  0  0  0  0  0  0  0  0
   47.6730   34.7160   42.7670 C   0  0  0  0  0  0  0  0  0  0  0  0
   46.5260   34.9750   41.9850 C   0  0  0  0  0  0  0  0  0  0  0  0
   45.4550   34.0830   42.0550 C   0  0  0  0  0  0  0  0  0  0  0  0
   44.0100   33.8970   39.9700 C   0  0  0  0  0  0  0  0  0  0  0  0
   44.2720   34.3560   41.2450 C   0  0  0  0  0  0  0  0  0  0  0  0
   43.3200   35.1750   41.8630 C   0  0  0  0  0  0  0  0  0  0  0  0
   42.1410   35.5380   41.2470 C   0  0  0  0  0  0  0  0  0  0  0  0
   41.0680   36.2810   41.5640 N   0  0  0  0  0  0  0  0  0  0  0  0
   40.1940   36.2730   40.5220 C   0  0  0  0  0  0  0  0  0  0  0  0
   40.7110   35.5040   39.5000 C   0  0  0  0  0  0  0  0  0  0  0  0
   41.9200   35.0590   39.9780 C   0  0  0  0  0  0  0  0  0  0  0  0
   42.8380   34.2430   39.3270 C   0  0  0  0  0  0  0  0  0  0  0  0
   46.7020   31.5630   44.5100 C   0  0  0  0  0  0  0  0  0  0  0  0
   47.2840   30.5380   44.0420 O   0  0  0  0  0  0  0  0  0  0  0  0
   45.1890   30.3360   47.5670 C   0  0  0  0  0  0  0  0  0  0  0  0
   44.9730   31.4810   48.3460 C   0  0  0  0  0  0  0  0  0  0  0  0
   45.3700   32.6830   47.7670 C   0  0  0  0  0  0  0  0  0  0  0  0
   45.9260   32.6780   46.5230 N   0  0  0  0  0  0  0  0  0  0  0  0
   46.1080   31.5520   45.8230 C   0  0  0  0  0  0  0  0  0  0  0  0
   45.7360   30.3830   46.3540 N   0  0  0  0  0  0  0  0  0  0  0  0
   48.6253   33.4256   44.1762 H   0  0  0  0  0  0  0  0  0  0  0  0
   48.5299   35.4045   42.7271 H   0  0  0  0  0  0  0  0  0  0  0  0
   46.4778   35.8608   41.3346 H   0  0  0  0  0  0  0  0  0  0  0  0
   44.7406   33.2504   39.4620 H   0  0  0  0  0  0  0  0  0  0  0  0
   43.5202   35.5435   42.8799 H   0  0  0  0  0  0  0  0  0  0  0  0
   40.9290   36.7782   42.4553 H   0  0  0  0  0  0  0  0  0  0  0  0
   39.2272   36.7971   40.4979 H   0  0  0  0  0  0  0  0  0  0  0  0
   40.2566   35.2938   38.5205 H   0  0  0  0  0  0  0  0  0  0  0  0
   42.6329   33.8767   38.3102 H   0  0  0  0  0  0  0  0  0  0  0  0
   44.8943   29.3578   47.9748 H   0  0  0  0  0  0  0  0  0  0  0  0
   44.5203   31.4330   49.3474 H   0  0  0  0  0  0  0  0  0  0  0  0
   45.2358   33.6302   48.3099 H   0  0  0  0  0  0  0  0  0  0  0  0
  2  1  1  0
  2  3  2  0
  3 17  1  0
  4  3  1  0
  5  4  2  0
  6  7  2  0
  6  5  1  0
  7  2  1  0
  8  9  2  0
  9 10  1  0
  9  7  1  0
 11 12  1  0
 11 10  2  0
 13 12  1  0
 14 15  1  0
 14 13  2  0
 15 11  1  0
 16  8  1  0
 16 15  2  0
 17 23  1  0
 18 17  2  0
 19 20  2  0
 21 20  1  0
 22 21  2  0
 23 24  2  0
 23 22  1  0
 24 19  1  0
  4 25  1  0
  5 26  1  0
  6 27  1  0
  8 28  1  0
 10 29  1  0
 12 30  1  0
 13 31  1  0
 14 32  1  0
 16 33  1  0
 19 34  1  0
 20 35  1  0
 21 36  1  0
M  ISO  8  25  14  26  14  27  14  28  14  29  14  30   9  31  14  32  14
M  ISO  4  33  14  34  14  35  14  36  14
M  END
>  <minimizedAffinity>  (1) 
-6.52480221

>  <minimizedRMSD>  (1) 
8.71070099

$$$$
