
     RDKit          3D

 30 32  0  0  0  0  0  0  0  0999 V2000
   44.7700   30.6790   48.2830 Cl  0  0  0  0  0  0  0  0  0  0  0  0
   45.9430   30.4290   46.9750 C   0  0  0  0  0  0  0  0  0  0  0  0
   46.4080   31.5160   46.3000 C   0  0  0  0  0  0  0  0  0  0  0  0
   47.3510   31.2950   45.3300 C   0  0  0  0  0  0  0  0  0  0  0  0
   47.8040   30.0370   45.0480 C   0  0  0  0  0  0  0  0  0  0  0  0
   47.3130   28.9300   45.7520 C   0  0  0  0  0  0  0  0  0  0  0  0
   46.3520   29.1450   46.7450 C   0  0  0  0  0  0  0  0  0  0  0  0
   45.9500   27.9160   47.3890 C   0  0  0  0  0  0  0  0  0  0  0  0
   44.7140   27.5070   47.8050 C   0  0  0  0  0  0  0  0  0  0  0  0
   44.3660   26.3230   48.3930 C   0  0  0  0  0  0  0  0  0  0  0  0
   45.3750   25.4220   48.5960 N   0  0  0  0  0  0  0  0  0  0  0  0
   46.6140   25.7700   48.2060 C   0  0  0  0  0  0  0  0  0  0  0  0
   46.8510   26.9560   47.6380 N   0  0  0  0  0  0  0  0  0  0  0  0
   45.8960   32.8370   46.6010 C   0  0  0  0  0  0  0  0  0  0  0  0
   45.6790   33.1030   47.8160 O   0  0  0  0  0  0  0  0  0  0  0  0
   44.5330   35.7340   44.8890 C   0  0  0  0  0  0  0  0  0  0  0  0
   45.1180   35.7340   43.6290 C   0  0  0  0  0  0  0  0  0  0  0  0
   46.0010   34.6880   43.3960 C   0  0  0  0  0  0  0  0  0  0  0  0
   46.2370   33.7580   44.3740 N   0  0  0  0  0  0  0  0  0  0  0  0
   45.6420   33.8120   45.5710 C   0  0  0  0  0  0  0  0  0  0  0  0
   44.7900   34.8100   45.8110 N   0  0  0  0  0  0  0  0  0  0  0  0
   47.7522   32.1498   44.7658 H   0  0  0  0  0  0  0  0  0  0  0  0
   48.5600   29.8925   44.2621 H   0  0  0  0  0  0  0  0  0  0  0  0
   47.6748   27.9154   45.5290 H   0  0  0  0  0  0  0  0  0  0  0  0
   43.8938   28.2226   47.6462 H   0  0  0  0  0  0  0  0  0  0  0  0
   43.3286   26.1061   48.6876 H   0  0  0  0  0  0  0  0  0  0  0  0
   47.4462   25.0667   48.3571 H   0  0  0  0  0  0  0  0  0  0  0  0
   43.8229   36.5369   45.1363 H   0  0  0  0  0  0  0  0  0  0  0  0
   44.8986   36.5034   42.8740 H   0  0  0  0  0  0  0  0  0  0  0  0
   46.5116   34.6060   42.4251 H   0  0  0  0  0  0  0  0  0  0  0  0
  2  1  1  0
  3 14  1  0
  3  2  2  0
  4  3  1  0
  5  4  2  0
  5  6  1  0
  6  7  2  0
  7  2  1  0
  7  8  1  0
  8 13  1  0
  8  9  2  0
  9 10  1  0
 10 11  2  0
 12 11  1  0
 13 12  2  0
 14 15  2  0
 16 21  2  0
 17 16  1  0
 18 17  2  0
 18 19  1  0
 19 20  2  0
 20 21  1  0
 20 14  1  0
  4 22  1  0
  5 23  1  0
  6 24  1  0
  9 25  1  0
 10 26  1  0
 12 27  1  0
 16 28  1  0
 17 29  1  0
 18 30  1  0
M  ISO  8  22  14  23  14  24  14  25  14  26  14  27  14  28  14  29  14
M  ISO  1  30  14
M  END
>  <minimizedAffinity>  (1) 
-5.03980637

>  <minimizedRMSD>  (1) 
0.913288593

$$$$
