
     RDKit          3D

 22 23  0  0  0  0  0  0  0  0999 V2000
   44.5050   35.9140   44.5330 C   0  0  0  0  0  0  0  0  0  0  0  0
   45.1920   35.7430   43.3220 C   0  0  0  0  0  0  0  0  0  0  0  0
   46.1120   34.6940   43.2300 C   0  0  0  0  0  0  0  0  0  0  0  0
   46.2920   33.8950   44.3250 N   0  0  0  0  0  0  0  0  0  0  0  0
   45.6070   34.0900   45.4860 C   0  0  0  0  0  0  0  0  0  0  0  0
   44.7250   35.0900   45.5820 N   0  0  0  0  0  0  0  0  0  0  0  0
   45.8870   33.1950   46.5330 N   0  0  0  0  0  0  0  0  0  0  0  0
   47.0200   32.3060   46.5990 C   0  0  0  0  0  0  0  0  0  0  0  0
   47.0100   31.7130   47.9880 C   0  0  0  0  0  0  0  0  0  0  0  0
   45.6400   31.9760   48.5540 C   0  0  0  0  0  0  0  0  0  0  0  0
   45.0410   33.0540   47.7110 C   0  0  0  0  0  0  0  0  0  0  0  0
   43.7756   36.7316   44.6307 H   0  0  0  0  0  0  0  0  0  0  0  0
   45.0122   36.4146   42.4696 H   0  0  0  0  0  0  0  0  0  0  0  0
   46.6755   34.5164   42.3022 H   0  0  0  0  0  0  0  0  0  0  0  0
   46.9255   31.5112   45.8444 H   0  0  0  0  0  0  0  0  0  0  0  0
   47.9605   32.8398   46.3978 H   0  0  0  0  0  0  0  0  0  0  0  0
   47.2005   30.6307   47.9407 H   0  0  0  0  0  0  0  0  0  0  0  0
   47.7935   32.1600   48.6175 H   0  0  0  0  0  0  0  0  0  0  0  0
   45.0249   31.0655   48.5026 H   0  0  0  0  0  0  0  0  0  0  0  0
   45.6937   32.2766   49.6108 H   0  0  0  0  0  0  0  0  0  0  0  0
   45.0134   34.0001   48.2714 H   0  0  0  0  0  0  0  0  0  0  0  0
   44.0096   32.8003   47.4248 H   0  0  0  0  0  0  0  0  0  0  0  0
  1  6  2  0
  2  1  1  0
  3  2  2  0
  3  4  1  0
  4  5  2  0
  5  6  1  0
  5  7  1  0
  7  8  1  0
  7 11  1  0
  8  9  1  0
  9 10  1  0
 11 10  1  0
  1 12  1  0
  2 13  1  0
  3 14  1  0
  8 15  1  0
  8 16  1  0
  9 17  1  0
  9 18  1  0
 10 19  1  0
 10 20  1  0
 11 21  1  0
 11 22  1  0
M  ISO  8  12  14  13  14  14  14  15  13  16  13  17  13  18  13  19  13
M  ISO  3  20  13  21  13  22  13
M  END
>  <minimizedAffinity>  (1) 
-4.27940512

>  <minimizedRMSD>  (1) 
0.53274107

$$$$
