
     RDKit          3D

 23 24  0  0  0  0  0  0  0  0999 V2000
   44.6930   31.2540   48.6680 Cl  0  0  0  0  0  0  0  0  0  0  0  0
   45.8750   30.9310   47.3900 C   0  0  0  0  0  0  0  0  0  0  0  0
   46.1860   31.8990   46.4990 C   0  0  0  0  0  0  0  0  0  0  0  0
   47.1200   31.5970   45.5440 C   0  0  0  0  0  0  0  0  0  0  0  0
   47.7210   30.3670   45.4820 C   0  0  0  0  0  0  0  0  0  0  0  0
   47.3940   29.3680   46.4060 C   0  0  0  0  0  0  0  0  0  0  0  0
   46.4480   29.6800   47.3730 C   0  0  0  0  0  0  0  0  0  0  0  0
   45.5300   33.1890   46.5660 C   0  0  0  0  0  0  0  0  0  0  0  0
   45.0110   33.4920   47.6780 O   0  0  0  0  0  0  0  0  0  0  0  0
   44.5970   36.0070   44.4870 C   0  0  0  0  0  0  0  0  0  0  0  0
   45.3080   35.8410   43.3060 C   0  0  0  0  0  0  0  0  0  0  0  0
   46.1220   34.7160   43.2500 C   0  0  0  0  0  0  0  0  0  0  0  0
   46.1720   33.8720   44.3230 N   0  0  0  0  0  0  0  0  0  0  0  0
   45.4640   34.0830   45.4370 C   0  0  0  0  0  0  0  0  0  0  0  0
   44.6790   35.1570   45.5070 N   0  0  0  0  0  0  0  0  0  0  0  0
   46.0970   28.7140   48.3100 O   0  0  0  0  0  0  0  0  0  0  0  0
   47.3958   32.3640   44.8053 H   0  0  0  0  0  0  0  0  0  0  0  0
   48.4667   30.1632   44.6994 H   0  0  0  0  0  0  0  0  0  0  0  0
   47.8674   28.3758   46.3676 H   0  0  0  0  0  0  0  0  0  0  0  0
   43.9360   36.8809   44.5836 H   0  0  0  0  0  0  0  0  0  0  0  0
   45.2321   36.5524   42.4705 H   0  0  0  0  0  0  0  0  0  0  0  0
   46.7200   34.5072   42.3507 H   0  0  0  0  0  0  0  0  0  0  0  0
   45.4240   28.9209   49.0060 H   0  0  0  0  0  0  0  0  0  0  0  0
  2  1  1  0
  3  8  1  0
  3  2  2  0
  4  3  1  0
  5  4  2  0
  5  6  1  0
  6  7  2  0
  7  2  1  0
  7 16  1  0
  8  9  2  0
 10 15  2  0
 11 10  1  0
 12 11  2  0
 12 13  1  0
 13 14  2  0
 14 15  1  0
 14  8  1  0
  4 17  1  0
  5 18  1  0
  6 19  1  0
 10 20  1  0
 11 21  1  0
 12 22  1  0
 16 23  1  0
M  ISO  7  17  14  18  14  19  14  20  14  21  14  22  14  23   3
M  END
>  <minimizedAffinity>  (1) 
-4.89401484

>  <minimizedRMSD>  (1) 
0.0565346777

$$$$
