
     RDKit          3D

 37 39  0  0  0  0  0  0  0  0999 V2000
   47.6870   30.8440   44.9090 Cl  0  0  0  0  0  0  0  0  0  0  0  0
   46.6820   31.8050   45.9800 C   0  0  0  0  0  0  0  0  0  0  0  0
   46.5420   31.4140   47.2880 C   0  0  0  0  0  0  0  0  0  0  0  0
   45.7680   32.1990   48.1050 C   0  0  0  0  0  0  0  0  0  0  0  0
   45.1520   33.3290   47.6480 C   0  0  0  0  0  0  0  0  0  0  0  0
   45.2990   33.7140   46.3260 C   0  0  0  0  0  0  0  0  0  0  0  0
   46.0800   32.9400   45.4670 C   0  0  0  0  0  0  0  0  0  0  0  0
   46.2650   33.2800   44.1230 N   0  0  0  0  0  0  0  0  0  0  0  0
   47.3810   34.0300   43.5320 C   0  0  0  0  0  0  0  0  0  0  0  0
   46.9410   34.6010   42.1990 C   0  0  0  0  0  0  0  0  0  0  0  0
   45.5360   35.1470   42.2200 C   0  0  0  0  0  0  0  0  0  0  0  0
   44.5450   34.0910   42.5710 C   0  0  0  0  0  0  0  0  0  0  0  0
   45.2990   32.8960   43.1230 C   0  0  0  0  0  0  0  0  0  0  0  0
   47.1750   30.1980   47.7530 C   0  0  0  0  0  0  0  0  0  0  0  0
   46.5260   29.1250   47.5880 O   0  0  0  0  0  0  0  0  0  0  0  0
   49.7960   30.7020   50.2060 C   0  0  0  0  0  0  0  0  0  0  0  0
   50.9550   30.2090   49.6190 C   0  0  0  0  0  0  0  0  0  0  0  0
   50.7910   29.6970   48.3410 C   0  0  0  0  0  0  0  0  0  0  0  0
   49.5530   29.7050   47.7560 N   0  0  0  0  0  0  0  0  0  0  0  0
   48.4750   30.1930   48.3740 C   0  0  0  0  0  0  0  0  0  0  0  0
   48.6140   30.6890   49.6010 N   0  0  0  0  0  0  0  0  0  0  0  0
   45.6400   31.9098   49.1585 H   0  0  0  0  0  0  0  0  0  0  0  0
   44.5381   33.9343   48.3312 H   0  0  0  0  0  0  0  0  0  0  0  0
   44.8036   34.6236   45.9556 H   0  0  0  0  0  0  0  0  0  0  0  0
   47.6727   34.8491   44.2058 H   0  0  0  0  0  0  0  0  0  0  0  0
   48.2412   33.3607   43.3837 H   0  0  0  0  0  0  0  0  0  0  0  0
   46.9948   33.8041   41.4427 H   0  0  0  0  0  0  0  0  0  0  0  0
   47.6135   35.4395   41.9653 H   0  0  0  0  0  0  0  0  0  0  0  0
   45.4773   35.9541   42.9650 H   0  0  0  0  0  0  0  0  0  0  0  0
   45.2971   35.5240   41.2146 H   0  0  0  0  0  0  0  0  0  0  0  0
   43.8468   34.4735   43.3301 H   0  0  0  0  0  0  0  0  0  0  0  0
   43.9706   33.7984   41.6796 H   0  0  0  0  0  0  0  0  0  0  0  0
   44.5778   32.1993   43.5753 H   0  0  0  0  0  0  0  0  0  0  0  0
   45.8416   32.4234   42.2910 H   0  0  0  0  0  0  0  0  0  0  0  0
   49.8607   31.1231   51.2201 H   0  0  0  0  0  0  0  0  0  0  0  0
   51.9291   30.2238   50.1297 H   0  0  0  0  0  0  0  0  0  0  0  0
   51.6542   29.2849   47.7978 H   0  0  0  0  0  0  0  0  0  0  0  0
  1  2  1  0
  2  3  2  0
  3 14  1  0
  3  4  1  0
  5  4  2  0
  6  5  1  0
  7  2  1  0
  7  6  2  0
  8  7  1  0
  9  8  1  0
 10 11  1  0
 10  9  1  0
 11 12  1  0
 12 13  1  0
 13  8  1  0
 14 20  1  0
 15 14  2  0
 17 16  2  0
 18 17  1  0
 19 18  2  0
 19 20  1  0
 20 21  2  0
 21 16  1  0
  4 22  1  0
  5 23  1  0
  6 24  1  0
  9 25  1  0
  9 26  1  0
 10 27  1  0
 10 28  1  0
 11 29  1  0
 11 30  1  0
 12 31  1  0
 12 32  1  0
 13 33  1  0
 13 34  1  0
 16 35  1  0
 17 36  1  0
 18 37  1  0
M  ISO  8  22  14  23  14  24  14  25  13  26  13  27  13  28  13  29  13
M  ISO  8  30  13  31  13  32  13  33  13  34  13  35  14  36  14  37  14
M  END
>  <minimizedAffinity>  (1) 
-4.79095745

>  <minimizedRMSD>  (1) 
6.87017727

$$$$
