
     RDKit          3D

 28 29  0  0  0  0  0  0  0  0999 V2000
   44.8620   34.7970   45.8610 Cl  0  0  0  0  0  0  0  0  0  0  0  0
   45.8500   33.3470   45.6280 C   0  0  0  0  0  0  0  0  0  0  0  0
   46.4860   33.1470   44.4510 C   0  0  0  0  0  0  0  0  0  0  0  0
   47.2490   32.0150   44.3270 C   0  0  0  0  0  0  0  0  0  0  0  0
   47.3700   31.1130   45.3510 C   0  0  0  0  0  0  0  0  0  0  0  0
   46.7010   31.3340   46.5760 C   0  0  0  0  0  0  0  0  0  0  0  0
   45.9250   32.4850   46.7020 C   0  0  0  0  0  0  0  0  0  0  0  0
   46.3340   34.1020   43.3730 C   0  0  0  0  0  0  0  0  0  0  0  0
   47.3360   34.8310   43.1190 O   0  0  0  0  0  0  0  0  0  0  0  0
   43.5900   35.6140   41.5390 C   0  0  0  0  0  0  0  0  0  0  0  0
   42.7870   34.5480   41.1580 C   0  0  0  0  0  0  0  0  0  0  0  0
   43.2220   33.2810   41.5570 C   0  0  0  0  0  0  0  0  0  0  0  0
   44.3740   33.1720   42.2750 N   0  0  0  0  0  0  0  0  0  0  0  0
   45.1160   34.2310   42.6200 C   0  0  0  0  0  0  0  0  0  0  0  0
   44.7040   35.4480   42.2400 N   0  0  0  0  0  0  0  0  0  0  0  0
   45.1910   32.7740   47.9740 C   0  0  0  0  0  0  0  0  0  0  0  0
   45.6100   31.8160   49.0730 C   0  0  0  0  0  0  0  0  0  0  0  0
   47.7777   31.8260   43.3811 H   0  0  0  0  0  0  0  0  0  0  0  0
   47.9899   30.2139   45.2193 H   0  0  0  0  0  0  0  0  0  0  0  0
   46.7901   30.6181   47.4064 H   0  0  0  0  0  0  0  0  0  0  0  0
   43.2922   36.6326   41.2495 H   0  0  0  0  0  0  0  0  0  0  0  0
   41.8640   34.6916   40.5771 H   0  0  0  0  0  0  0  0  0  0  0  0
   42.6417   32.3841   41.2946 H   0  0  0  0  0  0  0  0  0  0  0  0
   45.4121   33.8039   48.2909 H   0  0  0  0  0  0  0  0  0  0  0  0
   44.1132   32.6496   47.7927 H   0  0  0  0  0  0  0  0  0  0  0  0
   45.4102   32.2728   50.0535 H   0  0  0  0  0  0  0  0  0  0  0  0
   45.0389   30.8803   48.9812 H   0  0  0  0  0  0  0  0  0  0  0  0
   46.6847   31.6001   48.9812 H   0  0  0  0  0  0  0  0  0  0  0  0
  2  1  1  0
  2  7  2  0
  3  2  1  0
  4  3  2  0
  4  5  1  0
  5  6  2  0
  6  7  1  0
  7 16  1  0
  8  3  1  0
  9  8  2  0
 10 15  2  0
 11 10  1  0
 11 12  2  0
 12 13  1  0
 13 14  2  0
 14  8  1  0
 15 14  1  0
 16 17  1  0
  4 18  1  0
  5 19  1  0
  6 20  1  0
 10 21  1  0
 11 22  1  0
 12 23  1  0
 16 24  1  0
 16 25  1  0
 17 26  1  0
 17 27  1  0
 17 28  1  0
M  ISO  8  18  14  19  14  20  14  21  14  22  14  23  14  24   8  25   8
M  ISO  3  26   8  27   8  28   8
M  END
>  <minimizedAffinity>  (1) 
-4.61911964

>  <minimizedRMSD>  (1) 
3.30110955

$$$$
