
     RDKit          3D

 24 25  0  0  0  0  0  0  0  0999 V2000
   44.7180   30.6130   48.1420 Cl  0  0  0  0  0  0  0  0  0  0  0  0
   45.9600   30.4260   46.9020 C   0  0  0  0  0  0  0  0  0  0  0  0
   46.4360   31.5200   46.2510 C   0  0  0  0  0  0  0  0  0  0  0  0
   47.4070   31.3300   45.3040 C   0  0  0  0  0  0  0  0  0  0  0  0
   47.8880   30.0730   45.0170 C   0  0  0  0  0  0  0  0  0  0  0  0
   47.3890   28.9390   45.6960 C   0  0  0  0  0  0  0  0  0  0  0  0
   46.4030   29.1390   46.6570 C   0  0  0  0  0  0  0  0  0  0  0  0
   45.8560   28.0000   47.3870 C   0  0  0  0  0  0  0  0  0  0  0  0
   46.5820   26.9960   47.6100 O   0  0  0  0  0  0  0  0  0  0  0  0
   45.9100   32.8320   46.5610 C   0  0  0  0  0  0  0  0  0  0  0  0
   45.6920   33.0770   47.7830 O   0  0  0  0  0  0  0  0  0  0  0  0
   44.5210   35.7540   44.9150 C   0  0  0  0  0  0  0  0  0  0  0  0
   45.1000   35.7600   43.6500 C   0  0  0  0  0  0  0  0  0  0  0  0
   45.9900   34.7120   43.3840 C   0  0  0  0  0  0  0  0  0  0  0  0
   46.2260   33.7820   44.3450 N   0  0  0  0  0  0  0  0  0  0  0  0
   45.6430   33.8190   45.5490 C   0  0  0  0  0  0  0  0  0  0  0  0
   44.7890   34.8160   45.8180 N   0  0  0  0  0  0  0  0  0  0  0  0
   47.8100   32.1986   44.7626 H   0  0  0  0  0  0  0  0  0  0  0  0
   48.6684   29.9500   44.2516 H   0  0  0  0  0  0  0  0  0  0  0  0
   47.7677   27.9308   45.4722 H   0  0  0  0  0  0  0  0  0  0  0  0
   44.8146   28.0186   47.7406 H   0  0  0  0  0  0  0  0  0  0  0  0
   43.8150   36.5555   45.1778 H   0  0  0  0  0  0  0  0  0  0  0  0
   44.8732   36.5381   42.9063 H   0  0  0  0  0  0  0  0  0  0  0  0
   46.4922   34.6429   42.4078 H   0  0  0  0  0  0  0  0  0  0  0  0
  2  1  1  0
  3 10  1  0
  3  2  2  0
  4  3  1  0
  5  4  2  0
  5  6  1  0
  6  7  2  0
  7  2  1  0
  7  8  1  0
  8  9  2  0
 10 11  2  0
 12 17  2  0
 13 12  1  0
 14 13  2  0
 14 15  1  0
 15 16  2  0
 16 17  1  0
 16 10  1  0
  4 18  1  0
  5 19  1  0
  6 20  1  0
  8 21  1  0
 12 22  1  0
 13 23  1  0
 14 24  1  0
M  ISO  7  18  14  19  14  20  14  21   6  22  14  23  14  24  14
M  END
>  <minimizedAffinity>  (1) 
-4.22627544

>  <minimizedRMSD>  (1) 
0.709937572

$$$$
