
     RDKit          3D

 23 24  0  0  0  0  0  0  0  0999 V2000
   44.8560   30.7660   48.0110 Cl  0  0  0  0  0  0  0  0  0  0  0  0
   46.0090   30.1480   46.8230 C   0  0  0  0  0  0  0  0  0  0  0  0
   46.8920   30.9890   46.2370 C   0  0  0  0  0  0  0  0  0  0  0  0
   47.7740   30.4550   45.3350 C   0  0  0  0  0  0  0  0  0  0  0  0
   47.7720   29.1200   45.0250 C   0  0  0  0  0  0  0  0  0  0  0  0
   46.8470   28.2490   45.6380 C   0  0  0  0  0  0  0  0  0  0  0  0
   45.9580   28.7980   46.5540 C   0  0  0  0  0  0  0  0  0  0  0  0
   46.8760   32.4010   46.5600 C   0  0  0  0  0  0  0  0  0  0  0  0
   47.4200   32.7280   47.6560 O   0  0  0  0  0  0  0  0  0  0  0  0
   44.7070   35.0570   45.3880 C   0  0  0  0  0  0  0  0  0  0  0  0
   45.0930   35.3060   44.0770 C   0  0  0  0  0  0  0  0  0  0  0  0
   46.1360   34.5120   43.6140 C   0  0  0  0  0  0  0  0  0  0  0  0
   46.6960   33.5760   44.4420 N   0  0  0  0  0  0  0  0  0  0  0  0
   46.2770   33.3870   45.6970 C   0  0  0  0  0  0  0  0  0  0  0  0
   45.2770   34.1380   46.1600 N   0  0  0  0  0  0  0  0  0  0  0  0
   44.7660   27.7460   47.3630 S   0  0  0  0  0  0  0  0  0  0  0  0
   48.5043   31.1163   44.8458 H   0  0  0  0  0  0  0  0  0  0  0  0
   48.4946   28.7261   44.2952 H   0  0  0  0  0  0  0  0  0  0  0  0
   46.8301   27.1752   45.3997 H   0  0  0  0  0  0  0  0  0  0  0  0
   43.8845   35.6532   45.8100 H   0  0  0  0  0  0  0  0  0  0  0  0
   44.6104   36.0727   43.4531 H   0  0  0  0  0  0  0  0  0  0  0  0
   46.5099   34.6351   42.5868 H   0  0  0  0  0  0  0  0  0  0  0  0
   44.9000   27.8643   48.7213 H   0  0  0  0  0  0  0  0  0  0  0  0
  2  1  1  0
  3  8  1  0
  3  2  2  0
  4  3  1  0
  5  4  2  0
  5  6  1  0
  6  7  2  0
  7  2  1  0
  7 16  1  0
  8  9  2  0
 10 15  2  0
 11 10  1  0
 12 11  2  0
 12 13  1  0
 13 14  2  0
 14 15  1  0
 14  8  1  0
  4 17  1  0
  5 18  1  0
  6 19  1  0
 10 20  1  0
 11 21  1  0
 12 22  1  0
 16 23  1  0
M  ISO  7  17  14  18  14  19  14  20  14  21  14  22  14  23  11
M  END
>  <minimizedAffinity>  (1) 
-4.10284901

>  <minimizedRMSD>  (1) 
1.341241

$$$$
