
     RDKit          3D

 39 42  0  0  0  0  0  0  0  0999 V2000
   46.8660   32.3510   46.6030 C   0  0  0  0  0  0  0  0  0  0  0  0
   47.3370   32.6610   47.7280 O   0  0  0  0  0  0  0  0  0  0  0  0
   44.8270   30.6680   47.9510 Cl  0  0  0  0  0  0  0  0  0  0  0  0
   46.0080   30.0800   46.7770 C   0  0  0  0  0  0  0  0  0  0  0  0
   46.9230   30.9400   46.2230 C   0  0  0  0  0  0  0  0  0  0  0  0
   47.8250   30.4350   45.3370 C   0  0  0  0  0  0  0  0  0  0  0  0
   47.8200   29.1050   45.0070 C   0  0  0  0  0  0  0  0  0  0  0  0
   46.8990   28.2240   45.5610 C   0  0  0  0  0  0  0  0  0  0  0  0
   45.9840   28.7550   46.4630 C   0  0  0  0  0  0  0  0  0  0  0  0
   45.0470   27.7550   46.9840 C   0  0  0  0  0  0  0  0  0  0  0  0
   43.9080   27.2160   46.4030 C   0  0  0  0  0  0  0  0  0  0  0  0
   43.2940   26.2950   47.2190 C   0  0  0  0  0  0  0  0  0  0  0  0
   44.1270   26.3090   48.3260 C   0  0  0  0  0  0  0  0  0  0  0  0
   45.0970   27.1470   48.1410 O   0  0  0  0  0  0  0  0  0  0  0  0
   44.7420   35.0080   45.3750 C   0  0  0  0  0  0  0  0  0  0  0  0
   45.1750   35.2510   44.0570 C   0  0  0  0  0  0  0  0  0  0  0  0
   46.2130   34.4670   43.6220 C   0  0  0  0  0  0  0  0  0  0  0  0
   46.7280   33.5420   44.4790 N   0  0  0  0  0  0  0  0  0  0  0  0
   46.2910   33.3390   45.7240 C   0  0  0  0  0  0  0  0  0  0  0  0
   45.2880   34.0910   46.1530 N   0  0  0  0  0  0  0  0  0  0  0  0
   45.3520   33.0810   41.2250 F   0  0  0  0  0  0  0  0  0  0  0  0
   46.4510   33.8620   41.1800 C   0  0  0  0  0  0  0  0  0  0  0  0
   46.8470   34.5100   42.3180 C   0  0  0  0  0  0  0  0  0  0  0  0
   47.9800   35.2690   42.1230 C   0  0  0  0  0  0  0  0  0  0  0  0
   48.6460   35.3670   40.9210 C   0  0  0  0  0  0  0  0  0  0  0  0
   48.2020   34.6970   39.8210 C   0  0  0  0  0  0  0  0  0  0  0  0
   47.0720   33.9210   39.9540 C   0  0  0  0  0  0  0  0  0  0  0  0
   48.5685   31.1042   44.8795 H   0  0  0  0  0  0  0  0  0  0  0  0
   48.5612   28.7264   44.2878 H   0  0  0  0  0  0  0  0  0  0  0  0
   46.8942   27.1559   45.2980 H   0  0  0  0  0  0  0  0  0  0  0  0
   43.5387   27.4935   45.4047 H   0  0  0  0  0  0  0  0  0  0  0  0
   42.3835   25.7042   47.0403 H   0  0  0  0  0  0  0  0  0  0  0  0
   43.9853   25.6979   49.2296 H   0  0  0  0  0  0  0  0  0  0  0  0
   43.9117   35.6090   45.7743 H   0  0  0  0  0  0  0  0  0  0  0  0
   44.7117   36.0182   43.4192 H   0  0  0  0  0  0  0  0  0  0  0  0
   48.3777   35.8318   42.9804 H   0  0  0  0  0  0  0  0  0  0  0  0
   49.5471   35.9937   40.8486 H   0  0  0  0  0  0  0  0  0  0  0  0
   48.7287   34.7733   38.8583 H   0  0  0  0  0  0  0  0  0  0  0  0
   46.6737   33.3592   39.0963 H   0  0  0  0  0  0  0  0  0  0  0  0
  1  2  2  0
  4  3  1  0
  5  1  1  0
  5  4  2  0
  6  5  1  0
  7  6  2  0
  7  8  1  0
  8  9  2  0
  9  4  1  0
  9 10  1  0
 10 14  1  0
 11 10  2  0
 11 12  1  0
 12 13  2  0
 14 13  1  0
 15 20  2  0
 16 15  1  0
 17 16  2  0
 17 18  1  0
 18 19  2  0
 19 20  1  0
 19  1  1  0
 22 21  1  0
 22 23  2  0
 23 17  1  0
 24 23  1  0
 25 24  2  0
 26 27  2  0
 26 25  1  0
 27 22  1  0
  6 28  1  0
  7 29  1  0
  8 30  1  0
 11 31  1  0
 12 32  1  0
 13 33  1  0
 15 34  1  0
 16 35  1  0
 24 36  1  0
 25 37  1  0
 26 38  1  0
 27 39  1  0
M  ISO  8  28  14  29  14  30  14  31  14  32  14  33  14  34  14  35  14
M  ISO  4  36  14  37  14  38  14  39  14
M  END
>  <minimizedAffinity>  (1) 
-6.69649982

>  <minimizedRMSD>  (1) 
0.665234506

$$$$
