
     RDKit          3D

 44 47  0  0  0  0  0  0  0  0999 V2000
   44.7460   30.4180   48.0180 Cl  0  0  0  0  0  0  0  0  0  0  0  0
   46.1340   29.7140   47.1810 C   0  0  0  0  0  0  0  0  0  0  0  0
   47.1790   30.5210   46.7910 C   0  0  0  0  0  0  0  0  0  0  0  0
   48.2360   29.9380   46.1570 C   0  0  0  0  0  0  0  0  0  0  0  0
   48.2510   28.5860   45.9170 C   0  0  0  0  0  0  0  0  0  0  0  0
   47.2040   27.7760   46.3070 C   0  0  0  0  0  0  0  0  0  0  0  0
   46.1400   28.3750   46.9490 C   0  0  0  0  0  0  0  0  0  0  0  0
   45.0740   27.4320   47.3190 C   0  0  0  0  0  0  0  0  0  0  0  0
   43.9900   26.9810   46.5830 C   0  0  0  0  0  0  0  0  0  0  0  0
   43.2150   26.0910   47.2950 C   0  0  0  0  0  0  0  0  0  0  0  0
   43.8950   26.0340   48.5010 C   0  0  0  0  0  0  0  0  0  0  0  0
   44.9280   26.8050   48.4560 O   0  0  0  0  0  0  0  0  0  0  0  0
   47.1000   31.9550   47.0680 C   0  0  0  0  0  0  0  0  0  0  0  0
   47.4430   32.3470   48.2050 O   0  0  0  0  0  0  0  0  0  0  0  0
   45.0510   34.4160   45.3630 C   0  0  0  0  0  0  0  0  0  0  0  0
   45.6790   34.6440   44.1240 C   0  0  0  0  0  0  0  0  0  0  0  0
   46.8250   33.9130   43.9240 C   0  0  0  0  0  0  0  0  0  0  0  0
   47.2650   33.0520   44.8870 N   0  0  0  0  0  0  0  0  0  0  0  0
   46.6380   32.8680   46.0420 C   0  0  0  0  0  0  0  0  0  0  0  0
   45.5120   33.5670   46.2760 N   0  0  0  0  0  0  0  0  0  0  0  0
   47.6060   33.9950   42.7440 N   0  0  0  0  0  0  0  0  0  0  0  0
   49.0300   33.7490   42.6660 C   0  0  0  0  0  0  0  0  0  0  0  0
   49.6660   35.1290   42.4720 C   0  0  0  0  0  0  0  0  0  0  0  0
   49.0580   35.7650   41.2530 C   0  0  0  0  0  0  0  0  0  0  0  0
   48.1140   34.8490   40.5170 C   0  0  0  0  0  0  0  0  0  0  0  0
   47.0430   34.3470   41.4570 C   0  0  0  0  0  0  0  0  0  0  0  0
   49.0859   30.5573   45.8343 H   0  0  0  0  0  0  0  0  0  0  0  0
   49.1152   28.1395   45.4034 H   0  0  0  0  0  0  0  0  0  0  0  0
   47.2174   26.6933   46.1132 H   0  0  0  0  0  0  0  0  0  0  0  0
   43.7734   27.2963   45.5516 H   0  0  0  0  0  0  0  0  0  0  0  0
   42.2991   25.5652   46.9873 H   0  0  0  0  0  0  0  0  0  0  0  0
   43.5985   25.4232   49.3664 H   0  0  0  0  0  0  0  0  0  0  0  0
   44.1282   34.9708   45.5880 H   0  0  0  0  0  0  0  0  0  0  0  0
   45.2848   35.3492   43.3775 H   0  0  0  0  0  0  0  0  0  0  0  0
   49.3926   33.2843   43.5947 H   0  0  0  0  0  0  0  0  0  0  0  0
   49.2840   33.0604   41.8466 H   0  0  0  0  0  0  0  0  0  0  0  0
   49.4702   35.7556   43.3546 H   0  0  0  0  0  0  0  0  0  0  0  0
   50.7538   35.0289   42.3431 H   0  0  0  0  0  0  0  0  0  0  0  0
   48.5030   36.6617   41.5659 H   0  0  0  0  0  0  0  0  0  0  0  0
   49.8810   36.0093   40.5653 H   0  0  0  0  0  0  0  0  0  0  0  0
   47.6433   35.3998   39.6893 H   0  0  0  0  0  0  0  0  0  0  0  0
   48.6781   33.9915   40.1214 H   0  0  0  0  0  0  0  0  0  0  0  0
   46.2892   35.1357   41.5976 H   0  0  0  0  0  0  0  0  0  0  0  0
   46.5837   33.4491   41.0178 H   0  0  0  0  0  0  0  0  0  0  0  0
  2  1  1  0
  3 13  1  0
  3  2  2  0
  4  3  1  0
  5  4  2  0
  5  6  1  0
  6  7  2  0
  7  2  1  0
  7  8  1  0
  8 12  1  0
  9 10  1  0
  9  8  2  0
 10 11  2  0
 12 11  1  0
 13 14  2  0
 15 20  2  0
 16 15  1  0
 17 16  2  0
 17 18  1  0
 18 19  2  0
 19 20  1  0
 19 13  1  0
 21 17  1  0
 22 21  1  0
 23 22  1  0
 24 23  1  0
 25 24  1  0
 25 26  1  0
 26 21  1  0
  4 27  1  0
  5 28  1  0
  6 29  1  0
  9 30  1  0
 10 31  1  0
 11 32  1  0
 15 33  1  0
 16 34  1  0
 22 35  1  0
 22 36  1  0
 23 37  1  0
 23 38  1  0
 24 39  1  0
 24 40  1  0
 25 41  1  0
 25 42  1  0
 26 43  1  0
 26 44  1  0
M  ISO  8  27  14  28  14  29  14  30  14  31  14  32  14  33  14  34  14
M  ISO  8  35  13  36  13  37  13  38  13  39  13  40  13  41  13  42  13
M  ISO  2  43  13  44  13
M  END
>  <minimizedAffinity>  (1) 
-6.54614353

>  <minimizedRMSD>  (1) 
0.978235424

$$$$
