
     RDKit          3D

 38 41  0  0  0  0  0  0  0  0999 V2000
   44.8400   30.6220   48.0020 Cl  0  0  0  0  0  0  0  0  0  0  0  0
   46.0220   29.9990   46.8460 C   0  0  0  0  0  0  0  0  0  0  0  0
   46.9550   30.8510   46.2940 C   0  0  0  0  0  0  0  0  0  0  0  0
   47.8530   30.3290   45.4150 C   0  0  0  0  0  0  0  0  0  0  0  0
   47.8280   28.9930   45.0880 C   0  0  0  0  0  0  0  0  0  0  0  0
   46.8900   28.1380   45.6410 C   0  0  0  0  0  0  0  0  0  0  0  0
   45.9750   28.6730   46.5370 C   0  0  0  0  0  0  0  0  0  0  0  0
   45.0280   27.6930   47.0590 C   0  0  0  0  0  0  0  0  0  0  0  0
   43.9020   27.1450   46.4640 C   0  0  0  0  0  0  0  0  0  0  0  0
   43.2650   26.2430   47.2920 C   0  0  0  0  0  0  0  0  0  0  0  0
   44.0730   26.2820   48.4160 C   0  0  0  0  0  0  0  0  0  0  0  0
   45.0500   27.1170   48.2250 O   0  0  0  0  0  0  0  0  0  0  0  0
   46.9280   32.2630   46.6740 C   0  0  0  0  0  0  0  0  0  0  0  0
   47.4040   32.5750   47.7860 O   0  0  0  0  0  0  0  0  0  0  0  0
   44.7840   34.9070   45.4140 C   0  0  0  0  0  0  0  0  0  0  0  0
   45.2090   35.1540   44.1020 C   0  0  0  0  0  0  0  0  0  0  0  0
   46.2610   34.3700   43.6840 C   0  0  0  0  0  0  0  0  0  0  0  0
   46.8010   33.4430   44.5290 N   0  0  0  0  0  0  0  0  0  0  0  0
   46.3600   33.2460   45.7680 C   0  0  0  0  0  0  0  0  0  0  0  0
   45.3420   33.9920   46.2000 N   0  0  0  0  0  0  0  0  0  0  0  0
   46.8790   34.4380   42.3630 C   0  0  0  0  0  0  0  0  0  0  0  0
   47.9820   35.2270   42.1000 C   0  0  0  0  0  0  0  0  0  0  0  0
   48.6120   35.3350   40.8780 C   0  0  0  0  0  0  0  0  0  0  0  0
   48.1120   34.6010   39.8220 C   0  0  0  0  0  0  0  0  0  0  0  0
   47.0110   33.8160   40.0910 C   0  0  0  0  0  0  0  0  0  0  0  0
   46.4490   33.7530   41.2870 N   0  0  0  0  0  0  0  0  0  0  0  0
   48.6097   30.9846   44.9594 H   0  0  0  0  0  0  0  0  0  0  0  0
   48.5660   28.5972   44.3748 H   0  0  0  0  0  0  0  0  0  0  0  0
   46.8706   27.0699   45.3789 H   0  0  0  0  0  0  0  0  0  0  0  0
   43.5568   27.3992   45.4510 H   0  0  0  0  0  0  0  0  0  0  0  0
   42.3567   25.6505   47.1080 H   0  0  0  0  0  0  0  0  0  0  0  0
   43.9120   25.6948   49.3321 H   0  0  0  0  0  0  0  0  0  0  0  0
   43.9475   35.4994   45.8131 H   0  0  0  0  0  0  0  0  0  0  0  0
   44.7403   35.9127   43.4581 H   0  0  0  0  0  0  0  0  0  0  0  0
   48.3911   35.8172   42.9332 H   0  0  0  0  0  0  0  0  0  0  0  0
   49.4880   35.9876   40.7488 H   0  0  0  0  0  0  0  0  0  0  0  0
   48.5666   34.6400   38.8211 H   0  0  0  0  0  0  0  0  0  0  0  0
   46.5811   33.2158   39.2756 H   0  0  0  0  0  0  0  0  0  0  0  0
  2  1  1  0
  3 13  1  0
  3  2  2  0
  4  3  1  0
  5  4  2  0
  5  6  1  0
  6  7  2  0
  7  2  1  0
  7  8  1  0
  8 12  1  0
  9  8  2  0
  9 10  1  0
 10 11  2  0
 12 11  1  0
 13 14  2  0
 15 20  2  0
 16 15  1  0
 17 16  2  0
 17 18  1  0
 18 19  2  0
 19 20  1  0
 19 13  1  0
 21 17  1  0
 22 21  2  0
 23 22  1  0
 24 25  1  0
 24 23  2  0
 25 26  2  0
 26 21  1  0
  4 27  1  0
  5 28  1  0
  6 29  1  0
  9 30  1  0
 10 31  1  0
 11 32  1  0
 15 33  1  0
 16 34  1  0
 22 35  1  0
 23 36  1  0
 24 37  1  0
 25 38  1  0
M  ISO  8  27  14  28  14  29  14  30  14  31  14  32  14  33  14  34  14
M  ISO  4  35  14  36  14  37  14  38  14
M  END
>  <minimizedAffinity>  (1) 
-6.41402197

>  <minimizedRMSD>  (1) 
0.238804519

$$$$
