
     RDKit          3D

 37 39  0  0  0  0  0  0  0  0999 V2000
   44.8950   30.7180   47.7810 Cl  0  0  0  0  0  0  0  0  0  0  0  0
   46.0370   30.0970   46.5850 C   0  0  0  0  0  0  0  0  0  0  0  0
   46.9390   30.9480   45.9860 C   0  0  0  0  0  0  0  0  0  0  0  0
   47.8080   30.4200   45.0820 C   0  0  0  0  0  0  0  0  0  0  0  0
   47.7850   29.0810   44.7780 C   0  0  0  0  0  0  0  0  0  0  0  0
   46.8820   28.2250   45.3760 C   0  0  0  0  0  0  0  0  0  0  0  0
   45.9970   28.7650   46.2970 C   0  0  0  0  0  0  0  0  0  0  0  0
   45.0760   27.7800   46.8690 C   0  0  0  0  0  0  0  0  0  0  0  0
   43.9140   27.2380   46.3420 C   0  0  0  0  0  0  0  0  0  0  0  0
   43.3290   26.3360   47.1990 C   0  0  0  0  0  0  0  0  0  0  0  0
   44.2020   26.3610   48.2720 C   0  0  0  0  0  0  0  0  0  0  0  0
   45.1660   27.1920   48.0300 O   0  0  0  0  0  0  0  0  0  0  0  0
   46.9010   32.3650   46.3460 C   0  0  0  0  0  0  0  0  0  0  0  0
   47.3160   32.6780   47.4900 O   0  0  0  0  0  0  0  0  0  0  0  0
   44.8650   35.0040   44.9160 C   0  0  0  0  0  0  0  0  0  0  0  0
   45.4160   35.2590   43.6610 C   0  0  0  0  0  0  0  0  0  0  0  0
   46.5070   34.4910   43.3310 C   0  0  0  0  0  0  0  0  0  0  0  0
   46.9610   33.5600   44.2290 N   0  0  0  0  0  0  0  0  0  0  0  0
   46.4010   33.3600   45.4050 C   0  0  0  0  0  0  0  0  0  0  0  0
   45.3430   34.0910   45.7470 N   0  0  0  0  0  0  0  0  0  0  0  0
   47.2080   34.5830   42.1260 N   0  0  0  0  0  0  0  0  0  0  0  0
   48.8690   34.8120   41.7750 S   0  0  0  0  0  0  0  0  0  0  0  0
   49.0430   36.1390   41.0830 O   0  0  0  0  0  0  0  0  0  0  0  0
   49.7130   34.7110   42.9950 O   0  0  0  0  0  0  0  0  0  0  0  0
   49.2960   33.5720   40.6920 O   0  0  0  0  0  0  0  0  0  0  0  0
   48.5399   31.0754   44.5873 H   0  0  0  0  0  0  0  0  0  0  0  0
   48.5003   28.6826   44.0434 H   0  0  0  0  0  0  0  0  0  0  0  0
   46.8651   27.1528   45.1307 H   0  0  0  0  0  0  0  0  0  0  0  0
   43.5075   27.4991   45.3537 H   0  0  0  0  0  0  0  0  0  0  0  0
   42.4085   25.7486   47.0664 H   0  0  0  0  0  0  0  0  0  0  0  0
   44.0940   25.7659   49.1908 H   0  0  0  0  0  0  0  0  0  0  0  0
   43.9895   35.5906   45.2314 H   0  0  0  0  0  0  0  0  0  0  0  0
   45.0062   36.0216   42.9823 H   0  0  0  0  0  0  0  0  0  0  0  0
   46.6130   34.4967   41.2897 H   0  0  0  0  0  0  0  0  0  0  0  0
   49.1368   36.8547   41.7605 H   0  0  0  0  0  0  0  0  0  0  0  0
   49.1399   34.7796   43.7993 H   0  0  0  0  0  0  0  0  0  0  0  0
   49.5724   32.7695   41.2016 H   0  0  0  0  0  0  0  0  0  0  0  0
  2  1  1  0
  3 13  1  0
  3  2  2  0
  4  3  1  0
  5  4  2  0
  5  6  1  0
  6  7  2  0
  7  2  1  0
  7  8  1  0
  8 12  1  0
  9  8  2  0
  9 10  1  0
 10 11  2  0
 12 11  1  0
 13 14  2  0
 15 20  2  0
 16 15  1  0
 17 16  2  0
 17 18  1  0
 18 19  2  0
 19 20  1  0
 19 13  1  0
 21 17  1  0
 22 21  1  0
 22 24  1  0
 23 22  1  0
 25 22  1  0
  4 26  1  0
  5 27  1  0
  6 28  1  0
  9 29  1  0
 10 30  1  0
 11 31  1  0
 15 32  1  0
 16 33  1  0
 21 34  1  0
 23 35  1  0
 24 36  1  0
 25 37  1  0
M  ISO  8  26  14  27  14  28  14  29  14  30  14  31  14  32  14  33  14
M  ISO  3  35   3  36   3  37   3
M  END
>  <minimizedAffinity>  (1) 
-5.70459652

>  <minimizedRMSD>  (1) 
0.599799037

$$$$
