
     RDKit          3D

 36 39  0  0  0  0  0  0  0  0999 V2000
   44.7620   30.5010   47.9550 Cl  0  0  0  0  0  0  0  0  0  0  0  0
   46.0730   29.8190   46.9870 C   0  0  0  0  0  0  0  0  0  0  0  0
   47.0560   30.6460   46.4900 C   0  0  0  0  0  0  0  0  0  0  0  0
   48.0470   30.0730   45.7540 C   0  0  0  0  0  0  0  0  0  0  0  0
   48.0650   28.7170   45.5140 C   0  0  0  0  0  0  0  0  0  0  0  0
   47.0720   27.8940   46.0190 C   0  0  0  0  0  0  0  0  0  0  0  0
   46.0590   28.4760   46.7700 C   0  0  0  0  0  0  0  0  0  0  0  0
   45.0670   27.5220   47.2490 C   0  0  0  0  0  0  0  0  0  0  0  0
   43.9790   26.9710   46.5900 C   0  0  0  0  0  0  0  0  0  0  0  0
   43.2770   26.1010   47.3900 C   0  0  0  0  0  0  0  0  0  0  0  0
   43.9960   26.1550   48.5670 C   0  0  0  0  0  0  0  0  0  0  0  0
   44.9960   26.9710   48.4330 O   0  0  0  0  0  0  0  0  0  0  0  0
   46.9840   32.0760   46.7720 C   0  0  0  0  0  0  0  0  0  0  0  0
   47.2560   32.4570   47.9320 O   0  0  0  0  0  0  0  0  0  0  0  0
   45.1150   34.6190   44.9720 C   0  0  0  0  0  0  0  0  0  0  0  0
   45.7840   34.8010   43.7600 C   0  0  0  0  0  0  0  0  0  0  0  0
   46.9080   34.0110   43.5870 C   0  0  0  0  0  0  0  0  0  0  0  0
   47.2770   33.1340   44.5790 N   0  0  0  0  0  0  0  0  0  0  0  0
   46.6030   33.0030   45.7130 C   0  0  0  0  0  0  0  0  0  0  0  0
   45.5110   33.7590   45.9000 N   0  0  0  0  0  0  0  0  0  0  0  0
   47.7630   34.0340   42.3940 C   0  0  0  0  0  0  0  0  0  0  0  0
   49.1460   34.7050   42.6270 C   0  0  0  0  0  0  0  0  0  0  0  0
   48.1270   35.2800   41.7130 C   0  0  0  0  0  0  0  0  0  0  0  0
   48.8484   30.7046   45.3432 H   0  0  0  0  0  0  0  0  0  0  0  0
   48.8779   28.2822   44.9139 H   0  0  0  0  0  0  0  0  0  0  0  0
   47.0853   26.8103   45.8306 H   0  0  0  0  0  0  0  0  0  0  0  0
   43.7091   27.2027   45.5491 H   0  0  0  0  0  0  0  0  0  0  0  0
   42.3768   25.5146   47.1537 H   0  0  0  0  0  0  0  0  0  0  0  0
   43.7573   25.5912   49.4809 H   0  0  0  0  0  0  0  0  0  0  0  0
   44.2141   35.2194   45.1666 H   0  0  0  0  0  0  0  0  0  0  0  0
   45.4434   35.5187   42.9991 H   0  0  0  0  0  0  0  0  0  0  0  0
   47.3472   33.0863   42.0212 H   0  0  0  0  0  0  0  0  0  0  0  0
   49.3728   35.1941   43.5858 H   0  0  0  0  0  0  0  0  0  0  0  0
   50.1989   34.3973   42.5454 H   0  0  0  0  0  0  0  0  0  0  0  0
   48.3077   35.2692   40.6280 H   0  0  0  0  0  0  0  0  0  0  0  0
   47.6497   36.2683   41.6387 H   0  0  0  0  0  0  0  0  0  0  0  0
  2  1  1  0
  3 13  1  0
  3  2  2  0
  4  3  1  0
  5  4  2  0
  5  6  1  0
  6  7  2  0
  7  2  1  0
  7  8  1  0
  8 12  1  0
  9  8  2  0
  9 10  1  0
 10 11  2  0
 12 11  1  0
 13 14  2  0
 15 20  2  0
 16 15  1  0
 17 16  2  0
 17 18  1  0
 18 19  2  0
 19 20  1  0
 19 13  1  0
 21 22  1  0
 21 17  1  0
 23 21  1  0
 23 22  1  0
  4 24  1  0
  5 25  1  0
  6 26  1  0
  9 27  1  0
 10 28  1  0
 11 29  1  0
 15 30  1  0
 16 31  1  0
 21 32  1  0
 22 33  1  0
 22 34  1  0
 23 35  1  0
 23 36  1  0
M  ISO  8  24  14  25  14  26  14  27  14  28  14  29  14  30  14  31  14
M  ISO  5  32  13  33  13  34  13  35  13  36  13
M  END
>  <minimizedAffinity>  (1) 
-5.51287127

>  <minimizedRMSD>  (1) 
0.493141979

$$$$
