
     RDKit          3D

 30 32  0  0  0  0  0  0  0  0999 V2000
   44.8780   30.6150   48.0780 Cl  0  0  0  0  0  0  0  0  0  0  0  0
   45.9940   30.0330   46.8380 C   0  0  0  0  0  0  0  0  0  0  0  0
   46.8900   30.9070   46.2650 C   0  0  0  0  0  0  0  0  0  0  0  0
   47.7350   30.4100   45.3190 C   0  0  0  0  0  0  0  0  0  0  0  0
   47.6930   29.0840   44.9520 C   0  0  0  0  0  0  0  0  0  0  0  0
   46.7900   28.2110   45.5300 C   0  0  0  0  0  0  0  0  0  0  0  0
   45.9240   28.7230   46.5020 C   0  0  0  0  0  0  0  0  0  0  0  0
   45.0090   27.7190   47.0460 C   0  0  0  0  0  0  0  0  0  0  0  0
   43.8910   27.1400   46.4690 C   0  0  0  0  0  0  0  0  0  0  0  0
   43.2950   26.2300   47.3150 C   0  0  0  0  0  0  0  0  0  0  0  0
   44.1120   26.2960   48.4220 C   0  0  0  0  0  0  0  0  0  0  0  0
   45.0620   27.1510   48.2160 O   0  0  0  0  0  0  0  0  0  0  0  0
   46.8860   32.3030   46.6890 C   0  0  0  0  0  0  0  0  0  0  0  0
   47.4440   32.5840   47.7730 O   0  0  0  0  0  0  0  0  0  0  0  0
   44.6370   34.9690   45.6850 C   0  0  0  0  0  0  0  0  0  0  0  0
   44.9590   35.2630   44.3530 C   0  0  0  0  0  0  0  0  0  0  0  0
   45.9840   34.5030   43.8180 C   0  0  0  0  0  0  0  0  0  0  0  0
   46.5920   33.5470   44.6040 N   0  0  0  0  0  0  0  0  0  0  0  0
   46.2460   33.3120   45.8590 C   0  0  0  0  0  0  0  0  0  0  0  0
   45.2540   34.0410   46.3880 N   0  0  0  0  0  0  0  0  0  0  0  0
   46.6400   34.6200   42.1540 S   0  0  0  0  0  0  0  0  0  0  0  0
   48.4638   31.0803   44.8399 H   0  0  0  0  0  0  0  0  0  0  0  0
   48.3896   28.7126   44.1859 H   0  0  0  0  0  0  0  0  0  0  0  0
   46.7538   27.1516   45.2360 H   0  0  0  0  0  0  0  0  0  0  0  0
   43.5239   27.3773   45.4596 H   0  0  0  0  0  0  0  0  0  0  0  0
   42.4002   25.6121   47.1494 H   0  0  0  0  0  0  0  0  0  0  0  0
   43.9774   25.7100   49.3431 H   0  0  0  0  0  0  0  0  0  0  0  0
   43.8301   35.5407   46.1668 H   0  0  0  0  0  0  0  0  0  0  0  0
   44.4359   36.0399   43.7760 H   0  0  0  0  0  0  0  0  0  0  0  0
   47.9876   34.8603   42.2102 H   0  0  0  0  0  0  0  0  0  0  0  0
  2  1  1  0
  3 13  1  0
  3  2  2  0
  4  3  1  0
  5  4  2  0
  5  6  1  0
  6  7  2  0
  7  2  1  0
  7  8  1  0
  8 12  1  0
  9  8  2  0
  9 10  1  0
 10 11  2  0
 12 11  1  0
 13 14  2  0
 15 20  2  0
 16 15  1  0
 17 16  2  0
 17 18  1  0
 18 19  2  0
 19 20  1  0
 19 13  1  0
 21 17  1  0
  4 22  1  0
  5 23  1  0
  6 24  1  0
  9 25  1  0
 10 26  1  0
 11 27  1  0
 15 28  1  0
 16 29  1  0
 21 30  1  0
M  ISO  8  22  14  23  14  24  14  25  14  26  14  27  14  28  14  29  14
M  ISO  1  30  11
M  END
>  <minimizedAffinity>  (1) 
-4.96032333

>  <minimizedRMSD>  (1) 
0.356090456

$$$$
