
     RDKit          3D

 17 17  0  0  0  0  0  0  0  0999 V2000
   44.5620   35.7070   44.7820 C   0  0  0  0  0  0  0  0  0  0  0  0
   45.2520   35.6120   43.5460 C   0  0  0  0  0  0  0  0  0  0  0  0
   46.1780   34.5780   43.4120 C   0  0  0  0  0  0  0  0  0  0  0  0
   46.3760   33.7210   44.4560 N   0  0  0  0  0  0  0  0  0  0  0  0
   45.6910   33.8540   45.6210 C   0  0  0  0  0  0  0  0  0  0  0  0
   44.7970   34.8340   45.7820 N   0  0  0  0  0  0  0  0  0  0  0  0
   45.9810   32.8830   46.6720 C   0  0  0  0  0  0  0  0  0  0  0  0
   45.2240   32.8270   47.7390 C   0  0  0  0  0  0  0  0  0  0  0  0
   45.5500   31.8130   48.8050 C   0  0  0  0  0  0  0  0  0  0  0  0
   43.8217   36.5076   44.9270 H   0  0  0  0  0  0  0  0  0  0  0  0
   45.0645   36.3236   42.7284 H   0  0  0  0  0  0  0  0  0  0  0  0
   46.7423   34.4543   42.4759 H   0  0  0  0  0  0  0  0  0  0  0  0
   46.8356   32.1983   46.5675 H   0  0  0  0  0  0  0  0  0  0  0  0
   44.3670   33.5068   47.8549 H   0  0  0  0  0  0  0  0  0  0  0  0
   45.4048   32.2647   49.7974 H   0  0  0  0  0  0  0  0  0  0  0  0
   44.8866   30.9422   48.6979 H   0  0  0  0  0  0  0  0  0  0  0  0
   46.5966   31.4920   48.6979 H   0  0  0  0  0  0  0  0  0  0  0  0
  1  6  2  0
  2  1  1  0
  3  2  2  0
  3  4  1  0
  4  5  2  0
  5  6  1  0
  5  7  1  0
  7  8  2  0
  8  9  1  0
  1 10  1  0
  2 11  1  0
  3 12  1  0
  7 13  1  0
  8 14  1  0
  9 15  1  0
  9 16  1  0
  9 17  1  0
M  ISO  6  10  14  11  14  12  14  15   8  16   8  17   8
M  END
>  <minimizedAffinity>  (1) 
-3.66319871

>  <minimizedRMSD>  (1) 
0.639252782

$$$$
