
     RDKit          3D

 18 18  0  0  0  0  0  0  0  0999 V2000
   44.5320   35.7070   44.9010 C   0  0  0  0  0  0  0  0  0  0  0  0
   45.1660   35.6930   43.6380 C   0  0  0  0  0  0  0  0  0  0  0  0
   46.0980   34.6990   43.3890 C   0  0  0  0  0  0  0  0  0  0  0  0
   46.3770   33.7730   44.3510 N   0  0  0  0  0  0  0  0  0  0  0  0
   45.7440   33.8210   45.5550 C   0  0  0  0  0  0  0  0  0  0  0  0
   44.8490   34.7650   45.8130 N   0  0  0  0  0  0  0  0  0  0  0  0
   46.0790   32.8120   46.5400 C   0  0  0  0  0  0  0  0  0  0  0  0
   45.3820   32.6630   47.6280 C   0  0  0  0  0  0  0  0  0  0  0  0
   45.7560   31.6110   48.6240 C   0  0  0  0  0  0  0  0  0  0  0  0
   45.4510   32.0910   49.9170 O   0  0  0  0  0  0  0  0  0  0  0  0
   43.7861   36.4798   45.1384 H   0  0  0  0  0  0  0  0  0  0  0  0
   44.9265   36.4488   42.8755 H   0  0  0  0  0  0  0  0  0  0  0  0
   46.6121   34.6564   42.4175 H   0  0  0  0  0  0  0  0  0  0  0  0
   46.9441   32.1560   46.3631 H   0  0  0  0  0  0  0  0  0  0  0  0
   44.5146   33.3127   47.8165 H   0  0  0  0  0  0  0  0  0  0  0  0
   45.1855   30.6918   48.4251 H   0  0  0  0  0  0  0  0  0  0  0  0
   46.8299   31.3849   48.5489 H   0  0  0  0  0  0  0  0  0  0  0  0
   45.8380   31.4820   50.5949 H   0  0  0  0  0  0  0  0  0  0  0  0
  1  6  2  0
  2  1  1  0
  3  2  2  0
  3  4  1  0
  4  5  2  0
  5  6  1  0
  5  7  1  0
  7  8  2  0
  8  9  1  0
  9 10  1  0
  1 11  1  0
  2 12  1  0
  3 13  1  0
  7 14  1  0
  8 15  1  0
  9 16  1  0
  9 17  1  0
 10 18  1  0
M  ISO  6  11  14  12  14  13  14  16   8  17   8  18   3
M  END
>  <minimizedAffinity>  (1) 
-4.0593853

>  <minimizedRMSD>  (1) 
0.240059599

$$$$
