
     RDKit          3D

 34 35  0  0  1  0  0  0  0  0999 V2000
   46.3090   30.7820   47.3810 C   0  0  2  0  0  0  0  0  0  0  0  0
   44.8700   30.6410   47.8420 C   0  0  0  0  0  0  0  0  0  0  0  0
   45.0710   31.2820   49.2270 C   0  0  0  0  0  0  0  0  0  0  0  0
   45.8360   32.3890   48.9680 O   0  0  0  0  0  0  0  0  0  0  0  0
   46.5960   32.1530   47.8210 C   0  0  1  0  0  0  0  0  0  0  0  0
   46.4630   30.5150   45.9080 C   0  0  0  0  0  0  0  0  0  0  0  0
   47.5210   31.8420   44.1380 C   0  0  0  0  0  0  0  0  0  0  0  0
   46.6440   31.7600   45.1230 C   0  0  0  0  0  0  0  0  0  0  0  0
   46.8770   35.0480   42.4670 C   0  0  0  0  0  0  0  0  0  0  0  0
   48.1620   35.3830   41.9650 C   0  0  0  0  0  0  0  0  0  0  0  0
   49.1890   34.4800   42.2280 C   0  0  0  0  0  0  0  0  0  0  0  0
   48.9100   33.3490   42.9370 N   0  0  0  0  0  0  0  0  0  0  0  0
   47.6580   33.0840   43.3910 C   0  0  0  0  0  0  0  0  0  0  0  0
   46.6580   33.9080   43.1660 N   0  0  0  0  0  0  0  0  0  0  0  0
   47.9340   32.4560   48.0620 O   0  0  0  0  0  0  0  0  0  0  0  0
   49.9530   31.9120   49.6000 O   0  0  0  0  0  0  0  0  0  0  0  0
   48.7950   31.2980   48.8830 P   0  0  0  0  0  0  0  0  0  0  0  0
   49.3950   30.1890   47.7260 O   0  0  0  0  0  0  0  0  0  0  0  0
   47.7350   30.4920   49.9440 O   0  0  0  0  0  0  0  0  0  0  0  0
   47.0230   30.0537   47.7930 H   0  0  0  0  0  0  0  0  0  0  0  0
   44.1664   31.2053   47.2123 H   0  0  0  0  0  0  0  0  0  0  0  0
   44.4360   29.6305   47.8187 H   0  0  0  0  0  0  0  0  0  0  0  0
   44.1056   31.5679   49.6701 H   0  0  0  0  0  0  0  0  0  0  0  0
   45.5435   30.5980   49.9473 H   0  0  0  0  0  0  0  0  0  0  0  0
   46.3297   32.8133   46.9825 H   0  0  0  0  0  0  0  0  0  0  0  0
   47.3415   29.8707   45.7559 H   0  0  0  0  0  0  0  0  0  0  0  0
   45.5406   30.0289   45.5573 H   0  0  0  0  0  0  0  0  0  0  0  0
   48.1462   30.9736   43.8830 H   0  0  0  0  0  0  0  0  0  0  0  0
   46.0310   32.6400   45.3675 H   0  0  0  0  0  0  0  0  0  0  0  0
   46.0359   35.7328   42.2835 H   0  0  0  0  0  0  0  0  0  0  0  0
   48.3375   36.3087   41.3972 H   0  0  0  0  0  0  0  0  0  0  0  0
   50.2102   34.6761   41.8692 H   0  0  0  0  0  0  0  0  0  0  0  0
   49.8110   29.4201   48.1906 H   0  0  0  0  0  0  0  0  0  0  0  0
   47.9926   30.6878   50.8796 H   0  0  0  0  0  0  0  0  0  0  0  0
  1  5  1  0
  1  2  1  0
  2  3  1  0
  4  3  1  0
  5 15  1  0
  5  4  1  0
  6  1  1  0
  7  8  2  0
  8  6  1  0
  9 14  2  0
 10 11  2  0
 10  9  1  0
 11 12  1  0
 12 13  2  0
 13  7  1  0
 14 13  1  0
 15 17  1  0
 17 16  2  0
 17 19  1  0
 18 17  1  0
  1 20  1  1
  2 21  1  0
  2 22  1  0
  3 23  1  0
  3 24  1  0
  5 25  1  6
  6 26  1  0
  6 27  1  0
  7 28  1  0
  8 29  1  0
  9 30  1  0
 10 31  1  0
 11 32  1  0
 18 33  1  0
 19 34  1  0
M  ISO  8  20  13  21  13  22  13  23  13  24  13  25  13  26   8  27   8
M  ISO  5  30  14  31  14  32  14  33   3  34   3
M  END
>  <minimizedAffinity>  (1) 
-4.67134762

>  <minimizedRMSD>  (1) 
1.54033041

$$$$
