
     RDKit          3D

 30 31  0  0  1  0  0  0  0  0999 V2000
   46.0050   30.8370   45.7310 C   0  0  0  0  0  0  0  0  0  0  0  0
   46.1540   31.0850   47.1870 C   0  0  2  0  0  0  0  0  0  0  0  0
   45.0520   30.4430   48.0260 C   0  0  0  0  0  0  0  0  0  0  0  0
   45.3400   31.2070   49.3200 C   0  0  0  0  0  0  0  0  0  0  0  0
   45.5950   32.4930   48.9300 O   0  0  0  0  0  0  0  0  0  0  0  0
   46.0650   32.4860   47.6350 C   0  0  1  0  0  0  0  0  0  0  0  0
   47.4410   33.0040   47.7100 N   0  0  0  0  0  0  0  0  0  0  0  0
   47.4100   32.0730   44.1400 C   0  0  0  0  0  0  0  0  0  0  0  0
   46.3270   32.0180   44.8910 C   0  0  0  0  0  0  0  0  0  0  0  0
   47.0720   35.1770   42.2180 C   0  0  0  0  0  0  0  0  0  0  0  0
   48.4140   35.3980   41.7930 C   0  0  0  0  0  0  0  0  0  0  0  0
   49.3740   34.4640   42.1930 C   0  0  0  0  0  0  0  0  0  0  0  0
   48.9850   33.4060   42.9540 N   0  0  0  0  0  0  0  0  0  0  0  0
   47.6920   33.2420   43.3300 C   0  0  0  0  0  0  0  0  0  0  0  0
   46.7610   34.1060   42.9710 N   0  0  0  0  0  0  0  0  0  0  0  0
   46.6784   30.0147   45.4476 H   0  0  0  0  0  0  0  0  0  0  0  0
   44.9476   30.5924   45.5520 H   0  0  0  0  0  0  0  0  0  0  0  0
   47.1623   30.6701   47.3323 H   0  0  0  0  0  0  0  0  0  0  0  0
   44.0466   30.6487   47.6299 H   0  0  0  0  0  0  0  0  0  0  0  0
   45.0558   29.3448   48.0895 H   0  0  0  0  0  0  0  0  0  0  0  0
   44.4681   31.1731   49.9898 H   0  0  0  0  0  0  0  0  0  0  0  0
   46.1842   30.7713   49.8746 H   0  0  0  0  0  0  0  0  0  0  0  0
   45.4222   33.0698   46.9597 H   0  0  0  0  0  0  0  0  0  0  0  0
   47.7156   33.1074   48.6973 H   0  0  0  0  0  0  0  0  0  0  0  0
   48.0813   32.3465   47.2426 H   0  0  0  0  0  0  0  0  0  0  0  0
   48.1072   31.2222   44.1281 H   0  0  0  0  0  0  0  0  0  0  0  0
   45.6391   32.8763   44.8950 H   0  0  0  0  0  0  0  0  0  0  0  0
   46.2839   35.8876   41.9282 H   0  0  0  0  0  0  0  0  0  0  0  0
   48.6834   36.2677   41.1757 H   0  0  0  0  0  0  0  0  0  0  0  0
   50.4268   34.5827   41.8971 H   0  0  0  0  0  0  0  0  0  0  0  0
  1  2  1  0
  2  6  1  0
  2  3  1  0
  3  4  1  0
  5  4  1  0
  6  7  1  0
  6  5  1  0
  8  9  2  0
  9  1  1  0
 10 15  2  0
 11 12  2  0
 11 10  1  0
 12 13  1  0
 13 14  2  0
 14  8  1  0
 15 14  1  0
  1 16  1  0
  1 17  1  0
  2 18  1  1
  3 19  1  0
  3 20  1  0
  4 21  1  0
  4 22  1  0
  6 23  1  6
  7 24  1  0
  7 25  1  0
  8 26  1  0
  9 27  1  0
 10 28  1  0
 11 29  1  0
 12 30  1  0
M  ISO  8  16   8  17   8  18  13  19  13  20  13  21  13  22  13  23  13
M  ISO  5  24   5  25   5  28  14  29  14  30  14
M  END
>  <minimizedAffinity>  (1) 
-4.62000942

>  <minimizedRMSD>  (1) 
0.214425638

$$$$
