
     RDKit          3D

 34 35  0  0  1  0  0  0  0  0999 V2000
   46.9440   30.5210   46.0570 C   0  0  0  0  0  0  0  0  0  0  0  0
   46.5330   30.3000   47.4700 C   0  0  2  0  0  0  0  0  0  0  0  0
   45.0660   30.6040   47.7150 C   0  0  0  0  0  0  0  0  0  0  0  0
   45.1240   30.6170   49.2380 C   0  0  0  0  0  0  0  0  0  0  0  0
   46.2810   31.2910   49.5380 O   0  0  0  0  0  0  0  0  0  0  0  0
   47.1780   31.1580   48.4870 C   0  0  1  0  0  0  0  0  0  0  0  0
   48.4870   30.5430   49.0000 C   0  0  0  0  0  0  0  0  0  0  0  0
   49.4350   31.6480   49.3610 C   0  0  0  0  0  0  0  0  0  0  0  0
   46.8540   32.8550   45.2860 C   0  0  0  0  0  0  0  0  0  0  0  0
   46.2700   31.6800   45.4240 C   0  0  0  0  0  0  0  0  0  0  0  0
   44.5480   35.6330   44.6370 C   0  0  0  0  0  0  0  0  0  0  0  0
   44.9510   36.0490   43.3380 C   0  0  0  0  0  0  0  0  0  0  0  0
   46.0070   35.3460   42.7440 C   0  0  0  0  0  0  0  0  0  0  0  0
   46.5960   34.3080   43.4220 N   0  0  0  0  0  0  0  0  0  0  0  0
   46.1660   33.9590   44.6610 C   0  0  0  0  0  0  0  0  0  0  0  0
   45.1690   34.6090   45.2440 N   0  0  0  0  0  0  0  0  0  0  0  0
   48.0302   30.6927   46.0322 H   0  0  0  0  0  0  0  0  0  0  0  0
   46.6526   29.6250   45.4893 H   0  0  0  0  0  0  0  0  0  0  0  0
   46.8215   29.2446   47.5840 H   0  0  0  0  0  0  0  0  0  0  0  0
   44.7634   31.5759   47.2981 H   0  0  0  0  0  0  0  0  0  0  0  0
   44.3400   29.9153   47.2582 H   0  0  0  0  0  0  0  0  0  0  0  0
   44.2511   31.1407   49.6547 H   0  0  0  0  0  0  0  0  0  0  0  0
   45.1118   29.6025   49.6631 H   0  0  0  0  0  0  0  0  0  0  0  0
   47.4304   32.1321   48.0428 H   0  0  0  0  0  0  0  0  0  0  0  0
   48.2824   29.9273   49.8883 H   0  0  0  0  0  0  0  0  0  0  0  0
   48.9328   29.9104   48.2183 H   0  0  0  0  0  0  0  0  0  0  0  0
   49.5042   31.7287   50.4559 H   0  0  0  0  0  0  0  0  0  0  0  0
   50.4297   31.4280   48.9459 H   0  0  0  0  0  0  0  0  0  0  0  0
   49.0663   32.5976   48.9459 H   0  0  0  0  0  0  0  0  0  0  0  0
   47.8814   32.9954   45.6531 H   0  0  0  0  0  0  0  0  0  0  0  0
   45.2415   31.5552   45.0545 H   0  0  0  0  0  0  0  0  0  0  0  0
   43.7235   36.1528   45.1469 H   0  0  0  0  0  0  0  0  0  0  0  0
   44.4557   36.8853   42.8229 H   0  0  0  0  0  0  0  0  0  0  0  0
   46.3620   35.6240   41.7406 H   0  0  0  0  0  0  0  0  0  0  0  0
  1  2  1  0
  2  3  1  0
  2  6  1  0
  3  4  1  0
  4  5  1  0
  6  7  1  0
  6  5  1  0
  7  8  1  0
  9 10  2  0
 10  1  1  0
 11 16  2  0
 12 11  1  0
 13 12  2  0
 13 14  1  0
 14 15  2  0
 15 16  1  0
 15  9  1  0
  1 17  1  0
  1 18  1  0
  2 19  1  1
  3 20  1  0
  3 21  1  0
  4 22  1  0
  4 23  1  0
  6 24  1  6
  7 25  1  0
  7 26  1  0
  8 27  1  0
  8 28  1  0
  8 29  1  0
  9 30  1  0
 10 31  1  0
 11 32  1  0
 12 33  1  0
 13 34  1  0
M  ISO  8  17   8  18   8  19  13  20  13  21  13  22  13  23  13  24  13
M  ISO  8  25   8  26   8  27   8  28   8  29   8  32  14  33  14  34  14
M  END
>  <minimizedAffinity>  (1) 
-4.61444521

>  <minimizedRMSD>  (1) 
2.37705708

$$$$
