
     RDKit          3D

 41 44  0  0  1  0  0  0  0  0999 V2000
   47.3020   30.7570   46.4950 C   0  0  2  0  0  0  0  0  0  0  0  0
   47.4480   31.4750   47.8130 C   0  0  0  0  0  0  0  0  0  0  0  0
   46.8840   32.8200   47.3580 C   0  0  0  0  0  0  0  0  0  0  0  0
   45.7920   32.4930   46.5920 O   0  0  0  0  0  0  0  0  0  0  0  0
   45.9550   31.2160   46.0870 C   0  0  1  0  0  0  0  0  0  0  0  0
   45.7910   31.3250   44.6310 N   0  0  0  0  0  0  0  0  0  0  0  0
   45.0720   30.5790   43.7740 C   0  0  0  0  0  0  0  0  0  0  0  0
   45.2320   31.0640   42.5290 N   0  0  0  0  0  0  0  0  0  0  0  0
   46.0620   32.1310   42.5840 C   0  0  0  0  0  0  0  0  0  0  0  0
   46.5370   32.9680   41.5970 C   0  0  0  0  0  0  0  0  0  0  0  0
   47.3750   33.9800   41.9540 N   0  0  0  0  0  0  0  0  0  0  0  0
   47.7280   34.1510   43.2560 C   0  0  0  0  0  0  0  0  0  0  0  0
   47.2320   33.3030   44.1690 N   0  0  0  0  0  0  0  0  0  0  0  0
   46.4110   32.2890   43.9260 C   0  0  0  0  0  0  0  0  0  0  0  0
   46.1940   32.8280   40.2230 N   0  0  0  0  0  0  0  0  0  0  0  0
   47.4750   29.2750   46.5980 C   0  0  0  0  0  0  0  0  0  0  0  0
   45.6890   27.6620   46.1330 C   0  0  0  0  0  0  0  0  0  0  0  0
   46.2190   28.5610   46.9390 C   0  0  0  0  0  0  0  0  0  0  0  0
   43.1850   25.6610   47.9080 C   0  0  0  0  0  0  0  0  0  0  0  0
   42.0560   25.7680   47.0400 C   0  0  0  0  0  0  0  0  0  0  0  0
   42.2110   26.5280   45.8760 C   0  0  0  0  0  0  0  0  0  0  0  0
   43.4220   27.1250   45.6330 N   0  0  0  0  0  0  0  0  0  0  0  0
   44.4600   26.9850   46.5010 C   0  0  0  0  0  0  0  0  0  0  0  0
   44.3480   26.2760   47.6050 N   0  0  0  0  0  0  0  0  0  0  0  0
   48.0795   30.9852   45.7511 H   0  0  0  0  0  0  0  0  0  0  0  0
   46.8468   31.0152   48.6112 H   0  0  0  0  0  0  0  0  0  0  0  0
   48.4545   31.4887   48.2565 H   0  0  0  0  0  0  0  0  0  0  0  0
   46.5836   33.4286   48.2236 H   0  0  0  0  0  0  0  0  0  0  0  0
   47.6219   33.4166   46.8017 H   0  0  0  0  0  0  0  0  0  0  0  0
   45.2275   30.4808   46.4614 H   0  0  0  0  0  0  0  0  0  0  0  0
   44.4527   29.7118   44.0467 H   0  0  0  0  0  0  0  0  0  0  0  0
   48.4045   34.9658   43.5534 H   0  0  0  0  0  0  0  0  0  0  0  0
   45.5621   32.0714   39.9245 H   0  0  0  0  0  0  0  0  0  0  0  0
   46.5777   33.4833   39.5271 H   0  0  0  0  0  0  0  0  0  0  0  0
   47.8400   28.8978   45.6313 H   0  0  0  0  0  0  0  0  0  0  0  0
   48.1897   29.0856   47.4125 H   0  0  0  0  0  0  0  0  0  0  0  0
   46.1806   27.4246   45.1781 H   0  0  0  0  0  0  0  0  0  0  0  0
   45.7164   28.7882   47.8907 H   0  0  0  0  0  0  0  0  0  0  0  0
   43.1062   25.0713   48.8332 H   0  0  0  0  0  0  0  0  0  0  0  0
   41.1029   25.2727   47.2773 H   0  0  0  0  0  0  0  0  0  0  0  0
   41.3770   26.6449   45.1683 H   0  0  0  0  0  0  0  0  0  0  0  0
  1 16  1  0
  1  2  1  0
  3  2  1  0
  4  3  1  0
  5  1  1  0
  5  4  1  0
  6  5  1  0
  7  6  1  0
  8  9  1  0
  8  7  2  0
  9 14  2  0
 10 11  2  0
 10  9  1  0
 11 12  1  0
 12 13  2  0
 14 13  1  0
 14  6  1  0
 15 10  1  0
 16 18  1  0
 17 23  1  0
 17 18  2  0
 20 19  2  0
 21 20  1  0
 22 21  2  0
 22 23  1  0
 23 24  2  0
 24 19  1  0
  1 25  1  6
  2 26  1  0
  2 27  1  0
  3 28  1  0
  3 29  1  0
  5 30  1  1
  7 31  1  0
 12 32  1  0
 15 33  1  0
 15 34  1  0
 16 35  1  0
 16 36  1  0
 17 37  1  0
 18 38  1  0
 19 39  1  0
 20 40  1  0
 21 41  1  0
M  ISO  8  25  13  26  13  27  13  28  13  29  13  30  13  31  14  32  14
M  ISO  5  35   8  36   8  39  14  40  14  41  14
M  END
>  <minimizedAffinity>  (1) 
-4.08435965

>  <minimizedRMSD>  (1) 
6.97820282

$$$$
