
     RDKit          3D

 44 48  0  0  1  0  0  0  0  0999 V2000
   49.2140   33.9100   41.1600 C   0  0  2  0  0  0  0  0  0  0  0  0
   48.5960   35.3550   41.2640 C   0  0  0  0  0  0  0  0  0  0  0  0
   47.9660   34.2600   40.4720 C   0  0  1  0  0  0  0  0  0  0  0  0
   48.0710   33.0900   43.2420 N   0  0  0  0  0  0  0  0  0  0  0  0
   49.2110   33.0900   42.4380 C   0  0  0  0  0  0  0  0  0  0  0  0
   50.3100   32.4970   42.5770 O   0  0  0  0  0  0  0  0  0  0  0  0
   46.1380   31.9670   44.2870 C   0  0  1  0  0  0  0  0  0  0  0  0
   46.3480   31.3080   43.0710 C   0  0  0  0  0  0  0  0  0  0  0  0
   47.5530   31.9130   43.8480 C   0  0  1  0  0  0  0  0  0  0  0  0
   44.9800   33.9450   43.0620 C   0  0  0  0  0  0  0  0  0  0  0  0
   45.4820   33.3490   44.2640 C   0  0  0  0  0  0  0  0  0  0  0  0
   45.3760   34.0830   45.4300 C   0  0  0  0  0  0  0  0  0  0  0  0
   44.8100   35.3110   45.3810 N   0  0  0  0  0  0  0  0  0  0  0  0
   44.3380   35.8610   44.2290 C   0  0  0  0  0  0  0  0  0  0  0  0
   44.4320   35.1430   43.0310 N   0  0  0  0  0  0  0  0  0  0  0  0
   48.0100   34.3310   38.9520 C   0  0  0  0  0  0  0  0  0  0  0  0
   48.8470   35.0980   38.4380 O   0  0  0  0  0  0  0  0  0  0  0  0
   47.0030   33.4320   38.3190 C   0  0  0  0  0  0  0  0  0  0  0  0
   45.8540   33.0960   38.9360 N   0  0  0  0  0  0  0  0  0  0  0  0
   44.9500   32.2910   38.3710 C   0  0  0  0  0  0  0  0  0  0  0  0
   45.0950   31.7470   37.1520 N   0  0  0  0  0  0  0  0  0  0  0  0
   46.2180   32.0380   36.4780 C   0  0  0  0  0  0  0  0  0  0  0  0
   46.4000   31.5040   35.2400 C   0  0  0  0  0  0  0  0  0  0  0  0
   47.5330   31.7660   34.4980 C   0  0  0  0  0  0  0  0  0  0  0  0
   48.4860   32.6080   35.0820 C   0  0  0  0  0  0  0  0  0  0  0  0
   48.2620   33.1230   36.3280 C   0  0  0  0  0  0  0  0  0  0  0  0
   47.1380   32.8690   37.0740 C   0  0  0  0  0  0  0  0  0  0  0  0
   50.1541   33.4448   40.8286 H   0  0  0  0  0  0  0  0  0  0  0  0
   48.1375   35.6994   42.2027 H   0  0  0  0  0  0  0  0  0  0  0  0
   48.9387   36.3816   41.0675 H   0  0  0  0  0  0  0  0  0  0  0  0
   46.9506   33.8369   40.4708 H   0  0  0  0  0  0  0  0  0  0  0  0
   47.5829   33.9825   43.4038 H   0  0  0  0  0  0  0  0  0  0  0  0
   45.6132   31.6597   45.2036 H   0  0  0  0  0  0  0  0  0  0  0  0
   46.0126   31.7690   42.1303 H   0  0  0  0  0  0  0  0  0  0  0  0
   46.0997   30.3135   42.6718 H   0  0  0  0  0  0  0  0  0  0  0  0
   48.5053   31.5811   44.2873 H   0  0  0  0  0  0  0  0  0  0  0  0
   45.0553   33.3772   42.1229 H   0  0  0  0  0  0  0  0  0  0  0  0
   45.7458   33.6756   46.3825 H   0  0  0  0  0  0  0  0  0  0  0  0
   43.8854   36.8635   44.2393 H   0  0  0  0  0  0  0  0  0  0  0  0
   44.0350   32.0607   38.9364 H   0  0  0  0  0  0  0  0  0  0  0  0
   45.6242   30.8468   34.8202 H   0  0  0  0  0  0  0  0  0  0  0  0
   47.6801   31.3345   33.4969 H   0  0  0  0  0  0  0  0  0  0  0  0
   49.4113   32.8543   34.5406 H   0  0  0  0  0  0  0  0  0  0  0  0
   49.0299   33.7818   36.7598 H   0  0  0  0  0  0  0  0  0  0  0  0
  1  2  1  0
  1  5  1  0
  3  1  1  0
  3  2  1  0
  4  9  1  0
  5  6  2  0
  5  4  1  0
  8  9  1  0
  8  7  1  0
  9  7  1  0
 10 11  2  0
 11  7  1  0
 11 12  1  0
 13 12  2  0
 14 13  1  0
 15 10  1  0
 15 14  2  0
 16  3  1  0
 17 16  2  0
 18 19  2  0
 18 16  1  0
 20 19  1  0
 21 20  2  0
 22 27  2  0
 22 21  1  0
 23 22  1  0
 24 25  1  0
 24 23  2  0
 25 26  2  0
 26 27  1  0
 27 18  1  0
  1 28  1  6
  2 29  1  0
  2 30  1  0
  3 31  1  6
  4 32  1  0
  7 33  1  1
  8 34  1  0
  8 35  1  0
  9 36  1  1
 10 37  1  0
 12 38  1  0
 14 39  1  0
 20 40  1  0
 23 41  1  0
 24 42  1  0
 25 43  1  0
 26 44  1  0
M  ISO  8  28  13  29  13  30  13  31  13  33  13  34  13  35  13  36  13
M  ISO  8  37  14  38  14  39  14  40  14  41  14  42  14  43  14  44  14
M  END
>  <minimizedAffinity>  (1) 
-5.39941597

>  <minimizedRMSD>  (1) 
0.76840353

$$$$
