
     RDKit          3D

 47 49  0  0  1  0  0  0  0  0999 V2000
   46.5880   30.0790   47.3820 C   0  0  2  0  0  0  0  0  0  0  0  0
   45.1920   30.4310   47.8610 C   0  0  0  0  0  0  0  0  0  0  0  0
   45.5440   30.7340   49.3080 C   0  0  0  0  0  0  0  0  0  0  0  0
   46.7270   31.4320   49.2450 O   0  0  0  0  0  0  0  0  0  0  0  0
   47.3700   31.1460   48.0620 C   0  0  1  0  0  0  0  0  0  0  0  0
   48.7640   30.7030   48.3590 C   0  0  1  0  0  0  0  0  0  0  0  0
   49.1890   31.1000   49.7630 C   0  0  0  0  0  0  0  0  0  0  0  0
   49.8970   29.8680   50.2430 C   0  0  0  0  0  0  0  0  0  0  0  0
   50.0890   29.0630   49.1120 O   0  0  0  0  0  0  0  0  0  0  0  0
   48.8490   29.1840   48.4760 C   0  0  0  0  0  0  0  0  0  0  0  0
   46.7050   30.0780   45.8970 C   0  0  0  0  0  0  0  0  0  0  0  0
   45.6490   31.7570   44.4710 C   0  0  0  0  0  0  0  0  0  0  0  0
   46.6110   31.4290   45.2930 C   0  0  0  0  0  0  0  0  0  0  0  0
   45.0790   35.3470   44.0610 C   0  0  0  0  0  0  0  0  0  0  0  0
   45.4910   35.5700   42.7160 C   0  0  0  0  0  0  0  0  0  0  0  0
   45.9470   34.4570   42.0190 C   0  0  0  0  0  0  0  0  0  0  0  0
   45.9870   33.2410   42.6090 N   0  0  0  0  0  0  0  0  0  0  0  0
   45.5820   33.0800   43.8980 C   0  0  0  0  0  0  0  0  0  0  0  0
   45.1350   34.1100   44.6160 N   0  0  0  0  0  0  0  0  0  0  0  0
   46.3820   34.5650   40.6700 N   0  0  0  0  0  0  0  0  0  0  0  0
   48.0520   34.4830   40.3100 S   0  0  0  0  0  0  0  0  0  0  0  0
   48.2030   34.4590   38.8030 O   0  0  0  0  0  0  0  0  0  0  0  0
   48.7910   35.6630   40.8290 O   0  0  0  0  0  0  0  0  0  0  0  0
   48.7250   33.0930   40.9770 O   0  0  0  0  0  0  0  0  0  0  0  0
   46.9270   29.0606   47.6225 H   0  0  0  0  0  0  0  0  0  0  0  0
   44.7795   31.3070   47.3390 H   0  0  0  0  0  0  0  0  0  0  0  0
   44.4162   29.6681   47.6993 H   0  0  0  0  0  0  0  0  0  0  0  0
   44.7588   31.3446   49.7777 H   0  0  0  0  0  0  0  0  0  0  0  0
   45.6341   29.8196   49.9127 H   0  0  0  0  0  0  0  0  0  0  0  0
   47.4343   32.0263   47.4056 H   0  0  0  0  0  0  0  0  0  0  0  0
   49.3671   31.1437   47.5515 H   0  0  0  0  0  0  0  0  0  0  0  0
   49.8661   31.9667   49.7442 H   0  0  0  0  0  0  0  0  0  0  0  0
   48.3512   31.4056   50.4069 H   0  0  0  0  0  0  0  0  0  0  0  0
   50.8659   30.1346   50.6904 H   0  0  0  0  0  0  0  0  0  0  0  0
   49.3129   29.3441   51.0140 H   0  0  0  0  0  0  0  0  0  0  0  0
   48.0329   28.7747   49.0896 H   0  0  0  0  0  0  0  0  0  0  0  0
   48.7587   28.6384   47.5251 H   0  0  0  0  0  0  0  0  0  0  0  0
   47.6779   29.6425   45.6252 H   0  0  0  0  0  0  0  0  0  0  0  0
   45.8602   29.4911   45.5074 H   0  0  0  0  0  0  0  0  0  0  0  0
   44.8798   31.0144   44.2124 H   0  0  0  0  0  0  0  0  0  0  0  0
   47.3752   32.1791   45.5447 H   0  0  0  0  0  0  0  0  0  0  0  0
   44.7090   36.1921   44.6602 H   0  0  0  0  0  0  0  0  0  0  0  0
   45.4506   36.5676   42.2543 H   0  0  0  0  0  0  0  0  0  0  0  0
   45.6950   34.6920   39.9132 H   0  0  0  0  0  0  0  0  0  0  0  0
   49.1530   34.3080   38.5689 H   0  0  0  0  0  0  0  0  0  0  0  0
   48.7821   35.6488   41.8189 H   0  0  0  0  0  0  0  0  0  0  0  0
   48.6957   33.1534   41.9647 H   0  0  0  0  0  0  0  0  0  0  0  0
  1  2  1  0
  1  5  1  0
  2  3  1  0
  4  3  1  0
  5  6  1  0
  5  4  1  0
  6 10  1  0
  6  7  1  0
  7  8  1  0
  9  8  1  0
 10  9  1  0
 11  1  1  0
 12 13  2  0
 13 11  1  0
 14 19  2  0
 15 14  1  0
 16 17  1  0
 16 15  2  0
 17 18  2  0
 18 12  1  0
 18 19  1  0
 20 16  1  0
 21 20  1  0
 21 23  1  0
 21 24  1  0
 22 21  1  0
  1 25  1  1
  2 26  1  0
  2 27  1  0
  3 28  1  0
  3 29  1  0
  5 30  1  6
  6 31  1  6
  7 32  1  0
  7 33  1  0
  8 34  1  0
  8 35  1  0
 10 36  1  0
 10 37  1  0
 11 38  1  0
 11 39  1  0
 12 40  1  0
 13 41  1  0
 14 42  1  0
 15 43  1  0
 20 44  1  0
 22 45  1  0
 23 46  1  0
 24 47  1  0
M  ISO  8  25  13  26  13  27  13  28  13  29  13  30  13  31  13  32  13
M  ISO  8  33  13  34  13  35  13  36  13  37  13  38   8  39   8  42  14
M  ISO  4  43  14  45   3  46   3  47   3
M  END
>  <minimizedAffinity>  (1) 
-5.24080276

>  <minimizedRMSD>  (1) 
2.61097693

$$$$
