
     RDKit          3D

 51 54  0  0  1  0  0  0  0  0999 V2000
   46.4080   30.1280   47.5250 C   0  0  2  0  0  0  0  0  0  0  0  0
   45.0570   30.5860   48.0230 C   0  0  0  0  0  0  0  0  0  0  0  0
   45.5110   31.0900   49.3880 C   0  0  0  0  0  0  0  0  0  0  0  0
   46.6970   31.7380   49.1470 O   0  0  0  0  0  0  0  0  0  0  0  0
   47.2520   31.2610   47.9910 C   0  0  1  0  0  0  0  0  0  0  0  0
   48.6580   30.8120   48.2700 C   0  0  1  0  0  0  0  0  0  0  0  0
   49.1850   31.4100   49.5650 C   0  0  0  0  0  0  0  0  0  0  0  0
   49.8880   30.2460   50.1940 C   0  0  0  0  0  0  0  0  0  0  0  0
   49.9820   29.2650   49.2020 O   0  0  0  0  0  0  0  0  0  0  0  0
   48.7140   29.3340   48.6310 C   0  0  0  0  0  0  0  0  0  0  0  0
   46.4420   29.8910   46.0460 C   0  0  0  0  0  0  0  0  0  0  0  0
   47.0020   31.6370   44.4290 C   0  0  0  0  0  0  0  0  0  0  0  0
   46.1320   31.1110   45.2560 C   0  0  0  0  0  0  0  0  0  0  0  0
   45.8610   34.9930   43.5320 C   0  0  0  0  0  0  0  0  0  0  0  0
   46.1120   35.0410   42.1220 C   0  0  0  0  0  0  0  0  0  0  0  0
   46.6680   33.8910   41.5700 C   0  0  0  0  0  0  0  0  0  0  0  0
   46.9410   32.8160   42.3380 N   0  0  0  0  0  0  0  0  0  0  0  0
   46.6830   32.8210   43.6700 C   0  0  0  0  0  0  0  0  0  0  0  0
   46.1540   33.8830   44.2690 N   0  0  0  0  0  0  0  0  0  0  0  0
   46.9380   33.8840   40.1730 N   0  0  0  0  0  0  0  0  0  0  0  0
   48.0890   34.5210   39.5630 C   0  0  0  0  0  0  0  0  0  0  0  0
   48.2470   33.7910   38.2230 C   0  0  0  0  0  0  0  0  0  0  0  0
   47.2390   32.6420   38.2860 C   0  0  0  0  0  0  0  0  0  0  0  0
   46.1430   33.2640   39.1310 C   0  0  0  0  0  0  0  0  0  0  0  0
   46.7372   29.1468   47.8977 H   0  0  0  0  0  0  0  0  0  0  0  0
   44.6306   31.3869   47.4011 H   0  0  0  0  0  0  0  0  0  0  0  0
   44.2553   29.8328   48.0224 H   0  0  0  0  0  0  0  0  0  0  0  0
   44.7695   31.7838   49.8109 H   0  0  0  0  0  0  0  0  0  0  0  0
   45.6253   30.2724   50.1150 H   0  0  0  0  0  0  0  0  0  0  0  0
   47.2922   32.0353   47.2107 H   0  0  0  0  0  0  0  0  0  0  0  0
   49.2133   31.0920   47.3627 H   0  0  0  0  0  0  0  0  0  0  0  0
   49.8831   32.2366   49.3665 H   0  0  0  0  0  0  0  0  0  0  0  0
   48.3991   31.8445   50.2003 H   0  0  0  0  0  0  0  0  0  0  0  0
   50.8915   30.5439   50.5321 H   0  0  0  0  0  0  0  0  0  0  0  0
   49.3417   29.8754   51.0739 H   0  0  0  0  0  0  0  0  0  0  0  0
   47.9282   29.0608   49.3507 H   0  0  0  0  0  0  0  0  0  0  0  0
   48.5512   28.6475   47.7871 H   0  0  0  0  0  0  0  0  0  0  0  0
   47.4475   29.5406   45.7700 H   0  0  0  0  0  0  0  0  0  0  0  0
   45.6691   29.1433   45.8143 H   0  0  0  0  0  0  0  0  0  0  0  0
   47.9903   31.1684   44.3121 H   0  0  0  0  0  0  0  0  0  0  0  0
   45.1459   31.5852   45.3684 H   0  0  0  0  0  0  0  0  0  0  0  0
   45.4227   35.8700   44.0308 H   0  0  0  0  0  0  0  0  0  0  0  0
   45.8803   35.9290   41.5156 H   0  0  0  0  0  0  0  0  0  0  0  0
   47.9046   35.5939   39.4049 H   0  0  0  0  0  0  0  0  0  0  0  0
   48.9908   34.4578   40.1897 H   0  0  0  0  0  0  0  0  0  0  0  0
   49.2704   33.4036   38.1105 H   0  0  0  0  0  0  0  0  0  0  0  0
   48.0689   34.4545   37.3639 H   0  0  0  0  0  0  0  0  0  0  0  0
   46.8725   32.3709   37.2849 H   0  0  0  0  0  0  0  0  0  0  0  0
   47.6460   31.7036   38.6906 H   0  0  0  0  0  0  0  0  0  0  0  0
   45.5646   34.0080   38.5636 H   0  0  0  0  0  0  0  0  0  0  0  0
   45.3829   32.5557   39.4923 H   0  0  0  0  0  0  0  0  0  0  0  0
  1  5  1  0
  1  2  1  0
  2  3  1  0
  4  3  1  0
  5  6  1  0
  5  4  1  0
  6 10  1  0
  6  7  1  0
  7  8  1  0
  9  8  1  0
 10  9  1  0
 11  1  1  0
 12 13  2  0
 13 11  1  0
 14 19  2  0
 15 14  1  0
 16 15  2  0
 16 17  1  0
 17 18  2  0
 18 19  1  0
 18 12  1  0
 20 16  1  0
 21 20  1  0
 22 23  1  0
 22 21  1  0
 23 24  1  0
 24 20  1  0
  1 25  1  1
  2 26  1  0
  2 27  1  0
  3 28  1  0
  3 29  1  0
  5 30  1  6
  6 31  1  6
  7 32  1  0
  7 33  1  0
  8 34  1  0
  8 35  1  0
 10 36  1  0
 10 37  1  0
 11 38  1  0
 11 39  1  0
 12 40  1  0
 13 41  1  0
 14 42  1  0
 15 43  1  0
 21 44  1  0
 21 45  1  0
 22 46  1  0
 22 47  1  0
 23 48  1  0
 23 49  1  0
 24 50  1  0
 24 51  1  0
M  ISO  8  25  13  26  13  27  13  28  13  29  13  30  13  31  13  32  13
M  ISO  8  33  13  34  13  35  13  36  13  37  13  38   8  39   8  42  14
M  ISO  8  43  14  44  13  45  13  46  13  47  13  48  13  49  13  50  13
M  ISO  1  51  13
M  END
>  <minimizedAffinity>  (1) 
-4.91243315

>  <minimizedRMSD>  (1) 
2.68765378

$$$$
