
     RDKit          3D

 54 58  0  0  1  0  0  0  0  0999 V2000
   45.4170   29.0440   47.1410 C   0  0  0  0  0  0  0  0  0  0  0  0
   45.8930   30.0030   48.1780 C   0  0  2  0  0  0  0  0  0  0  0  0
   44.7930   30.8880   48.7280 C   0  0  0  0  0  0  0  0  0  0  0  0
   45.6920   31.9450   49.3730 C   0  0  0  0  0  0  0  0  0  0  0  0
   46.6970   32.1490   48.4720 O   0  0  0  0  0  0  0  0  0  0  0  0
   46.8190   31.0550   47.6650 C   0  0  1  0  0  0  0  0  0  0  0  0
   48.2490   30.5920   47.6810 C   0  0  1  0  0  0  0  0  0  0  0  0
   48.9620   31.0070   48.9520 C   0  0  0  0  0  0  0  0  0  0  0  0
   49.7330   29.7620   49.3130 C   0  0  0  0  0  0  0  0  0  0  0  0
   49.6720   28.9250   48.1960 O   0  0  0  0  0  0  0  0  0  0  0  0
   48.3320   29.0670   47.8270 C   0  0  0  0  0  0  0  0  0  0  0  0
   45.0320   29.2900   44.7420 C   0  0  0  0  0  0  0  0  0  0  0  0
   44.8000   29.6970   45.9670 C   0  0  0  0  0  0  0  0  0  0  0  0
   42.5720   30.4120   42.2820 C   0  0  0  0  0  0  0  0  0  0  0  0
   43.3540   31.2520   41.4400 C   0  0  0  0  0  0  0  0  0  0  0  0
   44.6980   31.3900   41.7630 C   0  0  0  0  0  0  0  0  0  0  0  0
   45.1900   30.7380   42.8370 N   0  0  0  0  0  0  0  0  0  0  0  0
   44.4180   29.9450   43.6180 C   0  0  0  0  0  0  0  0  0  0  0  0
   43.1270   29.7820   43.3480 N   0  0  0  0  0  0  0  0  0  0  0  0
   45.6210   32.2120   40.9990 C   0  0  0  0  0  0  0  0  0  0  0  0
   46.3270   33.1900   41.6490 C   0  0  0  0  0  0  0  0  0  0  0  0
   47.2310   34.0290   41.0200 C   0  0  0  0  0  0  0  0  0  0  0  0
   47.4190   33.8530   39.6520 C   0  0  0  0  0  0  0  0  0  0  0  0
   48.3040   34.6660   39.0100 N   0  0  0  0  0  0  0  0  0  0  0  0
   48.5080   34.5190   37.6820 C   0  0  0  0  0  0  0  0  0  0  0  0
   47.8400   33.5590   36.9490 C   0  0  0  0  0  0  0  0  0  0  0  0
   46.9480   32.7460   37.6200 C   0  0  0  0  0  0  0  0  0  0  0  0
   46.7240   32.8800   38.9770 C   0  0  0  0  0  0  0  0  0  0  0  0
   45.8470   32.0840   39.6470 C   0  0  0  0  0  0  0  0  0  0  0  0
   46.2764   28.4501   46.7964 H   0  0  0  0  0  0  0  0  0  0  0  0
   44.6391   28.4233   47.6097 H   0  0  0  0  0  0  0  0  0  0  0  0
   46.3480   29.3116   48.9025 H   0  0  0  0  0  0  0  0  0  0  0  0
   44.1565   31.3070   47.9347 H   0  0  0  0  0  0  0  0  0  0  0  0
   44.0602   30.4018   49.3888 H   0  0  0  0  0  0  0  0  0  0  0  0
   45.1322   32.8760   49.5456 H   0  0  0  0  0  0  0  0  0  0  0  0
   46.0737   31.6218   50.3527 H   0  0  0  0  0  0  0  0  0  0  0  0
   46.5530   31.2878   46.6234 H   0  0  0  0  0  0  0  0  0  0  0  0
   48.6767   31.0051   46.7555 H   0  0  0  0  0  0  0  0  0  0  0  0
   49.6385   31.8551   48.7699 H   0  0  0  0  0  0  0  0  0  0  0  0
   48.2814   31.3479   49.7461 H   0  0  0  0  0  0  0  0  0  0  0  0
   50.7786   30.0148   49.5428 H   0  0  0  0  0  0  0  0  0  0  0  0
   49.3089   29.2731   50.2025 H   0  0  0  0  0  0  0  0  0  0  0  0
   47.6529   28.6953   48.6084 H   0  0  0  0  0  0  0  0  0  0  0  0
   48.0386   28.5016   46.9302 H   0  0  0  0  0  0  0  0  0  0  0  0
   45.7049   28.4366   44.5718 H   0  0  0  0  0  0  0  0  0  0  0  0
   44.1252   30.5510   46.1258 H   0  0  0  0  0  0  0  0  0  0  0  0
   41.5027   30.2716   42.0655 H   0  0  0  0  0  0  0  0  0  0  0  0
   42.9144   31.7680   40.5737 H   0  0  0  0  0  0  0  0  0  0  0  0
   46.1667   33.3154   42.7300 H   0  0  0  0  0  0  0  0  0  0  0  0
   47.7782   34.8029   41.5783 H   0  0  0  0  0  0  0  0  0  0  0  0
   49.2241   35.1808   37.1728 H   0  0  0  0  0  0  0  0  0  0  0  0
   48.0121   33.4456   35.8685 H   0  0  0  0  0  0  0  0  0  0  0  0
   46.4021   31.9723   37.0603 H   0  0  0  0  0  0  0  0  0  0  0  0
   45.2991   31.3107   39.0885 H   0  0  0  0  0  0  0  0  0  0  0  0
  1  2  1  0
  2  3  1  0
  3  4  1  0
  5  4  1  0
  6  7  1  0
  6  2  1  0
  6  5  1  0
  7 11  1  0
  7  8  1  0
  8  9  1  0
 10  9  1  0
 11 10  1  0
 12 13  2  0
 13  1  1  0
 14 19  2  0
 15 16  2  0
 15 14  1  0
 16 17  1  0
 17 18  2  0
 18 12  1  0
 19 18  1  0
 20 21  2  0
 20 16  1  0
 22 21  1  0
 23 22  2  0
 24 23  1  0
 25 24  2  0
 26 27  2  0
 26 25  1  0
 27 28  1  0
 28 29  2  0
 28 23  1  0
 29 20  1  0
  1 30  1  0
  1 31  1  0
  2 32  1  1
  3 33  1  0
  3 34  1  0
  4 35  1  0
  4 36  1  0
  6 37  1  6
  7 38  1  6
  8 39  1  0
  8 40  1  0
  9 41  1  0
  9 42  1  0
 11 43  1  0
 11 44  1  0
 12 45  1  0
 13 46  1  0
 14 47  1  0
 15 48  1  0
 21 49  1  0
 22 50  1  0
 25 51  1  0
 26 52  1  0
 27 53  1  0
 29 54  1  0
M  ISO  8  30   8  31   8  32  13  33  13  34  13  35  13  36  13  37  13
M  ISO  8  38  13  39  13  40  13  41  13  42  13  43  13  44  13  47  14
M  ISO  7  48  14  49  14  50  14  51  14  52  14  53  14  54  14
M  END
>  <minimizedAffinity>  (1) 
-4.81257391

>  <minimizedRMSD>  (1) 
4.82641411

$$$$
