
     RDKit          3D

 42 44  0  0  1  0  0  0  0  0999 V2000
   46.1000   30.3820   47.4830 C   0  0  2  0  0  0  0  0  0  0  0  0
   44.8140   30.9220   48.0900 C   0  0  0  0  0  0  0  0  0  0  0  0
   45.3870   31.3260   49.4330 C   0  0  0  0  0  0  0  0  0  0  0  0
   46.6010   31.9090   49.1350 O   0  0  0  0  0  0  0  0  0  0  0  0
   47.0460   31.4390   47.9240 C   0  0  1  0  0  0  0  0  0  0  0  0
   48.4330   30.8930   48.0990 C   0  0  1  0  0  0  0  0  0  0  0  0
   49.0690   31.4060   49.3850 C   0  0  0  0  0  0  0  0  0  0  0  0
   49.7460   30.1660   49.9080 C   0  0  0  0  0  0  0  0  0  0  0  0
   49.7180   29.2260   48.8660 O   0  0  0  0  0  0  0  0  0  0  0  0
   48.4240   29.3980   48.3780 C   0  0  0  0  0  0  0  0  0  0  0  0
   46.0120   30.2150   46.0020 C   0  0  0  0  0  0  0  0  0  0  0  0
   46.9150   31.5800   44.1910 C   0  0  0  0  0  0  0  0  0  0  0  0
   46.1630   31.4770   45.2520 C   0  0  0  0  0  0  0  0  0  0  0  0
   46.0960   34.6260   42.3310 C   0  0  0  0  0  0  0  0  0  0  0  0
   47.3800   35.1960   42.1210 C   0  0  0  0  0  0  0  0  0  0  0  0
   48.4860   34.4970   42.6350 C   0  0  0  0  0  0  0  0  0  0  0  0
   48.2910   33.3350   43.2970 N   0  0  0  0  0  0  0  0  0  0  0  0
   47.0480   32.8280   43.4730 C   0  0  0  0  0  0  0  0  0  0  0  0
   45.9600   33.4470   43.0070 N   0  0  0  0  0  0  0  0  0  0  0  0
   49.8490   35.0640   42.4350 C   0  0  0  0  0  0  0  0  0  0  0  0
   46.3844   29.3671   47.7977 H   0  0  0  0  0  0  0  0  0  0  0  0
   44.4140   31.7799   47.5297 H   0  0  0  0  0  0  0  0  0  0  0  0
   43.9570   30.2328   48.1118 H   0  0  0  0  0  0  0  0  0  0  0  0
   44.7246   32.0453   49.9368 H   0  0  0  0  0  0  0  0  0  0  0  0
   45.4931   30.4693   50.1148 H   0  0  0  0  0  0  0  0  0  0  0  0
   47.0858   32.2331   47.1639 H   0  0  0  0  0  0  0  0  0  0  0  0
   48.9538   31.1800   47.1736 H   0  0  0  0  0  0  0  0  0  0  0  0
   49.7974   32.2046   49.1810 H   0  0  0  0  0  0  0  0  0  0  0  0
   48.3524   31.8538   50.0893 H   0  0  0  0  0  0  0  0  0  0  0  0
   50.7855   30.3906   50.1891 H   0  0  0  0  0  0  0  0  0  0  0  0
   49.2353   29.7820   50.8034 H   0  0  0  0  0  0  0  0  0  0  0  0
   47.6670   29.1291   49.1294 H   0  0  0  0  0  0  0  0  0  0  0  0
   48.1727   28.7701   47.5105 H   0  0  0  0  0  0  0  0  0  0  0  0
   46.8063   29.5243   45.6827 H   0  0  0  0  0  0  0  0  0  0  0  0
   45.0059   29.8288   45.7816 H   0  0  0  0  0  0  0  0  0  0  0  0
   47.4618   30.6950   43.8335 H   0  0  0  0  0  0  0  0  0  0  0  0
   45.6194   32.3670   45.6018 H   0  0  0  0  0  0  0  0  0  0  0  0
   45.2026   35.1390   41.9455 H   0  0  0  0  0  0  0  0  0  0  0  0
   47.5037   36.1450   41.5787 H   0  0  0  0  0  0  0  0  0  0  0  0
   50.3130   35.2570   43.4135 H   0  0  0  0  0  0  0  0  0  0  0  0
   50.4652   34.3476   41.8719 H   0  0  0  0  0  0  0  0  0  0  0  0
   49.7752   36.0061   41.8719 H   0  0  0  0  0  0  0  0  0  0  0  0
  1  5  1  0
  1  2  1  0
  2  3  1  0
  4  3  1  0
  5  6  1  0
  5  4  1  0
  6 10  1  0
  6  7  1  0
  7  8  1  0
  9  8  1  0
 10  9  1  0
 11  1  1  0
 12 13  2  0
 13 11  1  0
 14 19  2  0
 15 14  1  0
 15 16  2  0
 16 17  1  0
 17 18  2  0
 18 12  1  0
 19 18  1  0
 20 16  1  0
  1 21  1  1
  2 22  1  0
  2 23  1  0
  3 24  1  0
  3 25  1  0
  5 26  1  6
  6 27  1  6
  7 28  1  0
  7 29  1  0
  8 30  1  0
  8 31  1  0
 10 32  1  0
 10 33  1  0
 11 34  1  0
 11 35  1  0
 12 36  1  0
 13 37  1  0
 14 38  1  0
 15 39  1  0
 20 40  1  0
 20 41  1  0
 20 42  1  0
M  ISO  8  21  13  22  13  23  13  24  13  25  13  26  13  27  13  28  13
M  ISO  8  29  13  30  13  31  13  32  13  33  13  34   8  35   8  38  14
M  ISO  4  39  14  40   8  41   8  42   8
M  END
>  <minimizedAffinity>  (1) 
-4.79063749

>  <minimizedRMSD>  (1) 
0.413423002

$$$$
