
     RDKit          3D

 52 55  0  0  1  0  0  0  0  0999 V2000
   44.9120   29.3840   46.1840 C   0  0  0  0  0  0  0  0  0  0  0  0
   45.6370   29.8250   47.4100 C   0  0  2  0  0  0  0  0  0  0  0  0
   44.9060   30.9180   48.1740 C   0  0  0  0  0  0  0  0  0  0  0  0
   46.0690   31.3580   49.0460 C   0  0  0  0  0  0  0  0  0  0  0  0
   47.1530   31.3670   48.2050 O   0  0  0  0  0  0  0  0  0  0  0  0
   46.9220   30.5230   47.1510 C   0  0  1  0  0  0  0  0  0  0  0  0
   48.0610   29.5580   47.0490 C   0  0  1  0  0  0  0  0  0  0  0  0
   49.1920   29.9190   47.9950 C   0  0  0  0  0  0  0  0  0  0  0  0
   49.5870   28.5680   48.5430 C   0  0  0  0  0  0  0  0  0  0  0  0
   48.9510   27.6100   47.7410 O   0  0  0  0  0  0  0  0  0  0  0  0
   47.6850   28.1770   47.5960 C   0  0  0  0  0  0  0  0  0  0  0  0
   44.7550   30.0280   43.8370 C   0  0  0  0  0  0  0  0  0  0  0  0
   45.4470   29.9760   44.9380 C   0  0  0  0  0  0  0  0  0  0  0  0
   45.4490   30.7800   40.3250 C   0  0  0  0  0  0  0  0  0  0  0  0
   46.4460   31.8080   40.4470 C   0  0  0  0  0  0  0  0  0  0  0  0
   46.8310   32.1950   41.7240 C   0  0  0  0  0  0  0  0  0  0  0  0
   46.2360   31.5730   42.7680 N   0  0  0  0  0  0  0  0  0  0  0  0
   45.3040   30.6120   42.6350 C   0  0  0  0  0  0  0  0  0  0  0  0
   44.9070   30.2120   41.4340 N   0  0  0  0  0  0  0  0  0  0  0  0
   49.1300   32.8700   42.2470 C   0  0  0  0  0  0  0  0  0  0  0  0
   47.8360   33.2310   41.9190 C   0  0  0  0  0  0  0  0  0  0  0  0
   47.5300   34.5680   41.7850 C   0  0  0  0  0  0  0  0  0  0  0  0
   48.4420   35.5890   41.9580 C   0  0  0  0  0  0  0  0  0  0  0  0
   49.7430   35.2730   42.2860 C   0  0  0  0  0  0  0  0  0  0  0  0
   50.0320   33.9310   42.4170 C   0  0  0  0  0  0  0  0  0  0  0  0
   49.6530   31.2160   42.4490 S   0  0  0  0  0  0  0  0  0  0  0  0
   51.1780   31.2350   42.4140 O   0  0  0  0  0  0  0  0  0  0  0  0
   49.1820   30.6050   43.7370 O   0  0  0  0  0  0  0  0  0  0  0  0
   44.9872   28.2891   46.1097 H   0  0  0  0  0  0  0  0  0  0  0  0
   43.8707   29.7244   46.2833 H   0  0  0  0  0  0  0  0  0  0  0  0
   45.7460   28.8673   47.9401 H   0  0  0  0  0  0  0  0  0  0  0  0
   44.5483   31.7227   47.5149 H   0  0  0  0  0  0  0  0  0  0  0  0
   43.9879   30.6165   48.6996 H   0  0  0  0  0  0  0  0  0  0  0  0
   45.8879   32.3627   49.4557 H   0  0  0  0  0  0  0  0  0  0  0  0
   46.2175   30.6911   49.9081 H   0  0  0  0  0  0  0  0  0  0  0  0
   46.8517   31.0664   46.1972 H   0  0  0  0  0  0  0  0  0  0  0  0
   48.3272   29.5769   45.9819 H   0  0  0  0  0  0  0  0  0  0  0  0
   50.0271   30.3919   47.4574 H   0  0  0  0  0  0  0  0  0  0  0  0
   48.9068   30.6456   48.7700 H   0  0  0  0  0  0  0  0  0  0  0  0
   50.6785   28.4418   48.4919 H   0  0  0  0  0  0  0  0  0  0  0  0
   49.2894   28.4645   49.5969 H   0  0  0  0  0  0  0  0  0  0  0  0
   47.1598   28.2507   48.5597 H   0  0  0  0  0  0  0  0  0  0  0  0
   46.9950   27.6033   46.9597 H   0  0  0  0  0  0  0  0  0  0  0  0
   43.7336   29.6199   43.8213 H   0  0  0  0  0  0  0  0  0  0  0  0
   46.4672   30.3873   44.9424 H   0  0  0  0  0  0  0  0  0  0  0  0
   45.1226   30.4509   39.3274 H   0  0  0  0  0  0  0  0  0  0  0  0
   46.8908   32.2743   39.5556 H   0  0  0  0  0  0  0  0  0  0  0  0
   46.4959   34.8377   41.5243 H   0  0  0  0  0  0  0  0  0  0  0  0
   48.1357   36.6384   41.8361 H   0  0  0  0  0  0  0  0  0  0  0  0
   50.5086   36.0487   42.4351 H   0  0  0  0  0  0  0  0  0  0  0  0
   51.0672   33.6676   42.6795 H   0  0  0  0  0  0  0  0  0  0  0  0
   49.1160   30.4482   41.4495 H   0  0  0  0  0  0  0  0  0  0  0  0
  1  2  1  0
  2  3  1  0
  3  4  1  0
  5  4  1  0
  6  2  1  0
  6  5  1  0
  7  6  1  0
  7 11  1  0
  7  8  1  0
  8  9  1  0
 10  9  1  0
 11 10  1  0
 12 13  2  0
 13  1  1  0
 14 15  2  0
 14 19  1  0
 15 16  1  0
 16 21  1  0
 16 17  2  0
 18 17  1  0
 18 12  1  0
 19 18  2  0
 20 25  2  0
 20 26  1  0
 21 20  1  0
 22 21  2  0
 22 23  1  0
 23 24  2  0
 24 25  1  0
 26 28  2  0
 27 26  2  0
  1 29  1  0
  1 30  1  0
  2 31  1  1
  3 32  1  0
  3 33  1  0
  4 34  1  0
  4 35  1  0
  6 36  1  6
  7 37  1  6
  8 38  1  0
  8 39  1  0
  9 40  1  0
  9 41  1  0
 11 42  1  0
 11 43  1  0
 12 44  1  0
 13 45  1  0
 14 46  1  0
 15 47  1  0
 22 48  1  0
 23 49  1  0
 24 50  1  0
 25 51  1  0
 26 52  1  0
M  ISO  8  29   8  30   8  31  13  32  13  33  13  34  13  35  13  36  13
M  ISO  8  37  13  38  13  39  13  40  13  41  13  42  13  43  13  46  14
M  ISO  6  47  14  48  14  49  14  50  14  51  14  52  11
M  END
>  <minimizedAffinity>  (1) 
-4.65790892

>  <minimizedRMSD>  (1) 
2.68988585

$$$$
