
     RDKit          3D

 36 38  0  0  1  0  0  0  0  0999 V2000
   46.4340   34.1910   40.9450 C   0  0  0  0  0  0  0  0  0  0  0  0
   46.9640   34.8600   42.0370 C   0  0  0  0  0  0  0  0  0  0  0  0
   48.1810   35.4580   41.8840 C   0  0  0  0  0  0  0  0  0  0  0  0
   48.8670   35.4060   40.6880 C   0  0  0  0  0  0  0  0  0  0  0  0
   48.3370   34.7440   39.6180 C   0  0  0  0  0  0  0  0  0  0  0  0
   47.0910   34.1130   39.7220 C   0  0  0  0  0  0  0  0  0  0  0  0
   44.5490   35.8840   44.7500 C   0  0  0  0  0  0  0  0  0  0  0  0
   45.2840   35.8830   43.5610 C   0  0  0  0  0  0  0  0  0  0  0  0
   46.1950   34.8790   43.2600 C   0  0  0  0  0  0  0  0  0  0  0  0
   46.3020   33.9270   44.2040 N   0  0  0  0  0  0  0  0  0  0  0  0
   45.6010   33.9160   45.3520 C   0  0  0  0  0  0  0  0  0  0  0  0
   44.7220   34.8930   45.6300 N   0  0  0  0  0  0  0  0  0  0  0  0
   45.1920   33.5700   41.0670 O   0  0  0  0  0  0  0  0  0  0  0  0
   46.4780   33.4260   38.7000 O   0  0  0  0  0  0  0  0  0  0  0  0
   46.5730   32.8590   36.3980 N   0  0  0  0  0  0  0  0  0  0  0  0
   47.0400   32.5950   37.7530 C   0  0  1  0  0  0  0  0  0  0  0  0
   48.5490   32.6670   37.6900 C   0  0  0  0  0  0  0  0  0  0  0  0
   49.0340   33.4840   36.5930 N   0  0  0  0  0  0  0  0  0  0  0  0
   48.7600   32.7630   35.3680 C   0  0  0  0  0  0  0  0  0  0  0  0
   47.4060   32.0610   35.5130 C   0  0  0  0  0  0  0  0  0  0  0  0
   48.6260   35.9946   42.7349 H   0  0  0  0  0  0  0  0  0  0  0  0
   49.8454   35.9002   40.5962 H   0  0  0  0  0  0  0  0  0  0  0  0
   48.8917   34.7060   38.6689 H   0  0  0  0  0  0  0  0  0  0  0  0
   43.8343   36.6935   44.9596 H   0  0  0  0  0  0  0  0  0  0  0  0
   45.1363   36.7023   42.8420 H   0  0  0  0  0  0  0  0  0  0  0  0
   45.7493   33.0973   46.0716 H   0  0  0  0  0  0  0  0  0  0  0  0
   44.8013   33.0886   40.2952 H   0  0  0  0  0  0  0  0  0  0  0  0
   45.5852   32.5834   36.3018 H   0  0  0  0  0  0  0  0  0  0  0  0
   46.7167   31.6004   38.0940 H   0  0  0  0  0  0  0  0  0  0  0  0
   48.9190   33.0931   38.6342 H   0  0  0  0  0  0  0  0  0  0  0  0
   48.9199   31.6444   37.5267 H   0  0  0  0  0  0  0  0  0  0  0  0
   48.5454   34.3907   36.5855 H   0  0  0  0  0  0  0  0  0  0  0  0
   49.5486   32.0166   35.1919 H   0  0  0  0  0  0  0  0  0  0  0  0
   48.7356   33.4593   34.5168 H   0  0  0  0  0  0  0  0  0  0  0  0
   46.9248   31.9729   34.5278 H   0  0  0  0  0  0  0  0  0  0  0  0
   47.5438   31.0518   35.9284 H   0  0  0  0  0  0  0  0  0  0  0  0
  1 13  1  0
  1  2  2  0
  2  9  1  0
  3  2  1  0
  4  3  2  0
  5  6  2  0
  5  4  1  0
  6  1  1  0
  7 12  2  0
  8  7  1  0
  9  8  2  0
  9 10  1  0
 10 11  2  0
 11 12  1  0
 14  6  1  0
 15 16  1  0
 16 14  1  0
 17 16  1  0
 18 17  1  0
 19 20  1  0
 19 18  1  0
 20 15  1  0
  3 21  1  0
  4 22  1  0
  5 23  1  0
  7 24  1  0
  8 25  1  0
 11 26  1  0
 13 27  1  0
 15 28  1  0
 16 29  1  1
 17 30  1  0
 17 31  1  0
 18 32  1  0
 19 33  1  0
 19 34  1  0
 20 35  1  0
 20 36  1  0
M  ISO  8  21  14  22  14  23  14  24  14  25  14  26  14  27   3  28   5
M  ISO  8  29  13  30  13  31  13  32   5  33  13  34  13  35  13  36  13
M  END
>  <minimizedAffinity>  (1) 
-5.82515097

>  <minimizedRMSD>  (1) 
0.75737834

$$$$
