
     RDKit          3D

 38 41  0  0  0  0  0  0  0  0999 V2000
   46.3340   33.9670   41.0100 C   0  0  0  0  0  0  0  0  0  0  0  0
   46.8460   34.7690   42.0110 C   0  0  0  0  0  0  0  0  0  0  0  0
   48.0190   35.4070   41.7570 C   0  0  0  0  0  0  0  0  0  0  0  0
   48.6800   35.2650   40.5460 C   0  0  0  0  0  0  0  0  0  0  0  0
   48.1660   34.4690   39.5620 C   0  0  0  0  0  0  0  0  0  0  0  0
   46.9710   33.7990   39.7810 C   0  0  0  0  0  0  0  0  0  0  0  0
   44.5280   36.0060   44.7130 C   0  0  0  0  0  0  0  0  0  0  0  0
   45.2330   35.9330   43.5130 C   0  0  0  0  0  0  0  0  0  0  0  0
   46.1020   34.8720   43.2470 C   0  0  0  0  0  0  0  0  0  0  0  0
   46.2020   33.9470   44.2210 N   0  0  0  0  0  0  0  0  0  0  0  0
   45.5270   34.0060   45.3830 C   0  0  0  0  0  0  0  0  0  0  0  0
   44.6850   35.0350   45.6390 N   0  0  0  0  0  0  0  0  0  0  0  0
   45.1230   33.2850   41.2220 O   0  0  0  0  0  0  0  0  0  0  0  0
   46.3890   32.9820   38.8380 O   0  0  0  0  0  0  0  0  0  0  0  0
   46.9210   31.8620   38.2680 C   0  0  0  0  0  0  0  0  0  0  0  0
   47.7270   30.8850   38.7860 C   0  0  0  0  0  0  0  0  0  0  0  0
   48.1780   29.8130   38.0720 C   0  0  0  0  0  0  0  0  0  0  0  0
   47.8280   29.6600   36.7390 C   0  0  0  0  0  0  0  0  0  0  0  0
   47.0060   30.6430   36.1830 C   0  0  0  0  0  0  0  0  0  0  0  0
   46.7030   30.4210   34.8560 C   0  0  0  0  0  0  0  0  0  0  0  0
   45.8990   31.3350   34.2200 C   0  0  0  0  0  0  0  0  0  0  0  0
   45.4280   32.4260   34.9170 C   0  0  0  0  0  0  0  0  0  0  0  0
   45.7600   32.6030   36.2390 C   0  0  0  0  0  0  0  0  0  0  0  0
   46.5590   31.7210   36.9230 C   0  0  0  0  0  0  0  0  0  0  0  0
   48.4557   36.0532   42.5327 H   0  0  0  0  0  0  0  0  0  0  0  0
   49.6270   35.7983   40.3763 H   0  0  0  0  0  0  0  0  0  0  0  0
   48.6952   34.3601   38.6038 H   0  0  0  0  0  0  0  0  0  0  0  0
   43.8479   36.8490   44.9049 H   0  0  0  0  0  0  0  0  0  0  0  0
   45.1028   36.7255   42.7614 H   0  0  0  0  0  0  0  0  0  0  0  0
   45.6602   33.2113   46.1318 H   0  0  0  0  0  0  0  0  0  0  0  0
   44.7486   32.7080   40.5100 H   0  0  0  0  0  0  0  0  0  0  0  0
   48.0293   30.9687   39.8403 H   0  0  0  0  0  0  0  0  0  0  0  0
   48.8232   29.0656   38.5569 H   0  0  0  0  0  0  0  0  0  0  0  0
   48.1816   28.8034   36.1463 H   0  0  0  0  0  0  0  0  0  0  0  0
   47.0926   29.5404   34.3242 H   0  0  0  0  0  0  0  0  0  0  0  0
   45.6330   31.1969   33.1616 H   0  0  0  0  0  0  0  0  0  0  0  0
   44.7823   33.1599   34.4125 H   0  0  0  0  0  0  0  0  0  0  0  0
   45.3707   33.4848   36.7689 H   0  0  0  0  0  0  0  0  0  0  0  0
  1 13  1  0
  1  2  2  0
  2  9  1  0
  3  2  1  0
  4  3  2  0
  5  6  2  0
  5  4  1  0
  6  1  1  0
  7 12  2  0
  8  7  1  0
  9  8  2  0
  9 10  1  0
 10 11  2  0
 11 12  1  0
 14  6  1  0
 15 16  2  0
 15 14  1  0
 17 16  1  0
 18 17  2  0
 19 18  1  0
 19 24  2  0
 20 19  1  0
 21 20  2  0
 21 22  1  0
 22 23  2  0
 23 24  1  0
 24 15  1  0
  3 25  1  0
  4 26  1  0
  5 27  1  0
  7 28  1  0
  8 29  1  0
 11 30  1  0
 13 31  1  0
 16 32  1  0
 17 33  1  0
 18 34  1  0
 20 35  1  0
 21 36  1  0
 22 37  1  0
 23 38  1  0
M  ISO  8  25  14  26  14  27  14  28  14  29  14  30  14  31   3  32  14
M  ISO  6  33  14  34  14  35  14  36  14  37  14  38  14
M  END
>  <minimizedAffinity>  (1) 
-5.78610945

>  <minimizedRMSD>  (1) 
1.45645905

$$$$
