
     RDKit          3D

 33 35  0  0  1  0  0  0  0  0999 V2000
   46.4340   34.0590   41.0120 C   0  0  0  0  0  0  0  0  0  0  0  0
   46.9230   34.8300   42.0540 C   0  0  0  0  0  0  0  0  0  0  0  0
   48.0970   35.4800   41.8520 C   0  0  0  0  0  0  0  0  0  0  0  0
   48.7920   35.3870   40.6590 C   0  0  0  0  0  0  0  0  0  0  0  0
   48.2990   34.6230   39.6410 C   0  0  0  0  0  0  0  0  0  0  0  0
   47.1030   33.9410   39.8000 C   0  0  0  0  0  0  0  0  0  0  0  0
   44.5160   35.9600   44.7340 C   0  0  0  0  0  0  0  0  0  0  0  0
   45.2550   35.9250   43.5380 C   0  0  0  0  0  0  0  0  0  0  0  0
   46.1550   34.8880   43.2730 C   0  0  0  0  0  0  0  0  0  0  0  0
   46.2420   33.9600   44.2440 N   0  0  0  0  0  0  0  0  0  0  0  0
   45.5430   33.9820   45.3890 C   0  0  0  0  0  0  0  0  0  0  0  0
   44.6740   34.9890   45.6370 N   0  0  0  0  0  0  0  0  0  0  0  0
   45.2320   33.3750   41.1770 O   0  0  0  0  0  0  0  0  0  0  0  0
   46.5280   33.1440   38.8240 O   0  0  0  0  0  0  0  0  0  0  0  0
   46.7790   33.2020   37.4610 C   0  0  2  0  0  0  0  0  0  0  0  0
   45.4040   33.2040   36.7760 C   0  0  0  0  0  0  0  0  0  0  0  0
   45.0100   31.7650   37.0030 C   0  0  0  0  0  0  0  0  0  0  0  0
   46.1510   31.0050   36.9920 O   0  0  0  0  0  0  0  0  0  0  0  0
   47.2490   31.8250   36.9710 C   0  0  0  0  0  0  0  0  0  0  0  0
   48.5090   36.1001   42.6618 H   0  0  0  0  0  0  0  0  0  0  0  0
   49.7410   35.9283   40.5312 H   0  0  0  0  0  0  0  0  0  0  0  0
   48.8518   34.5485   38.6929 H   0  0  0  0  0  0  0  0  0  0  0  0
   43.8115   36.7830   44.9247 H   0  0  0  0  0  0  0  0  0  0  0  0
   45.1227   36.7277   42.7977 H   0  0  0  0  0  0  0  0  0  0  0  0
   45.6768   33.1788   46.1285 H   0  0  0  0  0  0  0  0  0  0  0  0
   44.8725   32.8209   40.4395 H   0  0  0  0  0  0  0  0  0  0  0  0
   47.4662   34.0387   37.2668 H   0  0  0  0  0  0  0  0  0  0  0  0
   45.4794   33.4447   35.7053 H   0  0  0  0  0  0  0  0  0  0  0  0
   44.6918   33.9501   37.1582 H   0  0  0  0  0  0  0  0  0  0  0  0
   44.5049   31.6655   37.9751 H   0  0  0  0  0  0  0  0  0  0  0  0
   44.3205   31.4293   36.2144 H   0  0  0  0  0  0  0  0  0  0  0  0
   48.0295   31.4310   37.6385 H   0  0  0  0  0  0  0  0  0  0  0  0
   47.6764   31.8891   35.9594 H   0  0  0  0  0  0  0  0  0  0  0  0
  1 13  1  0
  1  2  2  0
  2  9  1  0
  3  2  1  0
  4  3  2  0
  5  6  2  0
  5  4  1  0
  6  1  1  0
  7 12  2  0
  8  7  1  0
  9  8  2  0
  9 10  1  0
 10 11  2  0
 11 12  1  0
 14  6  1  0
 15 14  1  0
 16 17  1  0
 16 15  1  0
 18 17  1  0
 19 18  1  0
 19 15  1  0
  3 20  1  0
  4 21  1  0
  5 22  1  0
  7 23  1  0
  8 24  1  0
 11 25  1  0
 13 26  1  0
 15 27  1  1
 16 28  1  0
 16 29  1  0
 17 30  1  0
 17 31  1  0
 19 32  1  0
 19 33  1  0
M  ISO  8  20  14  21  14  22  14  23  14  24  14  25  14  26   3  27  13
M  ISO  6  28  13  29  13  30  13  31  13  32  13  33  13
M  END
>  <minimizedAffinity>  (1) 
-5.41145372

>  <minimizedRMSD>  (1) 
1.15200663

$$$$
