
     RDKit          3D

 25 26  0  0  0  0  0  0  0  0999 V2000
   46.2970   34.0030   41.0040 C   0  0  0  0  0  0  0  0  0  0  0  0
   46.8230   34.7920   42.0150 C   0  0  0  0  0  0  0  0  0  0  0  0
   48.0100   35.3890   41.7630 C   0  0  0  0  0  0  0  0  0  0  0  0
   48.6820   35.2350   40.5670 C   0  0  0  0  0  0  0  0  0  0  0  0
   48.1570   34.4630   39.5890 C   0  0  0  0  0  0  0  0  0  0  0  0
   46.9450   33.8240   39.7860 C   0  0  0  0  0  0  0  0  0  0  0  0
   44.5260   36.0220   44.7300 C   0  0  0  0  0  0  0  0  0  0  0  0
   45.2280   35.9680   43.5070 C   0  0  0  0  0  0  0  0  0  0  0  0
   46.0740   34.9100   43.2470 C   0  0  0  0  0  0  0  0  0  0  0  0
   46.1630   33.9710   44.2330 N   0  0  0  0  0  0  0  0  0  0  0  0
   45.4900   34.0310   45.3950 C   0  0  0  0  0  0  0  0  0  0  0  0
   44.6730   35.0580   45.6400 N   0  0  0  0  0  0  0  0  0  0  0  0
   45.0780   33.3670   41.2110 O   0  0  0  0  0  0  0  0  0  0  0  0
   46.3270   33.0100   38.8400 O   0  0  0  0  0  0  0  0  0  0  0  0
   46.4260   33.1750   37.4680 C   0  0  0  0  0  0  0  0  0  0  0  0
   48.4581   36.0228   42.5424 H   0  0  0  0  0  0  0  0  0  0  0  0
   49.6459   35.7410   40.4095 H   0  0  0  0  0  0  0  0  0  0  0  0
   48.6933   34.3426   38.6362 H   0  0  0  0  0  0  0  0  0  0  0  0
   43.8516   36.8666   44.9346 H   0  0  0  0  0  0  0  0  0  0  0  0
   45.1008   36.7679   42.7627 H   0  0  0  0  0  0  0  0  0  0  0  0
   45.6124   33.2344   46.1436 H   0  0  0  0  0  0  0  0  0  0  0  0
   44.6884   32.7999   40.4992 H   0  0  0  0  0  0  0  0  0  0  0  0
   46.9806   34.0993   37.2489 H   0  0  0  0  0  0  0  0  0  0  0  0
   46.9582   32.3162   37.0329 H   0  0  0  0  0  0  0  0  0  0  0  0
   45.4178   33.2404   37.0329 H   0  0  0  0  0  0  0  0  0  0  0  0
  1 13  1  0
  1  2  2  0
  2  9  1  0
  3  2  1  0
  4  3  2  0
  5  6  2  0
  5  4  1  0
  6  1  1  0
  7 12  2  0
  8  7  1  0
  9  8  2  0
  9 10  1  0
 10 11  2  0
 11 12  1  0
 14  6  1  0
 15 14  1  0
  3 16  1  0
  4 17  1  0
  5 18  1  0
  7 19  1  0
  8 20  1  0
 11 21  1  0
 13 22  1  0
 15 23  1  0
 15 24  1  0
 15 25  1  0
M  ISO  8  16  14  17  14  18  14  19  14  20  14  21  14  22   3  23   8
M  ISO  2  24   8  25   8
M  END
>  <minimizedAffinity>  (1) 
-5.07278824

>  <minimizedRMSD>  (1) 
0.171467721

$$$$
