
     RDKit          3D

 39 42  0  0  0  0  0  0  0  0999 V2000
   46.4230   33.6340   41.2020 C   0  0  0  0  0  0  0  0  0  0  0  0
   46.8270   34.6330   42.0820 C   0  0  0  0  0  0  0  0  0  0  0  0
   47.8860   35.3840   41.7170 C   0  0  0  0  0  0  0  0  0  0  0  0
   48.5520   35.1830   40.5220 C   0  0  0  0  0  0  0  0  0  0  0  0
   48.1420   34.1920   39.6590 C   0  0  0  0  0  0  0  0  0  0  0  0
   47.0530   33.3900   39.9910 C   0  0  0  0  0  0  0  0  0  0  0  0
   44.5050   35.9340   44.7540 C   0  0  0  0  0  0  0  0  0  0  0  0
   45.2090   35.8070   43.5560 C   0  0  0  0  0  0  0  0  0  0  0  0
   46.0860   34.7860   43.3110 C   0  0  0  0  0  0  0  0  0  0  0  0
   46.2120   33.9000   44.3420 N   0  0  0  0  0  0  0  0  0  0  0  0
   45.5420   34.0040   45.5040 C   0  0  0  0  0  0  0  0  0  0  0  0
   44.6840   35.0250   45.7120 N   0  0  0  0  0  0  0  0  0  0  0  0
   45.3310   32.8240   41.5250 O   0  0  0  0  0  0  0  0  0  0  0  0
   46.6070   32.3910   39.1650 O   0  0  0  0  0  0  0  0  0  0  0  0
   46.6150   32.4170   37.8130 C   0  0  0  0  0  0  0  0  0  0  0  0
   45.6560   32.8290   36.9130 C   0  0  0  0  0  0  0  0  0  0  0  0
   45.9110   32.7530   35.5850 C   0  0  0  0  0  0  0  0  0  0  0  0
   47.1850   32.2380   35.2070 C   0  0  0  0  0  0  0  0  0  0  0  0
   47.9960   31.8720   36.8060 S   0  0  0  0  0  0  0  0  0  0  0  0
   47.6900   32.0590   33.8920 N   0  0  0  0  0  0  0  0  0  0  0  0
   48.5260   32.9060   33.2810 C   0  0  0  0  0  0  0  0  0  0  0  0
   48.9030   32.5490   31.9900 C   0  0  0  0  0  0  0  0  0  0  0  0
   48.4390   31.3970   31.3920 C   0  0  0  0  0  0  0  0  0  0  0  0
   48.7900   31.0890   30.2240 O   0  0  0  0  0  0  0  0  0  0  0  0
   47.5970   30.5880   32.0650 N   0  0  0  0  0  0  0  0  0  0  0  0
   47.2280   30.9260   33.3110 C   0  0  0  0  0  0  0  0  0  0  0  0
   46.4420   30.1080   33.8550 O   0  0  0  0  0  0  0  0  0  0  0  0
   48.2309   36.1817   42.3913 H   0  0  0  0  0  0  0  0  0  0  0  0
   49.4120   35.8169   40.2602 H   0  0  0  0  0  0  0  0  0  0  0  0
   48.6735   34.0339   38.7090 H   0  0  0  0  0  0  0  0  0  0  0  0
   43.8110   36.7738   44.9058 H   0  0  0  0  0  0  0  0  0  0  0  0
   45.0516   36.5627   42.7724 H   0  0  0  0  0  0  0  0  0  0  0  0
   45.6947   33.2508   46.2910 H   0  0  0  0  0  0  0  0  0  0  0  0
   45.0409   32.1122   40.9010 H   0  0  0  0  0  0  0  0  0  0  0  0
   44.6907   33.2167   37.2706 H   0  0  0  0  0  0  0  0  0  0  0  0
   45.1718   33.0727   34.8357 H   0  0  0  0  0  0  0  0  0  0  0  0
   48.8909   33.8231   33.7666 H   0  0  0  0  0  0  0  0  0  0  0  0
   49.5892   33.2032   31.4321 H   0  0  0  0  0  0  0  0  0  0  0  0
   47.2422   29.7242   31.6304 H   0  0  0  0  0  0  0  0  0  0  0  0
  1 13  1  0
  1  2  2  0
  2  9  1  0
  3  2  1  0
  4  3  2  0
  5  6  2  0
  5  4  1  0
  6  1  1  0
  7 12  2  0
  8  7  1  0
  9  8  2  0
  9 10  1  0
 10 11  2  0
 11 12  1  0
 14  6  1  0
 15 14  1  0
 16 15  2  0
 17 16  1  0
 18 17  2  0
 18 19  1  0
 19 15  1  0
 20 18  1  0
 21 20  1  0
 22 21  2  0
 23 22  1  0
 23 25  1  0
 24 23  2  0
 25 26  1  0
 26 27  2  0
 26 20  1  0
  3 28  1  0
  4 29  1  0
  5 30  1  0
  7 31  1  0
  8 32  1  0
 11 33  1  0
 13 34  1  0
 16 35  1  0
 17 36  1  0
 21 37  1  0
 22 38  1  0
 25 39  1  0
M  ISO  8  28  14  29  14  30  14  31  14  32  14  33  14  34   3  35  14
M  ISO  4  36  14  37  14  38  14  39   9
M  END
>  <minimizedAffinity>  (1) 
-6.79937315

>  <minimizedRMSD>  (1) 
0.544758677

$$$$
