
     RDKit          3D

 38 41  0  0  0  0  0  0  0  0999 V2000
   46.4320   33.6140   41.1960 C   0  0  0  0  0  0  0  0  0  0  0  0
   46.8140   34.6130   42.0610 C   0  0  0  0  0  0  0  0  0  0  0  0
   47.8760   35.3850   41.6830 C   0  0  0  0  0  0  0  0  0  0  0  0
   48.5470   35.1830   40.4890 C   0  0  0  0  0  0  0  0  0  0  0  0
   48.1550   34.1840   39.6380 C   0  0  0  0  0  0  0  0  0  0  0  0
   47.0760   33.3700   39.9800 C   0  0  0  0  0  0  0  0  0  0  0  0
   44.5100   35.9390   44.7310 C   0  0  0  0  0  0  0  0  0  0  0  0
   45.2040   35.8160   43.5210 C   0  0  0  0  0  0  0  0  0  0  0  0
   46.0790   34.7770   43.2920 C   0  0  0  0  0  0  0  0  0  0  0  0
   46.2070   33.8950   44.3260 N   0  0  0  0  0  0  0  0  0  0  0  0
   45.5460   34.0020   45.4940 C   0  0  0  0  0  0  0  0  0  0  0  0
   44.6920   35.0360   45.6870 N   0  0  0  0  0  0  0  0  0  0  0  0
   45.3600   32.8020   41.5330 O   0  0  0  0  0  0  0  0  0  0  0  0
   46.6320   32.3530   39.1730 O   0  0  0  0  0  0  0  0  0  0  0  0
   46.6550   32.3490   37.8260 C   0  0  0  0  0  0  0  0  0  0  0  0
   45.6390   32.5990   36.9260 C   0  0  0  0  0  0  0  0  0  0  0  0
   45.8950   32.5390   35.5950 C   0  0  0  0  0  0  0  0  0  0  0  0
   47.2220   32.2140   35.2160 C   0  0  0  0  0  0  0  0  0  0  0  0
   48.0830   32.0020   36.8000 S   0  0  0  0  0  0  0  0  0  0  0  0
   47.8700   32.0570   33.9230 C   0  0  0  0  0  0  0  0  0  0  0  0
   47.5400   30.9840   33.1580 C   0  0  0  0  0  0  0  0  0  0  0  0
   48.2270   30.9390   31.9380 C   0  0  0  0  0  0  0  0  0  0  0  0
   49.1550   31.9170   31.5730 C   0  0  0  0  0  0  0  0  0  0  0  0
   49.4310   32.9770   32.4150 C   0  0  0  0  0  0  0  0  0  0  0  0
   48.7550   33.0110   33.6030 N   0  0  0  0  0  0  0  0  0  0  0  0
   48.2090   36.1941   42.3497 H   0  0  0  0  0  0  0  0  0  0  0  0
   49.3980   35.8271   40.2228 H   0  0  0  0  0  0  0  0  0  0  0  0
   48.6888   34.0247   38.6895 H   0  0  0  0  0  0  0  0  0  0  0  0
   43.8178   36.7793   44.8885 H   0  0  0  0  0  0  0  0  0  0  0  0
   45.0465   36.5679   42.7337 H   0  0  0  0  0  0  0  0  0  0  0  0
   45.6983   33.2546   46.2866 H   0  0  0  0  0  0  0  0  0  0  0  0
   45.0745   32.0792   40.9197 H   0  0  0  0  0  0  0  0  0  0  0  0
   44.6289   32.8451   37.2853 H   0  0  0  0  0  0  0  0  0  0  0  0
   45.1120   32.7329   34.8471 H   0  0  0  0  0  0  0  0  0  0  0  0
   46.8057   30.2252   33.4662 H   0  0  0  0  0  0  0  0  0  0  0  0
   48.0294   30.1073   31.2457 H   0  0  0  0  0  0  0  0  0  0  0  0
   49.6716   31.8425   30.6047 H   0  0  0  0  0  0  0  0  0  0  0  0
   50.1590   33.7555   32.1430 H   0  0  0  0  0  0  0  0  0  0  0  0
  1 13  1  0
  1  2  2  0
  2  9  1  0
  3  2  1  0
  4  3  2  0
  5  6  2  0
  5  4  1  0
  6  1  1  0
  7 12  2  0
  8  7  1  0
  9  8  2  0
  9 10  1  0
 10 11  2  0
 11 12  1  0
 14  6  1  0
 15 14  1  0
 16 15  2  0
 17 16  1  0
 18 17  2  0
 18 19  1  0
 19 15  1  0
 20 18  1  0
 21 20  2  0
 22 21  1  0
 23 22  2  0
 23 24  1  0
 24 25  2  0
 25 20  1  0
  3 26  1  0
  4 27  1  0
  5 28  1  0
  7 29  1  0
  8 30  1  0
 11 31  1  0
 13 32  1  0
 16 33  1  0
 17 34  1  0
 21 35  1  0
 22 36  1  0
 23 37  1  0
 24 38  1  0
M  ISO  8  26  14  27  14  28  14  29  14  30  14  31  14  32   3  33  14
M  ISO  5  34  14  35  14  36  14  37  14  38  14
M  END
>  <minimizedAffinity>  (1) 
-6.42477798

>  <minimizedRMSD>  (1) 
0.655228853

$$$$
