
     RDKit          3D

 44 47  0  0  1  0  0  0  0  0999 V2000
   48.0340   33.3020   43.2380 N   0  0  0  0  0  0  0  0  0  0  0  0
   49.2300   33.3710   42.5250 C   0  0  0  0  0  0  0  0  0  0  0  0
   50.3970   33.0390   42.8480 O   0  0  0  0  0  0  0  0  0  0  0  0
   46.3140   32.1890   44.6140 C   0  0  1  0  0  0  0  0  0  0  0  0
   46.4600   31.3980   43.4650 C   0  0  0  0  0  0  0  0  0  0  0  0
   47.6780   32.1840   44.0380 C   0  0  1  0  0  0  0  0  0  0  0  0
   45.0430   33.9840   43.2200 C   0  0  0  0  0  0  0  0  0  0  0  0
   45.5380   33.5050   44.4800 C   0  0  0  0  0  0  0  0  0  0  0  0
   45.3100   34.2910   45.5870 C   0  0  0  0  0  0  0  0  0  0  0  0
   44.6420   35.4570   45.4450 N   0  0  0  0  0  0  0  0  0  0  0  0
   44.1810   35.8960   44.2490 C   0  0  0  0  0  0  0  0  0  0  0  0
   44.3930   35.1240   43.0960 N   0  0  0  0  0  0  0  0  0  0  0  0
   49.2150   33.9250   41.1110 C   0  0  2  0  0  0  0  0  0  0  0  0
   48.7470   35.4220   40.9560 C   0  0  0  0  0  0  0  0  0  0  0  0
   47.9590   34.2680   40.4360 C   0  0  1  0  0  0  0  0  0  0  0  0
   47.8970   34.0810   38.9380 C   0  0  0  0  0  0  0  0  0  0  0  0
   48.4990   34.8480   38.2020 O   0  0  0  0  0  0  0  0  0  0  0  0
   47.0830   32.9370   38.3860 C   0  0  0  0  0  0  0  0  0  0  0  0
   45.7680   32.7710   39.1160 C   0  0  0  0  0  0  0  0  0  0  0  0
   44.9860   31.7330   38.3400 C   0  0  0  0  0  0  0  0  0  0  0  0
   44.7040   32.1320   37.0550 O   0  0  0  0  0  0  0  0  0  0  0  0
   45.3910   33.2450   36.6300 C   0  0  0  0  0  0  0  0  0  0  0  0
   46.8690   33.0990   36.8980 C   0  0  0  0  0  0  0  0  0  0  0  0
   47.3804   34.0961   43.1821 H   0  0  0  0  0  0  0  0  0  0  0  0
   45.9133   31.9647   45.6136 H   0  0  0  0  0  0  0  0  0  0  0  0
   45.9980   31.7124   42.5175 H   0  0  0  0  0  0  0  0  0  0  0  0
   46.2601   30.3463   43.2122 H   0  0  0  0  0  0  0  0  0  0  0  0
   48.6914   31.9841   44.4162 H   0  0  0  0  0  0  0  0  0  0  0  0
   45.2134   33.3740   42.3206 H   0  0  0  0  0  0  0  0  0  0  0  0
   45.6681   33.9730   46.5773 H   0  0  0  0  0  0  0  0  0  0  0  0
   43.6430   36.8531   44.1818 H   0  0  0  0  0  0  0  0  0  0  0  0
   50.0795   33.3059   40.8294 H   0  0  0  0  0  0  0  0  0  0  0  0
   48.3947   35.9898   41.8298 H   0  0  0  0  0  0  0  0  0  0  0  0
   49.1701   36.3478   40.5390 H   0  0  0  0  0  0  0  0  0  0  0  0
   46.9170   33.9452   40.5775 H   0  0  0  0  0  0  0  0  0  0  0  0
   47.6582   32.0141   38.5518 H   0  0  0  0  0  0  0  0  0  0  0  0
   45.9437   32.4258   40.1456 H   0  0  0  0  0  0  0  0  0  0  0  0
   45.2202   33.7228   39.1793 H   0  0  0  0  0  0  0  0  0  0  0  0
   45.5764   30.8058   38.2989 H   0  0  0  0  0  0  0  0  0  0  0  0
   44.0278   31.5827   38.8589 H   0  0  0  0  0  0  0  0  0  0  0  0
   45.0131   34.1282   37.1659 H   0  0  0  0  0  0  0  0  0  0  0  0
   45.2394   33.3598   35.5466 H   0  0  0  0  0  0  0  0  0  0  0  0
   47.2542   32.2136   36.3710 H   0  0  0  0  0  0  0  0  0  0  0  0
   47.4028   33.9915   36.5396 H   0  0  0  0  0  0  0  0  0  0  0  0
  1  6  1  0
  2  3  2  0
  2  1  1  0
  5  6  1  0
  5  4  1  0
  6  4  1  0
  7  8  2  0
  8  4  1  0
  8  9  1  0
 10  9  2  0
 11 10  1  0
 12  7  1  0
 12 11  2  0
 13  2  1  0
 14 13  1  0
 15 14  1  0
 15 13  1  0
 16 15  1  0
 17 16  2  0
 18 16  1  0
 18 19  1  0
 20 19  1  0
 21 20  1  0
 22 23  1  0
 22 21  1  0
 23 18  1  0
  1 24  1  0
  4 25  1  1
  5 26  1  0
  5 27  1  0
  6 28  1  1
  7 29  1  0
  9 30  1  0
 11 31  1  0
 13 32  1  6
 14 33  1  0
 14 34  1  0
 15 35  1  1
 18 36  1  0
 19 37  1  0
 19 38  1  0
 20 39  1  0
 20 40  1  0
 22 41  1  0
 22 42  1  0
 23 43  1  0
 23 44  1  0
M  ISO  8  25  13  26  13  27  13  28  13  29  14  30  14  31  14  32  13
M  ISO  8  33  13  34  13  35  13  36  13  37  13  38  13  39  13  40  13
M  ISO  4  41  13  42  13  43  13  44  13
M  END
>  <minimizedAffinity>  (1) 
-4.89696312

>  <minimizedRMSD>  (1) 
0.398030877

$$$$
