
     RDKit          3D

 30 32  0  0  0  0  0  0  0  0999 V2000
   46.5590   33.5830   41.3520 C   0  0  0  0  0  0  0  0  0  0  0  0
   46.8810   34.6410   42.1920 C   0  0  0  0  0  0  0  0  0  0  0  0
   47.8950   35.4520   41.8100 C   0  0  0  0  0  0  0  0  0  0  0  0
   48.5980   35.2580   40.6340 C   0  0  0  0  0  0  0  0  0  0  0  0
   48.2770   34.2140   39.8080 C   0  0  0  0  0  0  0  0  0  0  0  0
   47.2430   33.3520   40.1570 C   0  0  0  0  0  0  0  0  0  0  0  0
   44.4820   35.9300   44.7990 C   0  0  0  0  0  0  0  0  0  0  0  0
   45.2160   35.8100   43.6120 C   0  0  0  0  0  0  0  0  0  0  0  0
   46.1130   34.7910   43.4010 C   0  0  0  0  0  0  0  0  0  0  0  0
   46.2190   33.9210   44.4470 N   0  0  0  0  0  0  0  0  0  0  0  0
   45.5190   34.0240   45.5920 C   0  0  0  0  0  0  0  0  0  0  0  0
   44.6500   35.0350   45.7640 N   0  0  0  0  0  0  0  0  0  0  0  0
   45.5270   32.7190   41.6950 O   0  0  0  0  0  0  0  0  0  0  0  0
   46.8680   32.2830   39.3730 O   0  0  0  0  0  0  0  0  0  0  0  0
   46.6430   32.3200   38.0500 C   0  0  0  0  0  0  0  0  0  0  0  0
   45.5370   32.7680   37.3540 C   0  0  0  0  0  0  0  0  0  0  0  0
   45.5310   32.7080   35.9910 C   0  0  0  0  0  0  0  0  0  0  0  0
   46.7010   32.1720   35.3750 C   0  0  0  0  0  0  0  0  0  0  0  0
   47.7900   31.7630   36.7880 S   0  0  0  0  0  0  0  0  0  0  0  0
   46.9760   31.9910   34.0620 O   0  0  0  0  0  0  0  0  0  0  0  0
   48.1705   36.2967   42.4585 H   0  0  0  0  0  0  0  0  0  0  0  0
   49.4150   35.9427   40.3626 H   0  0  0  0  0  0  0  0  0  0  0  0
   48.8345   34.0579   38.8727 H   0  0  0  0  0  0  0  0  0  0  0  0
   43.7719   36.7598   44.9301 H   0  0  0  0  0  0  0  0  0  0  0  0
   45.0688   36.5590   42.8199 H   0  0  0  0  0  0  0  0  0  0  0  0
   45.6584   33.2789   46.3891 H   0  0  0  0  0  0  0  0  0  0  0  0
   45.2948   31.9638   41.0985 H   0  0  0  0  0  0  0  0  0  0  0  0
   44.6676   33.1701   37.8947 H   0  0  0  0  0  0  0  0  0  0  0  0
   44.6708   33.0541   35.3991 H   0  0  0  0  0  0  0  0  0  0  0  0
   47.8439   31.6020   33.7871 H   0  0  0  0  0  0  0  0  0  0  0  0
  1 13  1  0
  1  2  2  0
  2  9  1  0
  3  2  1  0
  4  3  2  0
  5  6  2  0
  5  4  1  0
  6  1  1  0
  7 12  2  0
  8  7  1  0
  9  8  2  0
  9 10  1  0
 10 11  2  0
 11 12  1  0
 14  6  1  0
 15 14  1  0
 16 15  2  0
 17 16  1  0
 18 17  2  0
 18 19  1  0
 19 15  1  0
 20 18  1  0
  3 21  1  0
  4 22  1  0
  5 23  1  0
  7 24  1  0
  8 25  1  0
 11 26  1  0
 13 27  1  0
 16 28  1  0
 17 29  1  0
 20 30  1  0
M  ISO  8  21  14  22  14  23  14  24  14  25  14  26  14  27   3  28  14
M  ISO  2  29  14  30   3
M  END
>  <minimizedAffinity>  (1) 
-5.30346346

>  <minimizedRMSD>  (1) 
0.0765284598

$$$$
