
     RDKit          3D

 30 32  0  0  0  0  0  0  0  0999 V2000
   46.4310   33.5770   41.3240 C   0  0  0  0  0  0  0  0  0  0  0  0
   46.7870   34.6080   42.1740 C   0  0  0  0  0  0  0  0  0  0  0  0
   47.8390   35.3890   41.7900 C   0  0  0  0  0  0  0  0  0  0  0  0
   48.5260   35.1670   40.6020 C   0  0  0  0  0  0  0  0  0  0  0  0
   48.1560   34.1390   39.7720 C   0  0  0  0  0  0  0  0  0  0  0  0
   47.0880   33.3160   40.1270 C   0  0  0  0  0  0  0  0  0  0  0  0
   44.4820   35.9470   44.8220 C   0  0  0  0  0  0  0  0  0  0  0  0
   45.1760   35.8270   43.6080 C   0  0  0  0  0  0  0  0  0  0  0  0
   46.0440   34.7910   43.3930 C   0  0  0  0  0  0  0  0  0  0  0  0
   46.1630   33.9140   44.4410 N   0  0  0  0  0  0  0  0  0  0  0  0
   45.5050   34.0220   45.5970 C   0  0  0  0  0  0  0  0  0  0  0  0
   44.6560   35.0510   45.7850 N   0  0  0  0  0  0  0  0  0  0  0  0
   45.3650   32.7500   41.6670 O   0  0  0  0  0  0  0  0  0  0  0  0
   46.6770   32.2710   39.3340 O   0  0  0  0  0  0  0  0  0  0  0  0
   46.6510   32.2720   37.9750 C   0  0  0  0  0  0  0  0  0  0  0  0
   45.6990   32.7430   37.0930 C   0  0  0  0  0  0  0  0  0  0  0  0
   45.9330   32.6140   35.7710 C   0  0  0  0  0  0  0  0  0  0  0  0
   47.1480   31.9980   35.3640 C   0  0  0  0  0  0  0  0  0  0  0  0
   47.9640   31.6030   36.9540 S   0  0  0  0  0  0  0  0  0  0  0  0
   47.5760   31.7670   33.5580 S   0  0  0  0  0  0  0  0  0  0  0  0
   48.1524   36.2190   42.4403 H   0  0  0  0  0  0  0  0  0  0  0  0
   49.3690   35.8177   40.3265 H   0  0  0  0  0  0  0  0  0  0  0  0
   48.6991   33.9651   38.8314 H   0  0  0  0  0  0  0  0  0  0  0  0
   43.7902   36.7883   44.9759 H   0  0  0  0  0  0  0  0  0  0  0  0
   45.0200   36.5764   42.8180 H   0  0  0  0  0  0  0  0  0  0  0  0
   45.6549   33.2757   46.3911 H   0  0  0  0  0  0  0  0  0  0  0  0
   45.1006   32.0085   41.0666 H   0  0  0  0  0  0  0  0  0  0  0  0
   44.7735   33.2114   37.4590 H   0  0  0  0  0  0  0  0  0  0  0  0
   45.2051   32.9748   35.0294 H   0  0  0  0  0  0  0  0  0  0  0  0
   48.7781   31.1182   33.4529 H   0  0  0  0  0  0  0  0  0  0  0  0
  1 13  1  0
  1  2  2  0
  2  9  1  0
  3  2  1  0
  4  3  2  0
  5  6  2  0
  5  4  1  0
  6  1  1  0
  7 12  2  0
  8  7  1  0
  9  8  2  0
  9 10  1  0
 10 11  2  0
 11 12  1  0
 14  6  1  0
 15 14  1  0
 16 15  2  0
 17 16  1  0
 18 17  2  0
 18 19  1  0
 19 15  1  0
 20 18  1  0
  3 21  1  0
  4 22  1  0
  5 23  1  0
  7 24  1  0
  8 25  1  0
 11 26  1  0
 13 27  1  0
 16 28  1  0
 17 29  1  0
 20 30  1  0
M  ISO  8  21  14  22  14  23  14  24  14  25  14  26  14  27   3  28  14
M  ISO  2  29  14  30  11
M  END
>  <minimizedAffinity>  (1) 
-5.29647779

>  <minimizedRMSD>  (1) 
0.204856485

$$$$
