
     RDKit          3D

 40 43  0  0  1  0  0  0  0  0999 V2000
   48.0530   33.2120   43.1290 N   0  0  0  0  0  0  0  0  0  0  0  0
   49.2260   33.2700   42.3800 C   0  0  0  0  0  0  0  0  0  0  0  0
   50.3770   32.8320   42.6260 O   0  0  0  0  0  0  0  0  0  0  0  0
   46.2620   32.0570   44.3770 C   0  0  1  0  0  0  0  0  0  0  0  0
   46.4080   31.3530   43.1740 C   0  0  0  0  0  0  0  0  0  0  0  0
   47.6380   32.0500   43.8320 C   0  0  1  0  0  0  0  0  0  0  0  0
   45.0310   33.9740   43.1120 C   0  0  0  0  0  0  0  0  0  0  0  0
   45.5350   33.4100   44.3310 C   0  0  0  0  0  0  0  0  0  0  0  0
   45.3680   34.1430   45.4920 C   0  0  0  0  0  0  0  0  0  0  0  0
   44.7480   35.3410   45.4220 N   0  0  0  0  0  0  0  0  0  0  0  0
   44.2770   35.8640   44.2590 C   0  0  0  0  0  0  0  0  0  0  0  0
   44.4290   35.1460   43.0690 N   0  0  0  0  0  0  0  0  0  0  0  0
   49.2010   33.9540   41.0240 C   0  0  2  0  0  0  0  0  0  0  0  0
   48.5620   35.3880   40.9750 C   0  0  0  0  0  0  0  0  0  0  0  0
   47.9420   34.1980   40.3140 C   0  0  1  0  0  0  0  0  0  0  0  0
   47.9800   34.1350   38.8040 C   0  0  0  0  0  0  0  0  0  0  0  0
   48.6500   34.9510   38.1820 O   0  0  0  0  0  0  0  0  0  0  0  0
   49.5990   31.6900   38.2340 Cl  0  0  0  0  0  0  0  0  0  0  0  0
   47.9210   31.9630   37.7510 C   0  0  0  0  0  0  0  0  0  0  0  0
   47.2380   33.1240   38.0530 C   0  0  0  0  0  0  0  0  0  0  0  0
   45.9450   33.1990   37.6160 C   0  0  0  0  0  0  0  0  0  0  0  0
   45.3410   32.1800   36.9120 C   0  0  0  0  0  0  0  0  0  0  0  0
   46.0140   31.0190   36.6060 C   0  0  0  0  0  0  0  0  0  0  0  0
   47.3180   30.9220   37.0360 C   0  0  0  0  0  0  0  0  0  0  0  0
   47.4584   34.0518   43.1751 H   0  0  0  0  0  0  0  0  0  0  0  0
   45.8294   31.7689   45.3464 H   0  0  0  0  0  0  0  0  0  0  0  0
   45.9787   31.7555   42.2446 H   0  0  0  0  0  0  0  0  0  0  0  0
   46.1794   30.3316   42.8358 H   0  0  0  0  0  0  0  0  0  0  0  0
   48.6349   31.7872   44.2156 H   0  0  0  0  0  0  0  0  0  0  0  0
   45.1515   33.4067   42.1773 H   0  0  0  0  0  0  0  0  0  0  0  0
   45.7336   33.7572   46.4551 H   0  0  0  0  0  0  0  0  0  0  0  0
   43.7798   36.8452   44.2542 H   0  0  0  0  0  0  0  0  0  0  0  0
   50.1496   33.4763   40.7376 H   0  0  0  0  0  0  0  0  0  0  0  0
   48.1064   35.8269   41.8749 H   0  0  0  0  0  0  0  0  0  0  0  0
   48.8854   36.3919   40.6627 H   0  0  0  0  0  0  0  0  0  0  0  0
   46.9411   33.7452   40.3699 H   0  0  0  0  0  0  0  0  0  0  0  0
   45.3645   34.1074   37.8347 H   0  0  0  0  0  0  0  0  0  0  0  0
   44.2967   32.2971   36.5870 H   0  0  0  0  0  0  0  0  0  0  0  0
   45.5318   30.2059   36.0436 H   0  0  0  0  0  0  0  0  0  0  0  0
   47.8950   30.0122   36.8142 H   0  0  0  0  0  0  0  0  0  0  0  0
  1  6  1  0
  2  3  2  0
  2  1  1  0
  5  6  1  0
  5  4  1  0
  6  4  1  0
  7  8  2  0
  8  4  1  0
  8  9  1  0
 10  9  2  0
 11 10  1  0
 12  7  1  0
 12 11  2  0
 13  2  1  0
 14 13  1  0
 15 14  1  0
 15 13  1  0
 16 15  1  0
 17 16  2  0
 19 20  2  0
 19 18  1  0
 20 16  1  0
 21 20  1  0
 22 21  2  0
 23 22  1  0
 23 24  2  0
 24 19  1  0
  1 25  1  0
  4 26  1  1
  5 27  1  0
  5 28  1  0
  6 29  1  1
  7 30  1  0
  9 31  1  0
 11 32  1  0
 13 33  1  6
 14 34  1  0
 14 35  1  0
 15 36  1  1
 21 37  1  0
 22 38  1  0
 23 39  1  0
 24 40  1  0
M  ISO  8  26  13  27  13  28  13  29  13  30  14  31  14  32  14  33  13
M  ISO  7  34  13  35  13  36  13  37  14  38  14  39  14  40  14
M  END
>  <minimizedAffinity>  (1) 
-4.88354969

>  <minimizedRMSD>  (1) 
1.21946025

$$$$
