
     RDKit          3D

 29 30  0  0  0  0  0  0  0  0999 V2000
   45.2910   34.7050   44.7980 C   0  0  0  0  0  0  0  0  0  0  0  0
   46.1580   34.5600   43.7170 C   0  0  0  0  0  0  0  0  0  0  0  0
   47.1110   33.5510   43.8060 C   0  0  0  0  0  0  0  0  0  0  0  0
   47.1600   32.7690   44.9070 N   0  0  0  0  0  0  0  0  0  0  0  0
   46.2960   32.9450   45.9360 C   0  0  0  0  0  0  0  0  0  0  0  0
   45.3700   33.9030   45.8870 N   0  0  0  0  0  0  0  0  0  0  0  0
   46.3960   32.0590   47.1200 C   0  0  0  0  0  0  0  0  0  0  0  0
   46.1940   30.6340   46.7240 C   0  0  0  0  0  0  0  0  0  0  0  0
   45.9620   29.7110   47.8700 C   0  0  0  0  0  0  0  0  0  0  0  0
   45.0660   30.2350   48.9500 C   0  0  0  0  0  0  0  0  0  0  0  0
   45.4280   31.6580   49.3320 C   0  0  0  0  0  0  0  0  0  0  0  0
   45.2760   32.4760   48.0700 C   0  0  0  0  0  0  0  0  0  0  0  0
   45.9830   35.4880   42.5840 C   0  0  0  0  0  0  0  0  0  0  0  0
   45.3910   36.6280   43.0910 F   0  0  0  0  0  0  0  0  0  0  0  0
   45.1570   34.9040   41.6550 F   0  0  0  0  0  0  0  0  0  0  0  0
   47.2520   35.7400   42.0340 F   0  0  0  0  0  0  0  0  0  0  0  0
   44.5223   35.4912   44.7664 H   0  0  0  0  0  0  0  0  0  0  0  0
   47.8226   33.3900   42.9828 H   0  0  0  0  0  0  0  0  0  0  0  0
   47.3876   32.1477   47.5879 H   0  0  0  0  0  0  0  0  0  0  0  0
   45.3215   30.5815   46.0561 H   0  0  0  0  0  0  0  0  0  0  0  0
   47.1234   30.3058   46.2357 H   0  0  0  0  0  0  0  0  0  0  0  0
   45.5129   28.7876   47.4756 H   0  0  0  0  0  0  0  0  0  0  0  0
   46.9451   29.5609   48.3401 H   0  0  0  0  0  0  0  0  0  0  0  0
   44.0259   30.2146   48.5926 H   0  0  0  0  0  0  0  0  0  0  0  0
   45.1877   29.5979   49.8384 H   0  0  0  0  0  0  0  0  0  0  0  0
   44.7483   32.0294   50.1131 H   0  0  0  0  0  0  0  0  0  0  0  0
   46.4499   31.7212   49.7341 H   0  0  0  0  0  0  0  0  0  0  0  0
   45.3603   33.5476   48.3037 H   0  0  0  0  0  0  0  0  0  0  0  0
   44.2916   32.3032   47.6105 H   0  0  0  0  0  0  0  0  0  0  0  0
  1  6  2  0
  2  3  2  0
  2  1  1  0
  3  4  1  0
  4  5  2  0
  5  7  1  0
  6  5  1  0
  7 12  1  0
  8  7  1  0
  8  9  1  0
  9 10  1  0
 10 11  1  0
 12 11  1  0
 13 14  1  0
 13  2  1  0
 15 13  1  0
 16 13  1  0
  1 17  1  0
  3 18  1  0
  7 19  1  0
  8 20  1  0
  8 21  1  0
  9 22  1  0
  9 23  1  0
 10 24  1  0
 10 25  1  0
 11 26  1  0
 11 27  1  0
 12 28  1  0
 12 29  1  0
M  ISO  8  17  14  18  14  19  13  20  13  21  13  22  13  23  13  24  13
M  ISO  5  25  13  26  13  27  13  28  13  29  13
M  END
>  <minimizedAffinity>  (1) 
-5.51956892

>  <minimizedRMSD>  (1) 
0.650878608

$$$$
