
     RDKit          3D

 23 24  0  0  0  0  0  0  0  0999 V2000
   45.2390   34.8180   44.7480 C   0  0  0  0  0  0  0  0  0  0  0  0
   46.1320   34.6120   43.6980 C   0  0  0  0  0  0  0  0  0  0  0  0
   47.0780   33.6110   43.8450 C   0  0  0  0  0  0  0  0  0  0  0  0
   47.1010   32.8790   44.9820 N   0  0  0  0  0  0  0  0  0  0  0  0
   46.2160   33.1050   45.9860 C   0  0  0  0  0  0  0  0  0  0  0  0
   45.2850   34.0740   45.8720 N   0  0  0  0  0  0  0  0  0  0  0  0
   46.2300   32.3160   47.2300 C   0  0  0  0  0  0  0  0  0  0  0  0
   45.0180   32.1260   47.8650 C   0  0  0  0  0  0  0  0  0  0  0  0
   44.9610   31.3960   49.0360 C   0  0  0  0  0  0  0  0  0  0  0  0
   46.1230   30.8640   49.5540 C   0  0  0  0  0  0  0  0  0  0  0  0
   47.3390   31.0490   48.9260 C   0  0  0  0  0  0  0  0  0  0  0  0
   47.4110   31.7870   47.7390 C   0  0  0  0  0  0  0  0  0  0  0  0
   45.9890   35.4920   42.5100 C   0  0  0  0  0  0  0  0  0  0  0  0
   45.3960   36.6650   42.9650 F   0  0  0  0  0  0  0  0  0  0  0  0
   45.1950   34.8740   41.5820 F   0  0  0  0  0  0  0  0  0  0  0  0
   47.2600   35.7250   41.9930 F   0  0  0  0  0  0  0  0  0  0  0  0
   44.4778   35.6069   44.6578 H   0  0  0  0  0  0  0  0  0  0  0  0
   47.8048   33.4130   43.0434 H   0  0  0  0  0  0  0  0  0  0  0  0
   44.0995   32.5556   47.4385 H   0  0  0  0  0  0  0  0  0  0  0  0
   44.0005   31.2408   49.5492 H   0  0  0  0  0  0  0  0  0  0  0  0
   46.0805   30.2808   50.4857 H   0  0  0  0  0  0  0  0  0  0  0  0
   48.2524   30.6156   49.3594 H   0  0  0  0  0  0  0  0  0  0  0  0
   48.3710   31.9435   47.2252 H   0  0  0  0  0  0  0  0  0  0  0  0
  1  6  2  0
  2  3  2  0
  2  1  1  0
  3  4  1  0
  4  5  2  0
  5  7  1  0
  6  5  1  0
  7 12  1  0
  7  8  2  0
  8  9  1  0
  9 10  2  0
 11 10  1  0
 12 11  2  0
 13 14  1  0
 13  2  1  0
 15 13  1  0
 16 13  1  0
  1 17  1  0
  3 18  1  0
  8 19  1  0
  9 20  1  0
 10 21  1  0
 11 22  1  0
 12 23  1  0
M  ISO  7  17  14  18  14  19  14  20  14  21  14  22  14  23  14
M  END
>  <minimizedAffinity>  (1) 
-5.37509298

>  <minimizedRMSD>  (1) 
0.757156789

$$$$
