
     RDKit          3D

 20 21  0  0  0  0  0  0  0  0999 V2000
   44.9660   34.9160   45.0630 C   0  0  0  0  0  0  0  0  0  0  0  0
   45.8430   34.6020   44.0240 C   0  0  0  0  0  0  0  0  0  0  0  0
   46.7690   33.5860   44.2370 C   0  0  0  0  0  0  0  0  0  0  0  0
   46.7870   32.9460   45.4250 N   0  0  0  0  0  0  0  0  0  0  0  0
   45.9160   33.2800   46.4140 C   0  0  0  0  0  0  0  0  0  0  0  0
   45.0140   34.2490   46.2450 N   0  0  0  0  0  0  0  0  0  0  0  0
   46.0970   32.4740   47.6140 C   0  0  0  0  0  0  0  0  0  0  0  0
   44.9770   31.9030   48.2020 C   0  0  0  0  0  0  0  0  0  0  0  0
   45.3860   31.1940   49.3100 C   0  0  0  0  0  0  0  0  0  0  0  0
   46.7390   31.3570   49.3590 N   0  0  0  0  0  0  0  0  0  0  0  0
   47.1500   32.1250   48.3370 N   0  0  0  0  0  0  0  0  0  0  0  0
   45.7040   35.3980   42.7660 C   0  0  0  0  0  0  0  0  0  0  0  0
   45.3010   36.6670   43.1640 F   0  0  0  0  0  0  0  0  0  0  0  0
   44.7800   34.8120   41.9620 F   0  0  0  0  0  0  0  0  0  0  0  0
   46.9730   35.4430   42.1620 F   0  0  0  0  0  0  0  0  0  0  0  0
   44.2244   35.7161   44.9225 H   0  0  0  0  0  0  0  0  0  0  0  0
   47.4795   33.3070   43.4450 H   0  0  0  0  0  0  0  0  0  0  0  0
   43.9411   31.9999   47.8448 H   0  0  0  0  0  0  0  0  0  0  0  0
   44.7565   30.6198   50.0057 H   0  0  0  0  0  0  0  0  0  0  0  0
   47.3563   30.9500   50.0761 H   0  0  0  0  0  0  0  0  0  0  0  0
  1  6  2  0
  2  3  2  0
  2  1  1  0
  3  4  1  0
  4  5  2  0
  5  7  1  0
  6  5  1  0
  7  8  1  0
  7 11  2  0
  8  9  2  0
  9 10  1  0
 11 10  1  0
 12 13  1  0
 12  2  1  0
 14 12  1  0
 15 12  1  0
  1 16  1  0
  3 17  1  0
  8 18  1  0
  9 19  1  0
 10 20  1  0
M  ISO  5  16  14  17  14  18  14  19  14  20   9
M  END
>  <minimizedAffinity>  (1) 
-5.31062984

>  <minimizedRMSD>  (1) 
0.284299612

$$$$
