
     RDKit          3D

 20 21  0  0  0  0  0  0  0  0999 V2000
   45.0560   34.7960   45.1410 C   0  0  0  0  0  0  0  0  0  0  0  0
   45.9000   34.6000   44.0320 C   0  0  0  0  0  0  0  0  0  0  0  0
   46.8400   33.5790   44.1080 C   0  0  0  0  0  0  0  0  0  0  0  0
   46.9010   32.8220   45.2390 N   0  0  0  0  0  0  0  0  0  0  0  0
   46.0730   33.0420   46.2840 C   0  0  0  0  0  0  0  0  0  0  0  0
   45.1580   34.0210   46.2330 N   0  0  0  0  0  0  0  0  0  0  0  0
   45.7130   35.5050   42.8740 C   0  0  0  0  0  0  0  0  0  0  0  0
   45.2100   36.6960   43.3830 F   0  0  0  0  0  0  0  0  0  0  0  0
   44.7960   34.9480   42.0190 F   0  0  0  0  0  0  0  0  0  0  0  0
   46.9530   35.6710   42.2550 F   0  0  0  0  0  0  0  0  0  0  0  0
   46.1840   32.1780   47.5040 C   0  0  0  0  0  0  0  0  0  0  0  0
   44.9950   31.8800   48.3240 C   0  0  0  0  0  0  0  0  0  0  0  0
   45.4670   30.8160   47.3880 C   0  0  0  0  0  0  0  0  0  0  0  0
   44.3015   35.5960   45.1129 H   0  0  0  0  0  0  0  0  0  0  0  0
   47.5237   33.3853   43.2684 H   0  0  0  0  0  0  0  0  0  0  0  0
   47.1865   32.5567   47.7522 H   0  0  0  0  0  0  0  0  0  0  0  0
   45.1063   31.7365   49.4089 H   0  0  0  0  0  0  0  0  0  0  0  0
   44.0303   32.3852   48.4789 H   0  0  0  0  0  0  0  0  0  0  0  0
   44.8846   30.5700   46.4879 H   0  0  0  0  0  0  0  0  0  0  0  0
   45.7605   29.7597   47.4778 H   0  0  0  0  0  0  0  0  0  0  0  0
  1  6  2  0
  2  3  2  0
  2  1  1  0
  3  4  1  0
  4  5  2  0
  5 11  1  0
  6  5  1  0
  7  8  1  0
  7  2  1  0
  9  7  1  0
 10  7  1  0
 11 12  1  0
 13 11  1  0
 13 12  1  0
  1 14  1  0
  3 15  1  0
 11 16  1  0
 12 17  1  0
 12 18  1  0
 13 19  1  0
 13 20  1  0
M  ISO  7  14  14  15  14  16  13  17  13  18  13  19  13  20  13
M  END
>  <minimizedAffinity>  (1) 
-4.38963175

>  <minimizedRMSD>  (1) 
0.37331745

$$$$
