
     RDKit          3D

 15 15  0  0  0  0  0  0  0  0999 V2000
   44.6580   35.6240   44.9570 C   0  0  0  0  0  0  0  0  0  0  0  0
   45.5090   35.0440   44.0210 C   0  0  0  0  0  0  0  0  0  0  0  0
   46.1520   33.8590   44.3810 C   0  0  0  0  0  0  0  0  0  0  0  0
   45.9190   33.3330   45.6180 N   0  0  0  0  0  0  0  0  0  0  0  0
   45.0770   33.9380   46.4960 C   0  0  0  0  0  0  0  0  0  0  0  0
   44.4450   35.0820   46.1740 N   0  0  0  0  0  0  0  0  0  0  0  0
   44.9000   33.3090   47.7640 N   0  0  0  0  0  0  0  0  0  0  0  0
   45.6670   35.7330   42.7090 C   0  0  0  0  0  0  0  0  0  0  0  0
   45.2920   37.0370   42.9180 F   0  0  0  0  0  0  0  0  0  0  0  0
   44.8270   35.1210   41.8040 F   0  0  0  0  0  0  0  0  0  0  0  0
   46.9940   35.6080   42.3200 F   0  0  0  0  0  0  0  0  0  0  0  0
   44.1401   36.5584   44.6950 H   0  0  0  0  0  0  0  0  0  0  0  0
   46.8350   33.3576   43.6794 H   0  0  0  0  0  0  0  0  0  0  0  0
   44.2719   33.7289   48.4640 H   0  0  0  0  0  0  0  0  0  0  0  0
   45.4003   32.4349   47.9796 H   0  0  0  0  0  0  0  0  0  0  0  0
  1  6  2  0
  2  3  2  0
  2  1  1  0
  3  4  1  0
  4  5  2  0
  5  7  1  0
  6  5  1  0
  8  9  1  0
  8  2  1  0
 10  8  1  0
 11  8  1  0
  1 12  1  0
  3 13  1  0
  7 14  1  0
  7 15  1  0
M  ISO  2  12  14  13  14
M  END
>  <minimizedAffinity>  (1) 
-4.35942554

>  <minimizedRMSD>  (1) 
0.666174352

$$$$
