
     RDKit          3D

 19 19  0  0  0  0  0  0  0  0999 V2000
   44.9360   35.1060   44.9100 C   0  0  0  0  0  0  0  0  0  0  0  0
   45.8350   34.7680   43.8970 C   0  0  0  0  0  0  0  0  0  0  0  0
   46.6930   33.6870   44.1170 C   0  0  0  0  0  0  0  0  0  0  0  0
   46.6120   33.0240   45.2930 N   0  0  0  0  0  0  0  0  0  0  0  0
   45.7300   33.3760   46.2520 C   0  0  0  0  0  0  0  0  0  0  0  0
   44.8960   34.4040   46.0760 N   0  0  0  0  0  0  0  0  0  0  0  0
   45.7980   35.5960   42.6700 C   0  0  0  0  0  0  0  0  0  0  0  0
   45.3370   36.8510   43.0620 F   0  0  0  0  0  0  0  0  0  0  0  0
   44.9700   35.0190   41.7650 F   0  0  0  0  0  0  0  0  0  0  0  0
   47.1130   35.6870   42.1800 F   0  0  0  0  0  0  0  0  0  0  0  0
   45.7720   32.5440   47.4850 C   0  0  0  0  0  0  0  0  0  0  0  0
   47.2280   32.3170   47.8200 C   0  0  0  0  0  0  0  0  0  0  0  0
   44.2492   35.9527   44.7640 H   0  0  0  0  0  0  0  0  0  0  0  0
   47.4193   33.3817   43.3494 H   0  0  0  0  0  0  0  0  0  0  0  0
   45.2723   33.0698   48.3119 H   0  0  0  0  0  0  0  0  0  0  0  0
   45.2529   31.5869   47.3287 H   0  0  0  0  0  0  0  0  0  0  0  0
   47.3541   32.2973   48.9126 H   0  0  0  0  0  0  0  0  0  0  0  0
   47.5565   31.3568   47.3956 H   0  0  0  0  0  0  0  0  0  0  0  0
   47.8332   33.1316   47.3956 H   0  0  0  0  0  0  0  0  0  0  0  0
  1  6  2  0
  2  3  2  0
  2  1  1  0
  3  4  1  0
  4  5  2  0
  5 11  1  0
  6  5  1  0
  7  8  1  0
  7  2  1  0
  9  7  1  0
 10  7  1  0
 11 12  1  0
  1 13  1  0
  3 14  1  0
 11 15  1  0
 11 16  1  0
 12 17  1  0
 12 18  1  0
 12 19  1  0
M  ISO  7  13  14  14  14  15   8  16   8  17   8  18   8  19   8
M  END
>  <minimizedAffinity>  (1) 
-4.14684963

>  <minimizedRMSD>  (1) 
0.0828165263

$$$$
