
     RDKit          3D

 16 16  0  0  0  0  0  0  0  0999 V2000
   44.8330   35.2010   45.0360 C   0  0  0  0  0  0  0  0  0  0  0  0
   45.7120   34.8130   44.0090 C   0  0  0  0  0  0  0  0  0  0  0  0
   46.5030   33.6960   44.2410 C   0  0  0  0  0  0  0  0  0  0  0  0
   46.4070   33.0290   45.4170 N   0  0  0  0  0  0  0  0  0  0  0  0
   45.5350   33.4470   46.3870 C   0  0  0  0  0  0  0  0  0  0  0  0
   44.7580   34.5200   46.1970 N   0  0  0  0  0  0  0  0  0  0  0  0
   45.7060   35.6350   42.7850 C   0  0  0  0  0  0  0  0  0  0  0  0
   45.2960   36.9110   43.1580 F   0  0  0  0  0  0  0  0  0  0  0  0
   44.8430   35.0980   41.8840 F   0  0  0  0  0  0  0  0  0  0  0  0
   47.0190   35.6550   42.2880 F   0  0  0  0  0  0  0  0  0  0  0  0
   45.4670   32.6800   47.6640 C   0  0  0  0  0  0  0  0  0  0  0  0
   44.1909   36.0818   44.8883 H   0  0  0  0  0  0  0  0  0  0  0  0
   47.2081   33.3520   43.4700 H   0  0  0  0  0  0  0  0  0  0  0  0
   45.5287   33.3761   48.5135 H   0  0  0  0  0  0  0  0  0  0  0  0
   44.5164   32.1284   47.7102 H   0  0  0  0  0  0  0  0  0  0  0  0
   46.3057   31.9698   47.7102 H   0  0  0  0  0  0  0  0  0  0  0  0
  1  6  2  0
  2  3  2  0
  2  1  1  0
  3  4  1  0
  4  5  2  0
  5 11  1  0
  6  5  1  0
  7  8  1  0
  7  2  1  0
  9  7  1  0
 10  7  1  0
  1 12  1  0
  3 13  1  0
 11 14  1  0
 11 15  1  0
 11 16  1  0
M  ISO  5  12  14  13  14  14   8  15   8  16   8
M  END
>  <minimizedAffinity>  (1) 
-3.95726061

>  <minimizedRMSD>  (1) 
0.220124751

$$$$
