
     RDKit          3D

 39 43  0  0  0  0  0  0  0  0999 V2000
   47.8610   31.5570   46.4800 C   0  0  0  0  0  0  0  0  0  0  0  0
   46.9310   32.2940   45.7690 C   0  0  0  0  0  0  0  0  0  0  0  0
   45.6970   32.5210   46.3450 C   0  0  0  0  0  0  0  0  0  0  0  0
   45.3680   32.0380   47.5950 C   0  0  0  0  0  0  0  0  0  0  0  0
   44.2940   32.0760   48.4180 N   0  0  0  0  0  0  0  0  0  0  0  0
   44.5590   31.4020   49.5590 C   0  0  0  0  0  0  0  0  0  0  0  0
   45.8150   30.9390   49.4420 N   0  0  0  0  0  0  0  0  0  0  0  0
   46.3250   31.3170   48.2540 C   0  0  0  0  0  0  0  0  0  0  0  0
   47.5700   31.0550   47.7390 C   0  0  0  0  0  0  0  0  0  0  0  0
   49.2460   29.2350   47.7660 C   0  0  0  0  0  0  0  0  0  0  0  0
   48.6110   30.2880   48.4170 C   0  0  0  0  0  0  0  0  0  0  0  0
   49.0080   30.5640   49.7090 C   0  0  0  0  0  0  0  0  0  0  0  0
   49.9820   29.8830   50.4090 C   0  0  0  0  0  0  0  0  0  0  0  0
   50.5010   29.9920   51.6410 N   0  0  0  0  0  0  0  0  0  0  0  0
   51.4320   29.0430   51.7680 C   0  0  0  0  0  0  0  0  0  0  0  0
   51.4930   28.3380   50.6090 N   0  0  0  0  0  0  0  0  0  0  0  0
   50.5980   28.8330   49.7280 C   0  0  0  0  0  0  0  0  0  0  0  0
   50.2260   28.5290   48.4330 C   0  0  0  0  0  0  0  0  0  0  0  0
   47.1010   34.4830   42.8350 C   0  0  0  0  0  0  0  0  0  0  0  0
   47.8910   33.7370   41.9540 C   0  0  0  0  0  0  0  0  0  0  0  0
   48.3470   32.4960   42.3900 C   0  0  0  0  0  0  0  0  0  0  0  0
   48.0190   32.0580   43.6330 N   0  0  0  0  0  0  0  0  0  0  0  0
   47.2510   32.8130   44.4520 C   0  0  0  0  0  0  0  0  0  0  0  0
   46.8020   33.9980   44.0630 N   0  0  0  0  0  0  0  0  0  0  0  0
   48.1770   34.3330   40.6230 C   0  0  0  0  0  0  0  0  0  0  0  0
   48.7660   35.5620   40.8800 F   0  0  0  0  0  0  0  0  0  0  0  0
   46.9940   34.5070   39.9630 F   0  0  0  0  0  0  0  0  0  0  0  0
   49.0190   33.4750   39.9380 F   0  0  0  0  0  0  0  0  0  0  0  0
   48.8500   31.3657   46.0381 H   0  0  0  0  0  0  0  0  0  0  0  0
   44.9506   33.1069   45.7885 H   0  0  0  0  0  0  0  0  0  0  0  0
   43.4044   32.5496   48.2056 H   0  0  0  0  0  0  0  0  0  0  0  0
   43.8812   31.2605   50.4137 H   0  0  0  0  0  0  0  0  0  0  0  0
   48.9708   28.9692   46.7347 H   0  0  0  0  0  0  0  0  0  0  0  0
   48.5060   31.3965   50.2238 H   0  0  0  0  0  0  0  0  0  0  0  0
   50.2311   30.6810   52.3575 H   0  0  0  0  0  0  0  0  0  0  0  0
   52.0468   28.8625   52.6621 H   0  0  0  0  0  0  0  0  0  0  0  0
   50.7273   27.6971   47.9167 H   0  0  0  0  0  0  0  0  0  0  0  0
   46.7208   35.4686   42.5284 H   0  0  0  0  0  0  0  0  0  0  0  0
   48.9699   31.8733   41.7310 H   0  0  0  0  0  0  0  0  0  0  0  0
  1  9  2  0
  2  3  2  0
  2  1  1  0
  3  4  1  0
  4  8  2  0
  4  5  1  0
  5  6  1  0
  7  6  2  0
  8  7  1  0
  9  8  1  0
  9 11  1  0
 10 11  2  0
 10 18  1  0
 11 12  1  0
 12 13  2  0
 13 14  1  0
 14 15  1  0
 16 15  2  0
 17 13  1  0
 17 16  1  0
 18 17  2  0
 19 24  2  0
 20 21  2  0
 20 19  1  0
 21 22  1  0
 22 23  2  0
 23  2  1  0
 24 23  1  0
 25 26  1  0
 25 20  1  0
 27 25  1  0
 28 25  1  0
  1 29  1  0
  3 30  1  0
  5 31  1  0
  6 32  1  0
 10 33  1  0
 12 34  1  0
 14 35  1  0
 15 36  1  0
 18 37  1  0
 19 38  1  0
 21 39  1  0
M  ISO  8  29  14  30  14  31   9  32  14  33  14  34  14  35   9  36  14
M  ISO  3  37  14  38  14  39  14
M  END
>  <minimizedAffinity>  (1) 
-6.57019949

>  <minimizedRMSD>  (1) 
1.32115686

$$$$
