
     RDKit          3D

 39 42  0  0  1  0  0  0  0  0999 V2000
   47.7340   32.1860   44.1110 C   0  0  0  0  0  0  0  0  0  0  0  0
   47.8340   32.9050   42.9480 C   0  0  0  0  0  0  0  0  0  0  0  0
   47.0340   34.0250   42.8040 C   0  0  0  0  0  0  0  0  0  0  0  0
   46.1490   34.4490   43.7680 C   0  0  0  0  0  0  0  0  0  0  0  0
   45.2600   35.4500   43.9440 N   0  0  0  0  0  0  0  0  0  0  0  0
   44.6590   35.3390   45.1490 C   0  0  0  0  0  0  0  0  0  0  0  0
   45.1860   34.2410   45.7330 N   0  0  0  0  0  0  0  0  0  0  0  0
   46.0990   33.6780   44.9150 C   0  0  0  0  0  0  0  0  0  0  0  0
   46.8630   32.5610   45.1160 C   0  0  0  0  0  0  0  0  0  0  0  0
   49.2110   31.9470   39.6890 C   0  0  0  0  0  0  0  0  0  0  0  0
   50.5650   31.7940   39.9590 C   0  0  0  0  0  0  0  0  0  0  0  0
   50.9790   32.0260   41.2760 C   0  0  0  0  0  0  0  0  0  0  0  0
   50.0610   32.3840   42.2140 N   0  0  0  0  0  0  0  0  0  0  0  0
   48.7490   32.5180   41.8820 C   0  0  0  0  0  0  0  0  0  0  0  0
   48.3210   32.3060   40.6470 N   0  0  0  0  0  0  0  0  0  0  0  0
   51.4490   31.4000   38.8430 C   0  0  0  0  0  0  0  0  0  0  0  0
   52.7270   31.7150   39.2300 F   0  0  0  0  0  0  0  0  0  0  0  0
   51.0930   32.1370   37.7340 F   0  0  0  0  0  0  0  0  0  0  0  0
   51.2710   30.0430   38.6150 F   0  0  0  0  0  0  0  0  0  0  0  0
   46.8680   32.6110   47.6000 C   0  0  1  0  0  0  0  0  0  0  0  0
   46.7840   31.7530   46.3640 C   0  0  1  0  0  0  0  0  0  0  0  0
   45.5990   31.0370   46.4130 O   0  0  0  0  0  0  0  0  0  0  0  0
   45.1710   31.0310   47.7330 C   0  0  0  0  0  0  0  0  0  0  0  0
   45.5620   32.3820   48.2970 C   0  0  1  0  0  0  0  0  0  0  0  0
   47.9230   32.2300   48.4250 O   0  0  0  0  0  0  0  0  0  0  0  0
   45.7520   32.2420   49.6630 O   0  0  0  0  0  0  0  0  0  0  0  0
   48.3602   31.2919   44.2469 H   0  0  0  0  0  0  0  0  0  0  0  0
   47.1095   34.6050   41.8724 H   0  0  0  0  0  0  0  0  0  0  0  0
   45.0673   36.1929   43.2570 H   0  0  0  0  0  0  0  0  0  0  0  0
   43.8942   36.0083   45.5698 H   0  0  0  0  0  0  0  0  0  0  0  0
   48.8492   31.7713   38.6652 H   0  0  0  0  0  0  0  0  0  0  0  0
   52.0389   31.9196   41.5504 H   0  0  0  0  0  0  0  0  0  0  0  0
   47.0481   33.6665   47.3482 H   0  0  0  0  0  0  0  0  0  0  0  0
   47.6439   31.0674   46.3440 H   0  0  0  0  0  0  0  0  0  0  0  0
   44.0804   30.8960   47.7820 H   0  0  0  0  0  0  0  0  0  0  0  0
   45.6242   30.2065   48.3030 H   0  0  0  0  0  0  0  0  0  0  0  0
   44.8350   33.1950   48.1538 H   0  0  0  0  0  0  0  0  0  0  0  0
   47.6529   32.3275   49.3724 H   0  0  0  0  0  0  0  0  0  0  0  0
   45.0568   32.7543   50.1471 H   0  0  0  0  0  0  0  0  0  0  0  0
  1  9  2  0
  2  1  1  0
  3  2  2  0
  3  4  1  0
  4  5  1  0
  4  8  2  0
  5  6  1  0
  6  7  2  0
  8  9  1  0
  8  7  1  0
 10 11  2  0
 10 15  1  0
 11 12  1  0
 12 13  2  0
 14 13  1  0
 14  2  1  0
 15 14  2  0
 16 17  1  0
 16 11  1  0
 18 16  1  0
 19 16  1  0
 20 24  1  0
 20 25  1  0
 21  9  1  0
 21 22  1  0
 21 20  1  0
 22 23  1  0
 23 24  1  0
 24 26  1  0
  1 27  1  0
  3 28  1  0
  5 29  1  0
  6 30  1  0
 10 31  1  0
 12 32  1  0
 20 33  1  6
 21 34  1  6
 23 35  1  0
 23 36  1  0
 24 37  1  1
 25 38  1  0
 26 39  1  0
M  ISO  8  27  14  28  14  29   9  30  14  31  14  32  14  33  13  34  13
M  ISO  5  35  13  36  13  37  13  38   3  39   3
M  END
>  <minimizedAffinity>  (1) 
-6.39008904

>  <minimizedRMSD>  (1) 
4.16840124

$$$$
