
     RDKit          3D

 41 44  0  0  0  0  0  0  0  0999 V2000
   46.0830   30.6270   45.3240 C   0  0  0  0  0  0  0  0  0  0  0  0
   46.4280   31.9530   45.2880 C   0  0  0  0  0  0  0  0  0  0  0  0
   46.3210   32.6980   46.4510 C   0  0  0  0  0  0  0  0  0  0  0  0
   45.8850   32.1570   47.6420 C   0  0  0  0  0  0  0  0  0  0  0  0
   45.6650   32.5580   48.9090 N   0  0  0  0  0  0  0  0  0  0  0  0
   45.2170   31.5390   49.6680 C   0  0  0  0  0  0  0  0  0  0  0  0
   45.1530   30.4710   48.8570 N   0  0  0  0  0  0  0  0  0  0  0  0
   45.5540   30.8260   47.6200 C   0  0  0  0  0  0  0  0  0  0  0  0
   45.6390   30.0340   46.4940 C   0  0  0  0  0  0  0  0  0  0  0  0
   47.3650   34.4510   42.7820 C   0  0  0  0  0  0  0  0  0  0  0  0
   47.7750   33.6790   41.7100 C   0  0  0  0  0  0  0  0  0  0  0  0
   47.7210   32.3020   41.8680 C   0  0  0  0  0  0  0  0  0  0  0  0
   47.2790   31.7700   43.0390 N   0  0  0  0  0  0  0  0  0  0  0  0
   46.8930   32.5590   44.0500 C   0  0  0  0  0  0  0  0  0  0  0  0
   46.9310   33.8980   43.9370 N   0  0  0  0  0  0  0  0  0  0  0  0
   48.2340   34.4020   40.4890 C   0  0  0  0  0  0  0  0  0  0  0  0
   48.6940   35.6230   40.9140 F   0  0  0  0  0  0  0  0  0  0  0  0
   47.1510   34.5440   39.6450 F   0  0  0  0  0  0  0  0  0  0  0  0
   49.2090   33.6160   39.8820 F   0  0  0  0  0  0  0  0  0  0  0  0
   45.2770   28.6530   46.5510 N   0  0  0  0  0  0  0  0  0  0  0  0
   43.9130   28.3530   46.1490 C   0  0  0  0  0  0  0  0  0  0  0  0
   43.6460   26.8650   46.3880 C   0  0  0  0  0  0  0  0  0  0  0  0
   43.9760   26.5590   47.8360 C   0  0  0  0  0  0  0  0  0  0  0  0
   45.4360   26.7890   48.0780 C   0  0  0  0  0  0  0  0  0  0  0  0
   46.1150   27.5420   46.9620 C   0  0  0  0  0  0  0  0  0  0  0  0
   46.1601   30.0234   44.4076 H   0  0  0  0  0  0  0  0  0  0  0  0
   46.5946   33.7631   46.4233 H   0  0  0  0  0  0  0  0  0  0  0  0
   45.8189   33.5169   49.2522 H   0  0  0  0  0  0  0  0  0  0  0  0
   44.9564   31.5748   50.7361 H   0  0  0  0  0  0  0  0  0  0  0  0
   47.3928   35.5470   42.6922 H   0  0  0  0  0  0  0  0  0  0  0  0
   48.0354   31.6409   41.0469 H   0  0  0  0  0  0  0  0  0  0  0  0
   43.7821   28.5856   45.0819 H   0  0  0  0  0  0  0  0  0  0  0  0
   43.2076   28.9590   46.7365 H   0  0  0  0  0  0  0  0  0  0  0  0
   42.5879   26.6386   46.1899 H   0  0  0  0  0  0  0  0  0  0  0  0
   44.2647   26.2519   45.7162 H   0  0  0  0  0  0  0  0  0  0  0  0
   43.3880   27.2172   48.4925 H   0  0  0  0  0  0  0  0  0  0  0  0
   43.7308   25.5087   48.0525 H   0  0  0  0  0  0  0  0  0  0  0  0
   45.5490   27.3661   49.0076 H   0  0  0  0  0  0  0  0  0  0  0  0
   45.9149   25.8008   48.1423 H   0  0  0  0  0  0  0  0  0  0  0  0
   46.2748   26.8673   46.1081 H   0  0  0  0  0  0  0  0  0  0  0  0
   47.0851   27.9236   47.3131 H   0  0  0  0  0  0  0  0  0  0  0  0
  1  9  2  0
  2  1  1  0
  2  3  2  0
  3  4  1  0
  4  5  1  0
  5  6  1  0
  7  6  2  0
  8  4  2  0
  8  7  1  0
  9 20  1  0
  9  8  1  0
 10 15  2  0
 11 12  2  0
 11 10  1  0
 12 13  1  0
 13 14  2  0
 14  2  1  0
 15 14  1  0
 16 17  1  0
 16 11  1  0
 18 16  1  0
 19 16  1  0
 20 25  1  0
 21 22  1  0
 21 20  1  0
 22 23  1  0
 23 24  1  0
 25 24  1  0
  1 26  1  0
  3 27  1  0
  5 28  1  0
  6 29  1  0
 10 30  1  0
 12 31  1  0
 21 32  1  0
 21 33  1  0
 22 34  1  0
 22 35  1  0
 23 36  1  0
 23 37  1  0
 24 38  1  0
 24 39  1  0
 25 40  1  0
 25 41  1  0
M  ISO  8  26  14  27  14  28   9  29  14  30  14  31  14  32  13  33  13
M  ISO  8  34  13  35  13  36  13  37  13  38  13  39  13  40  13  41  13
M  END
>  <minimizedAffinity>  (1) 
-5.90221691

>  <minimizedRMSD>  (1) 
2.11345577

$$$$
