
     RDKit          3D

 34 37  0  0  0  0  0  0  0  0999 V2000
   47.8050   31.2960   46.2110 C   0  0  0  0  0  0  0  0  0  0  0  0
   46.9520   32.1930   45.6210 C   0  0  0  0  0  0  0  0  0  0  0  0
   45.8060   32.5590   46.3080 C   0  0  0  0  0  0  0  0  0  0  0  0
   45.5170   32.0460   47.5510 C   0  0  0  0  0  0  0  0  0  0  0  0
   44.5230   32.1830   48.4650 N   0  0  0  0  0  0  0  0  0  0  0  0
   44.7620   31.4140   49.5460 C   0  0  0  0  0  0  0  0  0  0  0  0
   45.9220   30.7850   49.3050 N   0  0  0  0  0  0  0  0  0  0  0  0
   46.4080   31.1510   48.0950 C   0  0  0  0  0  0  0  0  0  0  0  0
   47.5450   30.7620   47.4570 C   0  0  0  0  0  0  0  0  0  0  0  0
   47.0560   34.4310   42.7260 C   0  0  0  0  0  0  0  0  0  0  0  0
   47.8420   33.7260   41.8190 C   0  0  0  0  0  0  0  0  0  0  0  0
   48.3220   32.4910   42.2200 C   0  0  0  0  0  0  0  0  0  0  0  0
   48.0100   32.0330   43.4560 N   0  0  0  0  0  0  0  0  0  0  0  0
   47.2500   32.7410   44.3050 C   0  0  0  0  0  0  0  0  0  0  0  0
   46.7670   33.9400   43.9540 N   0  0  0  0  0  0  0  0  0  0  0  0
   48.0940   34.3660   40.4930 C   0  0  0  0  0  0  0  0  0  0  0  0
   48.6100   35.6260   40.7840 F   0  0  0  0  0  0  0  0  0  0  0  0
   46.9110   34.4720   39.8250 F   0  0  0  0  0  0  0  0  0  0  0  0
   48.9900   33.5680   39.8110 F   0  0  0  0  0  0  0  0  0  0  0  0
   48.4370   29.8070   48.1050 C   0  0  0  0  0  0  0  0  0  0  0  0
   49.3120   30.1180   49.1230 C   0  0  0  0  0  0  0  0  0  0  0  0
   50.1280   29.1610   49.6910 C   0  0  0  0  0  0  0  0  0  0  0  0
   50.1020   27.8900   49.2770 N   0  0  0  0  0  0  0  0  0  0  0  0
   49.2490   27.5790   48.2820 C   0  0  0  0  0  0  0  0  0  0  0  0
   48.4550   28.5160   47.7310 N   0  0  0  0  0  0  0  0  0  0  0  0
   48.7189   30.9946   45.6782 H   0  0  0  0  0  0  0  0  0  0  0  0
   45.1107   33.2769   45.8485 H   0  0  0  0  0  0  0  0  0  0  0  0
   43.6996   32.7908   48.3487 H   0  0  0  0  0  0  0  0  0  0  0  0
   44.1332   31.3211   50.4438 H   0  0  0  0  0  0  0  0  0  0  0  0
   46.6584   35.4150   42.4367 H   0  0  0  0  0  0  0  0  0  0  0  0
   48.9481   31.8899   41.5442 H   0  0  0  0  0  0  0  0  0  0  0  0
   49.3612   31.1533   49.4915 H   0  0  0  0  0  0  0  0  0  0  0  0
   50.8139   29.4498   50.5010 H   0  0  0  0  0  0  0  0  0  0  0  0
   49.2005   26.5435   47.9141 H   0  0  0  0  0  0  0  0  0  0  0  0
  1  9  2  0
  2  1  1  0
  2  3  2  0
  3  4  1  0
  4  8  2  0
  4  5  1  0
  5  6  1  0
  7  6  2  0
  8  7  1  0
  9  8  1  0
  9 20  1  0
 10 15  2  0
 11 12  2  0
 11 10  1  0
 12 13  1  0
 13 14  2  0
 14  2  1  0
 15 14  1  0
 16 17  1  0
 16 11  1  0
 18 16  1  0
 19 16  1  0
 20 21  2  0
 21 22  1  0
 23 22  2  0
 24 23  1  0
 25 20  1  0
 25 24  2  0
  1 26  1  0
  3 27  1  0
  5 28  1  0
  6 29  1  0
 10 30  1  0
 12 31  1  0
 21 32  1  0
 22 33  1  0
 24 34  1  0
M  ISO  8  26  14  27  14  28   9  29  14  30  14  31  14  32  14  33  14
M  ISO  1  34  14
M  END
>  <minimizedAffinity>  (1) 
-5.81281328

>  <minimizedRMSD>  (1) 
0.766663313

$$$$
