
     RDKit          3D

 30 32  0  0  0  0  0  0  0  0999 V2000
   47.4770   30.8620   45.6360 C   0  0  0  0  0  0  0  0  0  0  0  0
   47.0570   32.1330   45.3060 C   0  0  0  0  0  0  0  0  0  0  0  0
   46.3760   32.8520   46.2490 C   0  0  0  0  0  0  0  0  0  0  0  0
   46.0860   32.3770   47.5140 C   0  0  0  0  0  0  0  0  0  0  0  0
   45.4640   32.8070   48.6270 N   0  0  0  0  0  0  0  0  0  0  0  0
   45.5000   31.8570   49.5840 C   0  0  0  0  0  0  0  0  0  0  0  0
   46.1650   30.8100   49.0440 N   0  0  0  0  0  0  0  0  0  0  0  0
   46.5290   31.1060   47.7890 C   0  0  0  0  0  0  0  0  0  0  0  0
   47.2110   30.3400   46.8930 C   0  0  0  0  0  0  0  0  0  0  0  0
   47.3270   34.4690   42.4960 C   0  0  0  0  0  0  0  0  0  0  0  0
   47.8790   33.6810   41.4840 C   0  0  0  0  0  0  0  0  0  0  0  0
   48.1480   32.3410   41.8030 C   0  0  0  0  0  0  0  0  0  0  0  0
   47.8690   31.8810   43.0450 N   0  0  0  0  0  0  0  0  0  0  0  0
   47.3390   32.6790   43.9820 C   0  0  0  0  0  0  0  0  0  0  0  0
   47.0660   33.9670   43.7200 N   0  0  0  0  0  0  0  0  0  0  0  0
   48.1360   34.3090   40.1720 C   0  0  0  0  0  0  0  0  0  0  0  0
   48.6260   35.5670   40.4510 F   0  0  0  0  0  0  0  0  0  0  0  0
   46.9370   34.4050   39.5040 F   0  0  0  0  0  0  0  0  0  0  0  0
   49.0210   33.5030   39.4660 F   0  0  0  0  0  0  0  0  0  0  0  0
   48.9980   28.8710   47.6670 C   0  0  0  0  0  0  0  0  0  0  0  0
   49.9800   29.5810   47.9850 O   0  0  0  0  0  0  0  0  0  0  0  0
   47.6770   29.0230   47.1610 N   0  0  0  0  0  0  0  0  0  0  0  0
   48.0261   30.2586   44.8982 H   0  0  0  0  0  0  0  0  0  0  0  0
   46.0400   33.8658   45.9858 H   0  0  0  0  0  0  0  0  0  0  0  0
   45.0225   33.7315   48.7333 H   0  0  0  0  0  0  0  0  0  0  0  0
   45.0753   31.9207   50.5967 H   0  0  0  0  0  0  0  0  0  0  0  0
   47.0995   35.5252   42.2897 H   0  0  0  0  0  0  0  0  0  0  0  0
   48.5828   31.6689   41.0485 H   0  0  0  0  0  0  0  0  0  0  0  0
   49.2265   27.8071   47.8278 H   0  0  0  0  0  0  0  0  0  0  0  0
   47.0758   28.2036   46.9937 H   0  0  0  0  0  0  0  0  0  0  0  0
  1  9  2  0
  2  1  1  0
  2  3  2  0
  3  4  1  0
  4  8  2  0
  4  5  1  0
  5  6  1  0
  7  6  2  0
  8  7  1  0
  9 22  1  0
  9  8  1  0
 10 15  2  0
 11 12  2  0
 11 10  1  0
 12 13  1  0
 13 14  2  0
 14  2  1  0
 15 14  1  0
 16 17  1  0
 16 11  1  0
 18 16  1  0
 19 16  1  0
 20 21  2  0
 22 20  1  0
  1 23  1  0
  3 24  1  0
  5 25  1  0
  6 26  1  0
 10 27  1  0
 12 28  1  0
 20 29  1  0
 22 30  1  0
M  ISO  7  23  14  24  14  25   9  26  14  27  14  28  14  29   6
M  END
>  <minimizedAffinity>  (1) 
-5.38492537

>  <minimizedRMSD>  (1) 
0.833721459

$$$$
