
     RDKit          3D

 37 40  0  0  1  0  0  0  0  0999 V2000
   48.0540   33.2250   43.1750 N   0  0  0  0  0  0  0  0  0  0  0  0
   49.2000   33.2570   42.3850 C   0  0  0  0  0  0  0  0  0  0  0  0
   50.3600   32.8230   42.6080 O   0  0  0  0  0  0  0  0  0  0  0  0
   46.2960   32.0980   44.4930 C   0  0  1  0  0  0  0  0  0  0  0  0
   46.4390   31.3470   43.3200 C   0  0  0  0  0  0  0  0  0  0  0  0
   47.6670   32.0880   43.9330 C   0  0  1  0  0  0  0  0  0  0  0  0
   45.0660   33.9660   43.1580 C   0  0  0  0  0  0  0  0  0  0  0  0
   45.5500   33.4370   44.4010 C   0  0  0  0  0  0  0  0  0  0  0  0
   45.3450   34.1940   45.5400 C   0  0  0  0  0  0  0  0  0  0  0  0
   44.7070   35.3790   45.4330 N   0  0  0  0  0  0  0  0  0  0  0  0
   44.2530   35.8680   44.2430 C   0  0  0  0  0  0  0  0  0  0  0  0
   44.4440   35.1270   43.0750 N   0  0  0  0  0  0  0  0  0  0  0  0
   49.1360   33.8950   41.0090 C   0  0  2  0  0  0  0  0  0  0  0  0
   48.6470   35.3860   40.9500 C   0  0  0  0  0  0  0  0  0  0  0  0
   47.8540   34.2550   40.3940 C   0  0  1  0  0  0  0  0  0  0  0  0
   47.7520   34.1420   38.8920 C   0  0  0  0  0  0  0  0  0  0  0  0
   48.5480   34.7100   38.1660 O   0  0  0  0  0  0  0  0  0  0  0  0
   46.6310   33.3040   38.3140 C   0  0  0  0  0  0  0  0  0  0  0  0
   45.4700   32.8690   38.7450 C   0  0  0  0  0  0  0  0  0  0  0  0
   44.6830   32.1110   37.9310 C   0  0  0  0  0  0  0  0  0  0  0  0
   45.2600   31.8550   36.5950 C   0  0  0  0  0  0  0  0  0  0  0  0
   46.9100   32.7810   36.7170 S   0  0  0  0  0  0  0  0  0  0  0  0
   47.4591   34.0651   43.2114 H   0  0  0  0  0  0  0  0  0  0  0  0
   45.8775   31.8441   45.4781 H   0  0  0  0  0  0  0  0  0  0  0  0
   45.9935   31.7040   42.3798 H   0  0  0  0  0  0  0  0  0  0  0  0
   46.2214   30.3091   43.0279 H   0  0  0  0  0  0  0  0  0  0  0  0
   48.6719   31.8562   44.3157 H   0  0  0  0  0  0  0  0  0  0  0  0
   45.2193   33.3813   42.2390 H   0  0  0  0  0  0  0  0  0  0  0  0
   45.6966   33.8359   46.5188 H   0  0  0  0  0  0  0  0  0  0  0  0
   43.7396   36.8401   44.2039 H   0  0  0  0  0  0  0  0  0  0  0  0
   50.0019   33.3083   40.6685 H   0  0  0  0  0  0  0  0  0  0  0  0
   48.3178   35.9014   41.8643 H   0  0  0  0  0  0  0  0  0  0  0  0
   49.0463   36.3379   40.5699 H   0  0  0  0  0  0  0  0  0  0  0  0
   46.8194   33.9156   40.5502 H   0  0  0  0  0  0  0  0  0  0  0  0
   45.1327   33.1162   39.7624 H   0  0  0  0  0  0  0  0  0  0  0  0
   43.7019   31.7228   38.2419 H   0  0  0  0  0  0  0  0  0  0  0  0
   44.8436   31.2807   35.7543 H   0  0  0  0  0  0  0  0  0  0  0  0
  1  6  1  0
  2  3  2  0
  2  1  1  0
  5  6  1  0
  5  4  1  0
  6  4  1  0
  7  8  2  0
  8  4  1  0
  8  9  1  0
 10  9  2  0
 11 10  1  0
 12  7  1  0
 12 11  2  0
 13  2  1  0
 14 13  1  0
 15 14  1  0
 15 13  1  0
 16 15  1  0
 17 16  2  0
 18 19  2  0
 18 16  1  0
 20 19  1  0
 21 22  1  0
 21 20  2  0
 22 18  1  0
  1 23  1  0
  4 24  1  1
  5 25  1  0
  5 26  1  0
  6 27  1  1
  7 28  1  0
  9 29  1  0
 11 30  1  0
 13 31  1  6
 14 32  1  0
 14 33  1  0
 15 34  1  1
 19 35  1  0
 20 36  1  0
 21 37  1  0
M  ISO  8  24  13  25  13  26  13  27  13  28  14  29  14  30  14  31  13
M  ISO  6  32  13  33  13  34  13  35  14  36  14  37  14
M  END
>  <minimizedAffinity>  (1) 
-4.72960758

>  <minimizedRMSD>  (1) 
0.14614892

$$$$
