
     RDKit          3D

 29 31  0  0  0  0  0  0  0  0999 V2000
   47.6890   31.0070   45.9400 C   0  0  0  0  0  0  0  0  0  0  0  0
   46.9340   32.0630   45.4410 C   0  0  0  0  0  0  0  0  0  0  0  0
   45.9110   32.5560   46.2040 C   0  0  0  0  0  0  0  0  0  0  0  0
   45.5990   32.0470   47.4500 C   0  0  0  0  0  0  0  0  0  0  0  0
   44.6870   32.3040   48.4130 N   0  0  0  0  0  0  0  0  0  0  0  0
   44.8680   31.4530   49.4490 C   0  0  0  0  0  0  0  0  0  0  0  0
   45.9060   30.6660   49.1150 N   0  0  0  0  0  0  0  0  0  0  0  0
   46.3660   31.0100   47.9040 C   0  0  0  0  0  0  0  0  0  0  0  0
   47.3940   30.4830   47.1840 C   0  0  0  0  0  0  0  0  0  0  0  0
   47.2840   34.4100   42.6570 C   0  0  0  0  0  0  0  0  0  0  0  0
   47.8690   33.6370   41.6620 C   0  0  0  0  0  0  0  0  0  0  0  0
   48.1340   32.3140   41.9670 C   0  0  0  0  0  0  0  0  0  0  0  0
   47.8240   31.8200   43.1940 N   0  0  0  0  0  0  0  0  0  0  0  0
   47.2620   32.6070   44.1200 C   0  0  0  0  0  0  0  0  0  0  0  0
   46.9860   33.8970   43.8720 N   0  0  0  0  0  0  0  0  0  0  0  0
   48.1520   34.3090   40.3650 C   0  0  0  0  0  0  0  0  0  0  0  0
   48.7100   35.5420   40.6920 F   0  0  0  0  0  0  0  0  0  0  0  0
   46.9870   34.4580   39.6800 F   0  0  0  0  0  0  0  0  0  0  0  0
   49.0390   33.4900   39.6660 F   0  0  0  0  0  0  0  0  0  0  0  0
   48.2530   29.3480   47.6510 C   0  0  0  0  0  0  0  0  0  0  0  0
   48.5170   30.5910   45.3472 H   0  0  0  0  0  0  0  0  0  0  0  0
   45.3131   33.3909   45.8098 H   0  0  0  0  0  0  0  0  0  0  0  0
   43.9641   33.0362   48.3657 H   0  0  0  0  0  0  0  0  0  0  0  0
   44.2826   31.4128   50.3794 H   0  0  0  0  0  0  0  0  0  0  0  0
   47.0574   35.4665   42.4511 H   0  0  0  0  0  0  0  0  0  0  0  0
   48.5972   31.6599   41.2136 H   0  0  0  0  0  0  0  0  0  0  0  0
   48.2681   29.3280   48.7507 H   0  0  0  0  0  0  0  0  0  0  0  0
   47.8446   28.3993   47.2726 H   0  0  0  0  0  0  0  0  0  0  0  0
   49.2770   29.4833   47.2726 H   0  0  0  0  0  0  0  0  0  0  0  0
  1  9  2  0
  2  1  1  0
  2  3  2  0
  3  4  1  0
  4  8  2  0
  4  5  1  0
  5  6  1  0
  7  6  2  0
  8  7  1  0
  9 20  1  0
  9  8  1  0
 10 15  2  0
 11 12  2  0
 11 10  1  0
 12 13  1  0
 13 14  2  0
 14  2  1  0
 15 14  1  0
 16 17  1  0
 16 11  1  0
 18 16  1  0
 19 16  1  0
  1 21  1  0
  3 22  1  0
  5 23  1  0
  6 24  1  0
 10 25  1  0
 12 26  1  0
 20 27  1  0
 20 28  1  0
 20 29  1  0
M  ISO  8  21  14  22  14  23   9  24  14  25  14  26  14  27   8  28   8
M  ISO  1  29   8
M  END
>  <minimizedAffinity>  (1) 
-5.31785154

>  <minimizedRMSD>  (1) 
0.0725337863

$$$$
