
     RDKit          3D

 28 30  0  0  0  0  0  0  0  0999 V2000
   47.4030   30.8340   45.6200 C   0  0  0  0  0  0  0  0  0  0  0  0
   47.0360   32.1190   45.3100 C   0  0  0  0  0  0  0  0  0  0  0  0
   46.3850   32.8760   46.2730 C   0  0  0  0  0  0  0  0  0  0  0  0
   46.0940   32.3810   47.5280 C   0  0  0  0  0  0  0  0  0  0  0  0
   45.4990   32.8170   48.6610 N   0  0  0  0  0  0  0  0  0  0  0  0
   45.5110   31.8430   49.6000 C   0  0  0  0  0  0  0  0  0  0  0  0
   46.1230   30.7830   49.0430 N   0  0  0  0  0  0  0  0  0  0  0  0
   46.4890   31.0820   47.7810 C   0  0  0  0  0  0  0  0  0  0  0  0
   47.1300   30.3050   46.8660 C   0  0  0  0  0  0  0  0  0  0  0  0
   47.3320   34.4660   42.5100 C   0  0  0  0  0  0  0  0  0  0  0  0
   47.8790   33.6780   41.5060 C   0  0  0  0  0  0  0  0  0  0  0  0
   48.1390   32.3390   41.8160 C   0  0  0  0  0  0  0  0  0  0  0  0
   47.8500   31.8760   43.0590 N   0  0  0  0  0  0  0  0  0  0  0  0
   47.3150   32.6990   43.9970 C   0  0  0  0  0  0  0  0  0  0  0  0
   47.0570   33.9730   43.7380 N   0  0  0  0  0  0  0  0  0  0  0  0
   48.1470   34.3090   40.1850 C   0  0  0  0  0  0  0  0  0  0  0  0
   48.6300   35.5610   40.4700 F   0  0  0  0  0  0  0  0  0  0  0  0
   46.9510   34.4030   39.5070 F   0  0  0  0  0  0  0  0  0  0  0  0
   49.0330   33.5110   39.4930 F   0  0  0  0  0  0  0  0  0  0  0  0
   47.5200   28.9380   47.1970 C   0  0  0  0  0  0  0  0  0  0  0  0
   48.5970   28.7410   47.8100 O   0  0  0  0  0  0  0  0  0  0  0  0
   47.9198   30.2190   44.8686 H   0  0  0  0  0  0  0  0  0  0  0  0
   46.0904   33.9070   46.0278 H   0  0  0  0  0  0  0  0  0  0  0  0
   45.0948   33.7555   48.7907 H   0  0  0  0  0  0  0  0  0  0  0  0
   45.1008   31.9058   50.6187 H   0  0  0  0  0  0  0  0  0  0  0  0
   47.1159   35.5238   42.2995 H   0  0  0  0  0  0  0  0  0  0  0  0
   48.5732   31.6680   41.0602 H   0  0  0  0  0  0  0  0  0  0  0  0
   46.8780   28.0913   46.9127 H   0  0  0  0  0  0  0  0  0  0  0  0
  1  9  2  0
  2  1  1  0
  2  3  2  0
  3  4  1  0
  4  8  2  0
  4  5  1  0
  5  6  1  0
  7  6  2  0
  8  7  1  0
  9 20  1  0
  9  8  1  0
 10 15  2  0
 11 12  2  0
 11 10  1  0
 12 13  1  0
 13 14  2  0
 14  2  1  0
 15 14  1  0
 16 17  1  0
 16 11  1  0
 18 16  1  0
 19 16  1  0
 20 21  2  0
  1 22  1  0
  3 23  1  0
  5 24  1  0
  6 25  1  0
 10 26  1  0
 12 27  1  0
 20 28  1  0
M  ISO  7  22  14  23  14  24   9  25  14  26  14  27  14  28   6
M  END
>  <minimizedAffinity>  (1) 
-5.31035471

>  <minimizedRMSD>  (1) 
0.470842421

$$$$
