
     RDKit          3D

 27 29  0  0  0  0  0  0  0  0999 V2000
   47.6480   30.9900   45.8540 C   0  0  0  0  0  0  0  0  0  0  0  0
   46.9380   32.0810   45.3720 C   0  0  0  0  0  0  0  0  0  0  0  0
   45.9330   32.6040   46.1580 C   0  0  0  0  0  0  0  0  0  0  0  0
   45.6040   32.0940   47.3970 C   0  0  0  0  0  0  0  0  0  0  0  0
   44.7240   32.3480   48.3760 N   0  0  0  0  0  0  0  0  0  0  0  0
   44.8780   31.4740   49.3980 C   0  0  0  0  0  0  0  0  0  0  0  0
   45.8970   30.6440   49.0330 N   0  0  0  0  0  0  0  0  0  0  0  0
   46.3450   31.0090   47.8230 C   0  0  0  0  0  0  0  0  0  0  0  0
   47.3500   30.4450   47.0950 C   0  0  0  0  0  0  0  0  0  0  0  0
   47.3010   34.4440   42.6130 C   0  0  0  0  0  0  0  0  0  0  0  0
   47.8740   33.6650   41.6100 C   0  0  0  0  0  0  0  0  0  0  0  0
   48.1240   32.3350   41.9070 C   0  0  0  0  0  0  0  0  0  0  0  0
   47.8110   31.8440   43.1360 N   0  0  0  0  0  0  0  0  0  0  0  0
   47.2580   32.6440   44.0720 C   0  0  0  0  0  0  0  0  0  0  0  0
   46.9970   33.9400   43.8270 N   0  0  0  0  0  0  0  0  0  0  0  0
   48.1730   34.3150   40.3010 C   0  0  0  0  0  0  0  0  0  0  0  0
   48.6970   35.5600   40.6230 F   0  0  0  0  0  0  0  0  0  0  0  0
   46.9870   34.4590   39.6140 F   0  0  0  0  0  0  0  0  0  0  0  0
   49.0550   33.5140   39.6100 F   0  0  0  0  0  0  0  0  0  0  0  0
   48.3260   29.0420   47.6190 S   0  0  0  0  0  0  0  0  0  0  0  0
   48.4544   30.5533   45.2466 H   0  0  0  0  0  0  0  0  0  0  0  0
   45.3672   33.4681   45.7795 H   0  0  0  0  0  0  0  0  0  0  0  0
   44.0259   33.1050   48.3535 H   0  0  0  0  0  0  0  0  0  0  0  0
   44.2991   31.4400   50.3328 H   0  0  0  0  0  0  0  0  0  0  0  0
   47.0897   35.5040   42.4085 H   0  0  0  0  0  0  0  0  0  0  0  0
   48.5751   31.6770   41.1497 H   0  0  0  0  0  0  0  0  0  0  0  0
   48.3591   28.9944   48.9878 H   0  0  0  0  0  0  0  0  0  0  0  0
  1  9  2  0
  2  1  1  0
  2  3  2  0
  3  4  1  0
  4  8  2  0
  4  5  1  0
  5  6  1  0
  7  6  2  0
  8  7  1  0
  9 20  1  0
  9  8  1  0
 10 15  2  0
 11 12  2  0
 11 10  1  0
 12 13  1  0
 13 14  2  0
 14  2  1  0
 15 14  1  0
 16 17  1  0
 16 11  1  0
 18 16  1  0
 19 16  1  0
  1 21  1  0
  3 22  1  0
  5 23  1  0
  6 24  1  0
 10 25  1  0
 12 26  1  0
 20 27  1  0
M  ISO  7  21  14  22  14  23   9  24  14  25  14  26  14  27  11
M  END
>  <minimizedAffinity>  (1) 
-5.24967432

>  <minimizedRMSD>  (1) 
0.0242467541

$$$$
