
     RDKit          3D

 37 39  0  0  1  0  0  0  0  0999 V2000
   48.0540   33.2530   43.2300 N   0  0  0  0  0  0  0  0  0  0  0  0
   49.2130   33.2970   42.4660 C   0  0  0  0  0  0  0  0  0  0  0  0
   50.3790   32.8980   42.7200 O   0  0  0  0  0  0  0  0  0  0  0  0
   46.2990   32.1280   44.5530 C   0  0  1  0  0  0  0  0  0  0  0  0
   46.4570   31.3610   43.3930 C   0  0  0  0  0  0  0  0  0  0  0  0
   47.6730   32.1260   44.0030 C   0  0  1  0  0  0  0  0  0  0  0  0
   45.0520   33.9630   43.1870 C   0  0  0  0  0  0  0  0  0  0  0  0
   45.5380   33.4590   44.4380 C   0  0  0  0  0  0  0  0  0  0  0  0
   45.3270   34.2320   45.5680 C   0  0  0  0  0  0  0  0  0  0  0  0
   44.6810   35.4110   45.4410 N   0  0  0  0  0  0  0  0  0  0  0  0
   44.2250   35.8780   44.2390 C   0  0  0  0  0  0  0  0  0  0  0  0
   44.4230   35.1210   43.0880 N   0  0  0  0  0  0  0  0  0  0  0  0
   49.1620   33.9070   41.0740 C   0  0  2  0  0  0  0  0  0  0  0  0
   48.7030   35.4070   40.9870 C   0  0  0  0  0  0  0  0  0  0  0  0
   47.8910   34.2750   40.4520 C   0  0  1  0  0  0  0  0  0  0  0  0
   47.7880   34.1290   38.9490 C   0  0  0  0  0  0  0  0  0  0  0  0
   48.5280   34.7800   38.2200 O   0  0  0  0  0  0  0  0  0  0  0  0
   46.8160   33.2210   38.3400 C   0  0  0  0  0  0  0  0  0  0  0  0
   46.5900   33.3430   37.0650 C   0  0  0  0  0  0  0  0  0  0  0  0
   45.6040   32.4370   36.3940 C   0  0  0  0  0  0  0  0  0  0  0  0
   47.4402   34.0801   43.2357 H   0  0  0  0  0  0  0  0  0  0  0  0
   45.8767   31.8835   45.5388 H   0  0  0  0  0  0  0  0  0  0  0  0
   46.0133   31.6986   42.4447 H   0  0  0  0  0  0  0  0  0  0  0  0
   46.2529   30.3164   43.1153 H   0  0  0  0  0  0  0  0  0  0  0  0
   48.6777   31.9126   44.3968 H   0  0  0  0  0  0  0  0  0  0  0  0
   45.2082   33.3646   42.2773 H   0  0  0  0  0  0  0  0  0  0  0  0
   45.6799   33.8910   46.5525 H   0  0  0  0  0  0  0  0  0  0  0  0
   43.7051   36.8457   44.1824 H   0  0  0  0  0  0  0  0  0  0  0  0
   50.0162   33.2971   40.7449 H   0  0  0  0  0  0  0  0  0  0  0  0
   48.3822   35.9460   41.8907 H   0  0  0  0  0  0  0  0  0  0  0  0
   49.1195   36.3444   40.5898 H   0  0  0  0  0  0  0  0  0  0  0  0
   46.8503   33.9575   40.6137 H   0  0  0  0  0  0  0  0  0  0  0  0
   46.2941   32.4610   38.9400 H   0  0  0  0  0  0  0  0  0  0  0  0
   47.1213   34.1092   36.4813 H   0  0  0  0  0  0  0  0  0  0  0  0
   45.0205   31.9008   37.1569 H   0  0  0  0  0  0  0  0  0  0  0  0
   44.9260   33.0337   35.7661 H   0  0  0  0  0  0  0  0  0  0  0  0
   46.1414   31.7110   35.7661 H   0  0  0  0  0  0  0  0  0  0  0  0
  1  6  1  0
  2  3  2  0
  2  1  1  0
  5  6  1  0
  5  4  1  0
  6  4  1  0
  7  8  2  0
  8  4  1  0
  8  9  1  0
 10  9  2  0
 11 10  1  0
 12  7  1  0
 12 11  2  0
 13  2  1  0
 14 13  1  0
 15 14  1  0
 15 13  1  0
 16 15  1  0
 17 16  2  0
 18 16  1  0
 19 18  2  0
 20 19  1  0
  1 21  1  0
  4 22  1  1
  5 23  1  0
  5 24  1  0
  6 25  1  1
  7 26  1  0
  9 27  1  0
 11 28  1  0
 13 29  1  6
 14 30  1  0
 14 31  1  0
 15 32  1  1
 18 33  1  0
 19 34  1  0
 20 35  1  0
 20 36  1  0
 20 37  1  0
M  ISO  8  22  13  23  13  24  13  25  13  26  14  27  14  28  14  29  13
M  ISO  6  30  13  31  13  32  13  35   8  36   8  37   8
M  END
>  <minimizedAffinity>  (1) 
-4.6296196

>  <minimizedRMSD>  (1) 
0.087310873

$$$$
