
     RDKit          3D

 43 46  0  0  0  0  0  0  0  0999 V2000
   47.7630   31.0580   46.0130 C   0  0  0  0  0  0  0  0  0  0  0  0
   47.0020   32.0970   45.5150 C   0  0  0  0  0  0  0  0  0  0  0  0
   45.9890   32.5770   46.2920 C   0  0  0  0  0  0  0  0  0  0  0  0
   45.6990   32.0660   47.5480 C   0  0  0  0  0  0  0  0  0  0  0  0
   44.8060   32.2980   48.5370 N   0  0  0  0  0  0  0  0  0  0  0  0
   45.0100   31.4580   49.5680 C   0  0  0  0  0  0  0  0  0  0  0  0
   46.0520   30.6880   49.2110 N   0  0  0  0  0  0  0  0  0  0  0  0
   46.4870   31.0410   47.9840 C   0  0  0  0  0  0  0  0  0  0  0  0
   47.5120   30.5140   47.2650 C   0  0  0  0  0  0  0  0  0  0  0  0
   47.2220   34.4300   42.7020 C   0  0  0  0  0  0  0  0  0  0  0  0
   47.8210   33.6710   41.7080 C   0  0  0  0  0  0  0  0  0  0  0  0
   48.1410   32.3480   42.0360 C   0  0  0  0  0  0  0  0  0  0  0  0
   47.8670   31.8630   43.2700 N   0  0  0  0  0  0  0  0  0  0  0  0
   47.2800   32.6580   44.1960 C   0  0  0  0  0  0  0  0  0  0  0  0
   46.9580   33.9200   43.9330 N   0  0  0  0  0  0  0  0  0  0  0  0
   48.0800   34.2920   40.3870 C   0  0  0  0  0  0  0  0  0  0  0  0
   48.5720   35.5510   40.6830 F   0  0  0  0  0  0  0  0  0  0  0  0
   46.8830   34.4160   39.7310 F   0  0  0  0  0  0  0  0  0  0  0  0
   48.9750   33.4910   39.6940 F   0  0  0  0  0  0  0  0  0  0  0  0
   48.2730   29.4750   47.7650 O   0  0  0  0  0  0  0  0  0  0  0  0
   49.8770   28.2260   49.3780 O   0  0  0  0  0  0  0  0  0  0  0  0
   49.4950   29.6250   48.9230 P   0  0  2  0  0  0  0  0  0  0  0  0
   48.8150   30.4090   50.2820 O   0  0  0  0  0  0  0  0  0  0  0  0
   50.8410   30.4470   48.3910 O   0  0  0  0  0  0  0  0  0  0  0  0
   53.2090   30.6290   48.4950 C   0  0  0  0  0  0  0  0  0  0  0  0
   51.9740   30.6020   49.1520 C   0  0  0  0  0  0  0  0  0  0  0  0
   52.0180   30.7350   50.5250 C   0  0  0  0  0  0  0  0  0  0  0  0
   53.1710   30.8880   51.2530 C   0  0  0  0  0  0  0  0  0  0  0  0
   54.3770   30.9100   50.5580 C   0  0  0  0  0  0  0  0  0  0  0  0
   54.3920   30.7810   49.1860 C   0  0  0  0  0  0  0  0  0  0  0  0
   53.4210   30.3860   45.9170 N   0  0  0  0  0  0  0  0  0  0  0  0
   53.3340   30.5030   47.0670 C   0  0  0  0  0  0  0  0  0  0  0  0
   48.5853   30.6530   45.4048 H   0  0  0  0  0  0  0  0  0  0  0  0
   45.3760   33.4047   45.9058 H   0  0  0  0  0  0  0  0  0  0  0  0
   44.0708   33.0187   48.5052 H   0  0  0  0  0  0  0  0  0  0  0  0
   44.4415   31.4112   50.5085 H   0  0  0  0  0  0  0  0  0  0  0  0
   46.9530   35.4748   42.4875 H   0  0  0  0  0  0  0  0  0  0  0  0
   48.6178   31.6989   41.2868 H   0  0  0  0  0  0  0  0  0  0  0  0
   49.1698   29.9999   51.1108 H   0  0  0  0  0  0  0  0  0  0  0  0
   51.0642   30.7171   51.0728 H   0  0  0  0  0  0  0  0  0  0  0  0
   53.1433   30.9898   52.3479 H   0  0  0  0  0  0  0  0  0  0  0  0
   55.3227   31.0310   51.1067 H   0  0  0  0  0  0  0  0  0  0  0  0
   55.3481   30.7993   48.6423 H   0  0  0  0  0  0  0  0  0  0  0  0
  1  9  2  0
  2  1  1  0
  2  3  2  0
  3  4  1  0
  4  8  2  0
  4  5  1  0
  5  6  1  0
  7  6  2  0
  8  7  1  0
  9 20  1  0
  9  8  1  0
 10 15  2  0
 11 12  2  0
 11 10  1  0
 12 13  1  0
 13 14  2  0
 14  2  1  0
 15 14  1  0
 16 17  1  0
 16 11  1  0
 18 16  1  0
 19 16  1  0
 20 22  1  0
 22 21  2  0
 22 23  1  0
 24 22  1  0
 24 26  1  0
 25 26  2  0
 25 30  1  0
 26 27  1  0
 27 28  2  0
 29 28  1  0
 30 29  2  0
 31 32  3  0
 32 25  1  0
  1 33  1  0
  3 34  1  0
  5 35  1  0
  6 36  1  0
 10 37  1  0
 12 38  1  0
 23 39  1  0
 27 40  1  0
 28 41  1  0
 29 42  1  0
 30 43  1  0
M  ISO  8  33  14  34  14  35   9  36  14  37  14  38  14  39   3  40  14
M  ISO  3  41  14  42  14  43  14
M  END
>  <minimizedAffinity>  (1) 
-5.78217506

>  <minimizedRMSD>  (1) 
2.31920147

$$$$
