
     RDKit          3D

 45 48  0  0  0  0  0  0  0  0999 V2000
   47.7540   31.0780   46.0920 C   0  0  0  0  0  0  0  0  0  0  0  0
   46.9930   32.1070   45.6000 C   0  0  0  0  0  0  0  0  0  0  0  0
   45.9690   32.5730   46.3790 C   0  0  0  0  0  0  0  0  0  0  0  0
   45.6680   32.0670   47.6160 C   0  0  0  0  0  0  0  0  0  0  0  0
   44.7590   32.2920   48.6060 N   0  0  0  0  0  0  0  0  0  0  0  0
   44.9730   31.4300   49.6430 C   0  0  0  0  0  0  0  0  0  0  0  0
   46.0280   30.6660   49.2860 N   0  0  0  0  0  0  0  0  0  0  0  0
   46.4550   31.0410   48.0670 C   0  0  0  0  0  0  0  0  0  0  0  0
   47.4910   30.5230   47.3490 C   0  0  0  0  0  0  0  0  0  0  0  0
   47.0990   34.4220   42.7730 C   0  0  0  0  0  0  0  0  0  0  0  0
   47.8190   33.7100   41.8050 C   0  0  0  0  0  0  0  0  0  0  0  0
   48.2490   32.4240   42.1740 C   0  0  0  0  0  0  0  0  0  0  0  0
   47.9740   31.9300   43.3980 N   0  0  0  0  0  0  0  0  0  0  0  0
   47.2690   32.6880   44.2790 C   0  0  0  0  0  0  0  0  0  0  0  0
   46.8360   33.9060   43.9890 N   0  0  0  0  0  0  0  0  0  0  0  0
   48.0690   34.3450   40.4900 C   0  0  0  0  0  0  0  0  0  0  0  0
   48.5750   35.5960   40.7950 F   0  0  0  0  0  0  0  0  0  0  0  0
   46.8850   34.4760   39.8440 F   0  0  0  0  0  0  0  0  0  0  0  0
   48.9800   33.5530   39.7910 F   0  0  0  0  0  0  0  0  0  0  0  0
   48.2550   29.4880   47.8480 O   0  0  0  0  0  0  0  0  0  0  0  0
   50.0690   28.2600   49.2440 O   0  0  0  0  0  0  0  0  0  0  0  0
   49.4920   29.6530   48.9800 P   0  0  2  0  0  0  0  0  0  0  0  0
   48.7850   30.1750   50.4420 O   0  0  0  0  0  0  0  0  0  0  0  0
   50.7090   30.7080   48.5310 O   0  0  0  0  0  0  0  0  0  0  0  0
   51.4590   31.2150   49.5510 C   0  0  0  0  0  0  0  0  0  0  0  0
   50.9040   32.6140   49.8440 C   0  0  0  0  0  0  0  0  0  0  0  0
   52.0110   33.3490   50.5660 C   0  0  0  0  0  0  0  0  0  0  0  0
   51.8840   33.6860   52.0010 C   0  0  0  0  0  0  0  0  0  0  0  0
   51.6450   34.7620   50.9730 C   0  0  0  0  0  0  0  0  0  0  0  0
   48.5845   30.6826   45.4888 H   0  0  0  0  0  0  0  0  0  0  0  0
   45.3543   33.3986   45.9910 H   0  0  0  0  0  0  0  0  0  0  0  0
   44.0188   33.0076   48.5763 H   0  0  0  0  0  0  0  0  0  0  0  0
   44.4011   31.3699   50.5807 H   0  0  0  0  0  0  0  0  0  0  0  0
   46.7376   35.4328   42.5328 H   0  0  0  0  0  0  0  0  0  0  0  0
   48.8164   31.8135   41.4561 H   0  0  0  0  0  0  0  0  0  0  0  0
   49.2918   29.8008   51.2057 H   0  0  0  0  0  0  0  0  0  0  0  0
   51.3701   30.5763   50.4422 H   0  0  0  0  0  0  0  0  0  0  0  0
   52.5240   31.2579   49.2792 H   0  0  0  0  0  0  0  0  0  0  0  0
   50.6488   33.1297   48.9065 H   0  0  0  0  0  0  0  0  0  0  0  0
   49.9853   32.5688   50.4472 H   0  0  0  0  0  0  0  0  0  0  0  0
   52.8046   32.8439   49.9959 H   0  0  0  0  0  0  0  0  0  0  0  0
   51.0399   33.2887   52.5839 H   0  0  0  0  0  0  0  0  0  0  0  0
   52.5406   33.5883   52.8781 H   0  0  0  0  0  0  0  0  0  0  0  0
   52.3702   35.5797   50.8483 H   0  0  0  0  0  0  0  0  0  0  0  0
   50.8267   35.4596   50.7412 H   0  0  0  0  0  0  0  0  0  0  0  0
  1  9  2  0
  2  1  1  0
  2  3  2  0
  3  4  1  0
  4  8  2  0
  4  5  1  0
  5  6  1  0
  7  6  2  0
  8  7  1  0
  9 20  1  0
  9  8  1  0
 10 15  2  0
 11 12  2  0
 11 10  1  0
 12 13  1  0
 13 14  2  0
 14  2  1  0
 15 14  1  0
 16 17  1  0
 16 11  1  0
 18 16  1  0
 19 16  1  0
 20 22  1  0
 22 21  2  0
 22 23  1  0
 24 22  1  0
 24 25  1  0
 25 26  1  0
 26 27  1  0
 27 29  1  0
 27 28  1  0
 29 28  1  0
  1 30  1  0
  3 31  1  0
  5 32  1  0
  6 33  1  0
 10 34  1  0
 12 35  1  0
 23 36  1  0
 25 37  1  0
 25 38  1  0
 26 39  1  0
 26 40  1  0
 27 41  1  0
 28 42  1  0
 28 43  1  0
 29 44  1  0
 29 45  1  0
M  ISO  8  30  14  31  14  32   9  33  14  34  14  35  14  36   3  37   8
M  ISO  8  38   8  39   8  40   8  41  13  42  13  43  13  44  13  45  13
M  END
>  <minimizedAffinity>  (1) 
-5.71804333

>  <minimizedRMSD>  (1) 
1.15137398

$$$$
