
     RDKit          3D

 39 41  0  0  0  0  0  0  0  0999 V2000
   47.7020   31.0170   46.0100 C   0  0  0  0  0  0  0  0  0  0  0  0
   46.9770   32.0770   45.5360 C   0  0  0  0  0  0  0  0  0  0  0  0
   45.9890   32.5740   46.3400 C   0  0  0  0  0  0  0  0  0  0  0  0
   45.6820   32.0710   47.5930 C   0  0  0  0  0  0  0  0  0  0  0  0
   44.8010   32.3290   48.5890 N   0  0  0  0  0  0  0  0  0  0  0  0
   45.0040   31.4550   49.6060 C   0  0  0  0  0  0  0  0  0  0  0  0
   46.0110   30.6570   49.2340 N   0  0  0  0  0  0  0  0  0  0  0  0
   46.4410   31.0140   48.0100 C   0  0  0  0  0  0  0  0  0  0  0  0
   47.4430   30.4600   47.2710 C   0  0  0  0  0  0  0  0  0  0  0  0
   47.1740   34.4290   42.7470 C   0  0  0  0  0  0  0  0  0  0  0  0
   47.8120   33.6640   41.7440 C   0  0  0  0  0  0  0  0  0  0  0  0
   48.1520   32.3410   42.0830 C   0  0  0  0  0  0  0  0  0  0  0  0
   47.8670   31.8650   43.3140 N   0  0  0  0  0  0  0  0  0  0  0  0
   47.2580   32.6420   44.2280 C   0  0  0  0  0  0  0  0  0  0  0  0
   46.9140   33.9010   43.9590 N   0  0  0  0  0  0  0  0  0  0  0  0
   48.0700   34.2960   40.4350 C   0  0  0  0  0  0  0  0  0  0  0  0
   48.5790   35.5520   40.7500 F   0  0  0  0  0  0  0  0  0  0  0  0
   46.8950   34.4260   39.7770 F   0  0  0  0  0  0  0  0  0  0  0  0
   48.9800   33.5150   39.7430 F   0  0  0  0  0  0  0  0  0  0  0  0
   48.1780   29.3870   47.7490 O   0  0  0  0  0  0  0  0  0  0  0  0
   49.7730   28.0910   49.3270 O   0  0  0  0  0  0  0  0  0  0  0  0
   49.4540   29.4910   48.8410 P   0  0  2  0  0  0  0  0  0  0  0  0
   48.8850   30.3530   50.2080 O   0  0  0  0  0  0  0  0  0  0  0  0
   50.8310   30.2400   48.2260 O   0  0  0  0  0  0  0  0  0  0  0  0
   51.8920   30.2450   49.0970 C   0  0  0  0  0  0  0  0  0  0  0  0
   52.4490   31.6790   49.0820 C   0  0  0  0  0  0  0  0  0  0  0  0
   53.8380   31.6260   47.8860 S   0  0  0  0  0  0  0  0  0  0  0  0
   48.5047   30.5930   45.3888 H   0  0  0  0  0  0  0  0  0  0  0  0
   45.4015   33.4265   45.9683 H   0  0  0  0  0  0  0  0  0  0  0  0
   44.0884   33.0726   48.5760 H   0  0  0  0  0  0  0  0  0  0  0  0
   44.4478   31.4109   50.5540 H   0  0  0  0  0  0  0  0  0  0  0  0
   46.8860   35.4693   42.5352 H   0  0  0  0  0  0  0  0  0  0  0  0
   48.6499   31.6948   41.3451 H   0  0  0  0  0  0  0  0  0  0  0  0
   49.1857   29.8975   51.0340 H   0  0  0  0  0  0  0  0  0  0  0  0
   51.5561   29.9764   50.1094 H   0  0  0  0  0  0  0  0  0  0  0  0
   52.6581   29.5130   48.8016 H   0  0  0  0  0  0  0  0  0  0  0  0
   51.6787   32.3910   48.7507 H   0  0  0  0  0  0  0  0  0  0  0  0
   52.7714   32.0108   50.0800 H   0  0  0  0  0  0  0  0  0  0  0  0
   55.0257   31.5807   48.5673 H   0  0  0  0  0  0  0  0  0  0  0  0
  1  9  2  0
  2  1  1  0
  2  3  2  0
  3  4  1  0
  4  8  2  0
  4  5  1  0
  5  6  1  0
  7  6  2  0
  8  7  1  0
  9 20  1  0
  9  8  1  0
 10 15  2  0
 11 12  2  0
 11 10  1  0
 12 13  1  0
 13 14  2  0
 14  2  1  0
 15 14  1  0
 16 17  1  0
 16 11  1  0
 18 16  1  0
 19 16  1  0
 20 22  1  0
 22 21  2  0
 22 23  1  0
 24 22  1  0
 24 25  1  0
 26 25  1  0
 27 26  1  0
  1 28  1  0
  3 29  1  0
  5 30  1  0
  6 31  1  0
 10 32  1  0
 12 33  1  0
 23 34  1  0
 25 35  1  0
 25 36  1  0
 26 37  1  0
 26 38  1  0
 27 39  1  0
M  ISO  8  28  14  29  14  30   9  31  14  32  14  33  14  34   3  35   8
M  ISO  4  36   8  37   8  38   8  39  11
M  END
>  <minimizedAffinity>  (1) 
-5.436203

>  <minimizedRMSD>  (1) 
0.422943801

$$$$
