
     RDKit          3D

 23 24  0  0  1  0  0  0  0  0999 V2000
   44.8620   35.1310   43.6910 C   0  0  1  0  0  0  0  0  0  0  0  0
   45.9740   35.6390   42.7400 C   0  0  0  0  0  0  0  0  0  0  0  0
   44.6850   35.0580   42.2570 C   0  0  2  0  0  0  0  0  0  0  0  0
   45.2850   33.9360   44.4690 C   0  0  0  0  0  0  0  0  0  0  0  0
   45.4340   32.6790   43.8030 C   0  0  0  0  0  0  0  0  0  0  0  0
   45.8410   31.5720   44.5380 C   0  0  0  0  0  0  0  0  0  0  0  0
   46.0810   31.7560   45.8860 N   0  0  0  0  0  0  0  0  0  0  0  0
   45.9260   32.9680   46.4740 C   0  0  0  0  0  0  0  0  0  0  0  0
   45.5360   34.0330   45.7760 N   0  0  0  0  0  0  0  0  0  0  0  0
   43.8950   35.8750   41.5050 O   0  0  0  0  0  0  0  0  0  0  0  0
   42.6660   33.6030   41.4460 O   0  0  0  0  0  0  0  0  0  0  0  0
   42.3830   35.0860   41.3730 P   0  0  0  0  0  0  0  0  0  0  0  0
   41.6160   35.4190   39.9290 O   0  0  0  0  0  0  0  0  0  0  0  0
   41.4930   35.5380   42.7230 O   0  0  0  0  0  0  0  0  0  0  0  0
   44.2126   35.5191   44.4895 H   0  0  0  0  0  0  0  0  0  0  0  0
   46.1741   36.7159   42.6391 H   0  0  0  0  0  0  0  0  0  0  0  0
   47.0447   35.4383   42.5876 H   0  0  0  0  0  0  0  0  0  0  0  0
   44.3549   34.2121   41.6360 H   0  0  0  0  0  0  0  0  0  0  0  0
   45.2296   32.5899   42.7258 H   0  0  0  0  0  0  0  0  0  0  0  0
   45.9672   30.5871   44.0646 H   0  0  0  0  0  0  0  0  0  0  0  0
   46.1267   33.0738   47.5504 H   0  0  0  0  0  0  0  0  0  0  0  0
   40.7234   35.8065   40.1112 H   0  0  0  0  0  0  0  0  0  0  0  0
   41.9872   35.2870   43.5433 H   0  0  0  0  0  0  0  0  0  0  0  0
  1  4  1  0
  2  1  1  0
  3  2  1  0
  3  1  1  0
  4  9  1  0
  5  4  2  0
  5  6  1  0
  6  7  2  0
  7  8  1  0
  9  8  2  0
 10  3  1  0
 12 11  2  0
 12 10  1  0
 12 14  1  0
 13 12  1  0
  1 15  1  1
  2 16  1  0
  2 17  1  0
  3 18  1  6
  5 19  1  0
  6 20  1  0
  8 21  1  0
 13 22  1  0
 14 23  1  0
M  ISO  8  15  13  16  13  17  13  18  13  19  14  20  14  21  14  22   3
M  ISO  1  23   3
M  END
>  <minimizedAffinity>  (1) 
-4.06968069

>  <minimizedRMSD>  (1) 
1.38391578

$$$$
