
     RDKit          3D

 25 26  0  0  1  0  0  0  0  0999 V2000
   45.2320   34.3300   43.1290 C   0  0  1  0  0  0  0  0  0  0  0  0
   45.3150   35.8780   43.2170 C   0  0  0  0  0  0  0  0  0  0  0  0
   46.0880   35.0430   42.2350 C   0  0  1  0  0  0  0  0  0  0  0  0
   45.6450   33.6720   44.3950 C   0  0  0  0  0  0  0  0  0  0  0  0
   46.5430   32.5990   44.2830 C   0  0  0  0  0  0  0  0  0  0  0  0
   46.9830   31.9490   45.4280 C   0  0  0  0  0  0  0  0  0  0  0  0
   46.4900   32.4230   46.6280 N   0  0  0  0  0  0  0  0  0  0  0  0
   45.6350   33.4470   46.7070 C   0  0  0  0  0  0  0  0  0  0  0  0
   45.2210   34.0620   45.6010 N   0  0  0  0  0  0  0  0  0  0  0  0
   47.4930   35.2730   42.2950 N   0  0  0  0  0  0  0  0  0  0  0  0
   48.1240   34.6140   40.7980 S   0  0  0  0  0  0  0  0  0  0  0  0
   49.0170   33.4710   41.1980 O   0  0  0  0  0  0  0  0  0  0  0  0
   46.9550   34.0940   40.0030 O   0  0  0  0  0  0  0  0  0  0  0  0
   49.0240   35.7180   39.9510 O   0  0  0  0  0  0  0  0  0  0  0  0
   44.5179   33.5220   42.9118 H   0  0  0  0  0  0  0  0  0  0  0  0
   44.4756   36.5052   42.8823 H   0  0  0  0  0  0  0  0  0  0  0  0
   45.5452   36.6263   43.9897 H   0  0  0  0  0  0  0  0  0  0  0  0
   46.1923   34.8649   41.1545 H   0  0  0  0  0  0  0  0  0  0  0  0
   46.8963   32.2748   43.2930 H   0  0  0  0  0  0  0  0  0  0  0  0
   47.6852   31.1035   45.3821 H   0  0  0  0  0  0  0  0  0  0  0  0
   45.2719   33.7831   47.6894 H   0  0  0  0  0  0  0  0  0  0  0  0
   47.6925   36.2815   42.3593 H   0  0  0  0  0  0  0  0  0  0  0  0
   49.0601   33.4159   42.1855 H   0  0  0  0  0  0  0  0  0  0  0  0
   46.2488   33.7799   40.6216 H   0  0  0  0  0  0  0  0  0  0  0  0
   49.5047   36.3076   40.5846 H   0  0  0  0  0  0  0  0  0  0  0  0
  1  2  1  0
  1  4  1  0
  3 10  1  0
  3  1  1  0
  3  2  1  0
  4  9  1  0
  5  4  2  0
  5  6  1  0
  6  7  2  0
  7  8  1  0
  9  8  2  0
 11 12  1  0
 11 10  1  0
 13 11  1  0
 14 11  1  0
  1 15  1  6
  2 16  1  0
  2 17  1  0
  3 18  1  6
  5 19  1  0
  6 20  1  0
  8 21  1  0
 10 22  1  0
 12 23  1  0
 13 24  1  0
 14 25  1  0
M  ISO  8  15  13  16  13  17  13  18  13  19  14  20  14  21  14  22   5
M  ISO  3  23   3  24   3  25   3
M  END
>  <minimizedAffinity>  (1) 
-3.99923778

>  <minimizedRMSD>  (1) 
1.2618022

$$$$
