
     RDKit          3D

 26 28  0  0  1  0  0  0  0  0999 V2000
   45.9060   34.2480   40.8220 C   0  0  1  0  0  0  0  0  0  0  0  0
   44.8530   33.2930   41.4000 C   0  0  0  0  0  0  0  0  0  0  0  0
   44.6360   34.7250   41.3990 C   0  0  1  0  0  0  0  0  0  0  0  0
   44.7220   35.4240   42.7230 C   0  0  0  0  0  0  0  0  0  0  0  0
   44.9940   36.7430   43.0520 C   0  0  0  0  0  0  0  0  0  0  0  0
   44.9470   36.8910   44.3920 N   0  0  0  0  0  0  0  0  0  0  0  0
   44.6530   35.6950   44.8790 C   0  0  0  0  0  0  0  0  0  0  0  0
   44.5060   34.7790   43.9140 N   0  0  0  0  0  0  0  0  0  0  0  0
   44.4920   35.3370   46.2540 N   0  0  0  0  0  0  0  0  0  0  0  0
   47.1960   34.2790   41.5630 C   0  0  0  0  0  0  0  0  0  0  0  0
   48.0770   35.3380   41.2790 C   0  0  0  0  0  0  0  0  0  0  0  0
   49.2980   35.3460   41.9790 C   0  0  0  0  0  0  0  0  0  0  0  0
   49.5510   34.3430   42.8750 N   0  0  0  0  0  0  0  0  0  0  0  0
   48.6580   33.3550   43.0970 C   0  0  0  0  0  0  0  0  0  0  0  0
   47.4840   33.3140   42.4500 N   0  0  0  0  0  0  0  0  0  0  0  0
   46.4174   34.4568   39.8708 H   0  0  0  0  0  0  0  0  0  0  0  0
   44.2680   32.6452   40.7305 H   0  0  0  0  0  0  0  0  0  0  0  0
   44.8495   32.5013   42.1637 H   0  0  0  0  0  0  0  0  0  0  0  0
   43.8249   35.3673   41.0254 H   0  0  0  0  0  0  0  0  0  0  0  0
   45.2141   37.5448   42.3318 H   0  0  0  0  0  0  0  0  0  0  0  0
   45.1070   37.7566   44.9268 H   0  0  0  0  0  0  0  0  0  0  0  0
   44.2616   34.3662   46.5099 H   0  0  0  0  0  0  0  0  0  0  0  0
   44.6064   36.0499   46.9886 H   0  0  0  0  0  0  0  0  0  0  0  0
   47.8247   36.1198   40.5474 H   0  0  0  0  0  0  0  0  0  0  0  0
   50.0357   36.1441   41.8090 H   0  0  0  0  0  0  0  0  0  0  0  0
   48.8987   32.5661   43.8248 H   0  0  0  0  0  0  0  0  0  0  0  0
  1  3  1  0
  1  2  1  0
  1 10  1  0
  3  2  1  0
  3  4  1  0
  4  5  2  0
  4  8  1  0
  5  6  1  0
  6  7  1  0
  7  9  1  0
  8  7  2  0
 10 15  1  0
 11 10  2  0
 11 12  1  0
 12 13  2  0
 13 14  1  0
 15 14  2  0
  1 16  1  6
  2 17  1  0
  2 18  1  0
  3 19  1  6
  5 20  1  0
  6 21  1  0
  9 22  1  0
  9 23  1  0
 11 24  1  0
 12 25  1  0
 14 26  1  0
M  ISO  8  16  13  17  13  18  13  19  13  20  14  21   9  24  14  25  14
M  ISO  1  26  14
M  END
>  <minimizedAffinity>  (1) 
-5.1235199

>  <minimizedRMSD>  (1) 
1.39710224

$$$$
