
     RDKit          3D

 25 27  0  0  1  0  0  0  0  0999 V2000
   45.8740   34.2480   40.8630 C   0  0  1  0  0  0  0  0  0  0  0  0
   44.8210   33.3120   41.4700 C   0  0  0  0  0  0  0  0  0  0  0  0
   44.6170   34.7500   41.4490 C   0  0  1  0  0  0  0  0  0  0  0  0
   47.1720   34.2930   41.5820 C   0  0  0  0  0  0  0  0  0  0  0  0
   48.0600   35.3420   41.2860 C   0  0  0  0  0  0  0  0  0  0  0  0
   49.2850   35.3640   41.9690 C   0  0  0  0  0  0  0  0  0  0  0  0
   49.5410   34.3730   42.8720 N   0  0  0  0  0  0  0  0  0  0  0  0
   48.6430   33.3770   43.1220 C   0  0  0  0  0  0  0  0  0  0  0  0
   47.4640   33.3390   42.4790 N   0  0  0  0  0  0  0  0  0  0  0  0
   44.7240   35.4740   42.7540 C   0  0  0  0  0  0  0  0  0  0  0  0
   45.0170   36.7950   43.0540 C   0  0  0  0  0  0  0  0  0  0  0  0
   44.9700   36.9600   44.3910 N   0  0  0  0  0  0  0  0  0  0  0  0
   44.6550   35.7740   44.9120 C   0  0  0  0  0  0  0  0  0  0  0  0
   44.4980   34.8480   43.9570 N   0  0  0  0  0  0  0  0  0  0  0  0
   44.4840   35.4130   46.2500 O   0  0  0  0  0  0  0  0  0  0  0  0
   46.3747   34.4285   39.9003 H   0  0  0  0  0  0  0  0  0  0  0  0
   44.2210   32.6593   40.8189 H   0  0  0  0  0  0  0  0  0  0  0  0
   44.8206   32.5324   42.2460 H   0  0  0  0  0  0  0  0  0  0  0  0
   43.8070   35.3943   41.0765 H   0  0  0  0  0  0  0  0  0  0  0  0
   47.8040   36.1157   40.5472 H   0  0  0  0  0  0  0  0  0  0  0  0
   50.0208   36.1599   41.7816 H   0  0  0  0  0  0  0  0  0  0  0  0
   48.8868   32.5966   43.8579 H   0  0  0  0  0  0  0  0  0  0  0  0
   45.2500   37.5809   42.3204 H   0  0  0  0  0  0  0  0  0  0  0  0
   45.1437   37.8329   44.9094 H   0  0  0  0  0  0  0  0  0  0  0  0
   44.2475   34.4808   46.4848 H   0  0  0  0  0  0  0  0  0  0  0  0
  1  3  1  0
  1  2  1  0
  1  4  1  0
  3  2  1  0
  3 10  1  0
  4  9  1  0
  5  4  2  0
  5  6  1  0
  6  7  2  0
  7  8  1  0
  9  8  2  0
 10 11  2  0
 10 14  1  0
 11 12  1  0
 12 13  1  0
 13 15  1  0
 14 13  2  0
  1 16  1  6
  2 17  1  0
  2 18  1  0
  3 19  1  6
  5 20  1  0
  6 21  1  0
  8 22  1  0
 11 23  1  0
 12 24  1  0
 15 25  1  0
M  ISO  8  16  13  17  13  18  13  19  13  20  14  21  14  22  14  23  14
M  ISO  2  24   9  25   3
M  END
>  <minimizedAffinity>  (1) 
-5.01021051

>  <minimizedRMSD>  (1) 
1.39129281

$$$$
