
     RDKit          3D

 28 30  0  0  1  0  0  0  0  0999 V2000
   46.6660   34.7640   41.9000 C   0  0  1  0  0  0  0  0  0  0  0  0
   46.9500   33.3260   41.4490 C   0  0  0  0  0  0  0  0  0  0  0  0
   46.0410   34.1740   40.7010 C   0  0  1  0  0  0  0  0  0  0  0  0
   44.5790   33.8510   40.7990 C   0  0  0  0  0  0  0  0  0  0  0  0
   43.8890   32.8890   41.5180 C   0  0  0  0  0  0  0  0  0  0  0  0
   42.5670   33.0050   41.2750 N   0  0  0  0  0  0  0  0  0  0  0  0
   42.4420   34.0130   40.4290 C   0  0  0  0  0  0  0  0  0  0  0  0
   43.6210   34.5590   40.1110 N   0  0  0  0  0  0  0  0  0  0  0  0
   41.1430   35.3870   38.7600 C   0  0  0  0  0  0  0  0  0  0  0  0
   42.1790   35.7570   38.1950 O   0  0  0  0  0  0  0  0  0  0  0  0
   41.2340   34.5160   39.8780 N   0  0  0  0  0  0  0  0  0  0  0  0
   45.9660   34.8910   43.2020 C   0  0  0  0  0  0  0  0  0  0  0  0
   45.1460   36.0170   43.3970 C   0  0  0  0  0  0  0  0  0  0  0  0
   44.4960   36.1250   44.6400 C   0  0  0  0  0  0  0  0  0  0  0  0
   44.6960   35.1500   45.5720 N   0  0  0  0  0  0  0  0  0  0  0  0
   45.5030   34.0850   45.3230 C   0  0  0  0  0  0  0  0  0  0  0  0
   46.1370   33.9520   44.1460 N   0  0  0  0  0  0  0  0  0  0  0  0
   47.2020   35.7088   42.0730 H   0  0  0  0  0  0  0  0  0  0  0  0
   47.9318   33.0628   41.0286 H   0  0  0  0  0  0  0  0  0  0  0  0
   46.8874   32.3323   41.9166 H   0  0  0  0  0  0  0  0  0  0  0  0
   45.9835   34.4769   39.6451 H   0  0  0  0  0  0  0  0  0  0  0  0
   44.3485   32.1446   42.1849 H   0  0  0  0  0  0  0  0  0  0  0  0
   41.8105   32.4269   41.6680 H   0  0  0  0  0  0  0  0  0  0  0  0
   40.1613   35.7290   38.4004 H   0  0  0  0  0  0  0  0  0  0  0  0
   40.3527   34.2258   40.3252 H   0  0  0  0  0  0  0  0  0  0  0  0
   45.0187   36.7784   42.6134 H   0  0  0  0  0  0  0  0  0  0  0  0
   43.8386   36.9801   44.8560 H   0  0  0  0  0  0  0  0  0  0  0  0
   45.6395   33.3179   46.0995 H   0  0  0  0  0  0  0  0  0  0  0  0
  1 12  1  0
  2  1  1  0
  3  4  1  0
  3  2  1  0
  3  1  1  0
  4  5  2  0
  6  5  1  0
  7  6  1  0
  8  7  2  0
  8  4  1  0
  9 11  1  0
 10  9  2  0
 11  7  1  0
 12 13  2  0
 12 17  1  0
 13 14  1  0
 14 15  2  0
 16 15  1  0
 17 16  2  0
  1 18  1  6
  2 19  1  0
  2 20  1  0
  3 21  1  6
  5 22  1  0
  6 23  1  0
  9 24  1  0
 11 25  1  0
 13 26  1  0
 14 27  1  0
 16 28  1  0
M  ISO  8  18  13  19  13  20  13  21  13  22  14  23   9  24   6  26  14
M  ISO  2  27  14  28  14
M  END
>  <minimizedAffinity>  (1) 
-4.97531462

>  <minimizedRMSD>  (1) 
5.1139555

$$$$
