
     RDKit          3D

 31 34  0  0  1  0  0  0  0  0999 V2000
   47.0380   33.7260   43.7940 C   0  0  1  0  0  0  0  0  0  0  0  0
   47.6480   32.4240   43.2650 C   0  0  0  0  0  0  0  0  0  0  0  0
   48.3630   33.6840   43.1420 C   0  0  1  0  0  0  0  0  0  0  0  0
   45.8160   34.1870   43.1070 C   0  0  0  0  0  0  0  0  0  0  0  0
   45.5420   35.5660   43.0810 C   0  0  0  0  0  0  0  0  0  0  0  0
   44.3720   35.9840   42.4300 C   0  0  0  0  0  0  0  0  0  0  0  0
   43.5670   35.0200   41.8590 N   0  0  0  0  0  0  0  0  0  0  0  0
   43.8820   33.7040   41.9160 C   0  0  0  0  0  0  0  0  0  0  0  0
   45.0000   33.2890   42.5370 N   0  0  0  0  0  0  0  0  0  0  0  0
   48.4570   34.2750   41.7760 C   0  0  0  0  0  0  0  0  0  0  0  0
   48.9540   35.4910   41.3320 C   0  0  0  0  0  0  0  0  0  0  0  0
   48.8360   35.5590   39.9970 N   0  0  0  0  0  0  0  0  0  0  0  0
   48.2750   34.4080   39.6040 C   0  0  0  0  0  0  0  0  0  0  0  0
   48.0350   33.6120   40.6510 N   0  0  0  0  0  0  0  0  0  0  0  0
   47.9600   34.0600   38.1770 C   0  0  0  0  0  0  0  0  0  0  0  0
   47.8240   32.6320   37.7930 C   0  0  0  0  0  0  0  0  0  0  0  0
   49.0250   33.4100   37.3270 C   0  0  0  0  0  0  0  0  0  0  0  0
   46.6840   34.1549   44.7431 H   0  0  0  0  0  0  0  0  0  0  0  0
   48.0017   31.6548   43.9672 H   0  0  0  0  0  0  0  0  0  0  0  0
   47.3263   31.6359   42.5683 H   0  0  0  0  0  0  0  0  0  0  0  0
   49.3681   34.0191   43.4377 H   0  0  0  0  0  0  0  0  0  0  0  0
   46.2208   36.2908   43.5542 H   0  0  0  0  0  0  0  0  0  0  0  0
   44.1041   37.0495   42.3763 H   0  0  0  0  0  0  0  0  0  0  0  0
   43.2146   32.9652   41.4482 H   0  0  0  0  0  0  0  0  0  0  0  0
   49.3786   36.2770   41.9738 H   0  0  0  0  0  0  0  0  0  0  0  0
   49.1211   36.3429   39.3928 H   0  0  0  0  0  0  0  0  0  0  0  0
   47.3260   34.9535   38.0782 H   0  0  0  0  0  0  0  0  0  0  0  0
   47.9413   31.8462   38.5538 H   0  0  0  0  0  0  0  0  0  0  0  0
   47.0465   32.0356   37.2931 H   0  0  0  0  0  0  0  0  0  0  0  0
   50.0182   33.1997   37.7506 H   0  0  0  0  0  0  0  0  0  0  0  0
   49.4899   33.6249   36.3535 H   0  0  0  0  0  0  0  0  0  0  0  0
  2  1  1  0
  3  2  1  0
  3  1  1  0
  4  1  1  0
  5  4  2  0
  6  5  1  0
  7  8  1  0
  7  6  2  0
  8  9  2  0
  9  4  1  0
 10  3  1  0
 11 10  2  0
 12 11  1  0
 13 12  1  0
 13 14  2  0
 14 10  1  0
 15 13  1  0
 16 15  1  0
 17 16  1  0
 17 15  1  0
  1 18  1  1
  2 19  1  0
  2 20  1  0
  3 21  1  1
  5 22  1  0
  6 23  1  0
  8 24  1  0
 11 25  1  0
 12 26  1  0
 15 27  1  0
 16 28  1  0
 16 29  1  0
 17 30  1  0
 17 31  1  0
M  ISO  8  18  13  19  13  20  13  21  13  22  14  23  14  24  14  25  14
M  ISO  6  26   9  27  13  28  13  29  13  30  13  31  13
M  END
>  <minimizedAffinity>  (1) 
-4.49992371

>  <minimizedRMSD>  (1) 
5.87204123

$$$$
