
     RDKit          3D

 30 32  0  0  1  0  0  0  0  0999 V2000
   46.8050   32.7480   40.5760 C   0  0  1  0  0  0  0  0  0  0  0  0
   46.0700   31.8140   41.5420 C   0  0  0  0  0  0  0  0  0  0  0  0
   45.3600   32.8660   40.8380 C   0  0  1  0  0  0  0  0  0  0  0  0
   47.8130   33.6420   41.2020 C   0  0  0  0  0  0  0  0  0  0  0  0
   48.0200   34.9080   40.6230 C   0  0  0  0  0  0  0  0  0  0  0  0
   48.9830   35.7310   41.2140 C   0  0  0  0  0  0  0  0  0  0  0  0
   49.6630   35.2680   42.3070 N   0  0  0  0  0  0  0  0  0  0  0  0
   49.4210   34.0300   42.8250 C   0  0  0  0  0  0  0  0  0  0  0  0
   48.5000   33.2180   42.2740 N   0  0  0  0  0  0  0  0  0  0  0  0
   44.9150   34.0450   41.6500 C   0  0  0  0  0  0  0  0  0  0  0  0
   44.2520   35.2080   41.2920 C   0  0  0  0  0  0  0  0  0  0  0  0
   44.0540   35.9580   42.3820 N   0  0  0  0  0  0  0  0  0  0  0  0
   44.5850   35.2760   43.4100 C   0  0  0  0  0  0  0  0  0  0  0  0
   45.1160   34.1120   43.0060 N   0  0  0  0  0  0  0  0  0  0  0  0
   44.5330   35.8440   44.7880 C   0  0  0  0  0  0  0  0  0  0  0  0
   44.7680   34.8300   45.8600 C   0  0  0  0  0  0  0  0  0  0  0  0
   47.3946   32.6937   39.6489 H   0  0  0  0  0  0  0  0  0  0  0  0
   45.9045   30.7603   41.2731 H   0  0  0  0  0  0  0  0  0  0  0  0
   46.1937   31.5222   42.5954 H   0  0  0  0  0  0  0  0  0  0  0  0
   44.4689   32.8800   40.1932 H   0  0  0  0  0  0  0  0  0  0  0  0
   47.4481   35.2360   39.7425 H   0  0  0  0  0  0  0  0  0  0  0  0
   49.1901   36.7321   40.8078 H   0  0  0  0  0  0  0  0  0  0  0  0
   49.9864   33.6904   43.7053 H   0  0  0  0  0  0  0  0  0  0  0  0
   43.9378   35.4730   40.2717 H   0  0  0  0  0  0  0  0  0  0  0  0
   43.5875   36.8753   42.4244 H   0  0  0  0  0  0  0  0  0  0  0  0
   45.3035   36.6245   44.8721 H   0  0  0  0  0  0  0  0  0  0  0  0
   43.5182   36.2418   44.9358 H   0  0  0  0  0  0  0  0  0  0  0  0
   44.6577   35.3060   46.8455 H   0  0  0  0  0  0  0  0  0  0  0  0
   44.0347   34.0160   45.7618 H   0  0  0  0  0  0  0  0  0  0  0  0
   45.7846   34.4215   45.7618 H   0  0  0  0  0  0  0  0  0  0  0  0
  1  3  1  0
  1  4  1  0
  1  2  1  0
  3  2  1  0
  3 10  1  0
  4  9  1  0
  5  4  2  0
  5  6  1  0
  6  7  2  0
  7  8  1  0
  9  8  2  0
 10 14  1  0
 11 10  2  0
 11 12  1  0
 12 13  1  0
 13 15  1  0
 14 13  2  0
 15 16  1  0
  1 17  1  6
  2 18  1  0
  2 19  1  0
  3 20  1  6
  5 21  1  0
  6 22  1  0
  8 23  1  0
 11 24  1  0
 12 25  1  0
 15 26  1  0
 15 27  1  0
 16 28  1  0
 16 29  1  0
 16 30  1  0
M  ISO  8  17  13  18  13  19  13  20  13  21  14  22  14  23  14  24  14
M  ISO  6  25   9  26   8  27   8  28   8  29   8  30   8
M  END
>  <minimizedAffinity>  (1) 
-4.37839317

>  <minimizedRMSD>  (1) 
1.33088374

$$$$
