
     RDKit          3D

 23 24  0  0  0  0  0  0  0  0999 V2000
   44.5060   35.8890   44.7230 C   0  0  0  0  0  0  0  0  0  0  0  0
   45.1110   36.0420   43.4690 C   0  0  0  0  0  0  0  0  0  0  0  0
   46.0650   35.0920   43.0890 C   0  0  0  0  0  0  0  0  0  0  0  0
   46.3530   34.0700   43.9580 N   0  0  0  0  0  0  0  0  0  0  0  0
   45.7460   33.9620   45.1550 C   0  0  0  0  0  0  0  0  0  0  0  0
   44.8290   34.8610   45.5400 N   0  0  0  0  0  0  0  0  0  0  0  0
   46.7700   35.1400   41.8000 C   0  0  0  0  0  0  0  0  0  0  0  0
   46.8660   33.8120   41.0870 C   0  0  0  0  0  0  0  0  0  0  0  0
   47.7860   34.2110   39.9330 C   0  0  0  0  0  0  0  0  0  0  0  0
   48.7150   35.2510   40.5220 C   0  0  0  0  0  0  0  0  0  0  0  0
   48.2540   35.4490   41.9580 C   0  0  0  0  0  0  0  0  0  0  0  0
   43.7523   36.6204   45.0501 H   0  0  0  0  0  0  0  0  0  0  0  0
   44.8455   36.8792   42.8067 H   0  0  0  0  0  0  0  0  0  0  0  0
   46.0051   33.1279   45.8236 H   0  0  0  0  0  0  0  0  0  0  0  0
   46.1776   35.8933   41.2599 H   0  0  0  0  0  0  0  0  0  0  0  0
   47.3181   33.0366   41.7229 H   0  0  0  0  0  0  0  0  0  0  0  0
   45.9039   33.3707   40.7876 H   0  0  0  0  0  0  0  0  0  0  0  0
   47.2038   34.6371   39.1026 H   0  0  0  0  0  0  0  0  0  0  0  0
   48.3334   33.3503   39.5213 H   0  0  0  0  0  0  0  0  0  0  0  0
   49.7550   34.8933   40.4990 H   0  0  0  0  0  0  0  0  0  0  0  0
   48.6844   36.1916   39.9525 H   0  0  0  0  0  0  0  0  0  0  0  0
   48.4226   36.4798   42.3032 H   0  0  0  0  0  0  0  0  0  0  0  0
   48.7799   34.8350   42.7039 H   0  0  0  0  0  0  0  0  0  0  0  0
  1  6  2  0
  2  1  1  0
  3  2  2  0
  3  4  1  0
  4  5  2  0
  5  6  1  0
  7 11  1  0
  7  3  1  0
  8  7  1  0
  9 10  1  0
  9  8  1  0
 10 11  1  0
  1 12  1  0
  2 13  1  0
  5 14  1  0
  7 15  1  0
  8 16  1  0
  8 17  1  0
  9 18  1  0
  9 19  1  0
 10 20  1  0
 10 21  1  0
 11 22  1  0
 11 23  1  0
M  ISO  8  12  14  13  14  14  14  15  13  16  13  17  13  18  13  19  13
M  ISO  4  20  13  21  13  22  13  23  13
M  END
>  <minimizedAffinity>  (1) 
-4.45750904

>  <minimizedRMSD>  (1) 
1.4644506

$$$$
