
     RDKit          3D

 31 33  0  0  1  0  0  0  0  0999 V2000
   45.7180   34.3870   41.5110 C   0  0  2  0  0  0  0  0  0  0  0  0
   44.5990   33.7930   40.7080 C   0  0  0  0  0  0  0  0  0  0  0  0
   45.3390   33.4000   39.4380 C   0  0  0  0  0  0  0  0  0  0  0  0
   46.7380   33.0500   39.8960 C   0  0  0  0  0  0  0  0  0  0  0  0
   46.7540   33.2840   41.3960 C   0  0  1  0  0  0  0  0  0  0  0  0
   44.5710   36.1500   44.6320 C   0  0  0  0  0  0  0  0  0  0  0  0
   44.8580   35.9700   43.2640 C   0  0  0  0  0  0  0  0  0  0  0  0
   45.3790   34.7240   42.9000 C   0  0  0  0  0  0  0  0  0  0  0  0
   45.5870   33.7490   43.8580 N   0  0  0  0  0  0  0  0  0  0  0  0
   45.2890   33.9910   45.1560 C   0  0  0  0  0  0  0  0  0  0  0  0
   44.7850   35.1800   45.5420 N   0  0  0  0  0  0  0  0  0  0  0  0
   48.1070   33.6530   41.7860 C   0  0  0  0  0  0  0  0  0  0  0  0
   48.6040   34.9280   42.0630 C   0  0  0  0  0  0  0  0  0  0  0  0
   49.9210   35.1300   42.4240 C   0  0  0  0  0  0  0  0  0  0  0  0
   50.7640   34.0740   42.5150 N   0  0  0  0  0  0  0  0  0  0  0  0
   50.2860   32.8280   42.2470 C   0  0  0  0  0  0  0  0  0  0  0  0
   49.0000   32.6490   41.8970 N   0  0  0  0  0  0  0  0  0  0  0  0
   46.0421   35.3714   41.1425 H   0  0  0  0  0  0  0  0  0  0  0  0
   44.1612   32.9172   41.2093 H   0  0  0  0  0  0  0  0  0  0  0  0
   43.7447   34.4672   40.5479 H   0  0  0  0  0  0  0  0  0  0  0  0
   45.3628   34.2400   38.7281 H   0  0  0  0  0  0  0  0  0  0  0  0
   44.8519   32.5627   38.9168 H   0  0  0  0  0  0  0  0  0  0  0  0
   46.9625   31.9971   39.6703 H   0  0  0  0  0  0  0  0  0  0  0  0
   47.4960   33.6605   39.3833 H   0  0  0  0  0  0  0  0  0  0  0  0
   46.5120   32.4378   42.0559 H   0  0  0  0  0  0  0  0  0  0  0  0
   44.1591   37.1133   44.9674 H   0  0  0  0  0  0  0  0  0  0  0  0
   44.6822   36.7647   42.5241 H   0  0  0  0  0  0  0  0  0  0  0  0
   45.4607   33.2057   45.9069 H   0  0  0  0  0  0  0  0  0  0  0  0
   47.9289   35.7936   41.9918 H   0  0  0  0  0  0  0  0  0  0  0  0
   50.2848   36.1460   42.6372 H   0  0  0  0  0  0  0  0  0  0  0  0
   50.9577   31.9597   42.3174 H   0  0  0  0  0  0  0  0  0  0  0  0
  1  8  1  0
  2  1  1  0
  3  4  1  0
  3  2  1  0
  4  5  1  0
  5  1  1  0
  5 12  1  0
  6 11  2  0
  7  6  1  0
  8  7  2  0
  8  9  1  0
  9 10  2  0
 10 11  1  0
 12 17  1  0
 12 13  2  0
 13 14  1  0
 14 15  2  0
 16 15  1  0
 17 16  2  0
  1 18  1  6
  2 19  1  0
  2 20  1  0
  3 21  1  0
  3 22  1  0
  4 23  1  0
  4 24  1  0
  5 25  1  1
  6 26  1  0
  7 27  1  0
 10 28  1  0
 13 29  1  0
 14 30  1  0
 16 31  1  0
M  ISO  8  18  13  19  13  20  13  21  13  22  13  23  13  24  13  25  13
M  ISO  6  26  14  27  14  28  14  29  14  30  14  31  14
M  END
>  <minimizedAffinity>  (1) 
-4.85851288

>  <minimizedRMSD>  (1) 
2.98920059

$$$$
