
     RDKit          3D

 25 26  0  0  1  0  0  0  0  0999 V2000
   46.7670   35.0260   41.8620 C   0  0  2  0  0  0  0  0  0  0  0  0
   46.9230   33.7180   41.1540 C   0  0  0  0  0  0  0  0  0  0  0  0
   47.8090   34.1700   39.9910 C   0  0  0  0  0  0  0  0  0  0  0  0
   48.7070   35.2330   40.5760 C   0  0  0  0  0  0  0  0  0  0  0  0
   48.2220   35.4620   41.9920 C   0  0  2  0  0  0  0  0  0  0  0  0
   44.6000   35.7170   44.8800 C   0  0  0  0  0  0  0  0  0  0  0  0
   45.1760   35.9160   43.6080 C   0  0  0  0  0  0  0  0  0  0  0  0
   46.0910   34.9510   43.1760 C   0  0  0  0  0  0  0  0  0  0  0  0
   46.3830   33.8730   43.9890 N   0  0  0  0  0  0  0  0  0  0  0  0
   45.7980   33.7390   45.1960 C   0  0  0  0  0  0  0  0  0  0  0  0
   44.9150   34.6470   45.6450 N   0  0  0  0  0  0  0  0  0  0  0  0
   48.9480   34.6910   42.9730 N   0  0  0  0  0  0  0  0  0  0  0  0
   46.1118   35.7220   41.3177 H   0  0  0  0  0  0  0  0  0  0  0  0
   47.4224   32.9668   41.7835 H   0  0  0  0  0  0  0  0  0  0  0  0
   45.9831   33.2250   40.8648 H   0  0  0  0  0  0  0  0  0  0  0  0
   47.1968   34.5857   39.1771 H   0  0  0  0  0  0  0  0  0  0  0  0
   48.3819   33.3362   39.5590 H   0  0  0  0  0  0  0  0  0  0  0  0
   49.7518   34.8890   40.5816 H   0  0  0  0  0  0  0  0  0  0  0  0
   48.6699   36.1596   39.9844 H   0  0  0  0  0  0  0  0  0  0  0  0
   48.3611   36.4916   42.3533 H   0  0  0  0  0  0  0  0  0  0  0  0
   43.8751   36.4518   45.2601 H   0  0  0  0  0  0  0  0  0  0  0  0
   44.9183   36.7866   42.9870 H   0  0  0  0  0  0  0  0  0  0  0  0
   46.0478   32.8713   45.8243 H   0  0  0  0  0  0  0  0  0  0  0  0
   48.6683   34.9881   43.9187 H   0  0  0  0  0  0  0  0  0  0  0  0
   48.7346   33.6909   42.8501 H   0  0  0  0  0  0  0  0  0  0  0  0
  1  5  1  0
  1  8  1  0
  2  1  1  0
  3  4  1  0
  3  2  1  0
  4  5  1  0
  5 12  1  0
  6 11  2  0
  7  6  1  0
  8  7  2  0
  8  9  1  0
  9 10  2  0
 10 11  1  0
  1 13  1  6
  2 14  1  0
  2 15  1  0
  3 16  1  0
  3 17  1  0
  4 18  1  0
  4 19  1  0
  5 20  1  1
  6 21  1  0
  7 22  1  0
 10 23  1  0
 12 24  1  0
 12 25  1  0
M  ISO  8  13  13  14  13  15  13  16  13  17  13  18  13  19  13  20  13
M  ISO  5  21  14  22  14  23  14  24   5  25   5
M  END
>  <minimizedAffinity>  (1) 
-4.69242859

>  <minimizedRMSD>  (1) 
0.172045097

$$$$
