
     RDKit          3D

 32 33  0  0  1  0  0  0  0  0999 V2000
   45.0550   34.3210   41.4180 C   0  0  2  0  0  0  0  0  0  0  0  0
   44.0590   33.3270   40.9110 C   0  0  0  0  0  0  0  0  0  0  0  0
   44.5360   33.1710   39.4780 C   0  0  0  0  0  0  0  0  0  0  0  0
   46.0200   33.4020   39.5290 C   0  0  0  0  0  0  0  0  0  0  0  0
   46.3600   33.6400   41.0010 C   0  0  1  0  0  0  0  0  0  0  0  0
   44.5390   35.8680   44.8270 C   0  0  0  0  0  0  0  0  0  0  0  0
   44.5520   35.7460   43.4430 C   0  0  0  0  0  0  0  0  0  0  0  0
   45.0010   34.5580   42.8760 C   0  0  0  0  0  0  0  0  0  0  0  0
   45.4130   33.5460   43.7220 N   0  0  0  0  0  0  0  0  0  0  0  0
   45.3800   33.7150   45.0590 C   0  0  0  0  0  0  0  0  0  0  0  0
   44.9490   34.8580   45.6100 N   0  0  0  0  0  0  0  0  0  0  0  0
   47.4620   34.5880   41.1890 C   0  0  0  0  0  0  0  0  0  0  0  0
   48.5450   35.2720   40.8530 C   0  0  0  0  0  0  0  0  0  0  0  0
   49.3700   36.2730   41.6080 C   0  0  0  0  0  0  0  0  0  0  0  0
   44.8945   35.3332   41.0183 H   0  0  0  0  0  0  0  0  0  0  0  0
   44.1141   32.3776   41.4638 H   0  0  0  0  0  0  0  0  0  0  0  0
   43.0080   33.6344   41.0153 H   0  0  0  0  0  0  0  0  0  0  0  0
   44.0521   33.9143   38.8274 H   0  0  0  0  0  0  0  0  0  0  0  0
   44.2880   32.1809   39.0678 H   0  0  0  0  0  0  0  0  0  0  0  0
   46.5572   32.5199   39.1506 H   0  0  0  0  0  0  0  0  0  0  0  0
   46.3160   34.2574   38.9040 H   0  0  0  0  0  0  0  0  0  0  0  0
   46.6725   32.7356   41.5436 H   0  0  0  0  0  0  0  0  0  0  0  0
   44.1884   36.8039   45.2866 H   0  0  0  0  0  0  0  0  0  0  0  0
   44.2125   36.5759   42.8058 H   0  0  0  0  0  0  0  0  0  0  0  0
   45.7145   32.8959   45.7126 H   0  0  0  0  0  0  0  0  0  0  0  0
   46.8427   35.4536   41.4668 H   0  0  0  0  0  0  0  0  0  0  0  0
   48.1178   33.7215   41.3598 H   0  0  0  0  0  0  0  0  0  0  0  0
   49.2703   34.4915   40.5796 H   0  0  0  0  0  0  0  0  0  0  0  0
   48.0392   35.9948   40.1959 H   0  0  0  0  0  0  0  0  0  0  0  0
   49.2397   36.1150   42.6888 H   0  0  0  0  0  0  0  0  0  0  0  0
   50.4305   36.1476   41.3443 H   0  0  0  0  0  0  0  0  0  0  0  0
   49.0444   37.2901   41.3443 H   0  0  0  0  0  0  0  0  0  0  0  0
  1  8  1  0
  2  1  1  0
  3  4  1  0
  3  2  1  0
  4  5  1  0
  5 12  1  0
  5  1  1  0
  6 11  2  0
  7  6  1  0
  8  7  2  0
  8  9  1  0
  9 10  2  0
 10 11  1  0
 13 12  1  0
 13 14  1  0
  1 15  1  6
  2 16  1  0
  2 17  1  0
  3 18  1  0
  3 19  1  0
  4 20  1  0
  4 21  1  0
  5 22  1  1
  6 23  1  0
  7 24  1  0
 10 25  1  0
 12 26  1  0
 12 27  1  0
 13 28  1  0
 13 29  1  0
 14 30  1  0
 14 31  1  0
 14 32  1  0
M  ISO  8  15  13  16  13  17  13  18  13  19  13  20  13  21  13  22  13
M  ISO  8  23  14  24  14  25  14  26   8  27   8  28   8  29   8  30   8
M  ISO  2  31   8  32   8
M  END
>  <minimizedAffinity>  (1) 
-4.61387491

>  <minimizedRMSD>  (1) 
2.34832072

$$$$
