
     RDKit          3D

 26 27  0  0  1  0  0  0  0  0999 V2000
   46.4440   34.7750   41.3480 C   0  0  2  0  0  0  0  0  0  0  0  0
   46.0140   33.5500   40.6130 C   0  0  0  0  0  0  0  0  0  0  0  0
   46.9380   33.6410   39.3930 C   0  0  0  0  0  0  0  0  0  0  0  0
   48.1830   34.3450   39.8770 C   0  0  0  0  0  0  0  0  0  0  0  0
   47.9670   34.5620   41.3680 C   0  0  1  0  0  0  0  0  0  0  0  0
   44.6650   35.9870   44.4510 C   0  0  0  0  0  0  0  0  0  0  0  0
   45.1290   35.9780   43.1400 C   0  0  0  0  0  0  0  0  0  0  0  0
   45.9070   34.8830   42.7210 C   0  0  0  0  0  0  0  0  0  0  0  0
   46.1730   33.8700   43.6230 N   0  0  0  0  0  0  0  0  0  0  0  0
   45.6950   33.9370   44.8790 C   0  0  0  0  0  0  0  0  0  0  0  0
   44.9480   34.9810   45.2970 N   0  0  0  0  0  0  0  0  0  0  0  0
   48.6780   35.7760   41.8780 C   0  0  0  0  0  0  0  0  0  0  0  0
   46.0891   35.7038   40.8774 H   0  0  0  0  0  0  0  0  0  0  0  0
   46.1971   32.6365   41.1978 H   0  0  0  0  0  0  0  0  0  0  0  0
   44.9400   33.4992   40.3809 H   0  0  0  0  0  0  0  0  0  0  0  0
   46.4576   34.2193   38.5900 H   0  0  0  0  0  0  0  0  0  0  0  0
   47.1670   32.6470   38.9813 H   0  0  0  0  0  0  0  0  0  0  0  0
   49.0714   33.7200   39.7032 H   0  0  0  0  0  0  0  0  0  0  0  0
   48.3518   35.2927   39.3446 H   0  0  0  0  0  0  0  0  0  0  0  0
   48.3394   33.7567   42.0182 H   0  0  0  0  0  0  0  0  0  0  0  0
   44.0554   36.8326   44.8022 H   0  0  0  0  0  0  0  0  0  0  0  0
   44.8947   36.8027   42.4508 H   0  0  0  0  0  0  0  0  0  0  0  0
   45.9183   33.1213   45.5824 H   0  0  0  0  0  0  0  0  0  0  0  0
   48.6736   35.7685   42.9780 H   0  0  0  0  0  0  0  0  0  0  0  0
   49.7165   35.7721   41.5155 H   0  0  0  0  0  0  0  0  0  0  0  0
   48.1665   36.6798   41.5155 H   0  0  0  0  0  0  0  0  0  0  0  0
  1  5  1  0
  1  8  1  0
  2  1  1  0
  3  4  1  0
  3  2  1  0
  4  5  1  0
  5 12  1  0
  6 11  2  0
  7  6  1  0
  8  7  2  0
  8  9  1  0
  9 10  2  0
 10 11  1  0
  1 13  1  6
  2 14  1  0
  2 15  1  0
  3 16  1  0
  3 17  1  0
  4 18  1  0
  4 19  1  0
  5 20  1  1
  6 21  1  0
  7 22  1  0
 10 23  1  0
 12 24  1  0
 12 25  1  0
 12 26  1  0
M  ISO  8  13  13  14  13  15  13  16  13  17  13  18  13  19  13  20  13
M  ISO  6  21  14  22  14  23  14  24   8  25   8  26   8
M  END
>  <minimizedAffinity>  (1) 
-4.52094603

>  <minimizedRMSD>  (1) 
0.806171358

$$$$
