
     RDKit          3D

 36 38  0  0  1  0  0  0  0  0999 V2000
   48.5190   34.0610   40.6890 C   0  0  2  0  0  0  0  0  0  0  0  0
   49.5070   33.1670   41.3750 C   0  0  0  0  0  0  0  0  0  0  0  0
   49.4630   33.7190   42.7900 C   0  0  0  0  0  0  0  0  0  0  0  0
   48.0620   34.2450   42.9600 C   0  0  0  0  0  0  0  0  0  0  0  0
   47.3500   33.8870   41.6600 C   0  0  1  0  0  0  0  0  0  0  0  0
   47.3230   32.1020   37.7100 C   0  0  0  0  0  0  0  0  0  0  0  0
   47.6180   32.3820   39.0410 C   0  0  0  0  0  0  0  0  0  0  0  0
   48.1590   33.6520   39.3160 C   0  0  0  0  0  0  0  0  0  0  0  0
   48.3700   34.5520   38.2900 N   0  0  0  0  0  0  0  0  0  0  0  0
   48.0590   34.2140   37.0220 C   0  0  0  0  0  0  0  0  0  0  0  0
   47.5420   33.0000   36.7380 N   0  0  0  0  0  0  0  0  0  0  0  0
   46.2410   34.8480   41.4840 C   0  0  0  0  0  0  0  0  0  0  0  0
   44.9410   34.3190   41.0080 C   0  0  0  0  0  0  0  0  0  0  0  0
   43.8480   35.0410   41.7790 C   0  0  0  0  0  0  0  0  0  0  0  0
   44.5210   35.9590   42.7620 C   0  0  0  0  0  0  0  0  0  0  0  0
   45.8960   35.3420   42.8920 C   0  0  0  0  0  0  0  0  0  0  0  0
   48.8810   35.0858   40.5197 H   0  0  0  0  0  0  0  0  0  0  0  0
   49.1901   32.1141   41.3420 H   0  0  0  0  0  0  0  0  0  0  0  0
   50.5085   33.1643   40.9201 H   0  0  0  0  0  0  0  0  0  0  0  0
   49.6689   32.9239   43.5217 H   0  0  0  0  0  0  0  0  0  0  0  0
   50.2201   34.5003   42.9524 H   0  0  0  0  0  0  0  0  0  0  0  0
   47.5688   33.7633   43.8171 H   0  0  0  0  0  0  0  0  0  0  0  0
   48.0463   35.3271   43.1572 H   0  0  0  0  0  0  0  0  0  0  0  0
   46.8747   32.8998   41.5625 H   0  0  0  0  0  0  0  0  0  0  0  0
   46.9001   31.1207   37.4489 H   0  0  0  0  0  0  0  0  0  0  0  0
   47.4372   31.6468   39.8390 H   0  0  0  0  0  0  0  0  0  0  0  0
   48.2287   34.9361   36.2097 H   0  0  0  0  0  0  0  0  0  0  0  0
   46.6091   35.5637   40.7342 H   0  0  0  0  0  0  0  0  0  0  0  0
   44.8294   34.5090   39.9303 H   0  0  0  0  0  0  0  0  0  0  0  0
   44.8797   33.2330   41.1716 H   0  0  0  0  0  0  0  0  0  0  0  0
   43.2228   35.6245   41.0872 H   0  0  0  0  0  0  0  0  0  0  0  0
   43.2009   34.3208   42.3010 H   0  0  0  0  0  0  0  0  0  0  0  0
   44.5806   36.9857   42.3716 H   0  0  0  0  0  0  0  0  0  0  0  0
   43.9860   36.0471   43.7191 H   0  0  0  0  0  0  0  0  0  0  0  0
   45.8780   34.5028   43.6030 H   0  0  0  0  0  0  0  0  0  0  0  0
   46.6377   36.0598   43.2723 H   0  0  0  0  0  0  0  0  0  0  0  0
  1  2  1  0
  1  5  1  0
  2  3  1  0
  3  4  1  0
  5  4  1  0
  6  7  2  0
  7  8  1  0
  8  1  1  0
  9  8  2  0
 10  9  1  0
 11 10  2  0
 11  6  1  0
 12  5  1  0
 12 16  1  0
 13 12  1  0
 13 14  1  0
 14 15  1  0
 15 16  1  0
  1 17  1  6
  2 18  1  0
  2 19  1  0
  3 20  1  0
  3 21  1  0
  4 22  1  0
  4 23  1  0
  5 24  1  1
  6 25  1  0
  7 26  1  0
 10 27  1  0
 12 28  1  0
 13 29  1  0
 13 30  1  0
 14 31  1  0
 14 32  1  0
 15 33  1  0
 15 34  1  0
 16 35  1  0
 16 36  1  0
M  ISO  8  17  13  18  13  19  13  20  13  21  13  22  13  23  13  24  13
M  ISO  8  25  14  26  14  27  14  28  13  29  13  30  13  31  13  32  13
M  ISO  4  33  13  34  13  35  13  36  13
M  END
>  <minimizedAffinity>  (1) 
-4.40522242

>  <minimizedRMSD>  (1) 
5.32816696

$$$$
