
     RDKit          3D

 35 37  0  0  1  0  0  0  0  0999 V2000
   46.7090   34.3430   40.6310 C   0  0  2  0  0  0  0  0  0  0  0  0
   48.1550   34.2120   40.2530 C   0  0  0  0  0  0  0  0  0  0  0  0
   48.7420   35.3760   41.0570 C   0  0  0  0  0  0  0  0  0  0  0  0
   47.8480   35.5110   42.2750 C   0  0  0  0  0  0  0  0  0  0  0  0
   46.8290   34.4020   42.1310 C   0  0  1  0  0  0  0  0  0  0  0  0
   43.8800   32.2560   39.2440 C   0  0  0  0  0  0  0  0  0  0  0  0
   44.5940   33.3820   39.6560 C   0  0  0  0  0  0  0  0  0  0  0  0
   45.8740   33.2100   40.1730 C   0  0  0  0  0  0  0  0  0  0  0  0
   46.3870   31.9280   40.2560 N   0  0  0  0  0  0  0  0  0  0  0  0
   45.6600   30.8740   39.8460 C   0  0  0  0  0  0  0  0  0  0  0  0
   44.4170   31.0290   39.3440 N   0  0  0  0  0  0  0  0  0  0  0  0
   45.6860   34.6030   42.8700 N   0  0  0  0  0  0  0  0  0  0  0  0
   45.1040   35.8420   43.0600 C   0  0  0  0  0  0  0  0  0  0  0  0
   44.6120   35.8040   44.5040 C   0  0  0  0  0  0  0  0  0  0  0  0
   45.2010   34.5150   45.0860 C   0  0  0  0  0  0  0  0  0  0  0  0
   45.3020   33.6470   43.8260 C   0  0  0  0  0  0  0  0  0  0  0  0
   46.2018   35.2039   40.1711 H   0  0  0  0  0  0  0  0  0  0  0  0
   48.5740   33.2450   40.5680 H   0  0  0  0  0  0  0  0  0  0  0  0
   48.3578   34.2443   39.1723 H   0  0  0  0  0  0  0  0  0  0  0  0
   49.7755   35.1525   41.3603 H   0  0  0  0  0  0  0  0  0  0  0  0
   48.7772   36.3048   40.4687 H   0  0  0  0  0  0  0  0  0  0  0  0
   48.4307   35.3843   43.1994 H   0  0  0  0  0  0  0  0  0  0  0  0
   47.3765   36.5029   42.3362 H   0  0  0  0  0  0  0  0  0  0  0  0
   47.1046   33.4248   42.5542 H   0  0  0  0  0  0  0  0  0  0  0  0
   42.8666   32.3746   38.8330 H   0  0  0  0  0  0  0  0  0  0  0  0
   44.1531   34.3864   39.5735 H   0  0  0  0  0  0  0  0  0  0  0  0
   46.0877   29.8634   39.9214 H   0  0  0  0  0  0  0  0  0  0  0  0
   45.8418   36.6457   42.9198 H   0  0  0  0  0  0  0  0  0  0  0  0
   44.2943   36.0427   42.3430 H   0  0  0  0  0  0  0  0  0  0  0  0
   44.9749   36.6811   45.0599 H   0  0  0  0  0  0  0  0  0  0  0  0
   43.5141   35.8242   44.5686 H   0  0  0  0  0  0  0  0  0  0  0  0
   46.1890   34.6895   45.5370 H   0  0  0  0  0  0  0  0  0  0  0  0
   44.6067   34.0700   45.8977 H   0  0  0  0  0  0  0  0  0  0  0  0
   44.3345   33.1889   43.5728 H   0  0  0  0  0  0  0  0  0  0  0  0
   45.9920   32.7952   43.9171 H   0  0  0  0  0  0  0  0  0  0  0  0
  1  5  1  0
  2  1  1  0
  2  3  1  0
  3  4  1  0
  5  4  1  0
  5 12  1  0
  6 11  2  0
  6  7  1  0
  7  8  2  0
  8  9  1  0
  8  1  1  0
 10  9  2  0
 11 10  1  0
 12 13  1  0
 12 16  1  0
 13 14  1  0
 14 15  1  0
 16 15  1  0
  1 17  1  6
  2 18  1  0
  2 19  1  0
  3 20  1  0
  3 21  1  0
  4 22  1  0
  4 23  1  0
  5 24  1  1
  6 25  1  0
  7 26  1  0
 10 27  1  0
 13 28  1  0
 13 29  1  0
 14 30  1  0
 14 31  1  0
 15 32  1  0
 15 33  1  0
 16 34  1  0
 16 35  1  0
M  ISO  8  17  13  18  13  19  13  20  13  21  13  22  13  23  13  24  13
M  ISO  8  25  14  26  14  27  14  28  13  29  13  30  13  31  13  32  13
M  ISO  3  33  13  34  13  35  13
M  END
>  <minimizedAffinity>  (1) 
-4.24762535

>  <minimizedRMSD>  (1) 
4.60171938

$$$$
