
     RDKit          3D

 28 29  0  0  1  0  0  0  0  0999 V2000
   45.1790   34.6720   41.3210 C   0  0  2  0  0  0  0  0  0  0  0  0
   45.9660   33.4270   41.1110 C   0  0  0  0  0  0  0  0  0  0  0  0
   47.3730   34.0440   41.2420 C   0  0  0  0  0  0  0  0  0  0  0  0
   47.2320   35.0460   42.3720 C   0  0  0  0  0  0  0  0  0  0  0  0
   45.7490   35.1470   42.6720 C   0  0  2  0  0  0  0  0  0  0  0  0
   41.4560   35.2310   41.5000 C   0  0  0  0  0  0  0  0  0  0  0  0
   42.8290   35.5650   41.5120 C   0  0  0  0  0  0  0  0  0  0  0  0
   43.7250   34.5270   41.3470 C   0  0  0  0  0  0  0  0  0  0  0  0
   43.2350   33.2390   41.1840 N   0  0  0  0  0  0  0  0  0  0  0  0
   41.9050   32.9800   41.1820 C   0  0  0  0  0  0  0  0  0  0  0  0
   41.0240   33.9610   41.3380 N   0  0  0  0  0  0  0  0  0  0  0  0
   45.3490   34.3740   43.7290 O   0  0  0  0  0  0  0  0  0  0  0  0
   44.9860   34.9000   44.9430 C   0  0  0  0  0  0  0  0  0  0  0  0
   44.5250   36.0700   44.9040 O   0  0  0  0  0  0  0  0  0  0  0  0
   45.1670   34.0780   46.0940 N   0  0  0  0  0  0  0  0  0  0  0  0
   45.2863   35.3730   40.4801 H   0  0  0  0  0  0  0  0  0  0  0  0
   45.7940   32.9869   40.1176 H   0  0  0  0  0  0  0  0  0  0  0  0
   45.7389   32.5902   41.7879 H   0  0  0  0  0  0  0  0  0  0  0  0
   48.1159   33.2729   41.4939 H   0  0  0  0  0  0  0  0  0  0  0  0
   47.7202   34.5075   40.3068 H   0  0  0  0  0  0  0  0  0  0  0  0
   47.7770   34.6960   43.2611 H   0  0  0  0  0  0  0  0  0  0  0  0
   47.6498   36.0243   42.0920 H   0  0  0  0  0  0  0  0  0  0  0  0
   45.4135   36.1442   42.9930 H   0  0  0  0  0  0  0  0  0  0  0  0
   40.7133   36.0325   41.6269 H   0  0  0  0  0  0  0  0  0  0  0  0
   43.1682   36.6027   41.6464 H   0  0  0  0  0  0  0  0  0  0  0  0
   41.5517   31.9467   41.0498 H   0  0  0  0  0  0  0  0  0  0  0  0
   44.9080   34.4324   47.0258 H   0  0  0  0  0  0  0  0  0  0  0  0
   45.5567   33.1299   45.9936 H   0  0  0  0  0  0  0  0  0  0  0  0
  1  8  1  0
  1  5  1  0
  2  3  1  0
  2  1  1  0
  3  4  1  0
  4  5  1  0
  5 12  1  0
  6  7  2  0
  8  7  1  0
  9  8  2  0
 10  9  1  0
 10 11  2  0
 11  6  1  0
 12 13  1  0
 13 15  1  0
 14 13  2  0
  1 16  1  6
  2 17  1  0
  2 18  1  0
  3 19  1  0
  3 20  1  0
  4 21  1  0
  4 22  1  0
  5 23  1  1
  6 24  1  0
  7 25  1  0
 10 26  1  0
 15 27  1  0
 15 28  1  0
M  ISO  8  16  13  17  13  18  13  19  13  20  13  21  13  22  13  23  13
M  ISO  3  24  14  25  14  26  14
M  END
>  <minimizedAffinity>  (1) 
-4.42127895

>  <minimizedRMSD>  (1) 
3.93918157

$$$$
