
     RDKit          3D

 26 27  0  0  1  0  0  0  0  0999 V2000
   46.5730   34.8130   41.6490 C   0  0  2  0  0  0  0  0  0  0  0  0
   46.8010   33.4330   41.1560 C   0  0  0  0  0  0  0  0  0  0  0  0
   47.5650   33.7690   39.8680 C   0  0  0  0  0  0  0  0  0  0  0  0
   48.4390   34.9510   40.2380 C   0  0  0  0  0  0  0  0  0  0  0  0
   48.0110   35.3670   41.6420 C   0  0  2  0  0  0  0  0  0  0  0  0
   44.6220   35.9890   44.6560 C   0  0  0  0  0  0  0  0  0  0  0  0
   45.1680   36.0210   43.3620 C   0  0  0  0  0  0  0  0  0  0  0  0
   45.9370   34.9500   42.9610 C   0  0  0  0  0  0  0  0  0  0  0  0
   46.1250   33.9170   43.8510 N   0  0  0  0  0  0  0  0  0  0  0  0
   45.5910   33.9080   45.0900 C   0  0  0  0  0  0  0  0  0  0  0  0
   44.8440   34.9410   45.4850 N   0  0  0  0  0  0  0  0  0  0  0  0
   48.8010   34.8400   42.6300 O   0  0  0  0  0  0  0  0  0  0  0  0
   50.1670   34.6240   42.6120 C   0  0  0  0  0  0  0  0  0  0  0  0
   50.6260   33.4780   42.5130 O   0  0  0  0  0  0  0  0  0  0  0  0
   45.8427   35.3473   41.0235 H   0  0  0  0  0  0  0  0  0  0  0  0
   47.4089   32.8394   41.8546 H   0  0  0  0  0  0  0  0  0  0  0  0
   45.8977   32.8187   41.0268 H   0  0  0  0  0  0  0  0  0  0  0  0
   46.8670   34.0396   39.0620 H   0  0  0  0  0  0  0  0  0  0  0  0
   48.1525   32.9161   39.4974 H   0  0  0  0  0  0  0  0  0  0  0  0
   49.4995   34.6588   40.2325 H   0  0  0  0  0  0  0  0  0  0  0  0
   48.3247   35.7769   39.5205 H   0  0  0  0  0  0  0  0  0  0  0  0
   48.0917   36.4444   41.8484 H   0  0  0  0  0  0  0  0  0  0  0  0
   44.0032   36.8300   45.0022 H   0  0  0  0  0  0  0  0  0  0  0  0
   44.9875   36.8734   42.6905 H   0  0  0  0  0  0  0  0  0  0  0  0
   45.7692   33.0592   45.7666 H   0  0  0  0  0  0  0  0  0  0  0  0
   50.8537   35.4801   42.6865 H   0  0  0  0  0  0  0  0  0  0  0  0
  1  8  1  0
  2  1  1  0
  3  4  1  0
  3  2  1  0
  4  5  1  0
  5  1  1  0
  5 12  1  0
  6 11  2  0
  7  6  1  0
  8  7  2  0
  8  9  1  0
  9 10  2  0
 10 11  1  0
 13 12  1  0
 14 13  2  0
  1 15  1  6
  2 16  1  0
  2 17  1  0
  3 18  1  0
  3 19  1  0
  4 20  1  0
  4 21  1  0
  5 22  1  6
  6 23  1  0
  7 24  1  0
 10 25  1  0
 13 26  1  0
M  ISO  8  15  13  16  13  17  13  18  13  19  13  20  13  21  13  22  13
M  ISO  4  23  14  24  14  25  14  26   6
M  END
>  <minimizedAffinity>  (1) 
-4.59400511

>  <minimizedRMSD>  (1) 
0.893056452

$$$$
