
     RDKit          3D

 28 29  0  0  1  0  0  0  0  0999 V2000
   46.5230   35.0350   41.8310 C   0  0  2  0  0  0  0  0  0  0  0  0
   46.4650   33.6590   41.1850 C   0  0  0  0  0  0  0  0  0  0  0  0
   47.3040   33.9570   39.9540 C   0  0  0  0  0  0  0  0  0  0  0  0
   48.3720   34.8460   40.4330 C   0  0  0  0  0  0  0  0  0  0  0  0
   47.9910   35.2740   41.9340 C   0  0  2  0  0  0  0  0  0  0  0  0
   44.4950   36.0520   44.8390 C   0  0  0  0  0  0  0  0  0  0  0  0
   45.0640   36.1330   43.5520 C   0  0  0  0  0  0  0  0  0  0  0  0
   45.8590   35.0960   43.1530 C   0  0  0  0  0  0  0  0  0  0  0  0
   46.0500   34.0440   44.0350 N   0  0  0  0  0  0  0  0  0  0  0  0
   45.4980   33.9930   45.2490 C   0  0  0  0  0  0  0  0  0  0  0  0
   44.7270   34.9880   45.6510 N   0  0  0  0  0  0  0  0  0  0  0  0
   48.6300   34.3350   42.7610 O   0  0  0  0  0  0  0  0  0  0  0  0
   49.8760   33.8150   42.5650 C   0  0  0  0  0  0  0  0  0  0  0  0
   49.7440   32.5400   42.5530 O   0  0  0  0  0  0  0  0  0  0  0  0
   51.2770   33.7450   42.3590 N   0  0  0  0  0  0  0  0  0  0  0  0
   45.9834   35.7966   41.2489 H   0  0  0  0  0  0  0  0  0  0  0  0
   46.9192   32.8833   41.8190 H   0  0  0  0  0  0  0  0  0  0  0  0
   45.4573   33.2617   40.9934 H   0  0  0  0  0  0  0  0  0  0  0  0
   46.6985   34.4585   39.1846 H   0  0  0  0  0  0  0  0  0  0  0  0
   47.7021   33.0417   39.4916 H   0  0  0  0  0  0  0  0  0  0  0  0
   49.3361   34.3165   40.4246 H   0  0  0  0  0  0  0  0  0  0  0  0
   48.4661   35.7300   39.7852 H   0  0  0  0  0  0  0  0  0  0  0  0
   48.2578   36.2720   42.3120 H   0  0  0  0  0  0  0  0  0  0  0  0
   43.8488   36.8684   45.1937 H   0  0  0  0  0  0  0  0  0  0  0  0
   44.8757   36.9956   42.8959 H   0  0  0  0  0  0  0  0  0  0  0  0
   45.6829   33.1318   45.9080 H   0  0  0  0  0  0  0  0  0  0  0  0
   51.7388   32.8290   42.2662 H   0  0  0  0  0  0  0  0  0  0  0  0
   51.8330   34.6102   42.3022 H   0  0  0  0  0  0  0  0  0  0  0  0
  1  5  1  0
  1  8  1  0
  2  1  1  0
  3  4  1  0
  3  2  1  0
  4  5  1  0
  5 12  1  0
  6 11  2  0
  7  6  1  0
  8  7  2  0
  8  9  1  0
  9 10  2  0
 10 11  1  0
 13 12  1  0
 14 13  2  0
 15 13  1  0
  1 16  1  6
  2 17  1  0
  2 18  1  0
  3 19  1  0
  3 20  1  0
  4 21  1  0
  4 22  1  0
  5 23  1  1
  6 24  1  0
  7 25  1  0
 10 26  1  0
 15 27  1  0
 15 28  1  0
M  ISO  8  16  13  17  13  18  13  19  13  20  13  21  13  22  13  23  13
M  ISO  3  24  14  25  14  26  14
M  END
>  <minimizedAffinity>  (1) 
-5.18171644

>  <minimizedRMSD>  (1) 
0.642517328

$$$$
