
     RDKit          3D

 30 31  0  0  1  0  0  0  0  0999 V2000
   46.4380   35.0150   41.8310 C   0  0  2  0  0  0  0  0  0  0  0  0
   46.3290   33.6450   41.1830 C   0  0  0  0  0  0  0  0  0  0  0  0
   47.1580   33.9030   39.9400 C   0  0  0  0  0  0  0  0  0  0  0  0
   48.2550   34.7810   40.3940 C   0  0  0  0  0  0  0  0  0  0  0  0
   47.9050   35.2260   41.8930 C   0  0  2  0  0  0  0  0  0  0  0  0
   44.4970   36.0660   44.8850 C   0  0  0  0  0  0  0  0  0  0  0  0
   45.0360   36.1290   43.5870 C   0  0  0  0  0  0  0  0  0  0  0  0
   45.8040   35.0820   43.1720 C   0  0  0  0  0  0  0  0  0  0  0  0
   45.9970   34.0440   44.0460 N   0  0  0  0  0  0  0  0  0  0  0  0
   45.4810   33.9940   45.2740 C   0  0  0  0  0  0  0  0  0  0  0  0
   44.7330   35.0020   45.6940 N   0  0  0  0  0  0  0  0  0  0  0  0
   48.5540   34.2780   42.7100 O   0  0  0  0  0  0  0  0  0  0  0  0
   49.5640   33.4200   42.4070 C   0  0  0  0  0  0  0  0  0  0  0  0
   49.1850   32.2360   42.7270 O   0  0  0  0  0  0  0  0  0  0  0  0
   51.4190   32.0870   41.2350 C   0  0  0  0  0  0  0  0  0  0  0  0
   50.6510   31.1300   41.0350 O   0  0  0  0  0  0  0  0  0  0  0  0
   50.8700   33.1810   41.9000 N   0  0  0  0  0  0  0  0  0  0  0  0
   45.9039   35.7932   41.2661 H   0  0  0  0  0  0  0  0  0  0  0  0
   46.7647   32.8552   41.8126 H   0  0  0  0  0  0  0  0  0  0  0  0
   45.3045   33.2877   41.0022 H   0  0  0  0  0  0  0  0  0  0  0  0
   46.5545   34.4041   39.1688 H   0  0  0  0  0  0  0  0  0  0  0  0
   47.5311   32.9717   39.4889 H   0  0  0  0  0  0  0  0  0  0  0  0
   49.2095   34.2346   40.3747 H   0  0  0  0  0  0  0  0  0  0  0  0
   48.3558   35.6571   39.7366 H   0  0  0  0  0  0  0  0  0  0  0  0
   48.1885   36.2247   42.2566 H   0  0  0  0  0  0  0  0  0  0  0  0
   43.8727   36.8944   45.2510 H   0  0  0  0  0  0  0  0  0  0  0  0
   44.8448   36.9912   42.9313 H   0  0  0  0  0  0  0  0  0  0  0  0
   45.6735   33.1300   45.9270 H   0  0  0  0  0  0  0  0  0  0  0  0
   52.4687   32.0708   40.9066 H   0  0  0  0  0  0  0  0  0  0  0  0
   51.5300   33.9571   42.0517 H   0  0  0  0  0  0  0  0  0  0  0  0
  1  5  1  0
  1  8  1  0
  2  1  1  0
  3  4  1  0
  3  2  1  0
  4  5  1  0
  5 12  1  0
  6 11  2  0
  7  6  1  0
  8  7  2  0
  8  9  1  0
  9 10  2  0
 10 11  1  0
 13 12  1  0
 13 14  2  0
 15 17  1  0
 16 15  2  0
 17 13  1  0
  1 18  1  6
  2 19  1  0
  2 20  1  0
  3 21  1  0
  3 22  1  0
  4 23  1  0
  4 24  1  0
  5 25  1  1
  6 26  1  0
  7 27  1  0
 10 28  1  0
 15 29  1  0
 17 30  1  0
M  ISO  8  18  13  19  13  20  13  21  13  22  13  23  13  24  13  25  13
M  ISO  4  26  14  27  14  28  14  29   6
M  END
>  <minimizedAffinity>  (1) 
-5.16904163

>  <minimizedRMSD>  (1) 
1.59102595

$$$$
