
     RDKit          3D

 43 45  0  0  1  0  0  0  0  0999 V2000
   46.8620   34.2690   43.7180 C   0  0  2  0  0  0  0  0  0  0  0  0
   46.6390   33.0040   44.4890 C   0  0  0  0  0  0  0  0  0  0  0  0
   45.9480   33.5710   45.7120 C   0  0  0  0  0  0  0  0  0  0  0  0
   45.0820   34.6200   45.1940 C   0  0  0  0  0  0  0  0  0  0  0  0
   45.4680   34.8330   43.6530 C   0  0  2  0  0  0  0  0  0  0  0  0
   48.4080   34.7600   40.3350 C   0  0  0  0  0  0  0  0  0  0  0  0
   47.8640   35.1030   41.5810 C   0  0  0  0  0  0  0  0  0  0  0  0
   47.4360   34.0840   42.3690 C   0  0  0  0  0  0  0  0  0  0  0  0
   47.5660   32.7780   41.8890 N   0  0  0  0  0  0  0  0  0  0  0  0
   48.0870   32.4860   40.7010 C   0  0  0  0  0  0  0  0  0  0  0  0
   48.5080   33.4820   39.9230 N   0  0  0  0  0  0  0  0  0  0  0  0
   44.5860   34.0480   42.9360 O   0  0  0  0  0  0  0  0  0  0  0  0
   43.7470   34.4230   41.9400 C   0  0  0  0  0  0  0  0  0  0  0  0
   44.4880   34.8240   40.9590 O   0  0  0  0  0  0  0  0  0  0  0  0
   42.3850   34.6060   41.4030 C   0  0  0  0  0  0  0  0  0  0  0  0
   41.6480   35.7270   41.3280 C   0  0  0  0  0  0  0  0  0  0  0  0
   40.3200   36.0930   40.8240 C   0  0  0  0  0  0  0  0  0  0  0  0
   41.0460   36.1190   38.0570 F   0  0  0  0  0  0  0  0  0  0  0  0
   40.1200   35.2140   38.4490 C   0  0  0  0  0  0  0  0  0  0  0  0
   39.7770   35.2160   39.7840 C   0  0  0  0  0  0  0  0  0  0  0  0
   38.8160   34.2720   40.1660 C   0  0  0  0  0  0  0  0  0  0  0  0
   38.2290   33.3790   39.2920 C   0  0  0  0  0  0  0  0  0  0  0  0
   38.6100   33.4270   37.9860 C   0  0  0  0  0  0  0  0  0  0  0  0
   39.5640   34.3480   37.5460 C   0  0  0  0  0  0  0  0  0  0  0  0
   47.6097   34.9169   44.1988 H   0  0  0  0  0  0  0  0  0  0  0  0
   45.9937   32.2999   43.9433 H   0  0  0  0  0  0  0  0  0  0  0  0
   47.5461   32.4169   44.6954 H   0  0  0  0  0  0  0  0  0  0  0  0
   45.3562   32.7942   46.2183 H   0  0  0  0  0  0  0  0  0  0  0  0
   46.6638   33.9516   46.4555 H   0  0  0  0  0  0  0  0  0  0  0  0
   44.0283   34.3161   45.2804 H   0  0  0  0  0  0  0  0  0  0  0  0
   45.2137   35.5523   45.7627 H   0  0  0  0  0  0  0  0  0  0  0  0
   45.4244   35.8348   43.2008 H   0  0  0  0  0  0  0  0  0  0  0  0
   48.7650   35.5618   39.6719 H   0  0  0  0  0  0  0  0  0  0  0  0
   47.7875   36.1513   41.9055 H   0  0  0  0  0  0  0  0  0  0  0  0
   48.1689   31.4412   40.3668 H   0  0  0  0  0  0  0  0  0  0  0  0
   41.9059   33.6976   41.0089 H   0  0  0  0  0  0  0  0  0  0  0  0
   42.1763   36.5927   41.7540 H   0  0  0  0  0  0  0  0  0  0  0  0
   39.6210   36.0848   41.6733 H   0  0  0  0  0  0  0  0  0  0  0  0
   40.4364   37.0814   40.3554 H   0  0  0  0  0  0  0  0  0  0  0  0
   38.5115   34.2401   41.2225 H   0  0  0  0  0  0  0  0  0  0  0  0
   37.4788   32.6533   39.6392 H   0  0  0  0  0  0  0  0  0  0  0  0
   38.1593   32.7290   37.2651 H   0  0  0  0  0  0  0  0  0  0  0  0
   39.8644   34.3770   36.4882 H   0  0  0  0  0  0  0  0  0  0  0  0
  1  2  1  0
  2  3  1  0
  4  3  1  0
  5  1  1  0
  5  4  1  0
  6  7  2  0
  7  8  1  0
  8  1  1  0
  9  8  2  0
 10  9  1  0
 11  6  1  0
 11 10  2  0
 12  5  1  0
 13 12  1  0
 14 13  2  0
 15 13  1  0
 16 15  2  0
 17 16  1  0
 18 19  1  0
 19 20  2  0
 20 21  1  0
 20 17  1  0
 22 21  2  0
 23 22  1  0
 24 23  2  0
 24 19  1  0
  1 25  1  1
  2 26  1  0
  2 27  1  0
  3 28  1  0
  3 29  1  0
  4 30  1  0
  4 31  1  0
  5 32  1  6
  6 33  1  0
  7 34  1  0
 10 35  1  0
 15 36  1  0
 16 37  1  0
 17 38  1  0
 17 39  1  0
 21 40  1  0
 22 41  1  0
 23 42  1  0
 24 43  1  0
M  ISO  8  25  13  26  13  27  13  28  13  29  13  30  13  31  13  32  13
M  ISO  8  33  14  34  14  35  14  38   8  39   8  40  14  41  14  42  14
M  ISO  1  43  14
M  END
>  <minimizedAffinity>  (1) 
-6.56043434

>  <minimizedRMSD>  (1) 
0.959009349

$$$$
