
     RDKit          3D

 42 44  0  0  1  0  0  0  0  0999 V2000
   46.4130   34.4870   44.2090 C   0  0  2  0  0  0  0  0  0  0  0  0
   45.4720   33.9880   45.2630 C   0  0  0  0  0  0  0  0  0  0  0  0
   44.6490   35.2370   45.4800 C   0  0  0  0  0  0  0  0  0  0  0  0
   44.4920   35.8180   44.1530 C   0  0  0  0  0  0  0  0  0  0  0  0
   45.4500   34.9940   43.1680 C   0  0  2  0  0  0  0  0  0  0  0  0
   49.0970   32.6750   42.3190 C   0  0  0  0  0  0  0  0  0  0  0  0
   48.3000   33.7600   42.7360 C   0  0  0  0  0  0  0  0  0  0  0  0
   47.3330   33.4770   43.6410 C   0  0  0  0  0  0  0  0  0  0  0  0
   47.1890   32.1620   44.0950 N   0  0  0  0  0  0  0  0  0  0  0  0
   47.9610   31.1570   43.6820 C   0  0  0  0  0  0  0  0  0  0  0  0
   48.9140   31.4100   42.7950 N   0  0  0  0  0  0  0  0  0  0  0  0
   44.6630   33.9850   42.6130 O   0  0  0  0  0  0  0  0  0  0  0  0
   44.4650   33.7710   41.2690 C   0  0  0  0  0  0  0  0  0  0  0  0
   45.2660   32.8570   40.8970 O   0  0  0  0  0  0  0  0  0  0  0  0
   43.7170   34.1470   40.0520 C   0  0  0  0  0  0  0  0  0  0  0  0
   42.7240   35.0500   39.9320 C   0  0  0  0  0  0  0  0  0  0  0  0
   41.8990   35.4600   38.7710 C   0  0  0  0  0  0  0  0  0  0  0  0
   40.5850   34.7740   38.9050 C   0  0  0  0  0  0  0  0  0  0  0  0
   39.8280   34.4820   37.7950 C   0  0  0  0  0  0  0  0  0  0  0  0
   38.6250   33.8450   38.0150 C   0  0  0  0  0  0  0  0  0  0  0  0
   38.2260   33.5280   39.3020 C   0  0  0  0  0  0  0  0  0  0  0  0
   38.9900   33.8260   40.3890 C   0  0  0  0  0  0  0  0  0  0  0  0
   40.1520   34.4450   40.1360 N   0  0  0  0  0  0  0  0  0  0  0  0
   47.1175   35.2280   44.6147 H   0  0  0  0  0  0  0  0  0  0  0  0
   44.8578   33.1505   44.9006 H   0  0  0  0  0  0  0  0  0  0  0  0
   45.9540   33.5841   46.1655 H   0  0  0  0  0  0  0  0  0  0  0  0
   43.6687   34.9846   45.9104 H   0  0  0  0  0  0  0  0  0  0  0  0
   45.1305   35.9332   46.1825 H   0  0  0  0  0  0  0  0  0  0  0  0
   43.4461   35.7315   43.8235 H   0  0  0  0  0  0  0  0  0  0  0  0
   44.7560   36.8859   44.1569 H   0  0  0  0  0  0  0  0  0  0  0  0
   45.9367   35.5021   42.3225 H   0  0  0  0  0  0  0  0  0  0  0  0
   49.8950   32.8548   41.5835 H   0  0  0  0  0  0  0  0  0  0  0  0
   48.4544   34.7779   42.3488 H   0  0  0  0  0  0  0  0  0  0  0  0
   47.8107   30.1384   44.0690 H   0  0  0  0  0  0  0  0  0  0  0  0
   44.0068   33.6246   39.1283 H   0  0  0  0  0  0  0  0  0  0  0  0
   42.4816   35.5790   40.8655 H   0  0  0  0  0  0  0  0  0  0  0  0
   42.3891   35.1572   37.8339 H   0  0  0  0  0  0  0  0  0  0  0  0
   41.7703   36.5522   38.7478 H   0  0  0  0  0  0  0  0  0  0  0  0
   40.1655   34.7437   36.7813 H   0  0  0  0  0  0  0  0  0  0  0  0
   37.9788   33.5873   37.1630 H   0  0  0  0  0  0  0  0  0  0  0  0
   37.2620   33.0197   39.4512 H   0  0  0  0  0  0  0  0  0  0  0  0
   38.6732   33.5743   41.4119 H   0  0  0  0  0  0  0  0  0  0  0  0
  1  2  1  0
  2  3  1  0
  4  3  1  0
  5  4  1  0
  5  1  1  0
  6  7  2  0
  6 11  1  0
  7  8  1  0
  8  9  2  0
  8  1  1  0
 10  9  1  0
 11 10  2  0
 12  5  1  0
 13 12  1  0
 14 13  2  0
 15 13  1  0
 16 15  2  0
 17 18  1  0
 17 16  1  0
 18 23  2  0
 19 20  2  0
 19 18  1  0
 20 21  1  0
 21 22  2  0
 23 22  1  0
  1 24  1  1
  2 25  1  0
  2 26  1  0
  3 27  1  0
  3 28  1  0
  4 29  1  0
  4 30  1  0
  5 31  1  6
  6 32  1  0
  7 33  1  0
 10 34  1  0
 15 35  1  0
 16 36  1  0
 17 37  1  0
 17 38  1  0
 19 39  1  0
 20 40  1  0
 21 41  1  0
 22 42  1  0
M  ISO  8  24  13  25  13  26  13  27  13  28  13  29  13  30  13  31  13
M  ISO  8  32  14  33  14  34  14  37   8  38   8  39  14  40  14  41  14
M  ISO  1  42  14
M  END
>  <minimizedAffinity>  (1) 
-5.61513138

>  <minimizedRMSD>  (1) 
3.29895163

$$$$
