
     RDKit          3D

 47 49  0  0  1  0  0  0  0  0999 V2000
   46.9500   34.1690   43.6080 C   0  0  2  0  0  0  0  0  0  0  0  0
   46.8050   32.9350   44.4480 C   0  0  0  0  0  0  0  0  0  0  0  0
   46.1090   33.5190   45.6550 C   0  0  0  0  0  0  0  0  0  0  0  0
   45.1830   34.5070   45.1040 C   0  0  0  0  0  0  0  0  0  0  0  0
   45.5270   34.6570   43.5440 C   0  0  2  0  0  0  0  0  0  0  0  0
   48.3070   34.5570   40.1310 C   0  0  0  0  0  0  0  0  0  0  0  0
   47.7590   34.9340   41.3660 C   0  0  0  0  0  0  0  0  0  0  0  0
   47.5050   33.9350   42.2590 C   0  0  0  0  0  0  0  0  0  0  0  0
   47.8050   32.6200   41.8880 N   0  0  0  0  0  0  0  0  0  0  0  0
   48.3260   32.2970   40.7060 C   0  0  0  0  0  0  0  0  0  0  0  0
   48.5770   33.2670   39.8240 N   0  0  0  0  0  0  0  0  0  0  0  0
   44.6730   33.7910   42.8860 O   0  0  0  0  0  0  0  0  0  0  0  0
   43.7350   34.0870   41.9490 C   0  0  0  0  0  0  0  0  0  0  0  0
   44.3130   34.8520   41.0830 O   0  0  0  0  0  0  0  0  0  0  0  0
   42.3670   33.9660   41.4190 C   0  0  0  0  0  0  0  0  0  0  0  0
   41.3000   34.7210   41.6510 C   0  0  0  0  0  0  0  0  0  0  0  0
   39.8930   34.7850   41.2320 C   0  0  0  0  0  0  0  0  0  0  0  0
   39.8140   35.0350   39.8540 N   0  0  0  0  0  0  0  0  0  0  0  0
   40.6240   36.0170   39.2600 C   0  0  0  0  0  0  0  0  0  0  0  0
   41.1940   35.5990   37.9120 C   0  0  0  0  0  0  0  0  0  0  0  0
   41.2590   34.1500   37.8040 N   0  0  0  0  0  0  0  0  0  0  0  0
   39.9640   33.5430   37.9140 C   0  0  0  0  0  0  0  0  0  0  0  0
   39.1160   34.1480   39.0150 C   0  0  0  0  0  0  0  0  0  0  0  0
   47.6713   34.8805   44.0363 H   0  0  0  0  0  0  0  0  0  0  0  0
   46.1879   32.1726   43.9502 H   0  0  0  0  0  0  0  0  0  0  0  0
   47.7466   32.4095   44.6655 H   0  0  0  0  0  0  0  0  0  0  0  0
   45.5623   32.7380   46.2038 H   0  0  0  0  0  0  0  0  0  0  0  0
   46.8166   33.9636   46.3703 H   0  0  0  0  0  0  0  0  0  0  0  0
   44.1456   34.1636   45.2304 H   0  0  0  0  0  0  0  0  0  0  0  0
   45.2857   35.4718   45.6222 H   0  0  0  0  0  0  0  0  0  0  0  0
   45.4216   35.6299   43.0417 H   0  0  0  0  0  0  0  0  0  0  0  0
   48.5248   35.3368   39.3864 H   0  0  0  0  0  0  0  0  0  0  0  0
   47.5441   35.9864   41.6032 H   0  0  0  0  0  0  0  0  0  0  0  0
   48.5461   31.2476   40.4603 H   0  0  0  0  0  0  0  0  0  0  0  0
   42.2048   33.1254   40.7283 H   0  0  0  0  0  0  0  0  0  0  0  0
   41.5366   35.5292   42.3587 H   0  0  0  0  0  0  0  0  0  0  0  0
   39.4019   33.8268   41.4572 H   0  0  0  0  0  0  0  0  0  0  0  0
   39.3907   35.5985   41.7761 H   0  0  0  0  0  0  0  0  0  0  0  0
   40.0211   36.9258   39.1165 H   0  0  0  0  0  0  0  0  0  0  0  0
   41.4768   36.1847   39.9343 H   0  0  0  0  0  0  0  0  0  0  0  0
   40.5501   35.9915   37.1111 H   0  0  0  0  0  0  0  0  0  0  0  0
   42.2122   36.0049   37.8193 H   0  0  0  0  0  0  0  0  0  0  0  0
   41.6653   33.9028   36.8904 H   0  0  0  0  0  0  0  0  0  0  0  0
   39.4363   33.6678   36.9569 H   0  0  0  0  0  0  0  0  0  0  0  0
   40.1185   32.4829   38.1636 H   0  0  0  0  0  0  0  0  0  0  0  0
   38.2837   34.6957   38.5489 H   0  0  0  0  0  0  0  0  0  0  0  0
   38.7744   33.3151   39.6471 H   0  0  0  0  0  0  0  0  0  0  0  0
  1  2  1  0
  2  3  1  0
  4  3  1  0
  5  1  1  0
  5  4  1  0
  6  7  2  0
  7  8  1  0
  8  1  1  0
  9  8  2  0
 10  9  1  0
 11  6  1  0
 11 10  2  0
 12  5  1  0
 13 12  1  0
 14 13  2  0
 15 16  2  0
 15 13  1  0
 17 16  1  0
 18 17  1  0
 19 18  1  0
 20 19  1  0
 21 20  1  0
 21 22  1  0
 22 23  1  0
 23 18  1  0
  1 24  1  1
  2 25  1  0
  2 26  1  0
  3 27  1  0
  3 28  1  0
  4 29  1  0
  4 30  1  0
  5 31  1  6
  6 32  1  0
  7 33  1  0
 10 34  1  0
 15 35  1  0
 16 36  1  0
 17 37  1  0
 17 38  1  0
 19 39  1  0
 19 40  1  0
 20 41  1  0
 20 42  1  0
 21 43  1  0
 22 44  1  0
 22 45  1  0
 23 46  1  0
 23 47  1  0
M  ISO  8  24  13  25  13  26  13  27  13  28  13  29  13  30  13  31  13
M  ISO  8  32  14  33  14  34  14  37   8  38   8  39  13  40  13  41  13
M  ISO  6  42  13  43   5  44  13  45  13  46  13  47  13
M  END
>  <minimizedAffinity>  (1) 
-5.15047312

>  <minimizedRMSD>  (1) 
1.35455704

$$$$
