
     RDKit          3D

 37 38  0  0  1  0  0  0  0  0999 V2000
   46.6000   34.3420   43.8800 C   0  0  2  0  0  0  0  0  0  0  0  0
   46.1750   33.1030   44.6070 C   0  0  0  0  0  0  0  0  0  0  0  0
   45.5760   33.7310   45.8470 C   0  0  0  0  0  0  0  0  0  0  0  0
   44.8860   34.9230   45.3610 C   0  0  0  0  0  0  0  0  0  0  0  0
   45.3020   35.1090   43.8190 C   0  0  2  0  0  0  0  0  0  0  0  0
   48.2070   34.7380   40.5120 C   0  0  0  0  0  0  0  0  0  0  0  0
   47.7000   35.1180   41.7770 C   0  0  0  0  0  0  0  0  0  0  0  0
   47.1560   34.1300   42.5270 C   0  0  0  0  0  0  0  0  0  0  0  0
   47.1250   32.8250   42.0250 N   0  0  0  0  0  0  0  0  0  0  0  0
   47.6120   32.5030   40.8270 C   0  0  0  0  0  0  0  0  0  0  0  0
   48.1530   33.4560   40.0680 N   0  0  0  0  0  0  0  0  0  0  0  0
   44.3240   34.4810   43.0720 O   0  0  0  0  0  0  0  0  0  0  0  0
   43.5630   35.0400   42.0790 C   0  0  0  0  0  0  0  0  0  0  0  0
   44.1430   36.1420   41.7340 O   0  0  0  0  0  0  0  0  0  0  0  0
   42.3800   34.9760   41.2070 C   0  0  0  0  0  0  0  0  0  0  0  0
   41.3010   35.7460   41.1770 C   0  0  0  0  0  0  0  0  0  0  0  0
   40.0630   35.7910   40.3840 C   0  0  0  0  0  0  0  0  0  0  0  0
   40.4160   34.8590   38.0850 C   0  0  0  0  0  0  0  0  0  0  0  0
   41.0260   35.8390   37.6410 O   0  0  0  0  0  0  0  0  0  0  0  0
   39.9170   34.7570   39.4110 N   0  0  0  0  0  0  0  0  0  0  0  0
   47.4344   34.8443   44.3914 H   0  0  0  0  0  0  0  0  0  0  0  0
   45.4295   32.5288   44.0373 H   0  0  0  0  0  0  0  0  0  0  0  0
   46.9761   32.3727   44.7935 H   0  0  0  0  0  0  0  0  0  0  0  0
   44.8669   33.0410   46.3277 H   0  0  0  0  0  0  0  0  0  0  0  0
   46.3385   33.9700   46.6029 H   0  0  0  0  0  0  0  0  0  0  0  0
   43.7973   34.7905   45.4455 H   0  0  0  0  0  0  0  0  0  0  0  0
   45.1646   35.8074   45.9529 H   0  0  0  0  0  0  0  0  0  0  0  0
   45.4014   36.1171   43.3902 H   0  0  0  0  0  0  0  0  0  0  0  0
   48.6595   35.5059   39.8674 H   0  0  0  0  0  0  0  0  0  0  0  0
   47.7451   36.1582   42.1318 H   0  0  0  0  0  0  0  0  0  0  0  0
   47.5681   31.4638   40.4690 H   0  0  0  0  0  0  0  0  0  0  0  0
   42.3925   34.1638   40.4652 H   0  0  0  0  0  0  0  0  0  0  0  0
   41.3416   36.5474   41.9294 H   0  0  0  0  0  0  0  0  0  0  0  0
   39.2130   35.7244   41.0791 H   0  0  0  0  0  0  0  0  0  0  0  0
   40.1015   36.7337   39.8185 H   0  0  0  0  0  0  0  0  0  0  0  0
   40.2486   34.0089   37.4072 H   0  0  0  0  0  0  0  0  0  0  0  0
   39.4254   33.8940   39.6839 H   0  0  0  0  0  0  0  0  0  0  0  0
  1  2  1  0
  2  3  1  0
  4  3  1  0
  5  1  1  0
  5  4  1  0
  6  7  2  0
  7  8  1  0
  8  1  1  0
  9  8  2  0
 10  9  1  0
 11  6  1  0
 11 10  2  0
 12  5  1  0
 13 12  1  0
 14 13  2  0
 15 13  1  0
 16 15  2  0
 17 16  1  0
 18 20  1  0
 19 18  2  0
 20 17  1  0
  1 21  1  1
  2 22  1  0
  2 23  1  0
  3 24  1  0
  3 25  1  0
  4 26  1  0
  4 27  1  0
  5 28  1  6
  6 29  1  0
  7 30  1  0
 10 31  1  0
 15 32  1  0
 16 33  1  0
 17 34  1  0
 17 35  1  0
 18 36  1  0
 20 37  1  0
M  ISO  8  21  13  22  13  23  13  24  13  25  13  26  13  27  13  28  13
M  ISO  6  29  14  30  14  31  14  34   8  35   8  36   6
M  END
>  <minimizedAffinity>  (1) 
-4.91102266

>  <minimizedRMSD>  (1) 
0.966564417

$$$$
