
     RDKit          3D

 27 29  0  0  0  0  0  0  0  0999 V2000
   46.5440   33.4860   44.7030 C   0  0  0  0  0  0  0  0  0  0  0  0
   45.3960   34.1810   44.9670 C   0  0  0  0  0  0  0  0  0  0  0  0
   44.9600   35.1910   44.1360 C   0  0  0  0  0  0  0  0  0  0  0  0
   45.6620   35.5360   43.0160 C   0  0  0  0  0  0  0  0  0  0  0  0
   46.8210   34.8500   42.7300 C   0  0  0  0  0  0  0  0  0  0  0  0
   47.4840   35.2510   41.5790 C   0  0  0  0  0  0  0  0  0  0  0  0
   48.6500   34.5860   41.2610 C   0  0  0  0  0  0  0  0  0  0  0  0
   49.1370   33.5670   42.0520 C   0  0  0  0  0  0  0  0  0  0  0  0
   48.4340   33.2130   43.1850 C   0  0  0  0  0  0  0  0  0  0  0  0
   47.2600   33.8380   43.5610 C   0  0  0  0  0  0  0  0  0  0  0  0
   47.1190   32.4560   45.4230 O   0  0  0  0  0  0  0  0  0  0  0  0
   46.9750   32.3860   47.8580 C   0  0  0  0  0  0  0  0  0  0  0  0
   46.6260   31.9160   46.5860 C   0  0  0  0  0  0  0  0  0  0  0  0
   45.7300   30.8470   46.5600 C   0  0  0  0  0  0  0  0  0  0  0  0
   45.2600   30.3370   47.7180 N   0  0  0  0  0  0  0  0  0  0  0  0
   45.6280   30.8250   48.9320 C   0  0  0  0  0  0  0  0  0  0  0  0
   46.4920   31.8570   48.9970 N   0  0  0  0  0  0  0  0  0  0  0  0
   44.8079   33.9287   45.8617 H   0  0  0  0  0  0  0  0  0  0  0  0
   44.0313   35.7281   44.3789 H   0  0  0  0  0  0  0  0  0  0  0  0
   45.3093   36.3435   42.3576 H   0  0  0  0  0  0  0  0  0  0  0  0
   47.0966   36.0640   40.9474 H   0  0  0  0  0  0  0  0  0  0  0  0
   49.2039   34.8752   40.3557 H   0  0  0  0  0  0  0  0  0  0  0  0
   50.0683   33.0462   41.7847 H   0  0  0  0  0  0  0  0  0  0  0  0
   48.8238   32.3999   43.8150 H   0  0  0  0  0  0  0  0  0  0  0  0
   47.6783   33.2288   47.9296 H   0  0  0  0  0  0  0  0  0  0  0  0
   45.4075   30.4209   45.5985 H   0  0  0  0  0  0  0  0  0  0  0  0
   45.2239   30.3812   49.8538 H   0  0  0  0  0  0  0  0  0  0  0  0
  1  2  2  0
  1 11  1  0
  3  2  1  0
  4  3  2  0
  5  4  1  0
  5 10  2  0
  6  5  1  0
  7  6  2  0
  7  8  1  0
  8  9  2  0
  9 10  1  0
 10  1  1  0
 11 13  1  0
 12 17  2  0
 13 12  1  0
 14 13  2  0
 14 15  1  0
 15 16  2  0
 16 17  1  0
  2 18  1  0
  3 19  1  0
  4 20  1  0
  6 21  1  0
  7 22  1  0
  8 23  1  0
  9 24  1  0
 12 25  1  0
 14 26  1  0
 16 27  1  0
M  ISO  8  18  14  19  14  20  14  21  14  22  14  23  14  24  14  25  14
M  ISO  2  26  14  27  14
M  END
>  <minimizedAffinity>  (1) 
-5.44198465

>  <minimizedRMSD>  (1) 
4.88904953

$$$$
