
     RDKit          3D

 19 20  0  0  0  0  0  0  0  0999 V2000
   44.3680   35.8980   44.2050 C   0  0  0  0  0  0  0  0  0  0  0  0
   44.4040   35.2770   42.9480 C   0  0  0  0  0  0  0  0  0  0  0  0
   44.9280   33.9830   42.8880 C   0  0  0  0  0  0  0  0  0  0  0  0
   45.3710   33.4040   44.0360 N   0  0  0  0  0  0  0  0  0  0  0  0
   45.3210   34.0320   45.2300 C   0  0  0  0  0  0  0  0  0  0  0  0
   44.8130   35.2920   45.3050 N   0  0  0  0  0  0  0  0  0  0  0  0
   43.9570   35.8550   41.7730 O   0  0  0  0  0  0  0  0  0  0  0  0
   42.7450   35.3950   41.2720 C   0  0  0  0  0  0  0  0  0  0  0  0
   42.8310   34.9300   39.9590 C   0  0  0  0  0  0  0  0  0  0  0  0
   41.6760   34.4480   39.3650 C   0  0  0  0  0  0  0  0  0  0  0  0
   40.5310   34.4520   40.0810 N   0  0  0  0  0  0  0  0  0  0  0  0
   40.4530   34.8970   41.3330 C   0  0  0  0  0  0  0  0  0  0  0  0
   41.5710   35.3730   41.9310 N   0  0  0  0  0  0  0  0  0  0  0  0
   43.9600   36.9164   44.2852 H   0  0  0  0  0  0  0  0  0  0  0  0
   44.9811   33.4433   41.9310 H   0  0  0  0  0  0  0  0  0  0  0  0
   45.6885   33.5284   46.1363 H   0  0  0  0  0  0  0  0  0  0  0  0
   43.7858   34.9457   39.4130 H   0  0  0  0  0  0  0  0  0  0  0  0
   41.6912   34.0701   38.3321 H   0  0  0  0  0  0  0  0  0  0  0  0
   39.4952   34.8784   41.8737 H   0  0  0  0  0  0  0  0  0  0  0  0
  1  6  2  0
  2  1  1  0
  3  2  2  0
  3  4  1  0
  4  5  2  0
  5  6  1  0
  7  2  1  0
  8  7  1  0
  8 13  1  0
  9  8  2  0
 10  9  1  0
 10 11  2  0
 11 12  1  0
 12 13  2  0
  1 14  1  0
  3 15  1  0
  5 16  1  0
  9 17  1  0
 10 18  1  0
 12 19  1  0
M  ISO  6  14  14  15  14  16  14  17  14  18  14  19  14
M  END
>  <minimizedAffinity>  (1) 
-3.9761858

>  <minimizedRMSD>  (1) 
1.90673614

$$$$
