
     RDKit          3D

 17 17  0  0  0  0  0  0  0  0999 V2000
   46.1630   34.0200   44.1440 C   0  0  0  0  0  0  0  0  0  0  0  0
   46.0180   34.9840   43.1390 C   0  0  0  0  0  0  0  0  0  0  0  0
   45.1650   36.0550   43.3790 C   0  0  0  0  0  0  0  0  0  0  0  0
   44.5120   36.1130   44.5770 N   0  0  0  0  0  0  0  0  0  0  0  0
   44.6720   35.1640   45.5290 C   0  0  0  0  0  0  0  0  0  0  0  0
   45.5030   34.1220   45.2990 N   0  0  0  0  0  0  0  0  0  0  0  0
   46.6710   34.9500   41.9090 O   0  0  0  0  0  0  0  0  0  0  0  0
   48.0710   35.1530   41.8220 C   0  0  0  0  0  0  0  0  0  0  0  0
   48.5360   35.1080   40.3840 C   0  0  0  0  0  0  0  0  0  0  0  0
   46.8329   33.1634   43.9784 H   0  0  0  0  0  0  0  0  0  0  0  0
   45.0192   36.8385   42.6207 H   0  0  0  0  0  0  0  0  0  0  0  0
   44.1299   35.2398   46.4831 H   0  0  0  0  0  0  0  0  0  0  0  0
   48.3194   36.1354   42.2500 H   0  0  0  0  0  0  0  0  0  0  0  0
   48.5770   34.3511   42.3795 H   0  0  0  0  0  0  0  0  0  0  0  0
   49.6305   35.0021   40.3557 H   0  0  0  0  0  0  0  0  0  0  0  0
   48.0714   34.2506   39.8751 H   0  0  0  0  0  0  0  0  0  0  0  0
   48.2444   36.0386   39.8751 H   0  0  0  0  0  0  0  0  0  0  0  0
  1  6  2  0
  2  3  2  0
  2  1  1  0
  3  4  1  0
  4  5  2  0
  6  5  1  0
  7  2  1  0
  8  7  1  0
  9  8  1  0
  1 10  1  0
  3 11  1  0
  5 12  1  0
  8 13  1  0
  8 14  1  0
  9 15  1  0
  9 16  1  0
  9 17  1  0
M  ISO  8  10  14  11  14  12  14  13   8  14   8  15   8  16   8  17   8
M  END
>  <minimizedAffinity>  (1) 
-3.3321619

>  <minimizedRMSD>  (1) 
3.49199343

$$$$
