
     RDKit          3D

 22 23  0  0  0  0  0  0  0  0999 V2000
   44.5140   35.9710   44.4620 C   0  0  0  0  0  0  0  0  0  0  0  0
   45.3750   35.8770   43.3590 C   0  0  0  0  0  0  0  0  0  0  0  0
   46.3200   34.8360   43.3560 C   0  0  0  0  0  0  0  0  0  0  0  0
   46.3380   33.9830   44.4230 N   0  0  0  0  0  0  0  0  0  0  0  0
   45.4950   34.1000   45.4690 C   0  0  0  0  0  0  0  0  0  0  0  0
   44.5790   35.0940   45.4910 N   0  0  0  0  0  0  0  0  0  0  0  0
   47.2410   34.6280   42.3150 N   0  0  0  0  0  0  0  0  0  0  0  0
   48.6920   34.7100   42.2930 C   0  0  0  0  0  0  0  0  0  0  0  0
   48.8510   35.5120   41.0160 C   0  0  0  0  0  0  0  0  0  0  0  0
   48.0290   34.6360   40.0800 C   0  0  0  0  0  0  0  0  0  0  0  0
   46.8560   34.2630   40.9630 C   0  0  0  0  0  0  0  0  0  0  0  0
   43.7669   36.7779   44.4917 H   0  0  0  0  0  0  0  0  0  0  0  0
   45.3132   36.5924   42.5257 H   0  0  0  0  0  0  0  0  0  0  0  0
   45.5527   33.3866   46.3043 H   0  0  0  0  0  0  0  0  0  0  0  0
   49.0906   35.2422   43.1693 H   0  0  0  0  0  0  0  0  0  0  0  0
   49.2258   33.7487   42.3236 H   0  0  0  0  0  0  0  0  0  0  0  0
   48.4301   36.5240   41.1095 H   0  0  0  0  0  0  0  0  0  0  0  0
   49.8882   35.6980   40.7004 H   0  0  0  0  0  0  0  0  0  0  0  0
   48.5931   33.7458   39.7648 H   0  0  0  0  0  0  0  0  0  0  0  0
   47.7421   35.1312   39.1406 H   0  0  0  0  0  0  0  0  0  0  0  0
   45.9566   34.8183   40.6586 H   0  0  0  0  0  0  0  0  0  0  0  0
   46.6189   33.1916   40.8868 H   0  0  0  0  0  0  0  0  0  0  0  0
  1  6  2  0
  2  1  1  0
  3  2  2  0
  3  4  1  0
  4  5  2  0
  5  6  1  0
  7  3  1  0
  8  7  1  0
  9  8  1  0
 10 11  1  0
 10  9  1  0
 11  7  1  0
  1 12  1  0
  2 13  1  0
  5 14  1  0
  8 15  1  0
  8 16  1  0
  9 17  1  0
  9 18  1  0
 10 19  1  0
 10 20  1  0
 11 21  1  0
 11 22  1  0
M  ISO  8  12  14  13  14  14  14  15  13  16  13  17  13  18  13  19  13
M  ISO  3  20  13  21  13  22  13
M  END
>  <minimizedAffinity>  (1) 
-4.35898113

>  <minimizedRMSD>  (1) 
0.862049937

$$$$
