
     RDKit          3D

 14 14  0  0  0  0  0  0  0  0999 V2000
   45.1720   36.0820   43.3400 C   0  0  0  0  0  0  0  0  0  0  0  0
   46.0610   35.0450   43.0380 C   0  0  0  0  0  0  0  0  0  0  0  0
   46.2610   34.0430   43.9810 C   0  0  0  0  0  0  0  0  0  0  0  0
   45.5810   34.1110   45.1610 N   0  0  0  0  0  0  0  0  0  0  0  0
   44.7290   35.1290   45.4160 C   0  0  0  0  0  0  0  0  0  0  0  0
   44.5340   36.1000   44.5070 N   0  0  0  0  0  0  0  0  0  0  0  0
   46.7640   34.9540   41.8460 O   0  0  0  0  0  0  0  0  0  0  0  0
   48.1240   35.1630   41.6980 C   0  0  0  0  0  0  0  0  0  0  0  0
   44.9998   36.8860   42.6093 H   0  0  0  0  0  0  0  0  0  0  0  0
   46.9535   33.2125   43.7793 H   0  0  0  0  0  0  0  0  0  0  0  0
   44.1910   35.1631   46.3749 H   0  0  0  0  0  0  0  0  0  0  0  0
   48.5940   35.2352   42.6899 H   0  0  0  0  0  0  0  0  0  0  0  0
   48.5659   34.3222   41.1432 H   0  0  0  0  0  0  0  0  0  0  0  0
   48.2931   36.0977   41.1432 H   0  0  0  0  0  0  0  0  0  0  0  0
  1  6  2  0
  2  1  1  0
  2  3  2  0
  3  4  1  0
  4  5  2  0
  6  5  1  0
  7  2  1  0
  8  7  1  0
  1  9  1  0
  3 10  1  0
  5 11  1  0
  8 12  1  0
  8 13  1  0
  8 14  1  0
M  ISO  6   9  14  10  14  11  14  12   8  13   8  14   8
M  END
>  <minimizedAffinity>  (1) 
-3.00282335

>  <minimizedRMSD>  (1) 
2.65331602

$$$$
