
     RDKit          3D

 13 13  0  0  0  0  0  0  0  0999 V2000
   45.2140   34.3980   45.3950 C   0  0  0  0  0  0  0  0  0  0  0  0
   46.0040   34.2540   44.2300 C   0  0  0  0  0  0  0  0  0  0  0  0
   46.9660   33.2390   44.2300 C   0  0  0  0  0  0  0  0  0  0  0  0
   47.0980   32.4510   45.3330 N   0  0  0  0  0  0  0  0  0  0  0  0
   46.3170   32.6280   46.4280 C   0  0  0  0  0  0  0  0  0  0  0  0
   45.3730   33.6100   46.4520 N   0  0  0  0  0  0  0  0  0  0  0  0
   45.8890   35.0420   43.0970 O   0  0  0  0  0  0  0  0  0  0  0  0
   44.9380   36.0690   43.0210 C   0  0  0  0  0  0  0  0  0  0  0  0
   45.2170   37.2720   43.3280 O   0  0  0  0  0  0  0  0  0  0  0  0
   44.4462   35.1851   45.4260 H   0  0  0  0  0  0  0  0  0  0  0  0
   47.6075   33.0792   43.3509 H   0  0  0  0  0  0  0  0  0  0  0  0
   46.4469   31.9739   47.3028 H   0  0  0  0  0  0  0  0  0  0  0  0
   43.9186   35.8275   42.6855 H   0  0  0  0  0  0  0  0  0  0  0  0
  1  6  2  0
  2  3  2  0
  2  1  1  0
  3  4  1  0
  4  5  2  0
  5  6  1  0
  7  2  1  0
  8  7  1  0
  8  9  2  0
  1 10  1  0
  3 11  1  0
  5 12  1  0
  8 13  1  0
M  ISO  4  10  14  11  14  12  14  13   6
M  END
>  <minimizedAffinity>  (1) 
-2.66625929

>  <minimizedRMSD>  (1) 
1.9025991

$$$$
