
     RDKit          3D

 16 16  0  0  0  0  0  0  0  0999 V2000
   44.5830   35.9920   44.5140 C   0  0  0  0  0  0  0  0  0  0  0  0
   45.2210   36.0000   43.2530 C   0  0  0  0  0  0  0  0  0  0  0  0
   46.0970   34.9530   42.9690 C   0  0  0  0  0  0  0  0  0  0  0  0
   46.2960   33.9840   43.9050 N   0  0  0  0  0  0  0  0  0  0  0  0
   45.6710   34.0070   45.0980 C   0  0  0  0  0  0  0  0  0  0  0  0
   44.8170   35.0030   45.4050 N   0  0  0  0  0  0  0  0  0  0  0  0
   46.7190   34.9710   41.7270 O   0  0  0  0  0  0  0  0  0  0  0  0
   48.6470   33.3320   40.9690 O   0  0  0  0  0  0  0  0  0  0  0  0
   48.4070   34.6810   41.6340 P   0  0  0  0  0  0  0  0  0  0  0  0
   49.1220   35.9310   40.7830 O   0  0  0  0  0  0  0  0  0  0  0  0
   48.9950   34.5870   43.2240 O   0  0  0  0  0  0  0  0  0  0  0  0
   43.8860   36.8023   44.7741 H   0  0  0  0  0  0  0  0  0  0  0  0
   45.0337   36.8016   42.5234 H   0  0  0  0  0  0  0  0  0  0  0  0
   45.8594   33.2058   45.8278 H   0  0  0  0  0  0  0  0  0  0  0  0
   49.4988   36.5898   41.4187 H   0  0  0  0  0  0  0  0  0  0  0  0
   48.2461   34.7067   43.8604 H   0  0  0  0  0  0  0  0  0  0  0  0
  1  6  2  0
  2  1  1  0
  3  2  2  0
  3  4  1  0
  4  5  2  0
  5  6  1  0
  7  3  1  0
  8  9  2  0
  9  7  1  0
  9 11  1  0
 10  9  1  0
  1 12  1  0
  2 13  1  0
  5 14  1  0
 10 15  1  0
 11 16  1  0
M  ISO  5  12  14  13  14  14  14  15   3  16   3
M  END
>  <minimizedAffinity>  (1) 
-4.33440065

>  <minimizedRMSD>  (1) 
1.42226195

$$$$
