
     RDKit          3D

 41 44  0  0  0  0  0  0  0  0999 V2000
   44.5080   35.0770   41.8950 C   0  0  0  0  0  0  0  0  0  0  0  0
   44.7830   34.2750   40.7960 C   0  0  0  0  0  0  0  0  0  0  0  0
   43.7910   34.0340   39.8730 C   0  0  0  0  0  0  0  0  0  0  0  0
   42.5190   34.5660   39.9990 C   0  0  0  0  0  0  0  0  0  0  0  0
   41.6130   34.2810   39.0560 N   0  0  0  0  0  0  0  0  0  0  0  0
   40.3590   34.7780   39.1380 C   0  0  0  0  0  0  0  0  0  0  0  0
   40.0570   35.5750   40.2150 C   0  0  0  0  0  0  0  0  0  0  0  0
   40.9990   35.8750   41.2010 C   0  0  0  0  0  0  0  0  0  0  0  0
   42.2650   35.3610   41.1000 C   0  0  0  0  0  0  0  0  0  0  0  0
   43.2350   35.6320   42.0570 C   0  0  0  0  0  0  0  0  0  0  0  0
   45.3910   35.4170   42.9110 O   0  0  0  0  0  0  0  0  0  0  0  0
   44.9260   34.8310   45.2650 C   0  0  0  0  0  0  0  0  0  0  0  0
   45.6120   34.6710   44.0490 C   0  0  0  0  0  0  0  0  0  0  0  0
   46.5960   33.6760   43.9940 C   0  0  0  0  0  0  0  0  0  0  0  0
   46.8300   32.9300   45.1070 N   0  0  0  0  0  0  0  0  0  0  0  0
   46.1520   33.1160   46.2470 C   0  0  0  0  0  0  0  0  0  0  0  0
   45.1990   34.0690   46.3210 N   0  0  0  0  0  0  0  0  0  0  0  0
   46.4230   32.3160   47.3920 N   0  0  0  0  0  0  0  0  0  0  0  0
   45.6910   32.5130   48.6280 C   0  0  0  0  0  0  0  0  0  0  0  0
   45.1040   31.2070   49.1090 C   0  0  0  0  0  0  0  0  0  0  0  0
   45.4410   30.0510   48.2230 C   0  0  0  0  0  0  0  0  0  0  0  0
   46.9170   29.9760   47.9250 C   0  0  0  0  0  0  0  0  0  0  0  0
   47.4390   31.2830   47.3490 C   0  0  0  0  0  0  0  0  0  0  0  0
   45.7832   33.8367   40.6642 H   0  0  0  0  0  0  0  0  0  0  0  0
   44.0165   33.3967   39.0052 H   0  0  0  0  0  0  0  0  0  0  0  0
   39.6060   34.5520   38.3686 H   0  0  0  0  0  0  0  0  0  0  0  0
   39.0420   35.9896   40.3035 H   0  0  0  0  0  0  0  0  0  0  0  0
   40.7272   36.5181   42.0510 H   0  0  0  0  0  0  0  0  0  0  0  0
   43.0063   36.2696   42.9237 H   0  0  0  0  0  0  0  0  0  0  0  0
   44.1465   35.6029   45.3455 H   0  0  0  0  0  0  0  0  0  0  0  0
   47.1674   33.5015   43.0704 H   0  0  0  0  0  0  0  0  0  0  0  0
   46.3745   32.9069   49.3947 H   0  0  0  0  0  0  0  0  0  0  0  0
   44.8728   33.2257   48.4472 H   0  0  0  0  0  0  0  0  0  0  0  0
   45.4910   30.9996   50.1176 H   0  0  0  0  0  0  0  0  0  0  0  0
   44.0095   31.3171   49.1025 H   0  0  0  0  0  0  0  0  0  0  0  0
   45.1321   29.1203   48.7214 H   0  0  0  0  0  0  0  0  0  0  0  0
   44.9096   30.1888   47.2698 H   0  0  0  0  0  0  0  0  0  0  0  0
   47.4585   29.7550   48.8566 H   0  0  0  0  0  0  0  0  0  0  0  0
   47.0776   29.1831   47.1797 H   0  0  0  0  0  0  0  0  0  0  0  0
   47.7410   31.1196   46.3040 H   0  0  0  0  0  0  0  0  0  0  0  0
   48.2973   31.6124   47.9530 H   0  0  0  0  0  0  0  0  0  0  0  0
  1 10  1  0
  1 11  1  0
  2  1  2  0
  3  4  2  0
  3  2  1  0
  4  9  1  0
  5  6  2  0
  5  4  1  0
  6  7  1  0
  7  8  2  0
  9  8  1  0
  9 10  2  0
 11 13  1  0
 12 17  2  0
 13 12  1  0
 14 13  2  0
 14 15  1  0
 15 16  2  0
 16 17  1  0
 16 18  1  0
 18 19  1  0
 19 20  1  0
 21 20  1  0
 22 21  1  0
 23 18  1  0
 23 22  1  0
  2 24  1  0
  3 25  1  0
  6 26  1  0
  7 27  1  0
  8 28  1  0
 10 29  1  0
 12 30  1  0
 14 31  1  0
 19 32  1  0
 19 33  1  0
 20 34  1  0
 20 35  1  0
 21 36  1  0
 21 37  1  0
 22 38  1  0
 22 39  1  0
 23 40  1  0
 23 41  1  0
M  ISO  8  24  14  25  14  26  14  27  14  28  14  29  14  30  14  31  14
M  ISO  8  32  13  33  13  34  13  35  13  36  13  37  13  38  13  39  13
M  ISO  2  40  13  41  13
M  END
>  <minimizedAffinity>  (1) 
-7.13351297

>  <minimizedRMSD>  (1) 
0.316959292

$$$$
