
     RDKit          3D

 41 45  0  0  0  0  0  0  0  0999 V2000
   44.7270   35.1680   44.8740 C   0  0  0  0  0  0  0  0  0  0  0  0
   44.6420   34.9350   43.4850 C   0  0  0  0  0  0  0  0  0  0  0  0
   45.2810   33.7890   42.9730 C   0  0  0  0  0  0  0  0  0  0  0  0
   45.9380   32.9850   43.8490 N   0  0  0  0  0  0  0  0  0  0  0  0
   46.0000   33.2340   45.1640 C   0  0  0  0  0  0  0  0  0  0  0  0
   45.3870   34.3330   45.6590 N   0  0  0  0  0  0  0  0  0  0  0  0
   46.7020   32.3740   46.1130 C   0  0  0  0  0  0  0  0  0  0  0  0
   46.8640   32.7540   47.4300 C   0  0  0  0  0  0  0  0  0  0  0  0
   47.5310   31.9470   48.3450 C   0  0  0  0  0  0  0  0  0  0  0  0
   48.0460   30.7400   47.9420 C   0  0  0  0  0  0  0  0  0  0  0  0
   48.7110   29.8770   48.7500 N   0  0  0  0  0  0  0  0  0  0  0  0
   49.1860   28.7070   48.2690 C   0  0  0  0  0  0  0  0  0  0  0  0
   49.0530   28.2770   46.9610 C   0  0  0  0  0  0  0  0  0  0  0  0
   48.3720   29.1440   46.1060 C   0  0  0  0  0  0  0  0  0  0  0  0
   47.9030   30.3260   46.6320 C   0  0  0  0  0  0  0  0  0  0  0  0
   47.2370   31.1510   45.7510 C   0  0  0  0  0  0  0  0  0  0  0  0
   43.9770   35.7450   42.5790 O   0  0  0  0  0  0  0  0  0  0  0  0
   43.2940   35.2820   41.4650 C   0  0  0  0  0  0  0  0  0  0  0  0
   43.8430   34.7270   40.3230 C   0  0  0  0  0  0  0  0  0  0  0  0
   43.0220   34.3140   39.2990 C   0  0  0  0  0  0  0  0  0  0  0  0
   41.6460   34.4290   39.3560 C   0  0  0  0  0  0  0  0  0  0  0  0
   40.9250   34.0020   38.3180 N   0  0  0  0  0  0  0  0  0  0  0  0
   39.5770   34.1020   38.3470 C   0  0  0  0  0  0  0  0  0  0  0  0
   38.9950   34.6430   39.4510 C   0  0  0  0  0  0  0  0  0  0  0  0
   39.7380   35.0930   40.5460 C   0  0  0  0  0  0  0  0  0  0  0  0
   41.1200   34.9860   40.5040 C   0  0  0  0  0  0  0  0  0  0  0  0
   41.9170   35.4150   41.5610 C   0  0  0  0  0  0  0  0  0  0  0  0
   44.2394   36.0532   45.3084 H   0  0  0  0  0  0  0  0  0  0  0  0
   45.2491   33.5528   41.8991 H   0  0  0  0  0  0  0  0  0  0  0  0
   46.4553   33.7191   47.7640 H   0  0  0  0  0  0  0  0  0  0  0  0
   47.6457   32.2748   49.3887 H   0  0  0  0  0  0  0  0  0  0  0  0
   49.7182   28.0472   48.9700 H   0  0  0  0  0  0  0  0  0  0  0  0
   49.4580   27.3138   46.6172 H   0  0  0  0  0  0  0  0  0  0  0  0
   48.2152   28.8912   45.0470 H   0  0  0  0  0  0  0  0  0  0  0  0
   47.1255   30.8201   44.7079 H   0  0  0  0  0  0  0  0  0  0  0  0
   44.9337   34.6161   40.2337 H   0  0  0  0  0  0  0  0  0  0  0  0
   43.4788   33.8751   38.3997 H   0  0  0  0  0  0  0  0  0  0  0  0
   38.9669   33.7550   37.5000 H   0  0  0  0  0  0  0  0  0  0  0  0
   37.8989   34.7296   39.4832 H   0  0  0  0  0  0  0  0  0  0  0  0
   39.2359   35.5240   41.4247 H   0  0  0  0  0  0  0  0  0  0  0  0
   41.4608   35.8538   42.4607 H   0  0  0  0  0  0  0  0  0  0  0  0
  1  6  2  0
  2  1  1  0
  3  2  2  0
  3  4  1  0
  4  5  2  0
  5  6  1  0
  5  7  1  0
  7  8  2  0
  8  9  1  0
 10  9  2  0
 10 11  1  0
 12 11  2  0
 13 12  1  0
 14 15  1  0
 14 13  2  0
 15 10  1  0
 16  7  1  0
 16 15  2  0
 17  2  1  0
 18 27  1  0
 18 17  1  0
 19 18  2  0
 20 21  2  0
 20 19  1  0
 21 26  1  0
 22 23  2  0
 22 21  1  0
 23 24  1  0
 24 25  2  0
 26 25  1  0
 26 27  2  0
  1 28  1  0
  3 29  1  0
  8 30  1  0
  9 31  1  0
 12 32  1  0
 13 33  1  0
 14 34  1  0
 16 35  1  0
 19 36  1  0
 20 37  1  0
 23 38  1  0
 24 39  1  0
 25 40  1  0
 27 41  1  0
M  ISO  8  28  14  29  14  30  14  31  14  32  14  33  14  34  14  35  14
M  ISO  6  36  14  37  14  38  14  39  14  40  14  41  14
M  END
>  <minimizedAffinity>  (1) 
-6.92460155

>  <minimizedRMSD>  (1) 
1.63968956

$$$$
