
     RDKit          3D

 28 30  0  0  0  0  0  0  0  0999 V2000
   44.3950   34.9880   41.4810 C   0  0  0  0  0  0  0  0  0  0  0  0
   44.5410   34.0880   40.4580 C   0  0  0  0  0  0  0  0  0  0  0  0
   43.4750   33.8000   39.6440 C   0  0  0  0  0  0  0  0  0  0  0  0
   42.2300   34.3870   39.8050 C   0  0  0  0  0  0  0  0  0  0  0  0
   41.2430   34.0540   38.9710 N   0  0  0  0  0  0  0  0  0  0  0  0
   40.0220   34.6050   39.0990 C   0  0  0  0  0  0  0  0  0  0  0  0
   39.8440   35.5120   40.1150 C   0  0  0  0  0  0  0  0  0  0  0  0
   40.8570   35.8730   40.9960 C   0  0  0  0  0  0  0  0  0  0  0  0
   42.1000   35.2950   40.8430 C   0  0  0  0  0  0  0  0  0  0  0  0
   43.1590   35.6100   41.6890 C   0  0  0  0  0  0  0  0  0  0  0  0
   45.3670   35.3920   42.3950 O   0  0  0  0  0  0  0  0  0  0  0  0
   44.8600   35.0380   44.7790 C   0  0  0  0  0  0  0  0  0  0  0  0
   45.5940   34.7880   43.6200 C   0  0  0  0  0  0  0  0  0  0  0  0
   46.6470   33.8510   43.6990 C   0  0  0  0  0  0  0  0  0  0  0  0
   46.8830   33.2550   44.8790 N   0  0  0  0  0  0  0  0  0  0  0  0
   46.1570   33.5150   45.9860 C   0  0  0  0  0  0  0  0  0  0  0  0
   45.1400   34.4190   45.9140 N   0  0  0  0  0  0  0  0  0  0  0  0
   46.3660   32.9120   47.2570 N   0  0  0  0  0  0  0  0  0  0  0  0
   45.5111   33.5974   40.2899 H   0  0  0  0  0  0  0  0  0  0  0  0
   43.6142   33.0733   38.8301 H   0  0  0  0  0  0  0  0  0  0  0  0
   39.2000   34.3399   38.4178 H   0  0  0  0  0  0  0  0  0  0  0  0
   38.8534   35.9744   40.2373 H   0  0  0  0  0  0  0  0  0  0  0  0
   40.6714   36.6034   41.7973 H   0  0  0  0  0  0  0  0  0  0  0  0
   43.0269   36.3345   42.5061 H   0  0  0  0  0  0  0  0  0  0  0  0
   44.0333   35.7630   44.7489 H   0  0  0  0  0  0  0  0  0  0  0  0
   47.2589   33.6150   42.8159 H   0  0  0  0  0  0  0  0  0  0  0  0
   45.7647   33.1674   48.0533 H   0  0  0  0  0  0  0  0  0  0  0  0
   47.1187   32.2199   47.3812 H   0  0  0  0  0  0  0  0  0  0  0  0
  1 10  1  0
  1 11  1  0
  2  1  2  0
  3  4  2  0
  3  2  1  0
  4  9  1  0
  5  6  2  0
  5  4  1  0
  6  7  1  0
  7  8  2  0
  9  8  1  0
  9 10  2  0
 11 13  1  0
 12 17  2  0
 13 14  2  0
 13 12  1  0
 14 15  1  0
 15 16  2  0
 16 18  1  0
 17 16  1  0
  2 19  1  0
  3 20  1  0
  6 21  1  0
  7 22  1  0
  8 23  1  0
 10 24  1  0
 12 25  1  0
 14 26  1  0
 18 27  1  0
 18 28  1  0
M  ISO  8  19  14  20  14  21  14  22  14  23  14  24  14  25  14  26  14
M  END
>  <minimizedAffinity>  (1) 
-5.7323041

>  <minimizedRMSD>  (1) 
0.248924568

$$$$
