
     RDKit          3D

 27 29  0  0  0  0  0  0  0  0999 V2000
   44.4520   35.0230   41.6370 C   0  0  0  0  0  0  0  0  0  0  0  0
   44.6110   34.1630   40.5690 C   0  0  0  0  0  0  0  0  0  0  0  0
   43.5600   33.9140   39.7250 C   0  0  0  0  0  0  0  0  0  0  0  0
   42.3250   34.4920   39.8920 C   0  0  0  0  0  0  0  0  0  0  0  0
   41.3520   34.1860   39.0110 N   0  0  0  0  0  0  0  0  0  0  0  0
   40.1220   34.7450   39.1550 C   0  0  0  0  0  0  0  0  0  0  0  0
   39.9130   35.6060   40.2010 C   0  0  0  0  0  0  0  0  0  0  0  0
   40.9280   35.9260   41.1220 C   0  0  0  0  0  0  0  0  0  0  0  0
   42.1760   35.3450   40.9570 C   0  0  0  0  0  0  0  0  0  0  0  0
   43.2160   35.6270   41.8390 C   0  0  0  0  0  0  0  0  0  0  0  0
   45.3980   35.3890   42.5850 O   0  0  0  0  0  0  0  0  0  0  0  0
   44.9940   34.8150   44.9420 C   0  0  0  0  0  0  0  0  0  0  0  0
   45.6860   34.6770   43.7240 C   0  0  0  0  0  0  0  0  0  0  0  0
   46.7330   33.7520   43.6870 C   0  0  0  0  0  0  0  0  0  0  0  0
   47.0300   33.0470   44.7920 N   0  0  0  0  0  0  0  0  0  0  0  0
   46.3460   33.2000   45.9530 C   0  0  0  0  0  0  0  0  0  0  0  0
   45.3220   34.0970   46.0080 N   0  0  0  0  0  0  0  0  0  0  0  0
   46.7290   32.2670   47.4370 S   0  0  0  0  0  0  0  0  0  0  0  0
   45.5823   33.6769   40.3950 H   0  0  0  0  0  0  0  0  0  0  0  0
   43.7114   33.2246   38.8813 H   0  0  0  0  0  0  0  0  0  0  0  0
   39.3121   34.5119   38.4481 H   0  0  0  0  0  0  0  0  0  0  0  0
   38.9195   36.0617   40.3246 H   0  0  0  0  0  0  0  0  0  0  0  0
   40.7357   36.6206   41.9530 H   0  0  0  0  0  0  0  0  0  0  0  0
   43.0622   36.3166   42.6821 H   0  0  0  0  0  0  0  0  0  0  0  0
   44.1638   35.5333   45.0112 H   0  0  0  0  0  0  0  0  0  0  0  0
   47.3088   33.6023   42.7618 H   0  0  0  0  0  0  0  0  0  0  0  0
   46.4208   33.0178   48.5407 H   0  0  0  0  0  0  0  0  0  0  0  0
  1 10  1  0
  1 11  1  0
  2  1  2  0
  3  4  2  0
  3  2  1  0
  4  9  1  0
  5  6  2  0
  5  4  1  0
  6  7  1  0
  7  8  2  0
  9  8  1  0
  9 10  2  0
 11 13  1  0
 12 17  2  0
 13 12  1  0
 14 13  2  0
 14 15  1  0
 15 16  2  0
 16 17  1  0
 16 18  1  0
  2 19  1  0
  3 20  1  0
  6 21  1  0
  7 22  1  0
  8 23  1  0
 10 24  1  0
 12 25  1  0
 14 26  1  0
 18 27  1  0
M  ISO  8  19  14  20  14  21  14  22  14  23  14  24  14  25  14  26  14
M  ISO  1  27  11
M  END
>  <minimizedAffinity>  (1) 
-5.58303928

>  <minimizedRMSD>  (1) 
0.0378951728

$$$$
