
     RDKit          3D

 33 36  0  0  0  0  0  0  0  0999 V2000
   45.5020   35.3340   42.7920 O   0  0  0  0  0  0  0  0  0  0  0  0
   44.5900   35.0110   41.7980 C   0  0  0  0  0  0  0  0  0  0  0  0
   44.8030   34.2070   40.7060 C   0  0  0  0  0  0  0  0  0  0  0  0
   43.7830   33.9870   39.8070 C   0  0  0  0  0  0  0  0  0  0  0  0
   42.5250   34.5540   39.9580 C   0  0  0  0  0  0  0  0  0  0  0  0
   41.5840   34.2980   39.0500 N   0  0  0  0  0  0  0  0  0  0  0  0
   40.3500   34.8290   39.1610 C   0  0  0  0  0  0  0  0  0  0  0  0
   40.1000   35.6430   40.2470 C   0  0  0  0  0  0  0  0  0  0  0  0
   41.0870   35.9170   41.2100 C   0  0  0  0  0  0  0  0  0  0  0  0
   42.3340   35.3550   41.0580 C   0  0  0  0  0  0  0  0  0  0  0  0
   43.3420   35.6030   41.9940 C   0  0  0  0  0  0  0  0  0  0  0  0
   44.9250   34.8560   45.1380 C   0  0  0  0  0  0  0  0  0  0  0  0
   45.6600   34.6360   43.9770 C   0  0  0  0  0  0  0  0  0  0  0  0
   46.6460   33.6210   44.0090 C   0  0  0  0  0  0  0  0  0  0  0  0
   46.8160   32.9310   45.1490 N   0  0  0  0  0  0  0  0  0  0  0  0
   46.0920   33.1630   46.2580 C   0  0  0  0  0  0  0  0  0  0  0  0
   45.1370   34.1430   46.2350 N   0  0  0  0  0  0  0  0  0  0  0  0
   46.2310   32.4480   47.5210 C   0  0  0  0  0  0  0  0  0  0  0  0
   45.1240   31.9510   48.2070 C   0  0  0  0  0  0  0  0  0  0  0  0
   45.5880   31.3280   49.3610 C   0  0  0  0  0  0  0  0  0  0  0  0
   46.9390   31.4620   49.3430 N   0  0  0  0  0  0  0  0  0  0  0  0
   47.3010   32.1320   48.2400 N   0  0  0  0  0  0  0  0  0  0  0  0
   45.7862   33.7394   40.5492 H   0  0  0  0  0  0  0  0  0  0  0  0
   43.9720   33.3390   38.9385 H   0  0  0  0  0  0  0  0  0  0  0  0
   39.5706   34.6211   38.4131 H   0  0  0  0  0  0  0  0  0  0  0  0
   39.1014   36.0896   40.3623 H   0  0  0  0  0  0  0  0  0  0  0  0
   40.8667   36.5682   42.0687 H   0  0  0  0  0  0  0  0  0  0  0  0
   43.1558   36.2494   42.8643 H   0  0  0  0  0  0  0  0  0  0  0  0
   44.1517   35.6382   45.1454 H   0  0  0  0  0  0  0  0  0  0  0  0
   47.2583   33.4025   43.1217 H   0  0  0  0  0  0  0  0  0  0  0  0
   44.0733   32.0361   47.8926 H   0  0  0  0  0  0  0  0  0  0  0  0
   44.9830   30.8281   50.1318 H   0  0  0  0  0  0  0  0  0  0  0  0
   47.5836   31.1053   50.0629 H   0  0  0  0  0  0  0  0  0  0  0  0
  1 13  1  0
  2 11  1  0
  2  1  1  0
  3  2  2  0
  4  5  2  0
  4  3  1  0
  5 10  1  0
  6  7  2  0
  6  5  1  0
  7  8  1  0
  8  9  2  0
 10  9  1  0
 10 11  2  0
 12 17  2  0
 13 14  2  0
 13 12  1  0
 14 15  1  0
 15 16  2  0
 16 18  1  0
 17 16  1  0
 18 19  1  0
 18 22  2  0
 19 20  2  0
 21 20  1  0
 22 21  1  0
  3 23  1  0
  4 24  1  0
  7 25  1  0
  8 26  1  0
  9 27  1  0
 11 28  1  0
 12 29  1  0
 14 30  1  0
 19 31  1  0
 20 32  1  0
 21 33  1  0
M  ISO  8  23  14  24  14  25  14  26  14  27  14  28  14  29  14  30  14
M  ISO  3  31  14  32  14  33   9
M  END
>  <minimizedAffinity>  (1) 
-6.87778759

>  <minimizedRMSD>  (1) 
0.458125502

$$$$
