
     RDKit          3D

 46 51  0  0  0  0  0  0  0  0999 V2000
   44.5180   35.4600   44.9530 C   0  0  0  0  0  0  0  0  0  0  0  0
   44.5980   35.0690   43.6110 C   0  0  0  0  0  0  0  0  0  0  0  0
   45.2380   33.8440   43.3370 C   0  0  0  0  0  0  0  0  0  0  0  0
   45.7320   33.1230   44.3550 N   0  0  0  0  0  0  0  0  0  0  0  0
   45.6390   33.5280   45.6430 C   0  0  0  0  0  0  0  0  0  0  0  0
   45.0220   34.7120   45.9220 N   0  0  0  0  0  0  0  0  0  0  0  0
   46.1560   32.7890   46.7830 C   0  0  0  0  0  0  0  0  0  0  0  0
   45.3170   32.0320   47.6000 C   0  0  0  0  0  0  0  0  0  0  0  0
   46.0970   31.4540   48.5870 C   0  0  0  0  0  0  0  0  0  0  0  0
   47.3650   31.8610   48.3570 N   0  0  0  0  0  0  0  0  0  0  0  0
   47.3880   32.6600   47.2740 N   0  0  0  0  0  0  0  0  0  0  0  0
   48.4700   30.3670   49.8810 N   0  0  0  0  0  0  0  0  0  0  0  0
   48.5070   31.5030   49.1380 C   0  0  0  0  0  0  0  0  0  0  0  0
   49.7110   32.0990   49.3090 N   0  0  0  0  0  0  0  0  0  0  0  0
   50.4560   31.3530   50.1620 C   0  0  0  0  0  0  0  0  0  0  0  0
   51.7270   31.5810   50.6100 C   0  0  0  0  0  0  0  0  0  0  0  0
   52.2420   30.6580   51.4730 N   0  0  0  0  0  0  0  0  0  0  0  0
   51.4850   29.5960   51.8270 C   0  0  0  0  0  0  0  0  0  0  0  0
   50.2360   29.4080   51.3610 N   0  0  0  0  0  0  0  0  0  0  0  0
   49.6610   30.2790   50.5050 C   0  0  0  0  0  0  0  0  0  0  0  0
   52.5320   32.6760   50.2580 N   0  0  0  0  0  0  0  0  0  0  0  0
   44.0970   35.7930   42.5460 O   0  0  0  0  0  0  0  0  0  0  0  0
   43.4110   35.2510   41.4710 C   0  0  0  0  0  0  0  0  0  0  0  0
   43.9420   34.5610   40.4080 C   0  0  0  0  0  0  0  0  0  0  0  0
   43.1210   34.0840   39.4160 C   0  0  0  0  0  0  0  0  0  0  0  0
   41.7500   34.2680   39.4360 C   0  0  0  0  0  0  0  0  0  0  0  0
   41.0080   33.7840   38.4490 N   0  0  0  0  0  0  0  0  0  0  0  0
   39.6750   33.9410   38.4280 C   0  0  0  0  0  0  0  0  0  0  0  0
   39.0920   34.6310   39.4840 C   0  0  0  0  0  0  0  0  0  0  0  0
   39.8740   35.1440   40.5260 C   0  0  0  0  0  0  0  0  0  0  0  0
   41.2390   34.9660   40.5170 C   0  0  0  0  0  0  0  0  0  0  0  0
   42.0440   35.4620   41.5370 C   0  0  0  0  0  0  0  0  0  0  0  0
   44.0254   36.4099   45.2079 H   0  0  0  0  0  0  0  0  0  0  0  0
   45.3314   33.4835   42.3020 H   0  0  0  0  0  0  0  0  0  0  0  0
   44.2297   31.9150   47.4815 H   0  0  0  0  0  0  0  0  0  0  0  0
   45.7530   30.7945   49.3974 H   0  0  0  0  0  0  0  0  0  0  0  0
   47.6858   29.7032   49.9534 H   0  0  0  0  0  0  0  0  0  0  0  0
   51.9060   28.8559   52.5234 H   0  0  0  0  0  0  0  0  0  0  0  0
   53.4813   32.7637   50.6479 H   0  0  0  0  0  0  0  0  0  0  0  0
   52.1733   33.3917   49.6099 H   0  0  0  0  0  0  0  0  0  0  0  0
   45.0272   34.3903   40.3515 H   0  0  0  0  0  0  0  0  0  0  0  0
   43.5698   33.5356   38.5747 H   0  0  0  0  0  0  0  0  0  0  0  0
   39.0664   33.5382   37.6050 H   0  0  0  0  0  0  0  0  0  0  0  0
   38.0017   34.7761   39.5015 H   0  0  0  0  0  0  0  0  0  0  0  0
   39.3969   35.6901   41.3531 H   0  0  0  0  0  0  0  0  0  0  0  0
   41.6026   36.0121   42.3811 H   0  0  0  0  0  0  0  0  0  0  0  0
  1  6  2  0
  2  1  1  0
  3  2  2  0
  3  4  1  0
  4  5  2  0
  5  6  1  0
  5  7  1  0
  7 11  2  0
  7  8  1  0
  8  9  2  0
 10  9  1  0
 10 13  1  0
 11 10  1  0
 12 20  1  0
 13 14  2  0
 13 12  1  0
 14 15  1  0
 15 20  2  0
 15 16  1  0
 16 17  2  0
 17 18  1  0
 19 18  2  0
 20 19  1  0
 21 16  1  0
 22  2  1  0
 23 32  1  0
 23 22  1  0
 24 23  2  0
 25 26  2  0
 25 24  1  0
 26 31  1  0
 27 26  1  0
 28 27  2  0
 28 29  1  0
 29 30  2  0
 31 30  1  0
 31 32  2  0
  1 33  1  0
  3 34  1  0
  8 35  1  0
  9 36  1  0
 12 37  1  0
 18 38  1  0
 21 39  1  0
 21 40  1  0
 24 41  1  0
 25 42  1  0
 28 43  1  0
 29 44  1  0
 30 45  1  0
 32 46  1  0
M  ISO  8  33  14  34  14  35  14  36  14  37   9  38  14  41  14  42  14
M  ISO  4  43  14  44  14  45  14  46  14
M  END
>  <minimizedAffinity>  (1) 
-8.90265465

>  <minimizedRMSD>  (1) 
1.53949547

$$$$
