
     RDKit          3D

 48 52  0  0  0  0  0  0  0  0999 V2000
   45.0560   34.6720   45.1760 C   0  0  0  0  0  0  0  0  0  0  0  0
   45.7240   34.6350   43.9630 C   0  0  0  0  0  0  0  0  0  0  0  0
   46.8110   33.7450   43.8460 C   0  0  0  0  0  0  0  0  0  0  0  0
   47.1380   32.9900   44.8980 N   0  0  0  0  0  0  0  0  0  0  0  0
   46.4700   33.0430   46.0720 C   0  0  0  0  0  0  0  0  0  0  0  0
   45.4230   33.9000   46.1850 N   0  0  0  0  0  0  0  0  0  0  0  0
   46.7850   32.2430   47.2460 C   0  0  0  0  0  0  0  0  0  0  0  0
   45.7810   31.5630   47.9480 C   0  0  0  0  0  0  0  0  0  0  0  0
   46.3970   30.9000   49.0030 C   0  0  0  0  0  0  0  0  0  0  0  0
   47.7150   31.1860   48.9140 N   0  0  0  0  0  0  0  0  0  0  0  0
   47.9190   31.9820   47.8670 N   0  0  0  0  0  0  0  0  0  0  0  0
   51.4080   30.3990   48.3330 N   0  0  0  0  0  0  0  0  0  0  0  0
   51.2960   31.0300   49.6280 C   0  0  0  0  0  0  0  0  0  0  0  0
   49.9780   31.8130   49.6200 C   0  0  0  0  0  0  0  0  0  0  0  0
   48.8660   30.8060   49.7030 C   0  0  0  0  0  0  0  0  0  0  0  0
   49.3740   29.4260   49.3130 C   0  0  0  0  0  0  0  0  0  0  0  0
   50.3010   29.5010   48.1100 C   0  0  0  0  0  0  0  0  0  0  0  0
   45.4170   35.4010   42.8500 O   0  0  0  0  0  0  0  0  0  0  0  0
   44.5070   35.0440   41.8690 C   0  0  0  0  0  0  0  0  0  0  0  0
   44.7390   34.2150   40.7880 C   0  0  0  0  0  0  0  0  0  0  0  0
   43.7250   33.9530   39.8920 C   0  0  0  0  0  0  0  0  0  0  0  0
   42.4480   34.4970   40.0330 C   0  0  0  0  0  0  0  0  0  0  0  0
   41.5180   34.2030   39.1330 N   0  0  0  0  0  0  0  0  0  0  0  0
   40.2640   34.7120   39.2350 C   0  0  0  0  0  0  0  0  0  0  0  0
   39.9980   35.5430   40.3030 C   0  0  0  0  0  0  0  0  0  0  0  0
   40.9840   35.8460   41.2440 C   0  0  0  0  0  0  0  0  0  0  0  0
   42.2490   35.3100   41.1100 C   0  0  0  0  0  0  0  0  0  0  0  0
   43.2460   35.6110   42.0520 C   0  0  0  0  0  0  0  0  0  0  0  0
   44.2042   35.3565   45.3023 H   0  0  0  0  0  0  0  0  0  0  0  0
   47.3788   33.6738   42.9066 H   0  0  0  0  0  0  0  0  0  0  0  0
   44.7073   31.5553   47.7091 H   0  0  0  0  0  0  0  0  0  0  0  0
   45.9089   30.2683   49.7598 H   0  0  0  0  0  0  0  0  0  0  0  0
   51.4085   31.1243   47.6016 H   0  0  0  0  0  0  0  0  0  0  0  0
   51.2804   30.2683   50.4215 H   0  0  0  0  0  0  0  0  0  0  0  0
   52.1513   31.6941   49.8215 H   0  0  0  0  0  0  0  0  0  0  0  0
   49.9373   32.4923   50.4842 H   0  0  0  0  0  0  0  0  0  0  0  0
   49.8889   32.4207   48.7074 H   0  0  0  0  0  0  0  0  0  0  0  0
   48.5266   30.7744   50.7488 H   0  0  0  0  0  0  0  0  0  0  0  0
   49.9225   28.9924   50.1622 H   0  0  0  0  0  0  0  0  0  0  0  0
   48.5100   28.7987   49.0484 H   0  0  0  0  0  0  0  0  0  0  0  0
   49.7267   29.8549   47.2412 H   0  0  0  0  0  0  0  0  0  0  0  0
   50.7107   28.4953   47.9348 H   0  0  0  0  0  0  0  0  0  0  0  0
   45.7320   33.7646   40.6427 H   0  0  0  0  0  0  0  0  0  0  0  0
   43.9295   33.2924   39.0365 H   0  0  0  0  0  0  0  0  0  0  0  0
   39.4884   34.4706   38.4932 H   0  0  0  0  0  0  0  0  0  0  0  0
   38.9923   35.9743   40.4154 H   0  0  0  0  0  0  0  0  0  0  0  0
   40.7533   36.5102   42.0900 H   0  0  0  0  0  0  0  0  0  0  0  0
   43.0392   36.2724   42.9063 H   0  0  0  0  0  0  0  0  0  0  0  0
  1  6  2  0
  2  1  1  0
  3  2  2  0
  3  4  1  0
  4  5  2  0
  5  6  1  0
  5  7  1  0
  7 11  2  0
  7  8  1  0
  8  9  2  0
 10  9  1  0
 10 15  1  0
 11 10  1  0
 12 13  1  0
 14 13  1  0
 14 15  1  0
 16 15  1  0
 17 12  1  0
 17 16  1  0
 18  2  1  0
 19 28  1  0
 19 18  1  0
 20 19  2  0
 21 22  2  0
 21 20  1  0
 22 27  1  0
 23 24  2  0
 23 22  1  0
 24 25  1  0
 25 26  2  0
 27 26  1  0
 27 28  2  0
  1 29  1  0
  3 30  1  0
  8 31  1  0
  9 32  1  0
 12 33  1  0
 13 34  1  0
 13 35  1  0
 14 36  1  0
 14 37  1  0
 15 38  1  0
 16 39  1  0
 16 40  1  0
 17 41  1  0
 17 42  1  0
 20 43  1  0
 21 44  1  0
 24 45  1  0
 25 46  1  0
 26 47  1  0
 28 48  1  0
M  ISO  8  29  14  30  14  31  14  32  14  33   5  34  13  35  13  36  13
M  ISO  8  37  13  38  13  39  13  40  13  41  13  42  13  43  14  44  14
M  ISO  4  45  14  46  14  47  14  48  14
M  END
>  <minimizedAffinity>  (1) 
-7.12216902

>  <minimizedRMSD>  (1) 
0.782895327

$$$$
