
     RDKit          3D

 33 36  0  0  0  0  0  0  0  0999 V2000
   46.7790   34.6890   41.9280 C   0  0  0  0  0  0  0  0  0  0  0  0
   48.0010   35.3280   41.7560 C   0  0  0  0  0  0  0  0  0  0  0  0
   48.7430   35.2620   40.5900 C   0  0  0  0  0  0  0  0  0  0  0  0
   48.1680   34.4920   39.5760 C   0  0  0  0  0  0  0  0  0  0  0  0
   46.9510   33.8520   39.7390 C   0  0  0  0  0  0  0  0  0  0  0  0
   46.2760   33.9590   40.9100 N   0  0  0  0  0  0  0  0  0  0  0  0
   45.7760   31.8320   39.0350 C   0  0  0  0  0  0  0  0  0  0  0  0
   46.3340   33.0470   38.7010 C   0  0  0  0  0  0  0  0  0  0  0  0
   46.2490   33.3930   37.3720 C   0  0  0  0  0  0  0  0  0  0  0  0
   45.6590   32.6150   36.4050 C   0  0  0  0  0  0  0  0  0  0  0  0
   45.5000   32.8180   35.0740 N   0  0  0  0  0  0  0  0  0  0  0  0
   44.8580   31.7610   34.5630 C   0  0  0  0  0  0  0  0  0  0  0  0
   44.6010   30.8680   35.5790 C   0  0  0  0  0  0  0  0  0  0  0  0
   45.1120   31.4140   36.7560 C   0  0  0  0  0  0  0  0  0  0  0  0
   45.1750   31.0260   38.0840 C   0  0  0  0  0  0  0  0  0  0  0  0
   45.5480   34.0100   45.3070 C   0  0  0  0  0  0  0  0  0  0  0  0
   44.7020   35.0930   45.5630 C   0  0  0  0  0  0  0  0  0  0  0  0
   44.5660   36.0490   44.5570 C   0  0  0  0  0  0  0  0  0  0  0  0
   45.2630   35.8780   43.3840 N   0  0  0  0  0  0  0  0  0  0  0  0
   46.0680   34.8130   43.1890 C   0  0  0  0  0  0  0  0  0  0  0  0
   46.2110   33.8890   44.1370 N   0  0  0  0  0  0  0  0  0  0  0  0
   48.4005   35.9191   42.5933 H   0  0  0  0  0  0  0  0  0  0  0  0
   49.7088   35.7750   40.4709 H   0  0  0  0  0  0  0  0  0  0  0  0
   48.6988   34.3910   38.6179 H   0  0  0  0  0  0  0  0  0  0  0  0
   45.8091   31.4951   40.0816 H   0  0  0  0  0  0  0  0  0  0  0  0
   46.6819   34.3559   37.0632 H   0  0  0  0  0  0  0  0  0  0  0  0
   45.8185   33.6436   34.5469 H   0  0  0  0  0  0  0  0  0  0  0  0
   44.5815   31.6277   33.5067 H   0  0  0  0  0  0  0  0  0  0  0  0
   44.0866   29.9007   35.4803 H   0  0  0  0  0  0  0  0  0  0  0  0
   44.7405   30.0621   38.3876 H   0  0  0  0  0  0  0  0  0  0  0  0
   45.6769   33.2366   46.0785 H   0  0  0  0  0  0  0  0  0  0  0  0
   44.1656   35.1872   46.5187 H   0  0  0  0  0  0  0  0  0  0  0  0
   43.9136   36.9232   44.6990 H   0  0  0  0  0  0  0  0  0  0  0  0
  1 20  1  0
  2  1  2  0
  3  2  1  0
  4  5  1  0
  4  3  2  0
  5  6  2  0
  6  1  1  0
  8  7  2  0
  8  5  1  0
  9  8  1  0
 10 14  1  0
 10  9  2  0
 11 10  1  0
 12 11  1  0
 12 13  2  0
 13 14  1  0
 14 15  2  0
 15  7  1  0
 16 17  2  0
 18 17  1  0
 19 18  2  0
 20 19  1  0
 20 21  2  0
 21 16  1  0
  2 22  1  0
  3 23  1  0
  4 24  1  0
  7 25  1  0
  9 26  1  0
 11 27  1  0
 12 28  1  0
 13 29  1  0
 15 30  1  0
 16 31  1  0
 17 32  1  0
 18 33  1  0
M  ISO  8  22  14  23  14  24  14  25  14  26  14  27   9  28  14  29  14
M  ISO  4  30  14  31  14  32  14  33  14
M  END
>  <minimizedAffinity>  (1) 
-6.14127445

>  <minimizedRMSD>  (1) 
0.614841104

$$$$
