
     RDKit          3D

 34 37  0  0  0  0  0  0  0  0999 V2000
   46.8250   34.7380   42.0360 C   0  0  0  0  0  0  0  0  0  0  0  0
   48.0590   35.3260   41.9070 C   0  0  0  0  0  0  0  0  0  0  0  0
   48.8050   35.2900   40.7390 C   0  0  0  0  0  0  0  0  0  0  0  0
   48.2030   34.6050   39.6860 C   0  0  0  0  0  0  0  0  0  0  0  0
   46.9600   34.0090   39.8070 C   0  0  0  0  0  0  0  0  0  0  0  0
   46.2830   34.0820   40.9790 N   0  0  0  0  0  0  0  0  0  0  0  0
   46.3090   33.2870   38.7200 C   0  0  0  0  0  0  0  0  0  0  0  0
   45.0390   32.7940   38.9270 C   0  0  0  0  0  0  0  0  0  0  0  0
   44.3450   32.0910   37.9360 C   0  0  0  0  0  0  0  0  0  0  0  0
   44.9290   31.8730   36.7070 C   0  0  0  0  0  0  0  0  0  0  0  0
   44.2650   31.1940   35.7460 N   0  0  0  0  0  0  0  0  0  0  0  0
   44.8600   30.9980   34.5610 C   0  0  0  0  0  0  0  0  0  0  0  0
   46.1470   31.4850   34.3150 C   0  0  0  0  0  0  0  0  0  0  0  0
   46.8320   32.1800   35.2960 C   0  0  0  0  0  0  0  0  0  0  0  0
   46.2010   32.3610   36.4860 C   0  0  0  0  0  0  0  0  0  0  0  0
   46.8810   33.0610   37.4860 C   0  0  0  0  0  0  0  0  0  0  0  0
   45.6180   33.9410   45.4130 C   0  0  0  0  0  0  0  0  0  0  0  0
   44.7080   34.9830   45.6720 C   0  0  0  0  0  0  0  0  0  0  0  0
   44.5270   35.9410   44.6750 C   0  0  0  0  0  0  0  0  0  0  0  0
   45.2360   35.8280   43.5020 N   0  0  0  0  0  0  0  0  0  0  0  0
   46.0950   34.8160   43.3000 C   0  0  0  0  0  0  0  0  0  0  0  0
   46.2950   33.8730   44.2360 N   0  0  0  0  0  0  0  0  0  0  0  0
   48.4780   35.8536   42.7765 H   0  0  0  0  0  0  0  0  0  0  0  0
   49.7935   35.7645   40.6508 H   0  0  0  0  0  0  0  0  0  0  0  0
   48.7340   34.5354   38.7252 H   0  0  0  0  0  0  0  0  0  0  0  0
   44.5558   32.9582   39.9015 H   0  0  0  0  0  0  0  0  0  0  0  0
   43.3323   31.7120   38.1382 H   0  0  0  0  0  0  0  0  0  0  0  0
   44.3284   30.4465   33.7715 H   0  0  0  0  0  0  0  0  0  0  0  0
   46.6180   31.3147   33.3357 H   0  0  0  0  0  0  0  0  0  0  0  0
   47.8454   32.5699   35.1200 H   0  0  0  0  0  0  0  0  0  0  0  0
   47.8939   33.4397   37.2845 H   0  0  0  0  0  0  0  0  0  0  0  0
   45.7845   33.1673   46.1770 H   0  0  0  0  0  0  0  0  0  0  0  0
   44.1605   35.0395   46.6244 H   0  0  0  0  0  0  0  0  0  0  0  0
   43.8266   36.7758   44.8247 H   0  0  0  0  0  0  0  0  0  0  0  0
  1 21  1  0
  2  1  2  0
  3  2  1  0
  4  5  1  0
  4  3  2  0
  5  6  2  0
  6  1  1  0
  7  8  2  0
  7  5  1  0
  9  8  1  0
 10  9  2  0
 11 10  1  0
 12 11  2  0
 13 12  1  0
 13 14  2  0
 14 15  1  0
 15 10  1  0
 15 16  2  0
 16  7  1  0
 17 18  2  0
 19 18  1  0
 20 19  2  0
 21 20  1  0
 21 22  2  0
 22 17  1  0
  2 23  1  0
  3 24  1  0
  4 25  1  0
  8 26  1  0
  9 27  1  0
 12 28  1  0
 13 29  1  0
 14 30  1  0
 16 31  1  0
 17 32  1  0
 18 33  1  0
 19 34  1  0
M  ISO  8  23  14  24  14  25  14  26  14  27  14  28  14  29  14  30  14
M  ISO  4  31  14  32  14  33  14  34  14
M  END
>  <minimizedAffinity>  (1) 
-5.95752096

>  <minimizedRMSD>  (1) 
1.29694784

$$$$
