
     RDKit          3D

 29 31  0  0  0  0  0  0  0  0999 V2000
   46.8860   34.7670   42.0460 C   0  0  0  0  0  0  0  0  0  0  0  0
   48.0730   35.4750   41.9090 C   0  0  0  0  0  0  0  0  0  0  0  0
   48.8420   35.4700   40.7610 C   0  0  0  0  0  0  0  0  0  0  0  0
   48.3250   34.6790   39.7210 C   0  0  0  0  0  0  0  0  0  0  0  0
   47.1420   33.9710   39.8520 C   0  0  0  0  0  0  0  0  0  0  0  0
   46.4480   34.0330   41.0180 N   0  0  0  0  0  0  0  0  0  0  0  0
   48.6840   34.1280   37.3160 Cl  0  0  0  0  0  0  0  0  0  0  0  0
   47.2370   33.1370   37.5360 C   0  0  0  0  0  0  0  0  0  0  0  0
   46.6140   33.1530   38.7670 C   0  0  0  0  0  0  0  0  0  0  0  0
   45.4960   32.3550   38.8530 C   0  0  0  0  0  0  0  0  0  0  0  0
   45.0260   31.5940   37.8020 C   0  0  0  0  0  0  0  0  0  0  0  0
   45.6880   31.6140   36.5920 C   0  0  0  0  0  0  0  0  0  0  0  0
   46.8140   32.3980   36.4510 C   0  0  0  0  0  0  0  0  0  0  0  0
   47.6800   32.4500   34.9310 Cl  0  0  0  0  0  0  0  0  0  0  0  0
   45.5910   33.9750   45.3830 C   0  0  0  0  0  0  0  0  0  0  0  0
   44.6970   35.0220   45.6240 C   0  0  0  0  0  0  0  0  0  0  0  0
   44.5480   35.9920   44.6320 C   0  0  0  0  0  0  0  0  0  0  0  0
   45.2820   35.8720   43.4750 N   0  0  0  0  0  0  0  0  0  0  0  0
   46.1360   34.8370   43.2890 C   0  0  0  0  0  0  0  0  0  0  0  0
   46.2940   33.9030   44.2170 N   0  0  0  0  0  0  0  0  0  0  0  0
   48.4209   36.0741   42.7634 H   0  0  0  0  0  0  0  0  0  0  0  0
   49.7799   36.0374   40.6690 H   0  0  0  0  0  0  0  0  0  0  0  0
   48.8779   34.6202   38.7719 H   0  0  0  0  0  0  0  0  0  0  0  0
   44.9497   32.3221   39.8072 H   0  0  0  0  0  0  0  0  0  0  0  0
   44.1265   30.9736   37.9288 H   0  0  0  0  0  0  0  0  0  0  0  0
   45.3217   31.0109   35.7482 H   0  0  0  0  0  0  0  0  0  0  0  0
   45.7298   33.1959   46.1470 H   0  0  0  0  0  0  0  0  0  0  0  0
   44.1296   35.0795   46.5646 H   0  0  0  0  0  0  0  0  0  0  0  0
   43.8570   36.8362   44.7726 H   0  0  0  0  0  0  0  0  0  0  0  0
  1 19  1  0
  2  1  2  0
  3  2  1  0
  4  5  1  0
  4  3  2  0
  5  6  2  0
  6  1  1  0
  7  8  1  0
  8  9  2  0
  9 10  1  0
  9  5  1  0
 11 10  2  0
 12 11  1  0
 13 12  2  0
 13  8  1  0
 14 13  1  0
 15 16  2  0
 17 16  1  0
 18 17  2  0
 19 18  1  0
 19 20  2  0
 20 15  1  0
  2 21  1  0
  3 22  1  0
  4 23  1  0
 10 24  1  0
 11 25  1  0
 12 26  1  0
 15 27  1  0
 16 28  1  0
 17 29  1  0
M  ISO  8  21  14  22  14  23  14  24  14  25  14  26  14  27  14  28  14
M  ISO  1  29  14
M  END
>  <minimizedAffinity>  (1) 
-5.82301903

>  <minimizedRMSD>  (1) 
0.367559582

$$$$
