
     RDKit          3D

 34 36  0  0  0  0  0  0  0  0999 V2000
   46.8390   34.7160   42.1160 C   0  0  0  0  0  0  0  0  0  0  0  0
   47.9900   35.4340   41.9350 C   0  0  0  0  0  0  0  0  0  0  0  0
   48.7640   35.4230   40.7940 C   0  0  0  0  0  0  0  0  0  0  0  0
   48.2680   34.5820   39.7780 C   0  0  0  0  0  0  0  0  0  0  0  0
   47.1050   33.8540   39.9550 C   0  0  0  0  0  0  0  0  0  0  0  0
   46.4150   33.9350   41.1170 N   0  0  0  0  0  0  0  0  0  0  0  0
   46.5900   33.0020   38.9430 N   0  0  0  0  0  0  0  0  0  0  0  0
   47.3740   32.2870   37.9580 C   0  0  0  0  0  0  0  0  0  0  0  0
   47.0790   32.9960   36.6320 C   0  0  0  0  0  0  0  0  0  0  0  0
   45.6230   32.7420   36.3180 C   0  0  0  0  0  0  0  0  0  0  0  0
   44.6790   33.1030   37.4130 C   0  0  0  0  0  0  0  0  0  0  0  0
   45.1690   32.7620   38.8020 C   0  0  0  0  0  0  0  0  0  0  0  0
   45.5940   33.9610   45.4850 C   0  0  0  0  0  0  0  0  0  0  0  0
   44.6900   35.0000   45.7220 C   0  0  0  0  0  0  0  0  0  0  0  0
   44.5140   35.9640   44.7100 C   0  0  0  0  0  0  0  0  0  0  0  0
   45.2340   35.8360   43.5460 N   0  0  0  0  0  0  0  0  0  0  0  0
   46.0980   34.8060   43.3700 C   0  0  0  0  0  0  0  0  0  0  0  0
   46.2790   33.8810   44.3170 N   0  0  0  0  0  0  0  0  0  0  0  0
   48.3246   36.0712   42.7669 H   0  0  0  0  0  0  0  0  0  0  0  0
   49.6841   36.0162   40.6867 H   0  0  0  0  0  0  0  0  0  0  0  0
   48.8153   34.5029   38.8271 H   0  0  0  0  0  0  0  0  0  0  0  0
   48.4457   32.3461   38.1988 H   0  0  0  0  0  0  0  0  0  0  0  0
   47.1197   31.2174   37.9221 H   0  0  0  0  0  0  0  0  0  0  0  0
   47.2627   34.0761   36.7306 H   0  0  0  0  0  0  0  0  0  0  0  0
   47.7286   32.6185   35.8286 H   0  0  0  0  0  0  0  0  0  0  0  0
   45.3565   33.3305   35.4277 H   0  0  0  0  0  0  0  0  0  0  0  0
   45.5222   31.6574   36.1651 H   0  0  0  0  0  0  0  0  0  0  0  0
   44.5000   34.1874   37.3686 H   0  0  0  0  0  0  0  0  0  0  0  0
   43.7678   32.5092   37.2485 H   0  0  0  0  0  0  0  0  0  0  0  0
   44.6286   33.3818   39.5327 H   0  0  0  0  0  0  0  0  0  0  0  0
   44.9830   31.6922   38.9780 H   0  0  0  0  0  0  0  0  0  0  0  0
   45.7527   33.1952   46.2586 H   0  0  0  0  0  0  0  0  0  0  0  0
   44.1335   35.0631   46.6688 H   0  0  0  0  0  0  0  0  0  0  0  0
   43.8149   36.8019   44.8483 H   0  0  0  0  0  0  0  0  0  0  0  0
  1 17  1  0
  2  1  2  0
  3  2  1  0
  4  5  1  0
  4  3  2  0
  5  6  2  0
  6  1  1  0
  7  5  1  0
  8  7  1  0
  9  8  1  0
 10  9  1  0
 10 11  1  0
 11 12  1  0
 12  7  1  0
 13 14  2  0
 15 14  1  0
 16 15  2  0
 17 16  1  0
 17 18  2  0
 18 13  1  0
  2 19  1  0
  3 20  1  0
  4 21  1  0
  8 22  1  0
  8 23  1  0
  9 24  1  0
  9 25  1  0
 10 26  1  0
 10 27  1  0
 11 28  1  0
 11 29  1  0
 12 30  1  0
 12 31  1  0
 13 32  1  0
 14 33  1  0
 15 34  1  0
M  ISO  8  19  14  20  14  21  14  22  13  23  13  24  13  25  13  26  13
M  ISO  8  27  13  28  13  29  13  30  13  31  13  32  14  33  14  34  14
M  END
>  <minimizedAffinity>  (1) 
-5.69000816

>  <minimizedRMSD>  (1) 
0.142479777

$$$$
