
     RDKit          3D

 28 30  0  0  0  0  0  0  0  0999 V2000
   46.8310   34.7370   42.0640 C   0  0  0  0  0  0  0  0  0  0  0  0
   48.0260   35.3880   41.9040 C   0  0  0  0  0  0  0  0  0  0  0  0
   48.8010   35.3860   40.7620 C   0  0  0  0  0  0  0  0  0  0  0  0
   48.2600   34.6380   39.7240 C   0  0  0  0  0  0  0  0  0  0  0  0
   47.0540   33.9660   39.8500 C   0  0  0  0  0  0  0  0  0  0  0  0
   46.3740   34.0370   41.0210 N   0  0  0  0  0  0  0  0  0  0  0  0
   45.6220   33.9430   45.4210 C   0  0  0  0  0  0  0  0  0  0  0  0
   44.7150   34.9730   45.6810 C   0  0  0  0  0  0  0  0  0  0  0  0
   44.5300   35.9340   44.6870 C   0  0  0  0  0  0  0  0  0  0  0  0
   45.2340   35.8390   43.5050 N   0  0  0  0  0  0  0  0  0  0  0  0
   46.0980   34.8110   43.3220 C   0  0  0  0  0  0  0  0  0  0  0  0
   46.3090   33.8610   44.2520 N   0  0  0  0  0  0  0  0  0  0  0  0
   46.4460   33.1700   38.7920 C   0  0  0  0  0  0  0  0  0  0  0  0
   46.7340   33.3300   37.4530 C   0  0  0  0  0  0  0  0  0  0  0  0
   46.1860   32.6040   36.4260 C   0  0  0  0  0  0  0  0  0  0  0  0
   45.2710   31.6270   36.7260 C   0  0  0  0  0  0  0  0  0  0  0  0
   44.9830   31.4670   38.0610 C   0  0  0  0  0  0  0  0  0  0  0  0
   45.5410   32.1990   39.0350 N   0  0  0  0  0  0  0  0  0  0  0  0
   48.4013   35.9639   42.7628 H   0  0  0  0  0  0  0  0  0  0  0  0
   49.7563   35.9254   40.6814 H   0  0  0  0  0  0  0  0  0  0  0  0
   48.8062   34.5769   38.7712 H   0  0  0  0  0  0  0  0  0  0  0  0
   45.7854   33.1723   46.1887 H   0  0  0  0  0  0  0  0  0  0  0  0
   44.1673   35.0244   46.6336 H   0  0  0  0  0  0  0  0  0  0  0  0
   43.8257   36.7640   44.8453 H   0  0  0  0  0  0  0  0  0  0  0  0
   47.4659   34.1063   37.1854 H   0  0  0  0  0  0  0  0  0  0  0  0
   46.4745   32.8013   35.3830 H   0  0  0  0  0  0  0  0  0  0  0  0
   44.7975   31.0105   35.9477 H   0  0  0  0  0  0  0  0  0  0  0  0
   44.2534   30.6945   38.3455 H   0  0  0  0  0  0  0  0  0  0  0  0
  1 11  1  0
  2  1  2  0
  3  2  1  0
  4  5  1  0
  4  3  2  0
  5  6  2  0
  6  1  1  0
  7  8  2  0
  9  8  1  0
 10  9  2  0
 11 10  1  0
 11 12  2  0
 12  7  1  0
 13 18  1  0
 13  5  1  0
 14 13  2  0
 15 16  2  0
 15 14  1  0
 16 17  1  0
 17 18  2  0
  2 19  1  0
  3 20  1  0
  4 21  1  0
  7 22  1  0
  8 23  1  0
  9 24  1  0
 14 25  1  0
 15 26  1  0
 16 27  1  0
 17 28  1  0
M  ISO  8  19  14  20  14  21  14  22  14  23  14  24  14  25  14  26  14
M  ISO  2  27  14  28  14
M  END
>  <minimizedAffinity>  (1) 
-5.31963348

>  <minimizedRMSD>  (1) 
0.243904069

$$$$
