
     RDKit          3D

 25 26  0  0  0  0  0  0  0  0999 V2000
   46.8700   34.7570   42.0640 C   0  0  0  0  0  0  0  0  0  0  0  0
   48.0610   35.4450   41.9180 C   0  0  0  0  0  0  0  0  0  0  0  0
   48.8310   35.4400   40.7730 C   0  0  0  0  0  0  0  0  0  0  0  0
   48.3130   34.6720   39.7390 C   0  0  0  0  0  0  0  0  0  0  0  0
   47.1160   33.9720   39.8640 C   0  0  0  0  0  0  0  0  0  0  0  0
   46.4120   34.0290   41.0340 N   0  0  0  0  0  0  0  0  0  0  0  0
   45.6320   33.9390   45.4150 C   0  0  0  0  0  0  0  0  0  0  0  0
   44.7150   34.9620   45.6690 C   0  0  0  0  0  0  0  0  0  0  0  0
   44.5280   35.9400   44.6700 C   0  0  0  0  0  0  0  0  0  0  0  0
   45.2570   35.8260   43.5130 N   0  0  0  0  0  0  0  0  0  0  0  0
   46.1280   34.8240   43.3110 C   0  0  0  0  0  0  0  0  0  0  0  0
   46.3040   33.9010   44.2520 N   0  0  0  0  0  0  0  0  0  0  0  0
   46.6770   33.1930   38.6880 C   0  0  0  0  0  0  0  0  0  0  0  0
   47.3090   33.6420   37.4020 C   0  0  0  0  0  0  0  0  0  0  0  0
   48.4189   36.0368   42.7734 H   0  0  0  0  0  0  0  0  0  0  0  0
   49.7754   35.9974   40.6868 H   0  0  0  0  0  0  0  0  0  0  0  0
   48.8663   34.6147   38.7900 H   0  0  0  0  0  0  0  0  0  0  0  0
   45.8050   33.1597   46.1719 H   0  0  0  0  0  0  0  0  0  0  0  0
   44.1575   35.0033   46.6164 H   0  0  0  0  0  0  0  0  0  0  0  0
   43.8193   36.7689   44.8140 H   0  0  0  0  0  0  0  0  0  0  0  0
   46.9365   32.1369   38.8533 H   0  0  0  0  0  0  0  0  0  0  0  0
   45.5924   33.3451   38.5858 H   0  0  0  0  0  0  0  0  0  0  0  0
   48.1874   34.2660   37.6234 H   0  0  0  0  0  0  0  0  0  0  0  0
   47.6215   32.7623   36.8203 H   0  0  0  0  0  0  0  0  0  0  0  0
   46.5811   34.2266   36.8203 H   0  0  0  0  0  0  0  0  0  0  0  0
  1 11  1  0
  2  1  2  0
  3  2  1  0
  4  5  1  0
  4  3  2  0
  5  6  2  0
  6  1  1  0
  7  8  2  0
  9  8  1  0
 10  9  2  0
 11 10  1  0
 11 12  2  0
 12  7  1  0
 13  5  1  0
 14 13  1  0
  2 15  1  0
  3 16  1  0
  4 17  1  0
  7 18  1  0
  8 19  1  0
  9 20  1  0
 13 21  1  0
 13 22  1  0
 14 23  1  0
 14 24  1  0
 14 25  1  0
M  ISO  8  15  14  16  14  17  14  18  14  19  14  20  14  21   8  22   8
M  ISO  3  23   8  24   8  25   8
M  END
>  <minimizedAffinity>  (1) 
-4.84981394

>  <minimizedRMSD>  (1) 
0.175917402

$$$$
