
     RDKit          3D

 22 23  0  0  0  0  0  0  0  0999 V2000
   46.8340   34.7330   42.0830 C   0  0  0  0  0  0  0  0  0  0  0  0
   48.0230   35.4170   41.9230 C   0  0  0  0  0  0  0  0  0  0  0  0
   48.7870   35.4040   40.7740 C   0  0  0  0  0  0  0  0  0  0  0  0
   48.2650   34.6300   39.7450 C   0  0  0  0  0  0  0  0  0  0  0  0
   47.0720   33.9380   39.8900 C   0  0  0  0  0  0  0  0  0  0  0  0
   46.3620   33.9940   41.0600 N   0  0  0  0  0  0  0  0  0  0  0  0
   45.6220   33.9390   45.4570 C   0  0  0  0  0  0  0  0  0  0  0  0
   44.7040   34.9840   45.7010 C   0  0  0  0  0  0  0  0  0  0  0  0
   44.5200   35.9440   44.7000 C   0  0  0  0  0  0  0  0  0  0  0  0
   45.2350   35.8360   43.5200 N   0  0  0  0  0  0  0  0  0  0  0  0
   46.0970   34.8130   43.3440 C   0  0  0  0  0  0  0  0  0  0  0  0
   46.2840   33.8930   44.2850 N   0  0  0  0  0  0  0  0  0  0  0  0
   46.4810   33.0990   38.8110 C   0  0  0  0  0  0  0  0  0  0  0  0
   48.3869   36.0146   42.7718 H   0  0  0  0  0  0  0  0  0  0  0  0
   49.7313   35.9604   40.6805 H   0  0  0  0  0  0  0  0  0  0  0  0
   48.8112   34.5645   38.7924 H   0  0  0  0  0  0  0  0  0  0  0  0
   45.7955   33.1663   46.2205 H   0  0  0  0  0  0  0  0  0  0  0  0
   44.1502   35.0415   46.6497 H   0  0  0  0  0  0  0  0  0  0  0  0
   43.8151   36.7751   44.8492 H   0  0  0  0  0  0  0  0  0  0  0  0
   45.9027   32.2781   39.2601 H   0  0  0  0  0  0  0  0  0  0  0  0
   45.8176   33.7168   38.1879 H   0  0  0  0  0  0  0  0  0  0  0  0
   47.2861   32.6824   38.1879 H   0  0  0  0  0  0  0  0  0  0  0  0
  1 11  1  0
  2  1  2  0
  3  2  1  0
  4  5  1  0
  4  3  2  0
  5  6  2  0
  6  1  1  0
  7  8  2  0
  9  8  1  0
 10  9  2  0
 11 10  1  0
 11 12  2  0
 12  7  1  0
 13  5  1  0
  2 14  1  0
  3 15  1  0
  4 16  1  0
  7 17  1  0
  8 18  1  0
  9 19  1  0
 13 20  1  0
 13 21  1  0
 13 22  1  0
M  ISO  8  14  14  15  14  16  14  17  14  18  14  19  14  20   8  21   8
M  ISO  1  22   8
M  END
>  <minimizedAffinity>  (1) 
-4.82374573

>  <minimizedRMSD>  (1) 
0.0200321935

$$$$
