
     RDKit          3D

 20 21  0  0  0  0  0  0  0  0999 V2000
   46.8320   34.7260   42.0840 C   0  0  0  0  0  0  0  0  0  0  0  0
   48.0170   35.4160   41.9240 C   0  0  0  0  0  0  0  0  0  0  0  0
   48.7870   35.4100   40.7810 C   0  0  0  0  0  0  0  0  0  0  0  0
   48.2550   34.6160   39.7510 C   0  0  0  0  0  0  0  0  0  0  0  0
   47.0640   33.9140   39.8910 C   0  0  0  0  0  0  0  0  0  0  0  0
   46.3740   33.9840   41.0640 N   0  0  0  0  0  0  0  0  0  0  0  0
   45.6100   33.9530   45.4540 C   0  0  0  0  0  0  0  0  0  0  0  0
   44.7030   34.9930   45.6960 C   0  0  0  0  0  0  0  0  0  0  0  0
   44.5220   35.9490   44.6960 C   0  0  0  0  0  0  0  0  0  0  0  0
   45.2350   35.8270   43.5300 N   0  0  0  0  0  0  0  0  0  0  0  0
   46.1010   34.8060   43.3400 C   0  0  0  0  0  0  0  0  0  0  0  0
   46.2800   33.8910   44.2850 N   0  0  0  0  0  0  0  0  0  0  0  0
   46.4990   32.9400   38.4990 S   0  0  0  0  0  0  0  0  0  0  0  0
   48.3739   36.0165   42.7738 H   0  0  0  0  0  0  0  0  0  0  0  0
   49.7273   35.9725   40.6844 H   0  0  0  0  0  0  0  0  0  0  0  0
   48.8015   34.5476   38.7988 H   0  0  0  0  0  0  0  0  0  0  0  0
   45.7766   33.1828   46.2215 H   0  0  0  0  0  0  0  0  0  0  0  0
   44.1505   35.0540   46.6452 H   0  0  0  0  0  0  0  0  0  0  0  0
   43.8211   36.7845   44.8396 H   0  0  0  0  0  0  0  0  0  0  0  0
   45.8510   31.8229   38.9563 H   0  0  0  0  0  0  0  0  0  0  0  0
  1 11  1  0
  2  1  2  0
  3  2  1  0
  4  5  1  0
  4  3  2  0
  5  6  2  0
  6  1  1  0
  7  8  2  0
  9  8  1  0
 10  9  2  0
 11 10  1  0
 11 12  2  0
 12  7  1  0
 13  5  1  0
  2 14  1  0
  3 15  1  0
  4 16  1  0
  7 17  1  0
  8 18  1  0
  9 19  1  0
 13 20  1  0
M  ISO  7  14  14  15  14  16  14  17  14  18  14  19  14  20  11
M  END
>  <minimizedAffinity>  (1) 
-4.80113459

>  <minimizedRMSD>  (1) 
0.0158087481

$$$$
