
     RDKit          3D

 46 50  0  0  1  0  0  0  0  0999 V2000
   46.7800   32.6670   38.8800 C   0  0  1  0  0  0  0  0  0  0  0  0
   45.5880   33.1760   38.0430 C   0  0  0  0  0  0  0  0  0  0  0  0
   45.0750   31.9150   37.3360 C   0  0  0  0  0  0  0  0  0  0  0  0
   46.1270   31.6040   36.2760 C   0  0  0  0  0  0  0  0  0  0  0  0
   47.4730   31.3920   36.8460 C   0  0  0  0  0  0  0  0  0  0  0  0
   47.8700   32.1660   38.0430 C   0  0  2  0  0  0  0  0  0  0  0  0
   48.7200   31.2440   38.8250 N   0  0  0  0  0  0  0  0  0  0  0  0
   48.4400   30.3090   39.7770 C   0  0  0  0  0  0  0  0  0  0  0  0
   49.5990   29.7480   40.1580 N   0  0  0  0  0  0  0  0  0  0  0  0
   50.6070   30.2950   39.4800 C   0  0  0  0  0  0  0  0  0  0  0  0
   51.9830   30.1360   39.4390 C   0  0  0  0  0  0  0  0  0  0  0  0
   52.7980   30.8370   38.6380 N   0  0  0  0  0  0  0  0  0  0  0  0
   52.2390   31.7520   37.8260 C   0  0  0  0  0  0  0  0  0  0  0  0
   50.9100   31.9500   37.8230 N   0  0  0  0  0  0  0  0  0  0  0  0
   50.0750   31.2440   38.6320 C   0  0  0  0  0  0  0  0  0  0  0  0
   46.8990   34.6470   41.9840 C   0  0  0  0  0  0  0  0  0  0  0  0
   47.9880   35.4510   41.7440 C   0  0  0  0  0  0  0  0  0  0  0  0
   48.7420   35.4180   40.5910 C   0  0  0  0  0  0  0  0  0  0  0  0
   48.3020   34.4740   39.6550 C   0  0  0  0  0  0  0  0  0  0  0  0
   47.1940   33.6460   39.8880 C   0  0  0  0  0  0  0  0  0  0  0  0
   46.5070   33.7440   41.0500 N   0  0  0  0  0  0  0  0  0  0  0  0
   45.5650   34.0330   45.3370 C   0  0  0  0  0  0  0  0  0  0  0  0
   44.7010   35.0960   45.5550 C   0  0  0  0  0  0  0  0  0  0  0  0
   44.5840   36.0280   44.5300 C   0  0  0  0  0  0  0  0  0  0  0  0
   45.3170   35.8450   43.3840 N   0  0  0  0  0  0  0  0  0  0  0  0
   46.1490   34.7800   43.2300 C   0  0  0  0  0  0  0  0  0  0  0  0
   46.2710   33.8910   44.1870 N   0  0  0  0  0  0  0  0  0  0  0  0
   46.4388   31.7904   39.4503 H   0  0  0  0  0  0  0  0  0  0  0  0
   44.8098   33.6068   38.6902 H   0  0  0  0  0  0  0  0  0  0  0  0
   45.8705   33.9736   37.3401 H   0  0  0  0  0  0  0  0  0  0  0  0
   44.9850   31.0815   38.0482 H   0  0  0  0  0  0  0  0  0  0  0  0
   44.0769   32.0628   36.8980 H   0  0  0  0  0  0  0  0  0  0  0  0
   46.1736   32.4464   35.5701 H   0  0  0  0  0  0  0  0  0  0  0  0
   45.8283   30.6692   35.7791 H   0  0  0  0  0  0  0  0  0  0  0  0
   47.5482   30.3268   37.1101 H   0  0  0  0  0  0  0  0  0  0  0  0
   48.1542   31.7497   36.0599 H   0  0  0  0  0  0  0  0  0  0  0  0
   48.3714   33.0862   37.7085 H   0  0  0  0  0  0  0  0  0  0  0  0
   47.4414   30.0585   40.1644 H   0  0  0  0  0  0  0  0  0  0  0  0
   52.4352   29.3872   40.1059 H   0  0  0  0  0  0  0  0  0  0  0  0
   52.8780   32.3458   37.1558 H   0  0  0  0  0  0  0  0  0  0  0  0
   48.2771   36.1693   42.5253 H   0  0  0  0  0  0  0  0  0  0  0  0
   49.6095   36.0728   40.4215 H   0  0  0  0  0  0  0  0  0  0  0  0
   48.8447   34.3783   38.7030 H   0  0  0  0  0  0  0  0  0  0  0  0
   45.6823   33.2762   46.1266 H   0  0  0  0  0  0  0  0  0  0  0  0
   44.1358   35.1967   46.4933 H   0  0  0  0  0  0  0  0  0  0  0  0
   43.9164   36.8959   44.6354 H   0  0  0  0  0  0  0  0  0  0  0  0
  1 20  1  0
  2  1  1  0
  3  2  1  0
  4  5  1  0
  4  3  1  0
  5  6  1  0
  6  7  1  0
  6  1  1  0
  7  8  1  0
  8  9  2  0
 10  9  1  0
 11 10  2  0
 12 11  1  0
 13 12  2  0
 14 13  1  0
 14 15  2  0
 15  7  1  0
 15 10  1  0
 16 26  1  0
 17 16  2  0
 18 17  1  0
 19 20  1  0
 19 18  2  0
 20 21  2  0
 21 16  1  0
 22 23  2  0
 24 23  1  0
 25 24  2  0
 26 25  1  0
 26 27  2  0
 27 22  1  0
  1 28  1  1
  2 29  1  0
  2 30  1  0
  3 31  1  0
  3 32  1  0
  4 33  1  0
  4 34  1  0
  5 35  1  0
  5 36  1  0
  6 37  1  6
  8 38  1  0
 11 39  1  0
 13 40  1  0
 17 41  1  0
 18 42  1  0
 19 43  1  0
 22 44  1  0
 23 45  1  0
 24 46  1  0
M  ISO  8  28  13  29  13  30  13  31  13  32  13  33  13  34  13  35  13
M  ISO  8  36  13  37  13  38  14  39  14  40  14  41  14  42  14  43  14
M  ISO  3  44  14  45  14  46  14
M  END
>  <minimizedAffinity>  (1) 
-5.84445238

>  <minimizedRMSD>  (1) 
1.93497396

$$$$
