
     RDKit          3D

 45 48  0  0  1  0  0  0  0  0999 V2000
   46.1570   33.6790   39.8470 C   0  0  1  0  0  0  0  0  0  0  0  0
   45.2650   32.5280   40.1750 C   0  0  0  0  0  0  0  0  0  0  0  0
   44.3490   32.7880   41.2390 C   0  0  0  0  0  0  0  0  0  0  0  0
   44.7650   33.6770   42.3100 C   0  0  0  0  0  0  0  0  0  0  0  0
   45.8560   34.6340   42.0850 C   0  0  0  0  0  0  0  0  0  0  0  0
   46.8530   34.2670   41.0020 C   0  0  1  0  0  0  0  0  0  0  0  0
   47.3960   32.4560   36.5920 C   0  0  0  0  0  0  0  0  0  0  0  0
   48.5040   33.2570   36.4620 C   0  0  0  0  0  0  0  0  0  0  0  0
   48.8920   34.2160   37.3720 C   0  0  0  0  0  0  0  0  0  0  0  0
   48.0610   34.3240   38.4720 C   0  0  0  0  0  0  0  0  0  0  0  0
   46.9390   33.5240   38.6340 C   0  0  0  0  0  0  0  0  0  0  0  0
   46.6350   32.6070   37.6810 N   0  0  0  0  0  0  0  0  0  0  0  0
   47.1700   30.7950   33.3290 C   0  0  0  0  0  0  0  0  0  0  0  0
   46.3480   29.6870   33.6110 C   0  0  0  0  0  0  0  0  0  0  0  0
   45.8830   29.5330   34.9370 C   0  0  0  0  0  0  0  0  0  0  0  0
   46.2530   30.4670   35.8740 N   0  0  0  0  0  0  0  0  0  0  0  0
   47.0360   31.4990   35.5470 C   0  0  0  0  0  0  0  0  0  0  0  0
   47.4960   31.6740   34.2980 N   0  0  0  0  0  0  0  0  0  0  0  0
   49.2370   36.2900   41.6320 Cl  0  0  0  0  0  0  0  0  0  0  0  0
   49.2430   34.5750   41.8550 C   0  0  0  0  0  0  0  0  0  0  0  0
   48.1350   33.8350   41.5060 C   0  0  0  0  0  0  0  0  0  0  0  0
   48.4720   32.4740   41.7300 C   0  0  0  0  0  0  0  0  0  0  0  0
   49.6210   31.9090   42.1940 C   0  0  0  0  0  0  0  0  0  0  0  0
   50.6360   32.7740   42.5020 C   0  0  0  0  0  0  0  0  0  0  0  0
   50.4510   34.1270   42.3330 C   0  0  0  0  0  0  0  0  0  0  0  0
   45.4612   34.4822   39.5628 H   0  0  0  0  0  0  0  0  0  0  0  0
   44.6864   32.2715   39.2753 H   0  0  0  0  0  0  0  0  0  0  0  0
   45.9156   31.7062   40.5088 H   0  0  0  0  0  0  0  0  0  0  0  0
   43.4439   33.2225   40.7894 H   0  0  0  0  0  0  0  0  0  0  0  0
   44.2247   31.8124   41.7318 H   0  0  0  0  0  0  0  0  0  0  0  0
   43.8806   34.2647   42.5970 H   0  0  0  0  0  0  0  0  0  0  0  0
   45.1804   32.9907   43.0626 H   0  0  0  0  0  0  0  0  0  0  0  0
   45.4051   35.5999   41.8134 H   0  0  0  0  0  0  0  0  0  0  0  0
   46.4313   34.6520   43.0224 H   0  0  0  0  0  0  0  0  0  0  0  0
   47.3069   35.1232   40.4815 H   0  0  0  0  0  0  0  0  0  0  0  0
   49.1274   33.1231   35.5656 H   0  0  0  0  0  0  0  0  0  0  0  0
   49.7861   34.8420   37.2352 H   0  0  0  0  0  0  0  0  0  0  0  0
   48.2976   35.0698   39.2452 H   0  0  0  0  0  0  0  0  0  0  0  0
   47.5500   30.9449   32.3077 H   0  0  0  0  0  0  0  0  0  0  0  0
   46.0769   28.9657   32.8260 H   0  0  0  0  0  0  0  0  0  0  0  0
   45.2394   28.6845   35.2123 H   0  0  0  0  0  0  0  0  0  0  0  0
   47.6729   31.7575   41.4889 H   0  0  0  0  0  0  0  0  0  0  0  0
   49.7271   30.8208   42.3142 H   0  0  0  0  0  0  0  0  0  0  0  0
   51.5940   32.3898   42.8824 H   0  0  0  0  0  0  0  0  0  0  0  0
   51.2553   34.8370   42.5761 H   0  0  0  0  0  0  0  0  0  0  0  0
  1  2  1  0
  1  6  1  0
  2  3  1  0
  3  4  1  0
  5  4  1  0
  6 21  1  0
  6  5  1  0
  7 12  1  0
  8  7  2  0
  8  9  1  0
  9 10  2  0
 10 11  1  0
 11  1  1  0
 12 11  2  0
 13 14  2  0
 13 18  1  0
 14 15  1  0
 15 16  2  0
 17 16  1  0
 17  7  1  0
 18 17  2  0
 19 20  1  0
 20 25  2  0
 21 22  2  0
 21 20  1  0
 22 23  1  0
 23 24  2  0
 25 24  1  0
  1 26  1  6
  2 27  1  0
  2 28  1  0
  3 29  1  0
  3 30  1  0
  4 31  1  0
  4 32  1  0
  5 33  1  0
  5 34  1  0
  6 35  1  6
  8 36  1  0
  9 37  1  0
 10 38  1  0
 13 39  1  0
 14 40  1  0
 15 41  1  0
 22 42  1  0
 23 43  1  0
 24 44  1  0
 25 45  1  0
M  ISO  8  26  13  27  13  28  13  29  13  30  13  31  13  32  13  33  13
M  ISO  8  34  13  35  13  36  14  37  14  38  14  39  14  40  14  41  14
M  ISO  4  42  14  43  14  44  14  45  14
M  END
>  <minimizedAffinity>  (1) 
-5.61467457

>  <minimizedRMSD>  (1) 
7.13819504

$$$$
