
     RDKit          3D

 42 45  0  0  1  0  0  0  0  0999 V2000
   47.4070   33.0720   38.8960 C   0  0  1  0  0  0  0  0  0  0  0  0
   47.6620   33.7260   37.5510 C   0  0  0  0  0  0  0  0  0  0  0  0
   46.9550   32.9240   36.5120 C   0  0  0  0  0  0  0  0  0  0  0  0
   47.4070   31.5090   36.5100 C   0  0  0  0  0  0  0  0  0  0  0  0
   47.4290   30.8550   37.8370 C   0  0  0  0  0  0  0  0  0  0  0  0
   47.9570   31.7140   38.9640 C   0  0  1  0  0  0  0  0  0  0  0  0
   47.3010   34.5220   42.2740 C   0  0  0  0  0  0  0  0  0  0  0  0
   48.2080   35.5400   42.1350 C   0  0  0  0  0  0  0  0  0  0  0  0
   48.9020   35.8200   40.9710 C   0  0  0  0  0  0  0  0  0  0  0  0
   48.6050   34.9600   39.9070 C   0  0  0  0  0  0  0  0  0  0  0  0
   47.6850   33.9240   40.0410 C   0  0  0  0  0  0  0  0  0  0  0  0
   47.0540   33.7300   41.2260 N   0  0  0  0  0  0  0  0  0  0  0  0
   46.4480   33.1380   45.5660 C   0  0  0  0  0  0  0  0  0  0  0  0
   45.3530   33.9250   45.9700 C   0  0  0  0  0  0  0  0  0  0  0  0
   44.9290   34.9330   45.0770 C   0  0  0  0  0  0  0  0  0  0  0  0
   45.5920   35.0930   43.8840 N   0  0  0  0  0  0  0  0  0  0  0  0
   46.6300   34.3090   43.5570 C   0  0  0  0  0  0  0  0  0  0  0  0
   47.0560   33.3450   44.3810 N   0  0  0  0  0  0  0  0  0  0  0  0
   49.4460   31.6060   39.0160 C   0  0  0  0  0  0  0  0  0  0  0  0
   50.2610   31.5260   40.1150 C   0  0  0  0  0  0  0  0  0  0  0  0
   51.6090   31.4450   39.9110 C   0  0  0  0  0  0  0  0  0  0  0  0
   52.1820   31.4390   38.6510 C   0  0  0  0  0  0  0  0  0  0  0  0
   50.7460   31.5580   37.5990 S   0  0  0  0  0  0  0  0  0  0  0  0
   46.3181   32.9368   38.9742 H   0  0  0  0  0  0  0  0  0  0  0  0
   47.2749   34.7556   37.5563 H   0  0  0  0  0  0  0  0  0  0  0  0
   48.7410   33.7618   37.3400 H   0  0  0  0  0  0  0  0  0  0  0  0
   45.8740   32.9529   36.7135 H   0  0  0  0  0  0  0  0  0  0  0  0
   47.1837   33.3590   35.5279 H   0  0  0  0  0  0  0  0  0  0  0  0
   46.7303   30.9361   35.8590 H   0  0  0  0  0  0  0  0  0  0  0  0
   48.4488   31.5208   36.1571 H   0  0  0  0  0  0  0  0  0  0  0  0
   46.4002   30.5574   38.0879 H   0  0  0  0  0  0  0  0  0  0  0  0
   48.1205   30.0041   37.7490 H   0  0  0  0  0  0  0  0  0  0  0  0
   47.6057   31.3460   39.9393 H   0  0  0  0  0  0  0  0  0  0  0  0
   48.3976   36.1792   43.0099 H   0  0  0  0  0  0  0  0  0  0  0  0
   49.6238   36.6460   40.8889 H   0  0  0  0  0  0  0  0  0  0  0  0
   49.1111   35.1065   38.9414 H   0  0  0  0  0  0  0  0  0  0  0  0
   46.8139   32.3401   46.2290 H   0  0  0  0  0  0  0  0  0  0  0  0
   44.8516   33.7624   46.9355 H   0  0  0  0  0  0  0  0  0  0  0  0
   44.0786   35.5821   45.3330 H   0  0  0  0  0  0  0  0  0  0  0  0
   49.8416   31.5270   41.1319 H   0  0  0  0  0  0  0  0  0  0  0  0
   52.2696   31.3816   40.7882 H   0  0  0  0  0  0  0  0  0  0  0  0
   53.2441   31.3771   38.3716 H   0  0  0  0  0  0  0  0  0  0  0  0
  1  6  1  0
  1 11  1  0
  2  1  1  0
  3  2  1  0
  4  3  1  0
  4  5  1  0
  5  6  1  0
  6 19  1  0
  7 17  1  0
  8  7  2  0
  9  8  1  0
 10 11  1  0
 10  9  2  0
 11 12  2  0
 12  7  1  0
 13 14  2  0
 15 14  1  0
 16 15  2  0
 17 16  1  0
 17 18  2  0
 18 13  1  0
 19 20  2  0
 21 20  1  0
 22 21  2  0
 23 22  1  0
 23 19  1  0
  1 24  1  6
  2 25  1  0
  2 26  1  0
  3 27  1  0
  3 28  1  0
  4 29  1  0
  4 30  1  0
  5 31  1  0
  5 32  1  0
  6 33  1  1
  8 34  1  0
  9 35  1  0
 10 36  1  0
 13 37  1  0
 14 38  1  0
 15 39  1  0
 20 40  1  0
 21 41  1  0
 22 42  1  0
M  ISO  8  24  13  25  13  26  13  27  13  28  13  29  13  30  13  31  13
M  ISO  8  32  13  33  13  34  14  35  14  36  14  37  14  38  14  39  14
M  ISO  3  40  14  41  14  42  14
M  END
>  <minimizedAffinity>  (1) 
-5.46772146

>  <minimizedRMSD>  (1) 
3.54388332

$$$$
