
     RDKit          3D

 41 43  0  0  1  0  0  0  0  0999 V2000
   46.6530   33.0480   38.7990 C   0  0  1  0  0  0  0  0  0  0  0  0
   45.1370   33.1570   38.6170 C   0  0  0  0  0  0  0  0  0  0  0  0
   44.7950   31.9460   37.7310 C   0  0  0  0  0  0  0  0  0  0  0  0
   45.2980   32.3570   36.3540 C   0  0  0  0  0  0  0  0  0  0  0  0
   46.7400   32.6520   36.3270 C   0  0  0  0  0  0  0  0  0  0  0  0
   47.4070   33.1730   37.5590 C   0  0  2  0  0  0  0  0  0  0  0  0
   46.9070   34.6920   42.0840 C   0  0  0  0  0  0  0  0  0  0  0  0
   48.0530   35.4390   41.9210 C   0  0  0  0  0  0  0  0  0  0  0  0
   48.7980   35.4740   40.7650 C   0  0  0  0  0  0  0  0  0  0  0  0
   48.2880   34.6690   39.7450 C   0  0  0  0  0  0  0  0  0  0  0  0
   47.1340   33.9020   39.8940 C   0  0  0  0  0  0  0  0  0  0  0  0
   46.4500   33.9210   41.0650 N   0  0  0  0  0  0  0  0  0  0  0  0
   45.6250   33.9680   45.4330 C   0  0  0  0  0  0  0  0  0  0  0  0
   44.7070   34.9770   45.6730 C   0  0  0  0  0  0  0  0  0  0  0  0
   44.5370   35.9130   44.6570 C   0  0  0  0  0  0  0  0  0  0  0  0
   45.2720   35.7790   43.5130 N   0  0  0  0  0  0  0  0  0  0  0  0
   46.1610   34.7640   43.3360 C   0  0  0  0  0  0  0  0  0  0  0  0
   46.3390   33.8710   44.2760 N   0  0  0  0  0  0  0  0  0  0  0  0
   48.6970   32.3240   37.6130 C   0  0  0  0  0  0  0  0  0  0  0  0
   49.1320   32.0450   36.2120 C   0  0  0  0  0  0  0  0  0  0  0  0
   46.8567   32.0140   39.1143 H   0  0  0  0  0  0  0  0  0  0  0  0
   44.6190   33.0948   39.5854 H   0  0  0  0  0  0  0  0  0  0  0  0
   44.8259   34.1144   38.1736 H   0  0  0  0  0  0  0  0  0  0  0  0
   45.3125   31.0420   38.0845 H   0  0  0  0  0  0  0  0  0  0  0  0
   43.7229   31.6997   37.7387 H   0  0  0  0  0  0  0  0  0  0  0  0
   45.0957   31.5372   35.6490 H   0  0  0  0  0  0  0  0  0  0  0  0
   44.7703   33.2812   36.0759 H   0  0  0  0  0  0  0  0  0  0  0  0
   47.2529   31.7174   36.0562 H   0  0  0  0  0  0  0  0  0  0  0  0
   46.8198   33.4879   35.6164 H   0  0  0  0  0  0  0  0  0  0  0  0
   47.5498   34.2615   37.4904 H   0  0  0  0  0  0  0  0  0  0  0  0
   48.3949   36.0476   42.7712 H   0  0  0  0  0  0  0  0  0  0  0  0
   49.7098   36.0794   40.6548 H   0  0  0  0  0  0  0  0  0  0  0  0
   48.8197   34.6387   38.7825 H   0  0  0  0  0  0  0  0  0  0  0  0
   45.7854   33.2091   46.2130 H   0  0  0  0  0  0  0  0  0  0  0  0
   44.1429   35.0354   46.6155 H   0  0  0  0  0  0  0  0  0  0  0  0
   43.8254   36.7438   44.7727 H   0  0  0  0  0  0  0  0  0  0  0  0
   49.4851   32.8779   38.1441 H   0  0  0  0  0  0  0  0  0  0  0  0
   48.5086   31.3809   38.1469 H   0  0  0  0  0  0  0  0  0  0  0  0
   50.0578   31.4512   36.2269 H   0  0  0  0  0  0  0  0  0  0  0  0
   48.3444   31.4831   35.6885 H   0  0  0  0  0  0  0  0  0  0  0  0
   49.3142   32.9952   35.6885 H   0  0  0  0  0  0  0  0  0  0  0  0
  1 11  1  0
  2  1  1  0
  3  2  1  0
  4  3  1  0
  5  4  1  0
  5  6  1  0
  6 19  1  0
  6  1  1  0
  7 17  1  0
  8  7  2  0
  9  8  1  0
 10 11  1  0
 10  9  2  0
 11 12  2  0
 12  7  1  0
 13 14  2  0
 15 14  1  0
 16 15  2  0
 17 16  1  0
 17 18  2  0
 18 13  1  0
 20 19  1  0
  1 21  1  1
  2 22  1  0
  2 23  1  0
  3 24  1  0
  3 25  1  0
  4 26  1  0
  4 27  1  0
  5 28  1  0
  5 29  1  0
  6 30  1  6
  8 31  1  0
  9 32  1  0
 10 33  1  0
 13 34  1  0
 14 35  1  0
 15 36  1  0
 19 37  1  0
 19 38  1  0
 20 39  1  0
 20 40  1  0
 20 41  1  0
M  ISO  8  21  13  22  13  23  13  24  13  25  13  26  13  27  13  28  13
M  ISO  8  29  13  30  13  31  14  32  14  33  14  34  14  35  14  36  14
M  ISO  5  37   8  38   8  39   8  40   8  41   8
M  END
>  <minimizedAffinity>  (1) 
-5.40128136

>  <minimizedRMSD>  (1) 
0.15129824

$$$$
