
     RDKit          3D

 36 38  0  0  1  0  0  0  0  0999 V2000
   46.9100   34.7110   42.0820 C   0  0  0  0  0  0  0  0  0  0  0  0
   48.0560   35.4530   41.9140 C   0  0  0  0  0  0  0  0  0  0  0  0
   48.8050   35.4820   40.7610 C   0  0  0  0  0  0  0  0  0  0  0  0
   48.2990   34.6720   39.7350 C   0  0  0  0  0  0  0  0  0  0  0  0
   47.1380   33.9130   39.8910 C   0  0  0  0  0  0  0  0  0  0  0  0
   46.4580   33.9410   41.0610 N   0  0  0  0  0  0  0  0  0  0  0  0
   46.6420   33.0660   38.7980 C   0  0  1  0  0  0  0  0  0  0  0  0
   45.1160   33.1960   38.6090 C   0  0  0  0  0  0  0  0  0  0  0  0
   44.7640   31.9890   37.7240 C   0  0  0  0  0  0  0  0  0  0  0  0
   45.3210   32.3200   36.3460 C   0  0  0  0  0  0  0  0  0  0  0  0
   46.7710   32.6010   36.3490 C   0  0  0  0  0  0  0  0  0  0  0  0
   47.3760   33.2270   37.5420 C   0  0  2  0  0  0  0  0  0  0  0  0
   49.0110   32.4050   37.7790 S   0  0  0  0  0  0  0  0  0  0  0  0
   45.6440   33.9460   45.4270 C   0  0  0  0  0  0  0  0  0  0  0  0
   44.7180   34.9460   45.6830 C   0  0  0  0  0  0  0  0  0  0  0  0
   44.5420   35.8900   44.6760 C   0  0  0  0  0  0  0  0  0  0  0  0
   45.2750   35.7830   43.5150 N   0  0  0  0  0  0  0  0  0  0  0  0
   46.1680   34.7720   43.3320 C   0  0  0  0  0  0  0  0  0  0  0  0
   46.3430   33.8760   44.2730 N   0  0  0  0  0  0  0  0  0  0  0  0
   48.3972   36.0661   42.7612 H   0  0  0  0  0  0  0  0  0  0  0  0
   49.7181   36.0859   40.6537 H   0  0  0  0  0  0  0  0  0  0  0  0
   48.8347   34.6332   38.7750 H   0  0  0  0  0  0  0  0  0  0  0  0
   46.8429   32.0321   39.1153 H   0  0  0  0  0  0  0  0  0  0  0  0
   44.5934   33.1416   39.5754 H   0  0  0  0  0  0  0  0  0  0  0  0
   44.8181   34.1569   38.1641 H   0  0  0  0  0  0  0  0  0  0  0  0
   45.2307   31.0741   38.1179 H   0  0  0  0  0  0  0  0  0  0  0  0
   43.6795   31.8073   37.6934 H   0  0  0  0  0  0  0  0  0  0  0  0
   44.7953   33.2065   35.9616 H   0  0  0  0  0  0  0  0  0  0  0  0
   45.1641   31.4347   35.7122 H   0  0  0  0  0  0  0  0  0  0  0  0
   47.2857   31.6416   36.1923 H   0  0  0  0  0  0  0  0  0  0  0  0
   46.8947   33.3591   35.5616 H   0  0  0  0  0  0  0  0  0  0  0  0
   47.4037   34.3088   37.3445 H   0  0  0  0  0  0  0  0  0  0  0  0
   49.2674   32.2761   39.1186 H   0  0  0  0  0  0  0  0  0  0  0  0
   45.8165   33.1780   46.1953 H   0  0  0  0  0  0  0  0  0  0  0  0
   44.1554   34.9904   46.6272 H   0  0  0  0  0  0  0  0  0  0  0  0
   43.8245   36.7136   44.8060 H   0  0  0  0  0  0  0  0  0  0  0  0
  1 18  1  0
  2  1  2  0
  3  2  1  0
  4  5  1  0
  4  3  2  0
  5  6  2  0
  6  1  1  0
  7  5  1  0
  8  7  1  0
  9  8  1  0
 10 11  1  0
 10  9  1  0
 11 12  1  0
 12 13  1  0
 12  7  1  0
 14 15  2  0
 16 15  1  0
 17 16  2  0
 18 17  1  0
 18 19  2  0
 19 14  1  0
  2 20  1  0
  3 21  1  0
  4 22  1  0
  7 23  1  1
  8 24  1  0
  8 25  1  0
  9 26  1  0
  9 27  1  0
 10 28  1  0
 10 29  1  0
 11 30  1  0
 11 31  1  0
 12 32  1  6
 13 33  1  0
 14 34  1  0
 15 35  1  0
 16 36  1  0
M  ISO  8  20  14  21  14  22  14  23  13  24  13  25  13  26  13  27  13
M  ISO  8  28  13  29  13  30  13  31  13  32  13  33  11  34  14  35  14
M  ISO  1  36  14
M  END
>  <minimizedAffinity>  (1) 
-5.51968288

>  <minimizedRMSD>  (1) 
0.0491601937

$$$$
