
     RDKit          3D

 26 27  0  0  0  0  0  0  0  0999 V2000
   44.5100   36.0070   44.6070 C   0  0  0  0  0  0  0  0  0  0  0  0
   45.2530   35.7810   43.4440 C   0  0  0  0  0  0  0  0  0  0  0  0
   46.1090   34.6700   43.4100 C   0  0  0  0  0  0  0  0  0  0  0  0
   46.1650   33.8700   44.5230 N   0  0  0  0  0  0  0  0  0  0  0  0
   45.4320   34.1240   45.6220 C   0  0  0  0  0  0  0  0  0  0  0  0
   44.6050   35.1830   45.6750 N   0  0  0  0  0  0  0  0  0  0  0  0
   46.9640   34.2930   42.2530 C   0  0  0  0  0  0  0  0  0  0  0  0
   46.1480   34.1790   40.9770 C   0  0  0  0  0  0  0  0  0  0  0  0
   47.1050   33.6070   39.9360 C   0  0  0  0  0  0  0  0  0  0  0  0
   48.1080   34.7000   39.6280 C   0  0  0  0  0  0  0  0  0  0  0  0
   48.8230   35.2090   40.8290 C   0  0  0  0  0  0  0  0  0  0  0  0
   48.0300   35.3380   42.0710 C   0  0  0  0  0  0  0  0  0  0  0  0
   43.8339   36.8734   44.6540 H   0  0  0  0  0  0  0  0  0  0  0  0
   45.1686   36.4559   42.5795 H   0  0  0  0  0  0  0  0  0  0  0  0
   45.5104   33.4546   46.4913 H   0  0  0  0  0  0  0  0  0  0  0  0
   47.4170   33.3120   42.4587 H   0  0  0  0  0  0  0  0  0  0  0  0
   45.2925   33.5037   41.1259 H   0  0  0  0  0  0  0  0  0  0  0  0
   45.7367   35.1505   40.6655 H   0  0  0  0  0  0  0  0  0  0  0  0
   47.6191   32.7216   40.3382 H   0  0  0  0  0  0  0  0  0  0  0  0
   46.5663   33.2942   39.0294 H   0  0  0  0  0  0  0  0  0  0  0  0
   48.8524   34.3002   38.9237 H   0  0  0  0  0  0  0  0  0  0  0  0
   47.5442   35.5452   39.2064 H   0  0  0  0  0  0  0  0  0  0  0  0
   49.6569   34.5222   41.0361 H   0  0  0  0  0  0  0  0  0  0  0  0
   49.1248   36.2350   40.5717 H   0  0  0  0  0  0  0  0  0  0  0  0
   48.7201   35.2745   42.9252 H   0  0  0  0  0  0  0  0  0  0  0  0
   47.5073   36.3036   42.0044 H   0  0  0  0  0  0  0  0  0  0  0  0
  1  6  2  0
  2  1  1  0
  3  2  2  0
  3  4  1  0
  4  5  2  0
  5  6  1  0
  7  3  1  0
  8  7  1  0
  9  8  1  0
 10  9  1  0
 10 11  1  0
 11 12  1  0
 12  7  1  0
  1 13  1  0
  2 14  1  0
  5 15  1  0
  7 16  1  0
  8 17  1  0
  8 18  1  0
  9 19  1  0
  9 20  1  0
 10 21  1  0
 10 22  1  0
 11 23  1  0
 11 24  1  0
 12 25  1  0
 12 26  1  0
M  ISO  8  13  14  14  14  15  14  16  13  17  13  18  13  19  13  20  13
M  ISO  6  21  13  22  13  23  13  24  13  25  13  26  13
M  END
>  <minimizedAffinity>  (1) 
-4.75936985

>  <minimizedRMSD>  (1) 
1.13371754

$$$$
