
     RDKit          3D

 39 41  0  0  1  0  0  0  0  0999 V2000
   46.9090   33.7300   39.2620 C   0  0  0  0  0  0  0  0  0  0  0  0
   48.1140   34.3850   39.2470 C   0  0  0  0  0  0  0  0  0  0  0  0
   48.6390   35.0710   40.3260 C   0  0  0  0  0  0  0  0  0  0  0  0
   47.8200   35.0430   41.4650 C   0  0  0  0  0  0  0  0  0  0  0  0
   46.5830   34.3750   41.4860 C   0  0  0  0  0  0  0  0  0  0  0  0
   46.1390   33.7250   40.3840 N   0  0  0  0  0  0  0  0  0  0  0  0
   45.7760   34.3670   42.7020 C   0  0  1  0  0  0  0  0  0  0  0  0
   46.6290   33.9500   43.9440 C   0  0  0  0  0  0  0  0  0  0  0  0
   45.5410   33.6010   44.9890 C   0  0  0  0  0  0  0  0  0  0  0  0
   45.0040   34.9650   45.4190 C   0  0  0  0  0  0  0  0  0  0  0  0
   44.3930   35.7030   44.2930 C   0  0  0  0  0  0  0  0  0  0  0  0
   45.0160   35.5730   42.9590 C   0  0  2  0  0  0  0  0  0  0  0  0
   43.6510   35.6170   41.7370 S   0  0  0  0  0  0  0  0  0  0  0  0
   44.8780   31.8330   36.8800 C   0  0  0  0  0  0  0  0  0  0  0  0
   45.6730   31.6960   35.7640 C   0  0  0  0  0  0  0  0  0  0  0  0
   46.9250   32.2720   35.8520 C   0  0  0  0  0  0  0  0  0  0  0  0
   47.2950   32.9270   37.0060 N   0  0  0  0  0  0  0  0  0  0  0  0
   46.4420   33.0200   38.0760 C   0  0  0  0  0  0  0  0  0  0  0  0
   45.2640   32.4820   38.0030 N   0  0  0  0  0  0  0  0  0  0  0  0
   47.9440   32.2470   34.7700 C   0  0  0  0  0  0  0  0  0  0  0  0
   47.3610   32.4660   33.5460 F   0  0  0  0  0  0  0  0  0  0  0  0
   48.5460   31.0100   34.7280 F   0  0  0  0  0  0  0  0  0  0  0  0
   48.8940   33.2240   35.0020 F   0  0  0  0  0  0  0  0  0  0  0  0
   48.7002   34.3629   38.3165 H   0  0  0  0  0  0  0  0  0  0  0  0
   49.6082   35.5903   40.2947 H   0  0  0  0  0  0  0  0  0  0  0  0
   48.1578   35.5622   42.3740 H   0  0  0  0  0  0  0  0  0  0  0  0
   45.0076   33.6020   42.5163 H   0  0  0  0  0  0  0  0  0  0  0  0
   47.2600   33.0775   43.7192 H   0  0  0  0  0  0  0  0  0  0  0  0
   47.3286   34.7296   44.2799 H   0  0  0  0  0  0  0  0  0  0  0  0
   44.7451   32.9901   44.5380 H   0  0  0  0  0  0  0  0  0  0  0  0
   45.9314   33.0109   45.8312 H   0  0  0  0  0  0  0  0  0  0  0  0
   44.2436   34.8166   46.1999 H   0  0  0  0  0  0  0  0  0  0  0  0
   45.8505   35.5593   45.7935 H   0  0  0  0  0  0  0  0  0  0  0  0
   43.3521   35.3590   44.2029 H   0  0  0  0  0  0  0  0  0  0  0  0
   44.5244   36.7631   44.5556 H   0  0  0  0  0  0  0  0  0  0  0  0
   45.7462   36.3930   42.8926 H   0  0  0  0  0  0  0  0  0  0  0  0
   42.4500   35.6557   42.3951 H   0  0  0  0  0  0  0  0  0  0  0  0
   43.8716   31.3895   36.8573 H   0  0  0  0  0  0  0  0  0  0  0  0
   45.3337   31.1637   34.8632 H   0  0  0  0  0  0  0  0  0  0  0  0
  1  6  1  0
  2  1  2  0
  2  3  1  0
  3  4  2  0
  4  5  1  0
  5  7  1  0
  6  5  2  0
  7 12  1  0
  7  8  1  0
  8  9  1  0
  9 10  1  0
 11 10  1  0
 12 11  1  0
 13 12  1  0
 14 19  2  0
 15 16  2  0
 15 14  1  0
 16 17  1  0
 17 18  2  0
 18  1  1  0
 19 18  1  0
 20 23  1  0
 20 16  1  0
 21 20  1  0
 22 20  1  0
  2 24  1  0
  3 25  1  0
  4 26  1  0
  7 27  1  6
  8 28  1  0
  8 29  1  0
  9 30  1  0
  9 31  1  0
 10 32  1  0
 10 33  1  0
 11 34  1  0
 11 35  1  0
 12 36  1  6
 13 37  1  0
 14 38  1  0
 15 39  1  0
M  ISO  8  24  14  25  14  26  14  27  13  28  13  29  13  30  13  31  13
M  ISO  8  32  13  33  13  34  13  35  13  36  13  37  11  38  14  39  14
M  END
>  <minimizedAffinity>  (1) 
-5.87243843

>  <minimizedRMSD>  (1) 
7.8949399

$$$$
