
     RDKit          3D

 39 41  0  0  1  0  0  0  0  0999 V2000
   47.4650   34.1320   42.0660 C   0  0  0  0  0  0  0  0  0  0  0  0
   48.3260   35.1760   41.8790 C   0  0  0  0  0  0  0  0  0  0  0  0
   48.8160   35.5760   40.6490 C   0  0  0  0  0  0  0  0  0  0  0  0
   48.3460   34.8040   39.5770 C   0  0  0  0  0  0  0  0  0  0  0  0
   47.4620   33.7280   39.7530 C   0  0  0  0  0  0  0  0  0  0  0  0
   47.0350   33.4070   40.9910 N   0  0  0  0  0  0  0  0  0  0  0  0
   46.9940   32.9660   38.6000 C   0  0  1  0  0  0  0  0  0  0  0  0
   45.4730   33.2140   38.3370 C   0  0  0  0  0  0  0  0  0  0  0  0
   45.1060   32.0320   37.4040 C   0  0  0  0  0  0  0  0  0  0  0  0
   45.7300   32.4110   36.0670 C   0  0  0  0  0  0  0  0  0  0  0  0
   47.1980   32.5630   36.1480 C   0  0  0  0  0  0  0  0  0  0  0  0
   47.7750   33.1160   37.3910 C   0  0  2  0  0  0  0  0  0  0  0  0
   49.3680   32.2520   37.6600 S   0  0  0  0  0  0  0  0  0  0  0  0
   46.9690   32.4840   45.2880 C   0  0  0  0  0  0  0  0  0  0  0  0
   46.0090   33.2430   45.9240 C   0  0  0  0  0  0  0  0  0  0  0  0
   45.5350   34.3350   45.2180 C   0  0  0  0  0  0  0  0  0  0  0  0
   46.0360   34.5860   43.9710 N   0  0  0  0  0  0  0  0  0  0  0  0
   46.9920   33.7910   43.3950 C   0  0  0  0  0  0  0  0  0  0  0  0
   47.4420   32.7640   44.0490 N   0  0  0  0  0  0  0  0  0  0  0  0
   44.4990   35.2650   45.7460 C   0  0  0  0  0  0  0  0  0  0  0  0
   48.6519   35.7369   42.7674 H   0  0  0  0  0  0  0  0  0  0  0  0
   49.5094   36.4206   40.5235 H   0  0  0  0  0  0  0  0  0  0  0  0
   48.6829   35.0510   38.5594 H   0  0  0  0  0  0  0  0  0  0  0  0
   47.1447   31.9146   38.8861 H   0  0  0  0  0  0  0  0  0  0  0  0
   44.8953   33.1782   39.2724 H   0  0  0  0  0  0  0  0  0  0  0  0
   45.2545   34.2019   37.9054 H   0  0  0  0  0  0  0  0  0  0  0  0
   45.5308   31.0899   37.7808 H   0  0  0  0  0  0  0  0  0  0  0  0
   44.0204   31.8691   37.3338 H   0  0  0  0  0  0  0  0  0  0  0  0
   45.2949   33.3644   35.7327 H   0  0  0  0  0  0  0  0  0  0  0  0
   45.5178   31.5976   35.3576 H   0  0  0  0  0  0  0  0  0  0  0  0
   47.6379   31.5658   35.9997 H   0  0  0  0  0  0  0  0  0  0  0  0
   47.4373   33.3125   35.3793 H   0  0  0  0  0  0  0  0  0  0  0  0
   47.8444   34.2019   37.2296 H   0  0  0  0  0  0  0  0  0  0  0  0
   49.5984   32.1271   39.0047 H   0  0  0  0  0  0  0  0  0  0  0  0
   47.3718   31.6057   45.8136 H   0  0  0  0  0  0  0  0  0  0  0  0
   45.6423   32.9955   46.9311 H   0  0  0  0  0  0  0  0  0  0  0  0
   44.5176   35.2483   46.8457 H   0  0  0  0  0  0  0  0  0  0  0  0
   44.7070   36.2852   45.3912 H   0  0  0  0  0  0  0  0  0  0  0  0
   43.5071   34.9485   45.3912 H   0  0  0  0  0  0  0  0  0  0  0  0
  1 18  1  0
  2  1  2  0
  3  2  1  0
  4  5  1  0
  4  3  2  0
  5  6  2  0
  6  1  1  0
  7  5  1  0
  8  7  1  0
  9  8  1  0
 10 11  1  0
 10  9  1  0
 11 12  1  0
 12 13  1  0
 12  7  1  0
 14 15  2  0
 16 20  1  0
 16 15  1  0
 17 16  2  0
 18 17  1  0
 18 19  2  0
 19 14  1  0
  2 21  1  0
  3 22  1  0
  4 23  1  0
  7 24  1  1
  8 25  1  0
  8 26  1  0
  9 27  1  0
  9 28  1  0
 10 29  1  0
 10 30  1  0
 11 31  1  0
 11 32  1  0
 12 33  1  6
 13 34  1  0
 14 35  1  0
 15 36  1  0
 20 37  1  0
 20 38  1  0
 20 39  1  0
M  ISO  8  21  14  22  14  23  14  24  13  25  13  26  13  27  13  28  13
M  ISO  8  29  13  30  13  31  13  32  13  33  13  34  11  35  14  36  14
M  ISO  3  37   8  38   8  39   8
M  END
>  <minimizedAffinity>  (1) 
-5.2132349

>  <minimizedRMSD>  (1) 
1.14909244

$$$$
