
     RDKit          3D

 38 40  0  0  1  0  0  0  0  0999 V2000
   47.5170   34.0540   42.0200 C   0  0  0  0  0  0  0  0  0  0  0  0
   48.3480   35.1230   41.8470 C   0  0  0  0  0  0  0  0  0  0  0  0
   48.8170   35.5570   40.6240 C   0  0  0  0  0  0  0  0  0  0  0  0
   48.3600   34.7960   39.5380 C   0  0  0  0  0  0  0  0  0  0  0  0
   47.5050   33.6940   39.7050 C   0  0  0  0  0  0  0  0  0  0  0  0
   47.0950   33.3380   40.9350 N   0  0  0  0  0  0  0  0  0  0  0  0
   47.0430   32.9400   38.5420 C   0  0  1  0  0  0  0  0  0  0  0  0
   45.5280   33.2070   38.2610 C   0  0  0  0  0  0  0  0  0  0  0  0
   45.1580   32.0330   37.3220 C   0  0  0  0  0  0  0  0  0  0  0  0
   45.8050   32.4110   35.9870 C   0  0  0  0  0  0  0  0  0  0  0  0
   47.2730   32.5310   36.0920 C   0  0  0  0  0  0  0  0  0  0  0  0
   47.8340   33.0930   37.3400 C   0  0  2  0  0  0  0  0  0  0  0  0
   49.4300   32.2370   37.6110 S   0  0  0  0  0  0  0  0  0  0  0  0
   47.0490   32.3080   45.2020 C   0  0  0  0  0  0  0  0  0  0  0  0
   46.0990   33.0540   45.8790 C   0  0  0  0  0  0  0  0  0  0  0  0
   45.6320   34.1680   45.2080 C   0  0  0  0  0  0  0  0  0  0  0  0
   46.1200   34.4550   43.9560 N   0  0  0  0  0  0  0  0  0  0  0  0
   47.0610   33.6700   43.3480 C   0  0  0  0  0  0  0  0  0  0  0  0
   47.5080   32.6210   43.9690 N   0  0  0  0  0  0  0  0  0  0  0  0
   44.6290   35.0380   45.8130 C   0  0  0  0  0  0  0  0  0  0  0  0
   44.4220   36.1660   45.3150 O   0  0  0  0  0  0  0  0  0  0  0  0
   48.6653   35.6760   42.7434 H   0  0  0  0  0  0  0  0  0  0  0  0
   49.4882   36.4211   40.5110 H   0  0  0  0  0  0  0  0  0  0  0  0
   48.6815   35.0710   38.5226 H   0  0  0  0  0  0  0  0  0  0  0  0
   47.1838   31.8869   38.8268 H   0  0  0  0  0  0  0  0  0  0  0  0
   44.9387   33.1763   39.1893 H   0  0  0  0  0  0  0  0  0  0  0  0
   45.3270   34.1984   37.8289 H   0  0  0  0  0  0  0  0  0  0  0  0
   45.5675   31.0849   37.7008 H   0  0  0  0  0  0  0  0  0  0  0  0
   44.0715   31.8824   37.2392 H   0  0  0  0  0  0  0  0  0  0  0  0
   45.3937   33.3756   35.6547 H   0  0  0  0  0  0  0  0  0  0  0  0
   45.5826   31.6108   35.2658 H   0  0  0  0  0  0  0  0  0  0  0  0
   47.6938   31.5221   35.9689 H   0  0  0  0  0  0  0  0  0  0  0  0
   47.5466   33.2591   35.3142 H   0  0  0  0  0  0  0  0  0  0  0  0
   47.8960   34.1804   37.1860 H   0  0  0  0  0  0  0  0  0  0  0  0
   49.6596   32.1139   38.9560 H   0  0  0  0  0  0  0  0  0  0  0  0
   47.4527   31.4110   45.6944 H   0  0  0  0  0  0  0  0  0  0  0  0
   45.7407   32.7787   46.8819 H   0  0  0  0  0  0  0  0  0  0  0  0
   44.0625   34.7059   46.6955 H   0  0  0  0  0  0  0  0  0  0  0  0
  1 18  1  0
  2  1  2  0
  3  2  1  0
  4  5  1  0
  4  3  2  0
  5  6  2  0
  6  1  1  0
  7  5  1  0
  8  7  1  0
  9  8  1  0
 10 11  1  0
 10  9  1  0
 11 12  1  0
 12 13  1  0
 12  7  1  0
 14 15  2  0
 16 20  1  0
 16 15  1  0
 17 16  2  0
 18 17  1  0
 18 19  2  0
 19 14  1  0
 21 20  2  0
  2 22  1  0
  3 23  1  0
  4 24  1  0
  7 25  1  1
  8 26  1  0
  8 27  1  0
  9 28  1  0
  9 29  1  0
 10 30  1  0
 10 31  1  0
 11 32  1  0
 11 33  1  0
 12 34  1  6
 13 35  1  0
 14 36  1  0
 15 37  1  0
 20 38  1  0
M  ISO  8  22  14  23  14  24  14  25  13  26  13  27  13  28  13  29  13
M  ISO  8  30  13  31  13  32  13  33  13  34  13  35  11  36  14  37  14
M  ISO  1  38   6
M  END
>  <minimizedAffinity>  (1) 
-5.13446569

>  <minimizedRMSD>  (1) 
1.3324213

$$$$
