
     RDKit          3D

 48 51  0  0  1  0  0  0  0  0999 V2000
   47.8420   33.7600   42.1280 C   0  0  0  0  0  0  0  0  0  0  0  0
   48.3530   35.0500   42.1090 C   0  0  0  0  0  0  0  0  0  0  0  0
   48.7690   35.7020   40.9520 C   0  0  0  0  0  0  0  0  0  0  0  0
   48.6290   34.9420   39.7860 C   0  0  0  0  0  0  0  0  0  0  0  0
   48.1090   33.6350   39.8100 C   0  0  0  0  0  0  0  0  0  0  0  0
   47.7280   33.0710   40.9700 N   0  0  0  0  0  0  0  0  0  0  0  0
   47.9680   32.9070   38.5530 C   0  0  1  0  0  0  0  0  0  0  0  0
   46.8110   33.5440   37.6760 C   0  0  0  0  0  0  0  0  0  0  0  0
   46.5200   32.3990   36.6670 C   0  0  0  0  0  0  0  0  0  0  0  0
   47.7150   32.4660   35.7040 C   0  0  0  0  0  0  0  0  0  0  0  0
   48.9780   32.1570   36.4070 C   0  0  0  0  0  0  0  0  0  0  0  0
   49.1510   32.7090   37.7720 C   0  0  2  0  0  0  0  0  0  0  0  0
   50.1940   31.5170   38.6710 S   0  0  0  0  0  0  0  0  0  0  0  0
   47.3980   31.5040   44.9540 C   0  0  0  0  0  0  0  0  0  0  0  0
   46.5540   32.1690   45.8050 C   0  0  0  0  0  0  0  0  0  0  0  0
   46.1320   33.4270   45.3840 C   0  0  0  0  0  0  0  0  0  0  0  0
   46.5860   33.8890   44.1790 N   0  0  0  0  0  0  0  0  0  0  0  0
   47.4300   33.1670   43.3800 C   0  0  0  0  0  0  0  0  0  0  0  0
   47.8210   32.0060   43.7670 N   0  0  0  0  0  0  0  0  0  0  0  0
   45.2730   34.2720   46.0940 N   0  0  0  0  0  0  0  0  0  0  0  0
   46.0710   31.6840   47.0820 C   0  0  0  0  0  0  0  0  0  0  0  0
   45.4980   30.4140   47.0430 C   0  0  0  0  0  0  0  0  0  0  0  0
   44.9910   29.8210   48.1990 C   0  0  0  0  0  0  0  0  0  0  0  0
   45.0680   30.5190   49.3870 C   0  0  0  0  0  0  0  0  0  0  0  0
   45.6330   31.7750   49.4360 C   0  0  0  0  0  0  0  0  0  0  0  0
   46.1340   32.3570   48.2850 C   0  0  0  0  0  0  0  0  0  0  0  0
   48.4340   35.5889   43.0645 H   0  0  0  0  0  0  0  0  0  0  0  0
   49.1725   36.7253   40.9542 H   0  0  0  0  0  0  0  0  0  0  0  0
   48.9340   35.3785   38.8235 H   0  0  0  0  0  0  0  0  0  0  0  0
   47.7091   31.8863   38.8710 H   0  0  0  0  0  0  0  0  0  0  0  0
   45.9258   33.7762   38.2863 H   0  0  0  0  0  0  0  0  0  0  0  0
   47.0812   34.4999   37.2035 H   0  0  0  0  0  0  0  0  0  0  0  0
   46.4787   31.4252   37.1769 H   0  0  0  0  0  0  0  0  0  0  0  0
   45.5505   32.5084   36.1590 H   0  0  0  0  0  0  0  0  0  0  0  0
   47.7782   33.4784   35.2786 H   0  0  0  0  0  0  0  0  0  0  0  0
   47.5658   31.7226   34.9071 H   0  0  0  0  0  0  0  0  0  0  0  0
   49.0550   31.0622   36.4815 H   0  0  0  0  0  0  0  0  0  0  0  0
   49.7609   32.6422   35.8057 H   0  0  0  0  0  0  0  0  0  0  0  0
   49.5712   33.7166   37.6376 H   0  0  0  0  0  0  0  0  0  0  0  0
   50.0357   31.6979   40.0197 H   0  0  0  0  0  0  0  0  0  0  0  0
   47.7527   30.5059   45.2507 H   0  0  0  0  0  0  0  0  0  0  0  0
   45.0139   35.1891   45.7034 H   0  0  0  0  0  0  0  0  0  0  0  0
   44.8995   33.9772   47.0075 H   0  0  0  0  0  0  0  0  0  0  0  0
   45.4449   29.8720   46.0873 H   0  0  0  0  0  0  0  0  0  0  0  0
   44.5395   28.8185   48.1646 H   0  0  0  0  0  0  0  0  0  0  0  0
   44.6726   30.0662   50.3082 H   0  0  0  0  0  0  0  0  0  0  0  0
   45.6858   32.3161   50.3923 H   0  0  0  0  0  0  0  0  0  0  0  0
   46.5841   33.3597   48.3291 H   0  0  0  0  0  0  0  0  0  0  0  0
  1 18  1  0
  2  1  2  0
  3  2  1  0
  4  5  1  0
  4  3  2  0
  5  6  2  0
  6  1  1  0
  7  5  1  0
  8  7  1  0
  9  8  1  0
 10 11  1  0
 10  9  1  0
 11 12  1  0
 12  7  1  0
 12 13  1  0
 14 15  2  0
 15 21  1  0
 16 15  1  0
 16 20  1  0
 17 16  2  0
 18 19  2  0
 18 17  1  0
 19 14  1  0
 21 26  1  0
 22 21  2  0
 22 23  1  0
 23 24  2  0
 24 25  1  0
 26 25  2  0
  2 27  1  0
  3 28  1  0
  4 29  1  0
  7 30  1  1
  8 31  1  0
  8 32  1  0
  9 33  1  0
  9 34  1  0
 10 35  1  0
 10 36  1  0
 11 37  1  0
 11 38  1  0
 12 39  1  6
 13 40  1  0
 14 41  1  0
 20 42  1  0
 20 43  1  0
 22 44  1  0
 23 45  1  0
 24 46  1  0
 25 47  1  0
 26 48  1  0
M  ISO  8  27  14  28  14  29  14  30  13  31  13  32  13  33  13  34  13
M  ISO  8  35  13  36  13  37  13  38  13  39  13  40  11  41  14  44  14
M  ISO  4  45  14  46  14  47  14  48  14
M  END
>  <minimizedAffinity>  (1) 
-6.77842283

>  <minimizedRMSD>  (1) 
1.61113071

$$$$
