
     RDKit          3D

 48 51  0  0  1  0  0  0  0  0999 V2000
   47.9060   33.7490   41.9250 C   0  0  0  0  0  0  0  0  0  0  0  0
   48.3700   35.0430   41.9200 C   0  0  0  0  0  0  0  0  0  0  0  0
   48.7710   35.7200   40.7730 C   0  0  0  0  0  0  0  0  0  0  0  0
   48.6610   34.9660   39.6000 C   0  0  0  0  0  0  0  0  0  0  0  0
   48.1860   33.6400   39.6070 C   0  0  0  0  0  0  0  0  0  0  0  0
   47.8150   33.0480   40.7570 N   0  0  0  0  0  0  0  0  0  0  0  0
   48.0800   32.9240   38.3410 C   0  0  1  0  0  0  0  0  0  0  0  0
   47.0230   33.6330   37.3960 C   0  0  0  0  0  0  0  0  0  0  0  0
   46.7210   32.5180   36.3640 C   0  0  0  0  0  0  0  0  0  0  0  0
   47.9720   32.4870   35.4830 C   0  0  0  0  0  0  0  0  0  0  0  0
   49.1700   32.0980   36.2640 C   0  0  0  0  0  0  0  0  0  0  0  0
   49.2950   32.6460   37.6360 C   0  0  2  0  0  0  0  0  0  0  0  0
   50.1850   31.3770   38.6000 S   0  0  0  0  0  0  0  0  0  0  0  0
   47.6300   31.5260   44.8080 C   0  0  0  0  0  0  0  0  0  0  0  0
   46.6090   32.0670   45.5590 C   0  0  0  0  0  0  0  0  0  0  0  0
   46.0210   33.2010   45.0620 C   0  0  0  0  0  0  0  0  0  0  0  0
   46.4780   33.7100   43.8760 N   0  0  0  0  0  0  0  0  0  0  0  0
   47.5050   33.1220   43.1690 C   0  0  0  0  0  0  0  0  0  0  0  0
   48.0600   32.0570   43.6320 N   0  0  0  0  0  0  0  0  0  0  0  0
   44.9710   33.9110   45.6610 N   0  0  0  0  0  0  0  0  0  0  0  0
   45.4900   29.2320   45.5930 Cl  0  0  0  0  0  0  0  0  0  0  0  0
   45.5960   30.2760   46.9950 C   0  0  0  0  0  0  0  0  0  0  0  0
   46.1320   31.5340   46.7980 C   0  0  0  0  0  0  0  0  0  0  0  0
   46.2560   32.4330   47.8550 C   0  0  0  0  0  0  0  0  0  0  0  0
   45.8420   32.0880   49.1450 C   0  0  0  0  0  0  0  0  0  0  0  0
   45.3100   30.8290   49.3220 C   0  0  0  0  0  0  0  0  0  0  0  0
   45.1890   29.9430   48.2720 C   0  0  0  0  0  0  0  0  0  0  0  0
   44.5190   28.3590   48.4990 Cl  0  0  0  0  0  0  0  0  0  0  0  0
   48.4276   35.5751   42.8810 H   0  0  0  0  0  0  0  0  0  0  0  0
   49.1415   36.7556   40.7871 H   0  0  0  0  0  0  0  0  0  0  0  0
   48.9543   35.4224   38.6431 H   0  0  0  0  0  0  0  0  0  0  0  0
   47.7374   31.9217   38.6378 H   0  0  0  0  0  0  0  0  0  0  0  0
   46.1181   33.9199   37.9518 H   0  0  0  0  0  0  0  0  0  0  0  0
   47.3854   34.5693   36.9465 H   0  0  0  0  0  0  0  0  0  0  0  0
   46.5707   31.5504   36.8652 H   0  0  0  0  0  0  0  0  0  0  0  0
   45.8016   32.7070   35.7905 H   0  0  0  0  0  0  0  0  0  0  0  0
   48.1330   33.4869   35.0537 H   0  0  0  0  0  0  0  0  0  0  0  0
   47.8187   31.7426   34.6877 H   0  0  0  0  0  0  0  0  0  0  0  0
   49.1696   31.0010   36.3452 H   0  0  0  0  0  0  0  0  0  0  0  0
   50.0189   32.5260   35.7107 H   0  0  0  0  0  0  0  0  0  0  0  0
   49.7934   33.6208   37.5295 H   0  0  0  0  0  0  0  0  0  0  0  0
   50.0160   31.6180   39.9380 H   0  0  0  0  0  0  0  0  0  0  0  0
   48.1237   30.6159   45.1796 H   0  0  0  0  0  0  0  0  0  0  0  0
   44.5957   34.7559   45.2069 H   0  0  0  0  0  0  0  0  0  0  0  0
   44.5749   33.5877   46.5552 H   0  0  0  0  0  0  0  0  0  0  0  0
   46.6859   33.4288   47.6719 H   0  0  0  0  0  0  0  0  0  0  0  0
   45.9370   32.7926   49.9844 H   0  0  0  0  0  0  0  0  0  0  0  0
   44.9741   30.5237   50.3240 H   0  0  0  0  0  0  0  0  0  0  0  0
  1 18  1  0
  2  1  2  0
  3  2  1  0
  4  5  1  0
  4  3  2  0
  5  6  2  0
  6  1  1  0
  7  5  1  0
  8  7  1  0
  9  8  1  0
 10 11  1  0
 10  9  1  0
 11 12  1  0
 12  7  1  0
 12 13  1  0
 14 15  2  0
 15 23  1  0
 16 15  1  0
 16 20  1  0
 17 16  2  0
 18 19  2  0
 18 17  1  0
 19 14  1  0
 21 22  1  0
 22 27  2  0
 23 22  1  0
 23 24  2  0
 24 25  1  0
 25 26  2  0
 27 28  1  0
 27 26  1  0
  2 29  1  0
  3 30  1  0
  4 31  1  0
  7 32  1  1
  8 33  1  0
  8 34  1  0
  9 35  1  0
  9 36  1  0
 10 37  1  0
 10 38  1  0
 11 39  1  0
 11 40  1  0
 12 41  1  6
 13 42  1  0
 14 43  1  0
 20 44  1  0
 20 45  1  0
 24 46  1  0
 25 47  1  0
 26 48  1  0
M  ISO  8  29  14  30  14  31  14  32  13  33  13  34  13  35  13  36  13
M  ISO  8  37  13  38  13  39  13  40  13  41  13  42  11  43  14  46  14
M  ISO  2  47  14  48  14
M  END
>  <minimizedAffinity>  (1) 
-6.47881651

>  <minimizedRMSD>  (1) 
1.79503489

$$$$
