
     RDKit          3D

 50 53  0  0  1  0  0  0  0  0999 V2000
   47.7250   33.7410   42.3640 C   0  0  0  0  0  0  0  0  0  0  0  0
   48.2620   35.0070   42.3420 C   0  0  0  0  0  0  0  0  0  0  0  0
   48.6990   35.6360   41.1900 C   0  0  0  0  0  0  0  0  0  0  0  0
   48.5520   34.8730   40.0240 C   0  0  0  0  0  0  0  0  0  0  0  0
   48.0030   33.5770   40.0500 C   0  0  0  0  0  0  0  0  0  0  0  0
   47.5970   33.0270   41.2090 N   0  0  0  0  0  0  0  0  0  0  0  0
   47.8610   32.8460   38.7970 C   0  0  1  0  0  0  0  0  0  0  0  0
   46.6800   33.4550   37.9340 C   0  0  0  0  0  0  0  0  0  0  0  0
   46.4100   32.2960   36.9260 C   0  0  0  0  0  0  0  0  0  0  0  0
   47.5860   32.4000   35.9530 C   0  0  0  0  0  0  0  0  0  0  0  0
   48.8690   32.1230   36.6340 C   0  0  0  0  0  0  0  0  0  0  0  0
   49.0390   32.6680   38.0030 C   0  0  2  0  0  0  0  0  0  0  0  0
   50.1060   31.4890   38.8940 S   0  0  0  0  0  0  0  0  0  0  0  0
   47.2240   31.5110   45.2210 C   0  0  0  0  0  0  0  0  0  0  0  0
   46.3200   32.1990   46.0220 C   0  0  0  0  0  0  0  0  0  0  0  0
   45.8980   33.4220   45.5640 C   0  0  0  0  0  0  0  0  0  0  0  0
   46.3840   33.8750   44.3730 N   0  0  0  0  0  0  0  0  0  0  0  0
   47.2800   33.1490   43.6200 C   0  0  0  0  0  0  0  0  0  0  0  0
   47.6830   32.0000   44.0380 N   0  0  0  0  0  0  0  0  0  0  0  0
   45.0000   34.2530   46.2330 N   0  0  0  0  0  0  0  0  0  0  0  0
   45.8230   31.7280   47.2450 N   0  0  0  0  0  0  0  0  0  0  0  0
   46.1910   32.3150   48.5310 C   0  0  0  0  0  0  0  0  0  0  0  0
   46.3310   31.0420   49.3660 C   0  0  0  0  0  0  0  0  0  0  0  0
   45.0470   30.3240   48.9810 C   0  0  0  0  0  0  0  0  0  0  0  0
   44.9010   30.6380   47.5160 C   0  0  0  0  0  0  0  0  0  0  0  0
   48.3489   35.5502   43.2945 H   0  0  0  0  0  0  0  0  0  0  0  0
   49.1259   36.6498   41.1894 H   0  0  0  0  0  0  0  0  0  0  0  0
   48.8744   35.2983   39.0621 H   0  0  0  0  0  0  0  0  0  0  0  0
   47.6257   31.8210   39.1195 H   0  0  0  0  0  0  0  0  0  0  0  0
   45.7953   33.6647   38.5531 H   0  0  0  0  0  0  0  0  0  0  0  0
   46.9186   34.4184   37.4598 H   0  0  0  0  0  0  0  0  0  0  0  0
   46.4053   31.3218   37.4367 H   0  0  0  0  0  0  0  0  0  0  0  0
   45.4311   32.3738   36.4304 H   0  0  0  0  0  0  0  0  0  0  0  0
   47.6150   33.4160   35.5323 H   0  0  0  0  0  0  0  0  0  0  0  0
   47.4462   31.6545   35.1564 H   0  0  0  0  0  0  0  0  0  0  0  0
   48.9822   31.0306   36.6959 H   0  0  0  0  0  0  0  0  0  0  0  0
   49.6297   32.6359   36.0271 H   0  0  0  0  0  0  0  0  0  0  0  0
   49.4404   33.6829   37.8656 H   0  0  0  0  0  0  0  0  0  0  0  0
   49.9497   31.6618   40.2440 H   0  0  0  0  0  0  0  0  0  0  0  0
   47.5839   30.5280   45.5588 H   0  0  0  0  0  0  0  0  0  0  0  0
   44.7322   35.1587   45.8220 H   0  0  0  0  0  0  0  0  0  0  0  0
   44.6045   33.9611   47.1381 H   0  0  0  0  0  0  0  0  0  0  0  0
   47.1380   32.8713   48.4710 H   0  0  0  0  0  0  0  0  0  0  0  0
   45.4795   33.0551   48.9259 H   0  0  0  0  0  0  0  0  0  0  0  0
   47.2222   30.4638   49.0807 H   0  0  0  0  0  0  0  0  0  0  0  0
   46.4592   31.2104   50.4454 H   0  0  0  0  0  0  0  0  0  0  0  0
   45.1373   29.2400   49.1446 H   0  0  0  0  0  0  0  0  0  0  0  0
   44.1799   30.6425   49.5782 H   0  0  0  0  0  0  0  0  0  0  0  0
   43.8690   30.9461   47.2924 H   0  0  0  0  0  0  0  0  0  0  0  0
   45.1221   29.7594   46.8921 H   0  0  0  0  0  0  0  0  0  0  0  0
  1 18  1  0
  2  1  2  0
  3  2  1  0
  4  5  1  0
  4  3  2  0
  5  6  2  0
  6  1  1  0
  7  5  1  0
  8  7  1  0
  9  8  1  0
 10 11  1  0
 10  9  1  0
 11 12  1  0
 12  7  1  0
 12 13  1  0
 14 15  2  0
 15 21  1  0
 16 15  1  0
 16 20  1  0
 17 16  2  0
 18 19  2  0
 18 17  1  0
 19 14  1  0
 21 25  1  0
 21 22  1  0
 22 23  1  0
 24 23  1  0
 25 24  1  0
  2 26  1  0
  3 27  1  0
  4 28  1  0
  7 29  1  1
  8 30  1  0
  8 31  1  0
  9 32  1  0
  9 33  1  0
 10 34  1  0
 10 35  1  0
 11 36  1  0
 11 37  1  0
 12 38  1  6
 13 39  1  0
 14 40  1  0
 20 41  1  0
 20 42  1  0
 22 43  1  0
 22 44  1  0
 23 45  1  0
 23 46  1  0
 24 47  1  0
 24 48  1  0
 25 49  1  0
 25 50  1  0
M  ISO  8  26  14  27  14  28  14  29  13  30  13  31  13  32  13  33  13
M  ISO  8  34  13  35  13  36  13  37  13  38  13  39  11  40  14  43  13
M  ISO  7  44  13  45  13  46  13  47  13  48  13  49  13  50  13
M  END
>  <minimizedAffinity>  (1) 
-6.27872467

>  <minimizedRMSD>  (1) 
1.59533656

$$$$
