
     RDKit          3D

 53 56  0  0  1  0  0  0  0  0999 V2000
   47.8750   33.5630   41.9820 C   0  0  0  0  0  0  0  0  0  0  0  0
   48.3880   34.8320   41.9080 C   0  0  0  0  0  0  0  0  0  0  0  0
   48.6390   35.4910   40.7210 C   0  0  0  0  0  0  0  0  0  0  0  0
   48.3240   34.7530   39.5700 C   0  0  0  0  0  0  0  0  0  0  0  0
   47.7980   33.4540   39.6450 C   0  0  0  0  0  0  0  0  0  0  0  0
   47.5810   32.8760   40.8390 N   0  0  0  0  0  0  0  0  0  0  0  0
   47.4740   32.7520   38.4090 C   0  0  1  0  0  0  0  0  0  0  0  0
   45.9980   33.0970   37.9470 C   0  0  0  0  0  0  0  0  0  0  0  0
   45.7120   31.9450   36.9370 C   0  0  0  0  0  0  0  0  0  0  0  0
   46.5290   32.3280   35.7110 C   0  0  0  0  0  0  0  0  0  0  0  0
   47.9790   32.3360   36.0060 C   0  0  0  0  0  0  0  0  0  0  0  0
   48.4010   32.8640   37.3250 C   0  0  2  0  0  0  0  0  0  0  0  0
   49.8840   31.9160   37.8040 S   0  0  0  0  0  0  0  0  0  0  0  0
   47.8250   31.2270   44.8020 C   0  0  0  0  0  0  0  0  0  0  0  0
   47.0630   31.8630   45.7480 C   0  0  0  0  0  0  0  0  0  0  0  0
   46.5710   33.1000   45.4150 C   0  0  0  0  0  0  0  0  0  0  0  0
   46.8670   33.6140   44.1760 N   0  0  0  0  0  0  0  0  0  0  0  0
   47.6310   32.9410   43.2660 C   0  0  0  0  0  0  0  0  0  0  0  0
   48.0960   31.7660   43.5890 N   0  0  0  0  0  0  0  0  0  0  0  0
   45.7720   33.9070   46.2230 N   0  0  0  0  0  0  0  0  0  0  0  0
   46.8160   31.2680   47.0180 N   0  0  0  0  0  0  0  0  0  0  0  0
   46.1770   29.9810   47.2140 C   0  0  0  0  0  0  0  0  0  0  0  0
   44.8120   30.1640   47.8590 C   0  0  0  0  0  0  0  0  0  0  0  0
   45.0360   30.6940   49.2510 C   0  0  0  0  0  0  0  0  0  0  0  0
   45.9100   31.9290   49.2240 C   0  0  0  0  0  0  0  0  0  0  0  0
   47.1220   31.7330   48.3360 C   0  0  0  0  0  0  0  0  0  0  0  0
   48.6127   35.3557   42.8489 H   0  0  0  0  0  0  0  0  0  0  0  0
   49.0516   36.5099   40.6810 H   0  0  0  0  0  0  0  0  0  0  0  0
   48.4940   35.2050   38.5817 H   0  0  0  0  0  0  0  0  0  0  0  0
   47.5577   31.6902   38.6841 H   0  0  0  0  0  0  0  0  0  0  0  0
   45.2959   33.0729   38.7935 H   0  0  0  0  0  0  0  0  0  0  0  0
   45.8850   34.1051   37.5216 H   0  0  0  0  0  0  0  0  0  0  0  0
   46.0428   30.9773   37.3420 H   0  0  0  0  0  0  0  0  0  0  0  0
   44.6408   31.8285   36.7158 H   0  0  0  0  0  0  0  0  0  0  0  0
   46.2263   33.3321   35.3792 H   0  0  0  0  0  0  0  0  0  0  0  0
   46.3411   31.5823   34.9245 H   0  0  0  0  0  0  0  0  0  0  0  0
   48.3363   31.2980   35.9358 H   0  0  0  0  0  0  0  0  0  0  0  0
   48.4130   33.0305   35.2716 H   0  0  0  0  0  0  0  0  0  0  0  0
   48.5366   33.9456   37.1773 H   0  0  0  0  0  0  0  0  0  0  0  0
   49.9695   31.8614   39.1702 H   0  0  0  0  0  0  0  0  0  0  0  0
   48.2349   30.2340   45.0387 H   0  0  0  0  0  0  0  0  0  0  0  0
   45.4524   34.8239   45.8795 H   0  0  0  0  0  0  0  0  0  0  0  0
   45.5011   33.5865   47.1636 H   0  0  0  0  0  0  0  0  0  0  0  0
   46.0549   29.4841   46.2402 H   0  0  0  0  0  0  0  0  0  0  0  0
   46.8058   29.3654   47.8741 H   0  0  0  0  0  0  0  0  0  0  0  0
   44.2143   30.8802   47.2762 H   0  0  0  0  0  0  0  0  0  0  0  0
   44.2677   29.2086   47.8913 H   0  0  0  0  0  0  0  0  0  0  0  0
   44.0648   30.9498   49.6997 H   0  0  0  0  0  0  0  0  0  0  0  0
   45.5413   29.9185   49.8454 H   0  0  0  0  0  0  0  0  0  0  0  0
   45.3205   32.7756   48.8423 H   0  0  0  0  0  0  0  0  0  0  0  0
   46.2608   32.1257   50.2478 H   0  0  0  0  0  0  0  0  0  0  0  0
   47.7854   30.9981   48.8154 H   0  0  0  0  0  0  0  0  0  0  0  0
   47.5918   32.7210   48.2208 H   0  0  0  0  0  0  0  0  0  0  0  0
  1 18  1  0
  2  1  2  0
  3  2  1  0
  4  5  1  0
  4  3  2  0
  5  6  2  0
  6  1  1  0
  7  5  1  0
  8  7  1  0
  9  8  1  0
 10 11  1  0
 10  9  1  0
 11 12  1  0
 12 13  1  0
 12  7  1  0
 14 15  2  0
 15 21  1  0
 16 15  1  0
 16 20  1  0
 17 16  2  0
 18 19  2  0
 18 17  1  0
 19 14  1  0
 21 22  1  0
 21 26  1  0
 22 23  1  0
 23 24  1  0
 25 24  1  0
 26 25  1  0
  2 27  1  0
  3 28  1  0
  4 29  1  0
  7 30  1  1
  8 31  1  0
  8 32  1  0
  9 33  1  0
  9 34  1  0
 10 35  1  0
 10 36  1  0
 11 37  1  0
 11 38  1  0
 12 39  1  6
 13 40  1  0
 14 41  1  0
 20 42  1  0
 20 43  1  0
 22 44  1  0
 22 45  1  0
 23 46  1  0
 23 47  1  0
 24 48  1  0
 24 49  1  0
 25 50  1  0
 25 51  1  0
 26 52  1  0
 26 53  1  0
M  ISO  8  27  14  28  14  29  14  30  13  31  13  32  13  33  13  34  13
M  ISO  8  35  13  36  13  37  13  38  13  39  13  40  11  41  14  44  13
M  ISO  8  45  13  46  13  47  13  48  13  49  13  50  13  51  13  52  13
M  ISO  1  53  13
M  END
>  <minimizedAffinity>  (1) 
-6.2592907

>  <minimizedRMSD>  (1) 
1.62469316

$$$$
