
     RDKit          3D

 35 37  0  0  0  0  0  0  0  0999 V2000
   46.9780   34.0770   42.6190 C   0  0  0  0  0  0  0  0  0  0  0  0
   48.3150   34.5590   42.7120 C   0  0  0  0  0  0  0  0  0  0  0  0
   48.6470   35.5960   41.6700 C   0  0  0  0  0  0  0  0  0  0  0  0
   48.5810   34.9290   40.3000 C   0  0  0  0  0  0  0  0  0  0  0  0
   47.3210   34.1500   40.1190 C   0  0  0  0  0  0  0  0  0  0  0  0
   46.3450   34.4030   41.2410 C   0  0  0  0  0  0  0  0  0  0  0  0
   46.0380   34.5100   43.6620 C   0  0  0  0  0  0  0  0  0  0  0  0
   46.0430   33.7610   44.8180 C   0  0  0  0  0  0  0  0  0  0  0  0
   45.2400   34.2630   45.8280 C   0  0  0  0  0  0  0  0  0  0  0  0
   44.5240   35.4020   45.6320 N   0  0  0  0  0  0  0  0  0  0  0  0
   44.5220   36.1060   44.5140 C   0  0  0  0  0  0  0  0  0  0  0  0
   45.2880   35.6360   43.5540 N   0  0  0  0  0  0  0  0  0  0  0  0
   46.5570   32.5620   45.4320 C   0  0  0  0  0  0  0  0  0  0  0  0
   46.5090   31.3460   44.7100 C   0  0  0  0  0  0  0  0  0  0  0  0
   46.8930   30.0930   45.1300 C   0  0  0  0  0  0  0  0  0  0  0  0
   47.3730   30.1030   46.4160 C   0  0  0  0  0  0  0  0  0  0  0  0
   47.4500   31.2320   47.1690 C   0  0  0  0  0  0  0  0  0  0  0  0
   47.0540   32.3910   46.6750 N   0  0  0  0  0  0  0  0  0  0  0  0
   47.1179   32.9956   42.7642 H   0  0  0  0  0  0  0  0  0  0  0  0
   48.4570   35.0056   43.7072 H   0  0  0  0  0  0  0  0  0  0  0  0
   48.9835   33.7018   42.5441 H   0  0  0  0  0  0  0  0  0  0  0  0
   47.9198   36.4199   41.7190 H   0  0  0  0  0  0  0  0  0  0  0  0
   49.6526   36.0054   41.8466 H   0  0  0  0  0  0  0  0  0  0  0  0
   48.6329   35.7063   39.5234 H   0  0  0  0  0  0  0  0  0  0  0  0
   49.4272   34.2308   40.2203 H   0  0  0  0  0  0  0  0  0  0  0  0
   46.8541   34.4428   39.1670 H   0  0  0  0  0  0  0  0  0  0  0  0
   47.5754   33.0798   40.1194 H   0  0  0  0  0  0  0  0  0  0  0  0
   46.0461   35.4615   41.2248 H   0  0  0  0  0  0  0  0  0  0  0  0
   45.4710   33.7510   41.0961 H   0  0  0  0  0  0  0  0  0  0  0  0
   45.1811   33.7382   46.7929 H   0  0  0  0  0  0  0  0  0  0  0  0
   43.9222   37.0203   44.3947 H   0  0  0  0  0  0  0  0  0  0  0  0
   46.1155   31.4103   43.6848 H   0  0  0  0  0  0  0  0  0  0  0  0
   46.8234   29.1887   44.5076 H   0  0  0  0  0  0  0  0  0  0  0  0
   47.7108   29.1538   46.8574 H   0  0  0  0  0  0  0  0  0  0  0  0
   47.8440   31.1801   48.1947 H   0  0  0  0  0  0  0  0  0  0  0  0
  1  2  1  0
  1  7  1  0
  3  2  1  0
  4  3  1  0
  5  4  1  0
  5  6  1  0
  6  1  1  0
  7  8  1  0
  8 13  1  0
  8  9  2  0
 10  9  1  0
 11 10  2  0
 12  7  2  0
 12 11  1  0
 13 18  2  0
 14 15  2  0
 14 13  1  0
 15 16  1  0
 16 17  2  0
 18 17  1  0
  1 19  1  0
  2 20  1  0
  2 21  1  0
  3 22  1  0
  3 23  1  0
  4 24  1  0
  4 25  1  0
  5 26  1  0
  5 27  1  0
  6 28  1  0
  6 29  1  0
  9 30  1  0
 11 31  1  0
 14 32  1  0
 15 33  1  0
 16 34  1  0
 17 35  1  0
M  ISO  8  19  13  20  13  21  13  22  13  23  13  24  13  25  13  26  13
M  ISO  8  27  13  28  13  29  13  30  14  31  14  32  14  33  14  34  14
M  ISO  1  35  14
M  END
>  <minimizedAffinity>  (1) 
-5.84821987

>  <minimizedRMSD>  (1) 
6.21314478

$$$$
