
     RDKit          3D

 36 38  0  0  0  0  0  0  0  0999 V2000
   46.3670   32.0840   43.8730 C   0  0  0  0  0  0  0  0  0  0  0  0
   47.4280   32.5100   43.0930 C   0  0  0  0  0  0  0  0  0  0  0  0
   48.4880   31.6260   43.0150 C   0  0  0  0  0  0  0  0  0  0  0  0
   48.4180   30.4450   43.6780 N   0  0  0  0  0  0  0  0  0  0  0  0
   47.4000   30.0440   44.4140 C   0  0  0  0  0  0  0  0  0  0  0  0
   46.3860   30.8850   44.4950 N   0  0  0  0  0  0  0  0  0  0  0  0
   45.2910   33.0690   44.0530 C   0  0  0  0  0  0  0  0  0  0  0  0
   44.8200   33.7600   42.9030 C   0  0  0  0  0  0  0  0  0  0  0  0
   45.2540   35.2000   42.8370 C   0  0  0  0  0  0  0  0  0  0  0  0
   44.6220   35.9440   44.0210 C   0  0  0  0  0  0  0  0  0  0  0  0
   44.7810   35.2050   45.3120 C   0  0  0  0  0  0  0  0  0  0  0  0
   45.7380   34.0520   45.1640 C   0  0  0  0  0  0  0  0  0  0  0  0
   47.8630   33.5500   42.2020 C   0  0  0  0  0  0  0  0  0  0  0  0
   48.6660   34.5730   42.7630 C   0  0  0  0  0  0  0  0  0  0  0  0
   49.2070   35.6320   42.0480 C   0  0  0  0  0  0  0  0  0  0  0  0
   48.8860   35.5980   40.7110 C   0  0  0  0  0  0  0  0  0  0  0  0
   48.1270   34.6740   40.0500 C   0  0  0  0  0  0  0  0  0  0  0  0
   47.6320   33.6630   40.8310 C   0  0  0  0  0  0  0  0  0  0  0  0
   49.3791   31.8779   42.4213 H   0  0  0  0  0  0  0  0  0  0  0  0
   47.3961   29.0712   44.9274 H   0  0  0  0  0  0  0  0  0  0  0  0
   44.3997   32.4868   44.3299 H   0  0  0  0  0  0  0  0  0  0  0  0
   45.1983   33.2428   42.0089 H   0  0  0  0  0  0  0  0  0  0  0  0
   43.7214   33.7596   42.9576 H   0  0  0  0  0  0  0  0  0  0  0  0
   46.3504   35.2621   42.9002 H   0  0  0  0  0  0  0  0  0  0  0  0
   44.9313   35.6518   41.8874 H   0  0  0  0  0  0  0  0  0  0  0  0
   45.1031   36.9286   44.1164 H   0  0  0  0  0  0  0  0  0  0  0  0
   43.5446   36.0384   43.8201 H   0  0  0  0  0  0  0  0  0  0  0  0
   45.1668   35.8960   46.0760 H   0  0  0  0  0  0  0  0  0  0  0  0
   43.7994   34.8075   45.6095 H   0  0  0  0  0  0  0  0  0  0  0  0
   45.7909   33.5089   46.1191 H   0  0  0  0  0  0  0  0  0  0  0  0
   46.7210   34.4587   44.8840 H   0  0  0  0  0  0  0  0  0  0  0  0
   48.8756   34.5246   43.8418 H   0  0  0  0  0  0  0  0  0  0  0  0
   49.8282   36.4173   42.5033 H   0  0  0  0  0  0  0  0  0  0  0  0
   49.2907   36.4165   40.0976 H   0  0  0  0  0  0  0  0  0  0  0  0
   47.9280   34.7372   38.9700 H   0  0  0  0  0  0  0  0  0  0  0  0
   47.0140   32.8925   40.3468 H   0  0  0  0  0  0  0  0  0  0  0  0
  1  7  1  0
  1  6  2  0
  2  1  1  0
  3  2  2  0
  3  4  1  0
  4  5  2  0
  5  6  1  0
  7 12  1  0
  8  7  1  0
  9  8  1  0
  9 10  1  0
 10 11  1  0
 12 11  1  0
 13 14  2  0
 13  2  1  0
 15 14  1  0
 16 15  2  0
 17 16  1  0
 17 18  2  0
 18 13  1  0
  3 19  1  0
  5 20  1  0
  7 21  1  0
  8 22  1  0
  8 23  1  0
  9 24  1  0
  9 25  1  0
 10 26  1  0
 10 27  1  0
 11 28  1  0
 11 29  1  0
 12 30  1  0
 12 31  1  0
 14 32  1  0
 15 33  1  0
 16 34  1  0
 17 35  1  0
 18 36  1  0
M  ISO  8  19  14  20  14  21  13  22  13  23  13  24  13  25  13  26  13
M  ISO  8  27  13  28  13  29  13  30  13  31  13  32  14  33  14  34  14
M  ISO  2  35  14  36  14
M  END
>  <minimizedAffinity>  (1) 
-5.31935072

>  <minimizedRMSD>  (1) 
2.60206079

$$$$
