
     RDKit          3D

 32 34  0  0  0  0  0  0  0  0999 V2000
   48.0030   34.1970   42.6290 C   0  0  0  0  0  0  0  0  0  0  0  0
   47.2120   34.1260   41.3620 C   0  0  0  0  0  0  0  0  0  0  0  0
   47.9600   34.5350   40.2180 C   0  0  0  0  0  0  0  0  0  0  0  0
   48.9180   35.7170   40.3100 C   0  0  0  0  0  0  0  0  0  0  0  0
   49.1920   36.1310   41.7470 C   0  0  0  0  0  0  0  0  0  0  0  0
   49.2840   34.8740   42.6070 C   0  0  0  0  0  0  0  0  0  0  0  0
   48.0780   32.9080   43.3280 C   0  0  0  0  0  0  0  0  0  0  0  0
   48.9750   32.0320   42.7520 C   0  0  0  0  0  0  0  0  0  0  0  0
   48.9530   30.7480   43.3260 C   0  0  0  0  0  0  0  0  0  0  0  0
   48.1050   30.4800   44.3610 N   0  0  0  0  0  0  0  0  0  0  0  0
   47.2630   31.3870   44.8830 C   0  0  0  0  0  0  0  0  0  0  0  0
   47.2490   32.6110   44.3610 N   0  0  0  0  0  0  0  0  0  0  0  0
   50.0180   31.9900   41.7450 C   0  0  0  0  0  0  0  0  0  0  0  0
   49.9100   31.4730   40.5050 N   0  0  0  0  0  0  0  0  0  0  0  0
   51.1340   31.5290   39.9610 C   0  0  0  0  0  0  0  0  0  0  0  0
   52.0050   32.0630   40.8200 N   0  0  0  0  0  0  0  0  0  0  0  0
   51.3130   32.3350   41.8910 N   0  0  0  0  0  0  0  0  0  0  0  0
   47.3860   34.8931   43.2161 H   0  0  0  0  0  0  0  0  0  0  0  0
   46.8810   33.0877   41.2123 H   0  0  0  0  0  0  0  0  0  0  0  0
   46.3611   34.8156   41.4644 H   0  0  0  0  0  0  0  0  0  0  0  0
   47.2293   34.7803   39.4332 H   0  0  0  0  0  0  0  0  0  0  0  0
   48.6313   33.6820   40.0397 H   0  0  0  0  0  0  0  0  0  0  0  0
   49.8702   35.4377   39.8353 H   0  0  0  0  0  0  0  0  0  0  0  0
   48.4477   36.5702   39.7992 H   0  0  0  0  0  0  0  0  0  0  0  0
   50.1407   36.6854   41.7984 H   0  0  0  0  0  0  0  0  0  0  0  0
   48.3809   36.7778   42.1127 H   0  0  0  0  0  0  0  0  0  0  0  0
   50.0456   34.2001   42.1877 H   0  0  0  0  0  0  0  0  0  0  0  0
   49.5621   35.1566   43.6331 H   0  0  0  0  0  0  0  0  0  0  0  0
   49.6184   29.9611   42.9411 H   0  0  0  0  0  0  0  0  0  0  0  0
   46.6012   31.1244   45.7215 H   0  0  0  0  0  0  0  0  0  0  0  0
   51.3856   31.1830   38.9476 H   0  0  0  0  0  0  0  0  0  0  0  0
   53.0108   32.2257   40.6688 H   0  0  0  0  0  0  0  0  0  0  0  0
  1  7  1  0
  2  1  1  0
  3  4  1  0
  3  2  1  0
  4  5  1  0
  5  6  1  0
  6  1  1  0
  7 12  2  0
  8  9  2  0
  8  7  1  0
  9 10  1  0
 10 11  2  0
 12 11  1  0
 13 17  2  0
 13  8  1  0
 14 13  1  0
 15 14  2  0
 15 16  1  0
 16 17  1  0
  1 18  1  0
  2 19  1  0
  2 20  1  0
  3 21  1  0
  3 22  1  0
  4 23  1  0
  4 24  1  0
  5 25  1  0
  5 26  1  0
  6 27  1  0
  6 28  1  0
  9 29  1  0
 11 30  1  0
 15 31  1  0
 16 32  1  0
M  ISO  8  18  13  19  13  20  13  21  13  22  13  23  13  24  13  25  13
M  ISO  7  26  13  27  13  28  13  29  14  30  14  31  14  32   9
M  END
>  <minimizedAffinity>  (1) 
-4.77735138

>  <minimizedRMSD>  (1) 
3.23162627

$$$$
