
     RDKit          3D

 29 30  0  0  0  0  0  0  0  0999 V2000
   46.8980   33.0530   42.4860 C   0  0  0  0  0  0  0  0  0  0  0  0
   46.1030   33.2240   41.3400 C   0  0  0  0  0  0  0  0  0  0  0  0
   45.5220   34.5800   41.2310 C   0  0  0  0  0  0  0  0  0  0  0  0
   44.5970   34.8770   42.4160 C   0  0  0  0  0  0  0  0  0  0  0  0
   45.1760   34.4590   43.7190 C   0  0  0  0  0  0  0  0  0  0  0  0
   46.6290   34.1120   43.5830 C   0  0  0  0  0  0  0  0  0  0  0  0
   48.3510   32.8960   42.3490 C   0  0  0  0  0  0  0  0  0  0  0  0
   49.0100   34.1130   41.9970 C   0  0  0  0  0  0  0  0  0  0  0  0
   50.3420   33.7930   42.0840 C   0  0  0  0  0  0  0  0  0  0  0  0
   50.8970   32.6200   42.4160 N   0  0  0  0  0  0  0  0  0  0  0  0
   50.2460   31.5430   42.7200 C   0  0  0  0  0  0  0  0  0  0  0  0
   48.9610   31.7090   42.6790 N   0  0  0  0  0  0  0  0  0  0  0  0
   48.8210   35.4080   41.6690 C   0  0  0  0  0  0  0  0  0  0  0  0
   48.3960   35.4930   40.2930 F   0  0  0  0  0  0  0  0  0  0  0  0
   49.5520   36.4880   41.5240 F   0  0  0  0  0  0  0  0  0  0  0  0
   47.6990   35.9750   42.2580 F   0  0  0  0  0  0  0  0  0  0  0  0
   46.5397   32.0533   42.7727 H   0  0  0  0  0  0  0  0  0  0  0  0
   46.7249   33.0377   40.4520 H   0  0  0  0  0  0  0  0  0  0  0  0
   45.2656   32.5145   41.4141 H   0  0  0  0  0  0  0  0  0  0  0  0
   46.3357   35.3200   41.2154 H   0  0  0  0  0  0  0  0  0  0  0  0
   44.9331   34.6358   40.3036 H   0  0  0  0  0  0  0  0  0  0  0  0
   44.4043   35.9595   42.4484 H   0  0  0  0  0  0  0  0  0  0  0  0
   43.6718   34.3014   42.2655 H   0  0  0  0  0  0  0  0  0  0  0  0
   45.0704   35.2837   44.4392 H   0  0  0  0  0  0  0  0  0  0  0  0
   44.6368   33.5661   44.0683 H   0  0  0  0  0  0  0  0  0  0  0  0
   46.9869   33.7182   44.5457 H   0  0  0  0  0  0  0  0  0  0  0  0
   47.1606   35.0299   43.2916 H   0  0  0  0  0  0  0  0  0  0  0  0
   51.0454   34.6059   41.8506 H   0  0  0  0  0  0  0  0  0  0  0  0
   50.7302   30.5913   42.9842 H   0  0  0  0  0  0  0  0  0  0  0  0
  1  6  1  0
  2  1  1  0
  3  2  1  0
  3  4  1  0
  4  5  1  0
  6  5  1  0
  7  1  1  0
  7 12  2  0
  8  9  2  0
  8  7  1  0
  9 10  1  0
 10 11  2  0
 12 11  1  0
 13  8  1  0
 13 16  1  0
 14 13  1  0
 15 13  1  0
  1 17  1  0
  2 18  1  0
  2 19  1  0
  3 20  1  0
  3 21  1  0
  4 22  1  0
  4 23  1  0
  5 24  1  0
  5 25  1  0
  6 26  1  0
  6 27  1  0
  9 28  1  0
 11 29  1  0
M  ISO  8  17  13  18  13  19  13  20  13  21  13  22  13  23  13  24  13
M  ISO  5  25  13  26  13  27  13  28  14  29  14
M  END
>  <minimizedAffinity>  (1) 
-4.77080202

>  <minimizedRMSD>  (1) 
1.37611377

$$$$
