
     RDKit          3D

 32 33  0  0  0  0  0  0  0  0999 V2000
   47.0370   33.0390   42.7550 C   0  0  0  0  0  0  0  0  0  0  0  0
   46.2560   33.9120   41.9850 C   0  0  0  0  0  0  0  0  0  0  0  0
   46.0150   35.2410   42.6440 C   0  0  0  0  0  0  0  0  0  0  0  0
   45.1870   35.0180   43.9150 C   0  0  0  0  0  0  0  0  0  0  0  0
   45.7140   33.9030   44.7510 C   0  0  0  0  0  0  0  0  0  0  0  0
   47.0600   33.4650   44.2530 C   0  0  0  0  0  0  0  0  0  0  0  0
   48.4260   32.7500   42.3810 C   0  0  0  0  0  0  0  0  0  0  0  0
   49.2740   33.8510   42.4810 C   0  0  0  0  0  0  0  0  0  0  0  0
   50.5620   33.4860   42.2480 C   0  0  0  0  0  0  0  0  0  0  0  0
   50.9510   32.2210   41.9550 N   0  0  0  0  0  0  0  0  0  0  0  0
   50.1150   31.2000   41.8640 C   0  0  0  0  0  0  0  0  0  0  0  0
   48.8500   31.4910   42.0830 N   0  0  0  0  0  0  0  0  0  0  0  0
   49.2030   35.2690   42.7170 C   0  0  0  0  0  0  0  0  0  0  0  0
   49.2220   36.1220   41.4230 C   0  0  0  0  0  0  0  0  0  0  0  0
   46.4966   32.1043   42.5444 H   0  0  0  0  0  0  0  0  0  0  0  0
   45.2828   33.4349   41.7975 H   0  0  0  0  0  0  0  0  0  0  0  0
   46.8109   34.1078   41.0556 H   0  0  0  0  0  0  0  0  0  0  0  0
   46.9778   35.7039   42.9062 H   0  0  0  0  0  0  0  0  0  0  0  0
   45.4731   35.9069   41.9563 H   0  0  0  0  0  0  0  0  0  0  0  0
   45.1999   35.9424   44.5111 H   0  0  0  0  0  0  0  0  0  0  0  0
   44.1658   34.7502   43.6059 H   0  0  0  0  0  0  0  0  0  0  0  0
   45.8066   34.2439   45.7928 H   0  0  0  0  0  0  0  0  0  0  0  0
   45.0182   33.0532   44.6911 H   0  0  0  0  0  0  0  0  0  0  0  0
   47.3975   32.6098   44.8570 H   0  0  0  0  0  0  0  0  0  0  0  0
   47.7432   34.3222   44.3443 H   0  0  0  0  0  0  0  0  0  0  0  0
   51.3367   34.2651   42.3004 H   0  0  0  0  0  0  0  0  0  0  0  0
   50.4525   30.1812   41.6227 H   0  0  0  0  0  0  0  0  0  0  0  0
   48.2707   35.4837   43.2598 H   0  0  0  0  0  0  0  0  0  0  0  0
   50.0992   35.5424   43.2932 H   0  0  0  0  0  0  0  0  0  0  0  0
   49.2458   37.1894   41.6878 H   0  0  0  0  0  0  0  0  0  0  0  0
   50.1148   35.8710   40.8314 H   0  0  0  0  0  0  0  0  0  0  0  0
   48.3189   35.9110   40.8314 H   0  0  0  0  0  0  0  0  0  0  0  0
  1  6  1  0
  2  3  1  0
  2  1  1  0
  3  4  1  0
  4  5  1  0
  6  5  1  0
  7  8  2  0
  7  1  1  0
  8 13  1  0
  9  8  1  0
 10  9  2  0
 11 10  1  0
 11 12  2  0
 12  7  1  0
 14 13  1  0
  1 15  1  0
  2 16  1  0
  2 17  1  0
  3 18  1  0
  3 19  1  0
  4 20  1  0
  4 21  1  0
  5 22  1  0
  5 23  1  0
  6 24  1  0
  6 25  1  0
  9 26  1  0
 11 27  1  0
 13 28  1  0
 13 29  1  0
 14 30  1  0
 14 31  1  0
 14 32  1  0
M  ISO  8  15  13  16  13  17  13  18  13  19  13  20  13  21  13  22  13
M  ISO  8  23  13  24  13  25  13  26  14  27  14  28   8  29   8  30   8
M  ISO  2  31   8  32   8
M  END
>  <minimizedAffinity>  (1) 
-4.14366817

>  <minimizedRMSD>  (1) 
1.61197066

$$$$
