
     RDKit          3D

 34 36  0  0  0  0  0  0  0  0999 V2000
   47.6530   33.5460   43.3200 C   0  0  0  0  0  0  0  0  0  0  0  0
   48.8180   34.3110   42.8630 C   0  0  0  0  0  0  0  0  0  0  0  0
   49.1060   34.1360   41.4400 C   0  0  0  0  0  0  0  0  0  0  0  0
   49.3150   32.6600   41.0910 C   0  0  0  0  0  0  0  0  0  0  0  0
   48.3380   31.7580   41.7590 C   0  0  0  0  0  0  0  0  0  0  0  0
   47.1800   32.5100   42.3560 C   0  0  0  0  0  0  0  0  0  0  0  0
   46.4920   34.3590   43.7440 C   0  0  0  0  0  0  0  0  0  0  0  0
   45.9850   34.0520   44.9930 C   0  0  0  0  0  0  0  0  0  0  0  0
   44.9200   34.8050   45.4120 C   0  0  0  0  0  0  0  0  0  0  0  0
   44.4200   35.8000   44.5920 N   0  0  0  0  0  0  0  0  0  0  0  0
   44.9380   36.0660   43.3870 C   0  0  0  0  0  0  0  0  0  0  0  0
   45.9620   35.3480   42.9770 N   0  0  0  0  0  0  0  0  0  0  0  0
   46.2900   33.1780   45.9130 O   0  0  0  0  0  0  0  0  0  0  0  0
   45.6990   32.7950   47.0950 C   0  0  0  0  0  0  0  0  0  0  0  0
   45.7670   31.2710   47.4270 C   0  0  0  0  0  0  0  0  0  0  0  0
   46.6930   32.1830   48.0980 C   0  0  0  0  0  0  0  0  0  0  0  0
   48.0611   33.0459   44.2107 H   0  0  0  0  0  0  0  0  0  0  0  0
   48.6303   35.3783   43.0521 H   0  0  0  0  0  0  0  0  0  0  0  0
   49.6904   33.9373   43.4192 H   0  0  0  0  0  0  0  0  0  0  0  0
   48.2617   34.5267   40.8531 H   0  0  0  0  0  0  0  0  0  0  0  0
   50.0309   34.6825   41.2037 H   0  0  0  0  0  0  0  0  0  0  0  0
   49.2144   32.5401   40.0022 H   0  0  0  0  0  0  0  0  0  0  0  0
   50.3173   32.3779   41.4457 H   0  0  0  0  0  0  0  0  0  0  0  0
   47.9510   31.0444   41.0167 H   0  0  0  0  0  0  0  0  0  0  0  0
   48.8618   31.2429   42.5777 H   0  0  0  0  0  0  0  0  0  0  0  0
   46.6158   33.0007   41.5492 H   0  0  0  0  0  0  0  0  0  0  0  0
   46.5404   31.7962   42.8957 H   0  0  0  0  0  0  0  0  0  0  0  0
   44.4648   34.6191   46.3960 H   0  0  0  0  0  0  0  0  0  0  0  0
   44.5190   36.8636   42.7559 H   0  0  0  0  0  0  0  0  0  0  0  0
   44.9130   33.5645   47.0913 H   0  0  0  0  0  0  0  0  0  0  0  0
   44.9541   30.7988   47.9982 H   0  0  0  0  0  0  0  0  0  0  0  0
   45.8839   30.3556   46.8284 H   0  0  0  0  0  0  0  0  0  0  0  0
   47.7639   32.1493   47.8488 H   0  0  0  0  0  0  0  0  0  0  0  0
   46.9338   32.3852   49.1521 H   0  0  0  0  0  0  0  0  0  0  0  0
  1  7  1  0
  2  1  1  0
  3  2  1  0
  4  3  1  0
  4  5  1  0
  5  6  1  0
  6  1  1  0
  7  8  1  0
  8  9  2  0
  8 13  1  0
 10  9  1  0
 11 10  2  0
 12 11  1  0
 12  7  2  0
 13 14  1  0
 14 15  1  0
 14 16  1  0
 15 16  1  0
  1 17  1  0
  2 18  1  0
  2 19  1  0
  3 20  1  0
  3 21  1  0
  4 22  1  0
  4 23  1  0
  5 24  1  0
  5 25  1  0
  6 26  1  0
  6 27  1  0
  9 28  1  0
 11 29  1  0
 14 30  1  0
 15 31  1  0
 15 32  1  0
 16 33  1  0
 16 34  1  0
M  ISO  8  17  13  18  13  19  13  20  13  21  13  22  13  23  13  24  13
M  ISO  8  25  13  26  13  27  13  28  14  29  14  30  13  31  13  32  13
M  ISO  2  33  13  34  13
M  END
>  <minimizedAffinity>  (1) 
-4.54892969

>  <minimizedRMSD>  (1) 
5.94137669

$$$$
