
     RDKit          3D

 47 50  0  0  0  0  0  0  0  0999 V2000
   46.1830   34.4440   43.6840 C   0  0  0  0  0  0  0  0  0  0  0  0
   46.2340   33.6210   44.7950 C   0  0  0  0  0  0  0  0  0  0  0  0
   45.4380   33.9600   45.8520 C   0  0  0  0  0  0  0  0  0  0  0  0
   44.6480   35.0670   45.7660 N   0  0  0  0  0  0  0  0  0  0  0  0
   44.6020   35.8600   44.6880 C   0  0  0  0  0  0  0  0  0  0  0  0
   45.3750   35.5220   43.6740 N   0  0  0  0  0  0  0  0  0  0  0  0
   47.0800   34.0800   42.5840 C   0  0  0  0  0  0  0  0  0  0  0  0
   48.4230   34.6320   42.6450 C   0  0  0  0  0  0  0  0  0  0  0  0
   48.7180   35.5940   41.5740 C   0  0  0  0  0  0  0  0  0  0  0  0
   48.5250   34.9580   40.2070 C   0  0  0  0  0  0  0  0  0  0  0  0
   47.2650   34.1710   40.1030 C   0  0  0  0  0  0  0  0  0  0  0  0
   46.3500   34.3930   41.2840 C   0  0  0  0  0  0  0  0  0  0  0  0
   46.9100   32.5280   45.0730 O   0  0  0  0  0  0  0  0  0  0  0  0
   46.6920   31.4110   45.8260 C   0  0  0  0  0  0  0  0  0  0  0  0
   45.7580   30.3930   45.1900 C   0  0  0  0  0  0  0  0  0  0  0  0
   45.7420   29.1730   45.9990 C   0  0  0  0  0  0  0  0  0  0  0  0
   46.8110   28.7670   46.7230 N   0  0  0  0  0  0  0  0  0  0  0  0
   46.7320   27.6070   47.4280 C   0  0  0  0  0  0  0  0  0  0  0  0
   45.6480   26.7790   47.4830 N   0  0  0  0  0  0  0  0  0  0  0  0
   44.5680   27.1700   46.7630 C   0  0  0  0  0  0  0  0  0  0  0  0
   43.4140   26.3920   46.7640 C   0  0  0  0  0  0  0  0  0  0  0  0
   42.2990   26.7590   46.0550 C   0  0  0  0  0  0  0  0  0  0  0  0
   42.3250   27.9270   45.3230 C   0  0  0  0  0  0  0  0  0  0  0  0
   43.4560   28.6860   45.3240 C   0  0  0  0  0  0  0  0  0  0  0  0
   44.6150   28.3570   46.0280 C   0  0  0  0  0  0  0  0  0  0  0  0
   45.4347   33.3451   46.7641 H   0  0  0  0  0  0  0  0  0  0  0  0
   43.9531   36.7474   44.6500 H   0  0  0  0  0  0  0  0  0  0  0  0
   47.2958   33.0042   42.6623 H   0  0  0  0  0  0  0  0  0  0  0  0
   48.5449   35.1416   43.6122 H   0  0  0  0  0  0  0  0  0  0  0  0
   49.1210   33.7909   42.5214 H   0  0  0  0  0  0  0  0  0  0  0  0
   48.0425   36.4570   41.6686 H   0  0  0  0  0  0  0  0  0  0  0  0
   49.7659   35.9150   41.6681 H   0  0  0  0  0  0  0  0  0  0  0  0
   48.5036   35.7553   39.4495 H   0  0  0  0  0  0  0  0  0  0  0  0
   49.3615   34.2617   40.0475 H   0  0  0  0  0  0  0  0  0  0  0  0
   46.7366   34.4692   39.1855 H   0  0  0  0  0  0  0  0  0  0  0  0
   47.5354   33.1049   40.0832 H   0  0  0  0  0  0  0  0  0  0  0  0
   46.0211   35.4426   41.2961 H   0  0  0  0  0  0  0  0  0  0  0  0
   45.4796   33.7266   41.1928 H   0  0  0  0  0  0  0  0  0  0  0  0
   47.6614   30.9229   46.0049 H   0  0  0  0  0  0  0  0  0  0  0  0
   46.2026   31.7487   46.7515 H   0  0  0  0  0  0  0  0  0  0  0  0
   44.7419   30.8109   45.1366 H   0  0  0  0  0  0  0  0  0  0  0  0
   46.1107   30.1555   44.1755 H   0  0  0  0  0  0  0  0  0  0  0  0
   47.6200   27.3095   48.0050 H   0  0  0  0  0  0  0  0  0  0  0  0
   43.3958   25.4599   47.3478 H   0  0  0  0  0  0  0  0  0  0  0  0
   41.3965   26.1303   46.0701 H   0  0  0  0  0  0  0  0  0  0  0  0
   41.4434   28.2420   44.7454 H   0  0  0  0  0  0  0  0  0  0  0  0
   43.4557   29.6145   44.7342 H   0  0  0  0  0  0  0  0  0  0  0  0
  1  2  1  0
  2 13  1  0
  2  3  2  0
  4  3  1  0
  5  4  2  0
  6  1  2  0
  6  5  1  0
  7  8  1  0
  7  1  1  0
  9  8  1  0
 10  9  1  0
 11 10  1  0
 11 12  1  0
 12  7  1  0
 13 14  1  0
 15 14  1  0
 15 16  1  0
 16 25  1  0
 16 17  2  0
 17 18  1  0
 18 19  2  0
 20 21  2  0
 20 19  1  0
 22 21  1  0
 23 24  1  0
 23 22  2  0
 24 25  2  0
 25 20  1  0
  3 26  1  0
  5 27  1  0
  7 28  1  0
  8 29  1  0
  8 30  1  0
  9 31  1  0
  9 32  1  0
 10 33  1  0
 10 34  1  0
 11 35  1  0
 11 36  1  0
 12 37  1  0
 12 38  1  0
 14 39  1  0
 14 40  1  0
 15 41  1  0
 15 42  1  0
 18 43  1  0
 21 44  1  0
 22 45  1  0
 23 46  1  0
 24 47  1  0
M  ISO  8  26  14  27  14  28  13  29  13  30  13  31  13  32  13  33  13
M  ISO  8  34  13  35  13  36  13  37  13  38  13  39   8  40   8  41   8
M  ISO  6  42   8  43  14  44  14  45  14  46  14  47  14
M  END
>  <minimizedAffinity>  (1) 
-6.0922842

>  <minimizedRMSD>  (1) 
3.00179935

$$$$
