
     RDKit          3D

 41 43  0  0  0  0  0  0  0  0999 V2000
   46.5050   34.3250   43.8190 C   0  0  0  0  0  0  0  0  0  0  0  0
   46.0550   33.9890   45.0820 C   0  0  0  0  0  0  0  0  0  0  0  0
   44.9940   34.6980   45.5650 C   0  0  0  0  0  0  0  0  0  0  0  0
   44.4400   35.6810   44.7980 N   0  0  0  0  0  0  0  0  0  0  0  0
   44.8870   35.9950   43.5770 C   0  0  0  0  0  0  0  0  0  0  0  0
   45.9100   35.3120   43.1110 N   0  0  0  0  0  0  0  0  0  0  0  0
   47.6710   33.5670   43.3400 C   0  0  0  0  0  0  0  0  0  0  0  0
   48.7630   34.3570   42.7990 C   0  0  0  0  0  0  0  0  0  0  0  0
   48.9940   34.1560   41.3680 C   0  0  0  0  0  0  0  0  0  0  0  0
   49.2580   32.6860   41.0550 C   0  0  0  0  0  0  0  0  0  0  0  0
   48.3120   31.7660   41.7470 C   0  0  0  0  0  0  0  0  0  0  0  0
   47.1510   32.5040   42.3800 C   0  0  0  0  0  0  0  0  0  0  0  0
   46.4340   33.0970   45.9670 O   0  0  0  0  0  0  0  0  0  0  0  0
   45.8680   32.4380   47.0160 C   0  0  0  0  0  0  0  0  0  0  0  0
   46.7190   32.3420   48.2620 C   0  0  0  0  0  0  0  0  0  0  0  0
   47.5670   31.1450   48.3100 C   0  0  0  0  0  0  0  0  0  0  0  0
   48.5750   31.1950   49.2590 C   0  0  0  0  0  0  0  0  0  0  0  0
   49.4340   30.1060   49.3830 C   0  0  0  0  0  0  0  0  0  0  0  0
   49.3050   29.0130   48.6020 N   0  0  0  0  0  0  0  0  0  0  0  0
   48.3040   28.9920   47.6750 C   0  0  0  0  0  0  0  0  0  0  0  0
   47.4590   30.0330   47.5350 N   0  0  0  0  0  0  0  0  0  0  0  0
   44.5889   34.4790   46.5639 H   0  0  0  0  0  0  0  0  0  0  0  0
   44.4169   36.7941   42.9850 H   0  0  0  0  0  0  0  0  0  0  0  0
   48.1612   33.1029   44.2085 H   0  0  0  0  0  0  0  0  0  0  0  0
   48.5361   35.4203   42.9663 H   0  0  0  0  0  0  0  0  0  0  0  0
   49.6772   34.0311   43.3168 H   0  0  0  0  0  0  0  0  0  0  0  0
   48.1057   34.4880   40.8106 H   0  0  0  0  0  0  0  0  0  0  0  0
   49.8775   34.7404   41.0714 H   0  0  0  0  0  0  0  0  0  0  0  0
   49.1626   32.5358   39.9695 H   0  0  0  0  0  0  0  0  0  0  0  0
   50.2704   32.4491   41.4141 H   0  0  0  0  0  0  0  0  0  0  0  0
   47.9168   31.0479   41.0134 H   0  0  0  0  0  0  0  0  0  0  0  0
   48.8650   31.2571   42.5502 H   0  0  0  0  0  0  0  0  0  0  0  0
   46.5525   32.9855   41.5926 H   0  0  0  0  0  0  0  0  0  0  0  0
   46.5282   31.7882   42.9365 H   0  0  0  0  0  0  0  0  0  0  0  0
   44.9369   32.9602   47.2813 H   0  0  0  0  0  0  0  0  0  0  0  0
   45.7154   31.4034   46.6749 H   0  0  0  0  0  0  0  0  0  0  0  0
   47.3682   33.2288   48.3077 H   0  0  0  0  0  0  0  0  0  0  0  0
   46.0294   32.2803   49.1167 H   0  0  0  0  0  0  0  0  0  0  0  0
   48.6947   32.0788   49.9029 H   0  0  0  0  0  0  0  0  0  0  0  0
   50.2363   30.1374   50.1349 H   0  0  0  0  0  0  0  0  0  0  0  0
   48.1843   28.1091   47.0299 H   0  0  0  0  0  0  0  0  0  0  0  0
  1  2  1  0
  2  3  2  0
  2 13  1  0
  4  3  1  0
  5  4  2  0
  6  5  1  0
  6  1  2  0
  7  1  1  0
  8  7  1  0
  9  8  1  0
 10  9  1  0
 10 11  1  0
 11 12  1  0
 12  7  1  0
 13 14  1  0
 14 15  1  0
 15 16  1  0
 16 17  2  0
 17 18  1  0
 19 18  2  0
 20 19  1  0
 21 20  2  0
 21 16  1  0
  3 22  1  0
  5 23  1  0
  7 24  1  0
  8 25  1  0
  8 26  1  0
  9 27  1  0
  9 28  1  0
 10 29  1  0
 10 30  1  0
 11 31  1  0
 11 32  1  0
 12 33  1  0
 12 34  1  0
 14 35  1  0
 14 36  1  0
 15 37  1  0
 15 38  1  0
 17 39  1  0
 18 40  1  0
 20 41  1  0
M  ISO  8  22  14  23  14  24  13  25  13  26  13  27  13  28  13  29  13
M  ISO  8  30  13  31  13  32  13  33  13  34  13  35   8  36   8  37   8
M  ISO  4  38   8  39  14  40  14  41  14
M  END
>  <minimizedAffinity>  (1) 
-5.05907822

>  <minimizedRMSD>  (1) 
3.01840901

$$$$
