
     RDKit          3D

 35 36  0  0  0  0  0  0  0  0999 V2000
   46.5020   34.3830   43.7360 C   0  0  0  0  0  0  0  0  0  0  0  0
   45.9920   34.0980   44.9880 C   0  0  0  0  0  0  0  0  0  0  0  0
   44.9090   34.8400   45.3950 C   0  0  0  0  0  0  0  0  0  0  0  0
   44.4020   35.7970   44.5680 N   0  0  0  0  0  0  0  0  0  0  0  0
   44.9030   36.0580   43.3670 C   0  0  0  0  0  0  0  0  0  0  0  0
   45.9460   35.3470   42.9670 N   0  0  0  0  0  0  0  0  0  0  0  0
   47.6790   33.6150   43.3350 C   0  0  0  0  0  0  0  0  0  0  0  0
   48.8120   34.3780   42.8370 C   0  0  0  0  0  0  0  0  0  0  0  0
   49.1070   34.1230   41.4200 C   0  0  0  0  0  0  0  0  0  0  0  0
   49.4120   32.6470   41.2100 C   0  0  0  0  0  0  0  0  0  0  0  0
   48.4130   31.7560   41.8590 C   0  0  0  0  0  0  0  0  0  0  0  0
   47.2130   32.5170   42.3880 C   0  0  0  0  0  0  0  0  0  0  0  0
   46.3260   33.2280   45.9240 O   0  0  0  0  0  0  0  0  0  0  0  0
   45.7340   32.7430   47.0560 C   0  0  0  0  0  0  0  0  0  0  0  0
   45.8030   31.2340   47.2080 C   0  0  0  0  0  0  0  0  0  0  0  0
   47.0980   30.7410   46.7880 N   0  0  0  0  0  0  0  0  0  0  0  0
   44.4549   34.6626   46.3811 H   0  0  0  0  0  0  0  0  0  0  0  0
   44.4668   36.8382   42.7259 H   0  0  0  0  0  0  0  0  0  0  0  0
   48.1172   33.1804   44.2455 H   0  0  0  0  0  0  0  0  0  0  0  0
   48.5933   35.4489   42.9608 H   0  0  0  0  0  0  0  0  0  0  0  0
   49.6944   34.0656   43.4148 H   0  0  0  0  0  0  0  0  0  0  0  0
   48.2364   34.4056   40.8100 H   0  0  0  0  0  0  0  0  0  0  0  0
   49.9816   34.7190   41.1200 H   0  0  0  0  0  0  0  0  0  0  0  0
   49.4193   32.4394   40.1298 H   0  0  0  0  0  0  0  0  0  0  0  0
   50.3895   32.4411   41.6706 H   0  0  0  0  0  0  0  0  0  0  0  0
   48.0655   31.0187   41.1203 H   0  0  0  0  0  0  0  0  0  0  0  0
   48.9046   31.2704   42.7149 H   0  0  0  0  0  0  0  0  0  0  0  0
   46.6657   32.9674   41.5468 H   0  0  0  0  0  0  0  0  0  0  0  0
   46.5521   31.8245   42.9299 H   0  0  0  0  0  0  0  0  0  0  0  0
   46.2309   33.1985   47.9253 H   0  0  0  0  0  0  0  0  0  0  0  0
   44.6670   33.0009   46.9850 H   0  0  0  0  0  0  0  0  0  0  0  0
   45.6392   30.9685   48.2628 H   0  0  0  0  0  0  0  0  0  0  0  0
   45.0265   30.7769   46.5771 H   0  0  0  0  0  0  0  0  0  0  0  0
   47.6683   30.5239   47.6178 H   0  0  0  0  0  0  0  0  0  0  0  0
   46.9742   29.8882   46.2237 H   0  0  0  0  0  0  0  0  0  0  0  0
  1  2  2  0
  2  3  1  0
  2 13  1  0
  4  3  2  0
  5  4  1  0
  6  5  2  0
  6  1  1  0
  7  1  1  0
  8  7  1  0
  9  8  1  0
 10  9  1  0
 10 11  1  0
 11 12  1  0
 12  7  1  0
 13 14  1  0
 14 15  1  0
 16 15  1  0
  3 17  1  0
  5 18  1  0
  7 19  1  0
  8 20  1  0
  8 21  1  0
  9 22  1  0
  9 23  1  0
 10 24  1  0
 10 25  1  0
 11 26  1  0
 11 27  1  0
 12 28  1  0
 12 29  1  0
 14 30  1  0
 14 31  1  0
 15 32  1  0
 15 33  1  0
 16 34  1  0
 16 35  1  0
M  ISO  8  17  14  18  14  19  13  20  13  21  13  22  13  23  13  24  13
M  ISO  8  25  13  26  13  27  13  28  13  29  13  30   8  31   8  32   8
M  ISO  3  33   8  34   5  35   5
M  END
>  <minimizedAffinity>  (1) 
-4.18852663

>  <minimizedRMSD>  (1) 
0.0954188406

$$$$
