
     RDKit          3D

 34 35  0  0  0  0  0  0  0  0999 V2000
   47.6750   33.6110   43.3430 C   0  0  0  0  0  0  0  0  0  0  0  0
   48.8000   34.3690   42.8230 C   0  0  0  0  0  0  0  0  0  0  0  0
   49.0780   34.0980   41.4030 C   0  0  0  0  0  0  0  0  0  0  0  0
   49.3520   32.6210   41.1720 C   0  0  0  0  0  0  0  0  0  0  0  0
   48.3860   31.7280   41.8870 C   0  0  0  0  0  0  0  0  0  0  0  0
   47.1970   32.5010   42.4170 C   0  0  0  0  0  0  0  0  0  0  0  0
   46.4990   34.3850   43.7390 C   0  0  0  0  0  0  0  0  0  0  0  0
   45.9820   34.1060   44.9920 C   0  0  0  0  0  0  0  0  0  0  0  0
   44.9070   34.8450   45.3970 C   0  0  0  0  0  0  0  0  0  0  0  0
   44.4000   35.8020   44.5690 N   0  0  0  0  0  0  0  0  0  0  0  0
   44.9030   36.0640   43.3610 C   0  0  0  0  0  0  0  0  0  0  0  0
   45.9400   35.3500   42.9750 N   0  0  0  0  0  0  0  0  0  0  0  0
   46.3170   33.2370   45.9300 O   0  0  0  0  0  0  0  0  0  0  0  0
   45.7330   32.7580   47.0670 C   0  0  0  0  0  0  0  0  0  0  0  0
   45.7710   31.2470   47.2200 C   0  0  0  0  0  0  0  0  0  0  0  0
   46.4540   30.4190   45.7660 S   0  0  0  0  0  0  0  0  0  0  0  0
   48.1252   33.1893   44.2538 H   0  0  0  0  0  0  0  0  0  0  0  0
   48.5816   35.4410   42.9376 H   0  0  0  0  0  0  0  0  0  0  0  0
   49.6899   34.0641   43.3932 H   0  0  0  0  0  0  0  0  0  0  0  0
   48.2075   34.4003   40.8023 H   0  0  0  0  0  0  0  0  0  0  0  0
   49.9696   34.6697   41.1059 H   0  0  0  0  0  0  0  0  0  0  0  0
   49.2857   32.4167   40.0932 H   0  0  0  0  0  0  0  0  0  0  0  0
   50.3549   32.4063   41.5697 H   0  0  0  0  0  0  0  0  0  0  0  0
   48.0278   30.9578   41.1880 H   0  0  0  0  0  0  0  0  0  0  0  0
   48.9077   31.2723   42.7415 H   0  0  0  0  0  0  0  0  0  0  0  0
   46.6428   32.9412   41.5749 H   0  0  0  0  0  0  0  0  0  0  0  0
   46.5403   31.8187   42.9766 H   0  0  0  0  0  0  0  0  0  0  0  0
   44.4538   34.6693   46.3838 H   0  0  0  0  0  0  0  0  0  0  0  0
   44.4702   36.8426   42.7157 H   0  0  0  0  0  0  0  0  0  0  0  0
   46.2513   33.2016   47.9299 H   0  0  0  0  0  0  0  0  0  0  0  0
   44.6700   33.0346   47.0069 H   0  0  0  0  0  0  0  0  0  0  0  0
   46.3923   30.9966   48.0925 H   0  0  0  0  0  0  0  0  0  0  0  0
   44.7354   30.8985   47.3465 H   0  0  0  0  0  0  0  0  0  0  0  0
   47.2878   29.4081   46.1657 H   0  0  0  0  0  0  0  0  0  0  0  0
  1  7  1  0
  2  1  1  0
  3  2  1  0
  4  3  1  0
  4  5  1  0
  5  6  1  0
  6  1  1  0
  7  8  2  0
  8  9  1  0
  8 13  1  0
 10  9  2  0
 11 10  1  0
 12 11  2  0
 12  7  1  0
 13 14  1  0
 14 15  1  0
 16 15  1  0
  1 17  1  0
  2 18  1  0
  2 19  1  0
  3 20  1  0
  3 21  1  0
  4 22  1  0
  4 23  1  0
  5 24  1  0
  5 25  1  0
  6 26  1  0
  6 27  1  0
  9 28  1  0
 11 29  1  0
 14 30  1  0
 14 31  1  0
 15 32  1  0
 15 33  1  0
 16 34  1  0
M  ISO  8  17  13  18  13  19  13  20  13  21  13  22  13  23  13  24  13
M  ISO  8  25  13  26  13  27  13  28  14  29  14  30   8  31   8  32   8
M  ISO  2  33   8  34  11
M  END
>  <minimizedAffinity>  (1) 
-4.15288973

>  <minimizedRMSD>  (1) 
0.392822862

$$$$
