
     RDKit          3D

 41 42  0  0  0  0  0  0  0  0999 V2000
   46.1220   34.5930   43.5970 C   0  0  0  0  0  0  0  0  0  0  0  0
   46.1560   33.8360   44.7560 C   0  0  0  0  0  0  0  0  0  0  0  0
   45.3310   34.2360   45.7790 C   0  0  0  0  0  0  0  0  0  0  0  0
   44.5360   35.3320   45.6090 N   0  0  0  0  0  0  0  0  0  0  0  0
   44.5130   36.0470   44.4910 C   0  0  0  0  0  0  0  0  0  0  0  0
   45.3090   35.6610   43.5070 N   0  0  0  0  0  0  0  0  0  0  0  0
   47.0390   34.1760   42.5390 C   0  0  0  0  0  0  0  0  0  0  0  0
   48.3960   34.6950   42.6150 C   0  0  0  0  0  0  0  0  0  0  0  0
   48.7280   35.6190   41.5140 C   0  0  0  0  0  0  0  0  0  0  0  0
   48.5550   34.9310   40.1650 C   0  0  0  0  0  0  0  0  0  0  0  0
   47.3050   34.1270   40.0690 C   0  0  0  0  0  0  0  0  0  0  0  0
   46.3490   34.4340   41.2060 C   0  0  0  0  0  0  0  0  0  0  0  0
   46.8370   32.7610   45.1140 O   0  0  0  0  0  0  0  0  0  0  0  0
   47.1790   32.1800   46.3010 C   0  0  0  0  0  0  0  0  0  0  0  0
   47.2160   30.6620   46.2710 C   0  0  0  0  0  0  0  0  0  0  0  0
   46.0020   30.0860   45.7410 N   0  0  0  0  0  0  0  0  0  0  0  0
   45.1720   29.3250   47.0730 S   0  0  0  0  0  0  0  0  0  0  0  0
   44.0440   28.4810   46.5930 O   0  0  0  0  0  0  0  0  0  0  0  0
   44.6700   30.4210   47.9640 O   0  0  0  0  0  0  0  0  0  0  0  0
   46.2330   28.3810   47.9700 O   0  0  0  0  0  0  0  0  0  0  0  0
   45.3114   33.6778   46.7267 H   0  0  0  0  0  0  0  0  0  0  0  0
   43.8586   36.9250   44.3867 H   0  0  0  0  0  0  0  0  0  0  0  0
   47.2350   33.1015   42.6698 H   0  0  0  0  0  0  0  0  0  0  0  0
   48.5122   35.2313   43.5684 H   0  0  0  0  0  0  0  0  0  0  0  0
   49.0789   33.8361   42.5377 H   0  0  0  0  0  0  0  0  0  0  0  0
   48.0616   36.4928   41.5621 H   0  0  0  0  0  0  0  0  0  0  0  0
   49.7767   35.9337   41.6195 H   0  0  0  0  0  0  0  0  0  0  0  0
   48.5355   35.7015   39.3802 H   0  0  0  0  0  0  0  0  0  0  0  0
   49.3991   34.2362   40.0433 H   0  0  0  0  0  0  0  0  0  0  0  0
   46.8078   34.3544   39.1145 H   0  0  0  0  0  0  0  0  0  0  0  0
   47.5774   33.0630   40.1292 H   0  0  0  0  0  0  0  0  0  0  0  0
   46.0419   35.4888   41.1511 H   0  0  0  0  0  0  0  0  0  0  0  0
   45.4632   33.7872   41.1225 H   0  0  0  0  0  0  0  0  0  0  0  0
   48.1777   32.5426   46.5860 H   0  0  0  0  0  0  0  0  0  0  0  0
   46.3979   32.4599   47.0231 H   0  0  0  0  0  0  0  0  0  0  0  0
   48.0606   30.3428   45.6428 H   0  0  0  0  0  0  0  0  0  0  0  0
   47.3255   30.3114   47.3079 H   0  0  0  0  0  0  0  0  0  0  0  0
   45.4108   30.8231   45.3310 H   0  0  0  0  0  0  0  0  0  0  0  0
   43.5529   28.1135   47.3701 H   0  0  0  0  0  0  0  0  0  0  0  0
   44.7905   30.1579   48.9108 H   0  0  0  0  0  0  0  0  0  0  0  0
   46.0691   28.5269   48.9354 H   0  0  0  0  0  0  0  0  0  0  0  0
  1  2  2  0
  2 13  1  0
  2  3  1  0
  4  3  2  0
  5  4  1  0
  6  1  1  0
  6  5  2  0
  7  8  1  0
  7  1  1  0
  9  8  1  0
 10  9  1  0
 11 10  1  0
 11 12  1  0
 12  7  1  0
 13 14  1  0
 15 14  1  0
 16 15  1  0
 16 17  1  0
 17 19  1  0
 17 20  1  0
 18 17  1  0
  3 21  1  0
  5 22  1  0
  7 23  1  0
  8 24  1  0
  8 25  1  0
  9 26  1  0
  9 27  1  0
 10 28  1  0
 10 29  1  0
 11 30  1  0
 11 31  1  0
 12 32  1  0
 12 33  1  0
 14 34  1  0
 14 35  1  0
 15 36  1  0
 15 37  1  0
 16 38  1  0
 18 39  1  0
 19 40  1  0
 20 41  1  0
M  ISO  8  21  14  22  14  23  13  24  13  25  13  26  13  27  13  28  13
M  ISO  8  29  13  30  13  31  13  32  13  33  13  34   8  35   8  36   8
M  ISO  5  37   8  38   5  39   3  40   3  41   3
M  END
>  <minimizedAffinity>  (1) 
-5.34003973

>  <minimizedRMSD>  (1) 
1.70009983

$$$$
