
     RDKit          3D

 48 50  0  0  0  0  0  0  0  0999 V2000
   46.1570   34.5680   43.6100 C   0  0  0  0  0  0  0  0  0  0  0  0
   46.1550   33.8000   44.7500 C   0  0  0  0  0  0  0  0  0  0  0  0
   45.3260   34.1900   45.7610 C   0  0  0  0  0  0  0  0  0  0  0  0
   44.5530   35.2880   45.6120 N   0  0  0  0  0  0  0  0  0  0  0  0
   44.5530   36.0270   44.5160 C   0  0  0  0  0  0  0  0  0  0  0  0
   45.3570   35.6560   43.5290 N   0  0  0  0  0  0  0  0  0  0  0  0
   46.9980   34.1110   42.4960 C   0  0  0  0  0  0  0  0  0  0  0  0
   48.3850   34.6800   42.5880 C   0  0  0  0  0  0  0  0  0  0  0  0
   48.6980   35.5730   41.4710 C   0  0  0  0  0  0  0  0  0  0  0  0
   48.5100   34.8860   40.1330 C   0  0  0  0  0  0  0  0  0  0  0  0
   47.2570   34.1020   40.0450 C   0  0  0  0  0  0  0  0  0  0  0  0
   46.3280   34.3970   41.2010 C   0  0  0  0  0  0  0  0  0  0  0  0
   46.8340   32.6990   45.0790 O   0  0  0  0  0  0  0  0  0  0  0  0
   47.2430   32.1440   46.2540 C   0  0  0  0  0  0  0  0  0  0  0  0
   47.1330   30.6320   46.3030 C   0  0  0  0  0  0  0  0  0  0  0  0
   45.9840   30.1390   45.5850 N   0  0  0  0  0  0  0  0  0  0  0  0
   44.8370   29.5680   46.7710 S   0  0  0  0  0  0  0  0  0  0  0  0
   43.5880   29.0630   46.1190 O   0  0  0  0  0  0  0  0  0  0  0  0
   44.5310   30.7140   47.6800 O   0  0  0  0  0  0  0  0  0  0  0  0
   45.5130   28.3470   47.6980 O   0  0  0  0  0  0  0  0  0  0  0  0
   44.9160   27.0930   47.6260 C   0  0  0  0  0  0  0  0  0  0  0  0
   44.7070   26.0290   46.7550 C   0  0  0  0  0  0  0  0  0  0  0  0
   43.9750   25.0770   47.4600 C   0  0  0  0  0  0  0  0  0  0  0  0
   43.7570   25.5580   48.6990 N   0  0  0  0  0  0  0  0  0  0  0  0
   44.3180   26.7650   48.8070 N   0  0  0  0  0  0  0  0  0  0  0  0
   45.2871   33.6115   46.6958 H   0  0  0  0  0  0  0  0  0  0  0  0
   43.9108   36.9155   44.4262 H   0  0  0  0  0  0  0  0  0  0  0  0
   47.1218   33.0199   42.5601 H   0  0  0  0  0  0  0  0  0  0  0  0
   48.4731   35.2454   43.5275 H   0  0  0  0  0  0  0  0  0  0  0  0
   49.0946   33.8401   42.5544 H   0  0  0  0  0  0  0  0  0  0  0  0
   48.0341   36.4488   41.5182 H   0  0  0  0  0  0  0  0  0  0  0  0
   49.7530   35.8723   41.5571 H   0  0  0  0  0  0  0  0  0  0  0  0
   48.4967   35.6540   39.3456 H   0  0  0  0  0  0  0  0  0  0  0  0
   49.3442   34.1794   40.0109 H   0  0  0  0  0  0  0  0  0  0  0  0
   46.7454   34.3527   39.1041 H   0  0  0  0  0  0  0  0  0  0  0  0
   47.5185   33.0341   40.0803 H   0  0  0  0  0  0  0  0  0  0  0  0
   46.0382   35.4577   41.1703 H   0  0  0  0  0  0  0  0  0  0  0  0
   45.4378   33.7568   41.1131 H   0  0  0  0  0  0  0  0  0  0  0  0
   48.2959   32.4180   46.4161 H   0  0  0  0  0  0  0  0  0  0  0  0
   46.5741   32.5335   47.0355 H   0  0  0  0  0  0  0  0  0  0  0  0
   48.0403   30.1976   45.8579 H   0  0  0  0  0  0  0  0  0  0  0  0
   47.0198   30.3389   47.3572 H   0  0  0  0  0  0  0  0  0  0  0  0
   45.5658   30.8965   45.0262 H   0  0  0  0  0  0  0  0  0  0  0  0
   42.9357   28.7992   46.8154 H   0  0  0  0  0  0  0  0  0  0  0  0
   44.6099   30.4185   48.6216 H   0  0  0  0  0  0  0  0  0  0  0  0
   45.0523   25.9542   45.7133 H   0  0  0  0  0  0  0  0  0  0  0  0
   43.6352   24.1048   47.0736 H   0  0  0  0  0  0  0  0  0  0  0  0
   43.2395   25.0718   49.4451 H   0  0  0  0  0  0  0  0  0  0  0  0
  1  2  1  0
  2 13  1  0
  2  3  2  0
  4  3  1  0
  5  4  2  0
  6  1  2  0
  6  5  1  0
  7  8  1  0
  7  1  1  0
  9  8  1  0
 10  9  1  0
 11 10  1  0
 11 12  1  0
 12  7  1  0
 13 14  1  0
 14 15  1  0
 16 15  1  0
 16 17  1  0
 17 19  1  0
 17 20  1  0
 18 17  1  0
 21 20  1  0
 21 25  2  0
 22 23  2  0
 22 21  1  0
 23 24  1  0
 24 25  1  0
  3 26  1  0
  5 27  1  0
  7 28  1  0
  8 29  1  0
  8 30  1  0
  9 31  1  0
  9 32  1  0
 10 33  1  0
 10 34  1  0
 11 35  1  0
 11 36  1  0
 12 37  1  0
 12 38  1  0
 14 39  1  0
 14 40  1  0
 15 41  1  0
 15 42  1  0
 16 43  1  0
 18 44  1  0
 19 45  1  0
 22 46  1  0
 23 47  1  0
 24 48  1  0
M  ISO  8  26  14  27  14  28  13  29  13  30  13  31  13  32  13  33  13
M  ISO  8  34  13  35  13  36  13  37  13  38  13  39   8  40   8  41   8
M  ISO  7  42   8  43   5  44   3  45   3  46  14  47  14  48   9
M  END
>  <minimizedAffinity>  (1) 
-5.90057945

>  <minimizedRMSD>  (1) 
1.38765657

$$$$
