
     RDKit          3D

 48 50  0  0  0  0  0  0  0  0999 V2000
   46.1590   34.5650   43.6080 C   0  0  0  0  0  0  0  0  0  0  0  0
   46.1600   33.7970   44.7470 C   0  0  0  0  0  0  0  0  0  0  0  0
   45.3290   34.1890   45.7600 C   0  0  0  0  0  0  0  0  0  0  0  0
   44.5540   35.2840   45.6140 N   0  0  0  0  0  0  0  0  0  0  0  0
   44.5520   36.0270   44.5090 C   0  0  0  0  0  0  0  0  0  0  0  0
   45.3560   35.6460   43.5350 N   0  0  0  0  0  0  0  0  0  0  0  0
   47.0040   34.1090   42.4970 C   0  0  0  0  0  0  0  0  0  0  0  0
   48.3900   34.6830   42.5870 C   0  0  0  0  0  0  0  0  0  0  0  0
   48.7050   35.5770   41.4750 C   0  0  0  0  0  0  0  0  0  0  0  0
   48.5150   34.8990   40.1370 C   0  0  0  0  0  0  0  0  0  0  0  0
   47.2660   34.1100   40.0450 C   0  0  0  0  0  0  0  0  0  0  0  0
   46.3370   34.3970   41.2020 C   0  0  0  0  0  0  0  0  0  0  0  0
   46.8380   32.6990   45.0840 O   0  0  0  0  0  0  0  0  0  0  0  0
   47.2450   32.1490   46.2670 C   0  0  0  0  0  0  0  0  0  0  0  0
   47.1250   30.6300   46.3060 C   0  0  0  0  0  0  0  0  0  0  0  0
   45.9910   30.1550   45.5580 N   0  0  0  0  0  0  0  0  0  0  0  0
   44.8060   29.5850   46.7060 S   0  0  0  0  0  0  0  0  0  0  0  0
   43.5630   29.1230   46.0080 O   0  0  0  0  0  0  0  0  0  0  0  0
   44.5020   30.7230   47.6300 O   0  0  0  0  0  0  0  0  0  0  0  0
   45.4310   28.3440   47.6410 O   0  0  0  0  0  0  0  0  0  0  0  0
   44.8450   27.1080   47.6600 C   0  0  0  0  0  0  0  0  0  0  0  0
   45.5900   26.0730   48.2300 C   0  0  0  0  0  0  0  0  0  0  0  0
   44.8340   24.9160   48.1540 C   0  0  0  0  0  0  0  0  0  0  0  0
   43.6550   25.3290   47.5300 C   0  0  0  0  0  0  0  0  0  0  0  0
   43.7190   26.6050   47.2680 O   0  0  0  0  0  0  0  0  0  0  0  0
   45.2923   33.6109   46.6951 H   0  0  0  0  0  0  0  0  0  0  0  0
   43.9108   36.9156   44.4130 H   0  0  0  0  0  0  0  0  0  0  0  0
   47.1300   33.0184   42.5655 H   0  0  0  0  0  0  0  0  0  0  0  0
   48.4765   35.2473   43.5272 H   0  0  0  0  0  0  0  0  0  0  0  0
   49.0997   33.8434   42.5488 H   0  0  0  0  0  0  0  0  0  0  0  0
   48.0443   36.4550   41.5261 H   0  0  0  0  0  0  0  0  0  0  0  0
   49.7614   35.8710   41.5619 H   0  0  0  0  0  0  0  0  0  0  0  0
   48.4964   35.6722   39.3548 H   0  0  0  0  0  0  0  0  0  0  0  0
   49.3512   34.1957   40.0099 H   0  0  0  0  0  0  0  0  0  0  0  0
   46.7533   34.3624   39.1051 H   0  0  0  0  0  0  0  0  0  0  0  0
   47.5315   33.0429   40.0750 H   0  0  0  0  0  0  0  0  0  0  0  0
   46.0440   35.4569   41.1750 H   0  0  0  0  0  0  0  0  0  0  0  0
   45.4503   33.7525   41.1108 H   0  0  0  0  0  0  0  0  0  0  0  0
   48.2985   32.4191   46.4321 H   0  0  0  0  0  0  0  0  0  0  0  0
   46.5840   32.5454   47.0518 H   0  0  0  0  0  0  0  0  0  0  0  0
   48.0394   30.1913   45.8799 H   0  0  0  0  0  0  0  0  0  0  0  0
   46.9878   30.3289   47.3550 H   0  0  0  0  0  0  0  0  0  0  0  0
   45.5950   30.9214   44.9952 H   0  0  0  0  0  0  0  0  0  0  0  0
   42.8818   28.8698   46.6802 H   0  0  0  0  0  0  0  0  0  0  0  0
   44.5837   30.4173   48.5681 H   0  0  0  0  0  0  0  0  0  0  0  0
   46.5977   26.1616   48.6622 H   0  0  0  0  0  0  0  0  0  0  0  0
   45.0997   23.9074   48.5034 H   0  0  0  0  0  0  0  0  0  0  0  0
   42.8011   24.6766   47.2949 H   0  0  0  0  0  0  0  0  0  0  0  0
  1  2  1  0
  2 13  1  0
  2  3  2  0
  4  3  1  0
  5  4  2  0
  6  1  2  0
  6  5  1  0
  7  8  1  0
  7  1  1  0
  9  8  1  0
 10  9  1  0
 11 10  1  0
 11 12  1  0
 12  7  1  0
 13 14  1  0
 14 15  1  0
 16 15  1  0
 16 17  1  0
 17 19  1  0
 17 20  1  0
 18 17  1  0
 20 21  1  0
 21 22  2  0
 23 22  1  0
 24 23  2  0
 25 24  1  0
 25 21  1  0
  3 26  1  0
  5 27  1  0
  7 28  1  0
  8 29  1  0
  8 30  1  0
  9 31  1  0
  9 32  1  0
 10 33  1  0
 10 34  1  0
 11 35  1  0
 11 36  1  0
 12 37  1  0
 12 38  1  0
 14 39  1  0
 14 40  1  0
 15 41  1  0
 15 42  1  0
 16 43  1  0
 18 44  1  0
 19 45  1  0
 22 46  1  0
 23 47  1  0
 24 48  1  0
M  ISO  8  26  14  27  14  28  13  29  13  30  13  31  13  32  13  33  13
M  ISO  8  34  13  35  13  36  13  37  13  38  13  39   8  40   8  41   8
M  ISO  7  42   8  43   5  44   3  45   3  46  14  47  14  48  14
M  END
>  <minimizedAffinity>  (1) 
-5.75281954

>  <minimizedRMSD>  (1) 
1.81469738

$$$$
