
     RDKit          3D

 28 29  0  0  1  0  0  0  0  0999 V2000
   46.7530   34.0950   42.2460 C   0  0  1  0  0  0  0  0  0  0  0  0
   45.9730   34.3030   40.9800 C   0  0  0  0  0  0  0  0  0  0  0  0
   46.8100   33.6810   39.8690 C   0  0  0  0  0  0  0  0  0  0  0  0
   48.0350   34.5550   39.6960 C   0  0  0  0  0  0  0  0  0  0  0  0
   48.8200   34.6830   40.9480 C   0  0  0  0  0  0  0  0  0  0  0  0
   48.0510   34.8670   42.2050 C   0  0  2  0  0  0  0  0  0  0  0  0
   44.5010   35.9150   44.7030 C   0  0  0  0  0  0  0  0  0  0  0  0
   45.1670   35.6350   43.5030 C   0  0  0  0  0  0  0  0  0  0  0  0
   45.9970   34.4970   43.4460 C   0  0  0  0  0  0  0  0  0  0  0  0
   46.0860   33.7480   44.5840 N   0  0  0  0  0  0  0  0  0  0  0  0
   45.4390   34.0370   45.7160 C   0  0  0  0  0  0  0  0  0  0  0  0
   44.6480   35.1110   45.7910 N   0  0  0  0  0  0  0  0  0  0  0  0
   48.8980   34.4340   43.3080 N   0  0  0  0  0  0  0  0  0  0  0  0
   46.9556   33.0158   42.3119 H   0  0  0  0  0  0  0  0  0  0  0  0
   44.9945   33.8049   41.0469 H   0  0  0  0  0  0  0  0  0  0  0  0
   45.7816   35.3700   40.7934 H   0  0  0  0  0  0  0  0  0  0  0  0
   47.1104   32.6604   40.1485 H   0  0  0  0  0  0  0  0  0  0  0  0
   46.2362   33.6192   38.9326 H   0  0  0  0  0  0  0  0  0  0  0  0
   48.6773   34.1132   38.9200 H   0  0  0  0  0  0  0  0  0  0  0  0
   47.6919   35.5605   39.4111 H   0  0  0  0  0  0  0  0  0  0  0  0
   49.4229   33.7695   41.0575 H   0  0  0  0  0  0  0  0  0  0  0  0
   49.4024   35.6085   40.8290 H   0  0  0  0  0  0  0  0  0  0  0  0
   47.7771   35.9300   42.2758 H   0  0  0  0  0  0  0  0  0  0  0  0
   43.8490   36.7986   44.7669 H   0  0  0  0  0  0  0  0  0  0  0  0
   45.0453   36.2876   42.6259 H   0  0  0  0  0  0  0  0  0  0  0  0
   45.5584   33.3852   46.5940 H   0  0  0  0  0  0  0  0  0  0  0  0
   48.4429   34.6667   44.2022 H   0  0  0  0  0  0  0  0  0  0  0  0
   49.0422   33.4158   43.2509 H   0  0  0  0  0  0  0  0  0  0  0  0
  1  9  1  0
  2  1  1  0
  3  2  1  0
  4  3  1  0
  4  5  1  0
  5  6  1  0
  6  1  1  0
  6 13  1  0
  7 12  2  0
  8  7  1  0
  9  8  2  0
  9 10  1  0
 10 11  2  0
 11 12  1  0
  1 14  1  1
  2 15  1  0
  2 16  1  0
  3 17  1  0
  3 18  1  0
  4 19  1  0
  4 20  1  0
  5 21  1  0
  5 22  1  0
  6 23  1  1
  7 24  1  0
  8 25  1  0
 11 26  1  0
 13 27  1  0
 13 28  1  0
M  ISO  8  14  13  15  13  16  13  17  13  18  13  19  13  20  13  21  13
M  ISO  7  22  13  23  13  24  14  25  14  26  14  27   5  28   5
M  END
>  <minimizedAffinity>  (1) 
-5.0042963

>  <minimizedRMSD>  (1) 
0.360236108

$$$$
