
     RDKit          3D

 26 28  0  0  0  0  0  0  0  0999 V2000
   44.8380   33.0850   41.1350 Cl  0  0  0  0  0  0  0  0  0  0  0  0
   46.3530   33.9330   40.9140 C   0  0  0  0  0  0  0  0  0  0  0  0
   46.8420   34.7160   41.9160 C   0  0  0  0  0  0  0  0  0  0  0  0
   48.0500   35.4040   41.7650 C   0  0  0  0  0  0  0  0  0  0  0  0
   48.7010   35.2440   40.5650 C   0  0  0  0  0  0  0  0  0  0  0  0
   48.1950   34.4460   39.5570 C   0  0  0  0  0  0  0  0  0  0  0  0
   47.0210   33.7890   39.7270 C   0  0  0  0  0  0  0  0  0  0  0  0
   45.6070   34.0510   45.3220 C   0  0  0  0  0  0  0  0  0  0  0  0
   44.7140   35.1130   45.5260 C   0  0  0  0  0  0  0  0  0  0  0  0
   44.5410   36.0460   44.5040 C   0  0  0  0  0  0  0  0  0  0  0  0
   45.2490   35.8710   43.3640 N   0  0  0  0  0  0  0  0  0  0  0  0
   46.1040   34.8490   43.1760 C   0  0  0  0  0  0  0  0  0  0  0  0
   46.2840   33.9350   44.1590 N   0  0  0  0  0  0  0  0  0  0  0  0
   46.4600   32.9400   38.6800 C   0  0  0  0  0  0  0  0  0  0  0  0
   45.6090   33.3050   37.7050 N   0  0  0  0  0  0  0  0  0  0  0  0
   45.3370   32.2190   36.9500 C   0  0  0  0  0  0  0  0  0  0  0  0
   46.0210   31.1630   37.4510 N   0  0  0  0  0  0  0  0  0  0  0  0
   46.6960   31.6250   38.5040 N   0  0  0  0  0  0  0  0  0  0  0  0
   48.4579   36.0399   42.5646 H   0  0  0  0  0  0  0  0  0  0  0  0
   49.6546   35.7676   40.4021 H   0  0  0  0  0  0  0  0  0  0  0  0
   48.7475   34.3431   38.6114 H   0  0  0  0  0  0  0  0  0  0  0  0
   45.7575   33.3054   46.1167 H   0  0  0  0  0  0  0  0  0  0  0  0
   44.1615   35.2081   46.4724 H   0  0  0  0  0  0  0  0  0  0  0  0
   43.8522   36.8957   44.6206 H   0  0  0  0  0  0  0  0  0  0  0  0
   44.6713   32.1959   36.0746 H   0  0  0  0  0  0  0  0  0  0  0  0
   46.0200   30.1979   37.0913 H   0  0  0  0  0  0  0  0  0  0  0  0
  2  1  1  0
  2  3  2  0
  3 12  1  0
  4  3  1  0
  5  4  2  0
  6  7  2  0
  6  5  1  0
  7  2  1  0
  8  9  2  0
 10  9  1  0
 11 10  2  0
 12 11  1  0
 12 13  2  0
 13  8  1  0
 14  7  1  0
 15 14  1  0
 16 17  1  0
 16 15  2  0
 17 18  1  0
 18 14  2  0
  4 19  1  0
  5 20  1  0
  6 21  1  0
  8 22  1  0
  9 23  1  0
 10 24  1  0
 16 25  1  0
 17 26  1  0
M  ISO  8  19  14  20  14  21  14  22  14  23  14  24  14  25  14  26   9
M  END
>  <minimizedAffinity>  (1) 
-5.30475998

>  <minimizedRMSD>  (1) 
0.24720408

$$$$
