
     RDKit          3D

 37 41  0  0  0  0  0  0  0  0999 V2000
   44.8800   33.2340   41.1320 Cl  0  0  0  0  0  0  0  0  0  0  0  0
   46.4060   34.0730   40.9930 C   0  0  0  0  0  0  0  0  0  0  0  0
   46.8910   34.7670   42.0550 C   0  0  0  0  0  0  0  0  0  0  0  0
   48.1140   35.4480   41.9670 C   0  0  0  0  0  0  0  0  0  0  0  0
   48.7750   35.3680   40.7690 C   0  0  0  0  0  0  0  0  0  0  0  0
   48.2720   34.6570   39.6950 C   0  0  0  0  0  0  0  0  0  0  0  0
   47.0860   34.0080   39.8050 C   0  0  0  0  0  0  0  0  0  0  0  0
   46.5280   33.2520   38.6960 C   0  0  0  0  0  0  0  0  0  0  0  0
   45.2260   32.9680   38.4790 N   0  0  0  0  0  0  0  0  0  0  0  0
   45.1260   32.2480   37.3460 C   0  0  0  0  0  0  0  0  0  0  0  0
   46.3620   32.0750   36.8470 N   0  0  0  0  0  0  0  0  0  0  0  0
   47.1990   32.6850   37.6710 N   0  0  0  0  0  0  0  0  0  0  0  0
   45.8480   31.0170   34.6870 N   0  0  0  0  0  0  0  0  0  0  0  0
   46.7000   31.3690   35.6580 C   0  0  0  0  0  0  0  0  0  0  0  0
   47.9320   30.9450   35.3220 N   0  0  0  0  0  0  0  0  0  0  0  0
   47.8630   30.3120   34.1190 C   0  0  0  0  0  0  0  0  0  0  0  0
   48.8790   29.7170   33.3860 C   0  0  0  0  0  0  0  0  0  0  0  0
   48.5210   29.1510   32.2010 N   0  0  0  0  0  0  0  0  0  0  0  0
   47.2180   29.1920   31.7960 C   0  0  0  0  0  0  0  0  0  0  0  0
   46.2600   29.7760   32.5300 N   0  0  0  0  0  0  0  0  0  0  0  0
   46.5340   30.3660   33.7290 C   0  0  0  0  0  0  0  0  0  0  0  0
   45.6630   33.9220   45.4180 C   0  0  0  0  0  0  0  0  0  0  0  0
   44.7350   34.9420   45.6570 C   0  0  0  0  0  0  0  0  0  0  0  0
   44.5360   35.9030   44.6780 C   0  0  0  0  0  0  0  0  0  0  0  0
   45.2540   35.8010   43.5390 N   0  0  0  0  0  0  0  0  0  0  0  0
   46.1460   34.8200   43.3120 C   0  0  0  0  0  0  0  0  0  0  0  0
   46.3500   33.8780   44.2540 N   0  0  0  0  0  0  0  0  0  0  0  0
   48.5216   36.0169   42.8156 H   0  0  0  0  0  0  0  0  0  0  0  0
   49.7385   35.8871   40.6581 H   0  0  0  0  0  0  0  0  0  0  0  0
   48.8343   34.6177   38.7504 H   0  0  0  0  0  0  0  0  0  0  0  0
   44.1933   31.8669   36.9045 H   0  0  0  0  0  0  0  0  0  0  0  0
   44.8367   31.2118   34.6750 H   0  0  0  0  0  0  0  0  0  0  0  0
   49.9192   29.7032   33.7434 H   0  0  0  0  0  0  0  0  0  0  0  0
   46.9450   28.7306   30.8355 H   0  0  0  0  0  0  0  0  0  0  0  0
   45.8349   33.1502   46.1828 H   0  0  0  0  0  0  0  0  0  0  0  0
   44.1747   34.9803   46.6028 H   0  0  0  0  0  0  0  0  0  0  0  0
   43.8165   36.7221   44.8243 H   0  0  0  0  0  0  0  0  0  0  0  0
  2  1  1  0
  2  3  2  0
  3 26  1  0
  4  3  1  0
  5  4  2  0
  6  7  2  0
  6  5  1  0
  7  2  1  0
  8  7  1  0
  9  8  1  0
 10  9  2  0
 11 10  1  0
 11 12  1  0
 12  8  2  0
 13 14  1  0
 14 11  1  0
 15 14  2  0
 16 15  1  0
 17 16  2  0
 18 17  1  0
 19 18  2  0
 19 20  1  0
 20 21  2  0
 21 16  1  0
 21 13  1  0
 22 23  2  0
 24 23  1  0
 25 24  2  0
 26 25  1  0
 26 27  2  0
 27 22  1  0
  4 28  1  0
  5 29  1  0
  6 30  1  0
 10 31  1  0
 13 32  1  0
 17 33  1  0
 19 34  1  0
 22 35  1  0
 23 36  1  0
 24 37  1  0
M  ISO  8  28  14  29  14  30  14  31  14  32   9  33  14  34  14  35  14
M  ISO  2  36  14  37  14
M  END
>  <minimizedAffinity>  (1) 
-6.86030912

>  <minimizedRMSD>  (1) 
2.34954619

$$$$
