
     RDKit          3D

 40 43  0  0  1  0  0  0  0  0999 V2000
   45.0470   33.2520   41.0990 Cl  0  0  0  0  0  0  0  0  0  0  0  0
   46.5580   34.1340   41.0080 C   0  0  0  0  0  0  0  0  0  0  0  0
   47.0000   34.8200   42.0930 C   0  0  0  0  0  0  0  0  0  0  0  0
   48.2050   35.5300   42.0350 C   0  0  0  0  0  0  0  0  0  0  0  0
   48.8950   35.4930   40.8540 C   0  0  0  0  0  0  0  0  0  0  0  0
   48.4260   34.7850   39.7570 C   0  0  0  0  0  0  0  0  0  0  0  0
   47.2490   34.1000   39.8320 C   0  0  0  0  0  0  0  0  0  0  0  0
   45.7280   33.8750   45.4070 C   0  0  0  0  0  0  0  0  0  0  0  0
   44.7530   34.8680   45.6500 C   0  0  0  0  0  0  0  0  0  0  0  0
   44.5470   35.8390   44.6830 C   0  0  0  0  0  0  0  0  0  0  0  0
   45.2940   35.7840   43.5530 N   0  0  0  0  0  0  0  0  0  0  0  0
   46.2260   34.8280   43.3300 C   0  0  0  0  0  0  0  0  0  0  0  0
   46.4360   33.8770   44.2630 N   0  0  0  0  0  0  0  0  0  0  0  0
   46.7350   33.3500   38.6980 C   0  0  0  0  0  0  0  0  0  0  0  0
   45.4510   33.0510   38.4210 N   0  0  0  0  0  0  0  0  0  0  0  0
   45.3980   32.3450   37.2830 C   0  0  0  0  0  0  0  0  0  0  0  0
   46.6560   32.1910   36.8270 N   0  0  0  0  0  0  0  0  0  0  0  0
   47.4590   32.8080   37.7020 N   0  0  0  0  0  0  0  0  0  0  0  0
   48.4910   31.6370   35.4630 N   0  0  0  0  0  0  0  0  0  0  0  0
   47.0670   31.4800   35.6070 C   0  0  2  0  0  0  0  0  0  0  0  0
   46.2430   31.9100   34.4540 C   0  0  0  0  0  0  0  0  0  0  0  0
   46.8860   32.0670   33.2010 N   0  0  0  0  0  0  0  0  0  0  0  0
   48.2930   32.2590   33.2000 C   0  0  0  0  0  0  0  0  0  0  0  0
   48.9660   31.2940   34.1610 C   0  0  0  0  0  0  0  0  0  0  0  0
   48.5811   36.0935   42.9016 H   0  0  0  0  0  0  0  0  0  0  0  0
   49.8465   36.0389   40.7722 H   0  0  0  0  0  0  0  0  0  0  0  0
   49.0061   34.7761   38.8224 H   0  0  0  0  0  0  0  0  0  0  0  0
   45.9098   33.0936   46.1595 H   0  0  0  0  0  0  0  0  0  0  0  0
   44.1716   34.8704   46.5838 H   0  0  0  0  0  0  0  0  0  0  0  0
   43.7986   36.6319   44.8282 H   0  0  0  0  0  0  0  0  0  0  0  0
   44.4859   31.9586   36.8047 H   0  0  0  0  0  0  0  0  0  0  0  0
   48.7326   32.6205   35.6510 H   0  0  0  0  0  0  0  0  0  0  0  0
   46.8793   30.3978   35.6671 H   0  0  0  0  0  0  0  0  0  0  0  0
   45.4477   31.1615   34.3225 H   0  0  0  0  0  0  0  0  0  0  0  0
   45.9049   32.9226   34.7192 H   0  0  0  0  0  0  0  0  0  0  0  0
   46.6907   31.2209   32.6470 H   0  0  0  0  0  0  0  0  0  0  0  0
   48.6804   32.0871   32.1849 H   0  0  0  0  0  0  0  0  0  0  0  0
   48.5103   33.2883   33.5215 H   0  0  0  0  0  0  0  0  0  0  0  0
   48.6921   30.2573   33.9154 H   0  0  0  0  0  0  0  0  0  0  0  0
   50.0620   31.3656   34.1010 H   0  0  0  0  0  0  0  0  0  0  0  0
  2  1  1  0
  2  3  2  0
  3 12  1  0
  4  3  1  0
  5  4  2  0
  6  7  2  0
  6  5  1  0
  7  2  1  0
  8  9  2  0
 10  9  1  0
 11 10  2  0
 12 11  1  0
 12 13  2  0
 13  8  1  0
 14  7  1  0
 15 14  1  0
 16 15  2  0
 17 16  1  0
 17 18  1  0
 18 14  2  0
 19 20  1  0
 20 17  1  0
 21 20  1  0
 22 21  1  0
 23 22  1  0
 23 24  1  0
 24 19  1  0
  4 25  1  0
  5 26  1  0
  6 27  1  0
  8 28  1  0
  9 29  1  0
 10 30  1  0
 16 31  1  0
 19 32  1  0
 20 33  1  1
 21 34  1  0
 21 35  1  0
 22 36  1  0
 23 37  1  0
 23 38  1  0
 24 39  1  0
 24 40  1  0
M  ISO  8  25  14  26  14  27  14  28  14  29  14  30  14  31  14  32   5
M  ISO  8  33  13  34  13  35  13  36   5  37  13  38  13  39  13  40  13
M  END
>  <minimizedAffinity>  (1) 
-6.39485836

>  <minimizedRMSD>  (1) 
2.26172471

$$$$
