
     RDKit          3D

 28 29  0  0  1  0  0  0  0  0999 V2000
   46.7330   34.0580   41.9370 C   0  0  1  0  0  0  0  0  0  0  0  0
   45.8410   33.9540   40.7330 C   0  0  0  0  0  0  0  0  0  0  0  0
   46.6640   33.2980   39.6390 C   0  0  0  0  0  0  0  0  0  0  0  0
   47.7350   34.2820   39.2330 C   0  0  0  0  0  0  0  0  0  0  0  0
   48.5930   34.7240   40.3790 C   0  0  0  0  0  0  0  0  0  0  0  0
   47.8900   34.9870   41.6550 C   0  0  2  0  0  0  0  0  0  0  0  0
   44.6550   36.1340   44.3580 C   0  0  0  0  0  0  0  0  0  0  0  0
   45.3130   35.7530   43.1940 C   0  0  0  0  0  0  0  0  0  0  0  0
   46.0090   34.5300   43.1380 C   0  0  0  0  0  0  0  0  0  0  0  0
   46.0030   33.7600   44.2590 N   0  0  0  0  0  0  0  0  0  0  0  0
   45.3550   34.1510   45.3830 C   0  0  0  0  0  0  0  0  0  0  0  0
   44.6870   35.3180   45.4450 N   0  0  0  0  0  0  0  0  0  0  0  0
   48.9030   34.8800   42.7510 C   0  0  0  0  0  0  0  0  0  0  0  0
   50.1240   34.8900   42.5520 O   0  0  0  0  0  0  0  0  0  0  0  0
   47.1049   33.0437   42.1441 H   0  0  0  0  0  0  0  0  0  0  0  0
   44.9596   33.3384   40.9657 H   0  0  0  0  0  0  0  0  0  0  0  0
   45.4815   34.9450   40.4188 H   0  0  0  0  0  0  0  0  0  0  0  0
   47.1255   32.3740   40.0176 H   0  0  0  0  0  0  0  0  0  0  0  0
   46.0304   33.0347   38.7793 H   0  0  0  0  0  0  0  0  0  0  0  0
   48.3780   33.8073   38.4772 H   0  0  0  0  0  0  0  0  0  0  0  0
   47.2273   35.1753   38.8401 H   0  0  0  0  0  0  0  0  0  0  0  0
   49.3399   33.9376   40.5626 H   0  0  0  0  0  0  0  0  0  0  0  0
   49.0208   35.6900   40.0726 H   0  0  0  0  0  0  0  0  0  0  0  0
   47.4424   35.9896   41.5886 H   0  0  0  0  0  0  0  0  0  0  0  0
   44.1119   37.0897   44.3992 H   0  0  0  0  0  0  0  0  0  0  0  0
   45.2898   36.4102   42.3122 H   0  0  0  0  0  0  0  0  0  0  0  0
   45.3754   33.4978   46.2678 H   0  0  0  0  0  0  0  0  0  0  0  0
   48.5437   34.7877   43.7866 H   0  0  0  0  0  0  0  0  0  0  0  0
  1  9  1  0
  2  1  1  0
  3  2  1  0
  4  3  1  0
  4  5  1  0
  5  6  1  0
  6  1  1  0
  6 13  1  0
  7 12  2  0
  8  7  1  0
  9  8  2  0
  9 10  1  0
 10 11  2  0
 11 12  1  0
 14 13  2  0
  1 15  1  1
  2 16  1  0
  2 17  1  0
  3 18  1  0
  3 19  1  0
  4 20  1  0
  4 21  1  0
  5 22  1  0
  5 23  1  0
  6 24  1  6
  7 25  1  0
  8 26  1  0
 11 27  1  0
 13 28  1  0
M  ISO  8  15  13  16  13  17  13  18  13  19  13  20  13  21  13  22  13
M  ISO  6  23  13  24  13  25  14  26  14  27  14  28   6
M  END
>  <minimizedAffinity>  (1) 
-4.72183704

>  <minimizedRMSD>  (1) 
0.565795958

$$$$
