
     RDKit          3D

 36 39  0  0  0  0  0  0  0  0999 V2000
   44.7510   33.1640   41.1630 Cl  0  0  0  0  0  0  0  0  0  0  0  0
   46.2880   33.9720   40.9560 C   0  0  0  0  0  0  0  0  0  0  0  0
   46.8310   34.7000   41.9840 C   0  0  0  0  0  0  0  0  0  0  0  0
   48.0490   35.3480   41.8410 C   0  0  0  0  0  0  0  0  0  0  0  0
   48.6760   35.2260   40.6290 C   0  0  0  0  0  0  0  0  0  0  0  0
   48.1260   34.4900   39.5880 C   0  0  0  0  0  0  0  0  0  0  0  0
   46.9260   33.8600   39.7540 C   0  0  0  0  0  0  0  0  0  0  0  0
   45.6520   33.9370   45.3920 C   0  0  0  0  0  0  0  0  0  0  0  0
   44.7510   34.9710   45.6310 C   0  0  0  0  0  0  0  0  0  0  0  0
   44.5420   35.9300   44.6360 C   0  0  0  0  0  0  0  0  0  0  0  0
   45.2360   35.7950   43.4840 N   0  0  0  0  0  0  0  0  0  0  0  0
   46.1060   34.7910   43.2610 C   0  0  0  0  0  0  0  0  0  0  0  0
   46.3090   33.8660   44.2170 N   0  0  0  0  0  0  0  0  0  0  0  0
   46.3240   33.0800   38.6770 C   0  0  0  0  0  0  0  0  0  0  0  0
   45.0920   33.2260   38.1600 N   0  0  0  0  0  0  0  0  0  0  0  0
   44.9410   32.3040   37.1850 C   0  0  0  0  0  0  0  0  0  0  0  0
   46.0700   31.5780   37.0830 N   0  0  0  0  0  0  0  0  0  0  0  0
   46.9070   32.0660   38.0040 N   0  0  0  0  0  0  0  0  0  0  0  0
   47.5040   32.1630   34.4880 Cl  0  0  0  0  0  0  0  0  0  0  0  0
   47.2150   30.5540   35.0800 C   0  0  0  0  0  0  0  0  0  0  0  0
   46.5410   30.5020   36.2910 C   0  0  0  0  0  0  0  0  0  0  0  0
   46.2520   29.2610   36.8660 C   0  0  0  0  0  0  0  0  0  0  0  0
   46.6310   28.0850   36.2410 C   0  0  0  0  0  0  0  0  0  0  0  0
   47.3080   28.1420   35.0270 C   0  0  0  0  0  0  0  0  0  0  0  0
   47.5860   29.3740   34.4700 C   0  0  0  0  0  0  0  0  0  0  0  0
   48.4906   35.9322   42.6618 H   0  0  0  0  0  0  0  0  0  0  0  0
   49.6438   35.7259   40.4761 H   0  0  0  0  0  0  0  0  0  0  0  0
   48.6578   34.4143   38.6281 H   0  0  0  0  0  0  0  0  0  0  0  0
   45.8286   33.1747   46.1652 H   0  0  0  0  0  0  0  0  0  0  0  0
   44.2120   35.0323   46.5879 H   0  0  0  0  0  0  0  0  0  0  0  0
   43.8393   36.7631   44.7848 H   0  0  0  0  0  0  0  0  0  0  0  0
   44.0383   32.1678   36.5713 H   0  0  0  0  0  0  0  0  0  0  0  0
   45.7172   29.2182   37.8263 H   0  0  0  0  0  0  0  0  0  0  0  0
   46.3986   27.1131   36.7009 H   0  0  0  0  0  0  0  0  0  0  0  0
   47.6177   27.2175   34.5177 H   0  0  0  0  0  0  0  0  0  0  0  0
   48.1203   29.4160   33.5094 H   0  0  0  0  0  0  0  0  0  0  0  0
  2  1  1  0
  2  3  2  0
  3 12  1  0
  4  3  1  0
  5  4  2  0
  6  7  2  0
  6  5  1  0
  7  2  1  0
  8  9  2  0
 10  9  1  0
 11 10  2  0
 12 11  1  0
 12 13  2  0
 13  8  1  0
 14  7  1  0
 15 14  1  0
 16 15  2  0
 17 16  1  0
 17 18  1  0
 18 14  2  0
 19 20  1  0
 20 21  2  0
 21 22  1  0
 21 17  1  0
 23 22  2  0
 24 23  1  0
 25 24  2  0
 25 20  1  0
  4 26  1  0
  5 27  1  0
  6 28  1  0
  8 29  1  0
  9 30  1  0
 10 31  1  0
 16 32  1  0
 22 33  1  0
 23 34  1  0
 24 35  1  0
 25 36  1  0
M  ISO  8  26  14  27  14  28  14  29  14  30  14  31  14  32  14  33  14
M  ISO  3  34  14  35  14  36  14
M  END
>  <minimizedAffinity>  (1) 
-5.75874853

>  <minimizedRMSD>  (1) 
1.51855338

$$$$
