
     RDKit          3D

 33 36  0  0  0  0  0  0  0  0999 V2000
   44.7570   33.1630   41.1020 Cl  0  0  0  0  0  0  0  0  0  0  0  0
   46.2970   33.9630   40.8970 C   0  0  0  0  0  0  0  0  0  0  0  0
   46.8100   34.7000   41.9110 C   0  0  0  0  0  0  0  0  0  0  0  0
   48.0480   35.3510   41.7630 C   0  0  0  0  0  0  0  0  0  0  0  0
   48.6880   35.1990   40.5660 C   0  0  0  0  0  0  0  0  0  0  0  0
   48.1500   34.4390   39.5340 C   0  0  0  0  0  0  0  0  0  0  0  0
   46.9470   33.8180   39.7050 C   0  0  0  0  0  0  0  0  0  0  0  0
   46.3590   33.0130   38.6370 C   0  0  0  0  0  0  0  0  0  0  0  0
   45.3770   33.3670   37.7930 N   0  0  0  0  0  0  0  0  0  0  0  0
   45.1360   32.3350   36.9680 C   0  0  0  0  0  0  0  0  0  0  0  0
   45.9660   31.3220   37.2870 N   0  0  0  0  0  0  0  0  0  0  0  0
   46.7140   31.7440   38.3120 N   0  0  0  0  0  0  0  0  0  0  0  0
   45.9850   30.0680   36.6150 C   0  0  0  0  0  0  0  0  0  0  0  0
   44.9960   29.1170   36.8390 C   0  0  0  0  0  0  0  0  0  0  0  0
   45.3150   28.0270   36.0340 C   0  0  0  0  0  0  0  0  0  0  0  0
   46.4490   28.3280   35.3610 N   0  0  0  0  0  0  0  0  0  0  0  0
   46.8530   29.5610   35.7120 N   0  0  0  0  0  0  0  0  0  0  0  0
   45.5960   34.0290   45.3190 C   0  0  0  0  0  0  0  0  0  0  0  0
   44.7240   35.0960   45.5340 C   0  0  0  0  0  0  0  0  0  0  0  0
   44.5510   36.0370   44.5270 C   0  0  0  0  0  0  0  0  0  0  0  0
   45.2450   35.8640   43.3800 N   0  0  0  0  0  0  0  0  0  0  0  0
   46.0840   34.8330   43.1780 C   0  0  0  0  0  0  0  0  0  0  0  0
   46.2590   33.9170   44.1470 N   0  0  0  0  0  0  0  0  0  0  0  0
   48.4809   35.9549   42.5741 H   0  0  0  0  0  0  0  0  0  0  0  0
   49.6589   35.6932   40.4140 H   0  0  0  0  0  0  0  0  0  0  0  0
   48.6924   34.3384   38.5823 H   0  0  0  0  0  0  0  0  0  0  0  0
   44.3850   32.3191   36.1644 H   0  0  0  0  0  0  0  0  0  0  0  0
   44.1342   29.2077   37.5165 H   0  0  0  0  0  0  0  0  0  0  0  0
   44.7463   27.0884   35.9587 H   0  0  0  0  0  0  0  0  0  0  0  0
   46.9262   27.7115   34.6878 H   0  0  0  0  0  0  0  0  0  0  0  0
   45.7446   33.2757   46.1066 H   0  0  0  0  0  0  0  0  0  0  0  0
   44.1816   35.1909   46.4863 H   0  0  0  0  0  0  0  0  0  0  0  0
   43.8729   36.8931   44.6584 H   0  0  0  0  0  0  0  0  0  0  0  0
  2  1  1  0
  2  3  2  0
  3 22  1  0
  4  3  1  0
  5  4  2  0
  6  7  2  0
  6  5  1  0
  7  2  1  0
  8  7  1  0
  9  8  1  0
 10 11  1  0
 10  9  2  0
 11 12  1  0
 12  8  2  0
 13 14  1  0
 13 11  1  0
 15 14  2  0
 16 17  1  0
 16 15  1  0
 17 13  2  0
 18 19  2  0
 20 19  1  0
 21 20  2  0
 22 21  1  0
 22 23  2  0
 23 18  1  0
  4 24  1  0
  5 25  1  0
  6 26  1  0
 10 27  1  0
 14 28  1  0
 15 29  1  0
 16 30  1  0
 18 31  1  0
 19 32  1  0
 20 33  1  0
M  ISO  8  24  14  25  14  26  14  27  14  28  14  29  14  30   9  31  14
M  ISO  2  32  14  33  14
M  END
>  <minimizedAffinity>  (1) 
-5.68721771

>  <minimizedRMSD>  (1) 
0.250447959

$$$$
