
     RDKit          3D

 41 44  0  0  0  0  0  0  0  0999 V2000
   44.7600   33.1740   41.0950 Cl  0  0  0  0  0  0  0  0  0  0  0  0
   46.3080   33.9690   40.8850 C   0  0  0  0  0  0  0  0  0  0  0  0
   46.8290   34.7150   41.9090 C   0  0  0  0  0  0  0  0  0  0  0  0
   48.0530   35.3520   41.7610 C   0  0  0  0  0  0  0  0  0  0  0  0
   48.6990   35.1990   40.5590 C   0  0  0  0  0  0  0  0  0  0  0  0
   48.1570   34.4420   39.5350 C   0  0  0  0  0  0  0  0  0  0  0  0
   46.9680   33.8290   39.6920 C   0  0  0  0  0  0  0  0  0  0  0  0
   45.6000   34.0270   45.3170 C   0  0  0  0  0  0  0  0  0  0  0  0
   44.7200   35.0930   45.5370 C   0  0  0  0  0  0  0  0  0  0  0  0
   44.5530   36.0360   44.5190 C   0  0  0  0  0  0  0  0  0  0  0  0
   45.2540   35.8660   43.3800 N   0  0  0  0  0  0  0  0  0  0  0  0
   46.0960   34.8450   43.1710 C   0  0  0  0  0  0  0  0  0  0  0  0
   46.2680   33.9250   44.1450 N   0  0  0  0  0  0  0  0  0  0  0  0
   46.3670   33.0220   38.6310 C   0  0  0  0  0  0  0  0  0  0  0  0
   45.4330   33.3950   37.7550 N   0  0  0  0  0  0  0  0  0  0  0  0
   45.1540   32.3470   36.9450 C   0  0  0  0  0  0  0  0  0  0  0  0
   45.9250   31.3040   37.3180 N   0  0  0  0  0  0  0  0  0  0  0  0
   46.6570   31.7290   38.3450 N   0  0  0  0  0  0  0  0  0  0  0  0
   45.7070   27.7300   35.4500 N   0  0  0  0  0  0  0  0  0  0  0  0
   46.3570   28.7220   34.6320 C   0  0  0  0  0  0  0  0  0  0  0  0
   46.6320   30.0220   35.3420 C   0  0  0  0  0  0  0  0  0  0  0  0
   45.8680   30.0410   36.6540 C   0  0  0  0  0  0  0  0  0  0  0  0
   44.4480   29.6530   36.2940 C   0  0  0  0  0  0  0  0  0  0  0  0
   44.4950   28.1400   36.0700 C   0  0  0  0  0  0  0  0  0  0  0  0
   48.4875   35.9542   42.5725 H   0  0  0  0  0  0  0  0  0  0  0  0
   49.6713   35.6902   40.4062 H   0  0  0  0  0  0  0  0  0  0  0  0
   48.7019   34.3401   38.5849 H   0  0  0  0  0  0  0  0  0  0  0  0
   45.7490   33.2691   46.1002 H   0  0  0  0  0  0  0  0  0  0  0  0
   44.1736   35.1862   46.4871 H   0  0  0  0  0  0  0  0  0  0  0  0
   43.8710   36.8901   44.6432 H   0  0  0  0  0  0  0  0  0  0  0  0
   44.4233   32.3457   36.1228 H   0  0  0  0  0  0  0  0  0  0  0  0
   46.3643   27.4523   36.1928 H   0  0  0  0  0  0  0  0  0  0  0  0
   45.7124   28.9314   33.7656 H   0  0  0  0  0  0  0  0  0  0  0  0
   47.3336   28.3052   34.3447 H   0  0  0  0  0  0  0  0  0  0  0  0
   47.7099   30.1121   35.5418 H   0  0  0  0  0  0  0  0  0  0  0  0
   46.3095   30.8643   34.7124 H   0  0  0  0  0  0  0  0  0  0  0  0
   46.3150   29.3422   37.3764 H   0  0  0  0  0  0  0  0  0  0  0  0
   43.7595   29.9009   37.1153 H   0  0  0  0  0  0  0  0  0  0  0  0
   44.0855   30.1909   35.4056 H   0  0  0  0  0  0  0  0  0  0  0  0
   43.6513   27.8500   35.4265 H   0  0  0  0  0  0  0  0  0  0  0  0
   44.4335   27.6493   37.0526 H   0  0  0  0  0  0  0  0  0  0  0  0
  2  1  1  0
  2  3  2  0
  3 12  1  0
  4  3  1  0
  5  4  2  0
  6  7  2  0
  6  5  1  0
  7  2  1  0
  8  9  2  0
 10  9  1  0
 11 10  2  0
 12 11  1  0
 12 13  2  0
 13  8  1  0
 14  7  1  0
 15 14  1  0
 16 17  1  0
 16 15  2  0
 17 18  1  0
 18 14  2  0
 19 24  1  0
 20 21  1  0
 20 19  1  0
 21 22  1  0
 22 17  1  0
 23 22  1  0
 24 23  1  0
  4 25  1  0
  5 26  1  0
  6 27  1  0
  8 28  1  0
  9 29  1  0
 10 30  1  0
 16 31  1  0
 19 32  1  0
 20 33  1  0
 20 34  1  0
 21 35  1  0
 21 36  1  0
 22 37  1  0
 23 38  1  0
 23 39  1  0
 24 40  1  0
 24 41  1  0
M  ISO  8  25  14  26  14  27  14  28  14  29  14  30  14  31  14  32   5
M  ISO  8  33  13  34  13  35  13  36  13  37  13  38  13  39  13  40  13
M  ISO  1  41  13
M  END
>  <minimizedAffinity>  (1) 
-5.49756145

>  <minimizedRMSD>  (1) 
0.453356802

$$$$
