
     RDKit          3D

 29 31  0  0  0  0  0  0  0  0999 V2000
   44.8260   33.0920   41.1330 Cl  0  0  0  0  0  0  0  0  0  0  0  0
   46.3440   33.9370   40.9160 C   0  0  0  0  0  0  0  0  0  0  0  0
   46.8300   34.7080   41.9150 C   0  0  0  0  0  0  0  0  0  0  0  0
   48.0450   35.3930   41.7620 C   0  0  0  0  0  0  0  0  0  0  0  0
   48.6910   35.2340   40.5620 C   0  0  0  0  0  0  0  0  0  0  0  0
   48.1800   34.4420   39.5510 C   0  0  0  0  0  0  0  0  0  0  0  0
   46.9970   33.7850   39.7220 C   0  0  0  0  0  0  0  0  0  0  0  0
   45.6010   34.0550   45.3200 C   0  0  0  0  0  0  0  0  0  0  0  0
   44.7170   35.1100   45.5320 C   0  0  0  0  0  0  0  0  0  0  0  0
   44.5420   36.0460   44.5070 C   0  0  0  0  0  0  0  0  0  0  0  0
   45.2450   35.8740   43.3600 N   0  0  0  0  0  0  0  0  0  0  0  0
   46.0990   34.8420   43.1750 C   0  0  0  0  0  0  0  0  0  0  0  0
   46.2680   33.9410   44.1580 N   0  0  0  0  0  0  0  0  0  0  0  0
   46.4340   32.9460   38.6790 C   0  0  0  0  0  0  0  0  0  0  0  0
   45.5570   33.3230   37.7260 N   0  0  0  0  0  0  0  0  0  0  0  0
   45.2880   32.2370   36.9540 C   0  0  0  0  0  0  0  0  0  0  0  0
   45.9940   31.1950   37.4260 N   0  0  0  0  0  0  0  0  0  0  0  0
   46.6820   31.6410   38.4700 N   0  0  0  0  0  0  0  0  0  0  0  0
   45.9590   29.8660   36.8500 C   0  0  0  0  0  0  0  0  0  0  0  0
   48.4580   36.0245   42.5624 H   0  0  0  0  0  0  0  0  0  0  0  0
   49.6467   35.7538   40.3992 H   0  0  0  0  0  0  0  0  0  0  0  0
   48.7301   34.3411   38.6038 H   0  0  0  0  0  0  0  0  0  0  0  0
   45.7553   33.3069   46.1116 H   0  0  0  0  0  0  0  0  0  0  0  0
   44.1700   35.2050   46.4816 H   0  0  0  0  0  0  0  0  0  0  0  0
   43.8546   36.8962   44.6278 H   0  0  0  0  0  0  0  0  0  0  0  0
   44.6080   32.2146   36.0897 H   0  0  0  0  0  0  0  0  0  0  0  0
   45.9393   29.1175   37.6558 H   0  0  0  0  0  0  0  0  0  0  0  0
   45.0577   29.7594   36.2284 H   0  0  0  0  0  0  0  0  0  0  0  0
   46.8534   29.7121   36.2284 H   0  0  0  0  0  0  0  0  0  0  0  0
  2  1  1  0
  2  3  2  0
  3 12  1  0
  4  3  1  0
  5  4  2  0
  6  7  2  0
  6  5  1  0
  7  2  1  0
  8  9  2  0
 10  9  1  0
 11 10  2  0
 12 11  1  0
 12 13  2  0
 13  8  1  0
 14  7  1  0
 15 14  1  0
 16 17  1  0
 16 15  2  0
 17 18  1  0
 18 14  2  0
 19 17  1  0
  4 20  1  0
  5 21  1  0
  6 22  1  0
  8 23  1  0
  9 24  1  0
 10 25  1  0
 16 26  1  0
 19 27  1  0
 19 28  1  0
 19 29  1  0
M  ISO  8  20  14  21  14  22  14  23  14  24  14  25  14  26  14  27   8
M  ISO  2  28   8  29   8
M  END
>  <minimizedAffinity>  (1) 
-5.39273071

>  <minimizedRMSD>  (1) 
0.0278502759

$$$$
