
     RDKit          3D

 33 36  0  0  0  0  0  0  0  0999 V2000
   44.7880   33.1460   41.1000 Cl  0  0  0  0  0  0  0  0  0  0  0  0
   46.3180   33.9590   40.8980 C   0  0  0  0  0  0  0  0  0  0  0  0
   46.8480   34.7140   41.9070 C   0  0  0  0  0  0  0  0  0  0  0  0
   48.0650   35.3680   41.7630 C   0  0  0  0  0  0  0  0  0  0  0  0
   48.6980   35.2150   40.5590 C   0  0  0  0  0  0  0  0  0  0  0  0
   48.1690   34.4560   39.5380 C   0  0  0  0  0  0  0  0  0  0  0  0
   46.9710   33.8190   39.6960 C   0  0  0  0  0  0  0  0  0  0  0  0
   45.6070   34.0320   45.3150 C   0  0  0  0  0  0  0  0  0  0  0  0
   44.7180   35.1010   45.5260 C   0  0  0  0  0  0  0  0  0  0  0  0
   44.5520   36.0350   44.5160 C   0  0  0  0  0  0  0  0  0  0  0  0
   45.2590   35.8680   43.3680 N   0  0  0  0  0  0  0  0  0  0  0  0
   46.1130   34.8350   43.1740 C   0  0  0  0  0  0  0  0  0  0  0  0
   46.2820   33.9230   44.1480 N   0  0  0  0  0  0  0  0  0  0  0  0
   46.3890   33.0110   38.6370 C   0  0  0  0  0  0  0  0  0  0  0  0
   45.4330   33.3650   37.7710 N   0  0  0  0  0  0  0  0  0  0  0  0
   45.1830   32.3260   36.9560 C   0  0  0  0  0  0  0  0  0  0  0  0
   45.9830   31.3020   37.3040 N   0  0  0  0  0  0  0  0  0  0  0  0
   46.7180   31.7400   38.3400 N   0  0  0  0  0  0  0  0  0  0  0  0
   46.0400   30.0130   36.7000 C   0  0  0  0  0  0  0  0  0  0  0  0
   46.7280   29.7680   35.5240 C   0  0  0  0  0  0  0  0  0  0  0  0
   46.6230   28.4590   35.1630 N   0  0  0  0  0  0  0  0  0  0  0  0
   45.8670   27.8930   36.1230 C   0  0  0  0  0  0  0  0  0  0  0  0
   45.5100   28.8220   37.0520 N   0  0  0  0  0  0  0  0  0  0  0  0
   48.4964   35.9756   42.5722 H   0  0  0  0  0  0  0  0  0  0  0  0
   49.6643   35.7163   40.4008 H   0  0  0  0  0  0  0  0  0  0  0  0
   48.7157   34.3623   38.5881 H   0  0  0  0  0  0  0  0  0  0  0  0
   45.7543   33.2798   46.1040 H   0  0  0  0  0  0  0  0  0  0  0  0
   44.1660   35.1938   46.4729 H   0  0  0  0  0  0  0  0  0  0  0  0
   43.8675   36.8871   44.6402 H   0  0  0  0  0  0  0  0  0  0  0  0
   44.4461   32.3148   36.1394 H   0  0  0  0  0  0  0  0  0  0  0  0
   47.2849   30.5286   34.9571 H   0  0  0  0  0  0  0  0  0  0  0  0
   47.0326   28.0016   34.3360 H   0  0  0  0  0  0  0  0  0  0  0  0
   45.5791   26.8318   36.1524 H   0  0  0  0  0  0  0  0  0  0  0  0
  2  1  1  0
  2  3  2  0
  3 12  1  0
  4  3  1  0
  5  4  2  0
  6  7  2  0
  6  5  1  0
  7  2  1  0
  8  9  2  0
 10  9  1  0
 11 10  2  0
 12 11  1  0
 12 13  2  0
 13  8  1  0
 14  7  1  0
 15 14  1  0
 16 17  1  0
 16 15  2  0
 17 18  1  0
 18 14  2  0
 19 23  1  0
 19 17  1  0
 20 19  2  0
 21 20  1  0
 21 22  1  0
 22 23  2  0
  4 24  1  0
  5 25  1  0
  6 26  1  0
  8 27  1  0
  9 28  1  0
 10 29  1  0
 16 30  1  0
 20 31  1  0
 21 32  1  0
 22 33  1  0
M  ISO  8  24  14  25  14  26  14  27  14  28  14  29  14  30  14  31  14
M  ISO  2  32   9  33  14
M  END
>  <minimizedAffinity>  (1) 
-5.37644815

>  <minimizedRMSD>  (1) 
0.215441227

$$$$
