
     RDKit          3D

 29 30  0  0  1  0  0  0  0  0999 V2000
   47.2670   33.2230   41.0710 C   0  0  1  0  0  0  0  0  0  0  0  0
   46.3340   32.4030   40.2160 C   0  0  0  0  0  0  0  0  0  0  0  0
   47.1340   31.9790   39.0000 C   0  0  0  0  0  0  0  0  0  0  0  0
   47.4420   33.2260   38.2050 C   0  0  0  0  0  0  0  0  0  0  0  0
   48.1340   34.2690   38.9930 C   0  0  0  0  0  0  0  0  0  0  0  0
   47.5980   34.5130   40.3590 C   0  0  2  0  0  0  0  0  0  0  0  0
   45.0150   34.5240   43.8450 C   0  0  0  0  0  0  0  0  0  0  0  0
   45.5230   34.2640   42.5790 C   0  0  0  0  0  0  0  0  0  0  0  0
   46.6900   33.5340   42.3910 C   0  0  0  0  0  0  0  0  0  0  0  0
   47.3010   33.0930   43.5200 N   0  0  0  0  0  0  0  0  0  0  0  0
   46.8020   33.3500   44.7540 C   0  0  0  0  0  0  0  0  0  0  0  0
   45.6680   34.0600   44.9210 N   0  0  0  0  0  0  0  0  0  0  0  0
   48.5340   35.3090   41.2010 C   0  0  0  0  0  0  0  0  0  0  0  0
   49.5250   34.5380   41.7620 F   0  0  0  0  0  0  0  0  0  0  0  0
   49.1770   36.2090   40.3390 F   0  0  0  0  0  0  0  0  0  0  0  0
   47.8450   35.9970   42.1830 F   0  0  0  0  0  0  0  0  0  0  0  0
   48.1752   32.6244   41.2350 H   0  0  0  0  0  0  0  0  0  0  0  0
   45.9869   31.5189   40.7708 H   0  0  0  0  0  0  0  0  0  0  0  0
   45.4438   32.9812   39.9274 H   0  0  0  0  0  0  0  0  0  0  0  0
   48.0693   31.4937   39.3157 H   0  0  0  0  0  0  0  0  0  0  0  0
   46.5647   31.2610   38.3914 H   0  0  0  0  0  0  0  0  0  0  0  0
   46.4957   33.6429   37.8297 H   0  0  0  0  0  0  0  0  0  0  0  0
   48.1193   32.9322   37.3895 H   0  0  0  0  0  0  0  0  0  0  0  0
   49.1885   33.9722   39.0926 H   0  0  0  0  0  0  0  0  0  0  0  0
   47.9828   35.2086   38.4414 H   0  0  0  0  0  0  0  0  0  0  0  0
   46.6746   35.0936   40.2169 H   0  0  0  0  0  0  0  0  0  0  0  0
   44.0878   35.1038   43.9641 H   0  0  0  0  0  0  0  0  0  0  0  0
   44.9856   34.6473   41.6991 H   0  0  0  0  0  0  0  0  0  0  0  0
   47.3342   32.9708   45.6389 H   0  0  0  0  0  0  0  0  0  0  0  0
  1  9  1  0
  2  1  1  0
  3  2  1  0
  4  5  1  0
  4  3  1  0
  5  6  1  0
  6  1  1  0
  6 13  1  0
  7 12  2  0
  8  7  1  0
  9  8  2  0
  9 10  1  0
 10 11  2  0
 11 12  1  0
 13 14  1  0
 13 16  1  0
 15 13  1  0
  1 17  1  1
  2 18  1  0
  2 19  1  0
  3 20  1  0
  3 21  1  0
  4 22  1  0
  4 23  1  0
  5 24  1  0
  5 25  1  0
  6 26  1  6
  7 27  1  0
  8 28  1  0
 11 29  1  0
M  ISO  8  17  13  18  13  19  13  20  13  21  13  22  13  23  13  24  13
M  ISO  5  25  13  26  13  27  14  28  14  29  14
M  END
>  <minimizedAffinity>  (1) 
-4.65117931

>  <minimizedRMSD>  (1) 
2.0650847

$$$$
