
     RDKit          3D

 32 35  0  0  0  0  0  0  0  0999 V2000
   44.7470   33.1810   41.0910 Cl  0  0  0  0  0  0  0  0  0  0  0  0
   46.2930   33.9690   40.8780 C   0  0  0  0  0  0  0  0  0  0  0  0
   46.8250   34.7130   41.8990 C   0  0  0  0  0  0  0  0  0  0  0  0
   48.0540   35.3510   41.7590 C   0  0  0  0  0  0  0  0  0  0  0  0
   48.6870   35.1930   40.5570 C   0  0  0  0  0  0  0  0  0  0  0  0
   48.1540   34.4450   39.5300 C   0  0  0  0  0  0  0  0  0  0  0  0
   46.9500   33.8330   39.6960 C   0  0  0  0  0  0  0  0  0  0  0  0
   45.6020   34.0230   45.3140 C   0  0  0  0  0  0  0  0  0  0  0  0
   44.7220   35.0960   45.5310 C   0  0  0  0  0  0  0  0  0  0  0  0
   44.5540   36.0320   44.5260 C   0  0  0  0  0  0  0  0  0  0  0  0
   45.2550   35.8670   43.3690 N   0  0  0  0  0  0  0  0  0  0  0  0
   46.0940   34.8430   43.1650 C   0  0  0  0  0  0  0  0  0  0  0  0
   46.2700   33.9160   44.1390 N   0  0  0  0  0  0  0  0  0  0  0  0
   46.3510   33.0310   38.6280 C   0  0  0  0  0  0  0  0  0  0  0  0
   45.3700   33.3790   37.7900 N   0  0  0  0  0  0  0  0  0  0  0  0
   45.1150   32.3470   36.9570 C   0  0  0  0  0  0  0  0  0  0  0  0
   45.9440   31.3360   37.2730 N   0  0  0  0  0  0  0  0  0  0  0  0
   46.6850   31.7790   38.2930 N   0  0  0  0  0  0  0  0  0  0  0  0
   46.1450   30.0200   36.7630 C   0  0  0  0  0  0  0  0  0  0  0  0
   47.5060   29.9240   36.2360 C   0  0  0  0  0  0  0  0  0  0  0  0
   47.5900   28.1340   35.6130 S   0  0  0  0  0  0  0  0  0  0  0  0
   45.8290   27.8780   36.1680 C   0  0  0  0  0  0  0  0  0  0  0  0
   45.4920   28.8850   36.6240 N   0  0  0  0  0  0  0  0  0  0  0  0
   48.4924   35.9498   42.5710 H   0  0  0  0  0  0  0  0  0  0  0  0
   49.6602   35.6825   40.4041 H   0  0  0  0  0  0  0  0  0  0  0  0
   48.6993   34.3430   38.5801 H   0  0  0  0  0  0  0  0  0  0  0  0
   45.7496   33.2673   46.0996 H   0  0  0  0  0  0  0  0  0  0  0  0
   44.1768   35.1904   46.4817 H   0  0  0  0  0  0  0  0  0  0  0  0
   43.8732   36.8860   44.6573 H   0  0  0  0  0  0  0  0  0  0  0  0
   44.3594   32.3353   36.1577 H   0  0  0  0  0  0  0  0  0  0  0  0
   48.2872   30.6979   36.2079 H   0  0  0  0  0  0  0  0  0  0  0  0
   45.2331   26.9576   36.0796 H   0  0  0  0  0  0  0  0  0  0  0  0
  2  1  1  0
  2  3  2  0
  3 12  1  0
  4  3  1  0
  5  4  2  0
  6  7  2  0
  6  5  1  0
  7  2  1  0
  8  9  2  0
 10  9  1  0
 11 10  2  0
 12 11  1  0
 12 13  2  0
 13  8  1  0
 14  7  1  0
 15 14  1  0
 16 17  1  0
 16 15  2  0
 17 18  1  0
 18 14  2  0
 19 17  1  0
 20 19  2  0
 21 22  1  0
 21 20  1  0
 22 23  2  0
 23 19  1  0
  4 24  1  0
  5 25  1  0
  6 26  1  0
  8 27  1  0
  9 28  1  0
 10 29  1  0
 16 30  1  0
 20 31  1  0
 22 32  1  0
M  ISO  8  24  14  25  14  26  14  27  14  28  14  29  14  30  14  31  14
M  ISO  1  32  14
M  END
>  <minimizedAffinity>  (1) 
-5.33951187

>  <minimizedRMSD>  (1) 
0.29738456

$$$$
