
     RDKit          3D

 32 34  0  0  0  0  0  0  0  0999 V2000
   44.8240   33.0930   41.1240 Cl  0  0  0  0  0  0  0  0  0  0  0  0
   46.3400   33.9380   40.9170 C   0  0  0  0  0  0  0  0  0  0  0  0
   46.8420   34.7170   41.9180 C   0  0  0  0  0  0  0  0  0  0  0  0
   48.0490   35.3940   41.7600 C   0  0  0  0  0  0  0  0  0  0  0  0
   48.6930   35.2350   40.5620 C   0  0  0  0  0  0  0  0  0  0  0  0
   48.1830   34.4470   39.5520 C   0  0  0  0  0  0  0  0  0  0  0  0
   47.0080   33.7960   39.7230 C   0  0  0  0  0  0  0  0  0  0  0  0
   45.6070   34.0510   45.3160 C   0  0  0  0  0  0  0  0  0  0  0  0
   44.7200   35.1050   45.5270 C   0  0  0  0  0  0  0  0  0  0  0  0
   44.5400   36.0470   44.5080 C   0  0  0  0  0  0  0  0  0  0  0  0
   45.2530   35.8650   43.3710 N   0  0  0  0  0  0  0  0  0  0  0  0
   46.1030   34.8470   43.1800 C   0  0  0  0  0  0  0  0  0  0  0  0
   46.2820   33.9370   44.1550 N   0  0  0  0  0  0  0  0  0  0  0  0
   46.4400   32.9510   38.6690 C   0  0  0  0  0  0  0  0  0  0  0  0
   45.5630   33.3120   37.7240 N   0  0  0  0  0  0  0  0  0  0  0  0
   45.2880   32.2540   36.9480 C   0  0  0  0  0  0  0  0  0  0  0  0
   46.0040   31.2060   37.4130 N   0  0  0  0  0  0  0  0  0  0  0  0
   46.6930   31.6560   38.4540 N   0  0  0  0  0  0  0  0  0  0  0  0
   45.9710   29.8820   36.8270 C   0  0  0  0  0  0  0  0  0  0  0  0
   46.7320   29.8090   35.5120 C   0  0  0  0  0  0  0  0  0  0  0  0
   48.4647   36.0257   42.5588 H   0  0  0  0  0  0  0  0  0  0  0  0
   49.6495   35.7535   40.4000 H   0  0  0  0  0  0  0  0  0  0  0  0
   48.7324   34.3469   38.6043 H   0  0  0  0  0  0  0  0  0  0  0  0
   45.7582   33.3022   46.1075 H   0  0  0  0  0  0  0  0  0  0  0  0
   44.1718   35.1947   46.4765 H   0  0  0  0  0  0  0  0  0  0  0  0
   43.8510   36.8964   44.6251 H   0  0  0  0  0  0  0  0  0  0  0  0
   44.6029   32.2410   36.0875 H   0  0  0  0  0  0  0  0  0  0  0  0
   46.4214   29.1712   37.5354 H   0  0  0  0  0  0  0  0  0  0  0  0
   44.9196   29.6340   36.6194 H   0  0  0  0  0  0  0  0  0  0  0  0
   47.8079   29.7058   35.7163 H   0  0  0  0  0  0  0  0  0  0  0  0
   46.3834   28.9402   34.9344 H   0  0  0  0  0  0  0  0  0  0  0  0
   46.5550   30.7283   34.9344 H   0  0  0  0  0  0  0  0  0  0  0  0
  2  1  1  0
  2  3  2  0
  3 12  1  0
  4  3  1  0
  5  4  2  0
  6  7  2  0
  6  5  1  0
  7  2  1  0
  8  9  2  0
 10  9  1  0
 11 10  2  0
 12 11  1  0
 12 13  2  0
 13  8  1  0
 14  7  1  0
 15 14  1  0
 16 17  1  0
 16 15  2  0
 17 18  1  0
 18 14  2  0
 19 17  1  0
 20 19  1  0
  4 21  1  0
  5 22  1  0
  6 23  1  0
  8 24  1  0
  9 25  1  0
 10 26  1  0
 16 27  1  0
 19 28  1  0
 19 29  1  0
 20 30  1  0
 20 31  1  0
 20 32  1  0
M  ISO  8  21  14  22  14  23  14  24  14  25  14  26  14  27  14  28   8
M  ISO  4  29   8  30   8  31   8  32   8
M  END
>  <minimizedAffinity>  (1) 
-5.23113441

>  <minimizedRMSD>  (1) 
0.268507689

$$$$
