
     RDKit          3D

 20 21  0  0  0  0  0  0  0  0999 V2000
   44.9660   36.0060   43.2780 Cl  0  0  0  0  0  0  0  0  0  0  0  0
   45.6770   34.6880   44.1570 C   0  0  0  0  0  0  0  0  0  0  0  0
   46.6910   33.9540   43.6090 C   0  0  0  0  0  0  0  0  0  0  0  0
   47.1850   32.9300   44.3900 C   0  0  0  0  0  0  0  0  0  0  0  0
   46.7360   32.6040   45.6520 C   0  0  0  0  0  0  0  0  0  0  0  0
   45.7100   33.3690   46.1720 C   0  0  0  0  0  0  0  0  0  0  0  0
   45.1710   32.9210   47.7790 Cl  0  0  0  0  0  0  0  0  0  0  0  0
   45.1800   34.4070   45.4320 C   0  0  0  0  0  0  0  0  0  0  0  0
   48.7600   35.4040   40.9660 C   0  0  0  0  0  0  0  0  0  0  0  0
   48.2670   34.7930   39.8040 C   0  0  0  0  0  0  0  0  0  0  0  0
   47.2080   33.8670   39.9330 C   0  0  0  0  0  0  0  0  0  0  0  0
   46.7340   33.6310   41.1820 N   0  0  0  0  0  0  0  0  0  0  0  0
   47.2250   34.2320   42.2800 C   0  0  0  0  0  0  0  0  0  0  0  0
   48.2430   35.1220   42.1760 N   0  0  0  0  0  0  0  0  0  0  0  0
   48.0031   32.3248   43.9722 H   0  0  0  0  0  0  0  0  0  0  0  0
   47.1756   31.7710   46.2202 H   0  0  0  0  0  0  0  0  0  0  0  0
   44.3632   35.0151   45.8479 H   0  0  0  0  0  0  0  0  0  0  0  0
   49.5849   36.1274   40.8869 H   0  0  0  0  0  0  0  0  0  0  0  0
   48.6937   35.0286   38.8179 H   0  0  0  0  0  0  0  0  0  0  0  0
   46.7843   33.3573   39.0551 H   0  0  0  0  0  0  0  0  0  0  0  0
  1  2  1  0
  2  8  2  0
  3  2  1  0
  3  4  2  0
  4  5  1  0
  5  6  2  0
  6  7  1  0
  8  6  1  0
  9 14  2  0
 10 11  2  0
 10  9  1  0
 11 12  1  0
 12 13  2  0
 13  3  1  0
 14 13  1  0
  4 15  1  0
  5 16  1  0
  8 17  1  0
  9 18  1  0
 10 19  1  0
 11 20  1  0
M  ISO  6  15  14  16  14  17  14  18  14  19  14  20  14
M  END
>  <minimizedAffinity>  (1) 
-4.72699022

>  <minimizedRMSD>  (1) 
3.95936704

$$$$
