
     RDKit          3D

 30 32  0  0  0  0  0  0  0  0999 V2000
   48.8610   35.4930   41.2000 C   0  0  0  0  0  0  0  0  0  0  0  0
   48.3480   34.9560   40.0000 C   0  0  0  0  0  0  0  0  0  0  0  0
   47.2650   34.0710   40.0710 C   0  0  0  0  0  0  0  0  0  0  0  0
   46.7930   33.8000   41.3030 N   0  0  0  0  0  0  0  0  0  0  0  0
   47.2740   34.3070   42.4360 C   0  0  0  0  0  0  0  0  0  0  0  0
   48.3210   35.1630   42.3900 N   0  0  0  0  0  0  0  0  0  0  0  0
   45.0220   36.0670   43.4750 Cl  0  0  0  0  0  0  0  0  0  0  0  0
   45.7050   34.6970   44.3100 C   0  0  0  0  0  0  0  0  0  0  0  0
   46.7220   33.9770   43.7350 C   0  0  0  0  0  0  0  0  0  0  0  0
   47.1880   32.9140   44.4830 C   0  0  0  0  0  0  0  0  0  0  0  0
   46.7210   32.5330   45.7230 C   0  0  0  0  0  0  0  0  0  0  0  0
   45.7010   33.2840   46.2580 C   0  0  0  0  0  0  0  0  0  0  0  0
   45.1240   32.7820   47.8370 Cl  0  0  0  0  0  0  0  0  0  0  0  0
   45.1880   34.3590   45.5670 C   0  0  0  0  0  0  0  0  0  0  0  0
   46.6920   33.4870   38.8930 C   0  0  0  0  0  0  0  0  0  0  0  0
   45.4370   32.9570   38.8190 C   0  0  0  0  0  0  0  0  0  0  0  0
   44.9360   32.4030   37.6490 C   0  0  0  0  0  0  0  0  0  0  0  0
   45.7060   32.3720   36.5040 C   0  0  0  0  0  0  0  0  0  0  0  0
   46.9780   32.8980   36.5410 C   0  0  0  0  0  0  0  0  0  0  0  0
   47.4410   33.4440   37.7350 C   0  0  0  0  0  0  0  0  0  0  0  0
   49.7118   36.1893   41.1637 H   0  0  0  0  0  0  0  0  0  0  0  0
   48.7894   35.2268   39.0295 H   0  0  0  0  0  0  0  0  0  0  0  0
   48.0051   32.3177   44.0508 H   0  0  0  0  0  0  0  0  0  0  0  0
   47.1439   31.6701   46.2583 H   0  0  0  0  0  0  0  0  0  0  0  0
   44.3711   34.9530   46.0028 H   0  0  0  0  0  0  0  0  0  0  0  0
   44.8010   32.9691   39.7164 H   0  0  0  0  0  0  0  0  0  0  0  0
   43.9183   31.9858   37.6343 H   0  0  0  0  0  0  0  0  0  0  0  0
   45.3096   31.9338   35.5761 H   0  0  0  0  0  0  0  0  0  0  0  0
   47.6157   32.8870   35.6448 H   0  0  0  0  0  0  0  0  0  0  0  0
   48.4577   33.8633   37.7564 H   0  0  0  0  0  0  0  0  0  0  0  0
  1  6  2  0
  2  3  2  0
  2  1  1  0
  3  4  1  0
  4  5  2  0
  5  9  1  0
  6  5  1  0
  7  8  1  0
  8 14  2  0
  9  8  1  0
  9 10  2  0
 10 11  1  0
 11 12  2  0
 12 13  1  0
 14 12  1  0
 15  3  1  0
 16 15  2  0
 17 16  1  0
 18 19  1  0
 18 17  2  0
 19 20  2  0
 20 15  1  0
  1 21  1  0
  2 22  1  0
 10 23  1  0
 11 24  1  0
 14 25  1  0
 16 26  1  0
 17 27  1  0
 18 28  1  0
 19 29  1  0
 20 30  1  0
M  ISO  8  21  14  22  14  23  14  24  14  25  14  26  14  27  14  28  14
M  ISO  2  29  14  30  14
M  END
>  <minimizedAffinity>  (1) 
-5.60771179

>  <minimizedRMSD>  (1) 
0.822888196

$$$$
