
     RDKit          3D

 29 31  0  0  0  0  0  0  0  0999 V2000
   48.8390   35.4690   41.2060 C   0  0  0  0  0  0  0  0  0  0  0  0
   48.3250   34.9330   40.0060 C   0  0  0  0  0  0  0  0  0  0  0  0
   47.2420   34.0480   40.1010 C   0  0  0  0  0  0  0  0  0  0  0  0
   46.7660   33.7710   41.3290 N   0  0  0  0  0  0  0  0  0  0  0  0
   47.2690   34.2910   42.4590 C   0  0  0  0  0  0  0  0  0  0  0  0
   48.3130   35.1480   42.4070 N   0  0  0  0  0  0  0  0  0  0  0  0
   45.0240   36.0480   43.5130 Cl  0  0  0  0  0  0  0  0  0  0  0  0
   45.7030   34.6830   44.3370 C   0  0  0  0  0  0  0  0  0  0  0  0
   46.7160   33.9570   43.7690 C   0  0  0  0  0  0  0  0  0  0  0  0
   47.1790   32.8990   44.5060 C   0  0  0  0  0  0  0  0  0  0  0  0
   46.7240   32.5080   45.7460 C   0  0  0  0  0  0  0  0  0  0  0  0
   45.6980   33.2670   46.2880 C   0  0  0  0  0  0  0  0  0  0  0  0
   45.1210   32.7670   47.8650 Cl  0  0  0  0  0  0  0  0  0  0  0  0
   45.1960   34.3390   45.5930 C   0  0  0  0  0  0  0  0  0  0  0  0
   46.6730   33.4650   38.8900 C   0  0  0  0  0  0  0  0  0  0  0  0
   47.4360   33.5070   37.7430 C   0  0  0  0  0  0  0  0  0  0  0  0
   46.8490   32.9420   36.6300 C   0  0  0  0  0  0  0  0  0  0  0  0
   45.5920   32.3800   36.6710 C   0  0  0  0  0  0  0  0  0  0  0  0
   44.8750   32.3730   37.8630 C   0  0  0  0  0  0  0  0  0  0  0  0
   45.4430   32.9270   38.9730 N   0  0  0  0  0  0  0  0  0  0  0  0
   49.6892   36.1655   41.1616 H   0  0  0  0  0  0  0  0  0  0  0  0
   48.7586   35.2001   39.0310 H   0  0  0  0  0  0  0  0  0  0  0  0
   47.9926   32.3044   44.0650 H   0  0  0  0  0  0  0  0  0  0  0  0
   47.1501   31.6433   46.2758 H   0  0  0  0  0  0  0  0  0  0  0  0
   44.3827   34.9361   46.0312 H   0  0  0  0  0  0  0  0  0  0  0  0
   48.4390   33.9578   37.7171 H   0  0  0  0  0  0  0  0  0  0  0  0
   47.4023   32.9401   35.6793 H   0  0  0  0  0  0  0  0  0  0  0  0
   45.1561   31.9377   35.7630 H   0  0  0  0  0  0  0  0  0  0  0  0
   43.8695   31.9294   37.9098 H   0  0  0  0  0  0  0  0  0  0  0  0
  1  6  2  0
  2  3  2  0
  2  1  1  0
  3  4  1  0
  4  5  2  0
  5  9  1  0
  6  5  1  0
  7  8  1  0
  8 14  2  0
  9  8  1  0
  9 10  2  0
 10 11  1  0
 11 12  2  0
 12 13  1  0
 14 12  1  0
 15 20  1  0
 15  3  1  0
 16 15  2  0
 17 18  2  0
 17 16  1  0
 18 19  1  0
 19 20  2  0
  1 21  1  0
  2 22  1  0
 10 23  1  0
 11 24  1  0
 14 25  1  0
 16 26  1  0
 17 27  1  0
 18 28  1  0
 19 29  1  0
M  ISO  8  21  14  22  14  23  14  24  14  25  14  26  14  27  14  28  14
M  ISO  1  29  14
M  END
>  <minimizedAffinity>  (1) 
-5.54703712

>  <minimizedRMSD>  (1) 
0.400520742

$$$$
