
     RDKit          3D

 28 29  0  0  0  0  0  0  0  0999 V2000
   48.9450   35.5010   41.4000 C   0  0  0  0  0  0  0  0  0  0  0  0
   48.4130   35.0800   40.1840 C   0  0  0  0  0  0  0  0  0  0  0  0
   47.2850   34.2490   40.2150 C   0  0  0  0  0  0  0  0  0  0  0  0
   46.7620   33.8910   41.4190 N   0  0  0  0  0  0  0  0  0  0  0  0
   47.3010   34.3160   42.5790 C   0  0  0  0  0  0  0  0  0  0  0  0
   48.4000   35.1270   42.5700 N   0  0  0  0  0  0  0  0  0  0  0  0
   45.0300   36.0270   43.6600 Cl  0  0  0  0  0  0  0  0  0  0  0  0
   45.7200   34.6360   44.4500 C   0  0  0  0  0  0  0  0  0  0  0  0
   46.7460   33.9370   43.8660 C   0  0  0  0  0  0  0  0  0  0  0  0
   47.2200   32.8570   44.5720 C   0  0  0  0  0  0  0  0  0  0  0  0
   46.7460   32.4350   45.7970 C   0  0  0  0  0  0  0  0  0  0  0  0
   45.7170   33.1580   46.3560 C   0  0  0  0  0  0  0  0  0  0  0  0
   45.1320   32.6160   47.9110 Cl  0  0  0  0  0  0  0  0  0  0  0  0
   45.2020   34.2520   45.6930 C   0  0  0  0  0  0  0  0  0  0  0  0
   46.7180   33.8020   38.9910 N   0  0  0  0  0  0  0  0  0  0  0  0
   47.7110   33.3700   37.6480 S   0  0  0  0  0  0  0  0  0  0  0  0
   48.2620   34.6200   37.0570 O   0  0  0  0  0  0  0  0  0  0  0  0
   46.9330   32.5810   36.6280 O   0  0  0  0  0  0  0  0  0  0  0  0
   48.9830   32.4600   38.2540 O   0  0  0  0  0  0  0  0  0  0  0  0
   49.8304   36.1537   41.4029 H   0  0  0  0  0  0  0  0  0  0  0  0
   48.8637   35.3898   39.2296 H   0  0  0  0  0  0  0  0  0  0  0  0
   48.0441   32.2826   44.1239 H   0  0  0  0  0  0  0  0  0  0  0  0
   47.1725   31.5577   46.3054 H   0  0  0  0  0  0  0  0  0  0  0  0
   44.3792   34.8266   46.1434 H   0  0  0  0  0  0  0  0  0  0  0  0
   45.6939   33.7346   38.9039 H   0  0  0  0  0  0  0  0  0  0  0  0
   48.5337   35.2363   37.7826 H   0  0  0  0  0  0  0  0  0  0  0  0
   46.3187   31.9580   37.0912 H   0  0  0  0  0  0  0  0  0  0  0  0
   48.9590   32.4772   39.2436 H   0  0  0  0  0  0  0  0  0  0  0  0
  1  6  2  0
  2  3  2  0
  2  1  1  0
  3  4  1  0
  4  5  2  0
  5  9  1  0
  6  5  1  0
  7  8  1  0
  8 14  2  0
  9  8  1  0
  9 10  2  0
 10 11  1  0
 11 12  2  0
 12 13  1  0
 14 12  1  0
 15  3  1  0
 16 19  1  0
 16 15  1  0
 17 16  1  0
 18 16  1  0
  1 20  1  0
  2 21  1  0
 10 22  1  0
 11 23  1  0
 14 24  1  0
 15 25  1  0
 17 26  1  0
 18 27  1  0
 19 28  1  0
M  ISO  8  20  14  21  14  22  14  23  14  24  14  26   3  27   3  28   3
M  END
>  <minimizedAffinity>  (1) 
-5.48103476

>  <minimizedRMSD>  (1) 
0.683516443

$$$$
