
     RDKit          3D

 27 29  0  0  0  0  0  0  0  0999 V2000
   48.9870   35.6190   41.1270 C   0  0  0  0  0  0  0  0  0  0  0  0
   48.5330   35.0880   39.9160 C   0  0  0  0  0  0  0  0  0  0  0  0
   47.4640   34.1790   39.9670 C   0  0  0  0  0  0  0  0  0  0  0  0
   46.9480   33.8790   41.1740 N   0  0  0  0  0  0  0  0  0  0  0  0
   47.3950   34.3970   42.3250 C   0  0  0  0  0  0  0  0  0  0  0  0
   48.4330   35.2830   42.3100 N   0  0  0  0  0  0  0  0  0  0  0  0
   45.0830   36.1140   43.2970 Cl  0  0  0  0  0  0  0  0  0  0  0  0
   45.7660   34.7560   44.1450 C   0  0  0  0  0  0  0  0  0  0  0  0
   46.8110   34.0480   43.6160 C   0  0  0  0  0  0  0  0  0  0  0  0
   47.2790   32.9930   44.3600 C   0  0  0  0  0  0  0  0  0  0  0  0
   46.7620   32.6230   45.5840 C   0  0  0  0  0  0  0  0  0  0  0  0
   45.7150   33.3460   46.0960 C   0  0  0  0  0  0  0  0  0  0  0  0
   45.0990   32.8330   47.6480 Cl  0  0  0  0  0  0  0  0  0  0  0  0
   45.2120   34.4200   45.3740 C   0  0  0  0  0  0  0  0  0  0  0  0
   46.9520   33.5960   38.7300 C   0  0  0  0  0  0  0  0  0  0  0  0
   47.5160   33.8190   37.4950 C   0  0  0  0  0  0  0  0  0  0  0  0
   46.7690   33.1200   36.6290 N   0  0  0  0  0  0  0  0  0  0  0  0
   45.7800   32.4930   37.3270 C   0  0  0  0  0  0  0  0  0  0  0  0
   45.9020   32.7960   38.6380 N   0  0  0  0  0  0  0  0  0  0  0  0
   49.8230   36.3339   41.1146 H   0  0  0  0  0  0  0  0  0  0  0  0
   48.9958   35.3716   38.9593 H   0  0  0  0  0  0  0  0  0  0  0  0
   48.1174   32.4072   43.9551 H   0  0  0  0  0  0  0  0  0  0  0  0
   47.1795   31.7683   46.1364 H   0  0  0  0  0  0  0  0  0  0  0  0
   44.3727   35.0064   45.7761 H   0  0  0  0  0  0  0  0  0  0  0  0
   48.3947   34.4400   37.2665 H   0  0  0  0  0  0  0  0  0  0  0  0
   46.9168   33.0659   35.6111 H   0  0  0  0  0  0  0  0  0  0  0  0
   45.0059   31.8437   36.8921 H   0  0  0  0  0  0  0  0  0  0  0  0
  1  6  2  0
  2  3  2  0
  2  1  1  0
  3  4  1  0
  4  5  2  0
  5  9  1  0
  6  5  1  0
  7  8  1  0
  8 14  2  0
  9  8  1  0
  9 10  2  0
 10 11  1  0
 11 12  2  0
 12 13  1  0
 14 12  1  0
 15  3  1  0
 16 15  2  0
 17 18  1  0
 17 16  1  0
 18 19  2  0
 19 15  1  0
  1 20  1  0
  2 21  1  0
 10 22  1  0
 11 23  1  0
 14 24  1  0
 16 25  1  0
 17 26  1  0
 18 27  1  0
M  ISO  8  20  14  21  14  22  14  23  14  24  14  25  14  26   9  27  14
M  END
>  <minimizedAffinity>  (1) 
-5.43790102

>  <minimizedRMSD>  (1) 
0.607764542

$$$$
