
     RDKit          3D

 24 25  0  0  0  0  0  0  0  0999 V2000
   48.9730   35.6160   41.1680 C   0  0  0  0  0  0  0  0  0  0  0  0
   48.4920   35.0940   39.9550 C   0  0  0  0  0  0  0  0  0  0  0  0
   47.4110   34.2010   40.0020 C   0  0  0  0  0  0  0  0  0  0  0  0
   46.9170   33.9160   41.2230 N   0  0  0  0  0  0  0  0  0  0  0  0
   47.3730   34.4120   42.3750 C   0  0  0  0  0  0  0  0  0  0  0  0
   48.4220   35.2810   42.3550 N   0  0  0  0  0  0  0  0  0  0  0  0
   45.0610   36.1210   43.3600 Cl  0  0  0  0  0  0  0  0  0  0  0  0
   45.7460   34.7620   44.1990 C   0  0  0  0  0  0  0  0  0  0  0  0
   46.7900   34.0600   43.6630 C   0  0  0  0  0  0  0  0  0  0  0  0
   47.2610   33.0040   44.4010 C   0  0  0  0  0  0  0  0  0  0  0  0
   46.7640   32.6070   45.6270 C   0  0  0  0  0  0  0  0  0  0  0  0
   45.7060   33.3430   46.1380 C   0  0  0  0  0  0  0  0  0  0  0  0
   45.0960   32.8170   47.6930 Cl  0  0  0  0  0  0  0  0  0  0  0  0
   45.2020   34.4060   45.4350 C   0  0  0  0  0  0  0  0  0  0  0  0
   47.3290   33.7610   37.5520 C   0  0  0  0  0  0  0  0  0  0  0  0
   48.3640   34.5070   37.4830 O   0  0  0  0  0  0  0  0  0  0  0  0
   46.8150   33.5900   38.8670 N   0  0  0  0  0  0  0  0  0  0  0  0
   49.8211   36.3163   41.1503 H   0  0  0  0  0  0  0  0  0  0  0  0
   48.9501   35.3776   38.9960 H   0  0  0  0  0  0  0  0  0  0  0  0
   48.1003   32.4282   43.9837 H   0  0  0  0  0  0  0  0  0  0  0  0
   47.1866   31.7494   46.1710 H   0  0  0  0  0  0  0  0  0  0  0  0
   44.3618   34.9837   45.8478 H   0  0  0  0  0  0  0  0  0  0  0  0
   46.8736   33.2904   36.6682 H   0  0  0  0  0  0  0  0  0  0  0  0
   45.9802   33.0017   39.0010 H   0  0  0  0  0  0  0  0  0  0  0  0
  1  6  2  0
  2  3  2  0
  2  1  1  0
  3  4  1  0
  4  5  2  0
  5  9  1  0
  6  5  1  0
  7  8  1  0
  8 14  2  0
  9  8  1  0
  9 10  2  0
 10 11  1  0
 11 12  2  0
 12 13  1  0
 14 12  1  0
 15 17  1  0
 16 15  2  0
 17  3  1  0
  1 18  1  0
  2 19  1  0
 10 20  1  0
 11 21  1  0
 14 22  1  0
 15 23  1  0
 17 24  1  0
M  ISO  6  18  14  19  14  20  14  21  14  22  14  23   6
M  END
>  <minimizedAffinity>  (1) 
-5.36761951

>  <minimizedRMSD>  (1) 
0.601380289

$$$$
