
     RDKit          3D

 42 44  0  0  1  0  0  0  0  0999 V2000
   44.7950   33.5810   40.9310 C   0  0  1  0  0  0  0  0  0  0  0  0
   46.0400   34.1930   41.5130 C   0  0  0  0  0  0  0  0  0  0  0  0
   45.6200   34.7790   42.8500 C   0  0  0  0  0  0  0  0  0  0  0  0
   44.7400   35.9660   42.5490 C   0  0  0  0  0  0  0  0  0  0  0  0
   43.5930   35.6700   41.6540 C   0  0  0  0  0  0  0  0  0  0  0  0
   43.7990   34.6650   40.5840 C   0  0  2  0  0  0  0  0  0  0  0  0
   45.9870   32.4620   37.4970 C   0  0  0  0  0  0  0  0  0  0  0  0
   45.7700   33.2830   38.5990 C   0  0  0  0  0  0  0  0  0  0  0  0
   45.0760   32.7870   39.7180 C   0  0  0  0  0  0  0  0  0  0  0  0
   44.6480   31.4970   39.6490 N   0  0  0  0  0  0  0  0  0  0  0  0
   44.8750   30.7220   38.5610 C   0  0  0  0  0  0  0  0  0  0  0  0
   45.5340   31.1870   37.4960 N   0  0  0  0  0  0  0  0  0  0  0  0
   42.4880   34.0560   40.1400 C   0  0  0  0  0  0  0  0  0  0  0  0
   41.4680   33.9250   41.2180 C   0  0  0  0  0  0  0  0  0  0  0  0
   40.0580   33.9670   40.6390 C   0  0  0  0  0  0  0  0  0  0  0  0
   39.8460   35.3390   40.0690 C   0  0  0  0  0  0  0  0  0  0  0  0
   40.9130   35.7490   39.1020 C   0  0  0  0  0  0  0  0  0  0  0  0
   41.9780   34.7180   38.8950 C   0  0  0  0  0  0  0  0  0  0  0  0
   44.3814   32.9066   41.6953 H   0  0  0  0  0  0  0  0  0  0  0  0
   46.8145   33.4251   41.6565 H   0  0  0  0  0  0  0  0  0  0  0  0
   46.4661   34.9590   40.8485 H   0  0  0  0  0  0  0  0  0  0  0  0
   45.0613   34.0315   43.4322 H   0  0  0  0  0  0  0  0  0  0  0  0
   46.4971   35.0784   43.4424 H   0  0  0  0  0  0  0  0  0  0  0  0
   44.3434   36.3499   43.5005 H   0  0  0  0  0  0  0  0  0  0  0  0
   45.3697   36.6965   42.0199 H   0  0  0  0  0  0  0  0  0  0  0  0
   42.7661   35.3133   42.2857 H   0  0  0  0  0  0  0  0  0  0  0  0
   43.4053   36.6128   41.1193 H   0  0  0  0  0  0  0  0  0  0  0  0
   44.2408   35.2265   39.7476 H   0  0  0  0  0  0  0  0  0  0  0  0
   46.5293   32.8511   36.6226 H   0  0  0  0  0  0  0  0  0  0  0  0
   46.1405   34.3187   38.5955 H   0  0  0  0  0  0  0  0  0  0  0  0
   44.5079   29.6851   38.5545 H   0  0  0  0  0  0  0  0  0  0  0  0
   42.7064   33.0094   39.8814 H   0  0  0  0  0  0  0  0  0  0  0  0
   41.6153   32.9675   41.7391 H   0  0  0  0  0  0  0  0  0  0  0  0
   41.5861   34.7649   41.9184 H   0  0  0  0  0  0  0  0  0  0  0  0
   39.9545   33.2109   39.8468 H   0  0  0  0  0  0  0  0  0  0  0  0
   39.3122   33.7514   41.4183 H   0  0  0  0  0  0  0  0  0  0  0  0
   38.8774   35.3549   39.5478 H   0  0  0  0  0  0  0  0  0  0  0  0
   39.8762   36.0492   40.9085 H   0  0  0  0  0  0  0  0  0  0  0  0
   40.4387   35.9557   38.1312 H   0  0  0  0  0  0  0  0  0  0  0  0
   41.4066   36.6339   39.5302 H   0  0  0  0  0  0  0  0  0  0  0  0
   41.5690   33.9357   38.2387 H   0  0  0  0  0  0  0  0  0  0  0  0
   42.8370   35.2540   38.4651 H   0  0  0  0  0  0  0  0  0  0  0  0
  1  2  1  0
  2  3  1  0
  4  3  1  0
  5  4  1  0
  6  1  1  0
  6  5  1  0
  7  8  2  0
  8  9  1  0
  9  1  1  0
 10  9  2  0
 11 10  1  0
 12  7  1  0
 12 11  2  0
 13  6  1  0
 13 14  1  0
 15 14  1  0
 16 15  1  0
 17 16  1  0
 18 17  1  0
 18 13  1  0
  1 19  1  1
  2 20  1  0
  2 21  1  0
  3 22  1  0
  3 23  1  0
  4 24  1  0
  4 25  1  0
  5 26  1  0
  5 27  1  0
  6 28  1  6
  7 29  1  0
  8 30  1  0
 11 31  1  0
 13 32  1  0
 14 33  1  0
 14 34  1  0
 15 35  1  0
 15 36  1  0
 16 37  1  0
 16 38  1  0
 17 39  1  0
 17 40  1  0
 18 41  1  0
 18 42  1  0
M  ISO  8  19  13  20  13  21  13  22  13  23  13  24  13  25  13  26  13
M  ISO  8  27  13  28  13  29  14  30  14  31  14  32  13  33  13  34  13
M  ISO  8  35  13  36  13  37  13  38  13  39  13  40  13  41  13  42  13
M  END
>  <minimizedAffinity>  (1) 
-4.48774481

>  <minimizedRMSD>  (1) 
7.42462444

$$$$
