
     RDKit          3D

 30 32  0  0  0  0  0  0  0  0999 V2000
   48.7690   35.4340   41.1070 C   0  0  0  0  0  0  0  0  0  0  0  0
   48.2670   34.8400   39.9280 C   0  0  0  0  0  0  0  0  0  0  0  0
   47.2080   33.9300   40.0440 C   0  0  0  0  0  0  0  0  0  0  0  0
   46.7470   33.6880   41.2910 N   0  0  0  0  0  0  0  0  0  0  0  0
   47.2270   34.2520   42.3980 C   0  0  0  0  0  0  0  0  0  0  0  0
   48.2430   35.1300   42.3080 N   0  0  0  0  0  0  0  0  0  0  0  0
   44.9790   36.0270   43.4140 Cl  0  0  0  0  0  0  0  0  0  0  0  0
   45.6720   34.6880   44.2710 C   0  0  0  0  0  0  0  0  0  0  0  0
   46.6900   33.9530   43.7090 C   0  0  0  0  0  0  0  0  0  0  0  0
   47.1630   32.9130   44.4800 C   0  0  0  0  0  0  0  0  0  0  0  0
   46.6940   32.5750   45.7370 C   0  0  0  0  0  0  0  0  0  0  0  0
   45.6720   33.3420   46.2610 C   0  0  0  0  0  0  0  0  0  0  0  0
   45.1360   32.8480   47.8540 Cl  0  0  0  0  0  0  0  0  0  0  0  0
   45.1660   34.3890   45.5340 C   0  0  0  0  0  0  0  0  0  0  0  0
   48.5160   34.6150   37.4260 Cl  0  0  0  0  0  0  0  0  0  0  0  0
   47.1470   33.5130   37.6470 C   0  0  0  0  0  0  0  0  0  0  0  0
   46.6230   33.2670   38.8890 C   0  0  0  0  0  0  0  0  0  0  0  0
   45.5660   32.3990   38.9460 C   0  0  0  0  0  0  0  0  0  0  0  0
   45.0020   31.7650   37.8610 C   0  0  0  0  0  0  0  0  0  0  0  0
   45.5480   32.0260   36.6030 C   0  0  0  0  0  0  0  0  0  0  0  0
   46.6120   32.8950   36.5120 C   0  0  0  0  0  0  0  0  0  0  0  0
   49.5990   36.1530   41.0430 H   0  0  0  0  0  0  0  0  0  0  0  0
   48.6959   35.0852   38.9452 H   0  0  0  0  0  0  0  0  0  0  0  0
   47.9780   32.3034   44.0628 H   0  0  0  0  0  0  0  0  0  0  0  0
   47.1184   31.7287   46.2970 H   0  0  0  0  0  0  0  0  0  0  0  0
   44.3520   34.9991   45.9526 H   0  0  0  0  0  0  0  0  0  0  0  0
   45.1332   32.1916   39.9358 H   0  0  0  0  0  0  0  0  0  0  0  0
   44.1517   31.0776   37.9815 H   0  0  0  0  0  0  0  0  0  0  0  0
   45.1364   31.5469   35.7024 H   0  0  0  0  0  0  0  0  0  0  0  0
   47.0506   33.1078   35.5259 H   0  0  0  0  0  0  0  0  0  0  0  0
  1  6  2  0
  2  3  2  0
  2  1  1  0
  3  4  1  0
  4  5  2  0
  5  9  1  0
  6  5  1  0
  7  8  1  0
  8 14  2  0
  9  8  1  0
  9 10  2  0
 10 11  1  0
 11 12  2  0
 12 13  1  0
 14 12  1  0
 15 16  1  0
 16 17  2  0
 17 18  1  0
 17  3  1  0
 19 18  2  0
 20 19  1  0
 21 20  2  0
 21 16  1  0
  1 22  1  0
  2 23  1  0
 10 24  1  0
 11 25  1  0
 14 26  1  0
 18 27  1  0
 19 28  1  0
 20 29  1  0
 21 30  1  0
M  ISO  8  22  14  23  14  24  14  25  14  26  14  27  14  28  14  29  14
M  ISO  1  30  14
M  END
>  <minimizedAffinity>  (1) 
-5.9917984

>  <minimizedRMSD>  (1) 
0.227470294

$$$$
