
     RDKit          3D

 36 38  0  0  0  0  0  0  0  0999 V2000
   48.7990   35.6030   40.9670 C   0  0  0  0  0  0  0  0  0  0  0  0
   48.4100   34.8950   39.8200 C   0  0  0  0  0  0  0  0  0  0  0  0
   47.4910   33.8630   39.9510 C   0  0  0  0  0  0  0  0  0  0  0  0
   47.0130   33.6030   41.1870 N   0  0  0  0  0  0  0  0  0  0  0  0
   47.3860   34.2880   42.2810 C   0  0  0  0  0  0  0  0  0  0  0  0
   48.2830   35.2890   42.1770 N   0  0  0  0  0  0  0  0  0  0  0  0
   45.0390   36.0670   43.1000 Cl  0  0  0  0  0  0  0  0  0  0  0  0
   45.7220   34.7680   44.0550 C   0  0  0  0  0  0  0  0  0  0  0  0
   46.7930   34.0180   43.5760 C   0  0  0  0  0  0  0  0  0  0  0  0
   47.2320   33.0330   44.3950 C   0  0  0  0  0  0  0  0  0  0  0  0
   46.6860   32.7490   45.6370 C   0  0  0  0  0  0  0  0  0  0  0  0
   45.6330   33.5020   46.0840 C   0  0  0  0  0  0  0  0  0  0  0  0
   45.0330   33.0530   47.6680 Cl  0  0  0  0  0  0  0  0  0  0  0  0
   45.1530   34.5070   45.2990 C   0  0  0  0  0  0  0  0  0  0  0  0
   48.7190   34.6290   37.3310 Cl  0  0  0  0  0  0  0  0  0  0  0  0
   47.5250   33.3620   37.5630 C   0  0  0  0  0  0  0  0  0  0  0  0
   47.1020   33.0720   38.8150 C   0  0  0  0  0  0  0  0  0  0  0  0
   46.2690   31.9710   38.8960 C   0  0  0  0  0  0  0  0  0  0  0  0
   45.8630   31.1970   37.8280 C   0  0  0  0  0  0  0  0  0  0  0  0
   46.3140   31.5350   36.5680 C   0  0  0  0  0  0  0  0  0  0  0  0
   47.1560   32.6340   36.4440 C   0  0  0  0  0  0  0  0  0  0  0  0
   47.6110   32.9740   35.1760 O   0  0  0  0  0  0  0  0  0  0  0  0
   48.4490   30.8670   33.7540 O   0  0  0  0  0  0  0  0  0  0  0  0
   48.8940   32.1430   34.4390 P   0  0  0  0  0  0  0  0  0  0  0  0
   50.0320   31.7910   35.6690 O   0  0  0  0  0  0  0  0  0  0  0  0
   49.6480   33.1050   33.2970 O   0  0  0  0  0  0  0  0  0  0  0  0
   49.5300   36.4205   40.8814 H   0  0  0  0  0  0  0  0  0  0  0  0
   48.8257   35.1530   38.8348 H   0  0  0  0  0  0  0  0  0  0  0  0
   48.0772   32.4180   44.0522 H   0  0  0  0  0  0  0  0  0  0  0  0
   47.0915   31.9328   46.2530 H   0  0  0  0  0  0  0  0  0  0  0  0
   44.3085   35.1176   45.6510 H   0  0  0  0  0  0  0  0  0  0  0  0
   45.8999   31.6892   39.8932 H   0  0  0  0  0  0  0  0  0  0  0  0
   45.1977   30.3337   37.9769 H   0  0  0  0  0  0  0  0  0  0  0  0
   46.0151   30.9503   35.6856 H   0  0  0  0  0  0  0  0  0  0  0  0
   49.6108   31.9213   36.5554 H   0  0  0  0  0  0  0  0  0  0  0  0
   50.1898   33.7963   33.7537 H   0  0  0  0  0  0  0  0  0  0  0  0
  1  6  2  0
  2  3  2  0
  2  1  1  0
  3  4  1  0
  4  5  2  0
  5  9  1  0
  6  5  1  0
  7  8  1  0
  8 14  2  0
  9  8  1  0
  9 10  2  0
 10 11  1  0
 11 12  2  0
 12 13  1  0
 14 12  1  0
 15 16  1  0
 16 17  2  0
 17 18  1  0
 17  3  1  0
 19 18  2  0
 20 19  1  0
 21 20  2  0
 21 16  1  0
 22 21  1  0
 23 24  2  0
 24 22  1  0
 24 25  1  0
 26 24  1  0
  1 27  1  0
  2 28  1  0
 10 29  1  0
 11 30  1  0
 14 31  1  0
 18 32  1  0
 19 33  1  0
 20 34  1  0
 25 35  1  0
 26 36  1  0
M  ISO  8  27  14  28  14  29  14  30  14  31  14  32  14  33  14  34  14
M  ISO  2  35   3  36   3
M  END
>  <minimizedAffinity>  (1) 
-6.38745642

>  <minimizedRMSD>  (1) 
0.551118493

$$$$
