
     RDKit          3D

 34 36  0  0  0  0  0  0  0  0999 V2000
   48.8100   35.5640   40.9450 C   0  0  0  0  0  0  0  0  0  0  0  0
   48.3610   34.9040   39.7890 C   0  0  0  0  0  0  0  0  0  0  0  0
   47.3900   33.9210   39.9110 C   0  0  0  0  0  0  0  0  0  0  0  0
   46.9230   33.6600   41.1540 N   0  0  0  0  0  0  0  0  0  0  0  0
   47.3500   34.2970   42.2570 C   0  0  0  0  0  0  0  0  0  0  0  0
   48.2970   35.2480   42.1570 N   0  0  0  0  0  0  0  0  0  0  0  0
   45.0140   36.0730   43.1060 Cl  0  0  0  0  0  0  0  0  0  0  0  0
   45.7070   34.7720   44.0490 C   0  0  0  0  0  0  0  0  0  0  0  0
   46.7720   34.0230   43.5570 C   0  0  0  0  0  0  0  0  0  0  0  0
   47.2200   33.0340   44.3710 C   0  0  0  0  0  0  0  0  0  0  0  0
   46.6920   32.7440   45.6170 C   0  0  0  0  0  0  0  0  0  0  0  0
   45.6450   33.4980   46.0770 C   0  0  0  0  0  0  0  0  0  0  0  0
   45.0540   33.0530   47.6640 Cl  0  0  0  0  0  0  0  0  0  0  0  0
   45.1530   34.5050   45.3030 C   0  0  0  0  0  0  0  0  0  0  0  0
   48.7890   34.4920   37.3320 Cl  0  0  0  0  0  0  0  0  0  0  0  0
   47.4290   33.4070   37.5300 C   0  0  0  0  0  0  0  0  0  0  0  0
   46.9320   33.1820   38.7690 C   0  0  0  0  0  0  0  0  0  0  0  0
   45.9580   32.2010   38.8270 C   0  0  0  0  0  0  0  0  0  0  0  0
   45.4880   31.4810   37.7490 C   0  0  0  0  0  0  0  0  0  0  0  0
   46.0230   31.7500   36.4990 C   0  0  0  0  0  0  0  0  0  0  0  0
   47.0030   32.7260   36.4030 C   0  0  0  0  0  0  0  0  0  0  0  0
   48.6510   32.5160   34.3920 C   0  0  0  0  0  0  0  0  0  0  0  0
   49.4960   31.6810   34.8430 O   0  0  0  0  0  0  0  0  0  0  0  0
   47.5310   32.9800   35.1040 N   0  0  0  0  0  0  0  0  0  0  0  0
   49.5832   36.3423   40.8647 H   0  0  0  0  0  0  0  0  0  0  0  0
   48.7730   35.1627   38.8024 H   0  0  0  0  0  0  0  0  0  0  0  0
   48.0610   32.4203   44.0159 H   0  0  0  0  0  0  0  0  0  0  0  0
   47.1044   31.9253   46.2251 H   0  0  0  0  0  0  0  0  0  0  0  0
   44.3124   35.1130   45.6686 H   0  0  0  0  0  0  0  0  0  0  0  0
   45.5236   31.9774   39.8125 H   0  0  0  0  0  0  0  0  0  0  0  0
   44.7099   30.7142   37.8776 H   0  0  0  0  0  0  0  0  0  0  0  0
   45.6796   31.2042   35.6078 H   0  0  0  0  0  0  0  0  0  0  0  0
   48.8066   32.9026   33.3740 H   0  0  0  0  0  0  0  0  0  0  0  0
   46.9663   33.6536   34.5671 H   0  0  0  0  0  0  0  0  0  0  0  0
  1  6  2  0
  2  3  2  0
  2  1  1  0
  3  4  1  0
  4  5  2  0
  5  9  1  0
  6  5  1  0
  7  8  1  0
  8 14  2  0
  9  8  1  0
  9 10  2  0
 10 11  1  0
 11 12  2  0
 12 13  1  0
 14 12  1  0
 15 16  1  0
 16 17  2  0
 17 18  1  0
 17  3  1  0
 19 18  2  0
 20 19  1  0
 21 20  2  0
 21 16  1  0
 22 23  2  0
 22 24  1  0
 24 21  1  0
  1 25  1  0
  2 26  1  0
 10 27  1  0
 11 28  1  0
 14 29  1  0
 18 30  1  0
 19 31  1  0
 20 32  1  0
 22 33  1  0
 24 34  1  0
M  ISO  8  25  14  26  14  27  14  28  14  29  14  30  14  31  14  32  14
M  ISO  1  33   6
M  END
>  <minimizedAffinity>  (1) 
-6.36330414

>  <minimizedRMSD>  (1) 
0.355046302

$$$$
