
     RDKit          3D

 45 48  0  0  0  0  0  0  0  0999 V2000
   48.9000   34.9500   42.0450 C   0  0  0  0  0  0  0  0  0  0  0  0
   48.1970   34.6910   40.8570 C   0  0  0  0  0  0  0  0  0  0  0  0
   47.0270   33.9450   40.9190 C   0  0  0  0  0  0  0  0  0  0  0  0
   46.6230   33.5120   42.1370 N   0  0  0  0  0  0  0  0  0  0  0  0
   47.2950   33.7660   43.2720 C   0  0  0  0  0  0  0  0  0  0  0  0
   48.4410   34.4870   43.2280 N   0  0  0  0  0  0  0  0  0  0  0  0
   45.0670   35.4710   44.4830 Cl  0  0  0  0  0  0  0  0  0  0  0  0
   45.7780   34.0470   45.2080 C   0  0  0  0  0  0  0  0  0  0  0  0
   46.7900   33.3440   44.5600 C   0  0  0  0  0  0  0  0  0  0  0  0
   47.2620   32.2550   45.2110 C   0  0  0  0  0  0  0  0  0  0  0  0
   46.7970   31.8280   46.4500 C   0  0  0  0  0  0  0  0  0  0  0  0
   45.8020   32.5390   47.0640 C   0  0  0  0  0  0  0  0  0  0  0  0
   45.3150   31.8950   48.6210 Cl  0  0  0  0  0  0  0  0  0  0  0  0
   45.2890   33.6430   46.4540 C   0  0  0  0  0  0  0  0  0  0  0  0
   44.0540   34.1570   41.1210 Cl  0  0  0  0  0  0  0  0  0  0  0  0
   44.9400   33.5920   39.7150 C   0  0  0  0  0  0  0  0  0  0  0  0
   46.2930   33.6100   39.7310 C   0  0  0  0  0  0  0  0  0  0  0  0
   46.8880   33.2720   38.5290 C   0  0  0  0  0  0  0  0  0  0  0  0
   46.2140   32.9300   37.3740 C   0  0  0  0  0  0  0  0  0  0  0  0
   44.8330   32.9180   37.4030 C   0  0  0  0  0  0  0  0  0  0  0  0
   44.2000   33.2560   38.5940 C   0  0  0  0  0  0  0  0  0  0  0  0
   42.7870   33.2280   38.5710 N   0  0  0  0  0  0  0  0  0  0  0  0
   42.0730   34.4600   38.7800 C   0  0  0  0  0  0  0  0  0  0  0  0
   40.8270   34.4600   37.9190 C   0  0  0  0  0  0  0  0  0  0  0  0
   40.0060   33.2070   38.0590 C   0  0  0  0  0  0  0  0  0  0  0  0
   40.6990   32.1360   38.8560 C   0  0  0  0  0  0  0  0  0  0  0  0
   42.1090   31.9660   38.3400 C   0  0  0  0  0  0  0  0  0  0  0  0
   49.8314   35.5343   42.0118 H   0  0  0  0  0  0  0  0  0  0  0  0
   48.5667   35.0725   39.8938 H   0  0  0  0  0  0  0  0  0  0  0  0
   48.0620   31.6725   44.7307 H   0  0  0  0  0  0  0  0  0  0  0  0
   47.2220   30.9334   46.9287 H   0  0  0  0  0  0  0  0  0  0  0  0
   44.4885   34.2180   46.9424 H   0  0  0  0  0  0  0  0  0  0  0  0
   47.9873   33.2761   38.4904 H   0  0  0  0  0  0  0  0  0  0  0  0
   46.7619   32.6739   36.4552 H   0  0  0  0  0  0  0  0  0  0  0  0
   44.2507   32.6488   36.5094 H   0  0  0  0  0  0  0  0  0  0  0  0
   41.7893   34.5467   39.8392 H   0  0  0  0  0  0  0  0  0  0  0  0
   42.7134   35.3116   38.5069 H   0  0  0  0  0  0  0  0  0  0  0  0
   41.1300   34.5629   36.8666 H   0  0  0  0  0  0  0  0  0  0  0  0
   40.1998   35.2992   38.2541 H   0  0  0  0  0  0  0  0  0  0  0  0
   39.0610   33.4615   38.5612 H   0  0  0  0  0  0  0  0  0  0  0  0
   39.8392   32.8083   37.0475 H   0  0  0  0  0  0  0  0  0  0  0  0
   40.7280   32.4272   39.9164 H   0  0  0  0  0  0  0  0  0  0  0  0
   40.1516   31.1873   38.7543 H   0  0  0  0  0  0  0  0  0  0  0  0
   42.0948   31.7334   37.2650 H   0  0  0  0  0  0  0  0  0  0  0  0
   42.6229   31.1388   38.8515 H   0  0  0  0  0  0  0  0  0  0  0  0
  1  6  2  0
  2  3  2  0
  2  1  1  0
  3  4  1  0
  4  5  2  0
  5  9  1  0
  6  5  1  0
  7  8  1  0
  8 14  2  0
  9  8  1  0
  9 10  2  0
 10 11  1  0
 11 12  2  0
 12 13  1  0
 14 12  1  0
 16 17  2  0
 16 15  1  0
 17  3  1  0
 18 17  1  0
 19 20  1  0
 19 18  2  0
 20 21  2  0
 21 16  1  0
 22 21  1  0
 22 23  1  0
 24 25  1  0
 24 23  1  0
 25 26  1  0
 27 22  1  0
 27 26  1  0
  1 28  1  0
  2 29  1  0
 10 30  1  0
 11 31  1  0
 14 32  1  0
 18 33  1  0
 19 34  1  0
 20 35  1  0
 23 36  1  0
 23 37  1  0
 24 38  1  0
 24 39  1  0
 25 40  1  0
 25 41  1  0
 26 42  1  0
 26 43  1  0
 27 44  1  0
 27 45  1  0
M  ISO  8  28  14  29  14  30  14  31  14  32  14  33  14  34  14  35  14
M  ISO  8  36  13  37  13  38  13  39  13  40  13  41  13  42  13  43  13
M  ISO  2  44  13  45  13
M  END
>  <minimizedAffinity>  (1) 
-6.31689548

>  <minimizedRMSD>  (1) 
4.17793274

$$$$
