
     RDKit          3D

 31 33  0  0  0  0  0  0  0  0999 V2000
   48.7810   35.4710   41.0210 C   0  0  0  0  0  0  0  0  0  0  0  0
   48.2780   34.8590   39.8630 C   0  0  0  0  0  0  0  0  0  0  0  0
   47.2780   33.9050   39.9870 C   0  0  0  0  0  0  0  0  0  0  0  0
   46.8330   33.6230   41.2310 N   0  0  0  0  0  0  0  0  0  0  0  0
   47.3090   34.2130   42.3390 C   0  0  0  0  0  0  0  0  0  0  0  0
   48.2930   35.1420   42.2380 N   0  0  0  0  0  0  0  0  0  0  0  0
   45.0130   36.0050   43.2590 Cl  0  0  0  0  0  0  0  0  0  0  0  0
   45.7100   34.6860   44.1700 C   0  0  0  0  0  0  0  0  0  0  0  0
   46.7570   33.9300   43.6450 C   0  0  0  0  0  0  0  0  0  0  0  0
   47.2150   32.9310   44.4340 C   0  0  0  0  0  0  0  0  0  0  0  0
   46.7070   32.6390   45.6930 C   0  0  0  0  0  0  0  0  0  0  0  0
   45.6790   33.3980   46.1840 C   0  0  0  0  0  0  0  0  0  0  0  0
   45.1350   32.9290   47.7830 Cl  0  0  0  0  0  0  0  0  0  0  0  0
   45.1820   34.4160   45.4270 C   0  0  0  0  0  0  0  0  0  0  0  0
   48.6800   34.4440   37.4000 Cl  0  0  0  0  0  0  0  0  0  0  0  0
   47.2650   33.4290   37.5960 C   0  0  0  0  0  0  0  0  0  0  0  0
   46.7680   33.2130   38.8360 C   0  0  0  0  0  0  0  0  0  0  0  0
   45.7390   32.2890   38.8900 C   0  0  0  0  0  0  0  0  0  0  0  0
   45.2120   31.6150   37.8110 C   0  0  0  0  0  0  0  0  0  0  0  0
   45.7460   31.8700   36.5580 C   0  0  0  0  0  0  0  0  0  0  0  0
   46.7830   32.7890   36.4640 C   0  0  0  0  0  0  0  0  0  0  0  0
   47.2990   33.0260   35.1960 O   0  0  0  0  0  0  0  0  0  0  0  0
   49.5784   36.2242   40.9380 H   0  0  0  0  0  0  0  0  0  0  0  0
   48.6703   35.1313   38.8721 H   0  0  0  0  0  0  0  0  0  0  0  0
   48.0411   32.3116   44.0547 H   0  0  0  0  0  0  0  0  0  0  0  0
   47.1238   31.8115   46.2859 H   0  0  0  0  0  0  0  0  0  0  0  0
   44.3553   35.0298   45.8142 H   0  0  0  0  0  0  0  0  0  0  0  0
   45.3056   32.0750   39.8781 H   0  0  0  0  0  0  0  0  0  0  0  0
   44.3906   30.8948   37.9400 H   0  0  0  0  0  0  0  0  0  0  0  0
   45.3597   31.3593   35.6636 H   0  0  0  0  0  0  0  0  0  0  0  0
   48.0392   33.6723   35.0756 H   0  0  0  0  0  0  0  0  0  0  0  0
  1  6  2  0
  2  3  2  0
  2  1  1  0
  3  4  1  0
  4  5  2  0
  5  9  1  0
  6  5  1  0
  7  8  1  0
  8 14  2  0
  9  8  1  0
  9 10  2  0
 10 11  1  0
 11 12  2  0
 12 13  1  0
 14 12  1  0
 15 16  1  0
 16 17  2  0
 17 18  1  0
 17  3  1  0
 19 18  2  0
 20 19  1  0
 21 20  2  0
 21 16  1  0
 22 21  1  0
  1 23  1  0
  2 24  1  0
 10 25  1  0
 11 26  1  0
 14 27  1  0
 18 28  1  0
 19 29  1  0
 20 30  1  0
 22 31  1  0
M  ISO  8  23  14  24  14  25  14  26  14  27  14  28  14  29  14  30  14
M  ISO  1  31   3
M  END
>  <minimizedAffinity>  (1) 
-6.27735949

>  <minimizedRMSD>  (1) 
0.160623208

$$$$
