
     RDKit          3D

 32 34  0  0  0  0  0  0  0  0999 V2000
   48.7780   35.4530   41.0010 C   0  0  0  0  0  0  0  0  0  0  0  0
   48.2620   34.8500   39.8420 C   0  0  0  0  0  0  0  0  0  0  0  0
   47.2530   33.9070   39.9690 C   0  0  0  0  0  0  0  0  0  0  0  0
   46.8130   33.6270   41.2200 N   0  0  0  0  0  0  0  0  0  0  0  0
   47.3060   34.2100   42.3250 C   0  0  0  0  0  0  0  0  0  0  0  0
   48.2940   35.1240   42.2200 N   0  0  0  0  0  0  0  0  0  0  0  0
   45.0170   36.0070   43.2600 Cl  0  0  0  0  0  0  0  0  0  0  0  0
   45.7160   34.6840   44.1660 C   0  0  0  0  0  0  0  0  0  0  0  0
   46.7600   33.9290   43.6360 C   0  0  0  0  0  0  0  0  0  0  0  0
   47.2200   32.9270   44.4230 C   0  0  0  0  0  0  0  0  0  0  0  0
   46.7140   32.6350   45.6850 C   0  0  0  0  0  0  0  0  0  0  0  0
   45.6880   33.3950   46.1790 C   0  0  0  0  0  0  0  0  0  0  0  0
   45.1450   32.9130   47.7730 Cl  0  0  0  0  0  0  0  0  0  0  0  0
   45.1920   34.4140   45.4250 C   0  0  0  0  0  0  0  0  0  0  0  0
   48.7570   34.2790   37.4160 Cl  0  0  0  0  0  0  0  0  0  0  0  0
   47.2630   33.3790   37.5930 C   0  0  0  0  0  0  0  0  0  0  0  0
   46.7200   33.2280   38.8240 C   0  0  0  0  0  0  0  0  0  0  0  0
   45.6260   32.3820   38.8690 C   0  0  0  0  0  0  0  0  0  0  0  0
   45.0850   31.7240   37.7850 C   0  0  0  0  0  0  0  0  0  0  0  0
   45.6660   31.9100   36.5470 C   0  0  0  0  0  0  0  0  0  0  0  0
   46.7690   32.7510   36.4620 C   0  0  0  0  0  0  0  0  0  0  0  0
   47.3440   32.9220   35.1690 N   0  0  0  0  0  0  0  0  0  0  0  0
   49.5822   36.1987   40.9163 H   0  0  0  0  0  0  0  0  0  0  0  0
   48.6519   35.1213   38.8498 H   0  0  0  0  0  0  0  0  0  0  0  0
   48.0439   32.3066   44.0406 H   0  0  0  0  0  0  0  0  0  0  0  0
   47.1313   31.8069   46.2767 H   0  0  0  0  0  0  0  0  0  0  0  0
   44.3685   35.0298   45.8157 H   0  0  0  0  0  0  0  0  0  0  0  0
   45.1500   32.2217   39.8476 H   0  0  0  0  0  0  0  0  0  0  0  0
   44.2112   31.0665   37.9040 H   0  0  0  0  0  0  0  0  0  0  0  0
   45.2675   31.4071   35.6535 H   0  0  0  0  0  0  0  0  0  0  0  0
   48.1633   33.5340   35.0466 H   0  0  0  0  0  0  0  0  0  0  0  0
   46.9402   32.4335   34.3571 H   0  0  0  0  0  0  0  0  0  0  0  0
  1  6  2  0
  2  3  2  0
  2  1  1  0
  3  4  1  0
  4  5  2  0
  5  9  1  0
  6  5  1  0
  7  8  1  0
  8 14  2  0
  9  8  1  0
  9 10  2  0
 10 11  1  0
 11 12  2  0
 12 13  1  0
 14 12  1  0
 15 16  1  0
 16 17  2  0
 17 18  1  0
 17  3  1  0
 19 18  2  0
 20 19  1  0
 21 20  2  0
 21 16  1  0
 22 21  1  0
  1 23  1  0
  2 24  1  0
 10 25  1  0
 11 26  1  0
 14 27  1  0
 18 28  1  0
 19 29  1  0
 20 30  1  0
 22 31  1  0
 22 32  1  0
M  ISO  8  23  14  24  14  25  14  26  14  27  14  28  14  29  14  30  14
M  END
>  <minimizedAffinity>  (1) 
-6.20735407

>  <minimizedRMSD>  (1) 
0.135659128

$$$$
