
     RDKit          3D

 31 33  0  0  0  0  0  0  0  0999 V2000
   48.7370   35.4550   40.9170 C   0  0  0  0  0  0  0  0  0  0  0  0
   48.2580   34.7980   39.7720 C   0  0  0  0  0  0  0  0  0  0  0  0
   47.2920   33.8120   39.9200 C   0  0  0  0  0  0  0  0  0  0  0  0
   46.8620   33.5500   41.1780 N   0  0  0  0  0  0  0  0  0  0  0  0
   47.3210   34.1870   42.2680 C   0  0  0  0  0  0  0  0  0  0  0  0
   48.2600   35.1370   42.1410 N   0  0  0  0  0  0  0  0  0  0  0  0
   45.0210   35.9760   43.1870 Cl  0  0  0  0  0  0  0  0  0  0  0  0
   45.7260   34.6660   44.1060 C   0  0  0  0  0  0  0  0  0  0  0  0
   46.7780   33.9140   43.5840 C   0  0  0  0  0  0  0  0  0  0  0  0
   47.2480   32.9250   44.3800 C   0  0  0  0  0  0  0  0  0  0  0  0
   46.7400   32.6420   45.6470 C   0  0  0  0  0  0  0  0  0  0  0  0
   45.7060   33.3980   46.1300 C   0  0  0  0  0  0  0  0  0  0  0  0
   45.1480   32.9250   47.7150 Cl  0  0  0  0  0  0  0  0  0  0  0  0
   45.2000   34.4050   45.3650 C   0  0  0  0  0  0  0  0  0  0  0  0
   49.1510   31.7460   38.8160 Cl  0  0  0  0  0  0  0  0  0  0  0  0
   47.5750   32.1510   38.1610 C   0  0  0  0  0  0  0  0  0  0  0  0
   46.8050   33.0700   38.7910 C   0  0  0  0  0  0  0  0  0  0  0  0
   45.5380   33.2240   38.2600 C   0  0  0  0  0  0  0  0  0  0  0  0
   45.0360   32.5330   37.1760 C   0  0  0  0  0  0  0  0  0  0  0  0
   45.8570   31.6050   36.5550 C   0  0  0  0  0  0  0  0  0  0  0  0
   47.1380   31.4220   37.0640 C   0  0  0  0  0  0  0  0  0  0  0  0
   48.1660   30.2220   36.2430 S   0  0  0  0  0  0  0  0  0  0  0  0
   49.5065   36.2346   40.8169 H   0  0  0  0  0  0  0  0  0  0  0  0
   48.6416   35.0601   38.7750 H   0  0  0  0  0  0  0  0  0  0  0  0
   48.0788   32.3090   44.0054 H   0  0  0  0  0  0  0  0  0  0  0  0
   47.1632   31.8244   46.2489 H   0  0  0  0  0  0  0  0  0  0  0  0
   44.3688   35.0160   45.7469 H   0  0  0  0  0  0  0  0  0  0  0  0
   44.8751   33.9581   38.7413 H   0  0  0  0  0  0  0  0  0  0  0  0
   44.0128   32.7137   36.8149 H   0  0  0  0  0  0  0  0  0  0  0  0
   45.5057   31.0303   35.6853 H   0  0  0  0  0  0  0  0  0  0  0  0
   48.8171   29.4620   37.1786 H   0  0  0  0  0  0  0  0  0  0  0  0
  1  6  2  0
  2  3  2  0
  2  1  1  0
  3  4  1  0
  4  5  2  0
  5  9  1  0
  6  5  1  0
  7  8  1  0
  8 14  2  0
  9  8  1  0
  9 10  2  0
 10 11  1  0
 11 12  2  0
 12 13  1  0
 14 12  1  0
 16 17  2  0
 16 15  1  0
 17  3  1  0
 18 17  1  0
 19 18  2  0
 20 21  2  0
 20 19  1  0
 21 16  1  0
 22 21  1  0
  1 23  1  0
  2 24  1  0
 10 25  1  0
 11 26  1  0
 14 27  1  0
 18 28  1  0
 19 29  1  0
 20 30  1  0
 22 31  1  0
M  ISO  8  23  14  24  14  25  14  26  14  27  14  28  14  29  14  30  14
M  ISO  1  31  11
M  END
>  <minimizedAffinity>  (1) 
-5.53029013

>  <minimizedRMSD>  (1) 
1.0800215

$$$$
