
     RDKit          3D

 16 16  0  0  0  0  0  0  0  0999 V2000
   46.3510   35.2080   42.5920 C   0  0  0  0  0  0  0  0  0  0  0  0
   46.8750   34.1000   43.2770 C   0  0  0  0  0  0  0  0  0  0  0  0
   46.3300   33.7730   44.5280 C   0  0  0  0  0  0  0  0  0  0  0  0
   45.3240   34.5470   45.0110 N   0  0  0  0  0  0  0  0  0  0  0  0
   44.8440   35.6040   44.3270 C   0  0  0  0  0  0  0  0  0  0  0  0
   45.3550   35.9360   43.1190 N   0  0  0  0  0  0  0  0  0  0  0  0
   47.9010   33.4050   42.6580 O   0  0  0  0  0  0  0  0  0  0  0  0
   50.3920   33.1940   41.8270 O   0  0  0  0  0  0  0  0  0  0  0  0
   49.3310   34.1930   42.1490 P   0  0  0  0  0  0  0  0  0  0  0  0
   49.0400   35.1080   40.7450 O   0  0  0  0  0  0  0  0  0  0  0  0
   49.9010   35.2300   43.3570 O   0  0  0  0  0  0  0  0  0  0  0  0
   46.7628   35.4829   41.6097 H   0  0  0  0  0  0  0  0  0  0  0  0
   46.7072   32.9135   45.1016 H   0  0  0  0  0  0  0  0  0  0  0  0
   44.0275   36.2037   44.7555 H   0  0  0  0  0  0  0  0  0  0  0  0
   48.7500   36.0197   40.9995 H   0  0  0  0  0  0  0  0  0  0  0  0
   49.6911   34.8480   44.2459 H   0  0  0  0  0  0  0  0  0  0  0  0
  1  6  2  0
  1  2  1  0
  2  3  2  0
  3  4  1  0
  5  4  2  0
  6  5  1  0
  7  2  1  0
  8  9  2  0
  9  7  1  0
  9 11  1  0
 10  9  1  0
  1 12  1  0
  3 13  1  0
  5 14  1  0
 10 15  1  0
 11 16  1  0
M  ISO  5  12  14  13  14  14  14  15   3  16   3
M  END
>  <minimizedAffinity>  (1) 
-4.13972664

>  <minimizedRMSD>  (1) 
4.63731432

$$$$
