
     RDKit          3D

 22 22  0  0  0  0  0  0  0  0999 V2000
   42.7520   35.2950   40.2730 C   0  0  0  0  0  0  0  0  0  0  0  0
   43.5400   34.5560   41.1610 C   0  0  0  0  0  0  0  0  0  0  0  0
   43.1180   33.2710   41.5260 C   0  0  0  0  0  0  0  0  0  0  0  0
   41.9530   32.7990   40.9940 N   0  0  0  0  0  0  0  0  0  0  0  0
   41.2270   33.5450   40.1420 C   0  0  0  0  0  0  0  0  0  0  0  0
   41.6220   34.7800   39.7860 N   0  0  0  0  0  0  0  0  0  0  0  0
   44.7110   35.1460   41.6390 O   0  0  0  0  0  0  0  0  0  0  0  0
   45.3710   37.0880   43.2890 O   0  0  0  0  0  0  0  0  0  0  0  0
   44.8070   35.6980   43.2590 P   0  0  1  0  0  0  0  0  0  0  0  0
   43.2850   35.7410   43.9920 O   0  0  0  0  0  0  0  0  0  0  0  0
   45.8250   34.6950   44.1520 O   0  0  0  0  0  0  0  0  0  0  0  0
   45.2830   34.2890   45.3440 C   0  0  0  0  0  0  0  0  0  0  0  0
   46.2740   33.2840   45.9350 C   0  0  0  0  0  0  0  0  0  0  0  0
   43.0656   36.3062   39.9746 H   0  0  0  0  0  0  0  0  0  0  0  0
   43.7096   32.6589   42.2226 H   0  0  0  0  0  0  0  0  0  0  0  0
   40.2927   33.1371   39.7288 H   0  0  0  0  0  0  0  0  0  0  0  0
   43.3925   35.7380   44.9761 H   0  0  0  0  0  0  0  0  0  0  0  0
   45.1597   35.1477   46.0204 H   0  0  0  0  0  0  0  0  0  0  0  0
   44.2885   33.8404   45.2034 H   0  0  0  0  0  0  0  0  0  0  0  0
   46.2302   33.3284   47.0332 H   0  0  0  0  0  0  0  0  0  0  0  0
   46.0126   32.2700   45.5983 H   0  0  0  0  0  0  0  0  0  0  0  0
   47.2916   33.5312   45.5983 H   0  0  0  0  0  0  0  0  0  0  0  0
  1  2  2  0
  2  3  1  0
  2  7  1  0
  4  3  2  0
  5  4  1  0
  6  5  2  0
  6  1  1  0
  7  9  1  0
  9  8  2  0
  9 10  1  0
  9 11  1  0
 11 12  1  0
 12 13  1  0
  1 14  1  0
  3 15  1  0
  5 16  1  0
 10 17  1  0
 12 18  1  0
 12 19  1  0
 13 20  1  0
 13 21  1  0
 13 22  1  0
M  ISO  8  14  14  15  14  16  14  17   3  18   8  19   8  20   8  21   8
M  ISO  1  22   8
M  END
>  <minimizedAffinity>  (1) 
-3.77219582

>  <minimizedRMSD>  (1) 
5.35568619

$$$$
