
     RDKit          3D

 25 25  0  0  0  0  0  0  0  0999 V2000
   49.5860   35.4060   42.8340 O   0  0  0  0  0  0  0  0  0  0  0  0
   49.0340   34.3120   41.9810 P   0  0  1  0  0  0  0  0  0  0  0  0
   50.3060   33.2730   41.6070 O   0  0  0  0  0  0  0  0  0  0  0  0
   47.7850   33.4850   42.7910 O   0  0  0  0  0  0  0  0  0  0  0  0
   46.1900   35.2650   42.7140 C   0  0  0  0  0  0  0  0  0  0  0  0
   46.7370   34.1880   43.3910 C   0  0  0  0  0  0  0  0  0  0  0  0
   46.2240   33.8390   44.6530 C   0  0  0  0  0  0  0  0  0  0  0  0
   45.1930   34.6110   45.1310 N   0  0  0  0  0  0  0  0  0  0  0  0
   44.6870   35.6430   44.4540 C   0  0  0  0  0  0  0  0  0  0  0  0
   45.1860   35.9590   43.2620 N   0  0  0  0  0  0  0  0  0  0  0  0
   48.4670   34.9800   40.5560 O   0  0  0  0  0  0  0  0  0  0  0  0
   48.1220   34.3320   39.4230 C   0  0  0  0  0  0  0  0  0  0  0  0
   46.9110   33.8580   39.4890 O   0  0  0  0  0  0  0  0  0  0  0  0
   46.6090   33.9830   36.9940 N   0  0  0  0  0  0  0  0  0  0  0  0
   47.8840   33.8180   36.9480 C   0  0  0  0  0  0  0  0  0  0  0  0
   48.6580   33.9810   38.1160 N   0  0  0  0  0  0  0  0  0  0  0  0
   48.7250   33.4690   35.8250 N   0  0  0  0  0  0  0  0  0  0  0  0
   45.9990   33.8740   36.1610 H   0  0  0  0  0  0  0  0  0  0  0  0
   50.7157   32.9384   42.4438 H   0  0  0  0  0  0  0  0  0  0  0  0
   46.5808   35.5498   41.7260 H   0  0  0  0  0  0  0  0  0  0  0  0
   46.6272   32.9920   45.2275 H   0  0  0  0  0  0  0  0  0  0  0  0
   43.8602   36.2305   44.8798 H   0  0  0  0  0  0  0  0  0  0  0  0
   49.6756   33.8416   38.0384 H   0  0  0  0  0  0  0  0  0  0  0  0
   49.7425   33.3737   35.9536 H   0  0  0  0  0  0  0  0  0  0  0  0
   48.3067   33.3157   34.8963 H   0  0  0  0  0  0  0  0  0  0  0  0
  2  4  1  0
  2  1  2  0
  3  2  1  0
  4  6  1  0
  5 10  2  0
  5  6  1  0
  6  7  2  0
  7  8  1  0
  9  8  2  0
 10  9  1  0
 11  2  1  0
 12 13  2  0
 12 11  1  0
 15 14  2  0
 15 16  1  0
 16 12  1  0
 17 15  1  0
 18 14  1  0
  3 19  1  0
  5 20  1  0
  7 21  1  0
  9 22  1  0
 16 23  1  0
 17 24  1  0
 17 25  1  0
M  ISO  4  19   3  20  14  21  14  22  14
M  END
>  <minimizedAffinity>  (1) 
-5.24376583

>  <minimizedRMSD>  (1) 
0.249675706

$$$$
