
     RDKit          3D

 28 29  0  0  0  0  0  0  0  0999 V2000
   49.3660   35.4700   42.4440 O   0  0  0  0  0  0  0  0  0  0  0  0
   48.7660   34.2840   41.7530 P   0  0  1  0  0  0  0  0  0  0  0  0
   50.0280   33.2640   41.3200 O   0  0  0  0  0  0  0  0  0  0  0  0
   47.6750   33.4900   42.8040 O   0  0  0  0  0  0  0  0  0  0  0  0
   46.1350   35.3100   42.8360 C   0  0  0  0  0  0  0  0  0  0  0  0
   46.6640   34.1910   43.4570 C   0  0  0  0  0  0  0  0  0  0  0  0
   46.1650   33.8060   44.7130 C   0  0  0  0  0  0  0  0  0  0  0  0
   45.1710   34.5770   45.2500 N   0  0  0  0  0  0  0  0  0  0  0  0
   44.6830   35.6500   44.6260 C   0  0  0  0  0  0  0  0  0  0  0  0
   45.1610   36.0070   43.4360 N   0  0  0  0  0  0  0  0  0  0  0  0
   47.9730   34.7880   40.3750 O   0  0  0  0  0  0  0  0  0  0  0  0
   47.3480   34.0150   39.4640 C   0  0  0  0  0  0  0  0  0  0  0  0
   46.2100   33.5830   39.9110 O   0  0  0  0  0  0  0  0  0  0  0  0
   47.5360   33.4890   38.0800 C   0  0  0  0  0  0  0  0  0  0  0  0
   48.6580   33.7350   37.3720 C   0  0  0  0  0  0  0  0  0  0  0  0
   48.6990   33.1770   36.0880 C   0  0  0  0  0  0  0  0  0  0  0  0
   47.6950   32.4180   35.5270 C   0  0  0  0  0  0  0  0  0  0  0  0
   46.5600   32.1770   36.2590 C   0  0  0  0  0  0  0  0  0  0  0  0
   46.5070   32.7200   37.5230 C   0  0  0  0  0  0  0  0  0  0  0  0
   50.4631   32.9123   42.1367 H   0  0  0  0  0  0  0  0  0  0  0  0
   46.5136   35.6257   41.8526 H   0  0  0  0  0  0  0  0  0  0  0  0
   46.5564   32.9238   45.2408 H   0  0  0  0  0  0  0  0  0  0  0  0
   43.8834   36.2415   45.0959 H   0  0  0  0  0  0  0  0  0  0  0  0
   49.4865   34.3347   37.7769 H   0  0  0  0  0  0  0  0  0  0  0  0
   49.5994   33.3581   35.4826 H   0  0  0  0  0  0  0  0  0  0  0  0
   47.8017   32.0125   34.5101 H   0  0  0  0  0  0  0  0  0  0  0  0
   45.7308   31.5778   35.8548 H   0  0  0  0  0  0  0  0  0  0  0  0
   45.6066   32.5398   38.1287 H   0  0  0  0  0  0  0  0  0  0  0  0
  2  1  2  0
  2  4  1  0
  3  2  1  0
  4  6  1  0
  5 10  2  0
  5  6  1  0
  6  7  2  0
  7  8  1  0
  9  8  2  0
 10  9  1  0
 11  2  1  0
 12 13  2  0
 12 11  1  0
 14 12  1  0
 15 14  2  0
 16 15  1  0
 17 16  2  0
 17 18  1  0
 18 19  2  0
 19 14  1  0
  3 20  1  0
  5 21  1  0
  7 22  1  0
  9 23  1  0
 15 24  1  0
 16 25  1  0
 17 26  1  0
 18 27  1  0
 19 28  1  0
M  ISO  8  20   3  21  14  22  14  23  14  24  14  25  14  26  14  27  14
M  ISO  1  28  14
M  END
>  <minimizedAffinity>  (1) 
-4.5832119

>  <minimizedRMSD>  (1) 
1.00927424

$$$$
