
     RDKit          3D

 31 32  0  0  0  0  0  0  0  0999 V2000
   49.4780   35.5370   42.7110 O   0  0  0  0  0  0  0  0  0  0  0  0
   48.9430   34.3540   41.9740 P   0  0  1  0  0  0  0  0  0  0  0  0
   50.2470   33.3590   41.6090 O   0  0  0  0  0  0  0  0  0  0  0  0
   47.7890   33.5220   42.9280 O   0  0  0  0  0  0  0  0  0  0  0  0
   46.1810   35.2870   42.8580 C   0  0  0  0  0  0  0  0  0  0  0  0
   46.7290   34.2030   43.5240 C   0  0  0  0  0  0  0  0  0  0  0  0
   46.1910   33.8450   44.7690 C   0  0  0  0  0  0  0  0  0  0  0  0
   45.1520   34.5860   45.2560 N   0  0  0  0  0  0  0  0  0  0  0  0
   44.6530   35.6240   44.5810 C   0  0  0  0  0  0  0  0  0  0  0  0
   45.1640   35.9660   43.3980 N   0  0  0  0  0  0  0  0  0  0  0  0
   48.2420   34.8850   40.5550 O   0  0  0  0  0  0  0  0  0  0  0  0
   47.7520   34.0990   39.5650 C   0  0  0  0  0  0  0  0  0  0  0  0
   46.5100   33.8150   39.7550 O   0  0  0  0  0  0  0  0  0  0  0  0
   47.7900   33.3150   38.3000 C   0  0  0  0  0  0  0  0  0  0  0  0
   48.2800   34.2630   37.2110 C   0  0  0  0  0  0  0  0  0  0  0  0
   48.5540   33.2760   36.0910 C   0  0  0  0  0  0  0  0  0  0  0  0
   49.3130   32.1840   36.8310 C   0  0  0  0  0  0  0  0  0  0  0  0
   48.8830   32.2910   38.2970 C   0  0  0  0  0  0  0  0  0  0  0  0
   50.6643   33.0406   42.4484 H   0  0  0  0  0  0  0  0  0  0  0  0
   46.5844   35.5903   41.8806 H   0  0  0  0  0  0  0  0  0  0  0  0
   46.5938   32.9929   45.3362 H   0  0  0  0  0  0  0  0  0  0  0  0
   43.8162   36.1999   45.0029 H   0  0  0  0  0  0  0  0  0  0  0  0
   46.7950   32.8642   38.1705 H   0  0  0  0  0  0  0  0  0  0  0  0
   47.5068   34.9929   36.9294 H   0  0  0  0  0  0  0  0  0  0  0  0
   49.1416   34.8843   37.4966 H   0  0  0  0  0  0  0  0  0  0  0  0
   49.1693   33.7273   35.2987 H   0  0  0  0  0  0  0  0  0  0  0  0
   47.6506   32.9228   35.5722 H   0  0  0  0  0  0  0  0  0  0  0  0
   49.0508   31.1951   36.4269 H   0  0  0  0  0  0  0  0  0  0  0  0
   50.4009   32.3033   36.7203 H   0  0  0  0  0  0  0  0  0  0  0  0
   48.5088   31.3235   38.6629 H   0  0  0  0  0  0  0  0  0  0  0  0
   49.7179   32.5722   38.9557 H   0  0  0  0  0  0  0  0  0  0  0  0
  2  1  2  0
  2  4  1  0
  3  2  1  0
  4  6  1  0
  5 10  2  0
  5  6  1  0
  6  7  2  0
  7  8  1  0
  9  8  2  0
 10  9  1  0
 11  2  1  0
 12 13  2  0
 12 11  1  0
 14 12  1  0
 15 14  1  0
 16 17  1  0
 16 15  1  0
 17 18  1  0
 18 14  1  0
  3 19  1  0
  5 20  1  0
  7 21  1  0
  9 22  1  0
 14 23  1  0
 15 24  1  0
 15 25  1  0
 16 26  1  0
 16 27  1  0
 17 28  1  0
 17 29  1  0
 18 30  1  0
 18 31  1  0
M  ISO  8  19   3  20  14  21  14  22  14  23  13  24  13  25  13  26  13
M  ISO  5  27  13  28  13  29  13  30  13  31  13
M  END
>  <minimizedAffinity>  (1) 
-4.57542562

>  <minimizedRMSD>  (1) 
0.584548414

$$$$
