
     RDKit          3D

 27 28  0  0  0  0  0  0  0  0999 V2000
   49.3390   35.4840   42.3960 O   0  0  0  0  0  0  0  0  0  0  0  0
   48.7590   34.2780   41.7180 P   0  0  1  0  0  0  0  0  0  0  0  0
   50.0260   33.2550   41.3020 O   0  0  0  0  0  0  0  0  0  0  0  0
   47.6630   33.4830   42.7660 O   0  0  0  0  0  0  0  0  0  0  0  0
   46.1200   35.3160   42.7840 C   0  0  0  0  0  0  0  0  0  0  0  0
   46.6570   34.1890   43.4220 C   0  0  0  0  0  0  0  0  0  0  0  0
   46.1610   33.8330   44.6750 C   0  0  0  0  0  0  0  0  0  0  0  0
   45.1710   34.6040   45.2210 N   0  0  0  0  0  0  0  0  0  0  0  0
   44.6860   35.6690   44.5830 C   0  0  0  0  0  0  0  0  0  0  0  0
   45.1490   36.0360   43.3690 N   0  0  0  0  0  0  0  0  0  0  0  0
   47.9760   34.7660   40.3300 O   0  0  0  0  0  0  0  0  0  0  0  0
   47.3570   33.9890   39.4200 C   0  0  0  0  0  0  0  0  0  0  0  0
   46.2260   33.5450   39.8720 O   0  0  0  0  0  0  0  0  0  0  0  0
   47.5360   33.4620   38.0350 C   0  0  0  0  0  0  0  0  0  0  0  0
   48.6580   33.7040   37.3260 C   0  0  0  0  0  0  0  0  0  0  0  0
   48.6800   33.1390   36.0430 C   0  0  0  0  0  0  0  0  0  0  0  0
   47.6760   32.3850   35.4810 C   0  0  0  0  0  0  0  0  0  0  0  0
   46.5780   32.1990   36.2900 C   0  0  0  0  0  0  0  0  0  0  0  0
   46.5150   32.7200   37.5200 N   0  0  0  0  0  0  0  0  0  0  0  0
   50.4545   32.9090   42.1247 H   0  0  0  0  0  0  0  0  0  0  0  0
   46.4977   35.6134   41.7946 H   0  0  0  0  0  0  0  0  0  0  0  0
   46.5546   32.9563   45.2103 H   0  0  0  0  0  0  0  0  0  0  0  0
   43.8901   36.2626   45.0565 H   0  0  0  0  0  0  0  0  0  0  0  0
   49.4926   34.2996   37.7244 H   0  0  0  0  0  0  0  0  0  0  0  0
   49.5783   33.3139   35.4327 H   0  0  0  0  0  0  0  0  0  0  0  0
   47.7451   31.9646   34.4669 H   0  0  0  0  0  0  0  0  0  0  0  0
   45.7305   31.6065   35.9151 H   0  0  0  0  0  0  0  0  0  0  0  0
  2  1  2  0
  2  4  1  0
  3  2  1  0
  4  6  1  0
  5 10  2  0
  5  6  1  0
  6  7  2  0
  7  8  1  0
  9  8  2  0
 10  9  1  0
 11  2  1  0
 12 13  2  0
 12 11  1  0
 14 12  1  0
 15 14  2  0
 16 15  1  0
 17 16  2  0
 17 18  1  0
 18 19  2  0
 19 14  1  0
  3 20  1  0
  5 21  1  0
  7 22  1  0
  9 23  1  0
 15 24  1  0
 16 25  1  0
 17 26  1  0
 18 27  1  0
M  ISO  8  20   3  21  14  22  14  23  14  24  14  25  14  26  14  27  14
M  END
>  <minimizedAffinity>  (1) 
-4.54061651

>  <minimizedRMSD>  (1) 
1.01099086

$$$$
