
     RDKit          3D

 20 20  0  0  0  0  0  0  0  0999 V2000
   47.6860   33.4700   42.6530 O   0  0  0  0  0  0  0  0  0  0  0  0
   46.1310   35.2700   42.6830 C   0  0  0  0  0  0  0  0  0  0  0  0
   46.6810   34.1700   43.3200 C   0  0  0  0  0  0  0  0  0  0  0  0
   46.2030   33.8270   44.5830 C   0  0  0  0  0  0  0  0  0  0  0  0
   45.2140   34.5960   45.1270 N   0  0  0  0  0  0  0  0  0  0  0  0
   44.7070   35.6490   44.4850 C   0  0  0  0  0  0  0  0  0  0  0  0
   45.1600   35.9840   43.2760 N   0  0  0  0  0  0  0  0  0  0  0  0
   49.5660   35.3200   42.7810 O   0  0  0  0  0  0  0  0  0  0  0  0
   48.9700   34.2960   41.8740 P   0  0  1  0  0  0  0  0  0  0  0  0
   50.1920   33.2260   41.4430 O   0  0  0  0  0  0  0  0  0  0  0  0
   48.4090   35.0690   40.5030 O   0  0  0  0  0  0  0  0  0  0  0  0
   48.0760   34.4670   39.3320 C   0  0  0  0  0  0  0  0  0  0  0  0
   47.0110   33.7510   39.4560 O   0  0  0  0  0  0  0  0  0  0  0  0
   48.2140   34.1280   37.9300 N   0  0  0  0  0  0  0  0  0  0  0  0
   46.4916   35.5607   41.6853 H   0  0  0  0  0  0  0  0  0  0  0  0
   46.6104   32.9617   45.1264 H   0  0  0  0  0  0  0  0  0  0  0  0
   43.9107   36.2447   44.9551 H   0  0  0  0  0  0  0  0  0  0  0  0
   50.6121   32.8582   42.2605 H   0  0  0  0  0  0  0  0  0  0  0  0
   48.9970   34.5120   37.3819 H   0  0  0  0  0  0  0  0  0  0  0  0
   47.5291   33.5030   37.4815 H   0  0  0  0  0  0  0  0  0  0  0  0
  1  3  1  0
  2  7  2  0
  2  3  1  0
  3  4  2  0
  4  5  1  0
  6  5  2  0
  7  6  1  0
  9  1  1  0
  9  8  2  0
 10  9  1  0
 11  9  1  0
 12 13  2  0
 12 11  1  0
 14 12  1  0
  2 15  1  0
  4 16  1  0
  6 17  1  0
 10 18  1  0
 14 19  1  0
 14 20  1  0
M  ISO  4  15  14  16  14  17  14  18   3
M  END
>  <minimizedAffinity>  (1) 
-3.96230221

>  <minimizedRMSD>  (1) 
0.0607456863

$$$$
