
     RDKit          3D

 35 37  0  0  0  0  0  0  0  0999 V2000
   47.8920   33.9030   39.5530 C   0  0  0  0  0  0  0  0  0  0  0  0
   46.6330   33.7210   39.7250 O   0  0  0  0  0  0  0  0  0  0  0  0
   48.2580   33.1490   38.3460 C   0  0  0  0  0  0  0  0  0  0  0  0
   48.5770   31.7710   38.2340 C   0  0  0  0  0  0  0  0  0  0  0  0
   48.8820   31.3310   36.9930 C   0  0  0  0  0  0  0  0  0  0  0  0
   48.8850   32.1520   35.9270 C   0  0  0  0  0  0  0  0  0  0  0  0
   48.3920   33.8050   36.7140 S   0  0  0  0  0  0  0  0  0  0  0  0
   51.3580   30.5850   35.0700 Cl  0  0  0  0  0  0  0  0  0  0  0  0
   50.2180   31.4030   34.0240 C   0  0  0  0  0  0  0  0  0  0  0  0
   49.1350   32.0780   34.5460 C   0  0  0  0  0  0  0  0  0  0  0  0
   48.2080   32.7370   33.7720 C   0  0  0  0  0  0  0  0  0  0  0  0
   48.3400   32.7420   32.3770 C   0  0  0  0  0  0  0  0  0  0  0  0
   49.4170   32.0710   31.8260 C   0  0  0  0  0  0  0  0  0  0  0  0
   49.6390   32.0390   30.0930 Cl  0  0  0  0  0  0  0  0  0  0  0  0
   50.3390   31.4140   32.6290 C   0  0  0  0  0  0  0  0  0  0  0  0
   48.4120   34.6890   40.5030 O   0  0  0  0  0  0  0  0  0  0  0  0
   49.5750   35.4680   42.6650 O   0  0  0  0  0  0  0  0  0  0  0  0
   49.0740   34.2450   41.9610 P   0  0  2  0  0  0  0  0  0  0  0  0
   50.3800   33.2330   41.6680 O   0  0  0  0  0  0  0  0  0  0  0  0
   47.8830   33.4400   42.9060 O   0  0  0  0  0  0  0  0  0  0  0  0
   46.3030   35.2430   42.7400 C   0  0  0  0  0  0  0  0  0  0  0  0
   46.8140   34.1560   43.4440 C   0  0  0  0  0  0  0  0  0  0  0  0
   46.2360   33.8150   44.6790 C   0  0  0  0  0  0  0  0  0  0  0  0
   45.1930   34.5800   45.1200 N   0  0  0  0  0  0  0  0  0  0  0  0
   44.7300   35.6200   44.4070 C   0  0  0  0  0  0  0  0  0  0  0  0
   45.2770   35.9500   43.2310 N   0  0  0  0  0  0  0  0  0  0  0  0
   48.5761   31.1003   39.1059 H   0  0  0  0  0  0  0  0  0  0  0  0
   49.1353   30.2701   36.8502 H   0  0  0  0  0  0  0  0  0  0  0  0
   47.3646   33.2591   34.2474 H   0  0  0  0  0  0  0  0  0  0  0  0
   47.6101   33.2631   31.7400 H   0  0  0  0  0  0  0  0  0  0  0  0
   51.1841   30.8899   32.1587 H   0  0  0  0  0  0  0  0  0  0  0  0
   50.7657   32.9341   42.5294 H   0  0  0  0  0  0  0  0  0  0  0  0
   46.7455   35.5234   41.7727 H   0  0  0  0  0  0  0  0  0  0  0  0
   46.6091   32.9644   45.2683 H   0  0  0  0  0  0  0  0  0  0  0  0
   43.8873   36.2102   44.7962 H   0  0  0  0  0  0  0  0  0  0  0  0
  1  2  2  0
  1 16  1  0
  3  1  1  0
  4  3  2  0
  5  4  1  0
  6  7  1  0
  6  5  2  0
  7  3  1  0
  9 10  2  0
  9  8  1  0
 10  6  1  0
 11 10  1  0
 12 11  2  0
 13 12  1  0
 13 15  2  0
 14 13  1  0
 15  9  1  0
 16 18  1  0
 18 17  2  0
 18 20  1  0
 19 18  1  0
 20 22  1  0
 21 26  2  0
 21 22  1  0
 22 23  2  0
 23 24  1  0
 25 24  2  0
 26 25  1  0
  4 27  1  0
  5 28  1  0
 11 29  1  0
 12 30  1  0
 15 31  1  0
 19 32  1  0
 21 33  1  0
 23 34  1  0
 25 35  1  0
M  ISO  8  27  14  28  14  29  14  30  14  31  14  32   3  33  14  34  14
M  ISO  1  35  14
M  END
>  <minimizedAffinity>  (1) 
-5.64332104

>  <minimizedRMSD>  (1) 
1.97127211

$$$$
