
     RDKit          3D

 32 34  0  0  0  0  0  0  0  0999 V2000
   47.4600   34.0190   39.4200 C   0  0  0  0  0  0  0  0  0  0  0  0
   46.3220   33.5420   39.8010 O   0  0  0  0  0  0  0  0  0  0  0  0
   47.6800   33.5040   38.0630 C   0  0  0  0  0  0  0  0  0  0  0  0
   48.7690   33.7750   37.1920 C   0  0  0  0  0  0  0  0  0  0  0  0
   48.7300   33.1660   35.9830 C   0  0  0  0  0  0  0  0  0  0  0  0
   47.7230   32.3550   35.6280 C   0  0  0  0  0  0  0  0  0  0  0  0
   46.6100   32.4000   37.1830 S   0  0  0  0  0  0  0  0  0  0  0  0
   47.3160   31.5680   34.5340 C   0  0  0  0  0  0  0  0  0  0  0  0
   46.4240   30.5210   34.4850 C   0  0  0  0  0  0  0  0  0  0  0  0
   46.4360   30.1440   33.1360 C   0  0  0  0  0  0  0  0  0  0  0  0
   47.2980   30.9410   32.4410 N   0  0  0  0  0  0  0  0  0  0  0  0
   47.8270   31.8080   33.3170 N   0  0  0  0  0  0  0  0  0  0  0  0
   48.0290   34.7970   40.3680 O   0  0  0  0  0  0  0  0  0  0  0  0
   49.3880   35.4860   42.4370 O   0  0  0  0  0  0  0  0  0  0  0  0
   48.8000   34.2930   41.7490 P   0  0  2  0  0  0  0  0  0  0  0  0
   50.0520   33.2670   41.3310 O   0  0  0  0  0  0  0  0  0  0  0  0
   47.6840   33.4810   42.7800 O   0  0  0  0  0  0  0  0  0  0  0  0
   46.1260   35.3040   42.7720 C   0  0  0  0  0  0  0  0  0  0  0  0
   46.6640   34.1960   43.4160 C   0  0  0  0  0  0  0  0  0  0  0  0
   46.1640   33.8410   44.6760 C   0  0  0  0  0  0  0  0  0  0  0  0
   45.1670   34.6110   45.2030 N   0  0  0  0  0  0  0  0  0  0  0  0
   44.6720   35.6760   44.5500 C   0  0  0  0  0  0  0  0  0  0  0  0
   45.1490   36.0100   43.3530 N   0  0  0  0  0  0  0  0  0  0  0  0
   49.5954   34.4404   37.4825 H   0  0  0  0  0  0  0  0  0  0  0  0
   49.5494   33.3420   35.2706 H   0  0  0  0  0  0  0  0  0  0  0  0
   45.8406   30.0843   35.3090 H   0  0  0  0  0  0  0  0  0  0  0  0
   45.8398   29.3277   32.7021 H   0  0  0  0  0  0  0  0  0  0  0  0
   47.5038   30.8871   31.4332 H   0  0  0  0  0  0  0  0  0  0  0  0
   50.4796   32.9166   42.1522 H   0  0  0  0  0  0  0  0  0  0  0  0
   46.5041   35.6011   41.7827 H   0  0  0  0  0  0  0  0  0  0  0  0
   46.5609   32.9722   45.2216 H   0  0  0  0  0  0  0  0  0  0  0  0
   43.8695   36.2741   45.0064 H   0  0  0  0  0  0  0  0  0  0  0  0
  1  2  2  0
  1 13  1  0
  3  1  1  0
  4  3  2  0
  5  4  1  0
  6  5  2  0
  6  7  1  0
  7  3  1  0
  8  6  1  0
  9  8  1  0
 10  9  2  0
 11 10  1  0
 11 12  1  0
 12  8  2  0
 13 15  1  0
 15 14  2  0
 15 17  1  0
 16 15  1  0
 17 19  1  0
 18 23  2  0
 18 19  1  0
 19 20  2  0
 20 21  1  0
 22 21  2  0
 23 22  1  0
  4 24  1  0
  5 25  1  0
  9 26  1  0
 10 27  1  0
 11 28  1  0
 16 29  1  0
 18 30  1  0
 20 31  1  0
 22 32  1  0
M  ISO  8  24  14  25  14  26  14  27  14  28   9  29   3  30  14  31  14
M  ISO  1  32  14
M  END
>  <minimizedAffinity>  (1) 
-5.23260212

>  <minimizedRMSD>  (1) 
0.211005151

$$$$
