
     RDKit          3D

 32 34  0  0  0  0  0  0  0  0999 V2000
   47.4600   34.0080   39.4220 C   0  0  0  0  0  0  0  0  0  0  0  0
   46.3180   33.5530   39.8060 O   0  0  0  0  0  0  0  0  0  0  0  0
   47.6790   33.4770   38.0630 C   0  0  0  0  0  0  0  0  0  0  0  0
   48.7350   33.7850   37.1660 C   0  0  0  0  0  0  0  0  0  0  0  0
   48.6740   33.1490   35.9840 C   0  0  0  0  0  0  0  0  0  0  0  0
   47.6970   32.2790   35.6500 C   0  0  0  0  0  0  0  0  0  0  0  0
   46.6600   32.3280   37.2380 S   0  0  0  0  0  0  0  0  0  0  0  0
   47.2850   31.4410   34.5680 C   0  0  0  0  0  0  0  0  0  0  0  0
   46.1170   30.7760   34.4040 C   0  0  0  0  0  0  0  0  0  0  0  0
   46.2660   30.1250   33.1740 C   0  0  0  0  0  0  0  0  0  0  0  0
   47.5330   30.4480   32.6760 C   0  0  0  0  0  0  0  0  0  0  0  0
   48.0710   31.2390   33.5730 O   0  0  0  0  0  0  0  0  0  0  0  0
   48.0440   34.7870   40.3600 O   0  0  0  0  0  0  0  0  0  0  0  0
   49.3800   35.4790   42.4390 O   0  0  0  0  0  0  0  0  0  0  0  0
   48.8070   34.2860   41.7480 P   0  0  2  0  0  0  0  0  0  0  0  0
   50.0710   33.2630   41.3260 O   0  0  0  0  0  0  0  0  0  0  0  0
   47.6780   33.4810   42.7750 O   0  0  0  0  0  0  0  0  0  0  0  0
   46.1260   35.3080   42.7680 C   0  0  0  0  0  0  0  0  0  0  0  0
   46.6630   34.1980   43.4080 C   0  0  0  0  0  0  0  0  0  0  0  0
   46.1630   33.8370   44.6740 C   0  0  0  0  0  0  0  0  0  0  0  0
   45.1690   34.6110   45.1980 N   0  0  0  0  0  0  0  0  0  0  0  0
   44.6760   35.6730   44.5530 C   0  0  0  0  0  0  0  0  0  0  0  0
   45.1500   36.0200   43.3460 N   0  0  0  0  0  0  0  0  0  0  0  0
   49.5408   34.4897   37.4189 H   0  0  0  0  0  0  0  0  0  0  0  0
   49.4652   33.3485   35.2463 H   0  0  0  0  0  0  0  0  0  0  0  0
   45.2506   30.7528   35.0814 H   0  0  0  0  0  0  0  0  0  0  0  0
   45.5221   29.4771   32.6873 H   0  0  0  0  0  0  0  0  0  0  0  0
   47.9831   30.1097   31.7310 H   0  0  0  0  0  0  0  0  0  0  0  0
   50.5015   32.9146   42.1466 H   0  0  0  0  0  0  0  0  0  0  0  0
   46.5054   35.6044   41.7789 H   0  0  0  0  0  0  0  0  0  0  0  0
   46.5577   32.9664   45.2183 H   0  0  0  0  0  0  0  0  0  0  0  0
   43.8747   36.2679   45.0155 H   0  0  0  0  0  0  0  0  0  0  0  0
  1  2  2  0
  1 13  1  0
  3  1  1  0
  4  3  2  0
  5  4  1  0
  6  5  2  0
  6  7  1  0
  7  3  1  0
  8  6  1  0
  9  8  2  0
 10  9  1  0
 11 10  2  0
 11 12  1  0
 12  8  1  0
 13 15  1  0
 15 14  2  0
 15 17  1  0
 16 15  1  0
 17 19  1  0
 18 23  2  0
 18 19  1  0
 19 20  2  0
 20 21  1  0
 22 21  2  0
 23 22  1  0
  4 24  1  0
  5 25  1  0
  9 26  1  0
 10 27  1  0
 11 28  1  0
 16 29  1  0
 18 30  1  0
 20 31  1  0
 22 32  1  0
M  ISO  8  24  14  25  14  26  14  27  14  28  14  29   3  30  14  31  14
M  ISO  1  32  14
M  END
>  <minimizedAffinity>  (1) 
-5.04674292

>  <minimizedRMSD>  (1) 
0.245805606

$$$$
