
     RDKit          3D

 29 30  0  0  0  0  0  0  0  0999 V2000
   48.0360   34.7830   40.3730 O   0  0  0  0  0  0  0  0  0  0  0  0
   49.3960   35.4630   42.4550 O   0  0  0  0  0  0  0  0  0  0  0  0
   48.8090   34.2780   41.7560 P   0  0  2  0  0  0  0  0  0  0  0  0
   50.0690   33.2600   41.3300 O   0  0  0  0  0  0  0  0  0  0  0  0
   47.6910   33.4740   42.7900 O   0  0  0  0  0  0  0  0  0  0  0  0
   46.1370   35.2910   42.7670 C   0  0  0  0  0  0  0  0  0  0  0  0
   46.6720   34.1880   43.4250 C   0  0  0  0  0  0  0  0  0  0  0  0
   46.1700   33.8400   44.6860 C   0  0  0  0  0  0  0  0  0  0  0  0
   45.1690   34.6220   45.1970 N   0  0  0  0  0  0  0  0  0  0  0  0
   44.6730   35.6770   44.5440 C   0  0  0  0  0  0  0  0  0  0  0  0
   45.1520   36.0150   43.3330 N   0  0  0  0  0  0  0  0  0  0  0  0
   47.4860   34.0120   39.4180 C   0  0  0  0  0  0  0  0  0  0  0  0
   46.3770   33.4910   39.8130 O   0  0  0  0  0  0  0  0  0  0  0  0
   47.6910   33.5270   38.0390 C   0  0  0  0  0  0  0  0  0  0  0  0
   48.9540   33.2820   37.4090 C   0  0  0  0  0  0  0  0  0  0  0  0
   48.8490   32.8360   36.1190 C   0  0  0  0  0  0  0  0  0  0  0  0
   47.6730   32.6450   35.5030 C   0  0  0  0  0  0  0  0  0  0  0  0
   46.4320   33.1470   36.8800 S   0  0  0  0  0  0  0  0  0  0  0  0
   48.0100   32.6570   33.1220 C   0  0  0  0  0  0  0  0  0  0  0  0
   49.0150   33.3950   32.8960 O   0  0  0  0  0  0  0  0  0  0  0  0
   47.2820   32.2220   34.2670 N   0  0  0  0  0  0  0  0  0  0  0  0
   50.5019   32.9102   42.1488 H   0  0  0  0  0  0  0  0  0  0  0  0
   46.5216   35.5743   41.7761 H   0  0  0  0  0  0  0  0  0  0  0  0
   46.5632   32.9758   45.2415 H   0  0  0  0  0  0  0  0  0  0  0  0
   43.8682   36.2728   44.9993 H   0  0  0  0  0  0  0  0  0  0  0  0
   49.9184   33.4377   37.9147 H   0  0  0  0  0  0  0  0  0  0  0  0
   49.7731   32.6242   35.5611 H   0  0  0  0  0  0  0  0  0  0  0  0
   47.5904   32.2450   32.1924 H   0  0  0  0  0  0  0  0  0  0  0  0
   46.4708   31.5960   34.1624 H   0  0  0  0  0  0  0  0  0  0  0  0
  1  3  1  0
  3  2  2  0
  3  5  1  0
  4  3  1  0
  5  7  1  0
  6 11  2  0
  6  7  1  0
  7  8  2  0
  8  9  1  0
 10  9  2  0
 11 10  1  0
 12 13  2  0
 12  1  1  0
 14 12  1  0
 15 14  2  0
 16 15  1  0
 17 16  2  0
 17 18  1  0
 18 14  1  0
 19 21  1  0
 20 19  2  0
 21 17  1  0
  4 22  1  0
  6 23  1  0
  8 24  1  0
 10 25  1  0
 15 26  1  0
 16 27  1  0
 19 28  1  0
 21 29  1  0
M  ISO  7  22   3  23  14  24  14  25  14  26  14  27  14  28   6
M  END
>  <minimizedAffinity>  (1) 
-4.92082691

>  <minimizedRMSD>  (1) 
0.445648998

$$$$
