
     RDKit          3D

 32 34  0  0  0  0  0  0  0  0999 V2000
   49.4330   35.4990   42.5870 O   0  0  0  0  0  0  0  0  0  0  0  0
   48.8640   34.3300   41.8650 P   0  0  1  0  0  0  0  0  0  0  0  0
   50.1400   33.3140   41.4480 O   0  0  0  0  0  0  0  0  0  0  0  0
   47.7370   33.4990   42.8640 O   0  0  0  0  0  0  0  0  0  0  0  0
   46.1750   35.3130   42.8550 C   0  0  0  0  0  0  0  0  0  0  0  0
   46.7030   34.1990   43.4890 C   0  0  0  0  0  0  0  0  0  0  0  0
   46.1740   33.8200   44.7350 C   0  0  0  0  0  0  0  0  0  0  0  0
   45.1610   34.5840   45.2480 N   0  0  0  0  0  0  0  0  0  0  0  0
   44.6800   35.6580   44.5990 C   0  0  0  0  0  0  0  0  0  0  0  0
   45.1830   36.0090   43.4260 N   0  0  0  0  0  0  0  0  0  0  0  0
   48.1160   34.8470   40.4780 O   0  0  0  0  0  0  0  0  0  0  0  0
   47.5200   34.0890   39.5410 C   0  0  0  0  0  0  0  0  0  0  0  0
   46.3300   33.7280   39.9000 O   0  0  0  0  0  0  0  0  0  0  0  0
   47.7340   33.4990   38.2110 C   0  0  0  0  0  0  0  0  0  0  0  0
   48.5730   33.9810   37.1740 C   0  0  0  0  0  0  0  0  0  0  0  0
   48.5860   33.2400   36.0340 C   0  0  0  0  0  0  0  0  0  0  0  0
   47.8560   32.1260   35.8970 C   0  0  0  0  0  0  0  0  0  0  0  0
   46.9720   32.0220   37.5910 S   0  0  0  0  0  0  0  0  0  0  0  0
   47.6220   31.1160   34.8720 C   0  0  0  0  0  0  0  0  0  0  0  0
   47.7140   31.5100   33.4720 C   0  0  0  0  0  0  0  0  0  0  0  0
   46.3460   31.2810   33.9930 C   0  0  0  0  0  0  0  0  0  0  0  0
   50.5710   32.9708   42.2706 H   0  0  0  0  0  0  0  0  0  0  0  0
   46.5724   35.6269   41.8785 H   0  0  0  0  0  0  0  0  0  0  0  0
   46.5592   32.9435   45.2766 H   0  0  0  0  0  0  0  0  0  0  0  0
   43.8651   36.2477   45.0443 H   0  0  0  0  0  0  0  0  0  0  0  0
   49.1744   34.8953   37.2848 H   0  0  0  0  0  0  0  0  0  0  0  0
   49.2181   33.5671   35.1953 H   0  0  0  0  0  0  0  0  0  0  0  0
   48.0662   30.3182   35.4853 H   0  0  0  0  0  0  0  0  0  0  0  0
   48.1368   30.8052   32.7409 H   0  0  0  0  0  0  0  0  0  0  0  0
   48.1923   32.3565   32.9575 H   0  0  0  0  0  0  0  0  0  0  0  0
   45.6625   32.1273   34.1558 H   0  0  0  0  0  0  0  0  0  0  0  0
   45.4860   30.6533   33.7164 H   0  0  0  0  0  0  0  0  0  0  0  0
  2  1  2  0
  2  4  1  0
  3  2  1  0
  4  6  1  0
  5 10  2  0
  5  6  1  0
  6  7  2  0
  7  8  1  0
  9  8  2  0
 10  9  1  0
 11  2  1  0
 12 13  2  0
 12 11  1  0
 14 12  1  0
 15 14  2  0
 16 15  1  0
 17 16  2  0
 17 18  1  0
 18 14  1  0
 19 17  1  0
 20 21  1  0
 20 19  1  0
 21 19  1  0
  3 22  1  0
  5 23  1  0
  7 24  1  0
  9 25  1  0
 15 26  1  0
 16 27  1  0
 19 28  1  0
 20 29  1  0
 20 30  1  0
 21 31  1  0
 21 32  1  0
M  ISO  8  22   3  23  14  24  14  25  14  26  14  27  14  28  13  29  13
M  ISO  3  30  13  31  13  32  13
M  END
>  <minimizedAffinity>  (1) 
-4.73791265

>  <minimizedRMSD>  (1) 
0.434242815

$$$$
