
     RDKit          3D

 31 32  0  0  0  0  0  0  0  0999 V2000
   49.3890   35.4830   42.4640 O   0  0  0  0  0  0  0  0  0  0  0  0
   48.8130   34.2890   41.7640 P   0  0  1  0  0  0  0  0  0  0  0  0
   50.0760   33.2720   41.3510 O   0  0  0  0  0  0  0  0  0  0  0  0
   47.6780   33.4790   42.7830 O   0  0  0  0  0  0  0  0  0  0  0  0
   46.1460   35.3040   42.7880 C   0  0  0  0  0  0  0  0  0  0  0  0
   46.6690   34.1900   43.4270 C   0  0  0  0  0  0  0  0  0  0  0  0
   46.1680   33.8270   44.6810 C   0  0  0  0  0  0  0  0  0  0  0  0
   45.1760   34.6110   45.2070 N   0  0  0  0  0  0  0  0  0  0  0  0
   44.6900   35.6840   44.5620 C   0  0  0  0  0  0  0  0  0  0  0  0
   45.1740   36.0190   43.3690 N   0  0  0  0  0  0  0  0  0  0  0  0
   48.0510   34.7970   40.3760 O   0  0  0  0  0  0  0  0  0  0  0  0
   47.4340   34.0250   39.4520 C   0  0  0  0  0  0  0  0  0  0  0  0
   46.3230   33.5480   39.8910 O   0  0  0  0  0  0  0  0  0  0  0  0
   47.5830   33.5180   38.0760 C   0  0  0  0  0  0  0  0  0  0  0  0
   48.7250   33.6280   37.2390 C   0  0  0  0  0  0  0  0  0  0  0  0
   48.6060   33.0760   36.0060 C   0  0  0  0  0  0  0  0  0  0  0  0
   47.4790   32.4650   35.6070 C   0  0  0  0  0  0  0  0  0  0  0  0
   46.3660   32.6600   37.1660 S   0  0  0  0  0  0  0  0  0  0  0  0
   46.9710   31.7770   34.4210 C   0  0  0  0  0  0  0  0  0  0  0  0
   45.4670   31.9740   34.2740 C   0  0  0  0  0  0  0  0  0  0  0  0
   50.5045   32.9270   42.1741 H   0  0  0  0  0  0  0  0  0  0  0  0
   46.5305   35.6012   41.8012 H   0  0  0  0  0  0  0  0  0  0  0  0
   46.5538   32.9500   45.2214 H   0  0  0  0  0  0  0  0  0  0  0  0
   43.8915   36.2860   45.0203 H   0  0  0  0  0  0  0  0  0  0  0  0
   49.6469   34.1288   37.5696 H   0  0  0  0  0  0  0  0  0  0  0  0
   49.4580   33.1305   35.3123 H   0  0  0  0  0  0  0  0  0  0  0  0
   47.4747   32.1787   33.5294 H   0  0  0  0  0  0  0  0  0  0  0  0
   47.1734   30.7011   34.5279 H   0  0  0  0  0  0  0  0  0  0  0  0
   45.0059   32.0344   35.2709 H   0  0  0  0  0  0  0  0  0  0  0  0
   45.2714   32.9054   33.7225 H   0  0  0  0  0  0  0  0  0  0  0  0
   45.0381   31.1244   33.7225 H   0  0  0  0  0  0  0  0  0  0  0  0
  2  1  2  0
  2  4  1  0
  3  2  1  0
  4  6  1  0
  5 10  2  0
  5  6  1  0
  6  7  2  0
  7  8  1  0
  9  8  2  0
 10  9  1  0
 11  2  1  0
 12 13  2  0
 12 11  1  0
 14 12  1  0
 15 14  2  0
 16 15  1  0
 17 16  2  0
 17 18  1  0
 18 14  1  0
 19 17  1  0
 20 19  1  0
  3 21  1  0
  5 22  1  0
  7 23  1  0
  9 24  1  0
 15 25  1  0
 16 26  1  0
 19 27  1  0
 19 28  1  0
 20 29  1  0
 20 30  1  0
 20 31  1  0
M  ISO  8  21   3  22  14  23  14  24  14  25  14  26  14  27   8  28   8
M  ISO  3  29   8  30   8  31   8
M  END
>  <minimizedAffinity>  (1) 
-4.64031601

>  <minimizedRMSD>  (1) 
0.12236695

$$$$
