
     RDKit          3D

 27 28  0  0  0  0  0  0  0  0999 V2000
   49.3850   35.4840   42.4370 O   0  0  0  0  0  0  0  0  0  0  0  0
   48.8110   34.2890   41.7430 P   0  0  1  0  0  0  0  0  0  0  0  0
   50.0660   33.2520   41.3340 O   0  0  0  0  0  0  0  0  0  0  0  0
   47.6890   33.4930   42.7650 O   0  0  0  0  0  0  0  0  0  0  0  0
   46.1400   35.3070   42.7640 C   0  0  0  0  0  0  0  0  0  0  0  0
   46.6720   34.2020   43.4080 C   0  0  0  0  0  0  0  0  0  0  0  0
   46.1810   33.8310   44.6640 C   0  0  0  0  0  0  0  0  0  0  0  0
   45.1820   34.6000   45.1970 N   0  0  0  0  0  0  0  0  0  0  0  0
   44.6820   35.6690   44.5530 C   0  0  0  0  0  0  0  0  0  0  0  0
   45.1580   36.0100   43.3580 N   0  0  0  0  0  0  0  0  0  0  0  0
   48.0570   34.7890   40.3550 O   0  0  0  0  0  0  0  0  0  0  0  0
   47.4640   34.0230   39.4190 C   0  0  0  0  0  0  0  0  0  0  0  0
   46.3280   33.5380   39.8290 O   0  0  0  0  0  0  0  0  0  0  0  0
   47.6310   33.5070   38.0480 C   0  0  0  0  0  0  0  0  0  0  0  0
   48.7530   33.6920   37.1950 C   0  0  0  0  0  0  0  0  0  0  0  0
   48.6770   33.1240   35.9740 C   0  0  0  0  0  0  0  0  0  0  0  0
   47.5970   32.4230   35.5920 C   0  0  0  0  0  0  0  0  0  0  0  0
   46.4700   32.5400   37.1460 S   0  0  0  0  0  0  0  0  0  0  0  0
   47.1180   31.6920   34.4540 N   0  0  0  0  0  0  0  0  0  0  0  0
   50.4880   32.9033   42.1588 H   0  0  0  0  0  0  0  0  0  0  0  0
   46.5170   35.6074   41.7753 H   0  0  0  0  0  0  0  0  0  0  0  0
   46.5808   32.9581   45.2008 H   0  0  0  0  0  0  0  0  0  0  0  0
   43.8787   36.2623   45.0143 H   0  0  0  0  0  0  0  0  0  0  0  0
   49.6351   34.2670   37.5133 H   0  0  0  0  0  0  0  0  0  0  0  0
   49.5188   33.2375   35.2751 H   0  0  0  0  0  0  0  0  0  0  0  0
   46.1907   31.2446   34.4823 H   0  0  0  0  0  0  0  0  0  0  0  0
   47.7015   31.6146   33.6088 H   0  0  0  0  0  0  0  0  0  0  0  0
  2  1  2  0
  2  4  1  0
  3  2  1  0
  4  6  1  0
  5 10  2  0
  5  6  1  0
  6  7  2  0
  7  8  1  0
  9  8  2  0
 10  9  1  0
 11  2  1  0
 12 13  2  0
 12 11  1  0
 14 12  1  0
 15 14  2  0
 16 15  1  0
 17 16  2  0
 17 18  1  0
 18 14  1  0
 19 17  1  0
  3 20  1  0
  5 21  1  0
  7 22  1  0
  9 23  1  0
 15 24  1  0
 16 25  1  0
 19 26  1  0
 19 27  1  0
M  ISO  6  20   3  21  14  22  14  23  14  24  14  25  14
M  END
>  <minimizedAffinity>  (1) 
-4.59488058

>  <minimizedRMSD>  (1) 
0.0254869554

$$$$
