
     RDKit          3D

 26 27  0  0  0  0  0  0  0  0999 V2000
   49.3830   35.4720   42.4470 O   0  0  0  0  0  0  0  0  0  0  0  0
   48.8070   34.2900   41.7420 P   0  0  1  0  0  0  0  0  0  0  0  0
   50.0670   33.2660   41.3330 O   0  0  0  0  0  0  0  0  0  0  0  0
   47.6890   33.4860   42.7620 O   0  0  0  0  0  0  0  0  0  0  0  0
   46.1330   35.3060   42.7700 C   0  0  0  0  0  0  0  0  0  0  0  0
   46.6750   34.1930   43.4070 C   0  0  0  0  0  0  0  0  0  0  0  0
   46.1720   33.8400   44.6640 C   0  0  0  0  0  0  0  0  0  0  0  0
   45.1740   34.6120   45.1960 N   0  0  0  0  0  0  0  0  0  0  0  0
   44.6820   35.6800   44.5420 C   0  0  0  0  0  0  0  0  0  0  0  0
   45.1530   36.0200   43.3530 N   0  0  0  0  0  0  0  0  0  0  0  0
   48.0440   34.7860   40.3530 O   0  0  0  0  0  0  0  0  0  0  0  0
   47.4530   34.0140   39.4190 C   0  0  0  0  0  0  0  0  0  0  0  0
   46.3350   33.5370   39.8350 O   0  0  0  0  0  0  0  0  0  0  0  0
   47.6340   33.5060   38.0490 C   0  0  0  0  0  0  0  0  0  0  0  0
   48.7610   33.7050   37.2010 C   0  0  0  0  0  0  0  0  0  0  0  0
   48.6600   33.1200   35.9720 C   0  0  0  0  0  0  0  0  0  0  0  0
   47.5850   32.4110   35.5900 C   0  0  0  0  0  0  0  0  0  0  0  0
   46.4650   32.5260   37.1520 S   0  0  0  0  0  0  0  0  0  0  0  0
   47.2150   31.7480   34.4940 O   0  0  0  0  0  0  0  0  0  0  0  0
   50.4923   32.9204   42.1575 H   0  0  0  0  0  0  0  0  0  0  0  0
   46.5096   35.6045   41.7805 H   0  0  0  0  0  0  0  0  0  0  0  0
   46.5662   32.9691   45.2082 H   0  0  0  0  0  0  0  0  0  0  0  0
   43.8798   36.2768   45.0005 H   0  0  0  0  0  0  0  0  0  0  0  0
   49.6429   34.2843   37.5120 H   0  0  0  0  0  0  0  0  0  0  0  0
   49.4944   33.2340   35.2643 H   0  0  0  0  0  0  0  0  0  0  0  0
   46.3370   31.2916   34.4643 H   0  0  0  0  0  0  0  0  0  0  0  0
  2  1  2  0
  2  4  1  0
  3  2  1  0
  4  6  1  0
  5 10  2  0
  5  6  1  0
  6  7  2  0
  7  8  1  0
  9  8  2  0
 10  9  1  0
 11  2  1  0
 12 13  2  0
 12 11  1  0
 14 12  1  0
 15 14  2  0
 16 15  1  0
 17 16  2  0
 17 18  1  0
 18 14  1  0
 19 17  1  0
  3 20  1  0
  5 21  1  0
  7 22  1  0
  9 23  1  0
 15 24  1  0
 16 25  1  0
 19 26  1  0
M  ISO  7  20   3  21  14  22  14  23  14  24  14  25  14  26   3
M  END
>  <minimizedAffinity>  (1) 
-4.59283543

>  <minimizedRMSD>  (1) 
0.0253522713

$$$$
