
     RDKit          3D

 25 26  0  0  1  0  0  0  0  0999 V2000
   46.1870   34.3540   41.6720 N   0  0  0  0  0  0  0  0  0  0  0  0
   45.3020   34.0410   40.5790 C   0  0  0  0  0  0  0  0  0  0  0  0
   45.9810   33.2910   39.4790 C   0  0  0  0  0  0  0  0  0  0  0  0
   47.1940   33.9120   39.0310 N   0  0  0  0  0  0  0  0  0  0  0  0
   47.9970   34.5290   40.0110 C   0  0  0  0  0  0  0  0  0  0  0  0
   47.6000   34.3350   41.4280 C   0  0  1  0  0  0  0  0  0  0  0  0
   44.4770   35.9730   44.5850 C   0  0  0  0  0  0  0  0  0  0  0  0
   44.9050   35.8000   43.2480 C   0  0  0  0  0  0  0  0  0  0  0  0
   45.6780   34.6760   42.9580 C   0  0  0  0  0  0  0  0  0  0  0  0
   45.9610   33.8330   43.9880 N   0  0  0  0  0  0  0  0  0  0  0  0
   45.5390   34.0230   45.2560 C   0  0  0  0  0  0  0  0  0  0  0  0
   44.7890   35.1090   45.5450 N   0  0  0  0  0  0  0  0  0  0  0  0
   48.3420   35.1640   42.2510 O   0  0  0  0  0  0  0  0  0  0  0  0
   44.4732   33.4279   40.9627 H   0  0  0  0  0  0  0  0  0  0  0  0
   44.9456   34.9932   40.1590 H   0  0  0  0  0  0  0  0  0  0  0  0
   46.2199   32.2804   39.8417 H   0  0  0  0  0  0  0  0  0  0  0  0
   45.2900   33.2728   38.6233 H   0  0  0  0  0  0  0  0  0  0  0  0
   47.7642   33.1861   38.5741 H   0  0  0  0  0  0  0  0  0  0  0  0
   49.0190   34.1387   39.8964 H   0  0  0  0  0  0  0  0  0  0  0  0
   47.8897   35.6086   39.8297 H   0  0  0  0  0  0  0  0  0  0  0  0
   47.8536   33.2979   41.6929 H   0  0  0  0  0  0  0  0  0  0  0  0
   43.8657   36.8517   44.8383 H   0  0  0  0  0  0  0  0  0  0  0  0
   44.6379   36.5255   42.4655 H   0  0  0  0  0  0  0  0  0  0  0  0
   45.8025   33.3025   46.0443 H   0  0  0  0  0  0  0  0  0  0  0  0
   48.1487   34.9481   43.1976 H   0  0  0  0  0  0  0  0  0  0  0  0
  1  9  1  0
  2  1  1  0
  3  2  1  0
  4  3  1  0
  4  5  1  0
  5  6  1  0
  6  1  1  0
  6 13  1  0
  7 12  2  0
  8  7  1  0
  9  8  2  0
  9 10  1  0
 10 11  2  0
 11 12  1  0
  2 14  1  0
  2 15  1  0
  3 16  1  0
  3 17  1  0
  4 18  1  0
  5 19  1  0
  5 20  1  0
  6 21  1  1
  7 22  1  0
  8 23  1  0
 11 24  1  0
 13 25  1  0
M  ISO  8  14  13  15  13  16  13  17  13  18   5  19  13  20  13  21  13
M  ISO  4  22  14  23  14  24  14  25   3
M  END
>  <minimizedAffinity>  (1) 
-4.2987895

>  <minimizedRMSD>  (1) 
1.00853562

$$$$
