
     RDKit          3D

 22 23  0  0  0  0  0  0  0  0999 V2000
   45.3990   35.0850   44.0260 C   0  0  0  0  0  0  0  0  0  0  0  0
   46.4480   34.2600   43.6320 C   0  0  0  0  0  0  0  0  0  0  0  0
   46.9060   33.3020   44.5370 C   0  0  0  0  0  0  0  0  0  0  0  0
   46.3170   33.2150   45.7480 N   0  0  0  0  0  0  0  0  0  0  0  0
   45.2960   34.0320   46.1060 C   0  0  0  0  0  0  0  0  0  0  0  0
   44.8450   34.9580   45.2470 N   0  0  0  0  0  0  0  0  0  0  0  0
   47.0410   34.4060   42.3080 C   0  0  0  0  0  0  0  0  0  0  0  0
   48.1170   35.2240   42.0560 C   0  0  0  0  0  0  0  0  0  0  0  0
   48.7200   35.4010   40.8290 C   0  0  0  0  0  0  0  0  0  0  0  0
   48.2180   34.7100   39.7450 C   0  0  0  0  0  0  0  0  0  0  0  0
   47.1390   33.8850   39.9840 C   0  0  0  0  0  0  0  0  0  0  0  0
   46.6060   33.7650   41.2120 N   0  0  0  0  0  0  0  0  0  0  0  0
   44.8900   36.1190   43.0740 C   0  0  0  0  0  0  0  0  0  0  0  0
   47.7333   32.6289   44.2679 H   0  0  0  0  0  0  0  0  0  0  0  0
   44.8374   33.9354   47.1012 H   0  0  0  0  0  0  0  0  0  0  0  0
   48.5322   35.7852   42.9061 H   0  0  0  0  0  0  0  0  0  0  0  0
   49.5806   36.0768   40.7167 H   0  0  0  0  0  0  0  0  0  0  0  0
   48.6563   34.8121   38.7413 H   0  0  0  0  0  0  0  0  0  0  0  0
   46.7049   33.3124   39.1511 H   0  0  0  0  0  0  0  0  0  0  0  0
   44.4734   36.9652   43.6401 H   0  0  0  0  0  0  0  0  0  0  0  0
   45.7168   36.4730   42.4407 H   0  0  0  0  0  0  0  0  0  0  0  0
   44.1052   35.6797   42.4407 H   0  0  0  0  0  0  0  0  0  0  0  0
  1  6  2  0
  2  1  1  0
  2  3  2  0
  3  4  1  0
  4  5  2  0
  6  5  1  0
  7  2  1  0
  8  7  2  0
  9  8  1  0
 10 11  1  0
 10  9  2  0
 11 12  2  0
 12  7  1  0
 13  1  1  0
  3 14  1  0
  5 15  1  0
  8 16  1  0
  9 17  1  0
 10 18  1  0
 11 19  1  0
 13 20  1  0
 13 21  1  0
 13 22  1  0
M  ISO  8  14  14  15  14  16  14  17  14  18  14  19  14  20   8  21   8
M  ISO  1  22   8
M  END
>  <minimizedAffinity>  (1) 
-4.74832821

>  <minimizedRMSD>  (1) 
0.384276986

$$$$
