
     RDKit          3D

 25 26  0  0  0  0  0  0  0  0999 V2000
   45.5950   35.0200   44.0800 C   0  0  0  0  0  0  0  0  0  0  0  0
   46.6940   34.1770   43.9430 C   0  0  0  0  0  0  0  0  0  0  0  0
   46.9240   33.2620   45.0000 C   0  0  0  0  0  0  0  0  0  0  0  0
   46.0840   33.2560   46.0610 N   0  0  0  0  0  0  0  0  0  0  0  0
   45.0240   34.1120   46.1290 C   0  0  0  0  0  0  0  0  0  0  0  0
   44.7770   35.0010   45.1330 N   0  0  0  0  0  0  0  0  0  0  0  0
   47.5860   34.1540   42.8630 N   0  0  0  0  0  0  0  0  0  0  0  0
   48.9170   33.5360   42.7540 C   0  0  0  0  0  0  0  0  0  0  0  0
   49.7640   34.7070   42.2410 C   0  0  0  0  0  0  0  0  0  0  0  0
   48.7560   35.6120   41.5280 C   0  0  0  0  0  0  0  0  0  0  0  0
   47.5310   34.7050   41.5090 C   0  0  0  0  0  0  0  0  0  0  0  0
   45.3500   35.9880   42.9640 C   0  0  0  0  0  0  0  0  0  0  0  0
   47.7744   32.5655   44.9587 H   0  0  0  0  0  0  0  0  0  0  0  0
   44.3589   34.0815   47.0046 H   0  0  0  0  0  0  0  0  0  0  0  0
   49.2750   33.1804   43.7314 H   0  0  0  0  0  0  0  0  0  0  0  0
   48.9446   32.6479   42.1056 H   0  0  0  0  0  0  0  0  0  0  0  0
   50.2429   35.2382   43.0767 H   0  0  0  0  0  0  0  0  0  0  0  0
   50.5799   34.3802   41.5796 H   0  0  0  0  0  0  0  0  0  0  0  0
   48.5682   36.5359   42.0947 H   0  0  0  0  0  0  0  0  0  0  0  0
   49.0789   35.9660   40.5379 H   0  0  0  0  0  0  0  0  0  0  0  0
   46.6059   35.2756   41.3401 H   0  0  0  0  0  0  0  0  0  0  0  0
   47.5308   33.9518   40.7073 H   0  0  0  0  0  0  0  0  0  0  0  0
   45.1004   36.9743   43.3823 H   0  0  0  0  0  0  0  0  0  0  0  0
   46.2555   36.0708   42.3450 H   0  0  0  0  0  0  0  0  0  0  0  0
   44.5141   35.6300   42.3450 H   0  0  0  0  0  0  0  0  0  0  0  0
  1  6  2  0
  2  1  1  0
  2  3  2  0
  3  4  1  0
  4  5  2  0
  6  5  1  0
  7  2  1  0
  8  7  1  0
  9  8  1  0
 10  9  1  0
 11 10  1  0
 11  7  1  0
 12  1  1  0
  3 13  1  0
  5 14  1  0
  8 15  1  0
  8 16  1  0
  9 17  1  0
  9 18  1  0
 10 19  1  0
 10 20  1  0
 11 21  1  0
 11 22  1  0
 12 23  1  0
 12 24  1  0
 12 25  1  0
M  ISO  8  13  14  14  14  15  13  16  13  17  13  18  13  19  13  20  13
M  ISO  5  21  13  22  13  23   8  24   8  25   8
M  END
>  <minimizedAffinity>  (1) 
-4.18407106

>  <minimizedRMSD>  (1) 
0.795138776

$$$$
