
     RDKit          3D

 20 20  0  0  0  0  0  0  0  0999 V2000
   45.4220   35.1780   43.9740 C   0  0  0  0  0  0  0  0  0  0  0  0
   46.4930   34.4820   43.4170 C   0  0  0  0  0  0  0  0  0  0  0  0
   47.0500   33.4340   44.1640 C   0  0  0  0  0  0  0  0  0  0  0  0
   46.5160   33.1650   45.3760 N   0  0  0  0  0  0  0  0  0  0  0  0
   45.4680   33.8720   45.8820 C   0  0  0  0  0  0  0  0  0  0  0  0
   44.9290   34.8770   45.1730 N   0  0  0  0  0  0  0  0  0  0  0  0
   44.8340   36.2960   43.1660 C   0  0  0  0  0  0  0  0  0  0  0  0
   47.0520   34.7850   42.1180 C   0  0  0  0  0  0  0  0  0  0  0  0
   48.2710   35.2440   41.9310 C   0  0  0  0  0  0  0  0  0  0  0  0
   48.8400   35.5540   40.5940 C   0  0  0  0  0  0  0  0  0  0  0  0
   47.8961   32.8485   43.7751 H   0  0  0  0  0  0  0  0  0  0  0  0
   45.0624   33.6195   46.8728 H   0  0  0  0  0  0  0  0  0  0  0  0
   44.4301   37.0640   43.8421 H   0  0  0  0  0  0  0  0  0  0  0  0
   45.6152   36.7402   42.5316 H   0  0  0  0  0  0  0  0  0  0  0  0
   44.0254   35.9040   42.5316 H   0  0  0  0  0  0  0  0  0  0  0  0
   46.4199   34.6219   41.2327 H   0  0  0  0  0  0  0  0  0  0  0  0
   48.9049   35.4075   42.8150 H   0  0  0  0  0  0  0  0  0  0  0  0
   49.8000   36.0770   40.7163 H   0  0  0  0  0  0  0  0  0  0  0  0
   49.0003   34.6186   40.0379 H   0  0  0  0  0  0  0  0  0  0  0  0
   48.1410   36.1959   40.0379 H   0  0  0  0  0  0  0  0  0  0  0  0
  1  6  2  0
  2  1  1  0
  2  3  2  0
  3  4  1  0
  4  5  2  0
  6  5  1  0
  7  1  1  0
  8  2  1  0
  9  8  2  0
 10  9  1  0
  3 11  1  0
  5 12  1  0
  7 13  1  0
  7 14  1  0
  7 15  1  0
  8 16  1  0
  9 17  1  0
 10 18  1  0
 10 19  1  0
 10 20  1  0
M  ISO  8  11  14  12  14  13   8  14   8  15   8  18   8  19   8  20   8
M  END
>  <minimizedAffinity>  (1) 
-3.95574236

>  <minimizedRMSD>  (1) 
0.288923323

$$$$
