
     RDKit          3D

 16 16  0  0  0  0  0  0  0  0999 V2000
   45.4660   35.1220   43.9350 C   0  0  0  0  0  0  0  0  0  0  0  0
   46.5280   34.3790   43.4240 C   0  0  0  0  0  0  0  0  0  0  0  0
   47.0470   33.3510   44.2270 C   0  0  0  0  0  0  0  0  0  0  0  0
   46.4900   33.1380   45.4510 N   0  0  0  0  0  0  0  0  0  0  0  0
   45.4590   33.8890   45.9010 C   0  0  0  0  0  0  0  0  0  0  0  0
   44.9410   34.8840   45.1480 N   0  0  0  0  0  0  0  0  0  0  0  0
   44.9130   36.2210   43.0770 C   0  0  0  0  0  0  0  0  0  0  0  0
   47.1040   34.6510   42.0800 C   0  0  0  0  0  0  0  0  0  0  0  0
   47.7460   35.8900   42.0420 F   0  0  0  0  0  0  0  0  0  0  0  0
   46.1020   34.7050   41.1350 F   0  0  0  0  0  0  0  0  0  0  0  0
   48.0750   33.7270   41.8270 F   0  0  0  0  0  0  0  0  0  0  0  0
   47.8850   32.7314   43.8751 H   0  0  0  0  0  0  0  0  0  0  0  0
   45.0356   33.6864   46.8958 H   0  0  0  0  0  0  0  0  0  0  0  0
   44.5112   37.0196   43.7179 H   0  0  0  0  0  0  0  0  0  0  0  0
   45.7134   36.6284   42.4419 H   0  0  0  0  0  0  0  0  0  0  0  0
   44.1088   35.8210   42.4419 H   0  0  0  0  0  0  0  0  0  0  0  0
  1  6  2  0
  2  1  1  0
  2  3  2  0
  3  4  1  0
  4  5  2  0
  6  5  1  0
  7  1  1  0
  8  2  1  0
  9  8  1  0
 10  8  1  0
 11  8  1  0
  3 12  1  0
  5 13  1  0
  7 14  1  0
  7 15  1  0
  7 16  1  0
M  ISO  5  12  14  13  14  14   8  15   8  16   8
M  END
>  <minimizedAffinity>  (1) 
-3.83022118

>  <minimizedRMSD>  (1) 
0.292596191

$$$$
