
     RDKit          3D

 16 16  0  0  0  0  0  0  0  0999 V2000
   45.4330   35.1830   43.8560 C   0  0  0  0  0  0  0  0  0  0  0  0
   46.5220   34.4840   43.3400 C   0  0  0  0  0  0  0  0  0  0  0  0
   47.0870   33.4660   44.1150 C   0  0  0  0  0  0  0  0  0  0  0  0
   46.5340   33.2190   45.3330 N   0  0  0  0  0  0  0  0  0  0  0  0
   45.4740   33.9170   45.8070 C   0  0  0  0  0  0  0  0  0  0  0  0
   44.9140   34.9120   45.0620 N   0  0  0  0  0  0  0  0  0  0  0  0
   44.8440   36.2650   43.0150 C   0  0  0  0  0  0  0  0  0  0  0  0
   47.0450   34.8290   42.0130 C   0  0  0  0  0  0  0  0  0  0  0  0
   47.9482   32.8856   43.7524 H   0  0  0  0  0  0  0  0  0  0  0  0
   45.0626   33.6794   46.7991 H   0  0  0  0  0  0  0  0  0  0  0  0
   44.4196   37.0445   43.6648 H   0  0  0  0  0  0  0  0  0  0  0  0
   45.6278   36.7036   42.3800 H   0  0  0  0  0  0  0  0  0  0  0  0
   44.0502   35.8448   42.3800 H   0  0  0  0  0  0  0  0  0  0  0  0
   47.9585   35.4316   42.1242 H   0  0  0  0  0  0  0  0  0  0  0  0
   47.2788   33.9073   41.4600 H   0  0  0  0  0  0  0  0  0  0  0  0
   46.2897   35.4067   41.4600 H   0  0  0  0  0  0  0  0  0  0  0  0
  1  6  2  0
  2  1  1  0
  2  3  2  0
  3  4  1  0
  4  5  2  0
  6  5  1  0
  7  1  1  0
  8  2  1  0
  3  9  1  0
  5 10  1  0
  7 11  1  0
  7 12  1  0
  7 13  1  0
  8 14  1  0
  8 15  1  0
  8 16  1  0
M  ISO  8   9  14  10  14  11   8  12   8  13   8  14   8  15   8  16   8
M  END
>  <minimizedAffinity>  (1) 
-3.11909389

>  <minimizedRMSD>  (1) 
0.233715922

$$$$
