
     RDKit          3D

 27 28  0  0  1  0  0  0  0  0999 V2000
   46.6500   33.6540   42.3690 C   0  0  1  0  0  0  0  0  0  0  0  0
   46.7860   34.5780   41.1880 C   0  0  0  0  0  0  0  0  0  0  0  0
   47.3350   33.7070   40.0610 C   0  0  0  0  0  0  0  0  0  0  0  0
   48.7560   33.3850   40.4250 C   0  0  0  0  0  0  0  0  0  0  0  0
   48.9300   32.7790   41.7610 C   0  0  0  0  0  0  0  0  0  0  0  0
   48.0200   33.2180   42.8430 C   0  0  1  0  0  0  0  0  0  0  0  0
   44.5870   36.0290   44.5130 C   0  0  0  0  0  0  0  0  0  0  0  0
   45.2500   35.4920   43.4170 C   0  0  0  0  0  0  0  0  0  0  0  0
   45.9230   34.2800   43.4890 C   0  0  0  0  0  0  0  0  0  0  0  0
   45.8820   33.6730   44.7000 N   0  0  0  0  0  0  0  0  0  0  0  0
   45.2500   34.1750   45.7630 C   0  0  0  0  0  0  0  0  0  0  0  0
   44.6000   35.3560   45.6750 N   0  0  0  0  0  0  0  0  0  0  0  0
   48.5650   34.2570   43.5930 O   0  0  0  0  0  0  0  0  0  0  0  0
   46.0669   32.7833   42.0345 H   0  0  0  0  0  0  0  0  0  0  0  0
   45.8072   34.9964   40.9106 H   0  0  0  0  0  0  0  0  0  0  0  0
   47.4447   35.4314   41.4068 H   0  0  0  0  0  0  0  0  0  0  0  0
   47.3016   34.2540   39.1072 H   0  0  0  0  0  0  0  0  0  0  0  0
   46.7381   32.7911   39.9391 H   0  0  0  0  0  0  0  0  0  0  0  0
   49.1505   32.6823   39.6763 H   0  0  0  0  0  0  0  0  0  0  0  0
   49.2955   34.3434   40.4465 H   0  0  0  0  0  0  0  0  0  0  0  0
   48.8036   31.6922   41.6471 H   0  0  0  0  0  0  0  0  0  0  0  0
   49.9271   33.1099   42.0870 H   0  0  0  0  0  0  0  0  0  0  0  0
   47.8964   32.3163   43.4608 H   0  0  0  0  0  0  0  0  0  0  0  0
   44.0594   36.9907   44.4304 H   0  0  0  0  0  0  0  0  0  0  0  0
   45.2415   36.0428   42.4649 H   0  0  0  0  0  0  0  0  0  0  0  0
   45.2584   33.6245   46.7153 H   0  0  0  0  0  0  0  0  0  0  0  0
   48.4606   34.0580   44.5572 H   0  0  0  0  0  0  0  0  0  0  0  0
  1  6  1  0
  1  9  1  0
  2  1  1  0
  3  4  1  0
  3  2  1  0
  4  5  1  0
  5  6  1  0
  6 13  1  0
  7 12  2  0
  8  9  2  0
  8  7  1  0
  9 10  1  0
 10 11  2  0
 12 11  1  0
  1 14  1  6
  2 15  1  0
  2 16  1  0
  3 17  1  0
  3 18  1  0
  4 19  1  0
  4 20  1  0
  5 21  1  0
  5 22  1  0
  6 23  1  1
  7 24  1  0
  8 25  1  0
 11 26  1  0
 13 27  1  0
M  ISO  8  14  13  15  13  16  13  17  13  18  13  19  13  20  13  21  13
M  ISO  6  22  13  23  13  24  14  25  14  26  14  27   3
M  END
>  <minimizedAffinity>  (1) 
-4.39533329

>  <minimizedRMSD>  (1) 
1.38531172

$$$$
