
     RDKit          3D

 33 35  0  0  1  0  0  0  0  0999 V2000
   45.3480   35.0210   43.7960 C   0  0  0  0  0  0  0  0  0  0  0  0
   46.4390   34.2370   43.3990 C   0  0  0  0  0  0  0  0  0  0  0  0
   46.9650   33.3500   44.3320 C   0  0  0  0  0  0  0  0  0  0  0  0
   46.4060   33.2800   45.5740 N   0  0  0  0  0  0  0  0  0  0  0  0
   45.3570   34.0550   45.9070 C   0  0  0  0  0  0  0  0  0  0  0  0
   44.8230   34.9240   45.0330 N   0  0  0  0  0  0  0  0  0  0  0  0
   48.4260   34.8800   42.0250 C   0  0  2  0  0  0  0  0  0  0  0  0
   47.0070   34.3350   42.0260 C   0  0  1  0  0  0  0  0  0  0  0  0
   47.0090   33.1640   41.3340 O   0  0  0  0  0  0  0  0  0  0  0  0
   48.2860   32.7150   41.1590 C   0  0  0  0  0  0  0  0  0  0  0  0
   49.0950   33.9840   40.9840 C   0  0  1  0  0  0  0  0  0  0  0  0
   49.0910   34.7590   43.2180 O   0  0  0  0  0  0  0  0  0  0  0  0
   48.8370   34.4540   39.7050 O   0  0  0  0  0  0  0  0  0  0  0  0
   44.7730   35.9740   42.8050 C   0  0  0  0  0  0  0  0  0  0  0  0
   44.1690   35.2660   41.6340 C   0  0  0  0  0  0  0  0  0  0  0  0
   42.6370   35.5370   41.5650 C   0  0  0  0  0  0  0  0  0  0  0  0
   43.2190   34.1650   41.6980 C   0  0  0  0  0  0  0  0  0  0  0  0
   47.8223   32.7120   44.0712 H   0  0  0  0  0  0  0  0  0  0  0  0
   44.9278   33.9749   46.9167 H   0  0  0  0  0  0  0  0  0  0  0  0
   48.4371   35.9619   41.8268 H   0  0  0  0  0  0  0  0  0  0  0  0
   46.3260   35.0340   41.5184 H   0  0  0  0  0  0  0  0  0  0  0  0
   48.6272   32.1512   42.0397 H   0  0  0  0  0  0  0  0  0  0  0  0
   48.3820   32.0284   40.3050 H   0  0  0  0  0  0  0  0  0  0  0  0
   50.1855   33.9013   41.1021 H   0  0  0  0  0  0  0  0  0  0  0  0
   48.4521   34.8753   43.9652 H   0  0  0  0  0  0  0  0  0  0  0  0
   48.3614   35.3204   39.7615 H   0  0  0  0  0  0  0  0  0  0  0  0
   43.9937   36.5730   43.2988 H   0  0  0  0  0  0  0  0  0  0  0  0
   45.5885   36.6119   42.4334 H   0  0  0  0  0  0  0  0  0  0  0  0
   45.0951   35.3479   41.0461 H   0  0  0  0  0  0  0  0  0  0  0  0
   42.1143   36.0063   42.4115 H   0  0  0  0  0  0  0  0  0  0  0  0
   41.9494   36.0459   40.8734 H   0  0  0  0  0  0  0  0  0  0  0  0
   43.1474   33.4643   40.8531 H   0  0  0  0  0  0  0  0  0  0  0  0
   43.0615   33.3434   42.4123 H   0  0  0  0  0  0  0  0  0  0  0  0
  1  6  2  0
  2  1  1  0
  2  3  2  0
  3  4  1  0
  4  5  2  0
  6  5  1  0
  7  8  1  0
  7 12  1  0
  8  2  1  0
  9  8  1  0
 10  9  1  0
 11 10  1  0
 11  7  1  0
 13 11  1  0
 14  1  1  0
 15 17  1  0
 15 14  1  0
 16 15  1  0
 16 17  1  0
  3 18  1  0
  5 19  1  0
  7 20  1  6
  8 21  1  6
 10 22  1  0
 10 23  1  0
 11 24  1  1
 12 25  1  0
 13 26  1  0
 14 27  1  0
 14 28  1  0
 15 29  1  0
 16 30  1  0
 16 31  1  0
 17 32  1  0
 17 33  1  0
M  ISO  8  18  14  19  14  20  13  21  13  22  13  23  13  24  13  25   3
M  ISO  8  26   3  27   8  28   8  29  13  30  13  31  13  32  13  33  13
M  END
>  <minimizedAffinity>  (1) 
-4.79521894

>  <minimizedRMSD>  (1) 
0.679159224

$$$$
