
     RDKit          3D

 36 38  0  0  1  0  0  0  0  0999 V2000
   46.1480   34.4490   43.3950 C   0  0  0  0  0  0  0  0  0  0  0  0
   47.1150   33.4380   43.4810 C   0  0  0  0  0  0  0  0  0  0  0  0
   47.2310   32.7430   44.6860 C   0  0  0  0  0  0  0  0  0  0  0  0
   46.4040   33.0780   45.7170 N   0  0  0  0  0  0  0  0  0  0  0  0
   45.4840   34.0620   45.5860 C   0  0  0  0  0  0  0  0  0  0  0  0
   45.3590   34.7370   44.4430 N   0  0  0  0  0  0  0  0  0  0  0  0
   49.2020   34.0100   42.2040 C   0  0  2  0  0  0  0  0  0  0  0  0
   47.9890   33.0980   42.3190 C   0  0  1  0  0  0  0  0  0  0  0  0
   48.4200   31.8050   42.2900 O   0  0  0  0  0  0  0  0  0  0  0  0
   49.7750   31.7510   42.5300 C   0  0  0  0  0  0  0  0  0  0  0  0
   50.3020   32.9940   41.8490 C   0  0  1  0  0  0  0  0  0  0  0  0
   49.5510   34.6270   43.3750 O   0  0  0  0  0  0  0  0  0  0  0  0
   50.3020   32.7310   40.4920 O   0  0  0  0  0  0  0  0  0  0  0  0
   46.0170   35.1880   42.1100 C   0  0  0  0  0  0  0  0  0  0  0  0
   45.7320   33.1520   40.1230 F   0  0  0  0  0  0  0  0  0  0  0  0
   44.6650   33.9160   40.4450 C   0  0  0  0  0  0  0  0  0  0  0  0
   44.7540   34.9120   41.3950 C   0  0  0  0  0  0  0  0  0  0  0  0
   43.6450   35.6700   41.7020 C   0  0  0  0  0  0  0  0  0  0  0  0
   42.4680   35.3750   41.0160 C   0  0  0  0  0  0  0  0  0  0  0  0
   42.3180   34.3980   40.0630 C   0  0  0  0  0  0  0  0  0  0  0  0
   43.4580   33.6570   39.7820 C   0  0  0  0  0  0  0  0  0  0  0  0
   47.9749   31.9409   44.8015 H   0  0  0  0  0  0  0  0  0  0  0  0
   44.8297   34.3085   46.4352 H   0  0  0  0  0  0  0  0  0  0  0  0
   49.0267   34.8309   41.4931 H   0  0  0  0  0  0  0  0  0  0  0  0
   47.3219   33.2516   41.4579 H   0  0  0  0  0  0  0  0  0  0  0  0
   49.9847   31.7749   43.6096 H   0  0  0  0  0  0  0  0  0  0  0  0
   50.2405   30.8270   42.1566 H   0  0  0  0  0  0  0  0  0  0  0  0
   51.3105   33.3280   42.1342 H   0  0  0  0  0  0  0  0  0  0  0  0
   49.2420   34.0807   44.1407 H   0  0  0  0  0  0  0  0  0  0  0  0
   51.2354   32.6682   40.1680 H   0  0  0  0  0  0  0  0  0  0  0  0
   46.0681   36.2661   42.3221 H   0  0  0  0  0  0  0  0  0  0  0  0
   46.8367   34.8504   41.4588 H   0  0  0  0  0  0  0  0  0  0  0  0
   43.6866   36.4715   42.4543 H   0  0  0  0  0  0  0  0  0  0  0  0
   41.5810   35.9782   41.2597 H   0  0  0  0  0  0  0  0  0  0  0  0
   41.3591   34.2147   39.5562 H   0  0  0  0  0  0  0  0  0  0  0  0
   43.4131   32.8562   39.0292 H   0  0  0  0  0  0  0  0  0  0  0  0
  1  2  1  0
  1  6  2  0
  2  3  2  0
  3  4  1  0
  5  4  2  0
  6  5  1  0
  7  8  1  0
  7 12  1  0
  8  2  1  0
  9  8  1  0
  9 10  1  0
 11  7  1  0
 11 10  1  0
 13 11  1  0
 14  1  1  0
 15 16  1  0
 16 17  2  0
 17 18  1  0
 17 14  1  0
 19 18  2  0
 20 19  1  0
 21 20  2  0
 21 16  1  0
  3 22  1  0
  5 23  1  0
  7 24  1  6
  8 25  1  6
 10 26  1  0
 10 27  1  0
 11 28  1  1
 12 29  1  0
 13 30  1  0
 14 31  1  0
 14 32  1  0
 18 33  1  0
 19 34  1  0
 20 35  1  0
 21 36  1  0
M  ISO  8  22  14  23  14  24  13  25  13  26  13  27  13  28  13  29   3
M  ISO  7  30   3  31   8  32   8  33  14  34  14  35  14  36  14
M  END
>  <minimizedAffinity>  (1) 
-5.60267639

>  <minimizedRMSD>  (1) 
1.80604494

$$$$
