
     RDKit          3D

 49 53  0  0  1  0  0  0  0  0999 V2000
   46.0170   35.2450   42.3460 C   0  0  0  0  0  0  0  0  0  0  0  0
   46.2010   33.6050   39.9960 F   0  0  0  0  0  0  0  0  0  0  0  0
   45.0280   34.0800   40.3900 C   0  0  0  0  0  0  0  0  0  0  0  0
   44.8640   34.8570   41.5100 C   0  0  0  0  0  0  0  0  0  0  0  0
   43.6070   35.2940   41.8720 C   0  0  0  0  0  0  0  0  0  0  0  0
   42.5530   34.9170   41.0680 C   0  0  0  0  0  0  0  0  0  0  0  0
   42.6490   34.1380   39.9250 C   0  0  0  0  0  0  0  0  0  0  0  0
   43.9360   33.7060   39.5790 C   0  0  0  0  0  0  0  0  0  0  0  0
   43.4500   31.6930   38.2770 C   0  0  0  0  0  0  0  0  0  0  0  0
   44.1220   32.8790   38.3870 C   0  0  0  0  0  0  0  0  0  0  0  0
   44.9750   33.3070   37.3880 C   0  0  0  0  0  0  0  0  0  0  0  0
   45.1500   32.5230   36.2600 C   0  0  0  0  0  0  0  0  0  0  0  0
   45.8950   32.6750   35.1550 N   0  0  0  0  0  0  0  0  0  0  0  0
   45.7230   31.6340   34.3460 C   0  0  0  0  0  0  0  0  0  0  0  0
   44.8430   30.7780   34.9380 N   0  0  0  0  0  0  0  0  0  0  0  0
   44.4710   31.3110   36.1370 C   0  0  0  0  0  0  0  0  0  0  0  0
   43.6090   30.8820   37.1490 C   0  0  0  0  0  0  0  0  0  0  0  0
   46.1420   34.4190   43.5770 C   0  0  0  0  0  0  0  0  0  0  0  0
   47.0850   33.4050   43.5670 C   0  0  0  0  0  0  0  0  0  0  0  0
   47.2020   32.6440   44.7450 C   0  0  0  0  0  0  0  0  0  0  0  0
   46.4070   32.9320   45.8070 N   0  0  0  0  0  0  0  0  0  0  0  0
   45.5110   33.9280   45.7580 C   0  0  0  0  0  0  0  0  0  0  0  0
   45.3900   34.6490   44.6610 N   0  0  0  0  0  0  0  0  0  0  0  0
   49.1170   34.0310   42.2620 C   0  0  2  0  0  0  0  0  0  0  0  0
   47.9140   33.0530   42.3810 C   0  0  1  0  0  0  0  0  0  0  0  0
   48.3700   31.7950   42.3290 O   0  0  0  0  0  0  0  0  0  0  0  0
   49.7320   31.7640   42.4890 C   0  0  0  0  0  0  0  0  0  0  0  0
   50.1980   33.0190   41.8110 C   0  0  1  0  0  0  0  0  0  0  0  0
   49.4790   34.6320   43.3990 O   0  0  0  0  0  0  0  0  0  0  0  0
   50.1310   32.7930   40.4530 O   0  0  0  0  0  0  0  0  0  0  0  0
   45.8988   36.2983   42.6403 H   0  0  0  0  0  0  0  0  0  0  0  0
   46.9268   35.0873   41.7482 H   0  0  0  0  0  0  0  0  0  0  0  0
   43.4522   35.9173   42.7650 H   0  0  0  0  0  0  0  0  0  0  0  0
   41.5501   35.2637   41.3578 H   0  0  0  0  0  0  0  0  0  0  0  0
   41.7658   33.8744   39.3246 H   0  0  0  0  0  0  0  0  0  0  0  0
   42.7763   31.3732   39.0856 H   0  0  0  0  0  0  0  0  0  0  0  0
   45.5107   34.2626   37.4878 H   0  0  0  0  0  0  0  0  0  0  0  0
   46.5092   33.4789   34.9618 H   0  0  0  0  0  0  0  0  0  0  0  0
   46.2068   31.4888   33.3688 H   0  0  0  0  0  0  0  0  0  0  0  0
   43.0679   29.9284   37.0607 H   0  0  0  0  0  0  0  0  0  0  0  0
   47.9314   31.8228   44.8047 H   0  0  0  0  0  0  0  0  0  0  0  0
   44.8780   34.1432   46.6315 H   0  0  0  0  0  0  0  0  0  0  0  0
   48.9152   34.8903   41.6056 H   0  0  0  0  0  0  0  0  0  0  0  0
   47.2197   33.1453   41.5328 H   0  0  0  0  0  0  0  0  0  0  0  0
   50.0020   31.7707   43.5553 H   0  0  0  0  0  0  0  0  0  0  0  0
   50.1903   30.8567   42.0685 H   0  0  0  0  0  0  0  0  0  0  0  0
   51.2194   33.3537   42.0448 H   0  0  0  0  0  0  0  0  0  0  0  0
   49.1586   34.1000   44.1700 H   0  0  0  0  0  0  0  0  0  0  0  0
   49.8536   31.8572   40.2875 H   0  0  0  0  0  0  0  0  0  0  0  0
  1 18  1  0
  2  3  1  0
  3  4  2  0
  4  5  1  0
  4  1  1  0
  6  5  2  0
  7  6  1  0
  8  7  2  0
  8  3  1  0
  9 10  2  0
 10  8  1  0
 11 10  1  0
 12 11  2  0
 13 12  1  0
 14 15  2  0
 14 13  1  0
 15 16  1  0
 16 12  1  0
 16 17  2  0
 17  9  1  0
 18 23  2  0
 19 18  1  0
 19 20  2  0
 20 21  1  0
 22 21  2  0
 23 22  1  0
 24 25  1  0
 24 29  1  0
 25 19  1  0
 26 25  1  0
 26 27  1  0
 28 24  1  0
 28 27  1  0
 30 28  1  0
  1 31  1  0
  1 32  1  0
  5 33  1  0
  6 34  1  0
  7 35  1  0
  9 36  1  0
 11 37  1  0
 13 38  1  0
 14 39  1  0
 17 40  1  0
 20 41  1  0
 22 42  1  0
 24 43  1  6
 25 44  1  6
 27 45  1  0
 27 46  1  0
 28 47  1  1
 29 48  1  0
 30 49  1  0
M  ISO  8  31   8  32   8  33  14  34  14  35  14  36  14  37  14  38   9
M  ISO  8  39  14  40  14  41  14  42  14  43  13  44  13  45  13  46  13
M  ISO  3  47  13  48   3  49   3
M  END
>  <minimizedAffinity>  (1) 
-6.69882393

>  <minimizedRMSD>  (1) 
0.886232257

$$$$
