
     RDKit          3D

 46 49  0  0  1  0  0  0  0  0999 V2000
   46.1640   34.4460   43.4420 C   0  0  0  0  0  0  0  0  0  0  0  0
   47.1150   33.4370   43.4840 C   0  0  0  0  0  0  0  0  0  0  0  0
   47.2130   32.7070   44.6850 C   0  0  0  0  0  0  0  0  0  0  0  0
   46.3940   33.0140   45.7190 N   0  0  0  0  0  0  0  0  0  0  0  0
   45.4900   34.0020   45.6230 C   0  0  0  0  0  0  0  0  0  0  0  0
   45.3850   34.6970   44.5030 N   0  0  0  0  0  0  0  0  0  0  0  0
   49.1990   34.0120   42.2370 C   0  0  2  0  0  0  0  0  0  0  0  0
   47.9740   33.0560   42.3270 C   0  0  1  0  0  0  0  0  0  0  0  0
   48.4080   31.7900   42.3000 O   0  0  0  0  0  0  0  0  0  0  0  0
   49.7650   31.7370   42.5050 C   0  0  0  0  0  0  0  0  0  0  0  0
   50.2710   32.9760   41.8240 C   0  0  1  0  0  0  0  0  0  0  0  0
   49.5350   34.6170   43.3780 O   0  0  0  0  0  0  0  0  0  0  0  0
   50.2400   32.7320   40.4700 O   0  0  0  0  0  0  0  0  0  0  0  0
   46.0630   35.2360   42.1900 C   0  0  0  0  0  0  0  0  0  0  0  0
   45.7960   33.3550   40.0200 F   0  0  0  0  0  0  0  0  0  0  0  0
   44.7470   34.0660   40.4220 C   0  0  0  0  0  0  0  0  0  0  0  0
   44.8100   34.9860   41.4490 C   0  0  0  0  0  0  0  0  0  0  0  0
   43.6800   35.6810   41.8050 C   0  0  0  0  0  0  0  0  0  0  0  0
   42.5160   35.4180   41.1000 C   0  0  0  0  0  0  0  0  0  0  0  0
   42.3900   34.5110   40.0650 C   0  0  0  0  0  0  0  0  0  0  0  0
   43.5520   33.8400   39.7480 C   0  0  0  0  0  0  0  0  0  0  0  0
   43.4620   32.8630   38.6510 C   0  0  0  0  0  0  0  0  0  0  0  0
   42.2250   32.2250   38.6180 C   0  0  0  0  0  0  0  0  0  0  0  0
   41.9570   31.2640   37.6420 C   0  0  0  0  0  0  0  0  0  0  0  0
   42.9190   30.9450   36.7070 C   0  0  0  0  0  0  0  0  0  0  0  0
   44.1380   31.5930   36.7610 C   0  0  0  0  0  0  0  0  0  0  0  0
   44.4160   32.5460   37.7210 C   0  0  0  0  0  0  0  0  0  0  0  0
   47.9484   31.8947   44.7820 H   0  0  0  0  0  0  0  0  0  0  0  0
   44.8362   34.2335   46.4768 H   0  0  0  0  0  0  0  0  0  0  0  0
   49.0359   34.8707   41.5692 H   0  0  0  0  0  0  0  0  0  0  0  0
   47.3075   33.1506   41.4570 H   0  0  0  0  0  0  0  0  0  0  0  0
   50.0014   31.7543   43.5792 H   0  0  0  0  0  0  0  0  0  0  0  0
   50.2218   30.8160   42.1136 H   0  0  0  0  0  0  0  0  0  0  0  0
   51.2912   33.2985   42.0793 H   0  0  0  0  0  0  0  0  0  0  0  0
   49.2306   34.0689   44.1442 H   0  0  0  0  0  0  0  0  0  0  0  0
   50.1168   31.7625   40.3121 H   0  0  0  0  0  0  0  0  0  0  0  0
   46.1120   36.3049   42.4451 H   0  0  0  0  0  0  0  0  0  0  0  0
   46.8961   34.9302   41.5400 H   0  0  0  0  0  0  0  0  0  0  0  0
   43.6982   36.4195   42.6200 H   0  0  0  0  0  0  0  0  0  0  0  0
   41.6153   35.9794   41.3891 H   0  0  0  0  0  0  0  0  0  0  0  0
   41.4404   34.3385   39.5373 H   0  0  0  0  0  0  0  0  0  0  0  0
   41.4568   32.4790   39.3632 H   0  0  0  0  0  0  0  0  0  0  0  0
   40.9789   30.7613   37.6187 H   0  0  0  0  0  0  0  0  0  0  0  0
   42.7197   30.1892   35.9331 H   0  0  0  0  0  0  0  0  0  0  0  0
   44.9094   31.3426   36.0179 H   0  0  0  0  0  0  0  0  0  0  0  0
   45.3955   33.0463   37.7385 H   0  0  0  0  0  0  0  0  0  0  0  0
  1  2  1  0
  1  6  2  0
  2  3  2  0
  3  4  1  0
  5  4  2  0
  6  5  1  0
  7  8  1  0
  7 12  1  0
  8  2  1  0
  9  8  1  0
  9 10  1  0
 11  7  1  0
 11 10  1  0
 13 11  1  0
 14  1  1  0
 15 16  1  0
 16 17  2  0
 17 18  1  0
 17 14  1  0
 19 18  2  0
 20 19  1  0
 21 20  2  0
 21 16  1  0
 22 21  1  0
 23 22  2  0
 24 23  1  0
 25 26  1  0
 25 24  2  0
 26 27  2  0
 27 22  1  0
  3 28  1  0
  5 29  1  0
  7 30  1  6
  8 31  1  6
 10 32  1  0
 10 33  1  0
 11 34  1  1
 12 35  1  0
 13 36  1  0
 14 37  1  0
 14 38  1  0
 18 39  1  0
 19 40  1  0
 20 41  1  0
 23 42  1  0
 24 43  1  0
 25 44  1  0
 26 45  1  0
 27 46  1  0
M  ISO  8  28  14  29  14  30  13  31  13  32  13  33  13  34  13  35   3
M  ISO  8  36   3  37   8  38   8  39  14  40  14  41  14  42  14  43  14
M  ISO  3  44  14  45  14  46  14
M  END
>  <minimizedAffinity>  (1) 
-6.24692535

>  <minimizedRMSD>  (1) 
0.232132077

$$$$
