
     RDKit          3D

 43 46  0  0  1  0  0  0  0  0999 V2000
   46.2740   34.3320   43.6550 C   0  0  0  0  0  0  0  0  0  0  0  0
   47.1880   33.2910   43.6040 C   0  0  0  0  0  0  0  0  0  0  0  0
   47.2840   32.4790   44.7500 C   0  0  0  0  0  0  0  0  0  0  0  0
   46.5000   32.7440   45.8230 N   0  0  0  0  0  0  0  0  0  0  0  0
   45.6310   33.7680   45.8160 C   0  0  0  0  0  0  0  0  0  0  0  0
   45.5290   34.5380   44.7480 N   0  0  0  0  0  0  0  0  0  0  0  0
   49.1850   33.9680   42.2710 C   0  0  2  0  0  0  0  0  0  0  0  0
   48.0070   32.9610   42.4040 C   0  0  1  0  0  0  0  0  0  0  0  0
   48.4890   31.7140   42.3390 O   0  0  0  0  0  0  0  0  0  0  0  0
   49.8550   31.7150   42.4810 C   0  0  0  0  0  0  0  0  0  0  0  0
   50.2800   32.9810   41.7980 C   0  0  1  0  0  0  0  0  0  0  0  0
   49.5470   34.5740   43.4030 O   0  0  0  0  0  0  0  0  0  0  0  0
   50.1960   32.7570   40.4410 O   0  0  0  0  0  0  0  0  0  0  0  0
   46.1730   35.2100   42.4590 C   0  0  0  0  0  0  0  0  0  0  0  0
   46.0590   33.5210   40.1310 F   0  0  0  0  0  0  0  0  0  0  0  0
   44.9660   34.1440   40.5570 C   0  0  0  0  0  0  0  0  0  0  0  0
   44.9560   34.9690   41.6660 C   0  0  0  0  0  0  0  0  0  0  0  0
   43.7820   35.5750   42.0450 C   0  0  0  0  0  0  0  0  0  0  0  0
   42.6540   35.3240   41.2870 C   0  0  0  0  0  0  0  0  0  0  0  0
   42.6020   34.5140   40.1740 C   0  0  0  0  0  0  0  0  0  0  0  0
   43.8060   33.9210   39.8220 C   0  0  0  0  0  0  0  0  0  0  0  0
   43.8330   33.0450   38.6520 C   0  0  0  0  0  0  0  0  0  0  0  0
   43.1730   31.8600   38.4870 C   0  0  0  0  0  0  0  0  0  0  0  0
   43.5000   31.3920   37.2250 C   0  0  0  0  0  0  0  0  0  0  0  0
   44.3340   32.2750   36.6500 N   0  0  0  0  0  0  0  0  0  0  0  0
   44.5320   33.2590   37.5020 N   0  0  0  0  0  0  0  0  0  0  0  0
   47.9900   31.6358   44.7742 H   0  0  0  0  0  0  0  0  0  0  0  0
   45.0050   33.9651   46.6988 H   0  0  0  0  0  0  0  0  0  0  0  0
   48.9564   34.8260   41.6218 H   0  0  0  0  0  0  0  0  0  0  0  0
   47.2985   33.0393   41.5662 H   0  0  0  0  0  0  0  0  0  0  0  0
   50.1393   31.7275   43.5435 H   0  0  0  0  0  0  0  0  0  0  0  0
   50.3296   30.8191   42.0542 H   0  0  0  0  0  0  0  0  0  0  0  0
   51.2976   33.3381   42.0147 H   0  0  0  0  0  0  0  0  0  0  0  0
   49.2304   34.0440   44.1769 H   0  0  0  0  0  0  0  0  0  0  0  0
   49.8531   31.8427   40.2781 H   0  0  0  0  0  0  0  0  0  0  0  0
   46.1711   36.2580   42.7933 H   0  0  0  0  0  0  0  0  0  0  0  0
   47.0347   34.9849   41.8135 H   0  0  0  0  0  0  0  0  0  0  0  0
   43.7416   36.2375   42.9222 H   0  0  0  0  0  0  0  0  0  0  0  0
   41.7189   35.8122   41.5987 H   0  0  0  0  0  0  0  0  0  0  0  0
   41.6744   34.3494   39.6062 H   0  0  0  0  0  0  0  0  0  0  0  0
   42.5097   31.3717   39.2161 H   0  0  0  0  0  0  0  0  0  0  0  0
   43.1388   30.4574   36.7711 H   0  0  0  0  0  0  0  0  0  0  0  0
   44.7456   32.1960   35.7091 H   0  0  0  0  0  0  0  0  0  0  0  0
  1  6  2  0
  2  1  1  0
  2  3  2  0
  3  4  1  0
  5  4  2  0
  6  5  1  0
  7  8  1  0
  7 12  1  0
  8  2  1  0
  9  8  1  0
  9 10  1  0
 11  7  1  0
 11 10  1  0
 13 11  1  0
 14  1  1  0
 15 16  1  0
 16 17  2  0
 17 18  1  0
 17 14  1  0
 19 18  2  0
 20 19  1  0
 21 20  2  0
 21 16  1  0
 22 21  1  0
 23 22  1  0
 24 23  2  0
 25 24  1  0
 25 26  1  0
 26 22  2  0
  3 27  1  0
  5 28  1  0
  7 29  1  6
  8 30  1  6
 10 31  1  0
 10 32  1  0
 11 33  1  6
 12 34  1  0
 13 35  1  0
 14 36  1  0
 14 37  1  0
 18 38  1  0
 19 39  1  0
 20 40  1  0
 23 41  1  0
 24 42  1  0
 25 43  1  0
M  ISO  8  27  14  28  14  29  13  30  13  31  13  32  13  33  13  34   3
M  ISO  8  35   3  36   8  37   8  38  14  39  14  40  14  41  14  42  14
M  ISO  1  43   9
M  END
>  <minimizedAffinity>  (1) 
-6.20288849

>  <minimizedRMSD>  (1) 
0.532123864

$$$$
