
     RDKit          3D

 50 53  0  0  1  0  0  0  0  0999 V2000
   46.1390   34.4190   43.5350 C   0  0  0  0  0  0  0  0  0  0  0  0
   47.1030   33.4230   43.5360 C   0  0  0  0  0  0  0  0  0  0  0  0
   47.2480   32.6850   44.7270 C   0  0  0  0  0  0  0  0  0  0  0  0
   46.4590   32.9730   45.7900 N   0  0  0  0  0  0  0  0  0  0  0  0
   45.5400   33.9510   45.7280 C   0  0  0  0  0  0  0  0  0  0  0  0
   45.3910   34.6540   44.6180 N   0  0  0  0  0  0  0  0  0  0  0  0
   49.1480   34.0300   42.2440 C   0  0  2  0  0  0  0  0  0  0  0  0
   47.9320   33.0680   42.3470 C   0  0  1  0  0  0  0  0  0  0  0  0
   48.3670   31.8040   42.2860 O   0  0  0  0  0  0  0  0  0  0  0  0
   49.7330   31.7560   42.4560 C   0  0  0  0  0  0  0  0  0  0  0  0
   50.2140   33.0090   41.7830 C   0  0  1  0  0  0  0  0  0  0  0  0
   49.5110   34.6200   43.3850 O   0  0  0  0  0  0  0  0  0  0  0  0
   50.1490   32.7850   40.4280 O   0  0  0  0  0  0  0  0  0  0  0  0
   45.9860   35.2200   42.2890 C   0  0  0  0  0  0  0  0  0  0  0  0
   45.6390   33.2780   40.1910 F   0  0  0  0  0  0  0  0  0  0  0  0
   44.6100   34.0180   40.5940 C   0  0  0  0  0  0  0  0  0  0  0  0
   44.7120   34.9650   41.5920 C   0  0  0  0  0  0  0  0  0  0  0  0
   43.6010   35.6890   41.9550 C   0  0  0  0  0  0  0  0  0  0  0  0
   42.4160   35.4280   41.2920 C   0  0  0  0  0  0  0  0  0  0  0  0
   42.2520   34.4980   40.2900 C   0  0  0  0  0  0  0  0  0  0  0  0
   43.3970   33.7850   39.9500 C   0  0  0  0  0  0  0  0  0  0  0  0
   43.2900   32.8140   38.9250 N   0  0  0  0  0  0  0  0  0  0  0  0
   42.1120   32.9640   38.1210 C   0  0  0  0  0  0  0  0  0  0  0  0
   41.7410   31.5550   37.6440 C   0  0  0  0  0  0  0  0  0  0  0  0
   42.7020   31.2340   36.6120 N   0  0  0  0  0  0  0  0  0  0  0  0
   44.0180   31.6100   37.0300 C   0  0  0  0  0  0  0  0  0  0  0  0
   44.1550   31.7090   38.5550 C   0  0  0  0  0  0  0  0  0  0  0  0
   47.9960   31.8812   44.7935 H   0  0  0  0  0  0  0  0  0  0  0  0
   44.9097   34.1676   46.6031 H   0  0  0  0  0  0  0  0  0  0  0  0
   48.9623   34.8999   41.5968 H   0  0  0  0  0  0  0  0  0  0  0  0
   47.2450   33.1770   41.4948 H   0  0  0  0  0  0  0  0  0  0  0  0
   49.9966   31.7572   43.5239 H   0  0  0  0  0  0  0  0  0  0  0  0
   50.1851   30.8445   42.0380 H   0  0  0  0  0  0  0  0  0  0  0  0
   51.2384   33.3358   42.0148 H   0  0  0  0  0  0  0  0  0  0  0  0
   49.1827   34.0863   44.1515 H   0  0  0  0  0  0  0  0  0  0  0  0
   49.8771   31.8478   40.2611 H   0  0  0  0  0  0  0  0  0  0  0  0
   46.0348   36.2874   42.5504 H   0  0  0  0  0  0  0  0  0  0  0  0
   46.7980   34.9261   41.6076 H   0  0  0  0  0  0  0  0  0  0  0  0
   43.6531   36.4508   42.7468 H   0  0  0  0  0  0  0  0  0  0  0  0
   41.5319   36.0111   41.5894 H   0  0  0  0  0  0  0  0  0  0  0  0
   41.2846   34.3308   39.7938 H   0  0  0  0  0  0  0  0  0  0  0  0
   41.2939   33.3926   38.7185 H   0  0  0  0  0  0  0  0  0  0  0  0
   42.2877   33.6422   37.2730 H   0  0  0  0  0  0  0  0  0  0  0  0
   41.8127   30.8364   38.4737 H   0  0  0  0  0  0  0  0  0  0  0  0
   40.7077   31.5084   37.2698 H   0  0  0  0  0  0  0  0  0  0  0  0
   42.4597   31.7440   35.7505 H   0  0  0  0  0  0  0  0  0  0  0  0
   44.7314   30.8581   36.6617 H   0  0  0  0  0  0  0  0  0  0  0  0
   44.2236   32.6077   36.6148 H   0  0  0  0  0  0  0  0  0  0  0  0
   43.8236   30.7773   39.0367 H   0  0  0  0  0  0  0  0  0  0  0  0
   45.1961   31.8674   38.8727 H   0  0  0  0  0  0  0  0  0  0  0  0
  1  2  1  0
  1  6  2  0
  2  3  2  0
  3  4  1  0
  5  4  2  0
  6  5  1  0
  7  8  1  0
  7 12  1  0
  8  2  1  0
  9  8  1  0
  9 10  1  0
 11  7  1  0
 11 10  1  0
 13 11  1  0
 14  1  1  0
 15 16  1  0
 16 17  2  0
 17 18  1  0
 17 14  1  0
 19 18  2  0
 20 19  1  0
 21 20  2  0
 21 16  1  0
 22 21  1  0
 23 22  1  0
 24 23  1  0
 25 26  1  0
 25 24  1  0
 26 27  1  0
 27 22  1  0
  3 28  1  0
  5 29  1  0
  7 30  1  6
  8 31  1  6
 10 32  1  0
 10 33  1  0
 11 34  1  1
 12 35  1  0
 13 36  1  0
 14 37  1  0
 14 38  1  0
 18 39  1  0
 19 40  1  0
 20 41  1  0
 23 42  1  0
 23 43  1  0
 24 44  1  0
 24 45  1  0
 25 46  1  0
 26 47  1  0
 26 48  1  0
 27 49  1  0
 27 50  1  0
M  ISO  8  28  14  29  14  30  13  31  13  32  13  33  13  34  13  35   3
M  ISO  8  36   3  37   8  38   8  39  14  40  14  41  14  42  13  43  13
M  ISO  7  44  13  45  13  46   5  47  13  48  13  49  13  50  13
M  END
>  <minimizedAffinity>  (1) 
-6.15252447

>  <minimizedRMSD>  (1) 
0.236573532

$$$$
