
     RDKit          3D

 42 44  0  0  1  0  0  0  0  0999 V2000
   46.2210   34.4240   43.3310 C   0  0  0  0  0  0  0  0  0  0  0  0
   47.1760   33.4310   43.4660 C   0  0  0  0  0  0  0  0  0  0  0  0
   47.2270   32.7700   44.7080 C   0  0  0  0  0  0  0  0  0  0  0  0
   46.3620   33.1270   45.6900 N   0  0  0  0  0  0  0  0  0  0  0  0
   45.4570   34.1000   45.4990 C   0  0  0  0  0  0  0  0  0  0  0  0
   45.3950   34.7290   44.3400 N   0  0  0  0  0  0  0  0  0  0  0  0
   49.3000   33.9660   42.2700 C   0  0  2  0  0  0  0  0  0  0  0  0
   48.0840   32.9990   42.3680 C   0  0  1  0  0  0  0  0  0  0  0  0
   48.5360   31.7400   42.4320 O   0  0  0  0  0  0  0  0  0  0  0  0
   49.8850   31.7210   42.6910 C   0  0  0  0  0  0  0  0  0  0  0  0
   50.4020   32.9260   41.9650 C   0  0  1  0  0  0  0  0  0  0  0  0
   49.5800   34.6430   43.3870 O   0  0  0  0  0  0  0  0  0  0  0  0
   50.4320   32.6180   40.6160 O   0  0  0  0  0  0  0  0  0  0  0  0
   46.1640   35.1450   42.0320 C   0  0  0  0  0  0  0  0  0  0  0  0
   46.1910   32.9540   40.1690 F   0  0  0  0  0  0  0  0  0  0  0  0
   45.0980   33.6910   40.3190 C   0  0  0  0  0  0  0  0  0  0  0  0
   45.0180   34.7520   41.1990 C   0  0  0  0  0  0  0  0  0  0  0  0
   43.8430   35.4610   41.3040 C   0  0  0  0  0  0  0  0  0  0  0  0
   42.7820   35.0690   40.5070 C   0  0  0  0  0  0  0  0  0  0  0  0
   42.8010   34.0320   39.6210 C   0  0  0  0  0  0  0  0  0  0  0  0
   44.0010   33.3170   39.5230 C   0  0  0  0  0  0  0  0  0  0  0  0
   44.1300   32.2370   38.6470 O   0  0  0  0  0  0  0  0  0  0  0  0
   46.2620   31.9970   37.1810 O   0  0  0  0  0  0  0  0  0  0  0  0
   44.8450   32.5460   37.1240 P   0  0  0  0  0  0  0  0  0  0  0  0
   43.9980   31.6890   35.9410 O   0  0  0  0  0  0  0  0  0  0  0  0
   44.9400   34.1990   36.7890 O   0  0  0  0  0  0  0  0  0  0  0  0
   47.9624   31.9704   44.8807 H   0  0  0  0  0  0  0  0  0  0  0  0
   44.7658   34.3737   46.3098 H   0  0  0  0  0  0  0  0  0  0  0  0
   49.1538   34.7798   41.5445 H   0  0  0  0  0  0  0  0  0  0  0  0
   47.4509   33.0348   41.4692 H   0  0  0  0  0  0  0  0  0  0  0  0
   50.0784   31.8005   43.7709 H   0  0  0  0  0  0  0  0  0  0  0  0
   50.3686   30.7876   42.3671 H   0  0  0  0  0  0  0  0  0  0  0  0
   51.4077   33.2692   42.2493 H   0  0  0  0  0  0  0  0  0  0  0  0
   49.3509   34.0890   44.1748 H   0  0  0  0  0  0  0  0  0  0  0  0
   50.5273   31.6391   40.5031 H   0  0  0  0  0  0  0  0  0  0  0  0
   46.0950   36.2240   42.2342 H   0  0  0  0  0  0  0  0  0  0  0  0
   47.0762   34.8855   41.4748 H   0  0  0  0  0  0  0  0  0  0  0  0
   43.7506   36.3099   41.9975 H   0  0  0  0  0  0  0  0  0  0  0  0
   41.8463   35.6406   40.5951 H   0  0  0  0  0  0  0  0  0  0  0  0
   41.9204   33.7713   39.0156 H   0  0  0  0  0  0  0  0  0  0  0  0
   43.3728   31.0564   36.3758 H   0  0  0  0  0  0  0  0  0  0  0  0
   44.9692   34.7067   37.6384 H   0  0  0  0  0  0  0  0  0  0  0  0
  1  2  1  0
  1  6  2  0
  2  3  2  0
  3  4  1  0
  5  4  2  0
  6  5  1  0
  7  8  1  0
  7 12  1  0
  8  9  1  0
  8  2  1  0
  9 10  1  0
 11  7  1  0
 11 10  1  0
 13 11  1  0
 14  1  1  0
 15 16  1  0
 16 17  2  0
 17 18  1  0
 17 14  1  0
 19 18  2  0
 20 19  1  0
 21 20  2  0
 21 16  1  0
 22 21  1  0
 24 23  2  0
 24 22  1  0
 25 24  1  0
 26 24  1  0
  3 27  1  0
  5 28  1  0
  7 29  1  6
  8 30  1  6
 10 31  1  0
 10 32  1  0
 11 33  1  1
 12 34  1  0
 13 35  1  0
 14 36  1  0
 14 37  1  0
 18 38  1  0
 19 39  1  0
 20 40  1  0
 25 41  1  0
 26 42  1  0
M  ISO  8  27  14  28  14  29  13  30  13  31  13  32  13  33  13  34   3
M  ISO  8  35   3  36   8  37   8  38  14  39  14  40  14  41   3  42   3
M  END
>  <minimizedAffinity>  (1) 
-6.14383602

>  <minimizedRMSD>  (1) 
0.625277519

$$$$
