
     RDKit          3D

 51 54  0  0  1  0  0  0  0  0999 V2000
   46.0870   34.4280   43.4150 C   0  0  0  0  0  0  0  0  0  0  0  0
   47.0880   33.4740   43.4700 C   0  0  0  0  0  0  0  0  0  0  0  0
   47.2510   32.8010   44.6950 C   0  0  0  0  0  0  0  0  0  0  0  0
   46.4420   33.1110   45.7380 N   0  0  0  0  0  0  0  0  0  0  0  0
   45.4880   34.0470   45.6260 C   0  0  0  0  0  0  0  0  0  0  0  0
   45.3220   34.6870   44.4840 N   0  0  0  0  0  0  0  0  0  0  0  0
   49.1740   34.0300   42.2180 C   0  0  2  0  0  0  0  0  0  0  0  0
   47.9370   33.0910   42.3070 C   0  0  1  0  0  0  0  0  0  0  0  0
   48.3490   31.8190   42.2660 O   0  0  0  0  0  0  0  0  0  0  0  0
   49.7100   31.7460   42.4630 C   0  0  0  0  0  0  0  0  0  0  0  0
   50.2310   32.9830   41.7950 C   0  0  1  0  0  0  0  0  0  0  0  0
   49.5220   34.6230   43.3620 O   0  0  0  0  0  0  0  0  0  0  0  0
   50.1930   32.7510   40.4390 O   0  0  0  0  0  0  0  0  0  0  0  0
   45.9100   35.1590   42.1290 C   0  0  0  0  0  0  0  0  0  0  0  0
   45.3680   33.1400   40.1680 F   0  0  0  0  0  0  0  0  0  0  0  0
   44.4010   33.9570   40.5720 C   0  0  0  0  0  0  0  0  0  0  0  0
   44.5960   34.9370   41.5070 C   0  0  0  0  0  0  0  0  0  0  0  0
   43.5400   35.7410   41.8850 C   0  0  0  0  0  0  0  0  0  0  0  0
   42.3120   35.5040   41.2810 C   0  0  0  0  0  0  0  0  0  0  0  0
   42.0610   34.5460   40.3480 C   0  0  0  0  0  0  0  0  0  0  0  0
   43.1500   33.7460   39.9850 C   0  0  0  0  0  0  0  0  0  0  0  0
   42.8850   32.7450   38.9830 N   0  0  0  0  0  0  0  0  0  0  0  0
   41.7040   32.8600   38.1340 C   0  0  0  0  0  0  0  0  0  0  0  0
   41.2370   31.4250   37.8530 C   0  0  0  0  0  0  0  0  0  0  0  0
   42.1950   30.7400   36.9000 C   0  0  0  0  0  0  0  0  0  0  0  0
   43.5540   31.4130   37.1230 C   0  0  0  0  0  0  0  0  0  0  0  0
   43.6350   31.5840   38.6490 C   0  0  0  0  0  0  0  0  0  0  0  0
   48.0279   32.0302   44.8055 H   0  0  0  0  0  0  0  0  0  0  0  0
   44.8438   34.2812   46.4863 H   0  0  0  0  0  0  0  0  0  0  0  0
   49.0201   34.8945   41.5555 H   0  0  0  0  0  0  0  0  0  0  0  0
   47.2694   33.2039   41.4401 H   0  0  0  0  0  0  0  0  0  0  0  0
   49.9520   31.7478   43.5361 H   0  0  0  0  0  0  0  0  0  0  0  0
   50.1512   30.8236   42.0573 H   0  0  0  0  0  0  0  0  0  0  0  0
   51.2555   33.2896   42.0527 H   0  0  0  0  0  0  0  0  0  0  0  0
   49.2031   34.0796   44.1257 H   0  0  0  0  0  0  0  0  0  0  0  0
   50.0352   31.7878   40.2733 H   0  0  0  0  0  0  0  0  0  0  0  0
   46.0275   36.2357   42.3210 H   0  0  0  0  0  0  0  0  0  0  0  0
   46.6687   34.7759   41.4307 H   0  0  0  0  0  0  0  0  0  0  0  0
   43.6657   36.5368   42.6339 H   0  0  0  0  0  0  0  0  0  0  0  0
   41.4708   36.1454   41.5826 H   0  0  0  0  0  0  0  0  0  0  0  0
   41.0630   34.4088   39.9061 H   0  0  0  0  0  0  0  0  0  0  0  0
   40.9145   33.4231   38.6532 H   0  0  0  0  0  0  0  0  0  0  0  0
   41.9316   33.3973   37.2015 H   0  0  0  0  0  0  0  0  0  0  0  0
   41.2007   30.8631   38.7980 H   0  0  0  0  0  0  0  0  0  0  0  0
   40.2370   31.4561   37.3958 H   0  0  0  0  0  0  0  0  0  0  0  0
   41.8650   30.8775   35.8597 H   0  0  0  0  0  0  0  0  0  0  0  0
   42.2438   29.6563   37.0825 H   0  0  0  0  0  0  0  0  0  0  0  0
   44.3717   30.7749   36.7566 H   0  0  0  0  0  0  0  0  0  0  0  0
   43.6491   32.3667   36.5833 H   0  0  0  0  0  0  0  0  0  0  0  0
   43.2082   30.7027   39.1501 H   0  0  0  0  0  0  0  0  0  0  0  0
   44.6804   31.6876   38.9751 H   0  0  0  0  0  0  0  0  0  0  0  0
  1  2  1  0
  1  6  2  0
  2  3  2  0
  3  4  1  0
  5  4  2  0
  6  5  1  0
  7  8  1  0
  7 12  1  0
  8  2  1  0
  9  8  1  0
  9 10  1  0
 11  7  1  0
 11 10  1  0
 13 11  1  0
 14  1  1  0
 15 16  1  0
 16 17  2  0
 17 18  1  0
 17 14  1  0
 19 18  2  0
 20 19  1  0
 21 20  2  0
 21 16  1  0
 22 21  1  0
 23 22  1  0
 24 23  1  0
 25 26  1  0
 25 24  1  0
 26 27  1  0
 27 22  1  0
  3 28  1  0
  5 29  1  0
  7 30  1  6
  8 31  1  6
 10 32  1  0
 10 33  1  0
 11 34  1  1
 12 35  1  0
 13 36  1  0
 14 37  1  0
 14 38  1  0
 18 39  1  0
 19 40  1  0
 20 41  1  0
 23 42  1  0
 23 43  1  0
 24 44  1  0
 24 45  1  0
 25 46  1  0
 25 47  1  0
 26 48  1  0
 26 49  1  0
 27 50  1  0
 27 51  1  0
M  ISO  8  28  14  29  14  30  13  31  13  32  13  33  13  34  13  35   3
M  ISO  8  36   3  37   8  38   8  39  14  40  14  41  14  42  13  43  13
M  ISO  8  44  13  45  13  46  13  47  13  48  13  49  13  50  13  51  13
M  END
>  <minimizedAffinity>  (1) 
-6.10828018

>  <minimizedRMSD>  (1) 
0.336790502

$$$$
