
     RDKit          3D

 37 39  0  0  1  0  0  0  0  0999 V2000
   46.1530   34.4380   43.4100 C   0  0  0  0  0  0  0  0  0  0  0  0
   47.1280   33.4570   43.4760 C   0  0  0  0  0  0  0  0  0  0  0  0
   47.2440   32.7610   44.6950 C   0  0  0  0  0  0  0  0  0  0  0  0
   46.4180   33.0760   45.7240 N   0  0  0  0  0  0  0  0  0  0  0  0
   45.4910   34.0410   45.6010 C   0  0  0  0  0  0  0  0  0  0  0  0
   45.3690   34.7010   44.4640 N   0  0  0  0  0  0  0  0  0  0  0  0
   49.2180   34.0250   42.2380 C   0  0  2  0  0  0  0  0  0  0  0  0
   47.9950   33.0700   42.3270 C   0  0  1  0  0  0  0  0  0  0  0  0
   48.4270   31.8030   42.3110 O   0  0  0  0  0  0  0  0  0  0  0  0
   49.7850   31.7540   42.5270 C   0  0  0  0  0  0  0  0  0  0  0  0
   50.2930   32.9890   41.8420 C   0  0  1  0  0  0  0  0  0  0  0  0
   49.5440   34.6430   43.3750 O   0  0  0  0  0  0  0  0  0  0  0  0
   50.2750   32.7350   40.4900 O   0  0  0  0  0  0  0  0  0  0  0  0
   46.0300   35.1950   42.1350 C   0  0  0  0  0  0  0  0  0  0  0  0
   45.7520   33.1520   40.1290 F   0  0  0  0  0  0  0  0  0  0  0  0
   44.7150   33.9160   40.4560 C   0  0  0  0  0  0  0  0  0  0  0  0
   44.7840   34.9090   41.4110 C   0  0  0  0  0  0  0  0  0  0  0  0
   43.6630   35.6540   41.6980 C   0  0  0  0  0  0  0  0  0  0  0  0
   42.5040   35.3650   41.0020 C   0  0  0  0  0  0  0  0  0  0  0  0
   42.3740   34.3910   40.0430 C   0  0  0  0  0  0  0  0  0  0  0  0
   43.5270   33.6520   39.7730 C   0  0  0  0  0  0  0  0  0  0  0  0
   43.4480   32.6480   38.8050 O   0  0  0  0  0  0  0  0  0  0  0  0
   47.9980   31.9687   44.8117 H   0  0  0  0  0  0  0  0  0  0  0  0
   44.8328   34.2815   46.4489 H   0  0  0  0  0  0  0  0  0  0  0  0
   49.0590   34.8774   41.5611 H   0  0  0  0  0  0  0  0  0  0  0  0
   47.3359   33.1603   41.4510 H   0  0  0  0  0  0  0  0  0  0  0  0
   50.0132   31.7789   43.6028 H   0  0  0  0  0  0  0  0  0  0  0  0
   50.2467   30.8315   42.1453 H   0  0  0  0  0  0  0  0  0  0  0  0
   51.3101   33.3160   42.1041 H   0  0  0  0  0  0  0  0  0  0  0  0
   49.2536   34.0925   44.1448 H   0  0  0  0  0  0  0  0  0  0  0  0
   50.2058   31.7591   40.3385 H   0  0  0  0  0  0  0  0  0  0  0  0
   46.0634   36.2707   42.3623 H   0  0  0  0  0  0  0  0  0  0  0  0
   46.8633   34.8838   41.4879 H   0  0  0  0  0  0  0  0  0  0  0  0
   43.6883   36.4518   42.4549 H   0  0  0  0  0  0  0  0  0  0  0  0
   41.6122   35.9650   41.2358 H   0  0  0  0  0  0  0  0  0  0  0  0
   41.4234   34.2052   39.5216 H   0  0  0  0  0  0  0  0  0  0  0  0
   44.2470   32.1048   38.5888 H   0  0  0  0  0  0  0  0  0  0  0  0
  1  2  1  0
  1  6  2  0
  2  3  2  0
  3  4  1  0
  5  4  2  0
  6  5  1  0
  7  8  1  0
  7 12  1  0
  8  2  1  0
  9  8  1  0
  9 10  1  0
 11  7  1  0
 11 10  1  0
 13 11  1  0
 14  1  1  0
 15 16  1  0
 16 17  2  0
 17 18  1  0
 17 14  1  0
 19 18  2  0
 20 19  1  0
 21 20  2  0
 21 16  1  0
 22 21  1  0
  3 23  1  0
  5 24  1  0
  7 25  1  6
  8 26  1  6
 10 27  1  0
 10 28  1  0
 11 29  1  1
 12 30  1  0
 13 31  1  0
 14 32  1  0
 14 33  1  0
 18 34  1  0
 19 35  1  0
 20 36  1  0
 22 37  1  0
M  ISO  8  23  14  24  14  25  13  26  13  27  13  28  13  29  13  30   3
M  ISO  7  31   3  32   8  33   8  34  14  35  14  36  14  37   3
M  END
>  <minimizedAffinity>  (1) 
-5.7134366

>  <minimizedRMSD>  (1) 
0.038072858

$$$$
