
     RDKit          3D

 35 37  0  0  1  0  0  0  0  0999 V2000
   41.8330   32.4730   41.5810 N   0  0  0  0  0  0  0  0  0  0  0  0
   40.7910   31.5180   41.7510 C   0  0  0  0  0  0  0  0  0  0  0  0
   39.4280   31.9640   41.4240 C   0  0  0  0  0  0  0  0  0  0  0  0
   39.1300   33.3310   41.4970 N   0  0  0  0  0  0  0  0  0  0  0  0
   40.1790   34.2450   41.5430 C   0  0  0  0  0  0  0  0  0  0  0  0
   41.4370   33.6680   40.9080 C   0  0  2  0  0  0  0  0  0  0  0  0
   44.0370   33.1870   42.1760 C   0  0  0  0  0  0  0  0  0  0  0  0
   43.1220   32.1420   42.0890 C   0  0  0  0  0  0  0  0  0  0  0  0
   43.5330   30.8830   42.5010 C   0  0  0  0  0  0  0  0  0  0  0  0
   44.8000   30.7070   42.9710 N   0  0  0  0  0  0  0  0  0  0  0  0
   45.6620   31.7370   43.0430 C   0  0  0  0  0  0  0  0  0  0  0  0
   45.2820   32.9670   42.6480 N   0  0  0  0  0  0  0  0  0  0  0  0
   40.7800   35.8420   38.4960 O   0  0  0  0  0  0  0  0  0  0  0  0
   41.5430   34.9090   38.8640 C   0  0  0  0  0  0  0  0  0  0  0  0
   41.2570   33.5370   39.4230 C   0  0  1  0  0  0  0  0  0  0  0  0
   42.3180   32.7390   38.7500 C   0  0  0  0  0  0  0  0  0  0  0  0
   43.4820   33.6480   38.5830 C   0  0  0  0  0  0  0  0  0  0  0  0
   42.9600   34.9800   38.8140 N   0  0  0  0  0  0  0  0  0  0  0  0
   41.0222   30.6544   41.1100 H   0  0  0  0  0  0  0  0  0  0  0  0
   40.7730   31.2977   42.8286 H   0  0  0  0  0  0  0  0  0  0  0  0
   38.7444   31.4467   42.1132 H   0  0  0  0  0  0  0  0  0  0  0  0
   39.3184   31.7243   40.3560 H   0  0  0  0  0  0  0  0  0  0  0  0
   38.5635   33.5619   40.6683 H   0  0  0  0  0  0  0  0  0  0  0  0
   39.8867   35.1550   40.9986 H   0  0  0  0  0  0  0  0  0  0  0  0
   40.3943   34.4771   42.5965 H   0  0  0  0  0  0  0  0  0  0  0  0
   42.2836   34.3587   41.0352 H   0  0  0  0  0  0  0  0  0  0  0  0
   43.7436   34.1984   41.8581 H   0  0  0  0  0  0  0  0  0  0  0  0
   42.8396   30.0307   42.4486 H   0  0  0  0  0  0  0  0  0  0  0  0
   46.6804   31.5741   43.4257 H   0  0  0  0  0  0  0  0  0  0  0  0
   40.2649   33.0902   39.2616 H   0  0  0  0  0  0  0  0  0  0  0  0
   42.5959   31.8746   39.3710 H   0  0  0  0  0  0  0  0  0  0  0  0
   41.9718   32.3510   37.7807 H   0  0  0  0  0  0  0  0  0  0  0  0
   44.2666   33.4087   39.3159 H   0  0  0  0  0  0  0  0  0  0  0  0
   43.9387   33.5524   37.5869 H   0  0  0  0  0  0  0  0  0  0  0  0
   43.5231   35.8355   38.9236 H   0  0  0  0  0  0  0  0  0  0  0  0
  1  2  1  0
  1  8  1  0
  3  4  1  0
  3  2  1  0
  4  5  1  0
  6  5  1  0
  6  1  1  0
  7 12  2  0
  8  7  1  0
  8  9  2  0
  9 10  1  0
 10 11  2  0
 12 11  1  0
 13 14  2  0
 14 15  1  0
 15 16  1  0
 15  6  1  0
 17 16  1  0
 17 18  1  0
 18 14  1  0
  2 19  1  0
  2 20  1  0
  3 21  1  0
  3 22  1  0
  4 23  1  0
  5 24  1  0
  5 25  1  0
  6 26  1  6
  7 27  1  0
  9 28  1  0
 11 29  1  0
 15 30  1  1
 16 31  1  0
 16 32  1  0
 17 33  1  0
 17 34  1  0
 18 35  1  0
M  ISO  8  19  13  20  13  21  13  22  13  23   5  24  13  25  13  26  13
M  ISO  8  27  14  28  14  29  14  30  13  31  13  32  13  33  13  34  13
M  ISO  1  35  10
M  END
>  <minimizedAffinity>  (1) 
-4.2510376

>  <minimizedRMSD>  (1) 
3.77168512

$$$$
