
     RDKit          3D

 38 40  0  0  1  0  0  0  0  0999 V2000
   45.7540   33.9700   43.6980 N   0  0  0  0  0  0  0  0  0  0  0  0
   45.2520   33.6810   45.0400 C   0  0  0  0  0  0  0  0  0  0  0  0
   46.3540   33.4060   46.0220 C   0  0  0  0  0  0  0  0  0  0  0  0
   47.3000   32.4800   45.5390 N   0  0  0  0  0  0  0  0  0  0  0  0
   47.6170   32.5060   44.1650 C   0  0  0  0  0  0  0  0  0  0  0  0
   47.1500   33.8350   43.5470 C   0  0  1  0  0  0  0  0  0  0  0  0
   47.8540   34.1490   42.3920 N   0  0  0  0  0  0  0  0  0  0  0  0
   48.1090   35.5060   42.0230 C   0  0  0  0  0  0  0  0  0  0  0  0
   48.7530   35.3260   40.6740 C   0  0  0  0  0  0  0  0  0  0  0  0
   47.7450   34.3670   40.0340 C   0  0  0  0  0  0  0  0  0  0  0  0
   47.4500   33.4570   41.1870 C   0  0  1  0  0  0  0  0  0  0  0  0
   48.2630   32.2200   41.0720 C   0  0  0  0  0  0  0  0  0  0  0  0
   48.8830   31.9480   40.0430 O   0  0  0  0  0  0  0  0  0  0  0  0
   44.0860   33.3220   42.1460 C   0  0  0  0  0  0  0  0  0  0  0  0
   44.7940   34.3410   42.7450 C   0  0  0  0  0  0  0  0  0  0  0  0
   44.5080   35.6470   42.3660 C   0  0  0  0  0  0  0  0  0  0  0  0
   43.5510   35.8710   41.4290 N   0  0  0  0  0  0  0  0  0  0  0  0
   42.8700   34.8470   40.8560 C   0  0  0  0  0  0  0  0  0  0  0  0
   43.1430   33.5680   41.2200 N   0  0  0  0  0  0  0  0  0  0  0  0
   44.6730   34.5469   45.3936 H   0  0  0  0  0  0  0  0  0  0  0  0
   44.6300   32.7761   44.9753 H   0  0  0  0  0  0  0  0  0  0  0  0
   46.8702   34.3516   46.2443 H   0  0  0  0  0  0  0  0  0  0  0  0
   45.8940   32.9698   46.9210 H   0  0  0  0  0  0  0  0  0  0  0  0
   48.1756   32.6394   46.0574 H   0  0  0  0  0  0  0  0  0  0  0  0
   48.7054   32.4075   44.0395 H   0  0  0  0  0  0  0  0  0  0  0  0
   47.1084   31.6720   43.6593 H   0  0  0  0  0  0  0  0  0  0  0  0
   47.4503   34.7441   44.0886 H   0  0  0  0  0  0  0  0  0  0  0  0
   47.1772   36.0860   41.9507 H   0  0  0  0  0  0  0  0  0  0  0  0
   48.7233   36.0627   42.7460 H   0  0  0  0  0  0  0  0  0  0  0  0
   48.8219   36.2755   40.1230 H   0  0  0  0  0  0  0  0  0  0  0  0
   49.7915   34.9641   40.6972 H   0  0  0  0  0  0  0  0  0  0  0  0
   46.8422   34.8961   39.6949 H   0  0  0  0  0  0  0  0  0  0  0  0
   48.1134   33.8548   39.1329 H   0  0  0  0  0  0  0  0  0  0  0  0
   46.3821   33.1936   41.2020 H   0  0  0  0  0  0  0  0  0  0  0  0
   48.3129   31.5294   41.9268 H   0  0  0  0  0  0  0  0  0  0  0  0
   44.2976   32.2813   42.4326 H   0  0  0  0  0  0  0  0  0  0  0  0
   45.0505   36.4895   42.8197 H   0  0  0  0  0  0  0  0  0  0  0  0
   42.0990   35.0525   40.0988 H   0  0  0  0  0  0  0  0  0  0  0  0
  1  2  1  0
  2  3  1  0
  4  3  1  0
  5  4  1  0
  6  1  1  0
  6  5  1  0
  7  8  1  0
  7  6  1  0
  9  8  1  0
 10  9  1  0
 10 11  1  0
 11  7  1  0
 12 11  1  0
 13 12  2  0
 14 15  2  0
 15  1  1  0
 16 15  1  0
 17 16  2  0
 18 19  2  0
 18 17  1  0
 19 14  1  0
  2 20  1  0
  2 21  1  0
  3 22  1  0
  3 23  1  0
  4 24  1  0
  5 25  1  0
  5 26  1  0
  6 27  1  1
  8 28  1  0
  8 29  1  0
  9 30  1  0
  9 31  1  0
 10 32  1  0
 10 33  1  0
 11 34  1  1
 12 35  1  0
 14 36  1  0
 16 37  1  0
 18 38  1  0
M  ISO  8  20  13  21  13  22  13  23  13  24   5  25  13  26  13  27  13
M  ISO  8  28  13  29  13  30  13  31  13  32  13  33  13  34  13  35   6
M  ISO  3  36  14  37  14  38  14
M  END
>  <minimizedAffinity>  (1) 
-4.48800182

>  <minimizedRMSD>  (1) 
3.11340737

$$$$
