
     RDKit          3D

 43 46  0  0  1  0  0  0  0  0999 V2000
   43.7430   33.6480   40.5660 N   0  0  0  0  0  0  0  0  0  0  0  0
   44.9020   34.3750   41.0870 C   0  0  0  0  0  0  0  0  0  0  0  0
   44.5390   35.3110   42.2090 C   0  0  0  0  0  0  0  0  0  0  0  0
   43.4090   36.0970   41.9470 N   0  0  0  0  0  0  0  0  0  0  0  0
   42.3500   35.5190   41.2130 C   0  0  0  0  0  0  0  0  0  0  0  0
   42.5150   33.9920   41.1610 C   0  0  1  0  0  0  0  0  0  0  0  0
   41.3010   33.3470   40.8920 N   0  0  0  0  0  0  0  0  0  0  0  0
   40.9360   32.1570   41.5620 C   0  0  0  0  0  0  0  0  0  0  0  0
   39.6420   31.8210   40.8210 C   0  0  0  0  0  0  0  0  0  0  0  0
   40.1880   31.9150   39.3890 C   0  0  0  0  0  0  0  0  0  0  0  0
   40.9870   33.1850   39.4770 C   0  0  1  0  0  0  0  0  0  0  0  0
   40.1980   34.4040   39.0550 C   0  0  0  0  0  0  0  0  0  0  0  0
   40.6570   35.2050   37.8480 C   0  0  0  0  0  0  0  0  0  0  0  0
   39.3480   34.4420   37.8530 C   0  0  0  0  0  0  0  0  0  0  0  0
   44.2160   33.1910   38.2820 C   0  0  0  0  0  0  0  0  0  0  0  0
   44.0040   32.7160   39.5530 C   0  0  0  0  0  0  0  0  0  0  0  0
   44.0640   31.3310   39.7410 C   0  0  0  0  0  0  0  0  0  0  0  0
   44.3250   30.5250   38.6790 N   0  0  0  0  0  0  0  0  0  0  0  0
   44.5260   31.0360   37.4520 C   0  0  0  0  0  0  0  0  0  0  0  0
   44.4710   32.3630   37.2580 N   0  0  0  0  0  0  0  0  0  0  0  0
   45.6372   33.6464   41.4594 H   0  0  0  0  0  0  0  0  0  0  0  0
   45.3130   34.9809   40.2661 H   0  0  0  0  0  0  0  0  0  0  0  0
   44.3433   34.7120   43.1106 H   0  0  0  0  0  0  0  0  0  0  0  0
   45.3862   36.0008   42.3373 H   0  0  0  0  0  0  0  0  0  0  0  0
   43.0250   36.3925   42.8559 H   0  0  0  0  0  0  0  0  0  0  0  0
   41.3941   35.7653   41.6983 H   0  0  0  0  0  0  0  0  0  0  0  0
   42.3630   35.9176   40.1878 H   0  0  0  0  0  0  0  0  0  0  0  0
   42.6849   33.5083   42.1343 H   0  0  0  0  0  0  0  0  0  0  0  0
   41.6939   31.3696   41.4375 H   0  0  0  0  0  0  0  0  0  0  0  0
   40.8335   32.2525   42.6530 H   0  0  0  0  0  0  0  0  0  0  0  0
   39.2735   30.8129   41.0615 H   0  0  0  0  0  0  0  0  0  0  0  0
   38.7743   32.4569   41.0504 H   0  0  0  0  0  0  0  0  0  0  0  0
   39.3767   31.9971   38.6507 H   0  0  0  0  0  0  0  0  0  0  0  0
   40.7628   31.0362   39.0614 H   0  0  0  0  0  0  0  0  0  0  0  0
   41.8629   33.1095   38.8159 H   0  0  0  0  0  0  0  0  0  0  0  0
   40.0010   34.6062   40.1182 H   0  0  0  0  0  0  0  0  0  0  0  0
   41.5020   34.8541   37.2373 H   0  0  0  0  0  0  0  0  0  0  0  0
   40.9635   36.2448   37.6612 H   0  0  0  0  0  0  0  0  0  0  0  0
   38.3951   34.9910   37.8742 H   0  0  0  0  0  0  0  0  0  0  0  0
   38.8983   33.6778   37.2020 H   0  0  0  0  0  0  0  0  0  0  0  0
   44.1758   34.2750   38.0996 H   0  0  0  0  0  0  0  0  0  0  0  0
   43.9014   30.8987   40.7393 H   0  0  0  0  0  0  0  0  0  0  0  0
   44.7359   30.3655   36.6056 H   0  0  0  0  0  0  0  0  0  0  0  0
  1  2  1  0
  1  6  1  0
  2  3  1  0
  4  3  1  0
  5  4  1  0
  6  5  1  0
  7  6  1  0
  7  8  1  0
  9  8  1  0
 10 11  1  0
 10  9  1  0
 11  7  1  0
 12 11  1  0
 13 14  1  0
 13 12  1  0
 14 12  1  0
 15 16  2  0
 16 17  1  0
 16  1  1  0
 18 17  2  0
 19 18  1  0
 20 19  2  0
 20 15  1  0
  2 21  1  0
  2 22  1  0
  3 23  1  0
  3 24  1  0
  4 25  1  0
  5 26  1  0
  5 27  1  0
  6 28  1  1
  8 29  1  0
  8 30  1  0
  9 31  1  0
  9 32  1  0
 10 33  1  0
 10 34  1  0
 11 35  1  6
 12 36  1  0
 13 37  1  0
 13 38  1  0
 14 39  1  0
 14 40  1  0
 15 41  1  0
 17 42  1  0
 19 43  1  0
M  ISO  8  21  13  22  13  23  13  24  13  25   5  26  13  27  13  28  13
M  ISO  8  29  13  30  13  31  13  32  13  33  13  34  13  35  13  36  13
M  ISO  7  37  13  38  13  39  13  40  13  41  14  42  14  43  14
M  END
>  <minimizedAffinity>  (1) 
-4.45446873

>  <minimizedRMSD>  (1) 
5.33212614

$$$$
