
     RDKit          3D

 42 44  0  0  1  0  0  0  0  0999 V2000
   45.7300   33.9910   43.7220 N   0  0  0  0  0  0  0  0  0  0  0  0
   45.2420   33.7310   45.0710 C   0  0  0  0  0  0  0  0  0  0  0  0
   46.3420   33.4250   46.0420 C   0  0  0  0  0  0  0  0  0  0  0  0
   47.2670   32.4930   45.5580 N   0  0  0  0  0  0  0  0  0  0  0  0
   47.5910   32.5190   44.1910 C   0  0  0  0  0  0  0  0  0  0  0  0
   47.1220   33.8460   43.5560 C   0  0  1  0  0  0  0  0  0  0  0  0
   47.8220   34.1310   42.3840 N   0  0  0  0  0  0  0  0  0  0  0  0
   48.1020   35.4700   42.0100 C   0  0  0  0  0  0  0  0  0  0  0  0
   48.7450   35.2450   40.6430 C   0  0  0  0  0  0  0  0  0  0  0  0
   47.6520   34.3450   40.0460 C   0  0  0  0  0  0  0  0  0  0  0  0
   47.3670   33.4250   41.1930 C   0  0  1  0  0  0  0  0  0  0  0  0
   48.2270   32.1670   41.1440 C   0  0  0  0  0  0  0  0  0  0  0  0
   47.4900   30.9480   40.7020 C   0  0  0  0  0  0  0  0  0  0  0  0
   44.0530   33.3300   42.1760 C   0  0  0  0  0  0  0  0  0  0  0  0
   44.7670   34.3490   42.7640 C   0  0  0  0  0  0  0  0  0  0  0  0
   44.4840   35.6560   42.3660 C   0  0  0  0  0  0  0  0  0  0  0  0
   43.5310   35.8760   41.4310 N   0  0  0  0  0  0  0  0  0  0  0  0
   42.8520   34.8500   40.8780 C   0  0  0  0  0  0  0  0  0  0  0  0
   43.1140   33.5740   41.2500 N   0  0  0  0  0  0  0  0  0  0  0  0
   44.6990   34.6198   45.4249 H   0  0  0  0  0  0  0  0  0  0  0  0
   44.5911   32.8456   45.0209 H   0  0  0  0  0  0  0  0  0  0  0  0
   46.8755   34.3595   46.2704 H   0  0  0  0  0  0  0  0  0  0  0  0
   45.8740   32.9846   46.9348 H   0  0  0  0  0  0  0  0  0  0  0  0
   48.1430   32.6340   46.0810 H   0  0  0  0  0  0  0  0  0  0  0  0
   48.6808   32.4257   44.0742 H   0  0  0  0  0  0  0  0  0  0  0  0
   47.0858   31.6820   43.6868 H   0  0  0  0  0  0  0  0  0  0  0  0
   47.4256   34.7670   44.0753 H   0  0  0  0  0  0  0  0  0  0  0  0
   47.1841   36.0713   41.9336 H   0  0  0  0  0  0  0  0  0  0  0  0
   48.7256   36.0262   42.7253 H   0  0  0  0  0  0  0  0  0  0  0  0
   48.8683   36.1819   40.0800 H   0  0  0  0  0  0  0  0  0  0  0  0
   49.7645   34.8319   40.6483 H   0  0  0  0  0  0  0  0  0  0  0  0
   46.7612   34.9261   39.7655 H   0  0  0  0  0  0  0  0  0  0  0  0
   47.9493   33.8306   39.1203 H   0  0  0  0  0  0  0  0  0  0  0  0
   46.3017   33.1517   41.1738 H   0  0  0  0  0  0  0  0  0  0  0  0
   49.0576   32.3423   40.4444 H   0  0  0  0  0  0  0  0  0  0  0  0
   48.5727   31.9764   42.1707 H   0  0  0  0  0  0  0  0  0  0  0  0
   47.1498   30.3853   41.5838 H   0  0  0  0  0  0  0  0  0  0  0  0
   46.6197   31.2445   40.0981 H   0  0  0  0  0  0  0  0  0  0  0  0
   48.1569   30.3151   40.0981 H   0  0  0  0  0  0  0  0  0  0  0  0
   44.2573   32.2906   42.4726 H   0  0  0  0  0  0  0  0  0  0  0  0
   45.0314   36.5011   42.8089 H   0  0  0  0  0  0  0  0  0  0  0  0
   42.0805   35.0507   40.1200 H   0  0  0  0  0  0  0  0  0  0  0  0
  1  2  1  0
  2  3  1  0
  4  3  1  0
  5  4  1  0
  6  1  1  0
  6  5  1  0
  7  8  1  0
  7  6  1  0
  9  8  1  0
 10  9  1  0
 10 11  1  0
 11  7  1  0
 12 11  1  0
 13 12  1  0
 14 15  2  0
 15  1  1  0
 16 15  1  0
 17 16  2  0
 18 19  2  0
 18 17  1  0
 19 14  1  0
  2 20  1  0
  2 21  1  0
  3 22  1  0
  3 23  1  0
  4 24  1  0
  5 25  1  0
  5 26  1  0
  6 27  1  1
  8 28  1  0
  8 29  1  0
  9 30  1  0
  9 31  1  0
 10 32  1  0
 10 33  1  0
 11 34  1  1
 12 35  1  0
 12 36  1  0
 13 37  1  0
 13 38  1  0
 13 39  1  0
 14 40  1  0
 16 41  1  0
 18 42  1  0
M  ISO  8  20  13  21  13  22  13  23  13  24   5  25  13  26  13  27  13
M  ISO  8  28  13  29  13  30  13  31  13  32  13  33  13  34  13  35   8
M  ISO  7  36   8  37   8  38   8  39   8  40  14  41  14  42  14
M  END
>  <minimizedAffinity>  (1) 
-4.42202616

>  <minimizedRMSD>  (1) 
3.1660254

$$$$
