
     RDKit          3D

 39 41  0  0  1  0  0  0  0  0999 V2000
   44.1740   34.6890   41.3440 N   0  0  0  0  0  0  0  0  0  0  0  0
   43.8900   35.6340   42.4190 C   0  0  0  0  0  0  0  0  0  0  0  0
   45.1160   36.0580   43.1710 C   0  0  0  0  0  0  0  0  0  0  0  0
   45.9360   34.9710   43.5430 N   0  0  0  0  0  0  0  0  0  0  0  0
   46.0510   33.8950   42.6460 C   0  0  0  0  0  0  0  0  0  0  0  0
   45.5270   34.2950   41.2510 C   0  0  1  0  0  0  0  0  0  0  0  0
   46.0380   33.4720   40.2520 N   0  0  0  0  0  0  0  0  0  0  0  0
   45.5200   32.1490   40.0500 C   0  0  0  0  0  0  0  0  0  0  0  0
   46.4810   31.6470   38.9790 C   0  0  0  0  0  0  0  0  0  0  0  0
   47.8050   32.0120   39.6420 C   0  0  0  0  0  0  0  0  0  0  0  0
   47.4800   33.3760   40.1970 C   0  0  1  0  0  0  0  0  0  0  0  0
   48.0930   34.4750   39.3460 C   0  0  0  0  0  0  0  0  0  0  0  0
   42.2120   33.3790   41.0830 C   0  0  0  0  0  0  0  0  0  0  0  0
   43.0840   34.2990   40.5520 C   0  0  0  0  0  0  0  0  0  0  0  0
   42.8280   34.7780   39.2690 C   0  0  0  0  0  0  0  0  0  0  0  0
   41.7350   34.3280   38.5890 N   0  0  0  0  0  0  0  0  0  0  0  0
   40.9010   33.4210   39.1530 C   0  0  0  0  0  0  0  0  0  0  0  0
   41.1420   32.9490   40.3980 N   0  0  0  0  0  0  0  0  0  0  0  0
   43.4201   36.5282   41.9835 H   0  0  0  0  0  0  0  0  0  0  0  0
   43.2267   35.1260   43.1345 H   0  0  0  0  0  0  0  0  0  0  0  0
   45.7013   36.7371   42.5336 H   0  0  0  0  0  0  0  0  0  0  0  0
   44.7818   36.5508   44.0959 H   0  0  0  0  0  0  0  0  0  0  0  0
   46.8840   35.3419   43.6998 H   0  0  0  0  0  0  0  0  0  0  0  0
   47.1084   33.6027   42.5652 H   0  0  0  0  0  0  0  0  0  0  0  0
   45.4520   33.0528   43.0226 H   0  0  0  0  0  0  0  0  0  0  0  0
   45.9373   35.2288   40.8392 H   0  0  0  0  0  0  0  0  0  0  0  0
   45.5785   31.5437   40.9666 H   0  0  0  0  0  0  0  0  0  0  0  0
   44.4561   32.1060   39.7737 H   0  0  0  0  0  0  0  0  0  0  0  0
   46.3416   32.1728   38.0229 H   0  0  0  0  0  0  0  0  0  0  0  0
   46.3687   30.5870   38.7073 H   0  0  0  0  0  0  0  0  0  0  0  0
   48.0664   31.3023   40.4407 H   0  0  0  0  0  0  0  0  0  0  0  0
   48.6725   31.9915   38.9659 H   0  0  0  0  0  0  0  0  0  0  0  0
   47.9070   33.5055   41.2024 H   0  0  0  0  0  0  0  0  0  0  0  0
   48.5240   35.2476   39.9997 H   0  0  0  0  0  0  0  0  0  0  0  0
   48.8838   34.0491   38.7111 H   0  0  0  0  0  0  0  0  0  0  0  0
   47.3151   34.9241   38.7111 H   0  0  0  0  0  0  0  0  0  0  0  0
   42.3959   32.9860   42.0938 H   0  0  0  0  0  0  0  0  0  0  0  0
   43.5029   35.5141   38.8078 H   0  0  0  0  0  0  0  0  0  0  0  0
   40.0221   33.0660   38.5949 H   0  0  0  0  0  0  0  0  0  0  0  0
  1  2  1  0
  2  3  1  0
  3  4  1  0
  5  4  1  0
  6  1  1  0
  6  5  1  0
  7  8  1  0
  7  6  1  0
  9 10  1  0
  9  8  1  0
 10 11  1  0
 11  7  1  0
 12 11  1  0
 14 13  2  0
 14  1  1  0
 15 14  1  0
 16 17  1  0
 16 15  2  0
 17 18  2  0
 18 13  1  0
  2 19  1  0
  2 20  1  0
  3 21  1  0
  3 22  1  0
  4 23  1  0
  5 24  1  0
  5 25  1  0
  6 26  1  6
  8 27  1  0
  8 28  1  0
  9 29  1  0
  9 30  1  0
 10 31  1  0
 10 32  1  0
 11 33  1  1
 12 34  1  0
 12 35  1  0
 12 36  1  0
 13 37  1  0
 15 38  1  0
 17 39  1  0
M  ISO  8  19  13  20  13  21  13  22  13  23   5  24  13  25  13  26  13
M  ISO  8  27  13  28  13  29  13  30  13  31  13  32  13  33  13  34   8
M  ISO  5  35   8  36   8  37  14  38  14  39  14
M  END
>  <minimizedAffinity>  (1) 
-3.94311786

>  <minimizedRMSD>  (1) 
0.608244121

$$$$
