
     RDKit          3D

 24 25  0  0  1  0  0  0  0  0999 V2000
   46.3070   34.1670   43.9510 C   0  0  0  0  0  0  0  0  0  0  0  0
   45.7420   34.0290   45.2360 C   0  0  0  0  0  0  0  0  0  0  0  0
   44.7630   34.9710   45.6200 C   0  0  0  0  0  0  0  0  0  0  0  0
   44.4310   35.9380   44.7380 N   0  0  0  0  0  0  0  0  0  0  0  0
   44.9890   36.0400   43.5240 C   0  0  0  0  0  0  0  0  0  0  0  0
   45.9220   35.1570   43.1320 N   0  0  0  0  0  0  0  0  0  0  0  0
   47.5350   32.9300   43.5510 S   0  0  0  0  0  0  0  0  0  0  0  0
   48.9830   35.5120   40.2210 N   0  0  0  0  0  0  0  0  0  0  0  0
   47.9960   34.5230   39.9080 C   0  0  0  0  0  0  0  0  0  0  0  0
   47.6510   33.5440   40.9520 C   0  0  0  0  0  0  0  0  0  0  0  0
   48.5480   33.4780   42.1320 C   0  0  1  0  0  0  0  0  0  0  0  0
   49.2130   34.7480   42.5370 C   0  0  0  0  0  0  0  0  0  0  0  0
   49.0220   35.8950   41.5940 C   0  0  0  0  0  0  0  0  0  0  0  0
   46.0521   33.2190   45.9126 H   0  0  0  0  0  0  0  0  0  0  0  0
   44.2845   34.9187   46.6091 H   0  0  0  0  0  0  0  0  0  0  0  0
   44.6818   36.8499   42.8460 H   0  0  0  0  0  0  0  0  0  0  0  0
   49.6133   35.9139   39.5124 H   0  0  0  0  0  0  0  0  0  0  0  0
   47.5118   34.4956   38.9207 H   0  0  0  0  0  0  0  0  0  0  0  0
   46.7696   32.8921   40.8615 H   0  0  0  0  0  0  0  0  0  0  0  0
   49.3614   32.7962   41.8431 H   0  0  0  0  0  0  0  0  0  0  0  0
   48.8134   35.0437   43.5183 H   0  0  0  0  0  0  0  0  0  0  0  0
   50.2927   34.5378   42.5482 H   0  0  0  0  0  0  0  0  0  0  0  0
   49.8542   36.6007   41.7335 H   0  0  0  0  0  0  0  0  0  0  0  0
   48.0453   36.3432   41.8290 H   0  0  0  0  0  0  0  0  0  0  0  0
  1  2  2  0
  2  3  1  0
  4  3  2  0
  5  4  1  0
  6  5  2  0
  6  1  1  0
  7  1  1  0
  8 13  1  0
  9  8  1  0
  9 10  2  0
 10 11  1  0
 11 12  1  0
 11  7  1  0
 13 12  1  0
  2 14  1  0
  3 15  1  0
  5 16  1  0
  8 17  1  0
  9 18  1  0
 10 19  1  0
 11 20  1  6
 12 21  1  0
 12 22  1  0
 13 23  1  0
 13 24  1  0
M  ISO  8  14  14  15  14  16  14  18  13  19  13  20  13  21  13  22  13
M  ISO  2  23  13  24  13
M  END
>  <minimizedAffinity>  (1) 
-4.72644424

>  <minimizedRMSD>  (1) 
4.52193308

$$$$
