
     RDKit          3D

 21 22  0  0  0  0  0  0  0  0999 V2000
   45.0220   35.9870   43.0010 S   0  0  0  0  0  0  0  0  0  0  0  0
   45.5740   34.7530   44.1860 C   0  0  0  0  0  0  0  0  0  0  0  0
   46.6140   33.9360   43.7510 C   0  0  0  0  0  0  0  0  0  0  0  0
   47.0820   32.9570   44.6390 C   0  0  0  0  0  0  0  0  0  0  0  0
   46.5040   32.8590   45.8570 N   0  0  0  0  0  0  0  0  0  0  0  0
   45.5020   33.6590   46.2510 C   0  0  0  0  0  0  0  0  0  0  0  0
   45.0300   34.6100   45.4210 N   0  0  0  0  0  0  0  0  0  0  0  0
   45.8610   34.3690   40.5850 F   0  0  0  0  0  0  0  0  0  0  0  0
   44.5210   34.4730   40.6620 C   0  0  0  0  0  0  0  0  0  0  0  0
   44.0380   35.1970   41.7360 C   0  0  0  0  0  0  0  0  0  0  0  0
   42.6850   35.3700   41.9180 C   0  0  0  0  0  0  0  0  0  0  0  0
   41.7580   34.8250   41.0310 C   0  0  0  0  0  0  0  0  0  0  0  0
   42.2410   34.0990   39.9530 C   0  0  0  0  0  0  0  0  0  0  0  0
   43.6130   33.9350   39.7860 C   0  0  0  0  0  0  0  0  0  0  0  0
   47.0519   34.0540   42.7488 H   0  0  0  0  0  0  0  0  0  0  0  0
   47.9021   32.2830   44.3506 H   0  0  0  0  0  0  0  0  0  0  0  0
   45.0649   33.5386   47.2532 H   0  0  0  0  0  0  0  0  0  0  0  0
   42.3276   35.9504   42.7813 H   0  0  0  0  0  0  0  0  0  0  0  0
   40.6776   34.9664   41.1815 H   0  0  0  0  0  0  0  0  0  0  0  0
   41.5410   33.6534   39.2309 H   0  0  0  0  0  0  0  0  0  0  0  0
   43.9802   33.3565   38.9255 H   0  0  0  0  0  0  0  0  0  0  0  0
  1  2  1  0
  2  7  1  0
  3  2  2  0
  3  4  1  0
  4  5  2  0
  5  6  1  0
  7  6  2  0
  8  9  1  0
  9 10  2  0
 10 11  1  0
 10  1  1  0
 12 11  2  0
 13 12  1  0
 14 13  2  0
 14  9  1  0
  3 15  1  0
  4 16  1  0
  6 17  1  0
 11 18  1  0
 12 19  1  0
 13 20  1  0
 14 21  1  0
M  ISO  7  15  14  16  14  17  14  18  14  19  14  20  14  21  14
M  END
>  <minimizedAffinity>  (1) 
-4.00007725

>  <minimizedRMSD>  (1) 
0.716633439

$$$$
