
     RDKit          3D

 18 19  0  0  0  0  0  0  0  0999 V2000
   45.4690   34.6120   43.9660 C   0  0  0  0  0  0  0  0  0  0  0  0
   46.5290   33.8760   43.4330 C   0  0  0  0  0  0  0  0  0  0  0  0
   47.2020   32.9810   44.2860 C   0  0  0  0  0  0  0  0  0  0  0  0
   46.7770   32.8900   45.5730 N   0  0  0  0  0  0  0  0  0  0  0  0
   45.7490   33.6170   46.0500 C   0  0  0  0  0  0  0  0  0  0  0  0
   45.0800   34.4860   45.2610 N   0  0  0  0  0  0  0  0  0  0  0  0
   44.6880   35.7180   42.7840 S   0  0  0  0  0  0  0  0  0  0  0  0
   43.5400   34.7350   41.7570 C   0  0  0  0  0  0  0  0  0  0  0  0
   43.1570   35.1840   40.4100 C   0  0  0  0  0  0  0  0  0  0  0  0
   42.1940   35.3280   41.5540 C   0  0  0  0  0  0  0  0  0  0  0  0
   46.8284   33.9917   42.3809 H   0  0  0  0  0  0  0  0  0  0  0  0
   48.0448   32.3749   43.9222 H   0  0  0  0  0  0  0  0  0  0  0  0
   45.4482   33.5012   47.1017 H   0  0  0  0  0  0  0  0  0  0  0  0
   43.9514   33.7861   42.1316 H   0  0  0  0  0  0  0  0  0  0  0  0
   42.9640   34.4455   39.6180 H   0  0  0  0  0  0  0  0  0  0  0  0
   43.5893   35.8689   39.6656 H   0  0  0  0  0  0  0  0  0  0  0  0
   41.9619   36.3240   41.9592 H   0  0  0  0  0  0  0  0  0  0  0  0
   41.1597   35.0106   41.7525 H   0  0  0  0  0  0  0  0  0  0  0  0
  1  6  1  0
  2  1  2  0
  2  3  1  0
  3  4  2  0
  4  5  1  0
  6  5  2  0
  7  1  1  0
  8  7  1  0
  9 10  1  0
  9  8  1  0
 10  8  1  0
  2 11  1  0
  3 12  1  0
  5 13  1  0
  8 14  1  0
  9 15  1  0
  9 16  1  0
 10 17  1  0
 10 18  1  0
M  ISO  8  11  14  12  14  13  14  14  13  15  13  16  13  17  13  18  13
M  END
>  <minimizedAffinity>  (1) 
-3.08508658

>  <minimizedRMSD>  (1) 
0.443730175

$$$$
