
     RDKit          3D

 17 17  0  0  0  0  0  0  0  0999 V2000
   45.6070   34.6370   44.1320 C   0  0  0  0  0  0  0  0  0  0  0  0
   46.6500   33.9110   43.5280 C   0  0  0  0  0  0  0  0  0  0  0  0
   47.2610   32.9090   44.2910 C   0  0  0  0  0  0  0  0  0  0  0  0
   46.8200   32.6910   45.5620 N   0  0  0  0  0  0  0  0  0  0  0  0
   45.8130   33.4110   46.1100 C   0  0  0  0  0  0  0  0  0  0  0  0
   45.2100   34.3770   45.3990 N   0  0  0  0  0  0  0  0  0  0  0  0
   44.8690   35.9070   43.0950 S   0  0  0  0  0  0  0  0  0  0  0  0
   44.1240   35.2710   41.6080 C   0  0  0  0  0  0  0  0  0  0  0  0
   42.6320   35.2660   41.5770 C   0  0  0  0  0  0  0  0  0  0  0  0
   46.9723   34.1223   42.4977 H   0  0  0  0  0  0  0  0  0  0  0  0
   48.0821   32.3085   43.8724 H   0  0  0  0  0  0  0  0  0  0  0  0
   45.4881   33.2040   47.1403 H   0  0  0  0  0  0  0  0  0  0  0  0
   44.4765   35.8842   40.7656 H   0  0  0  0  0  0  0  0  0  0  0  0
   44.4264   34.2149   41.5518 H   0  0  0  0  0  0  0  0  0  0  0  0
   42.2439   35.2647   42.6063 H   0  0  0  0  0  0  0  0  0  0  0  0
   42.2732   36.1629   41.0509 H   0  0  0  0  0  0  0  0  0  0  0  0
   42.2792   34.3667   41.0509 H   0  0  0  0  0  0  0  0  0  0  0  0
  1  6  2  0
  2  1  1  0
  2  3  2  0
  3  4  1  0
  4  5  2  0
  6  5  1  0
  7  1  1  0
  8  7  1  0
  9  8  1  0
  2 10  1  0
  3 11  1  0
  5 12  1  0
  8 13  1  0
  8 14  1  0
  9 15  1  0
  9 16  1  0
  9 17  1  0
M  ISO  8  10  14  11  14  12  14  13   8  14   8  15   8  16   8  17   8
M  END
>  <minimizedAffinity>  (1) 
-2.82955194

>  <minimizedRMSD>  (1) 
0.493093044

$$$$
