
     RDKit          3D

 30 31  0  0  1  0  0  0  0  0999 V2000
   46.4390   33.5630   42.0880 C   0  0  1  0  0  0  0  0  0  0  0  0
   46.0170   34.3210   40.8440 C   0  0  0  0  0  0  0  0  0  0  0  0
   46.5150   33.4960   39.6730 C   0  0  0  0  0  0  0  0  0  0  0  0
   48.0110   33.6330   39.6670 C   0  0  0  0  0  0  0  0  0  0  0  0
   48.6740   33.3530   40.9380 C   0  0  0  0  0  0  0  0  0  0  0  0
   47.9320   33.6170   42.2200 C   0  0  1  0  0  0  0  0  0  0  0  0
   44.5690   35.8140   44.5440 C   0  0  0  0  0  0  0  0  0  0  0  0
   45.0960   35.3290   43.3540 C   0  0  0  0  0  0  0  0  0  0  0  0
   45.8260   34.1390   43.2970 C   0  0  0  0  0  0  0  0  0  0  0  0
   45.9680   33.5210   44.4800 N   0  0  0  0  0  0  0  0  0  0  0  0
   45.4840   33.9510   45.6320 C   0  0  0  0  0  0  0  0  0  0  0  0
   44.7710   35.1110   45.6820 N   0  0  0  0  0  0  0  0  0  0  0  0
   48.3100   34.8480   42.7070 O   0  0  0  0  0  0  0  0  0  0  0  0
   49.6660   35.0660   42.5820 C   0  0  0  0  0  0  0  0  0  0  0  0
   46.1006   32.5211   41.9884 H   0  0  0  0  0  0  0  0  0  0  0  0
   44.9219   34.4180   40.8068 H   0  0  0  0  0  0  0  0  0  0  0  0
   46.4316   35.3398   40.8288 H   0  0  0  0  0  0  0  0  0  0  0  0
   46.2296   32.4414   39.8012 H   0  0  0  0  0  0  0  0  0  0  0  0
   46.0779   33.8426   38.7250 H   0  0  0  0  0  0  0  0  0  0  0  0
   48.4119   32.9371   38.9153 H   0  0  0  0  0  0  0  0  0  0  0  0
   48.2161   34.6910   39.4465 H   0  0  0  0  0  0  0  0  0  0  0  0
   48.9417   32.2861   40.9340 H   0  0  0  0  0  0  0  0  0  0  0  0
   49.5092   34.0684   40.9638 H   0  0  0  0  0  0  0  0  0  0  0  0
   48.2019   32.8080   42.9148 H   0  0  0  0  0  0  0  0  0  0  0  0
   43.9972   36.7536   44.5608 H   0  0  0  0  0  0  0  0  0  0  0  0
   44.9336   35.8995   42.4276 H   0  0  0  0  0  0  0  0  0  0  0  0
   45.6569   33.3720   46.5512 H   0  0  0  0  0  0  0  0  0  0  0  0
   50.1193   35.1389   43.5816 H   0  0  0  0  0  0  0  0  0  0  0  0
   50.1227   34.2297   42.0324 H   0  0  0  0  0  0  0  0  0  0  0  0
   49.8376   36.0033   42.0324 H   0  0  0  0  0  0  0  0  0  0  0  0
  1  6  1  0
  1  9  1  0
  2  1  1  0
  3  2  1  0
  4  3  1  0
  4  5  1  0
  5  6  1  0
  6 13  1  0
  7 12  2  0
  8  7  1  0
  9  8  2  0
  9 10  1  0
 10 11  2  0
 11 12  1  0
 14 13  1  0
  1 15  1  6
  2 16  1  0
  2 17  1  0
  3 18  1  0
  3 19  1  0
  4 20  1  0
  4 21  1  0
  5 22  1  0
  5 23  1  0
  6 24  1  1
  7 25  1  0
  8 26  1  0
 11 27  1  0
 14 28  1  0
 14 29  1  0
 14 30  1  0
M  ISO  8  15  13  16  13  17  13  18  13  19  13  20  13  21  13  22  13
M  ISO  8  23  13  24  13  25  14  26  14  27  14  28   8  29   8  30   8
M  END
>  <minimizedAffinity>  (1) 
-4.21562719

>  <minimizedRMSD>  (1) 
0.970795691

$$$$
