
     RDKit          3D

 23 23  0  0  0  0  0  0  0  0999 V2000
   44.3510   35.0170   41.3670 C   0  0  0  0  0  0  0  0  0  0  0  0
   42.9660   35.2930   40.8950 C   0  0  0  0  0  0  0  0  0  0  0  0
   42.0270   35.4740   41.8760 O   0  0  0  0  0  0  0  0  0  0  0  0
   39.8260   35.7280   40.5490 O   0  0  0  0  0  0  0  0  0  0  0  0
   40.6280   34.6890   41.2820 P   0  0  0  0  0  0  0  0  0  0  0  0
   41.2090   33.5410   40.1580 O   0  0  0  0  0  0  0  0  0  0  0  0
   39.7880   33.8870   42.4820 O   0  0  0  0  0  0  0  0  0  0  0  0
   44.8340   35.8240   42.8770 S   0  0  0  0  0  0  0  0  0  0  0  0
   45.5120   34.6760   44.0940 C   0  0  0  0  0  0  0  0  0  0  0  0
   46.5750   33.8840   43.6560 C   0  0  0  0  0  0  0  0  0  0  0  0
   47.1340   32.9820   44.5550 C   0  0  0  0  0  0  0  0  0  0  0  0
   46.6110   32.9250   45.8090 N   0  0  0  0  0  0  0  0  0  0  0  0
   45.5800   33.7030   46.2060 C   0  0  0  0  0  0  0  0  0  0  0  0
   45.0310   34.5780   45.3470 N   0  0  0  0  0  0  0  0  0  0  0  0
   45.0461   35.3370   40.5768 H   0  0  0  0  0  0  0  0  0  0  0  0
   44.3819   33.9389   41.5832 H   0  0  0  0  0  0  0  0  0  0  0  0
   42.9940   36.2059   40.2819 H   0  0  0  0  0  0  0  0  0  0  0  0
   42.6532   34.3937   40.3442 H   0  0  0  0  0  0  0  0  0  0  0  0
   41.5985   32.7714   40.6438 H   0  0  0  0  0  0  0  0  0  0  0  0
   40.1071   34.1917   43.3682 H   0  0  0  0  0  0  0  0  0  0  0  0
   46.9595   33.9709   42.6291 H   0  0  0  0  0  0  0  0  0  0  0  0
   47.9733   32.3347   44.2608 H   0  0  0  0  0  0  0  0  0  0  0  0
   45.1906   33.6200   47.2314 H   0  0  0  0  0  0  0  0  0  0  0  0
  1  8  1  0
  2  1  1  0
  2  3  1  0
  4  5  2  0
  5  3  1  0
  5  7  1  0
  6  5  1  0
  8  9  1  0
  9 14  2  0
 10  9  1  0
 10 11  2  0
 11 12  1  0
 12 13  2  0
 14 13  1  0
  1 15  1  0
  1 16  1  0
  2 17  1  0
  2 18  1  0
  6 19  1  0
  7 20  1  0
 10 21  1  0
 11 22  1  0
 13 23  1  0
M  ISO  8  15   8  16   8  17   8  18   8  19   3  20   3  21  14  22  14
M  ISO  1  23  14
M  END
>  <minimizedAffinity>  (1) 
-4.09417582

>  <minimizedRMSD>  (1) 
1.1854105

$$$$
