
     RDKit          3D

 27 28  0  0  0  0  0  0  0  0999 V2000
   42.2860   34.7110   41.2820 C   0  0  0  0  0  0  0  0  0  0  0  0
   41.2300   35.6880   40.8410 C   0  0  0  0  0  0  0  0  0  0  0  0
   42.0110   36.0260   37.9060 Cl  0  0  0  0  0  0  0  0  0  0  0  0
   40.6030   35.1790   38.4530 C   0  0  0  0  0  0  0  0  0  0  0  0
   40.3360   35.0830   39.8250 C   0  0  0  0  0  0  0  0  0  0  0  0
   39.1940   34.3920   40.1680 C   0  0  0  0  0  0  0  0  0  0  0  0
   38.2850   33.7860   39.3290 C   0  0  0  0  0  0  0  0  0  0  0  0
   38.5810   33.9010   37.9720 C   0  0  0  0  0  0  0  0  0  0  0  0
   37.4870   33.1640   36.7940 Cl  0  0  0  0  0  0  0  0  0  0  0  0
   39.7180   34.5840   37.5530 C   0  0  0  0  0  0  0  0  0  0  0  0
   43.8500   35.4820   41.6950 S   0  0  0  0  0  0  0  0  0  0  0  0
   44.4440   35.0120   43.3260 C   0  0  0  0  0  0  0  0  0  0  0  0
   45.1850   33.8150   43.3760 C   0  0  0  0  0  0  0  0  0  0  0  0
   45.6640   33.4170   44.6310 C   0  0  0  0  0  0  0  0  0  0  0  0
   45.3930   34.1890   45.7050 N   0  0  0  0  0  0  0  0  0  0  0  0
   44.6780   35.3370   45.6370 C   0  0  0  0  0  0  0  0  0  0  0  0
   44.2150   35.7260   44.4390 N   0  0  0  0  0  0  0  0  0  0  0  0
   42.4571   33.9926   40.4668 H   0  0  0  0  0  0  0  0  0  0  0  0
   41.9144   34.2257   42.1966 H   0  0  0  0  0  0  0  0  0  0  0  0
   40.6313   35.9884   41.7135 H   0  0  0  0  0  0  0  0  0  0  0  0
   41.7265   36.5620   40.3943 H   0  0  0  0  0  0  0  0  0  0  0  0
   38.9822   34.3149   41.2447 H   0  0  0  0  0  0  0  0  0  0  0  0
   37.3967   33.2540   39.7003 H   0  0  0  0  0  0  0  0  0  0  0  0
   39.9266   34.6576   36.4755 H   0  0  0  0  0  0  0  0  0  0  0  0
   45.3787   33.2201   42.4712 H   0  0  0  0  0  0  0  0  0  0  0  0
   46.2501   32.4925   44.7393 H   0  0  0  0  0  0  0  0  0  0  0  0
   44.4820   35.9346   46.5395 H   0  0  0  0  0  0  0  0  0  0  0  0
  1 11  1  0
  2  1  1  0
  3  4  1  0
  4  5  2  0
  5  6  1  0
  5  2  1  0
  7  6  2  0
  8  7  1  0
  9  8  1  0
 10  8  2  0
 10  4  1  0
 11 12  1  0
 12 13  2  0
 12 17  1  0
 13 14  1  0
 14 15  2  0
 16 15  1  0
 17 16  2  0
  1 18  1  0
  1 19  1  0
  2 20  1  0
  2 21  1  0
  6 22  1  0
  7 23  1  0
 10 24  1  0
 13 25  1  0
 14 26  1  0
 16 27  1  0
M  ISO  8  18   8  19   8  20   8  21   8  22  14  23  14  24  14  25  14
M  ISO  2  26  14  27  14
M  END
>  <minimizedAffinity>  (1) 
-5.5726738

>  <minimizedRMSD>  (1) 
2.07601309

$$$$
