
     RDKit          3D

 29 30  0  0  0  0  0  0  0  0999 V2000
   41.9010   35.2290   41.5300 C   0  0  0  0  0  0  0  0  0  0  0  0
   40.9670   36.0920   40.7430 C   0  0  0  0  0  0  0  0  0  0  0  0
   41.7710   36.2850   37.8100 Cl  0  0  0  0  0  0  0  0  0  0  0  0
   40.4650   35.3060   38.4070 C   0  0  0  0  0  0  0  0  0  0  0  0
   40.1790   35.2900   39.7810 C   0  0  0  0  0  0  0  0  0  0  0  0
   39.1300   34.4880   40.1660 C   0  0  0  0  0  0  0  0  0  0  0  0
   38.3340   33.7020   39.3450 C   0  0  0  0  0  0  0  0  0  0  0  0
   38.6410   33.7400   37.9950 C   0  0  0  0  0  0  0  0  0  0  0  0
   37.6920   32.7770   36.8660 Cl  0  0  0  0  0  0  0  0  0  0  0  0
   39.6860   34.5270   37.5490 C   0  0  0  0  0  0  0  0  0  0  0  0
   43.5210   35.0650   40.7800 S   0  0  0  0  0  0  0  0  0  0  0  0
   44.8060   34.7160   41.9830 C   0  0  0  0  0  0  0  0  0  0  0  0
   46.1030   34.5480   41.4820 C   0  0  0  0  0  0  0  0  0  0  0  0
   47.1350   34.2740   42.3820 C   0  0  0  0  0  0  0  0  0  0  0  0
   46.8220   34.1860   43.7030 N   0  0  0  0  0  0  0  0  0  0  0  0
   45.5710   34.3510   44.1640 C   0  0  0  0  0  0  0  0  0  0  0  0
   44.5840   34.6120   43.3030 N   0  0  0  0  0  0  0  0  0  0  0  0
   45.3490   34.2360   45.6000 C   0  0  0  0  0  0  0  0  0  0  0  0
   44.5390   35.0510   46.1270 O   0  0  0  0  0  0  0  0  0  0  0  0
   42.0229   35.6692   42.5307 H   0  0  0  0  0  0  0  0  0  0  0  0
   41.4581   34.2229   41.5697 H   0  0  0  0  0  0  0  0  0  0  0  0
   40.2790   36.5999   41.4349 H   0  0  0  0  0  0  0  0  0  0  0  0
   41.5623   36.8255   40.1794 H   0  0  0  0  0  0  0  0  0  0  0  0
   38.8969   34.4675   41.2408 H   0  0  0  0  0  0  0  0  0  0  0  0
   37.5117   33.0880   39.7411 H   0  0  0  0  0  0  0  0  0  0  0  0
   39.9136   34.5402   36.4729 H   0  0  0  0  0  0  0  0  0  0  0  0
   46.3043   34.6300   40.4037 H   0  0  0  0  0  0  0  0  0  0  0  0
   48.1689   34.1337   42.0336 H   0  0  0  0  0  0  0  0  0  0  0  0
   45.8648   33.4719   46.2001 H   0  0  0  0  0  0  0  0  0  0  0  0
  2  1  1  0
  3  4  1  0
  4  5  2  0
  5  6  1  0
  5  2  1  0
  7  6  2  0
  8  7  1  0
  9  8  1  0
 10  8  2  0
 10  4  1  0
 11  1  1  0
 11 12  1  0
 12 17  1  0
 13 12  2  0
 13 14  1  0
 14 15  2  0
 15 16  1  0
 16 18  1  0
 17 16  2  0
 18 19  2  0
  1 20  1  0
  1 21  1  0
  2 22  1  0
  2 23  1  0
  6 24  1  0
  7 25  1  0
 10 26  1  0
 13 27  1  0
 14 28  1  0
 18 29  1  0
M  ISO  8  20   8  21   8  22   8  23   8  24  14  25  14  26  14  27  14
M  ISO  2  28  14  29   6
M  END
>  <minimizedAffinity>  (1) 
-5.75793266

>  <minimizedRMSD>  (1) 
1.45701051

$$$$
