
     RDKit          3D

 33 34  0  0  0  0  0  0  0  0999 V2000
   42.1580   34.9080   41.5010 C   0  0  0  0  0  0  0  0  0  0  0  0
   41.1000   35.8420   40.9570 C   0  0  0  0  0  0  0  0  0  0  0  0
   42.0010   36.1140   38.0590 Cl  0  0  0  0  0  0  0  0  0  0  0  0
   40.6150   35.2250   38.5670 C   0  0  0  0  0  0  0  0  0  0  0  0
   40.2740   35.1530   39.9280 C   0  0  0  0  0  0  0  0  0  0  0  0
   39.1560   34.4240   40.2440 C   0  0  0  0  0  0  0  0  0  0  0  0
   38.3190   33.7500   39.3800 C   0  0  0  0  0  0  0  0  0  0  0  0
   38.6760   33.8360   38.0450 C   0  0  0  0  0  0  0  0  0  0  0  0
   37.6830   33.0100   36.8230 Cl  0  0  0  0  0  0  0  0  0  0  0  0
   39.7900   34.5520   37.6540 C   0  0  0  0  0  0  0  0  0  0  0  0
   43.8240   35.4500   41.1230 S   0  0  0  0  0  0  0  0  0  0  0  0
   45.0410   34.8290   42.3090 C   0  0  0  0  0  0  0  0  0  0  0  0
   46.3180   34.5560   41.7580 C   0  0  0  0  0  0  0  0  0  0  0  0
   47.2790   34.0730   42.6550 C   0  0  0  0  0  0  0  0  0  0  0  0
   46.9500   33.8980   43.9550 N   0  0  0  0  0  0  0  0  0  0  0  0
   45.7250   34.1690   44.4430 C   0  0  0  0  0  0  0  0  0  0  0  0
   44.7900   34.6300   43.6070 N   0  0  0  0  0  0  0  0  0  0  0  0
   45.3390   33.9850   45.8650 C   0  0  0  0  0  0  0  0  0  0  0  0
   46.0980   32.9040   46.5600 C   0  0  0  0  0  0  0  0  0  0  0  0
   42.0469   34.8496   42.5938 H   0  0  0  0  0  0  0  0  0  0  0  0
   42.0121   33.9281   41.0229 H   0  0  0  0  0  0  0  0  0  0  0  0
   40.4503   36.1719   41.7810 H   0  0  0  0  0  0  0  0  0  0  0  0
   41.5950   36.7082   40.4936 H   0  0  0  0  0  0  0  0  0  0  0  0
   38.8967   34.3708   41.3117 H   0  0  0  0  0  0  0  0  0  0  0  0
   37.4378   33.1887   39.7240 H   0  0  0  0  0  0  0  0  0  0  0  0
   40.0404   34.5963   36.5838 H   0  0  0  0  0  0  0  0  0  0  0  0
   46.5404   34.7137   40.6923 H   0  0  0  0  0  0  0  0  0  0  0  0
   48.2947   33.8375   42.3044 H   0  0  0  0  0  0  0  0  0  0  0  0
   45.5164   34.9309   46.3977 H   0  0  0  0  0  0  0  0  0  0  0  0
   44.2795   33.6892   45.8738 H   0  0  0  0  0  0  0  0  0  0  0  0
   46.0070   33.0337   47.6485 H   0  0  0  0  0  0  0  0  0  0  0  0
   45.6882   31.9247   46.2718 H   0  0  0  0  0  0  0  0  0  0  0  0
   47.1583   32.9569   46.2718 H   0  0  0  0  0  0  0  0  0  0  0  0
  2  1  1  0
  3  4  1  0
  4  5  2  0
  5  6  1  0
  5  2  1  0
  7  6  2  0
  8  7  1  0
  9  8  1  0
 10  8  2  0
 10  4  1  0
 11  1  1  0
 11 12  1  0
 12 17  1  0
 13 12  2  0
 13 14  1  0
 14 15  2  0
 15 16  1  0
 16 18  1  0
 17 16  2  0
 18 19  1  0
  1 20  1  0
  1 21  1  0
  2 22  1  0
  2 23  1  0
  6 24  1  0
  7 25  1  0
 10 26  1  0
 13 27  1  0
 14 28  1  0
 18 29  1  0
 18 30  1  0
 19 31  1  0
 19 32  1  0
 19 33  1  0
M  ISO  8  20   8  21   8  22   8  23   8  24  14  25  14  26  14  27  14
M  ISO  6  28  14  29   8  30   8  31   8  32   8  33   8
M  END
>  <minimizedAffinity>  (1) 
-5.64803743

>  <minimizedRMSD>  (1) 
1.66597128

$$$$
