
     RDKit          3D

 34 36  0  0  0  0  0  0  0  0999 V2000
   42.1930   34.8890   41.4080 C   0  0  0  0  0  0  0  0  0  0  0  0
   41.1100   35.8030   40.9250 C   0  0  0  0  0  0  0  0  0  0  0  0
   42.0460   36.0480   38.0360 Cl  0  0  0  0  0  0  0  0  0  0  0  0
   40.6200   35.1860   38.5290 C   0  0  0  0  0  0  0  0  0  0  0  0
   40.2770   35.1340   39.8950 C   0  0  0  0  0  0  0  0  0  0  0  0
   39.1370   34.4340   40.1910 C   0  0  0  0  0  0  0  0  0  0  0  0
   38.2920   33.7770   39.3190 C   0  0  0  0  0  0  0  0  0  0  0  0
   38.6590   33.8460   37.9770 C   0  0  0  0  0  0  0  0  0  0  0  0
   37.6470   33.0420   36.7830 Cl  0  0  0  0  0  0  0  0  0  0  0  0
   39.8090   34.5430   37.5980 C   0  0  0  0  0  0  0  0  0  0  0  0
   43.7620   35.7280   41.6800 S   0  0  0  0  0  0  0  0  0  0  0  0
   45.1050   34.5710   41.9960 C   0  0  0  0  0  0  0  0  0  0  0  0
   45.7070   34.0250   40.8430 C   0  0  0  0  0  0  0  0  0  0  0  0
   46.7520   33.1230   41.0520 C   0  0  0  0  0  0  0  0  0  0  0  0
   47.1310   32.8230   42.3030 N   0  0  0  0  0  0  0  0  0  0  0  0
   46.5410   33.3600   43.4020 C   0  0  0  0  0  0  0  0  0  0  0  0
   45.5410   34.2220   43.2070 N   0  0  0  0  0  0  0  0  0  0  0  0
   46.9850   33.0060   44.7850 C   0  0  0  0  0  0  0  0  0  0  0  0
   46.1690   33.2890   45.9650 C   0  0  0  0  0  0  0  0  0  0  0  0
   46.1290   31.8940   45.3950 C   0  0  0  0  0  0  0  0  0  0  0  0
   42.3445   34.0995   40.6572 H   0  0  0  0  0  0  0  0  0  0  0  0
   41.8684   34.4818   42.3769 H   0  0  0  0  0  0  0  0  0  0  0  0
   40.4727   36.0880   41.7751 H   0  0  0  0  0  0  0  0  0  0  0  0
   41.5740   36.6949   40.4788 H   0  0  0  0  0  0  0  0  0  0  0  0
   38.8609   34.3900   41.2549 H   0  0  0  0  0  0  0  0  0  0  0  0
   37.3950   33.2387   39.6589 H   0  0  0  0  0  0  0  0  0  0  0  0
   40.0815   34.5849   36.5331 H   0  0  0  0  0  0  0  0  0  0  0  0
   45.3705   34.2959   39.8314 H   0  0  0  0  0  0  0  0  0  0  0  0
   47.2623   32.6604   40.1943 H   0  0  0  0  0  0  0  0  0  0  0  0
   48.0419   33.2275   44.5754 H   0  0  0  0  0  0  0  0  0  0  0  0
   46.6572   33.4671   46.9345 H   0  0  0  0  0  0  0  0  0  0  0  0
   45.4025   34.0410   46.2037 H   0  0  0  0  0  0  0  0  0  0  0  0
   45.2316   31.5319   44.8720 H   0  0  0  0  0  0  0  0  0  0  0  0
   46.3056   30.8774   45.7762 H   0  0  0  0  0  0  0  0  0  0  0  0
  1 11  1  0
  2  1  1  0
  3  4  1  0
  4  5  2  0
  5  6  1  0
  5  2  1  0
  7  6  2  0
  8  7  1  0
  9  8  1  0
 10  8  2  0
 10  4  1  0
 11 12  1  0
 12 17  2  0
 13 14  2  0
 13 12  1  0
 14 15  1  0
 15 16  2  0
 16 18  1  0
 17 16  1  0
 18 20  1  0
 18 19  1  0
 20 19  1  0
  1 21  1  0
  1 22  1  0
  2 23  1  0
  2 24  1  0
  6 25  1  0
  7 26  1  0
 10 27  1  0
 13 28  1  0
 14 29  1  0
 18 30  1  0
 19 31  1  0
 19 32  1  0
 20 33  1  0
 20 34  1  0
M  ISO  8  21   8  22   8  23   8  24   8  25  14  26  14  27  14  28  14
M  ISO  6  29  14  30  13  31  13  32  13  33  13  34  13
M  END
>  <minimizedAffinity>  (1) 
-5.49576426

>  <minimizedRMSD>  (1) 
2.62356853

$$$$
