
     RDKit          3D

 30 31  0  0  0  0  0  0  0  0999 V2000
   41.8640   35.2600   41.5200 C   0  0  0  0  0  0  0  0  0  0  0  0
   40.9310   36.1010   40.7200 C   0  0  0  0  0  0  0  0  0  0  0  0
   41.7260   36.2890   37.7970 Cl  0  0  0  0  0  0  0  0  0  0  0  0
   40.4330   35.3000   38.3940 C   0  0  0  0  0  0  0  0  0  0  0  0
   40.1510   35.2880   39.7590 C   0  0  0  0  0  0  0  0  0  0  0  0
   39.1060   34.4720   40.1440 C   0  0  0  0  0  0  0  0  0  0  0  0
   38.3210   33.6770   39.3240 C   0  0  0  0  0  0  0  0  0  0  0  0
   38.6280   33.7140   37.9810 C   0  0  0  0  0  0  0  0  0  0  0  0
   37.6960   32.7440   36.8420 Cl  0  0  0  0  0  0  0  0  0  0  0  0
   39.6720   34.5180   37.5340 C   0  0  0  0  0  0  0  0  0  0  0  0
   43.4820   35.0590   40.7610 S   0  0  0  0  0  0  0  0  0  0  0  0
   44.7730   34.7290   41.9730 C   0  0  0  0  0  0  0  0  0  0  0  0
   46.0500   34.4970   41.4570 C   0  0  0  0  0  0  0  0  0  0  0  0
   47.0950   34.2340   42.3600 C   0  0  0  0  0  0  0  0  0  0  0  0
   46.7970   34.2220   43.6920 N   0  0  0  0  0  0  0  0  0  0  0  0
   45.5610   34.4500   44.1470 C   0  0  0  0  0  0  0  0  0  0  0  0
   44.5650   34.6990   43.2940 N   0  0  0  0  0  0  0  0  0  0  0  0
   45.3460   34.4140   45.5930 C   0  0  0  0  0  0  0  0  0  0  0  0
   44.4710   35.1650   46.0840 O   0  0  0  0  0  0  0  0  0  0  0  0
   46.0440   33.6080   46.4590 O   0  0  0  0  0  0  0  0  0  0  0  0
   41.9980   35.7301   42.5054 H   0  0  0  0  0  0  0  0  0  0  0  0
   41.4147   34.2586   41.5921 H   0  0  0  0  0  0  0  0  0  0  0  0
   40.2356   36.6110   41.4029 H   0  0  0  0  0  0  0  0  0  0  0  0
   41.5271   36.8289   40.1501 H   0  0  0  0  0  0  0  0  0  0  0  0
   38.8709   34.4505   41.2184 H   0  0  0  0  0  0  0  0  0  0  0  0
   37.5043   33.0556   39.7201 H   0  0  0  0  0  0  0  0  0  0  0  0
   39.9036   34.5351   36.4588 H   0  0  0  0  0  0  0  0  0  0  0  0
   46.2333   34.5195   40.3726 H   0  0  0  0  0  0  0  0  0  0  0  0
   48.1187   34.0442   42.0049 H   0  0  0  0  0  0  0  0  0  0  0  0
   45.8461   33.6348   47.4286 H   0  0  0  0  0  0  0  0  0  0  0  0
  2  1  1  0
  3  4  1  0
  4  5  2  0
  5  6  1  0
  5  2  1  0
  7  6  2  0
  8  7  1  0
  9  8  1  0
 10  8  2  0
 10  4  1  0
 11  1  1  0
 11 12  1  0
 12 17  1  0
 13 12  2  0
 13 14  1  0
 14 15  2  0
 15 16  1  0
 16 18  1  0
 17 16  2  0
 18 19  2  0
 18 20  1  0
  1 21  1  0
  1 22  1  0
  2 23  1  0
  2 24  1  0
  6 25  1  0
  7 26  1  0
 10 27  1  0
 13 28  1  0
 14 29  1  0
 20 30  1  0
M  ISO  8  21   8  22   8  23   8  24   8  25  14  26  14  27  14  28  14
M  ISO  2  29  14  30   3
M  END
>  <minimizedAffinity>  (1) 
-6.1767149

>  <minimizedRMSD>  (1) 
0.0950569883

$$$$
