
     RDKit          3D

 43 45  0  0  0  0  0  0  0  0999 V2000
   43.6120   35.0920   40.8250 S   0  0  0  0  0  0  0  0  0  0  0  0
   44.8420   34.7440   42.0640 C   0  0  0  0  0  0  0  0  0  0  0  0
   46.1490   34.5230   41.5890 C   0  0  0  0  0  0  0  0  0  0  0  0
   47.1560   34.2460   42.5230 C   0  0  0  0  0  0  0  0  0  0  0  0
   46.8220   34.2060   43.8250 N   0  0  0  0  0  0  0  0  0  0  0  0
   45.5580   34.4220   44.2660 C   0  0  0  0  0  0  0  0  0  0  0  0
   44.5950   34.6860   43.3820 N   0  0  0  0  0  0  0  0  0  0  0  0
   48.4880   34.0150   42.0840 N   0  0  0  0  0  0  0  0  0  0  0  0
   48.8970   32.9590   41.1850 C   0  0  0  0  0  0  0  0  0  0  0  0
   50.2820   32.6240   41.6710 C   0  0  0  0  0  0  0  0  0  0  0  0
   50.7550   33.8230   42.4270 C   0  0  0  0  0  0  0  0  0  0  0  0
   49.6280   34.8170   42.4810 C   0  0  0  0  0  0  0  0  0  0  0  0
   45.3260   34.3510   45.6880 C   0  0  0  0  0  0  0  0  0  0  0  0
   44.4390   35.1100   46.1690 O   0  0  0  0  0  0  0  0  0  0  0  0
   46.1150   33.4290   46.4470 N   0  0  0  0  0  0  0  0  0  0  0  0
   41.9520   35.1550   41.4940 C   0  0  0  0  0  0  0  0  0  0  0  0
   41.0150   36.0400   40.7420 C   0  0  0  0  0  0  0  0  0  0  0  0
   41.8350   36.2500   37.8360 Cl  0  0  0  0  0  0  0  0  0  0  0  0
   40.4950   35.2950   38.4060 C   0  0  0  0  0  0  0  0  0  0  0  0
   40.2020   35.2690   39.7800 C   0  0  0  0  0  0  0  0  0  0  0  0
   39.1360   34.4960   40.1410 C   0  0  0  0  0  0  0  0  0  0  0  0
   38.3180   33.7400   39.3030 C   0  0  0  0  0  0  0  0  0  0  0  0
   38.6340   33.7880   37.9650 C   0  0  0  0  0  0  0  0  0  0  0  0
   37.6770   32.8780   36.8120 Cl  0  0  0  0  0  0  0  0  0  0  0  0
   39.6960   34.5480   37.5330 C   0  0  0  0  0  0  0  0  0  0  0  0
   46.3735   34.5667   40.5130 H   0  0  0  0  0  0  0  0  0  0  0  0
   48.9173   33.3114   40.1432 H   0  0  0  0  0  0  0  0  0  0  0  0
   48.2144   32.0965   41.1876 H   0  0  0  0  0  0  0  0  0  0  0  0
   50.2532   31.7437   42.3299 H   0  0  0  0  0  0  0  0  0  0  0  0
   50.9551   32.3839   40.8348 H   0  0  0  0  0  0  0  0  0  0  0  0
   51.0430   33.5304   43.4475 H   0  0  0  0  0  0  0  0  0  0  0  0
   51.6300   34.2662   41.9290 H   0  0  0  0  0  0  0  0  0  0  0  0
   49.7950   35.6468   41.7785 H   0  0  0  0  0  0  0  0  0  0  0  0
   49.5090   35.2942   43.4649 H   0  0  0  0  0  0  0  0  0  0  0  0
   45.9780   33.3501   47.4648 H   0  0  0  0  0  0  0  0  0  0  0  0
   46.8198   32.8444   45.9754 H   0  0  0  0  0  0  0  0  0  0  0  0
   41.5403   34.1350   41.4883 H   0  0  0  0  0  0  0  0  0  0  0  0
   42.0382   35.5783   42.5056 H   0  0  0  0  0  0  0  0  0  0  0  0
   40.3451   36.5412   41.4561 H   0  0  0  0  0  0  0  0  0  0  0  0
   41.6090   36.7769   40.1814 H   0  0  0  0  0  0  0  0  0  0  0  0
   38.8956   34.4665   41.2140 H   0  0  0  0  0  0  0  0  0  0  0  0
   37.4760   33.1447   39.6860 H   0  0  0  0  0  0  0  0  0  0  0  0
   39.9266   34.5695   36.4577 H   0  0  0  0  0  0  0  0  0  0  0  0
  1 16  1  0
  1  2  1  0
  2  7  1  0
  3  2  2  0
  3  4  1  0
  4  5  2  0
  5  6  1  0
  6 13  1  0
  7  6  2  0
  8 12  1  0
  8  4  1  0
  9 10  1  0
  9  8  1  0
 10 11  1  0
 11 12  1  0
 13 14  2  0
 13 15  1  0
 17 16  1  0
 18 19  1  0
 19 20  2  0
 20 21  1  0
 20 17  1  0
 22 21  2  0
 23 22  1  0
 24 23  1  0
 25 23  2  0
 25 19  1  0
  3 26  1  0
  9 27  1  0
  9 28  1  0
 10 29  1  0
 10 30  1  0
 11 31  1  0
 11 32  1  0
 12 33  1  0
 12 34  1  0
 15 35  1  0
 15 36  1  0
 16 37  1  0
 16 38  1  0
 17 39  1  0
 17 40  1  0
 21 41  1  0
 22 42  1  0
 25 43  1  0
M  ISO  8  26  14  27  13  28  13  29  13  30  13  31  13  32  13  33  13
M  ISO  8  34  13  37   8  38   8  39   8  40   8  41  14  42  14  43  14
M  END
>  <minimizedAffinity>  (1) 
-7.50518465

>  <minimizedRMSD>  (1) 
0.120983228

$$$$
