
     RDKit          3D

 22 23  0  0  0  0  0  0  0  0999 V2000
   46.5220   34.1920   43.6060 C   0  0  0  0  0  0  0  0  0  0  0  0
   46.9570   33.2340   44.4750 C   0  0  0  0  0  0  0  0  0  0  0  0
   46.3900   33.0860   45.7420 C   0  0  0  0  0  0  0  0  0  0  0  0
   45.3710   33.9000   46.1650 C   0  0  0  0  0  0  0  0  0  0  0  0
   44.9210   34.8660   45.3070 C   0  0  0  0  0  0  0  0  0  0  0  0
   45.5030   34.9800   44.0700 C   0  0  0  0  0  0  0  0  0  0  0  0
   48.7090   35.3750   40.9330 C   0  0  0  0  0  0  0  0  0  0  0  0
   48.2290   34.7240   39.7970 C   0  0  0  0  0  0  0  0  0  0  0  0
   47.1370   33.8670   39.9550 C   0  0  0  0  0  0  0  0  0  0  0  0
   46.5930   33.7050   41.1930 N   0  0  0  0  0  0  0  0  0  0  0  0
   47.0970   34.3660   42.2870 C   0  0  0  0  0  0  0  0  0  0  0  0
   48.1480   35.1880   42.1280 N   0  0  0  0  0  0  0  0  0  0  0  0
   44.9020   36.0470   43.2850 C   0  0  0  0  0  0  0  0  0  0  0  0
   45.1720   37.2530   43.2550 O   0  0  0  0  0  0  0  0  0  0  0  0
   47.7734   32.5628   44.1700 H   0  0  0  0  0  0  0  0  0  0  0  0
   46.7680   32.3013   46.4139 H   0  0  0  0  0  0  0  0  0  0  0  0
   44.9283   33.7799   47.1648 H   0  0  0  0  0  0  0  0  0  0  0  0
   44.1050   35.5410   45.6045 H   0  0  0  0  0  0  0  0  0  0  0  0
   49.5676   36.0564   40.8413 H   0  0  0  0  0  0  0  0  0  0  0  0
   48.6934   34.8796   38.8121 H   0  0  0  0  0  0  0  0  0  0  0  0
   46.7216   33.3295   39.0898 H   0  0  0  0  0  0  0  0  0  0  0  0
   44.0850   35.7339   42.6183 H   0  0  0  0  0  0  0  0  0  0  0  0
  1  6  1  0
  1  2  2  0
  2  3  1  0
  3  4  2  0
  5  4  1  0
  6  5  2  0
  7 12  2  0
  8  9  2  0
  8  7  1  0
  9 10  1  0
 10 11  2  0
 11  1  1  0
 12 11  1  0
 13  6  1  0
 14 13  2  0
  2 15  1  0
  3 16  1  0
  4 17  1  0
  5 18  1  0
  7 19  1  0
  8 20  1  0
  9 21  1  0
 13 22  1  0
M  ISO  8  15  14  16  14  17  14  18  14  19  14  20  14  21  14  22   6
M  END
>  <minimizedAffinity>  (1) 
-4.53712845

>  <minimizedRMSD>  (1) 
4.48489618

$$$$
