
     RDKit          3D

 42 44  0  0  1  0  0  0  0  0999 V2000
   46.3930   33.6630   44.7140 C   0  0  0  0  0  0  0  0  0  0  0  0
   45.2070   34.3160   44.9180 C   0  0  0  0  0  0  0  0  0  0  0  0
   44.7070   35.3200   44.1150 C   0  0  0  0  0  0  0  0  0  0  0  0
   45.4420   35.7040   43.0280 C   0  0  0  0  0  0  0  0  0  0  0  0
   46.6330   35.0790   42.7840 C   0  0  0  0  0  0  0  0  0  0  0  0
   47.1060   34.0680   43.6180 C   0  0  0  0  0  0  0  0  0  0  0  0
   47.6830   30.4130   45.7970 C   0  0  0  0  0  0  0  0  0  0  0  0
   47.7700   30.5440   47.1830 C   0  0  0  0  0  0  0  0  0  0  0  0
   47.3800   31.7670   47.7480 C   0  0  0  0  0  0  0  0  0  0  0  0
   46.9320   32.7840   46.9540 N   0  0  0  0  0  0  0  0  0  0  0  0
   46.8610   32.6140   45.5990 C   0  0  0  0  0  0  0  0  0  0  0  0
   47.2410   31.4320   45.0660 N   0  0  0  0  0  0  0  0  0  0  0  0
   48.3470   33.5300   43.2290 N   0  0  0  0  0  0  0  0  0  0  0  0
   49.7460   34.2110   42.5190 S   0  0  0  0  0  0  0  0  0  0  0  0
   49.4600   34.5110   41.0550 O   0  0  0  0  0  0  0  0  0  0  0  0
   50.2140   35.4620   43.1830 O   0  0  0  0  0  0  0  0  0  0  0  0
   50.9220   32.9920   42.4950 O   0  0  0  0  0  0  0  0  0  0  0  0
   49.9400   31.5210   40.9380 N   0  0  0  0  0  0  0  0  0  0  0  0
   50.2540   31.7700   42.3530 C   0  0  1  0  0  0  0  0  0  0  0  0
   51.0680   30.5980   42.8190 C   0  0  0  0  0  0  0  0  0  0  0  0
   52.3390   30.6100   42.1150 N   0  0  0  0  0  0  0  0  0  0  0  0
   52.0590   30.4010   40.7060 C   0  0  0  0  0  0  0  0  0  0  0  0
   51.1880   31.5300   40.2310 C   0  0  0  0  0  0  0  0  0  0  0  0
   44.6064   34.0169   45.7897 H   0  0  0  0  0  0  0  0  0  0  0  0
   43.7432   35.7986   44.3430 H   0  0  0  0  0  0  0  0  0  0  0  0
   45.0814   36.5016   42.3618 H   0  0  0  0  0  0  0  0  0  0  0  0
   47.2305   35.3805   41.9110 H   0  0  0  0  0  0  0  0  0  0  0  0
   47.9786   29.4714   45.3112 H   0  0  0  0  0  0  0  0  0  0  0  0
   48.1320   29.7167   47.8111 H   0  0  0  0  0  0  0  0  0  0  0  0
   47.4353   31.9080   48.8375 H   0  0  0  0  0  0  0  0  0  0  0  0
   48.4296   32.5192   43.4087 H   0  0  0  0  0  0  0  0  0  0  0  0
   48.7783   35.2261   40.9917 H   0  0  0  0  0  0  0  0  0  0  0  0
   50.1720   35.3496   44.1657 H   0  0  0  0  0  0  0  0  0  0  0  0
   49.4788   30.6061   40.8324 H   0  0  0  0  0  0  0  0  0  0  0  0
   49.3484   31.8567   42.9713 H   0  0  0  0  0  0  0  0  0  0  0  0
   51.2431   30.6752   43.9022 H   0  0  0  0  0  0  0  0  0  0  0  0
   50.5314   29.6604   42.6119 H   0  0  0  0  0  0  0  0  0  0  0  0
   52.8071   31.5175   42.2497 H   0  0  0  0  0  0  0  0  0  0  0  0
   52.9999   30.3908   40.1363 H   0  0  0  0  0  0  0  0  0  0  0  0
   51.5492   29.4376   40.5574 H   0  0  0  0  0  0  0  0  0  0  0  0
   51.7013   32.4861   40.4111 H   0  0  0  0  0  0  0  0  0  0  0  0
   50.9933   31.4065   39.1554 H   0  0  0  0  0  0  0  0  0  0  0  0
  1  2  2  0
  1 11  1  0
  3  2  1  0
  4  3  2  0
  5  4  1  0
  5  6  2  0
  6  1  1  0
  7  8  2  0
  8  9  1  0
 10  9  2  0
 11 10  1  0
 12 11  2  0
 12  7  1  0
 13  6  1  0
 14 16  1  0
 14 13  1  0
 15 14  1  0
 17 14  1  0
 18 19  1  0
 19 17  1  0
 19 20  1  0
 21 20  1  0
 22 21  1  0
 23 22  1  0
 23 18  1  0
  2 24  1  0
  3 25  1  0
  4 26  1  0
  5 27  1  0
  7 28  1  0
  8 29  1  0
  9 30  1  0
 13 31  1  0
 15 32  1  0
 16 33  1  0
 18 34  1  0
 19 35  1  1
 20 36  1  0
 20 37  1  0
 21 38  1  0
 22 39  1  0
 22 40  1  0
 23 41  1  0
 23 42  1  0
M  ISO  8  24  14  25  14  26  14  27  14  28  14  29  14  30  14  32   3
M  ISO  8  33   3  34   5  35  13  36  13  37  13  38   5  39  13  40  13
M  ISO  2  41  13  42  13
M  END
>  <minimizedAffinity>  (1) 
-6.16383219

>  <minimizedRMSD>  (1) 
2.63347435

$$$$
