
     RDKit          3D

 44 46  0  0  0  0  0  0  0  0999 V2000
   46.3440   33.7260   44.7800 C   0  0  0  0  0  0  0  0  0  0  0  0
   45.1750   34.4050   45.0080 C   0  0  0  0  0  0  0  0  0  0  0  0
   44.6900   35.4060   44.2050 C   0  0  0  0  0  0  0  0  0  0  0  0
   45.4150   35.7610   43.0880 C   0  0  0  0  0  0  0  0  0  0  0  0
   46.5850   35.1010   42.8320 C   0  0  0  0  0  0  0  0  0  0  0  0
   47.0450   34.0960   43.6650 C   0  0  0  0  0  0  0  0  0  0  0  0
   47.6030   30.4680   45.8990 C   0  0  0  0  0  0  0  0  0  0  0  0
   47.6990   30.6200   47.2780 C   0  0  0  0  0  0  0  0  0  0  0  0
   47.3280   31.8480   47.8310 C   0  0  0  0  0  0  0  0  0  0  0  0
   46.8880   32.8630   47.0350 N   0  0  0  0  0  0  0  0  0  0  0  0
   46.8070   32.6720   45.6700 C   0  0  0  0  0  0  0  0  0  0  0  0
   47.1670   31.4860   45.1570 N   0  0  0  0  0  0  0  0  0  0  0  0
   48.2700   33.5150   43.2600 N   0  0  0  0  0  0  0  0  0  0  0  0
   49.6690   34.1510   42.5180 S   0  0  0  0  0  0  0  0  0  0  0  0
   49.3010   34.5430   41.0870 O   0  0  0  0  0  0  0  0  0  0  0  0
   50.2330   35.3610   43.1910 O   0  0  0  0  0  0  0  0  0  0  0  0
   50.7630   32.9020   42.3700 O   0  0  0  0  0  0  0  0  0  0  0  0
   50.7460   32.1620   41.2460 C   0  0  0  0  0  0  0  0  0  0  0  0
   49.8780   30.9310   41.4150 C   0  0  0  0  0  0  0  0  0  0  0  0
   49.7290   30.1220   40.1710 C   0  0  0  0  0  0  0  0  0  0  0  0
   50.9230   30.0650   39.2840 C   0  0  0  0  0  0  0  0  0  0  0  0
   51.7790   31.2920   39.2710 C   0  0  0  0  0  0  0  0  0  0  0  0
   52.0550   31.6760   40.7150 C   0  0  0  0  0  0  0  0  0  0  0  0
   44.5860   34.1284   45.8949 H   0  0  0  0  0  0  0  0  0  0  0  0
   43.7445   35.9134   44.4470 H   0  0  0  0  0  0  0  0  0  0  0  0
   45.0604   36.5575   42.4173 H   0  0  0  0  0  0  0  0  0  0  0  0
   47.1737   35.3750   41.9441 H   0  0  0  0  0  0  0  0  0  0  0  0
   47.8843   29.5162   45.4247 H   0  0  0  0  0  0  0  0  0  0  0  0
   48.0566   29.7973   47.9147 H   0  0  0  0  0  0  0  0  0  0  0  0
   47.3916   31.9971   48.9190 H   0  0  0  0  0  0  0  0  0  0  0  0
   48.3292   32.5047   43.4516 H   0  0  0  0  0  0  0  0  0  0  0  0
   48.6235   35.2646   41.1064 H   0  0  0  0  0  0  0  0  0  0  0  0
   50.1800   35.2473   44.1730 H   0  0  0  0  0  0  0  0  0  0  0  0
   50.3559   32.8870   40.5166 H   0  0  0  0  0  0  0  0  0  0  0  0
   50.3276   30.2939   42.1908 H   0  0  0  0  0  0  0  0  0  0  0  0
   48.8728   31.2839   41.6890 H   0  0  0  0  0  0  0  0  0  0  0  0
   49.4798   29.0922   40.4668 H   0  0  0  0  0  0  0  0  0  0  0  0
   48.9458   30.6229   39.5830 H   0  0  0  0  0  0  0  0  0  0  0  0
   51.5473   29.2205   39.6111 H   0  0  0  0  0  0  0  0  0  0  0  0
   50.5326   29.9602   38.2610 H   0  0  0  0  0  0  0  0  0  0  0  0
   52.7256   31.0833   38.7510 H   0  0  0  0  0  0  0  0  0  0  0  0
   51.2697   32.1123   38.7441 H   0  0  0  0  0  0  0  0  0  0  0  0
   52.4035   30.8033   41.2867 H   0  0  0  0  0  0  0  0  0  0  0  0
   52.8415   32.4409   40.7947 H   0  0  0  0  0  0  0  0  0  0  0  0
  1  2  2  0
  1 11  1  0
  3  2  1  0
  4  3  2  0
  5  4  1  0
  5  6  2  0
  6  1  1  0
  7  8  2  0
  8  9  1  0
 10  9  2  0
 11 10  1  0
 12 11  2  0
 12  7  1  0
 13  6  1  0
 14 16  1  0
 14 13  1  0
 15 14  1  0
 17 14  1  0
 18 19  1  0
 18 17  1  0
 20 19  1  0
 21 20  1  0
 22 21  1  0
 22 23  1  0
 23 18  1  0
  2 24  1  0
  3 25  1  0
  4 26  1  0
  5 27  1  0
  7 28  1  0
  8 29  1  0
  9 30  1  0
 13 31  1  0
 15 32  1  0
 16 33  1  0
 18 34  1  0
 19 35  1  0
 19 36  1  0
 20 37  1  0
 20 38  1  0
 21 39  1  0
 21 40  1  0
 22 41  1  0
 22 42  1  0
 23 43  1  0
 23 44  1  0
M  ISO  8  24  14  25  14  26  14  27  14  28  14  29  14  30  14  32   3
M  ISO  8  33   3  34  13  35  13  36  13  37  13  38  13  39  13  40  13
M  ISO  4  41  13  42  13  43  13  44  13
M  END
>  <minimizedAffinity>  (1) 
-6.11800003

>  <minimizedRMSD>  (1) 
2.0019238

$$$$
