
     RDKit          3D

 37 39  0  0  1  0  0  0  0  0999 V2000
   44.6600   33.2450   41.4760 C   0  0  1  0  0  0  0  0  0  0  0  0
   43.6260   33.9580   40.5700 C   0  0  0  0  0  0  0  0  0  0  0  0
   43.4380   33.0750   39.3710 C   0  0  0  0  0  0  0  0  0  0  0  0
   44.7210   33.2350   38.5730 C   0  0  0  0  0  0  0  0  0  0  0  0
   45.8810   32.8720   39.3520 C   0  0  0  0  0  0  0  0  0  0  0  0
   45.9650   33.2700   40.8550 C   0  0  1  0  0  0  0  0  0  0  0  0
   44.4440   35.8810   44.2790 C   0  0  0  0  0  0  0  0  0  0  0  0
   44.2940   35.3120   43.0330 C   0  0  0  0  0  0  0  0  0  0  0  0
   44.7170   33.9960   42.7680 C   0  0  0  0  0  0  0  0  0  0  0  0
   45.2650   33.3590   43.8110 N   0  0  0  0  0  0  0  0  0  0  0  0
   45.4170   33.8910   45.0160 C   0  0  0  0  0  0  0  0  0  0  0  0
   45.0040   35.1700   45.2680 N   0  0  0  0  0  0  0  0  0  0  0  0
   46.4890   34.5620   40.8560 O   0  0  0  0  0  0  0  0  0  0  0  0
   47.8770   34.4860   40.9120 C   0  0  0  0  0  0  0  0  0  0  0  0
   48.5000   34.3330   42.2420 C   0  0  0  0  0  0  0  0  0  0  0  0
   49.9120   33.6950   42.2570 C   0  0  0  0  0  0  0  0  0  0  0  0
   49.8180   35.1370   42.5010 C   0  0  0  0  0  0  0  0  0  0  0  0
   44.3677   32.1969   41.6372 H   0  0  0  0  0  0  0  0  0  0  0  0
   42.6728   34.0826   41.1047 H   0  0  0  0  0  0  0  0  0  0  0  0
   43.9733   34.9602   40.2784 H   0  0  0  0  0  0  0  0  0  0  0  0
   43.2994   32.0278   39.6777 H   0  0  0  0  0  0  0  0  0  0  0  0
   42.5466   33.3480   38.7872 H   0  0  0  0  0  0  0  0  0  0  0  0
   44.8168   34.2846   38.2581 H   0  0  0  0  0  0  0  0  0  0  0  0
   44.6693   32.5661   37.7013 H   0  0  0  0  0  0  0  0  0  0  0  0
   45.9623   31.7759   39.3087 H   0  0  0  0  0  0  0  0  0  0  0  0
   46.6894   33.4576   38.8898 H   0  0  0  0  0  0  0  0  0  0  0  0
   46.5883   32.5685   41.4289 H   0  0  0  0  0  0  0  0  0  0  0  0
   44.1064   36.9120   44.4610 H   0  0  0  0  0  0  0  0  0  0  0  0
   43.8326   35.9003   42.2262 H   0  0  0  0  0  0  0  0  0  0  0  0
   45.8791   33.2987   45.8195 H   0  0  0  0  0  0  0  0  0  0  0  0
   48.1842   33.6227   40.3034 H   0  0  0  0  0  0  0  0  0  0  0  0
   48.2252   35.4651   40.5513 H   0  0  0  0  0  0  0  0  0  0  0  0
   47.5429   34.1853   42.7636 H   0  0  0  0  0  0  0  0  0  0  0  0
   50.1952   33.0224   43.0800 H   0  0  0  0  0  0  0  0  0  0  0  0
   50.4776   33.0772   41.5440 H   0  0  0  0  0  0  0  0  0  0  0  0
   50.1843   35.8443   41.7423 H   0  0  0  0  0  0  0  0  0  0  0  0
   50.1664   35.8064   43.3013 H   0  0  0  0  0  0  0  0  0  0  0  0
  1  9  1  0
  2  1  1  0
  3  2  1  0
  4  5  1  0
  4  3  1  0
  5  6  1  0
  6 13  1  0
  6  1  1  0
  7 12  2  0
  8  7  1  0
  9  8  2  0
  9 10  1  0
 10 11  2  0
 11 12  1  0
 13 14  1  0
 14 15  1  0
 15 16  1  0
 15 17  1  0
 16 17  1  0
  1 18  1  1
  2 19  1  0
  2 20  1  0
  3 21  1  0
  3 22  1  0
  4 23  1  0
  4 24  1  0
  5 25  1  0
  5 26  1  0
  6 27  1  1
  7 28  1  0
  8 29  1  0
 11 30  1  0
 14 31  1  0
 14 32  1  0
 15 33  1  0
 16 34  1  0
 16 35  1  0
 17 36  1  0
 17 37  1  0
M  ISO  8  18  13  19  13  20  13  21  13  22  13  23  13  24  13  25  13
M  ISO  8  26  13  27  13  28  14  29  14  30  14  31   8  32   8  33  13
M  ISO  4  34  13  35  13  36  13  37  13
M  END
>  <minimizedAffinity>  (1) 
-4.29248047

>  <minimizedRMSD>  (1) 
2.16212392

$$$$
