
     RDKit          3D

 38 40  0  0  0  0  0  0  0  0999 V2000
   45.7060   33.8340   45.7130 C   0  0  0  0  0  0  0  0  0  0  0  0
   44.8170   34.8730   45.7500 C   0  0  0  0  0  0  0  0  0  0  0  0
   44.5460   35.7140   44.6930 C   0  0  0  0  0  0  0  0  0  0  0  0
   45.2070   35.5070   43.5130 C   0  0  0  0  0  0  0  0  0  0  0  0
   46.0990   34.4880   43.4320 C   0  0  0  0  0  0  0  0  0  0  0  0
   46.3580   33.6510   44.5110 C   0  0  0  0  0  0  0  0  0  0  0  0
   47.5240   31.8520   48.1830 C   0  0  0  0  0  0  0  0  0  0  0  0
   46.5090   31.3560   49.0080 C   0  0  0  0  0  0  0  0  0  0  0  0
   45.2020   31.7060   48.7090 C   0  0  0  0  0  0  0  0  0  0  0  0
   44.9170   32.5180   47.6330 N   0  0  0  0  0  0  0  0  0  0  0  0
   45.9540   32.9790   46.8540 C   0  0  0  0  0  0  0  0  0  0  0  0
   47.2210   32.6320   47.1530 N   0  0  0  0  0  0  0  0  0  0  0  0
   47.3080   32.6420   44.2660 N   0  0  0  0  0  0  0  0  0  0  0  0
   47.1630   30.9900   43.8370 S   0  0  0  0  0  0  0  0  0  0  0  0
   46.7240   30.2170   45.0840 O   0  0  0  0  0  0  0  0  0  0  0  0
   46.2030   30.7190   42.7480 O   0  0  0  0  0  0  0  0  0  0  0  0
   48.7230   30.4430   43.5170 O   0  0  0  0  0  0  0  0  0  0  0  0
   49.4950   30.8840   42.4690 C   0  0  0  0  0  0  0  0  0  0  0  0
   50.4190   31.9030   42.5170 C   0  0  0  0  0  0  0  0  0  0  0  0
   51.1530   32.2750   41.3970 C   0  0  0  0  0  0  0  0  0  0  0  0
   50.9260   31.5870   40.2270 C   0  0  0  0  0  0  0  0  0  0  0  0
   50.0080   30.5660   40.1520 C   0  0  0  0  0  0  0  0  0  0  0  0
   49.2740   30.1940   41.2730 C   0  0  0  0  0  0  0  0  0  0  0  0
   44.2790   35.0500   46.6930 H   0  0  0  0  0  0  0  0  0  0  0  0
   43.8167   36.5312   44.7951 H   0  0  0  0  0  0  0  0  0  0  0  0
   45.0184   36.1557   42.6449 H   0  0  0  0  0  0  0  0  0  0  0  0
   46.6327   34.3193   42.4850 H   0  0  0  0  0  0  0  0  0  0  0  0
   48.5738   31.5954   48.3881 H   0  0  0  0  0  0  0  0  0  0  0  0
   46.7410   30.7088   49.8667 H   0  0  0  0  0  0  0  0  0  0  0  0
   44.3817   31.3309   49.3386 H   0  0  0  0  0  0  0  0  0  0  0  0
   48.2829   32.9596   44.3640 H   0  0  0  0  0  0  0  0  0  0  0  0
   47.0047   30.7113   45.8945 H   0  0  0  0  0  0  0  0  0  0  0  0
   45.3261   30.4715   43.1351 H   0  0  0  0  0  0  0  0  0  0  0  0
   50.5805   32.4362   43.4655 H   0  0  0  0  0  0  0  0  0  0  0  0
   51.8895   33.0907   41.4441 H   0  0  0  0  0  0  0  0  0  0  0  0
   51.4949   31.8615   39.3265 H   0  0  0  0  0  0  0  0  0  0  0  0
   49.8531   30.0398   39.1985 H   0  0  0  0  0  0  0  0  0  0  0  0
   48.5384   29.3779   41.2203 H   0  0  0  0  0  0  0  0  0  0  0  0
  1  2  2  0
  1 11  1  0
  3  2  1  0
  4  3  2  0
  5  4  1  0
  5  6  2  0
  6  1  1  0
  7  8  2  0
  9  8  1  0
 10  9  2  0
 11 12  2  0
 11 10  1  0
 12  7  1  0
 13  6  1  0
 14 13  1  0
 14 15  1  0
 16 14  1  0
 17 14  1  0
 18 19  2  0
 18 17  1  0
 20 19  1  0
 21 20  2  0
 22 21  1  0
 22 23  2  0
 23 18  1  0
  2 24  1  0
  3 25  1  0
  4 26  1  0
  5 27  1  0
  7 28  1  0
  8 29  1  0
  9 30  1  0
 13 31  1  0
 15 32  1  0
 16 33  1  0
 19 34  1  0
 20 35  1  0
 21 36  1  0
 22 37  1  0
 23 38  1  0
M  ISO  8  24  14  25  14  26  14  27  14  28  14  29  14  30  14  32   3
M  ISO  6  33   3  34  14  35  14  36  14  37  14  38  14
M  END
>  <minimizedAffinity>  (1) 
-4.95967531

>  <minimizedRMSD>  (1) 
2.30287194

$$$$
