
     RDKit          3D

 31 32  0  0  0  0  0  0  0  0999 V2000
   45.5150   33.8910   45.5140 C   0  0  0  0  0  0  0  0  0  0  0  0
   44.8170   35.0550   45.6600 C   0  0  0  0  0  0  0  0  0  0  0  0
   44.4300   35.8750   44.6180 C   0  0  0  0  0  0  0  0  0  0  0  0
   44.7640   35.5020   43.3450 C   0  0  0  0  0  0  0  0  0  0  0  0
   45.4580   34.3500   43.1470 C   0  0  0  0  0  0  0  0  0  0  0  0
   45.8380   33.5390   44.2220 C   0  0  0  0  0  0  0  0  0  0  0  0
   47.5550   31.7610   47.6860 C   0  0  0  0  0  0  0  0  0  0  0  0
   46.6990   31.5010   48.7610 C   0  0  0  0  0  0  0  0  0  0  0  0
   45.4270   32.0520   48.7420 C   0  0  0  0  0  0  0  0  0  0  0  0
   45.0260   32.8350   47.6880 N   0  0  0  0  0  0  0  0  0  0  0  0
   45.8950   33.0680   46.6510 C   0  0  0  0  0  0  0  0  0  0  0  0
   47.1160   32.5290   46.6860 N   0  0  0  0  0  0  0  0  0  0  0  0
   46.5510   32.3800   43.8630 N   0  0  0  0  0  0  0  0  0  0  0  0
   48.0210   32.1430   43.0140 S   0  0  0  0  0  0  0  0  0  0  0  0
   47.6960   31.7280   41.5860 O   0  0  0  0  0  0  0  0  0  0  0  0
   48.9050   33.3230   42.9660 O   0  0  0  0  0  0  0  0  0  0  0  0
   48.7330   30.7730   43.7070 O   0  0  0  0  0  0  0  0  0  0  0  0
   49.8650   30.3790   43.0330 C   0  0  0  0  0  0  0  0  0  0  0  0
   44.5432   35.3618   46.6802 H   0  0  0  0  0  0  0  0  0  0  0  0
   43.8689   36.8021   44.8066 H   0  0  0  0  0  0  0  0  0  0  0  0
   44.4735   36.1288   42.4890 H   0  0  0  0  0  0  0  0  0  0  0  0
   45.7257   34.0500   42.1231 H   0  0  0  0  0  0  0  0  0  0  0  0
   48.5712   31.3405   47.6648 H   0  0  0  0  0  0  0  0  0  0  0  0
   47.0276   30.8735   49.6026 H   0  0  0  0  0  0  0  0  0  0  0  0
   44.7354   31.8608   49.5758 H   0  0  0  0  0  0  0  0  0  0  0  0
   46.1028   31.5049   44.1698 H   0  0  0  0  0  0  0  0  0  0  0  0
   47.0857   30.9486   41.5996 H   0  0  0  0  0  0  0  0  0  0  0  0
   49.1210   33.6113   43.8882 H   0  0  0  0  0  0  0  0  0  0  0  0
   50.6469   30.1069   43.7573 H   0  0  0  0  0  0  0  0  0  0  0  0
   49.6316   29.5093   42.4013 H   0  0  0  0  0  0  0  0  0  0  0  0
   50.2220   31.2057   42.4013 H   0  0  0  0  0  0  0  0  0  0  0  0
  1  2  2  0
  1 11  1  0
  3  2  1  0
  4  3  2  0
  5  4  1  0
  5  6  2  0
  6  1  1  0
  7  8  2  0
  9  8  1  0
 10  9  2  0
 11 12  2  0
 11 10  1  0
 12  7  1  0
 13  6  1  0
 14 17  1  0
 14 13  1  0
 15 14  1  0
 16 14  1  0
 18 17  1  0
  2 19  1  0
  3 20  1  0
  4 21  1  0
  5 22  1  0
  7 23  1  0
  8 24  1  0
  9 25  1  0
 13 26  1  0
 15 27  1  0
 16 28  1  0
 18 29  1  0
 18 30  1  0
 18 31  1  0
M  ISO  8  19  14  20  14  21  14  22  14  23  14  24  14  25  14  27   3
M  ISO  4  28   3  29   8  30   8  31   8
M  END
>  <minimizedAffinity>  (1) 
-4.55605268

>  <minimizedRMSD>  (1) 
0.436873704

$$$$
