
     RDKit          3D

 23 24  0  0  1  0  0  0  0  0999 V2000
   44.4720   35.8530   44.6240 C   0  0  0  0  0  0  0  0  0  0  0  0
   45.0360   35.9170   43.3330 C   0  0  0  0  0  0  0  0  0  0  0  0
   46.0380   34.9830   43.0020 C   0  0  0  0  0  0  0  0  0  0  0  0
   46.4100   34.0660   43.9480 N   0  0  0  0  0  0  0  0  0  0  0  0
   45.8390   34.0390   45.1850 C   0  0  0  0  0  0  0  0  0  0  0  0
   44.8830   34.9220   45.5130 N   0  0  0  0  0  0  0  0  0  0  0  0
   45.6920   33.4080   47.5960 C   0  0  2  0  0  0  0  0  0  0  0  0
   46.2250   33.0640   46.2090 C   0  0  1  0  0  0  0  0  0  0  0  0
   45.6630   31.7900   45.9730 O   0  0  0  0  0  0  0  0  0  0  0  0
   46.1230   31.1430   47.1420 C   0  0  0  0  0  0  0  0  0  0  0  0
   45.4730   32.0220   48.1960 C   0  0  2  0  0  0  0  0  0  0  0  0
   44.4620   34.0920   47.4900 O   0  0  0  0  0  0  0  0  0  0  0  0
   44.1090   31.7370   48.2130 O   0  0  0  0  0  0  0  0  0  0  0  0
   43.6882   36.5695   44.9107 H   0  0  0  0  0  0  0  0  0  0  0  0
   44.7038   36.6731   42.6064 H   0  0  0  0  0  0  0  0  0  0  0  0
   46.5095   34.9906   42.0082 H   0  0  0  0  0  0  0  0  0  0  0  0
   46.3564   34.0561   48.1864 H   0  0  0  0  0  0  0  0  0  0  0  0
   47.3239   33.0763   46.1616 H   0  0  0  0  0  0  0  0  0  0  0  0
   45.7684   30.1034   47.2008 H   0  0  0  0  0  0  0  0  0  0  0  0
   47.2161   31.0499   47.2230 H   0  0  0  0  0  0  0  0  0  0  0  0
   45.8604   31.9032   49.2186 H   0  0  0  0  0  0  0  0  0  0  0  0
   44.1131   34.2860   48.3960 H   0  0  0  0  0  0  0  0  0  0  0  0
   43.7971   31.6718   49.1503 H   0  0  0  0  0  0  0  0  0  0  0  0
  1  6  2  0
  2  1  1  0
  3  2  2  0
  3  4  1  0
  4  5  2  0
  5  6  1  0
  7 12  1  0
  7 11  1  0
  8  5  1  0
  8  7  1  0
  9  8  1  0
  9 10  1  0
 10 11  1  0
 11 13  1  0
  1 14  1  0
  2 15  1  0
  3 16  1  0
  7 17  1  1
  8 18  1  1
 10 19  1  0
 10 20  1  0
 11 21  1  1
 12 22  1  0
 13 23  1  0
M  ISO  8  14  14  15  14  16  14  17  13  18  13  19  13  20  13  21  13
M  ISO  2  22   3  23   3
M  END
>  <minimizedAffinity>  (1) 
-4.89895296

>  <minimizedRMSD>  (1) 
1.12305176

$$$$
