
     RDKit          3D

 36 37  0  0  1  0  0  0  0  0999 V2000
   45.5240   32.2100   42.7130 C   0  0  1  0  0  0  0  0  0  0  0  0
   45.0350   32.6240   41.3060 C   0  0  0  0  0  0  0  0  0  0  0  0
   45.1960   31.4300   40.4190 C   0  0  0  0  0  0  0  0  0  0  0  0
   46.6970   31.2840   40.2170 C   0  0  0  0  0  0  0  0  0  0  0  0
   47.4010   31.1490   41.4730 C   0  0  0  0  0  0  0  0  0  0  0  0
   46.9530   32.0070   42.6970 C   0  0  1  0  0  0  0  0  0  0  0  0
   44.3830   35.5180   44.3320 C   0  0  0  0  0  0  0  0  0  0  0  0
   44.5970   34.5710   43.3520 C   0  0  0  0  0  0  0  0  0  0  0  0
   45.1900   33.3290   43.6490 C   0  0  0  0  0  0  0  0  0  0  0  0
   45.5190   33.1580   44.9320 N   0  0  0  0  0  0  0  0  0  0  0  0
   45.3220   34.0550   45.8870 C   0  0  0  0  0  0  0  0  0  0  0  0
   44.7470   35.2550   45.5960 N   0  0  0  0  0  0  0  0  0  0  0  0
   47.6290   33.2320   42.5840 O   0  0  0  0  0  0  0  0  0  0  0  0
   48.9980   32.9690   42.6490 C   0  0  0  0  0  0  0  0  0  0  0  0
   49.5270   34.2970   42.8320 O   0  0  0  0  0  0  0  0  0  0  0  0
   47.3730   35.6260   42.1380 O   0  0  0  0  0  0  0  0  0  0  0  0
   48.7760   35.3090   41.7070 P   0  0  0  0  0  0  0  0  0  0  0  0
   48.8040   34.5080   40.2120 O   0  0  0  0  0  0  0  0  0  0  0  0
   49.6790   36.7380   41.6400 O   0  0  0  0  0  0  0  0  0  0  0  0
   45.0417   31.2734   43.0296 H   0  0  0  0  0  0  0  0  0  0  0  0
   43.9777   32.9247   41.3467 H   0  0  0  0  0  0  0  0  0  0  0  0
   45.6139   33.4779   40.9243 H   0  0  0  0  0  0  0  0  0  0  0  0
   44.7824   30.5322   40.9015 H   0  0  0  0  0  0  0  0  0  0  0  0
   44.6622   31.5511   39.4649 H   0  0  0  0  0  0  0  0  0  0  0  0
   46.8879   30.3903   39.6048 H   0  0  0  0  0  0  0  0  0  0  0  0
   47.0632   32.1932   39.7177 H   0  0  0  0  0  0  0  0  0  0  0  0
   47.3202   30.0941   41.7741 H   0  0  0  0  0  0  0  0  0  0  0  0
   48.4098   31.5250   41.2473 H   0  0  0  0  0  0  0  0  0  0  0  0
   47.1973   31.4953   43.6396 H   0  0  0  0  0  0  0  0  0  0  0  0
   43.9172   36.4818   44.0788 H   0  0  0  0  0  0  0  0  0  0  0  0
   44.2980   34.7909   42.3165 H   0  0  0  0  0  0  0  0  0  0  0  0
   45.6244   33.8294   46.9203 H   0  0  0  0  0  0  0  0  0  0  0  0
   49.2436   32.3160   43.4995 H   0  0  0  0  0  0  0  0  0  0  0  0
   49.3991   32.4389   41.7726 H   0  0  0  0  0  0  0  0  0  0  0  0
   48.8382   33.5301   40.3622 H   0  0  0  0  0  0  0  0  0  0  0  0
   49.8749   37.0480   42.5596 H   0  0  0  0  0  0  0  0  0  0  0  0
  1  9  1  0
  2  1  1  0
  3  2  1  0
  4  3  1  0
  4  5  1  0
  5  6  1  0
  6  1  1  0
  7 12  2  0
  8  9  2  0
  8  7  1  0
  9 10  1  0
 10 11  2  0
 12 11  1  0
 13 14  1  0
 13  6  1  0
 14 15  1  0
 17 16  2  0
 17 15  1  0
 18 17  1  0
 19 17  1  0
  1 20  1  1
  2 21  1  0
  2 22  1  0
  3 23  1  0
  3 24  1  0
  4 25  1  0
  4 26  1  0
  5 27  1  0
  5 28  1  0
  6 29  1  1
  7 30  1  0
  8 31  1  0
 11 32  1  0
 14 33  1  0
 14 34  1  0
 18 35  1  0
 19 36  1  0
M  ISO  8  20  13  21  13  22  13  23  13  24  13  25  13  26  13  27  13
M  ISO  8  28  13  29  13  30  14  31  14  32  14  33   8  34   8  35   3
M  ISO  1  36   3
M  END
>  <minimizedAffinity>  (1) 
-3.82638073

>  <minimizedRMSD>  (1) 
1.84276235

$$$$
