
     RDKit          3D

 21 21  0  0  0  0  0  0  0  0999 V2000
   44.5690   35.5610   45.0590 C   0  0  0  0  0  0  0  0  0  0  0  0
   45.1270   35.6200   43.7610 C   0  0  0  0  0  0  0  0  0  0  0  0
   46.0560   34.6130   43.4340 C   0  0  0  0  0  0  0  0  0  0  0  0
   46.3560   33.6640   44.3650 N   0  0  0  0  0  0  0  0  0  0  0  0
   45.7830   33.6680   45.5950 C   0  0  0  0  0  0  0  0  0  0  0  0
   44.8930   34.6150   45.9370 N   0  0  0  0  0  0  0  0  0  0  0  0
   46.6150   34.6970   42.0890 C   0  0  0  0  0  0  0  0  0  0  0  0
   47.3680   33.5540   41.8450 F   0  0  0  0  0  0  0  0  0  0  0  0
   47.5370   35.7390   42.1210 F   0  0  0  0  0  0  0  0  0  0  0  0
   45.6850   34.8210   41.1110 F   0  0  0  0  0  0  0  0  0  0  0  0
   46.3040   32.5370   46.4080 C   0  0  0  0  0  0  0  0  0  0  0  0
   45.9490   32.6430   47.8510 C   0  0  0  0  0  0  0  0  0  0  0  0
   44.5510   32.3360   48.0230 N   0  0  0  0  0  0  0  0  0  0  0  0
   43.8379   36.3278   45.3548 H   0  0  0  0  0  0  0  0  0  0  0  0
   44.8507   36.4089   43.0460 H   0  0  0  0  0  0  0  0  0  0  0  0
   45.8859   31.5996   46.0125 H   0  0  0  0  0  0  0  0  0  0  0  0
   47.4015   32.5602   46.3374 H   0  0  0  0  0  0  0  0  0  0  0  0
   46.5552   31.9319   48.4314 H   0  0  0  0  0  0  0  0  0  0  0  0
   46.1472   33.6656   48.2044 H   0  0  0  0  0  0  0  0  0  0  0  0
   44.3312   32.2877   49.0281 H   0  0  0  0  0  0  0  0  0  0  0  0
   43.9811   33.0719   47.5819 H   0  0  0  0  0  0  0  0  0  0  0  0
  1  6  2  0
  2  1  1  0
  3  2  2  0
  3  4  1  0
  4  5  2  0
  5  6  1  0
  5 11  1  0
  7  9  1  0
  7  3  1  0
  8  7  1  0
 10  7  1  0
 11 12  1  0
 12 13  1  0
  1 14  1  0
  2 15  1  0
 11 16  1  0
 11 17  1  0
 12 18  1  0
 12 19  1  0
 13 20  1  0
 13 21  1  0
M  ISO  8  14  14  15  14  16   8  17   8  18   8  19   8  20   5  21   5
M  END
>  <minimizedAffinity>  (1) 
-4.4660306

>  <minimizedRMSD>  (1) 
0.458976507

$$$$
