
     RDKit          3D

 26 27  0  0  0  0  0  0  0  0999 V2000
   46.2950   33.0090   46.4280 C   0  0  0  0  0  0  0  0  0  0  0  0
   44.5290   35.7730   44.6090 C   0  0  0  0  0  0  0  0  0  0  0  0
   45.2020   35.7150   43.3650 C   0  0  0  0  0  0  0  0  0  0  0  0
   46.2040   34.7460   43.2260 C   0  0  0  0  0  0  0  0  0  0  0  0
   46.4660   33.9300   44.2860 N   0  0  0  0  0  0  0  0  0  0  0  0
   45.7870   34.0340   45.4540 C   0  0  0  0  0  0  0  0  0  0  0  0
   44.8230   34.9520   45.6140 N   0  0  0  0  0  0  0  0  0  0  0  0
   46.8730   34.7140   41.9380 C   0  0  0  0  0  0  0  0  0  0  0  0
   47.6590   33.5620   41.8630 F   0  0  0  0  0  0  0  0  0  0  0  0
   47.7650   35.7720   41.9260 F   0  0  0  0  0  0  0  0  0  0  0  0
   46.0140   34.7260   40.8760 F   0  0  0  0  0  0  0  0  0  0  0  0
   45.3450   32.7770   47.5600 C   0  0  0  0  0  0  0  0  0  0  0  0
   45.2780   31.3300   47.9000 C   0  0  0  0  0  0  0  0  0  0  0  0
   45.2790   30.2070   47.1000 C   0  0  0  0  0  0  0  0  0  0  0  0
   45.2000   29.1400   47.9600 C   0  0  0  0  0  0  0  0  0  0  0  0
   45.1530   29.5880   49.2270 N   0  0  0  0  0  0  0  0  0  0  0  0
   45.2020   30.9260   49.1720 N   0  0  0  0  0  0  0  0  0  0  0  0
   47.2547   33.3566   46.8380 H   0  0  0  0  0  0  0  0  0  0  0  0
   46.4085   32.0587   45.8857 H   0  0  0  0  0  0  0  0  0  0  0  0
   43.7360   36.5223   44.7496 H   0  0  0  0  0  0  0  0  0  0  0  0
   44.9491   36.4010   42.5432 H   0  0  0  0  0  0  0  0  0  0  0  0
   45.6880   33.3397   48.4408 H   0  0  0  0  0  0  0  0  0  0  0  0
   44.3435   33.1167   47.2574 H   0  0  0  0  0  0  0  0  0  0  0  0
   45.3320   30.1732   46.0018 H   0  0  0  0  0  0  0  0  0  0  0  0
   45.1785   28.0821   47.6592 H   0  0  0  0  0  0  0  0  0  0  0  0
   45.0911   29.0118   50.0785 H   0  0  0  0  0  0  0  0  0  0  0  0
  1 12  1  0
  2  7  2  0
  3  2  1  0
  4  3  2  0
  4  5  1  0
  5  6  2  0
  6  7  1  0
  6  1  1  0
  8  4  1  0
  9  8  1  0
 10  8  1  0
 11  8  1  0
 12 13  1  0
 13 17  2  0
 14 13  1  0
 14 15  2  0
 15 16  1  0
 17 16  1  0
  1 18  1  0
  1 19  1  0
  2 20  1  0
  3 21  1  0
 12 22  1  0
 12 23  1  0
 14 24  1  0
 15 25  1  0
 16 26  1  0
M  ISO  8  18   8  19   8  20  14  21  14  22   8  23   8  24  14  25  14
M  ISO  1  26   9
M  END
>  <minimizedAffinity>  (1) 
-5.3707881

>  <minimizedRMSD>  (1) 
0.880488336

$$$$
