
     RDKit          3D

 34 36  0  0  0  0  0  0  0  0999 V2000
   46.8570   33.4030   44.5250 C   0  0  0  0  0  0  0  0  0  0  0  0
   46.1160   33.8060   43.3130 C   0  0  0  0  0  0  0  0  0  0  0  0
   46.5820   34.3040   42.1290 C   0  0  0  0  0  0  0  0  0  0  0  0
   45.5050   34.5240   41.3150 C   0  0  0  0  0  0  0  0  0  0  0  0
   44.4110   34.1680   41.9950 N   0  0  0  0  0  0  0  0  0  0  0  0
   44.7950   33.7320   43.2120 N   0  0  0  0  0  0  0  0  0  0  0  0
   43.0320   34.1890   41.6310 C   0  0  0  0  0  0  0  0  0  0  0  0
   42.4140   35.4350   41.5700 C   0  0  0  0  0  0  0  0  0  0  0  0
   41.0690   35.5290   41.2210 C   0  0  0  0  0  0  0  0  0  0  0  0
   40.3510   34.4200   40.9390 N   0  0  0  0  0  0  0  0  0  0  0  0
   40.9840   33.2220   41.0090 C   0  0  0  0  0  0  0  0  0  0  0  0
   42.2860   33.0860   41.3430 N   0  0  0  0  0  0  0  0  0  0  0  0
   45.9810   33.5130   45.7470 C   0  0  0  0  0  0  0  0  0  0  0  0
   47.7170   31.8260   48.6210 C   0  0  0  0  0  0  0  0  0  0  0  0
   46.9760   30.6180   48.6730 C   0  0  0  0  0  0  0  0  0  0  0  0
   45.9550   30.4610   47.7430 C   0  0  0  0  0  0  0  0  0  0  0  0
   45.7420   31.4650   46.8630 N   0  0  0  0  0  0  0  0  0  0  0  0
   46.4660   32.5990   46.8430 C   0  0  0  0  0  0  0  0  0  0  0  0
   47.4490   32.7700   47.7230 N   0  0  0  0  0  0  0  0  0  0  0  0
   45.2080   29.2110   47.8170 C   0  0  0  0  0  0  0  0  0  0  0  0
   44.6600   29.0740   49.0930 F   0  0  0  0  0  0  0  0  0  0  0  0
   46.1290   28.1870   47.7030 F   0  0  0  0  0  0  0  0  0  0  0  0
   44.1910   29.1300   46.9020 F   0  0  0  0  0  0  0  0  0  0  0  0
   47.7319   34.0583   44.6478 H   0  0  0  0  0  0  0  0  0  0  0  0
   47.1765   32.3565   44.4123 H   0  0  0  0  0  0  0  0  0  0  0  0
   47.6354   34.4941   41.8756 H   0  0  0  0  0  0  0  0  0  0  0  0
   45.5340   34.9209   40.2895 H   0  0  0  0  0  0  0  0  0  0  0  0
   42.9881   36.3453   41.7975 H   0  0  0  0  0  0  0  0  0  0  0  0
   40.5864   36.5164   41.1745 H   0  0  0  0  0  0  0  0  0  0  0  0
   40.4067   32.3136   40.7819 H   0  0  0  0  0  0  0  0  0  0  0  0
   45.9988   34.5512   46.1101 H   0  0  0  0  0  0  0  0  0  0  0  0
   44.9574   33.2185   45.4722 H   0  0  0  0  0  0  0  0  0  0  0  0
   48.5332   31.9863   49.3408 H   0  0  0  0  0  0  0  0  0  0  0  0
   47.1995   29.8391   49.4169 H   0  0  0  0  0  0  0  0  0  0  0  0
  1 13  1  0
  2  1  1  0
  3  2  1  0
  4  5  1  0
  4  3  2  0
  5  6  1  0
  6  2  2  0
  7  5  1  0
  8  7  2  0
  9  8  1  0
 10 11  1  0
 10  9  2  0
 11 12  2  0
 12  7  1  0
 13 18  1  0
 14 15  2  0
 16 20  1  0
 16 15  1  0
 17 16  2  0
 18 17  1  0
 18 19  2  0
 19 14  1  0
 20 21  1  0
 22 20  1  0
 23 20  1  0
  1 24  1  0
  1 25  1  0
  3 26  1  0
  4 27  1  0
  8 28  1  0
  9 29  1  0
 11 30  1  0
 13 31  1  0
 13 32  1  0
 14 33  1  0
 15 34  1  0
M  ISO  8  24   8  25   8  26  14  27  14  28  14  29  14  30  14  31   8
M  ISO  3  32   8  33  14  34  14
M  END
>  <minimizedAffinity>  (1) 
-5.32906246

>  <minimizedRMSD>  (1) 
8.68091774

$$$$
