
     RDKit          3D

 39 41  0  0  0  0  0  0  0  0999 V2000
   45.4330   30.6760   47.1870 C   0  0  0  0  0  0  0  0  0  0  0  0
   45.4260   30.0370   45.9670 C   0  0  0  0  0  0  0  0  0  0  0  0
   45.1740   28.7060   46.2110 C   0  0  0  0  0  0  0  0  0  0  0  0
   45.0340   28.5480   47.5230 N   0  0  0  0  0  0  0  0  0  0  0  0
   45.1940   29.7480   48.0970 N   0  0  0  0  0  0  0  0  0  0  0  0
   42.4290   28.4820   45.2070 Cl  0  0  0  0  0  0  0  0  0  0  0  0
   43.8140   27.6160   44.5230 C   0  0  0  0  0  0  0  0  0  0  0  0
   45.0850   27.7930   45.0900 C   0  0  0  0  0  0  0  0  0  0  0  0
   46.0440   27.0530   44.4460 C   0  0  0  0  0  0  0  0  0  0  0  0
   45.8080   26.2310   43.3690 C   0  0  0  0  0  0  0  0  0  0  0  0
   44.5350   26.1050   42.8640 C   0  0  0  0  0  0  0  0  0  0  0  0
   43.5180   26.8120   43.4510 C   0  0  0  0  0  0  0  0  0  0  0  0
   44.7450   27.3010   48.2330 C   0  0  0  0  0  0  0  0  0  0  0  0
   44.3490   27.6070   49.5570 F   0  0  0  0  0  0  0  0  0  0  0  0
   45.8090   26.4740   48.2110 F   0  0  0  0  0  0  0  0  0  0  0  0
   43.6440   26.7060   47.6600 F   0  0  0  0  0  0  0  0  0  0  0  0
   45.6450   32.0990   47.5000 C   0  0  0  0  0  0  0  0  0  0  0  0
   46.6190   32.7360   46.5510 C   0  0  0  0  0  0  0  0  0  0  0  0
   44.5550   35.4360   45.0310 C   0  0  0  0  0  0  0  0  0  0  0  0
   45.0940   35.4760   43.7240 C   0  0  0  0  0  0  0  0  0  0  0  0
   46.1170   34.5880   43.4410 C   0  0  0  0  0  0  0  0  0  0  0  0
   46.5000   33.7740   44.4360 N   0  0  0  0  0  0  0  0  0  0  0  0
   45.9920   33.7410   45.6630 C   0  0  0  0  0  0  0  0  0  0  0  0
   45.0160   34.5810   45.9490 N   0  0  0  0  0  0  0  0  0  0  0  0
   46.6800   34.6280   42.0870 C   0  0  0  0  0  0  0  0  0  0  0  0
   47.4570   33.4940   41.8760 F   0  0  0  0  0  0  0  0  0  0  0  0
   47.5980   35.6820   42.0870 F   0  0  0  0  0  0  0  0  0  0  0  0
   45.7270   34.7420   41.1210 F   0  0  0  0  0  0  0  0  0  0  0  0
   45.5906   30.5022   44.9839 H   0  0  0  0  0  0  0  0  0  0  0  0
   47.0768   27.1222   44.8181 H   0  0  0  0  0  0  0  0  0  0  0  0
   46.6384   25.6736   42.9109 H   0  0  0  0  0  0  0  0  0  0  0  0
   44.3365   25.4484   42.0041 H   0  0  0  0  0  0  0  0  0  0  0  0
   42.4883   26.7367   43.0715 H   0  0  0  0  0  0  0  0  0  0  0  0
   44.6824   32.6267   47.4307 H   0  0  0  0  0  0  0  0  0  0  0  0
   46.0599   32.1690   48.5163 H   0  0  0  0  0  0  0  0  0  0  0  0
   47.4071   33.2305   47.1378 H   0  0  0  0  0  0  0  0  0  0  0  0
   47.0220   31.9380   45.9101 H   0  0  0  0  0  0  0  0  0  0  0  0
   43.7387   36.1234   45.2977 H   0  0  0  0  0  0  0  0  0  0  0  0
   44.7175   36.1803   42.9675 H   0  0  0  0  0  0  0  0  0  0  0  0
  1 17  1  0
  1  5  2  0
  2  3  2  0
  2  1  1  0
  3  4  1  0
  4  5  1  0
  4 13  1  0
  7  8  2  0
  7  6  1  0
  8  3  1  0
  9  8  1  0
 10  9  2  0
 11 10  1  0
 11 12  2  0
 12  7  1  0
 13 14  1  0
 15 13  1  0
 16 13  1  0
 18 17  1  0
 19 24  2  0
 20 19  1  0
 21 20  2  0
 21 22  1  0
 22 23  2  0
 23 24  1  0
 23 18  1  0
 25 21  1  0
 26 25  1  0
 27 25  1  0
 28 25  1  0
  2 29  1  0
  9 30  1  0
 10 31  1  0
 11 32  1  0
 12 33  1  0
 17 34  1  0
 17 35  1  0
 18 36  1  0
 18 37  1  0
 19 38  1  0
 20 39  1  0
M  ISO  8  29  14  30  14  31  14  32  14  33  14  34   8  35   8  36   8
M  ISO  3  37   8  38  14  39  14
M  END
>  <minimizedAffinity>  (1) 
-5.40613413

>  <minimizedRMSD>  (1) 
1.03377843

$$$$
