
     RDKit          3D

 40 42  0  0  1  0  0  0  0  0999 V2000
   45.4730   30.6470   47.1520 C   0  0  0  0  0  0  0  0  0  0  0  0
   45.6620   29.9720   45.9830 C   0  0  0  0  0  0  0  0  0  0  0  0
   45.4110   28.6460   46.2440 C   0  0  0  0  0  0  0  0  0  0  0  0
   45.0810   28.5320   47.5310 N   0  0  0  0  0  0  0  0  0  0  0  0
   45.1230   29.7470   48.0620 N   0  0  0  0  0  0  0  0  0  0  0  0
   47.6840   27.0890   46.0870 O   0  0  0  0  0  0  0  0  0  0  0  0
   46.6700   26.6830   45.4570 C   0  0  0  0  0  0  0  0  0  0  0  0
   45.4940   27.5550   45.2720 C   0  0  1  0  0  0  0  0  0  0  0  0
   44.3800   26.5160   45.4290 C   0  0  0  0  0  0  0  0  0  0  0  0
   44.9130   25.4660   44.4580 C   0  0  0  0  0  0  0  0  0  0  0  0
   46.3250   25.4470   44.7980 N   0  0  0  0  0  0  0  0  0  0  0  0
   44.7270   27.3070   48.2650 C   0  0  0  0  0  0  0  0  0  0  0  0
   44.2940   27.6360   49.5540 F   0  0  0  0  0  0  0  0  0  0  0  0
   45.7750   26.4400   48.2690 F   0  0  0  0  0  0  0  0  0  0  0  0
   43.6510   26.7170   47.6230 F   0  0  0  0  0  0  0  0  0  0  0  0
   45.6060   32.0800   47.4440 C   0  0  0  0  0  0  0  0  0  0  0  0
   46.6120   32.7500   46.5380 C   0  0  0  0  0  0  0  0  0  0  0  0
   44.5540   35.4500   45.0020 C   0  0  0  0  0  0  0  0  0  0  0  0
   45.1070   35.4860   43.6980 C   0  0  0  0  0  0  0  0  0  0  0  0
   46.1320   34.6030   43.4210 C   0  0  0  0  0  0  0  0  0  0  0  0
   46.5130   33.7890   44.4140 N   0  0  0  0  0  0  0  0  0  0  0  0
   45.9970   33.7520   45.6390 C   0  0  0  0  0  0  0  0  0  0  0  0
   45.0160   34.5890   45.9200 N   0  0  0  0  0  0  0  0  0  0  0  0
   46.7020   34.6440   42.0750 C   0  0  0  0  0  0  0  0  0  0  0  0
   47.4960   33.5150   41.8670 F   0  0  0  0  0  0  0  0  0  0  0  0
   47.6130   35.7040   42.0740 F   0  0  0  0  0  0  0  0  0  0  0  0
   45.7590   34.7450   41.0990 F   0  0  0  0  0  0  0  0  0  0  0  0
   45.9585   30.4052   45.0163 H   0  0  0  0  0  0  0  0  0  0  0  0
   45.4804   28.1121   44.3236 H   0  0  0  0  0  0  0  0  0  0  0  0
   44.3123   26.1329   46.4579 H   0  0  0  0  0  0  0  0  0  0  0  0
   43.3594   26.8757   45.2313 H   0  0  0  0  0  0  0  0  0  0  0  0
   44.7556   25.7691   43.4124 H   0  0  0  0  0  0  0  0  0  0  0  0
   44.4187   24.4868   44.5407 H   0  0  0  0  0  0  0  0  0  0  0  0
   46.9763   24.6740   44.6001 H   0  0  0  0  0  0  0  0  0  0  0  0
   44.6272   32.5629   47.3068 H   0  0  0  0  0  0  0  0  0  0  0  0
   45.9589   32.1847   48.4806 H   0  0  0  0  0  0  0  0  0  0  0  0
   47.3659   33.2530   47.1613 H   0  0  0  0  0  0  0  0  0  0  0  0
   47.0599   31.9690   45.9060 H   0  0  0  0  0  0  0  0  0  0  0  0
   43.7357   36.1368   45.2644 H   0  0  0  0  0  0  0  0  0  0  0  0
   44.7351   36.1884   42.9375 H   0  0  0  0  0  0  0  0  0  0  0  0
  1 16  1  0
  1  5  2  0
  2  3  2  0
  2  1  1  0
  3  4  1  0
  4  5  1  0
  4 12  1  0
  7  6  2  0
  8  9  1  0
  8  7  1  0
  8  3  1  0
 10 11  1  0
 10  9  1  0
 11  7  1  0
 12 14  1  0
 12 13  1  0
 15 12  1  0
 17 16  1  0
 18 23  2  0
 19 18  1  0
 20 19  2  0
 20 21  1  0
 21 22  2  0
 22 23  1  0
 22 17  1  0
 24 20  1  0
 25 24  1  0
 26 24  1  0
 27 24  1  0
  2 28  1  0
  8 29  1  6
  9 30  1  0
  9 31  1  0
 10 32  1  0
 10 33  1  0
 11 34  1  0
 16 35  1  0
 16 36  1  0
 17 37  1  0
 17 38  1  0
 18 39  1  0
 19 40  1  0
M  ISO  8  28  14  29  13  30  13  31  13  32  13  33  13  34  10  35   8
M  ISO  5  36   8  37   8  38   8  39  14  40  14
M  END
>  <minimizedAffinity>  (1) 
-5.27154493

>  <minimizedRMSD>  (1) 
0.74537915

$$$$
