
     RDKit          3D

 30 31  0  0  0  0  0  0  0  0999 V2000
   46.6230   32.8220   46.5070 C   0  0  0  0  0  0  0  0  0  0  0  0
   44.5470   35.4790   44.9260 C   0  0  0  0  0  0  0  0  0  0  0  0
   45.1030   35.5090   43.6230 C   0  0  0  0  0  0  0  0  0  0  0  0
   46.1430   34.6300   43.3660 C   0  0  0  0  0  0  0  0  0  0  0  0
   46.5220   33.8360   44.3750 N   0  0  0  0  0  0  0  0  0  0  0  0
   45.9990   33.8090   45.5980 C   0  0  0  0  0  0  0  0  0  0  0  0
   45.0070   34.6410   45.8590 N   0  0  0  0  0  0  0  0  0  0  0  0
   46.7200   34.6610   42.0250 C   0  0  0  0  0  0  0  0  0  0  0  0
   47.5110   33.5260   41.8300 F   0  0  0  0  0  0  0  0  0  0  0  0
   47.6290   35.7210   42.0220 F   0  0  0  0  0  0  0  0  0  0  0  0
   45.7820   34.7520   41.0410 F   0  0  0  0  0  0  0  0  0  0  0  0
   45.6300   32.1450   47.4110 C   0  0  0  0  0  0  0  0  0  0  0  0
   45.4910   30.7150   47.0870 C   0  0  0  0  0  0  0  0  0  0  0  0
   45.6630   30.0630   45.8890 C   0  0  0  0  0  0  0  0  0  0  0  0
   45.4110   28.7380   46.1350 C   0  0  0  0  0  0  0  0  0  0  0  0
   45.1020   28.5920   47.4200 N   0  0  0  0  0  0  0  0  0  0  0  0
   45.1550   29.7910   47.9760 N   0  0  0  0  0  0  0  0  0  0  0  0
   44.7600   27.3450   48.1230 C   0  0  0  0  0  0  0  0  0  0  0  0
   44.3390   27.6450   49.4280 F   0  0  0  0  0  0  0  0  0  0  0  0
   45.7990   26.4830   48.0960 F   0  0  0  0  0  0  0  0  0  0  0  0
   43.6630   26.7760   47.4810 F   0  0  0  0  0  0  0  0  0  0  0  0
   45.4750   27.7260   45.1800 O   0  0  0  0  0  0  0  0  0  0  0  0
   47.3671   33.3404   47.1296 H   0  0  0  0  0  0  0  0  0  0  0  0
   47.0823   32.0428   45.8810 H   0  0  0  0  0  0  0  0  0  0  0  0
   43.7195   36.1598   45.1743 H   0  0  0  0  0  0  0  0  0  0  0  0
   44.7269   36.1975   42.8520 H   0  0  0  0  0  0  0  0  0  0  0  0
   45.9697   32.2439   48.4525 H   0  0  0  0  0  0  0  0  0  0  0  0
   44.6513   32.6270   47.2703 H   0  0  0  0  0  0  0  0  0  0  0  0
   45.9460   30.5138   44.9264 H   0  0  0  0  0  0  0  0  0  0  0  0
   45.2785   26.7902   45.4365 H   0  0  0  0  0  0  0  0  0  0  0  0
  1 12  1  0
  2  7  2  0
  3  2  1  0
  4  3  2  0
  4  5  1  0
  5  6  2  0
  6  7  1  0
  6  1  1  0
  8  4  1  0
  9  8  1  0
 10  8  1  0
 11  8  1  0
 13 12  1  0
 13 17  2  0
 14 15  2  0
 14 13  1  0
 15 16  1  0
 16 17  1  0
 16 18  1  0
 18 19  1  0
 20 18  1  0
 21 18  1  0
 22 15  1  0
  1 23  1  0
  1 24  1  0
  2 25  1  0
  3 26  1  0
 12 27  1  0
 12 28  1  0
 14 29  1  0
 22 30  1  0
M  ISO  8  23   8  24   8  25  14  26  14  27   8  28   8  29  14  30   3
M  END
>  <minimizedAffinity>  (1) 
-5.23506451

>  <minimizedRMSD>  (1) 
0.0352650583

$$$$
