
     RDKit          3D

 37 39  0  0  0  0  0  0  0  0999 V2000
   45.6560   31.9690   47.4930 C   0  0  0  0  0  0  0  0  0  0  0  0
   45.4190   30.5520   47.1840 C   0  0  0  0  0  0  0  0  0  0  0  0
   45.4240   29.9100   45.9890 C   0  0  0  0  0  0  0  0  0  0  0  0
   45.1470   28.5860   46.2390 C   0  0  0  0  0  0  0  0  0  0  0  0
   44.9800   28.4410   47.5480 N   0  0  0  0  0  0  0  0  0  0  0  0
   45.1480   29.6400   48.1080 N   0  0  0  0  0  0  0  0  0  0  0  0
   45.0570   27.5440   45.2210 C   0  0  0  0  0  0  0  0  0  0  0  0
   43.9120   27.3820   44.4690 C   0  0  0  0  0  0  0  0  0  0  0  0
   43.7370   26.4260   43.4860 C   0  0  0  0  0  0  0  0  0  0  0  0
   44.7720   25.5950   43.2570 N   0  0  0  0  0  0  0  0  0  0  0  0
   45.8980   25.7380   43.9800 C   0  0  0  0  0  0  0  0  0  0  0  0
   46.0380   26.6780   44.9300 N   0  0  0  0  0  0  0  0  0  0  0  0
   44.6690   27.2100   48.2900 C   0  0  0  0  0  0  0  0  0  0  0  0
   44.2990   27.5310   49.6080 F   0  0  0  0  0  0  0  0  0  0  0  0
   45.7120   26.3520   48.2330 F   0  0  0  0  0  0  0  0  0  0  0  0
   43.5490   26.6300   47.7110 F   0  0  0  0  0  0  0  0  0  0  0  0
   46.6310   32.6020   46.5300 C   0  0  0  0  0  0  0  0  0  0  0  0
   44.5770   35.3780   45.1360 C   0  0  0  0  0  0  0  0  0  0  0  0
   45.1020   35.4560   43.8210 C   0  0  0  0  0  0  0  0  0  0  0  0
   46.1110   34.5700   43.4910 C   0  0  0  0  0  0  0  0  0  0  0  0
   46.5010   33.7170   44.4460 N   0  0  0  0  0  0  0  0  0  0  0  0
   46.0090   33.6430   45.6800 C   0  0  0  0  0  0  0  0  0  0  0  0
   45.0450   34.4810   46.0140 N   0  0  0  0  0  0  0  0  0  0  0  0
   46.6510   34.6510   42.1360 C   0  0  0  0  0  0  0  0  0  0  0  0
   47.4440   33.5320   41.8780 F   0  0  0  0  0  0  0  0  0  0  0  0
   47.5610   35.7110   42.1480 F   0  0  0  0  0  0  0  0  0  0  0  0
   45.6870   34.7790   41.1830 F   0  0  0  0  0  0  0  0  0  0  0  0
   44.6996   32.5096   47.4368 H   0  0  0  0  0  0  0  0  0  0  0  0
   46.0881   32.0291   48.5028 H   0  0  0  0  0  0  0  0  0  0  0  0
   45.6139   30.3631   45.0048 H   0  0  0  0  0  0  0  0  0  0  0  0
   43.0737   28.0662   44.6668 H   0  0  0  0  0  0  0  0  0  0  0  0
   42.7980   26.3477   42.9183 H   0  0  0  0  0  0  0  0  0  0  0  0
   46.7393   25.0566   43.7851 H   0  0  0  0  0  0  0  0  0  0  0  0
   47.4463   33.0618   47.1078 H   0  0  0  0  0  0  0  0  0  0  0  0
   46.9985   31.8080   45.8632 H   0  0  0  0  0  0  0  0  0  0  0  0
   43.7731   36.0646   45.4398 H   0  0  0  0  0  0  0  0  0  0  0  0
   44.7228   36.1899   43.0946 H   0  0  0  0  0  0  0  0  0  0  0  0
  2  1  1  0
  2  6  2  0
  3  4  2  0
  3  2  1  0
  4  5  1  0
  5  6  1  0
  5 13  1  0
  7  4  1  0
  8  7  2  0
  9  8  1  0
 10  9  2  0
 10 11  1  0
 11 12  2  0
 12  7  1  0
 13 14  1  0
 15 13  1  0
 16 13  1  0
 17  1  1  0
 18 23  2  0
 19 18  1  0
 20 19  2  0
 20 21  1  0
 21 22  2  0
 22 23  1  0
 22 17  1  0
 24 26  1  0
 24 20  1  0
 25 24  1  0
 27 24  1  0
  1 28  1  0
  1 29  1  0
  3 30  1  0
  8 31  1  0
  9 32  1  0
 11 33  1  0
 17 34  1  0
 17 35  1  0
 18 36  1  0
 19 37  1  0
M  ISO  8  28   8  29   8  30  14  31  14  32  14  33  14  34   8  35   8
M  ISO  2  36  14  37  14
M  END
>  <minimizedAffinity>  (1) 
-5.1817441

>  <minimizedRMSD>  (1) 
0.689014375

$$$$
