
     RDKit          3D

 35 36  0  0  0  0  0  0  0  0999 V2000
   45.6310   32.1440   47.4230 C   0  0  0  0  0  0  0  0  0  0  0  0
   45.4820   30.7020   47.0950 C   0  0  0  0  0  0  0  0  0  0  0  0
   45.6320   30.0570   45.9120 C   0  0  0  0  0  0  0  0  0  0  0  0
   45.3820   28.7300   46.1440 C   0  0  0  0  0  0  0  0  0  0  0  0
   45.0900   28.5840   47.4330 N   0  0  0  0  0  0  0  0  0  0  0  0
   45.1550   29.7890   48.0000 N   0  0  0  0  0  0  0  0  0  0  0  0
   44.7550   27.3450   48.1450 C   0  0  0  0  0  0  0  0  0  0  0  0
   44.3300   27.6440   49.4500 F   0  0  0  0  0  0  0  0  0  0  0  0
   45.8200   26.4860   48.1210 F   0  0  0  0  0  0  0  0  0  0  0  0
   43.6910   26.7510   47.5150 F   0  0  0  0  0  0  0  0  0  0  0  0
   45.4360   27.6610   45.1030 C   0  0  0  0  0  0  0  0  0  0  0  0
   46.8230   27.0800   44.9480 C   0  0  0  0  0  0  0  0  0  0  0  0
   46.6230   32.8120   46.5100 C   0  0  0  0  0  0  0  0  0  0  0  0
   44.5500   35.4760   44.9330 C   0  0  0  0  0  0  0  0  0  0  0  0
   45.1050   35.5080   43.6270 C   0  0  0  0  0  0  0  0  0  0  0  0
   46.1410   34.6280   43.3710 C   0  0  0  0  0  0  0  0  0  0  0  0
   46.5190   33.8310   44.3780 N   0  0  0  0  0  0  0  0  0  0  0  0
   45.9990   33.8010   45.6020 C   0  0  0  0  0  0  0  0  0  0  0  0
   45.0100   34.6330   45.8670 N   0  0  0  0  0  0  0  0  0  0  0  0
   46.7150   34.6590   42.0280 C   0  0  0  0  0  0  0  0  0  0  0  0
   47.5120   33.5330   41.8330 F   0  0  0  0  0  0  0  0  0  0  0  0
   47.6260   35.7190   42.0240 F   0  0  0  0  0  0  0  0  0  0  0  0
   45.7770   34.7530   41.0460 F   0  0  0  0  0  0  0  0  0  0  0  0
   44.6546   32.6389   47.3149 H   0  0  0  0  0  0  0  0  0  0  0  0
   45.9978   32.2292   48.4565 H   0  0  0  0  0  0  0  0  0  0  0  0
   45.9031   30.5128   44.9483 H   0  0  0  0  0  0  0  0  0  0  0  0
   44.7445   26.8544   45.3882 H   0  0  0  0  0  0  0  0  0  0  0  0
   45.1514   28.1132   44.1415 H   0  0  0  0  0  0  0  0  0  0  0  0
   47.2575   26.8980   45.9420 H   0  0  0  0  0  0  0  0  0  0  0  0
   46.7634   26.1312   44.3946 H   0  0  0  0  0  0  0  0  0  0  0  0
   47.4574   27.7880   44.3946 H   0  0  0  0  0  0  0  0  0  0  0  0
   47.3747   33.3272   47.1261 H   0  0  0  0  0  0  0  0  0  0  0  0
   47.0730   32.0280   45.8832 H   0  0  0  0  0  0  0  0  0  0  0  0
   43.7243   36.1582   45.1836 H   0  0  0  0  0  0  0  0  0  0  0  0
   44.7300   36.1982   42.8569 H   0  0  0  0  0  0  0  0  0  0  0  0
  2  1  1  0
  2  6  2  0
  3  4  2  0
  3  2  1  0
  4  5  1  0
  5  6  1  0
  5  7  1  0
  7  8  1  0
  9  7  1  0
 10  7  1  0
 11  4  1  0
 12 11  1  0
 13  1  1  0
 14 19  2  0
 15 14  1  0
 16 15  2  0
 16 17  1  0
 17 18  2  0
 18 19  1  0
 18 13  1  0
 20 16  1  0
 21 20  1  0
 22 20  1  0
 23 20  1  0
  1 24  1  0
  1 25  1  0
  3 26  1  0
 11 27  1  0
 11 28  1  0
 12 29  1  0
 12 30  1  0
 12 31  1  0
 13 32  1  0
 13 33  1  0
 14 34  1  0
 15 35  1  0
M  ISO  8  24   8  25   8  26  14  27   8  28   8  29   8  30   8  31   8
M  ISO  4  32   8  33   8  34  14  35  14
M  END
>  <minimizedAffinity>  (1) 
-5.05943251

>  <minimizedRMSD>  (1) 
0.0183559936

$$$$
