
     RDKit          3D

 37 38  0  0  0  0  0  0  0  0999 V2000
   46.9150   32.5750   47.1280 C   0  0  0  0  0  0  0  0  0  0  0  0
   44.7580   34.8210   45.1140 C   0  0  0  0  0  0  0  0  0  0  0  0
   45.3950   34.7650   43.8540 C   0  0  0  0  0  0  0  0  0  0  0  0
   46.5270   33.9640   43.7580 C   0  0  0  0  0  0  0  0  0  0  0  0
   46.8930   33.3300   44.8700 N   0  0  0  0  0  0  0  0  0  0  0  0
   46.3030   33.3780   46.0510 C   0  0  0  0  0  0  0  0  0  0  0  0
   45.2350   34.1270   46.1600 N   0  0  0  0  0  0  0  0  0  0  0  0
   47.2050   33.8880   42.4650 C   0  0  0  0  0  0  0  0  0  0  0  0
   48.4420   33.2810   42.6090 F   0  0  0  0  0  0  0  0  0  0  0  0
   47.4960   35.2020   42.1030 F   0  0  0  0  0  0  0  0  0  0  0  0
   46.4520   33.2380   41.5220 F   0  0  0  0  0  0  0  0  0  0  0  0
   44.9540   35.4560   42.7340 O   0  0  0  0  0  0  0  0  0  0  0  0
   43.4860   35.5300   40.5160 O   0  0  0  0  0  0  0  0  0  0  0  0
   43.5080   34.9730   41.9070 P   0  0  0  0  0  0  0  0  0  0  0  0
   42.2330   35.7460   42.7480 O   0  0  0  0  0  0  0  0  0  0  0  0
   43.3000   33.3160   41.9000 O   0  0  0  0  0  0  0  0  0  0  0  0
   45.9140   31.8800   48.0140 C   0  0  0  0  0  0  0  0  0  0  0  0
   45.6120   30.5260   47.5490 C   0  0  0  0  0  0  0  0  0  0  0  0
   45.6200   30.0170   46.2880 C   0  0  0  0  0  0  0  0  0  0  0  0
   45.2670   28.6940   46.3670 C   0  0  0  0  0  0  0  0  0  0  0  0
   45.0520   28.4190   47.6630 N   0  0  0  0  0  0  0  0  0  0  0  0
   45.2670   29.5290   48.3470 N   0  0  0  0  0  0  0  0  0  0  0  0
   44.6540   27.1360   48.2620 C   0  0  0  0  0  0  0  0  0  0  0  0
   44.2630   27.3230   49.5870 F   0  0  0  0  0  0  0  0  0  0  0  0
   45.6700   26.2220   48.1030 F   0  0  0  0  0  0  0  0  0  0  0  0
   43.5360   26.6730   47.5850 F   0  0  0  0  0  0  0  0  0  0  0  0
   45.1480   27.7650   45.2570 C   0  0  0  0  0  0  0  0  0  0  0  0
   44.0960   27.5990   44.5920 O   0  0  0  0  0  0  0  0  0  0  0  0
   47.5265   33.2423   47.7531 H   0  0  0  0  0  0  0  0  0  0  0  0
   47.5113   31.7891   46.6415 H   0  0  0  0  0  0  0  0  0  0  0  0
   43.8587   35.4418   45.2399 H   0  0  0  0  0  0  0  0  0  0  0  0
   42.3793   35.6573   43.7231 H   0  0  0  0  0  0  0  0  0  0  0  0
   43.2584   32.9847   42.8320 H   0  0  0  0  0  0  0  0  0  0  0  0
   46.3233   31.8216   49.0333 H   0  0  0  0  0  0  0  0  0  0  0  0
   44.9806   32.4616   47.9906 H   0  0  0  0  0  0  0  0  0  0  0  0
   45.8658   30.5682   45.3683 H   0  0  0  0  0  0  0  0  0  0  0  0
   46.0324   27.1713   44.9825 H   0  0  0  0  0  0  0  0  0  0  0  0
  1 17  1  0
  2  7  2  0
  3  2  1  0
  4  3  2  0
  4  5  1  0
  5  6  2  0
  6  7  1  0
  6  1  1  0
  8  9  1  0
  8  4  1  0
 10  8  1  0
 11  8  1  0
 12  3  1  0
 13 14  2  0
 14 12  1  0
 14 15  1  0
 16 14  1  0
 18 17  1  0
 18 22  2  0
 19 20  2  0
 19 18  1  0
 20 21  1  0
 21 23  1  0
 21 22  1  0
 23 24  1  0
 25 23  1  0
 26 23  1  0
 27 20  1  0
 28 27  2  0
  1 29  1  0
  1 30  1  0
  2 31  1  0
 15 32  1  0
 16 33  1  0
 17 34  1  0
 17 35  1  0
 19 36  1  0
 27 37  1  0
M  ISO  8  29   8  30   8  31  14  32   3  33   3  34   8  35   8  36  14
M  ISO  1  37   6
M  END
>  <minimizedAffinity>  (1) 
-5.56263351

>  <minimizedRMSD>  (1) 
0.928383052

$$$$
