
     RDKit          3D

 33 34  0  0  0  0  0  0  0  0999 V2000
   46.5250   32.5950   46.6340 C   0  0  0  0  0  0  0  0  0  0  0  0
   44.5490   35.4150   45.1960 C   0  0  0  0  0  0  0  0  0  0  0  0
   45.0950   35.4840   43.8820 C   0  0  0  0  0  0  0  0  0  0  0  0
   46.0860   34.5740   43.5850 C   0  0  0  0  0  0  0  0  0  0  0  0
   46.4240   33.7320   44.5620 N   0  0  0  0  0  0  0  0  0  0  0  0
   45.9250   33.6600   45.7810 C   0  0  0  0  0  0  0  0  0  0  0  0
   44.9800   34.5140   46.0920 N   0  0  0  0  0  0  0  0  0  0  0  0
   46.6620   34.6290   42.2420 C   0  0  0  0  0  0  0  0  0  0  0  0
   47.5820   33.5750   42.0860 F   0  0  0  0  0  0  0  0  0  0  0  0
   47.4710   35.7750   42.2120 F   0  0  0  0  0  0  0  0  0  0  0  0
   45.7340   34.5910   41.2560 F   0  0  0  0  0  0  0  0  0  0  0  0
   44.6440   36.4360   42.9280 N   0  0  0  0  0  0  0  0  0  0  0  0
   45.5550   31.9180   47.5250 C   0  0  0  0  0  0  0  0  0  0  0  0
   45.4340   30.4750   47.2430 C   0  0  0  0  0  0  0  0  0  0  0  0
   45.4970   29.8190   46.0440 C   0  0  0  0  0  0  0  0  0  0  0  0
   45.1780   28.5430   46.3150 C   0  0  0  0  0  0  0  0  0  0  0  0
   44.9440   28.3780   47.5930 N   0  0  0  0  0  0  0  0  0  0  0  0
   45.1020   29.5670   48.1480 N   0  0  0  0  0  0  0  0  0  0  0  0
   44.5990   27.1290   48.2840 C   0  0  0  0  0  0  0  0  0  0  0  0
   44.2920   27.4070   49.5990 F   0  0  0  0  0  0  0  0  0  0  0  0
   45.6250   26.2230   48.0940 F   0  0  0  0  0  0  0  0  0  0  0  0
   43.5360   26.5640   47.6380 F   0  0  0  0  0  0  0  0  0  0  0  0
   44.8760   27.5840   45.3140 C   0  0  0  0  0  0  0  0  0  0  0  0
   45.4110   26.6900   44.8330 O   0  0  0  0  0  0  0  0  0  0  0  0
   47.3073   33.0517   47.2580 H   0  0  0  0  0  0  0  0  0  0  0  0
   46.9204   31.8272   45.9527 H   0  0  0  0  0  0  0  0  0  0  0  0
   43.7537   36.1184   45.4834 H   0  0  0  0  0  0  0  0  0  0  0  0
   45.0606   36.4585   41.9863 H   0  0  0  0  0  0  0  0  0  0  0  0
   43.9005   37.1034   43.1783 H   0  0  0  0  0  0  0  0  0  0  0  0
   45.8847   32.0466   48.5665 H   0  0  0  0  0  0  0  0  0  0  0  0
   44.5694   32.3744   47.3510 H   0  0  0  0  0  0  0  0  0  0  0  0
   45.7548   30.2469   45.0640 H   0  0  0  0  0  0  0  0  0  0  0  0
   43.8722   27.7364   44.8907 H   0  0  0  0  0  0  0  0  0  0  0  0
  1 13  1  0
  2  7  2  0
  3  2  1  0
  4  3  2  0
  4  5  1  0
  5  6  2  0
  6  7  1  0
  6  1  1  0
  8  4  1  0
  9  8  1  0
 10  8  1  0
 11  8  1  0
 12  3  1  0
 14 13  1  0
 14 18  2  0
 15 16  2  0
 15 14  1  0
 16 17  1  0
 17 18  1  0
 17 19  1  0
 19 20  1  0
 21 19  1  0
 22 19  1  0
 23 16  1  0
 24 23  2  0
  1 25  1  0
  1 26  1  0
  2 27  1  0
 12 28  1  0
 12 29  1  0
 13 30  1  0
 13 31  1  0
 15 32  1  0
 23 33  1  0
M  ISO  7  25   8  26   8  27  14  30   8  31   8  32  14  33   6
M  END
>  <minimizedAffinity>  (1) 
-5.38892221

>  <minimizedRMSD>  (1) 
0.281124115

$$$$
