
     RDKit          3D

 32 33  0  0  0  0  0  0  0  0999 V2000
   45.5880   31.9770   47.4830 C   0  0  0  0  0  0  0  0  0  0  0  0
   45.4370   30.5550   47.1750 C   0  0  0  0  0  0  0  0  0  0  0  0
   45.5900   29.9020   45.9840 C   0  0  0  0  0  0  0  0  0  0  0  0
   45.3400   28.5790   46.2110 C   0  0  0  0  0  0  0  0  0  0  0  0
   45.0430   28.4370   47.5110 N   0  0  0  0  0  0  0  0  0  0  0  0
   45.1090   29.6360   48.0590 N   0  0  0  0  0  0  0  0  0  0  0  0
   44.7030   27.2000   48.2260 C   0  0  0  0  0  0  0  0  0  0  0  0
   44.3010   27.5030   49.5330 F   0  0  0  0  0  0  0  0  0  0  0  0
   45.7630   26.3240   48.1640 F   0  0  0  0  0  0  0  0  0  0  0  0
   43.6060   26.6210   47.6020 F   0  0  0  0  0  0  0  0  0  0  0  0
   45.3900   27.5120   45.2060 C   0  0  0  0  0  0  0  0  0  0  0  0
   44.3960   27.1220   44.5560 O   0  0  0  0  0  0  0  0  0  0  0  0
   46.5990   32.6520   46.5830 C   0  0  0  0  0  0  0  0  0  0  0  0
   44.5700   35.3960   45.1360 C   0  0  0  0  0  0  0  0  0  0  0  0
   45.1060   35.4860   43.8290 C   0  0  0  0  0  0  0  0  0  0  0  0
   46.1270   34.6050   43.5210 C   0  0  0  0  0  0  0  0  0  0  0  0
   46.5050   33.7630   44.4780 N   0  0  0  0  0  0  0  0  0  0  0  0
   46.0040   33.6790   45.6990 C   0  0  0  0  0  0  0  0  0  0  0  0
   45.0380   34.4980   46.0190 N   0  0  0  0  0  0  0  0  0  0  0  0
   46.6930   34.6860   42.1730 C   0  0  0  0  0  0  0  0  0  0  0  0
   47.6290   33.6630   41.9950 F   0  0  0  0  0  0  0  0  0  0  0  0
   47.4770   35.8480   42.1530 F   0  0  0  0  0  0  0  0  0  0  0  0
   45.7550   34.6720   41.1970 F   0  0  0  0  0  0  0  0  0  0  0  0
   44.5670   36.4420   42.9740 O   0  0  0  0  0  0  0  0  0  0  0  0
   44.6141   32.4724   47.3560 H   0  0  0  0  0  0  0  0  0  0  0  0
   45.9481   32.0619   48.5189 H   0  0  0  0  0  0  0  0  0  0  0  0
   45.8638   30.3579   45.0211 H   0  0  0  0  0  0  0  0  0  0  0  0
   46.3582   27.0269   45.0130 H   0  0  0  0  0  0  0  0  0  0  0  0
   47.3609   33.1335   47.2136 H   0  0  0  0  0  0  0  0  0  0  0  0
   47.0280   31.8738   45.9347 H   0  0  0  0  0  0  0  0  0  0  0  0
   43.7560   36.0732   45.4340 H   0  0  0  0  0  0  0  0  0  0  0  0
   44.9160   36.5347   42.0522 H   0  0  0  0  0  0  0  0  0  0  0  0
  2  1  1  0
  2  6  2  0
  3  4  2  0
  3  2  1  0
  4  5  1  0
  5  6  1  0
  5  7  1  0
  7  8  1  0
  9  7  1  0
 10  7  1  0
 11  4  1  0
 12 11  2  0
 13  1  1  0
 14 19  2  0
 15 14  1  0
 16 15  2  0
 16 17  1  0
 17 18  2  0
 18 19  1  0
 18 13  1  0
 20 16  1  0
 21 20  1  0
 22 20  1  0
 23 20  1  0
 24 15  1  0
  1 25  1  0
  1 26  1  0
  3 27  1  0
 11 28  1  0
 13 29  1  0
 13 30  1  0
 14 31  1  0
 24 32  1  0
M  ISO  8  25   8  26   8  27  14  28   6  29   8  30   8  31  14  32   3
M  END
>  <minimizedAffinity>  (1) 
-5.3877449

>  <minimizedRMSD>  (1) 
0.167351484

$$$$
