
     RDKit          3D

 37 39  0  0  0  0  0  0  0  0999 V2000
   46.5000   31.9280   47.8170 C   0  0  0  0  0  0  0  0  0  0  0  0
   46.3090   33.8020   44.6300 C   0  0  0  0  0  0  0  0  0  0  0  0
   47.0870   32.9730   43.7600 C   0  0  0  0  0  0  0  0  0  0  0  0
   47.6080   31.8450   44.3220 C   0  0  0  0  0  0  0  0  0  0  0  0
   47.3510   31.6180   45.6220 N   0  0  0  0  0  0  0  0  0  0  0  0
   46.6290   32.3920   46.4230 C   0  0  0  0  0  0  0  0  0  0  0  0
   46.1130   33.4810   45.9160 N   0  0  0  0  0  0  0  0  0  0  0  0
   47.2470   33.4710   42.3670 C   0  0  0  0  0  0  0  0  0  0  0  0
   46.3980   33.0410   41.3500 C   0  0  0  0  0  0  0  0  0  0  0  0
   46.9670   33.8870   39.8860 S   0  0  0  0  0  0  0  0  0  0  0  0
   48.3410   34.7580   40.8620 C   0  0  0  0  0  0  0  0  0  0  0  0
   48.0900   34.2980   41.8410 N   0  0  0  0  0  0  0  0  0  0  0  0
   48.4050   30.9840   43.4560 C   0  0  0  0  0  0  0  0  0  0  0  0
   49.0200   29.9770   44.2290 F   0  0  0  0  0  0  0  0  0  0  0  0
   49.4960   31.7500   43.0250 F   0  0  0  0  0  0  0  0  0  0  0  0
   47.7080   30.4070   42.4560 F   0  0  0  0  0  0  0  0  0  0  0  0
   45.1160   31.4540   48.1640 C   0  0  0  0  0  0  0  0  0  0  0  0
   44.9360   30.0290   47.8590 C   0  0  0  0  0  0  0  0  0  0  0  0
   44.8920   29.3930   46.6620 C   0  0  0  0  0  0  0  0  0  0  0  0
   44.7030   28.0600   46.9240 C   0  0  0  0  0  0  0  0  0  0  0  0
   44.6370   27.8980   48.2400 N   0  0  0  0  0  0  0  0  0  0  0  0
   44.7790   29.0970   48.7920 N   0  0  0  0  0  0  0  0  0  0  0  0
   44.4430   26.6510   48.9980 C   0  0  0  0  0  0  0  0  0  0  0  0
   44.1360   26.9410   50.3280 F   0  0  0  0  0  0  0  0  0  0  0  0
   45.5680   25.8640   48.8730 F   0  0  0  0  0  0  0  0  0  0  0  0
   43.3590   25.9900   48.4670 F   0  0  0  0  0  0  0  0  0  0  0  0
   44.5970   27.0060   45.9210 C   0  0  0  0  0  0  0  0  0  0  0  0
   43.5190   26.6890   45.3470 O   0  0  0  0  0  0  0  0  0  0  0  0
   46.7615   32.7604   48.4869 H   0  0  0  0  0  0  0  0  0  0  0  0
   47.1765   31.0689   47.9367 H   0  0  0  0  0  0  0  0  0  0  0  0
   45.8612   34.7250   44.2331 H   0  0  0  0  0  0  0  0  0  0  0  0
   45.5594   32.3339   41.4317 H   0  0  0  0  0  0  0  0  0  0  0  0
   49.1200   35.4739   40.5610 H   0  0  0  0  0  0  0  0  0  0  0  0
   44.9442   31.6127   49.2388 H   0  0  0  0  0  0  0  0  0  0  0  0
   44.3967   32.0267   47.5602 H   0  0  0  0  0  0  0  0  0  0  0  0
   44.9894   29.8578   45.6698 H   0  0  0  0  0  0  0  0  0  0  0  0
   45.5099   26.4557   45.6493 H   0  0  0  0  0  0  0  0  0  0  0  0
  1 17  1  0
  2  7  2  0
  3  4  2  0
  3  2  1  0
  4  5  1  0
  5  6  2  0
  6  1  1  0
  7  6  1  0
  8  3  1  0
  9  8  2  0
 10 11  1  0
 10  9  1  0
 11 12  2  0
 12  8  1  0
 13 14  1  0
 13  4  1  0
 15 13  1  0
 16 13  1  0
 18 17  1  0
 18 22  2  0
 19 20  2  0
 19 18  1  0
 20 21  1  0
 21 22  1  0
 21 23  1  0
 23 24  1  0
 25 23  1  0
 26 23  1  0
 27 20  1  0
 28 27  2  0
  1 29  1  0
  1 30  1  0
  2 31  1  0
  9 32  1  0
 11 33  1  0
 17 34  1  0
 17 35  1  0
 19 36  1  0
 27 37  1  0
M  ISO  8  29   8  30   8  31  14  32  14  33  14  34   8  35   8  36  14
M  ISO  1  37   6
M  END
>  <minimizedAffinity>  (1) 
-4.70379734

>  <minimizedRMSD>  (1) 
3.07992935

$$$$
