
     RDKit          3D

 29 31  0  0  0  0  0  0  0  0999 V2000
   44.4250   35.5200   41.8190 C   0  0  0  0  0  0  0  0  0  0  0  0
   43.6580   34.5340   41.0510 C   0  0  0  0  0  0  0  0  0  0  0  0
   44.2130   33.3610   40.5840 C   0  0  0  0  0  0  0  0  0  0  0  0
   43.5170   32.4190   39.8280 C   0  0  0  0  0  0  0  0  0  0  0  0
   42.1730   32.6690   39.5200 C   0  0  0  0  0  0  0  0  0  0  0  0
   41.5680   33.8260   39.9610 C   0  0  0  0  0  0  0  0  0  0  0  0
   40.2290   34.0680   39.6620 C   0  0  0  0  0  0  0  0  0  0  0  0
   39.6800   35.2300   40.1360 C   0  0  0  0  0  0  0  0  0  0  0  0
   40.3560   36.1790   40.8890 C   0  0  0  0  0  0  0  0  0  0  0  0
   41.6950   35.8840   41.1590 C   0  0  0  0  0  0  0  0  0  0  0  0
   42.3270   34.7190   40.7100 C   0  0  0  0  0  0  0  0  0  0  0  0
   44.3800   35.7930   44.2310 C   0  0  0  0  0  0  0  0  0  0  0  0
   44.7490   34.9490   43.1600 C   0  0  0  0  0  0  0  0  0  0  0  0
   45.3440   33.7420   43.4510 C   0  0  0  0  0  0  0  0  0  0  0  0
   45.5350   33.4450   44.7490 N   0  0  0  0  0  0  0  0  0  0  0  0
   45.1850   34.2440   45.7660 C   0  0  0  0  0  0  0  0  0  0  0  0
   44.5930   35.4470   45.5200 N   0  0  0  0  0  0  0  0  0  0  0  0
   43.8283   36.4357   41.9428 H   0  0  0  0  0  0  0  0  0  0  0  0
   45.3553   35.7638   41.2851 H   0  0  0  0  0  0  0  0  0  0  0  0
   45.2673   33.1566   40.8222 H   0  0  0  0  0  0  0  0  0  0  0  0
   44.0118   31.4999   39.4810 H   0  0  0  0  0  0  0  0  0  0  0  0
   41.6006   31.9414   38.9259 H   0  0  0  0  0  0  0  0  0  0  0  0
   39.6368   33.3551   39.0695 H   0  0  0  0  0  0  0  0  0  0  0  0
   38.6231   35.4255   39.9019 H   0  0  0  0  0  0  0  0  0  0  0  0
   39.8720   37.0991   41.2483 H   0  0  0  0  0  0  0  0  0  0  0  0
   42.2801   36.6017   41.7528 H   0  0  0  0  0  0  0  0  0  0  0  0
   43.9054   36.7603   44.0093 H   0  0  0  0  0  0  0  0  0  0  0  0
   45.6508   33.0485   42.6542 H   0  0  0  0  0  0  0  0  0  0  0  0
   45.3759   33.9283   46.8023 H   0  0  0  0  0  0  0  0  0  0  0  0
  1 13  1  0
  2  1  1  0
  3  2  2  0
  4  3  1  0
  5  4  2  0
  5  6  1  0
  6 11  2  0
  7  6  1  0
  7  8  2  0
  8  9  1  0
  9 10  2  0
 11  2  1  0
 11 10  1  0
 12 17  2  0
 13 14  2  0
 13 12  1  0
 14 15  1  0
 15 16  2  0
 17 16  1  0
  1 18  1  0
  1 19  1  0
  3 20  1  0
  4 21  1  0
  5 22  1  0
  7 23  1  0
  8 24  1  0
  9 25  1  0
 10 26  1  0
 12 27  1  0
 14 28  1  0
 16 29  1  0
M  ISO  8  18   8  19   8  20  14  21  14  22  14  23  14  24  14  25  14
M  ISO  4  26  14  27  14  28  14  29  14
M  END
>  <minimizedAffinity>  (1) 
-5.23255348

>  <minimizedRMSD>  (1) 
2.2243011

$$$$
