
     RDKit          3D

 25 26  0  0  0  0  0  0  0  0999 V2000
   44.3190   35.8790   43.7290 C   0  0  0  0  0  0  0  0  0  0  0  0
   44.2040   35.0410   42.6150 C   0  0  0  0  0  0  0  0  0  0  0  0
   44.6580   33.7360   42.7520 C   0  0  0  0  0  0  0  0  0  0  0  0
   45.1770   33.3550   43.9340 N   0  0  0  0  0  0  0  0  0  0  0  0
   45.2750   34.1790   44.9890 C   0  0  0  0  0  0  0  0  0  0  0  0
   44.8430   35.4690   44.9040 N   0  0  0  0  0  0  0  0  0  0  0  0
   43.6060   35.6590   41.4130 C   0  0  0  0  0  0  0  0  0  0  0  0
   42.4300   35.0010   40.9410 N   0  0  0  0  0  0  0  0  0  0  0  0
   42.2430   35.0450   39.5210 C   0  0  0  0  0  0  0  0  0  0  0  0
   40.7540   34.9720   39.2690 C   0  0  0  0  0  0  0  0  0  0  0  0
   40.1420   35.4850   40.5560 C   0  0  0  0  0  0  0  0  0  0  0  0
   41.2850   35.6920   41.5220 C   0  0  0  0  0  0  0  0  0  0  0  0
   43.9671   36.9177   43.6441 H   0  0  0  0  0  0  0  0  0  0  0  0
   44.5948   33.0284   41.9122 H   0  0  0  0  0  0  0  0  0  0  0  0
   45.7078   33.8100   45.9306 H   0  0  0  0  0  0  0  0  0  0  0  0
   43.3458   36.7004   41.6535 H   0  0  0  0  0  0  0  0  0  0  0  0
   44.3553   35.5816   40.6114 H   0  0  0  0  0  0  0  0  0  0  0  0
   42.6493   35.9833   39.1153 H   0  0  0  0  0  0  0  0  0  0  0  0
   42.7657   34.2108   39.0301 H   0  0  0  0  0  0  0  0  0  0  0  0
   40.4691   35.6092   38.4188 H   0  0  0  0  0  0  0  0  0  0  0  0
   40.4160   33.9570   39.0132 H   0  0  0  0  0  0  0  0  0  0  0  0
   39.6198   36.4362   40.3757 H   0  0  0  0  0  0  0  0  0  0  0  0
   39.4057   34.7733   40.9577 H   0  0  0  0  0  0  0  0  0  0  0  0
   41.0378   35.2635   42.5045 H   0  0  0  0  0  0  0  0  0  0  0  0
   41.4944   36.7608   41.6766 H   0  0  0  0  0  0  0  0  0  0  0  0
  1  6  2  0
  2  3  2  0
  2  1  1  0
  3  4  1  0
  4  5  2  0
  6  5  1  0
  7  2  1  0
  8  7  1  0
  8 12  1  0
  9  8  1  0
 10  9  1  0
 10 11  1  0
 11 12  1  0
  1 13  1  0
  3 14  1  0
  5 15  1  0
  7 16  1  0
  7 17  1  0
  9 18  1  0
  9 19  1  0
 10 20  1  0
 10 21  1  0
 11 22  1  0
 11 23  1  0
 12 24  1  0
 12 25  1  0
M  ISO  8  13  14  14  14  15  14  16   8  17   8  18  13  19  13  20  13
M  ISO  5  21  13  22  13  23  13  24  13  25  13
M  END
>  <minimizedAffinity>  (1) 
-3.9265213

>  <minimizedRMSD>  (1) 
0.937151611

$$$$
