
     RDKit          3D

 14 14  0  0  0  0  0  0  0  0999 V2000
   44.3880   35.7750   44.4010 C   0  0  0  0  0  0  0  0  0  0  0  0
   44.6770   35.0580   43.2500 C   0  0  0  0  0  0  0  0  0  0  0  0
   45.2990   33.8150   43.3820 C   0  0  0  0  0  0  0  0  0  0  0  0
   45.5770   33.4010   44.6350 N   0  0  0  0  0  0  0  0  0  0  0  0
   45.2890   34.1110   45.7370 C   0  0  0  0  0  0  0  0  0  0  0  0
   44.6800   35.3340   45.6610 N   0  0  0  0  0  0  0  0  0  0  0  0
   44.2800   35.7130   41.9980 C   0  0  0  0  0  0  0  0  0  0  0  0
   42.6110   35.1640   41.5050 S   0  0  0  0  0  0  0  0  0  0  0  0
   43.8964   36.7532   44.2939 H   0  0  0  0  0  0  0  0  0  0  0  0
   45.5507   33.2016   42.5043 H   0  0  0  0  0  0  0  0  0  0  0  0
   45.5485   33.7003   46.7239 H   0  0  0  0  0  0  0  0  0  0  0  0
   44.2763   36.8034   42.1431 H   0  0  0  0  0  0  0  0  0  0  0  0
   44.9959   35.4431   41.2077 H   0  0  0  0  0  0  0  0  0  0  0  0
   41.8619   34.9176   42.6252 H   0  0  0  0  0  0  0  0  0  0  0  0
  1  6  2  0
  2  3  2  0
  2  1  1  0
  3  4  1  0
  4  5  2  0
  6  5  1  0
  7  2  1  0
  8  7  1  0
  1  9  1  0
  3 10  1  0
  5 11  1  0
  7 12  1  0
  7 13  1  0
  8 14  1  0
M  ISO  6   9  14  10  14  11  14  12   8  13   8  14  11
M  END
>  <minimizedAffinity>  (1) 
-2.80493402

>  <minimizedRMSD>  (1) 
0.0497353114

$$$$
