
     RDKit          3D

 23 24  0  0  0  0  0  0  0  0999 V2000
   43.9300   35.2830   41.2870 C   0  0  0  0  0  0  0  0  0  0  0  0
   42.5830   34.7670   41.0900 N   0  0  0  0  0  0  0  0  0  0  0  0
   41.5480   35.4150   41.6280 C   0  0  0  0  0  0  0  0  0  0  0  0
   40.2770   34.8890   41.4160 C   0  0  0  0  0  0  0  0  0  0  0  0
   40.0940   33.7430   40.6810 C   0  0  0  0  0  0  0  0  0  0  0  0
   38.9300   33.2970   40.5110 O   0  0  0  0  0  0  0  0  0  0  0  0
   41.1720   33.1210   40.1550 N   0  0  0  0  0  0  0  0  0  0  0  0
   42.4200   33.6280   40.3560 C   0  0  0  0  0  0  0  0  0  0  0  0
   43.3740   32.9960   39.8380 O   0  0  0  0  0  0  0  0  0  0  0  0
   44.3240   35.9130   43.5880 C   0  0  0  0  0  0  0  0  0  0  0  0
   44.3880   34.8930   42.6250 C   0  0  0  0  0  0  0  0  0  0  0  0
   44.8680   33.6600   43.0400 C   0  0  0  0  0  0  0  0  0  0  0  0
   45.2420   33.5070   44.3250 N   0  0  0  0  0  0  0  0  0  0  0  0
   45.1640   34.5200   45.2260 C   0  0  0  0  0  0  0  0  0  0  0  0
   44.7050   35.7430   44.8820 N   0  0  0  0  0  0  0  0  0  0  0  0
   43.9231   36.3797   41.2024 H   0  0  0  0  0  0  0  0  0  0  0  0
   44.6061   34.8717   40.5230 H   0  0  0  0  0  0  0  0  0  0  0  0
   41.6941   36.3319   42.2178 H   0  0  0  0  0  0  0  0  0  0  0  0
   39.4027   35.4005   41.8450 H   0  0  0  0  0  0  0  0  0  0  0  0
   41.0497   32.2615   39.6008 H   0  0  0  0  0  0  0  0  0  0  0  0
   43.9466   36.8992   43.2799 H   0  0  0  0  0  0  0  0  0  0  0  0
   44.9421   32.8213   42.3321 H   0  0  0  0  0  0  0  0  0  0  0  0
   45.4830   34.3399   46.2632 H   0  0  0  0  0  0  0  0  0  0  0  0
  1 11  1  0
  2  1  1  0
  2  3  1  0
  4  3  2  0
  5  4  1  0
  6  5  2  0
  7  8  1  0
  7  5  1  0
  8  2  1  0
  9  8  2  0
 10 15  2  0
 11 12  2  0
 11 10  1  0
 12 13  1  0
 13 14  2  0
 15 14  1  0
  1 16  1  0
  1 17  1  0
  3 18  1  0
  4 19  1  0
  7 20  1  0
 10 21  1  0
 12 22  1  0
 14 23  1  0
M  ISO  8  16   8  17   8  18  14  19  14  20   9  21  14  22  14  23  14
M  END
>  <minimizedAffinity>  (1) 
-4.22689724

>  <minimizedRMSD>  (1) 
1.36965156

$$$$
