
     RDKit          3D

 36 39  0  0  0  0  0  0  0  0999 V2000
   44.4480   35.5620   43.9450 C   0  0  0  0  0  0  0  0  0  0  0  0
   44.4520   34.9040   42.7170 C   0  0  0  0  0  0  0  0  0  0  0  0
   44.8880   33.5970   42.7290 C   0  0  0  0  0  0  0  0  0  0  0  0
   45.2760   33.0380   43.8910 N   0  0  0  0  0  0  0  0  0  0  0  0
   45.2550   33.7170   45.0560 C   0  0  0  0  0  0  0  0  0  0  0  0
   44.8360   35.0070   45.1130 N   0  0  0  0  0  0  0  0  0  0  0  0
   45.6650   33.1220   46.2810 N   0  0  0  0  0  0  0  0  0  0  0  0
   45.2890   33.4730   47.5200 C   0  0  0  0  0  0  0  0  0  0  0  0
   45.8900   32.6750   48.4430 N   0  0  0  0  0  0  0  0  0  0  0  0
   46.6580   31.8050   47.7980 C   0  0  0  0  0  0  0  0  0  0  0  0
   47.4840   30.7790   48.1840 C   0  0  0  0  0  0  0  0  0  0  0  0
   48.1290   30.0820   47.2300 N   0  0  0  0  0  0  0  0  0  0  0  0
   47.9900   30.3580   45.9170 C   0  0  0  0  0  0  0  0  0  0  0  0
   47.1830   31.3610   45.5060 N   0  0  0  0  0  0  0  0  0  0  0  0
   46.5140   32.0890   46.4410 C   0  0  0  0  0  0  0  0  0  0  0  0
   43.9940   35.6770   41.5600 C   0  0  0  0  0  0  0  0  0  0  0  0
   42.7050   35.1600   41.1370 N   0  0  0  0  0  0  0  0  0  0  0  0
   41.5980   35.4960   41.8090 C   0  0  0  0  0  0  0  0  0  0  0  0
   40.3910   34.9720   41.3610 C   0  0  0  0  0  0  0  0  0  0  0  0
   40.3330   34.1370   40.2620 C   0  0  0  0  0  0  0  0  0  0  0  0
   39.2250   33.6910   39.8970 O   0  0  0  0  0  0  0  0  0  0  0  0
   41.4730   33.8260   39.6180 N   0  0  0  0  0  0  0  0  0  0  0  0
   42.6600   34.3300   40.0440 C   0  0  0  0  0  0  0  0  0  0  0  0
   43.6970   34.0020   39.3960 O   0  0  0  0  0  0  0  0  0  0  0  0
   47.6550   30.4620   49.5410 N   0  0  0  0  0  0  0  0  0  0  0  0
   44.1047   36.6069   43.9643 H   0  0  0  0  0  0  0  0  0  0  0  0
   44.9189   33.0146   41.7964 H   0  0  0  0  0  0  0  0  0  0  0  0
   44.5926   34.2911   47.7562 H   0  0  0  0  0  0  0  0  0  0  0  0
   48.5388   29.7610   45.1737 H   0  0  0  0  0  0  0  0  0  0  0  0
   43.8949   36.7366   41.8382 H   0  0  0  0  0  0  0  0  0  0  0  0
   44.7210   35.5902   40.7390 H   0  0  0  0  0  0  0  0  0  0  0  0
   41.6414   36.1620   42.6834 H   0  0  0  0  0  0  0  0  0  0  0  0
   39.4626   35.2276   41.8927 H   0  0  0  0  0  0  0  0  0  0  0  0
   41.4452   33.2029   38.7983 H   0  0  0  0  0  0  0  0  0  0  0  0
   48.2784   29.6891   49.8147 H   0  0  0  0  0  0  0  0  0  0  0  0
   47.1571   31.0023   50.2628 H   0  0  0  0  0  0  0  0  0  0  0  0
  1  6  2  0
  2  3  2  0
  2  1  1  0
  3  4  1  0
  4  5  2  0
  5  6  1  0
  5  7  1  0
  7 15  1  0
  7  8  1  0
  8  9  2  0
 10 11  2  0
 10  9  1  0
 11 25  1  0
 12 11  1  0
 13 12  2  0
 14 13  1  0
 14 15  2  0
 15 10  1  0
 16  2  1  0
 17 16  1  0
 17 18  1  0
 19 18  2  0
 20 19  1  0
 21 20  2  0
 22 23  1  0
 22 20  1  0
 23 17  1  0
 24 23  2  0
  1 26  1  0
  3 27  1  0
  8 28  1  0
 13 29  1  0
 16 30  1  0
 16 31  1  0
 18 32  1  0
 19 33  1  0
 22 34  1  0
 25 35  1  0
 25 36  1  0
M  ISO  8  26  14  27  14  28  14  29  14  30   8  31   8  32  14  33  14
M  ISO  1  34   9
M  END
>  <minimizedAffinity>  (1) 
-6.40305424

>  <minimizedRMSD>  (1) 
1.2776109

$$$$
