
     RDKit          3D

 38 40  0  0  0  0  0  0  0  0999 V2000
   44.4310   35.7020   43.8130 C   0  0  0  0  0  0  0  0  0  0  0  0
   44.2930   34.9840   42.6260 C   0  0  0  0  0  0  0  0  0  0  0  0
   44.6930   33.6660   42.6260 C   0  0  0  0  0  0  0  0  0  0  0  0
   45.1960   33.1340   43.7690 N   0  0  0  0  0  0  0  0  0  0  0  0
   45.3100   33.8700   44.8930 C   0  0  0  0  0  0  0  0  0  0  0  0
   44.9400   35.1540   44.9590 N   0  0  0  0  0  0  0  0  0  0  0  0
   45.8490   33.2190   46.0370 N   0  0  0  0  0  0  0  0  0  0  0  0
   45.2360   33.3770   47.3390 C   0  0  0  0  0  0  0  0  0  0  0  0
   44.8950   32.0410   47.9610 C   0  0  0  0  0  0  0  0  0  0  0  0
   46.1100   31.1660   47.9880 C   0  0  0  0  0  0  0  0  0  0  0  0
   46.7450   31.0280   46.6250 C   0  0  0  0  0  0  0  0  0  0  0  0
   47.0250   32.3720   45.9790 C   0  0  0  0  0  0  0  0  0  0  0  0
   43.7290   35.7270   41.4930 C   0  0  0  0  0  0  0  0  0  0  0  0
   42.4640   35.1260   41.1140 N   0  0  0  0  0  0  0  0  0  0  0  0
   41.3810   35.3390   41.8720 C   0  0  0  0  0  0  0  0  0  0  0  0
   40.1950   34.7460   41.4740 C   0  0  0  0  0  0  0  0  0  0  0  0
   40.1270   33.9670   40.3440 C   0  0  0  0  0  0  0  0  0  0  0  0
   39.0390   33.4440   40.0090 O   0  0  0  0  0  0  0  0  0  0  0  0
   41.2390   33.7810   39.6150 N   0  0  0  0  0  0  0  0  0  0  0  0
   42.4160   34.3580   39.9910 C   0  0  0  0  0  0  0  0  0  0  0  0
   43.4240   34.1400   39.2580 O   0  0  0  0  0  0  0  0  0  0  0  0
   44.1167   36.7560   43.8291 H   0  0  0  0  0  0  0  0  0  0  0  0
   44.6063   33.0550   41.7154 H   0  0  0  0  0  0  0  0  0  0  0  0
   45.9350   33.9103   48.0001 H   0  0  0  0  0  0  0  0  0  0  0  0
   44.3027   33.9454   47.2126 H   0  0  0  0  0  0  0  0  0  0  0  0
   44.5360   32.1983   48.9888 H   0  0  0  0  0  0  0  0  0  0  0  0
   44.1108   31.5531   47.3635 H   0  0  0  0  0  0  0  0  0  0  0  0
   46.8459   31.6032   48.6788 H   0  0  0  0  0  0  0  0  0  0  0  0
   45.7970   30.1642   48.3173 H   0  0  0  0  0  0  0  0  0  0  0  0
   47.6942   30.4824   46.7310 H   0  0  0  0  0  0  0  0  0  0  0  0
   46.0387   30.4859   45.9791 H   0  0  0  0  0  0  0  0  0  0  0  0
   47.3073   32.2162   44.9273 H   0  0  0  0  0  0  0  0  0  0  0  0
   47.8447   32.8641   46.5231 H   0  0  0  0  0  0  0  0  0  0  0  0
   43.5663   36.7752   41.7842 H   0  0  0  0  0  0  0  0  0  0  0  0
   44.4258   35.6915   40.6426 H   0  0  0  0  0  0  0  0  0  0  0  0
   41.4317   35.9619   42.7772 H   0  0  0  0  0  0  0  0  0  0  0  0
   39.2873   34.9018   42.0754 H   0  0  0  0  0  0  0  0  0  0  0  0
   41.2029   33.1987   38.7662 H   0  0  0  0  0  0  0  0  0  0  0  0
  1  6  2  0
  2  3  2  0
  2  1  1  0
  3  4  1  0
  4  5  2  0
  5  6  1  0
  5  7  1  0
  7  8  1  0
  8  9  1  0
  9 10  1  0
 11 10  1  0
 12  7  1  0
 12 11  1  0
 13  2  1  0
 14 13  1  0
 14 15  1  0
 16 15  2  0
 17 16  1  0
 18 17  2  0
 19 20  1  0
 19 17  1  0
 20 14  1  0
 21 20  2  0
  1 22  1  0
  3 23  1  0
  8 24  1  0
  8 25  1  0
  9 26  1  0
  9 27  1  0
 10 28  1  0
 10 29  1  0
 11 30  1  0
 11 31  1  0
 12 32  1  0
 12 33  1  0
 13 34  1  0
 13 35  1  0
 15 36  1  0
 16 37  1  0
 19 38  1  0
M  ISO  8  22  14  23  14  24  13  25  13  26  13  27  13  28  13  29  13
M  ISO  8  30  13  31  13  32  13  33  13  34   8  35   8  36  14  37  14
M  ISO  1  38   9
M  END
>  <minimizedAffinity>  (1) 
-5.62261057

>  <minimizedRMSD>  (1) 
1.00121164

$$$$
