
     RDKit          3D

 39 41  0  0  0  0  0  0  0  0999 V2000
   43.8150   35.7600   41.8160 C   0  0  0  0  0  0  0  0  0  0  0  0
   42.6010   35.0700   41.4060 N   0  0  0  0  0  0  0  0  0  0  0  0
   41.4810   35.2470   42.1080 C   0  0  0  0  0  0  0  0  0  0  0  0
   40.3460   34.5680   41.6780 C   0  0  0  0  0  0  0  0  0  0  0  0
   40.3740   33.7470   40.5780 C   0  0  0  0  0  0  0  0  0  0  0  0
   39.3270   33.1550   40.2280 O   0  0  0  0  0  0  0  0  0  0  0  0
   41.5380   33.6020   39.9020 N   0  0  0  0  0  0  0  0  0  0  0  0
   42.6480   34.2580   40.3100 C   0  0  0  0  0  0  0  0  0  0  0  0
   43.6880   34.0710   39.6290 O   0  0  0  0  0  0  0  0  0  0  0  0
   44.4960   35.6290   44.1350 C   0  0  0  0  0  0  0  0  0  0  0  0
   44.4490   35.0050   42.8870 C   0  0  0  0  0  0  0  0  0  0  0  0
   45.0070   33.7460   42.8040 C   0  0  0  0  0  0  0  0  0  0  0  0
   45.5550   33.1900   43.8970 N   0  0  0  0  0  0  0  0  0  0  0  0
   45.5780   33.8350   45.0910 C   0  0  0  0  0  0  0  0  0  0  0  0
   45.0560   35.0590   45.2480 N   0  0  0  0  0  0  0  0  0  0  0  0
   46.2000   33.1690   46.2700 C   0  0  0  0  0  0  0  0  0  0  0  0
   45.1160   32.7680   47.2770 C   0  0  0  0  0  0  0  0  0  0  0  0
   45.8430   32.6120   48.5950 C   0  0  0  0  0  0  0  0  0  0  0  0
   47.1760   31.9380   48.4270 C   0  0  0  0  0  0  0  0  0  0  0  0
   47.2730   31.1470   47.1470 C   0  0  0  0  0  0  0  0  0  0  0  0
   46.9230   31.9120   45.9110 C   0  0  0  0  0  0  0  0  0  0  0  0
   43.5629   36.7688   42.1748 H   0  0  0  0  0  0  0  0  0  0  0  0
   44.5027   35.8429   40.9615 H   0  0  0  0  0  0  0  0  0  0  0  0
   41.4560   35.9029   42.9907 H   0  0  0  0  0  0  0  0  0  0  0  0
   39.4039   34.6916   42.2322 H   0  0  0  0  0  0  0  0  0  0  0  0
   41.5783   32.9902   39.0744 H   0  0  0  0  0  0  0  0  0  0  0  0
   44.0592   36.6341   44.2300 H   0  0  0  0  0  0  0  0  0  0  0  0
   45.0031   33.2009   41.8486 H   0  0  0  0  0  0  0  0  0  0  0  0
   46.9114   33.8976   46.6860 H   0  0  0  0  0  0  0  0  0  0  0  0
   44.3474   33.5515   47.3500 H   0  0  0  0  0  0  0  0  0  0  0  0
   44.5976   31.8445   46.9797 H   0  0  0  0  0  0  0  0  0  0  0  0
   46.0017   33.6085   49.0331 H   0  0  0  0  0  0  0  0  0  0  0  0
   45.2245   31.9824   49.2515 H   0  0  0  0  0  0  0  0  0  0  0  0
   47.9615   32.7081   48.4248 H   0  0  0  0  0  0  0  0  0  0  0  0
   47.2985   31.2329   49.2624 H   0  0  0  0  0  0  0  0  0  0  0  0
   48.3070   30.7859   47.0450 H   0  0  0  0  0  0  0  0  0  0  0  0
   46.5364   30.3341   47.2279 H   0  0  0  0  0  0  0  0  0  0  0  0
   46.2783   31.2923   45.2704 H   0  0  0  0  0  0  0  0  0  0  0  0
   47.8480   32.1705   45.3747 H   0  0  0  0  0  0  0  0  0  0  0  0
  1 11  1  0
  2  1  1  0
  2  3  1  0
  4  3  2  0
  5  4  1  0
  6  5  2  0
  7  8  1  0
  7  5  1  0
  8  2  1  0
  9  8  2  0
 10 15  2  0
 11 10  1  0
 12 11  2  0
 12 13  1  0
 13 14  2  0
 14 15  1  0
 14 16  1  0
 16 17  1  0
 17 18  1  0
 19 18  1  0
 20 19  1  0
 21 16  1  0
 21 20  1  0
  1 22  1  0
  1 23  1  0
  3 24  1  0
  4 25  1  0
  7 26  1  0
 10 27  1  0
 12 28  1  0
 16 29  1  0
 17 30  1  0
 17 31  1  0
 18 32  1  0
 18 33  1  0
 19 34  1  0
 19 35  1  0
 20 36  1  0
 20 37  1  0
 21 38  1  0
 21 39  1  0
M  ISO  8  22   8  23   8  24  14  25  14  26   9  27  14  28  14  29  13
M  ISO  8  30  13  31  13  32  13  33  13  34  13  35  13  36  13  37  13
M  ISO  2  38  13  39  13
M  END
>  <minimizedAffinity>  (1) 
-5.40450954

>  <minimizedRMSD>  (1) 
1.10271347

$$$$
