
     RDKit          3D

 30 32  0  0  0  0  0  0  0  0999 V2000
   44.0540   35.7490   41.7500 C   0  0  0  0  0  0  0  0  0  0  0  0
   42.8010   35.1700   41.2740 N   0  0  0  0  0  0  0  0  0  0  0  0
   41.6560   35.4950   41.8820 C   0  0  0  0  0  0  0  0  0  0  0  0
   40.4820   34.9200   41.3980 C   0  0  0  0  0  0  0  0  0  0  0  0
   40.5080   34.0470   40.3280 C   0  0  0  0  0  0  0  0  0  0  0  0
   39.4360   33.5510   39.9240 O   0  0  0  0  0  0  0  0  0  0  0  0
   41.6930   33.7460   39.7440 N   0  0  0  0  0  0  0  0  0  0  0  0
   42.8410   34.3070   40.2150 C   0  0  0  0  0  0  0  0  0  0  0  0
   43.9020   33.9840   39.6240 O   0  0  0  0  0  0  0  0  0  0  0  0
   44.4510   35.7090   44.1450 C   0  0  0  0  0  0  0  0  0  0  0  0
   44.4920   35.0040   42.9360 C   0  0  0  0  0  0  0  0  0  0  0  0
   44.9350   33.7010   42.9820 C   0  0  0  0  0  0  0  0  0  0  0  0
   45.2980   33.1800   44.1600 N   0  0  0  0  0  0  0  0  0  0  0  0
   45.2440   33.8980   45.3190 C   0  0  0  0  0  0  0  0  0  0  0  0
   44.8230   35.1710   45.3410 N   0  0  0  0  0  0  0  0  0  0  0  0
   45.6910   33.1480   46.5340 C   0  0  0  0  0  0  0  0  0  0  0  0
   45.1600   33.1060   47.7470 C   0  0  0  0  0  0  0  0  0  0  0  0
   45.7380   32.3440   48.7240 C   0  0  0  0  0  0  0  0  0  0  0  0
   46.8690   31.6470   48.3730 C   0  0  0  0  0  0  0  0  0  0  0  0
   47.0740   32.1400   46.5490 S   0  0  0  0  0  0  0  0  0  0  0  0
   43.8980   36.8057   42.0126 H   0  0  0  0  0  0  0  0  0  0  0  0
   44.8199   35.6874   40.9629 H   0  0  0  0  0  0  0  0  0  0  0  0
   41.6406   36.1911   42.7336 H   0  0  0  0  0  0  0  0  0  0  0  0
   39.5215   35.1649   41.8749 H   0  0  0  0  0  0  0  0  0  0  0  0
   41.7254   33.0950   38.9465 H   0  0  0  0  0  0  0  0  0  0  0  0
   44.1003   36.7515   44.1289 H   0  0  0  0  0  0  0  0  0  0  0  0
   44.9897   33.0973   42.0641 H   0  0  0  0  0  0  0  0  0  0  0  0
   44.2518   33.6857   47.9687 H   0  0  0  0  0  0  0  0  0  0  0  0
   45.3189   32.2915   49.7397 H   0  0  0  0  0  0  0  0  0  0  0  0
   47.4919   30.9793   48.9864 H   0  0  0  0  0  0  0  0  0  0  0  0
  1 11  1  0
  2  1  1  0
  2  3  1  0
  4  3  2  0
  5  4  1  0
  6  5  2  0
  7  8  1  0
  7  5  1  0
  8  2  1  0
  9  8  2  0
 10 15  2  0
 11 12  2  0
 11 10  1  0
 12 13  1  0
 13 14  2  0
 14 15  1  0
 14 16  1  0
 16 20  1  0
 16 17  2  0
 17 18  1  0
 19 18  2  0
 20 19  1  0
  1 21  1  0
  1 22  1  0
  3 23  1  0
  4 24  1  0
  7 25  1  0
 10 26  1  0
 12 27  1  0
 17 28  1  0
 18 29  1  0
 19 30  1  0
M  ISO  8  21   8  22   8  23  14  24  14  25   9  26  14  27  14  28  14
M  ISO  2  29  14  30  14
M  END
>  <minimizedAffinity>  (1) 
-5.33748007

>  <minimizedRMSD>  (1) 
0.9083606

$$$$
