
     RDKit          3D

 24 25  0  0  0  0  0  0  0  0999 V2000
   43.9030   35.6280   41.4000 C   0  0  0  0  0  0  0  0  0  0  0  0
   42.6040   35.0450   41.0970 N   0  0  0  0  0  0  0  0  0  0  0  0
   41.5170   35.4410   41.7630 C   0  0  0  0  0  0  0  0  0  0  0  0
   40.3130   34.8490   41.4310 C   0  0  0  0  0  0  0  0  0  0  0  0
   40.2190   33.8830   40.4500 C   0  0  0  0  0  0  0  0  0  0  0  0
   39.1090   33.3800   40.1880 O   0  0  0  0  0  0  0  0  0  0  0  0
   41.3480   33.5100   39.7960 N   0  0  0  0  0  0  0  0  0  0  0  0
   42.5360   34.0880   40.1190 C   0  0  0  0  0  0  0  0  0  0  0  0
   43.5430   33.6930   39.4730 O   0  0  0  0  0  0  0  0  0  0  0  0
   44.3820   35.9390   43.7710 C   0  0  0  0  0  0  0  0  0  0  0  0
   44.3720   35.0690   42.6660 C   0  0  0  0  0  0  0  0  0  0  0  0
   44.8100   33.7830   42.9060 C   0  0  0  0  0  0  0  0  0  0  0  0
   45.2130   33.4210   44.1370 N   0  0  0  0  0  0  0  0  0  0  0  0
   45.2000   34.3110   45.1730 C   0  0  0  0  0  0  0  0  0  0  0  0
   44.7840   35.5890   45.0110 N   0  0  0  0  0  0  0  0  0  0  0  0
   45.6140   33.9410   46.4390 O   0  0  0  0  0  0  0  0  0  0  0  0
   43.8092   36.7205   41.4877 H   0  0  0  0  0  0  0  0  0  0  0  0
   44.6182   35.3991   40.5962 H   0  0  0  0  0  0  0  0  0  0  0  0
   41.5773   36.2101   42.5471 H   0  0  0  0  0  0  0  0  0  0  0  0
   39.4020   35.1572   41.9650 H   0  0  0  0  0  0  0  0  0  0  0  0
   41.3054   32.7924   39.0583 H   0  0  0  0  0  0  0  0  0  0  0  0
   44.0397   36.9726   43.6144 H   0  0  0  0  0  0  0  0  0  0  0  0
   44.8297   33.0498   42.0862 H   0  0  0  0  0  0  0  0  0  0  0  0
   45.5975   34.6001   47.1775 H   0  0  0  0  0  0  0  0  0  0  0  0
  1 11  1  0
  2  1  1  0
  2  3  1  0
  4  3  2  0
  5  4  1  0
  6  5  2  0
  7  8  1  0
  7  5  1  0
  8  2  1  0
  9  8  2  0
 10 15  2  0
 11 12  2  0
 11 10  1  0
 12 13  1  0
 13 14  2  0
 14 16  1  0
 15 14  1  0
  1 17  1  0
  1 18  1  0
  3 19  1  0
  4 20  1  0
  7 21  1  0
 10 22  1  0
 12 23  1  0
 16 24  1  0
M  ISO  8  17   8  18   8  19  14  20  14  21   9  22  14  23  14  24   3
M  END
>  <minimizedAffinity>  (1) 
-4.74055481

>  <minimizedRMSD>  (1) 
0.364578307

$$$$
