
     RDKit          3D

 31 32  0  0  1  0  0  0  0  0999 V2000
   46.2840   33.4050   42.1070 C   0  0  1  0  0  0  0  0  0  0  0  0
   46.0880   34.3070   40.8620 C   0  0  0  0  0  0  0  0  0  0  0  0
   46.4870   33.4940   39.6720 C   0  0  0  0  0  0  0  0  0  0  0  0
   47.9950   33.3600   39.7590 C   0  0  0  0  0  0  0  0  0  0  0  0
   48.4380   32.7990   41.0170 C   0  0  0  0  0  0  0  0  0  0  0  0
   47.6940   33.1850   42.3290 C   0  0  1  0  0  0  0  0  0  0  0  0
   44.6220   35.9390   44.4890 C   0  0  0  0  0  0  0  0  0  0  0  0
   45.0890   35.3950   43.3090 C   0  0  0  0  0  0  0  0  0  0  0  0
   45.7010   34.1280   43.2790 C   0  0  0  0  0  0  0  0  0  0  0  0
   45.7850   33.5190   44.4640 N   0  0  0  0  0  0  0  0  0  0  0  0
   45.3440   34.0220   45.6060 C   0  0  0  0  0  0  0  0  0  0  0  0
   44.7520   35.2500   45.6330 N   0  0  0  0  0  0  0  0  0  0  0  0
   48.3140   34.3520   42.8030 O   0  0  0  0  0  0  0  0  0  0  0  0
   49.6980   34.1660   42.6910 C   0  0  0  0  0  0  0  0  0  0  0  0
   50.1840   35.4140   43.2330 O   0  0  0  0  0  0  0  0  0  0  0  0
   45.7933   32.4309   41.9639 H   0  0  0  0  0  0  0  0  0  0  0  0
   45.0343   34.6110   40.7768 H   0  0  0  0  0  0  0  0  0  0  0  0
   46.6956   35.2209   40.9372 H   0  0  0  0  0  0  0  0  0  0  0  0
   46.1998   34.0070   38.7423 H   0  0  0  0  0  0  0  0  0  0  0  0
   45.9902   32.5126   39.6635 H   0  0  0  0  0  0  0  0  0  0  0  0
   48.3371   32.7063   38.9431 H   0  0  0  0  0  0  0  0  0  0  0  0
   48.4217   34.3707   39.6794 H   0  0  0  0  0  0  0  0  0  0  0  0
   48.3723   31.7052   40.9211 H   0  0  0  0  0  0  0  0  0  0  0  0
   49.4426   33.2261   41.1526 H   0  0  0  0  0  0  0  0  0  0  0  0
   47.7572   32.3669   43.0616 H   0  0  0  0  0  0  0  0  0  0  0  0
   44.1464   36.9309   44.4912 H   0  0  0  0  0  0  0  0  0  0  0  0
   44.9805   35.9634   42.3735 H   0  0  0  0  0  0  0  0  0  0  0  0
   45.4555   33.4471   46.5371 H   0  0  0  0  0  0  0  0  0  0  0  0
   50.0402   33.3060   43.2854 H   0  0  0  0  0  0  0  0  0  0  0  0
   50.0468   33.9460   41.6712 H   0  0  0  0  0  0  0  0  0  0  0  0
   50.1679   35.3728   44.2220 H   0  0  0  0  0  0  0  0  0  0  0  0
  1  6  1  0
  1  9  1  0
  2  1  1  0
  3  4  1  0
  3  2  1  0
  4  5  1  0
  5  6  1  0
  6 13  1  0
  7 12  2  0
  8  7  1  0
  9  8  2  0
  9 10  1  0
 10 11  2  0
 11 12  1  0
 14 13  1  0
 14 15  1  0
  1 16  1  6
  2 17  1  0
  2 18  1  0
  3 19  1  0
  3 20  1  0
  4 21  1  0
  4 22  1  0
  5 23  1  0
  5 24  1  0
  6 25  1  1
  7 26  1  0
  8 27  1  0
 11 28  1  0
 14 29  1  0
 14 30  1  0
 15 31  1  0
M  ISO  8  16  13  17  13  18  13  19  13  20  13  21  13  22  13  23  13
M  ISO  8  24  13  25  13  26  14  27  14  28  14  29   8  30   8  31   3
M  END
>  <minimizedAffinity>  (1) 
-4.70971298

>  <minimizedRMSD>  (1) 
0.443951488

$$$$
