
     RDKit          3D

 35 38  0  0  0  0  0  0  0  0999 V2000
   44.4210   35.7760   43.2970 C   0  0  0  0  0  0  0  0  0  0  0  0
   44.3480   34.7620   42.3260 C   0  0  0  0  0  0  0  0  0  0  0  0
   44.7210   33.4900   42.7250 C   0  0  0  0  0  0  0  0  0  0  0  0
   45.1300   33.2760   43.9910 N   0  0  0  0  0  0  0  0  0  0  0  0
   45.1780   34.3030   44.8780 C   0  0  0  0  0  0  0  0  0  0  0  0
   44.8300   35.5720   44.5700 N   0  0  0  0  0  0  0  0  0  0  0  0
   43.8960   35.1560   40.9860 C   0  0  0  0  0  0  0  0  0  0  0  0
   42.5120   34.7730   40.8460 N   0  0  0  0  0  0  0  0  0  0  0  0
   41.5550   35.4430   41.4710 C   0  0  0  0  0  0  0  0  0  0  0  0
   40.2510   35.0460   41.3140 C   0  0  0  0  0  0  0  0  0  0  0  0
   39.9240   33.9670   40.5180 C   0  0  0  0  0  0  0  0  0  0  0  0
   38.7350   33.6190   40.3850 O   0  0  0  0  0  0  0  0  0  0  0  0
   40.9180   33.2880   39.8810 N   0  0  0  0  0  0  0  0  0  0  0  0
   42.2080   33.6910   40.0470 C   0  0  0  0  0  0  0  0  0  0  0  0
   43.0910   33.0290   39.4350 O   0  0  0  0  0  0  0  0  0  0  0  0
   45.6080   34.0920   46.1920 O   0  0  0  0  0  0  0  0  0  0  0  0
   47.1780   33.1320   47.5980 N   0  0  0  0  0  0  0  0  0  0  0  0
   46.2430   32.9450   46.6190 C   0  0  0  0  0  0  0  0  0  0  0  0
   46.2070   31.6220   46.3330 N   0  0  0  0  0  0  0  0  0  0  0  0
   47.0830   30.9560   47.0930 C   0  0  0  0  0  0  0  0  0  0  0  0
   47.4290   29.6260   47.1920 C   0  0  0  0  0  0  0  0  0  0  0  0
   48.3800   29.2850   48.0900 N   0  0  0  0  0  0  0  0  0  0  0  0
   48.9920   30.1830   48.8770 C   0  0  0  0  0  0  0  0  0  0  0  0
   48.6260   31.4520   48.7450 N   0  0  0  0  0  0  0  0  0  0  0  0
   47.6870   31.8970   47.8800 C   0  0  0  0  0  0  0  0  0  0  0  0
   44.1283   36.7951   43.0043 H   0  0  0  0  0  0  0  0  0  0  0  0
   44.6836   32.6552   42.0097 H   0  0  0  0  0  0  0  0  0  0  0  0
   43.9951   36.2448   40.8648 H   0  0  0  0  0  0  0  0  0  0  0  0
   44.5071   34.6596   40.2178 H   0  0  0  0  0  0  0  0  0  0  0  0
   41.8025   36.3057   42.1070 H   0  0  0  0  0  0  0  0  0  0  0  0
   39.4522   35.5974   41.8316 H   0  0  0  0  0  0  0  0  0  0  0  0
   40.6968   32.4802   39.2815 H   0  0  0  0  0  0  0  0  0  0  0  0
   47.4451   34.0255   48.0354 H   0  0  0  0  0  0  0  0  0  0  0  0
   46.9465   28.8657   46.5602 H   0  0  0  0  0  0  0  0  0  0  0  0
   49.7636   29.8806   49.6003 H   0  0  0  0  0  0  0  0  0  0  0  0
  1  6  2  0
  2  3  2  0
  2  1  1  0
  3  4  1  0
  4  5  2  0
  5 16  1  0
  6  5  1  0
  7  2  1  0
  8  7  1  0
  8  9  1  0
 10  9  2  0
 11 10  1  0
 12 11  2  0
 13 14  1  0
 13 11  1  0
 14  8  1  0
 15 14  2  0
 16 18  1  0
 17 25  1  0
 18 17  1  0
 19 18  2  0
 19 20  1  0
 20 21  1  0
 20 25  2  0
 21 22  2  0
 22 23  1  0
 24 23  2  0
 25 24  1  0
  1 26  1  0
  3 27  1  0
  7 28  1  0
  7 29  1  0
  9 30  1  0
 10 31  1  0
 13 32  1  0
 17 33  1  0
 21 34  1  0
 23 35  1  0
M  ISO  8  26  14  27  14  28   8  29   8  30  14  31  14  32   9  33   9
M  ISO  2  34  14  35  14
M  END
>  <minimizedAffinity>  (1) 
-6.33242846

>  <minimizedRMSD>  (1) 
0.617040157

$$$$
