
     RDKit          3D

 36 38  0  0  1  0  0  0  0  0999 V2000
   44.6760   35.7550   43.1160 C   0  0  0  0  0  0  0  0  0  0  0  0
   44.2430   34.9020   42.0720 C   0  0  0  0  0  0  0  0  0  0  0  0
   44.4720   33.5460   42.2410 C   0  0  0  0  0  0  0  0  0  0  0  0
   45.0770   33.1050   43.3530 N   0  0  0  0  0  0  0  0  0  0  0  0
   45.4710   33.9750   44.3230 C   0  0  0  0  0  0  0  0  0  0  0  0
   45.2840   35.3100   44.2340 N   0  0  0  0  0  0  0  0  0  0  0  0
   43.6070   35.5490   40.9180 C   0  0  0  0  0  0  0  0  0  0  0  0
   42.2640   35.0320   40.7960 N   0  0  0  0  0  0  0  0  0  0  0  0
   41.3480   35.2770   41.7210 C   0  0  0  0  0  0  0  0  0  0  0  0
   40.0890   34.7550   41.5470 C   0  0  0  0  0  0  0  0  0  0  0  0
   39.7610   33.9950   40.4490 C   0  0  0  0  0  0  0  0  0  0  0  0
   38.6060   33.5420   40.3340 O   0  0  0  0  0  0  0  0  0  0  0  0
   40.7130   33.7620   39.5240 N   0  0  0  0  0  0  0  0  0  0  0  0
   41.9560   34.2750   39.6930 C   0  0  0  0  0  0  0  0  0  0  0  0
   42.8060   34.0200   38.7860 O   0  0  0  0  0  0  0  0  0  0  0  0
   46.1010   33.4930   45.4600 O   0  0  0  0  0  0  0  0  0  0  0  0
   45.3230   32.5260   47.5920 C   0  0  1  0  0  0  0  0  0  0  0  0
   45.8320   32.4020   46.2210 C   0  0  2  0  0  0  0  0  0  0  0  0
   47.1220   31.6260   46.4340 C   0  0  0  0  0  0  0  0  0  0  0  0
   47.5920   31.9820   47.6870 O   0  0  0  0  0  0  0  0  0  0  0  0
   46.5350   32.4270   48.4540 C   0  0  0  0  0  0  0  0  0  0  0  0
   44.5030   33.6040   47.8530 O   0  0  0  0  0  0  0  0  0  0  0  0
   44.5076   36.8368   43.0093 H   0  0  0  0  0  0  0  0  0  0  0  0
   44.1581   32.8329   41.4645 H   0  0  0  0  0  0  0  0  0  0  0  0
   43.5746   36.6377   41.0722 H   0  0  0  0  0  0  0  0  0  0  0  0
   44.1794   35.3412   40.0020 H   0  0  0  0  0  0  0  0  0  0  0  0
   41.5893   35.8833   42.6065 H   0  0  0  0  0  0  0  0  0  0  0  0
   39.3203   34.9510   42.3090 H   0  0  0  0  0  0  0  0  0  0  0  0
   40.4966   33.1958   38.6912 H   0  0  0  0  0  0  0  0  0  0  0  0
   44.6025   31.7224   47.8043 H   0  0  0  0  0  0  0  0  0  0  0  0
   45.0189   31.9628   45.6244 H   0  0  0  0  0  0  0  0  0  0  0  0
   46.9258   30.5443   46.3948 H   0  0  0  0  0  0  0  0  0  0  0  0
   47.8597   31.8576   45.6516 H   0  0  0  0  0  0  0  0  0  0  0  0
   46.7727   33.4162   48.8724 H   0  0  0  0  0  0  0  0  0  0  0  0
   46.3500   31.7233   49.2789 H   0  0  0  0  0  0  0  0  0  0  0  0
   44.4137   33.7213   48.8320 H   0  0  0  0  0  0  0  0  0  0  0  0
  1  6  2  0
  2  3  2  0
  2  1  1  0
  3  4  1  0
  4  5  2  0
  5 16  1  0
  6  5  1  0
  7  2  1  0
  8  7  1  0
  8  9  1  0
 10  9  2  0
 11 10  1  0
 12 11  2  0
 13 14  1  0
 13 11  1  0
 14  8  1  0
 15 14  2  0
 17 22  1  0
 17 21  1  0
 18 16  1  0
 18 19  1  0
 18 17  1  0
 19 20  1  0
 20 21  1  0
  1 23  1  0
  3 24  1  0
  7 25  1  0
  7 26  1  0
  9 27  1  0
 10 28  1  0
 13 29  1  0
 17 30  1  1
 18 31  1  6
 19 32  1  0
 19 33  1  0
 21 34  1  0
 21 35  1  0
 22 36  1  0
M  ISO  8  23  14  24  14  25   8  26   8  27  14  28  14  29   9  30  13
M  ISO  6  31  13  32  13  33  13  34  13  35  13  36   3
M  END
>  <minimizedAffinity>  (1) 
-5.82175398

>  <minimizedRMSD>  (1) 
1.88336372

$$$$
