
     RDKit          3D

 35 37  0  0  1  0  0  0  0  0999 V2000
   44.3890   35.8610   43.8180 C   0  0  0  0  0  0  0  0  0  0  0  0
   44.4140   34.9960   42.7060 C   0  0  0  0  0  0  0  0  0  0  0  0
   44.8600   33.7210   42.9330 C   0  0  0  0  0  0  0  0  0  0  0  0
   45.2490   33.3460   44.1740 N   0  0  0  0  0  0  0  0  0  0  0  0
   45.2000   34.2280   45.2030 C   0  0  0  0  0  0  0  0  0  0  0  0
   44.7700   35.5100   45.0580 N   0  0  0  0  0  0  0  0  0  0  0  0
   43.9640   35.5500   41.4240 C   0  0  0  0  0  0  0  0  0  0  0  0
   42.6670   34.9940   41.1100 N   0  0  0  0  0  0  0  0  0  0  0  0
   41.5800   35.4210   41.7610 C   0  0  0  0  0  0  0  0  0  0  0  0
   40.3660   34.8650   41.4320 C   0  0  0  0  0  0  0  0  0  0  0  0
   40.2520   33.8940   40.4620 C   0  0  0  0  0  0  0  0  0  0  0  0
   39.1380   33.4150   40.1910 O   0  0  0  0  0  0  0  0  0  0  0  0
   41.3830   33.4820   39.8190 N   0  0  0  0  0  0  0  0  0  0  0  0
   42.5710   34.0310   40.1460 C   0  0  0  0  0  0  0  0  0  0  0  0
   43.5830   33.6060   39.5120 O   0  0  0  0  0  0  0  0  0  0  0  0
   45.5940   33.8700   46.4890 O   0  0  0  0  0  0  0  0  0  0  0  0
   45.8780   32.5660   46.9150 C   0  0  2  0  0  0  0  0  0  0  0  0
   44.9550   32.0810   47.9970 C   0  0  0  0  0  0  0  0  0  0  0  0
   45.8790   31.8680   49.1750 C   0  0  0  0  0  0  0  0  0  0  0  0
   47.0790   31.5380   48.5490 O   0  0  0  0  0  0  0  0  0  0  0  0
   47.2470   32.4010   47.4790 C   0  0  0  0  0  0  0  0  0  0  0  0
   44.0346   36.8904   43.6609 H   0  0  0  0  0  0  0  0  0  0  0  0
   44.9022   32.9993   42.1039 H   0  0  0  0  0  0  0  0  0  0  0  0
   43.8892   36.6449   41.4994 H   0  0  0  0  0  0  0  0  0  0  0  0
   44.6834   35.2953   40.6318 H   0  0  0  0  0  0  0  0  0  0  0  0
   41.6547   36.1957   42.5383 H   0  0  0  0  0  0  0  0  0  0  0  0
   39.4616   35.2050   41.9578 H   0  0  0  0  0  0  0  0  0  0  0  0
   41.3299   32.7571   39.0892 H   0  0  0  0  0  0  0  0  0  0  0  0
   45.7591   31.9858   45.9880 H   0  0  0  0  0  0  0  0  0  0  0  0
   44.1890   32.8357   48.2288 H   0  0  0  0  0  0  0  0  0  0  0  0
   44.4017   31.1731   47.7150 H   0  0  0  0  0  0  0  0  0  0  0  0
   45.9802   32.7851   49.7740 H   0  0  0  0  0  0  0  0  0  0  0  0
   45.5246   31.1043   49.8829 H   0  0  0  0  0  0  0  0  0  0  0  0
   47.9259   31.9655   46.7310 H   0  0  0  0  0  0  0  0  0  0  0  0
   47.6936   33.3599   47.7809 H   0  0  0  0  0  0  0  0  0  0  0  0
  1  6  2  0
  2  3  2  0
  2  1  1  0
  3  4  1  0
  4  5  2  0
  5 16  1  0
  6  5  1  0
  7  2  1  0
  8  7  1  0
  8  9  1  0
 10  9  2  0
 11 10  1  0
 12 11  2  0
 13 14  1  0
 13 11  1  0
 14  8  1  0
 15 14  2  0
 17 16  1  0
 17 21  1  0
 17 18  1  0
 18 19  1  0
 20 19  1  0
 21 20  1  0
  1 22  1  0
  3 23  1  0
  7 24  1  0
  7 25  1  0
  9 26  1  0
 10 27  1  0
 13 28  1  0
 17 29  1  6
 18 30  1  0
 18 31  1  0
 19 32  1  0
 19 33  1  0
 21 34  1  0
 21 35  1  0
M  ISO  8  22  14  23  14  24   8  25   8  26  14  27  14  28   9  29  13
M  ISO  6  30  13  31  13  32  13  33  13  34  13  35  13
M  END
>  <minimizedAffinity>  (1) 
-5.48527145

>  <minimizedRMSD>  (1) 
0.321513087

$$$$
