
     RDKit          3D

 31 33  0  0  0  0  0  0  0  0999 V2000
   44.8650   35.6350   44.6060 C   0  0  0  0  0  0  0  0  0  0  0  0
   45.6930   34.8960   43.7430 C   0  0  0  0  0  0  0  0  0  0  0  0
   46.1850   33.7090   44.2330 C   0  0  0  0  0  0  0  0  0  0  0  0
   45.8690   33.3080   45.4750 N   0  0  0  0  0  0  0  0  0  0  0  0
   45.0610   34.0700   46.2630 C   0  0  0  0  0  0  0  0  0  0  0  0
   44.5380   35.2440   45.8610 N   0  0  0  0  0  0  0  0  0  0  0  0
   45.9520   35.4700   42.4180 C   0  0  0  0  0  0  0  0  0  0  0  0
   44.9360   34.9870   41.5110 N   0  0  0  0  0  0  0  0  0  0  0  0
   43.7290   35.5280   41.4920 C   0  0  0  0  0  0  0  0  0  0  0  0
   42.7940   35.0320   40.6100 C   0  0  0  0  0  0  0  0  0  0  0  0
   43.0900   33.9990   39.7610 C   0  0  0  0  0  0  0  0  0  0  0  0
   42.2420   33.5480   38.9590 O   0  0  0  0  0  0  0  0  0  0  0  0
   44.3380   33.4470   39.7870 N   0  0  0  0  0  0  0  0  0  0  0  0
   45.2610   33.9450   40.6670 C   0  0  0  0  0  0  0  0  0  0  0  0
   46.4000   33.3980   40.6500 O   0  0  0  0  0  0  0  0  0  0  0  0
   44.7310   33.6610   47.5600 O   0  0  0  0  0  0  0  0  0  0  0  0
   45.4730   32.6010   48.0690 C   0  0  0  0  0  0  0  0  0  0  0  0
   44.8130   31.4220   48.3620 C   0  0  0  0  0  0  0  0  0  0  0  0
   45.7930   30.5630   48.8430 C   0  0  0  0  0  0  0  0  0  0  0  0
   46.9860   31.2560   48.8190 C   0  0  0  0  0  0  0  0  0  0  0  0
   46.7450   32.4720   48.3470 O   0  0  0  0  0  0  0  0  0  0  0  0
   44.4578   36.5890   44.2397 H   0  0  0  0  0  0  0  0  0  0  0  0
   46.8394   33.0861   43.6056 H   0  0  0  0  0  0  0  0  0  0  0  0
   45.9107   36.5678   42.4731 H   0  0  0  0  0  0  0  0  0  0  0  0
   46.9502   35.1734   42.0636 H   0  0  0  0  0  0  0  0  0  0  0  0
   43.4765   36.3584   42.1678 H   0  0  0  0  0  0  0  0  0  0  0  0
   41.7876   35.4755   40.5872 H   0  0  0  0  0  0  0  0  0  0  0  0
   44.5810   32.6699   39.1561 H   0  0  0  0  0  0  0  0  0  0  0  0
   43.7406   31.2095   48.2402 H   0  0  0  0  0  0  0  0  0  0  0  0
   45.6458   29.5261   49.1795 H   0  0  0  0  0  0  0  0  0  0  0  0
   47.9653   30.8680   49.1358 H   0  0  0  0  0  0  0  0  0  0  0  0
  1  6  2  0
  2  3  2  0
  2  1  1  0
  3  4  1  0
  4  5  2  0
  5 16  1  0
  6  5  1  0
  7  2  1  0
  8  7  1  0
  9  8  1  0
 10  9  2  0
 11 13  1  0
 11 10  1  0
 12 11  2  0
 13 14  1  0
 14  8  1  0
 15 14  2  0
 16 17  1  0
 17 21  1  0
 17 18  2  0
 18 19  1  0
 20 19  2  0
 21 20  1  0
  1 22  1  0
  3 23  1  0
  7 24  1  0
  7 25  1  0
  9 26  1  0
 10 27  1  0
 13 28  1  0
 18 29  1  0
 19 30  1  0
 20 31  1  0
M  ISO  8  22  14  23  14  24   8  25   8  26  14  27  14  28   9  29  14
M  ISO  2  30  14  31  14
M  END
>  <minimizedAffinity>  (1) 
-5.46367311

>  <minimizedRMSD>  (1) 
2.21863651

$$$$
