
     RDKit          3D

 30 32  0  0  0  0  0  0  0  0999 V2000
   44.4530   35.7950   43.3040 C   0  0  0  0  0  0  0  0  0  0  0  0
   44.3420   34.7810   42.3380 C   0  0  0  0  0  0  0  0  0  0  0  0
   44.6840   33.5090   42.7400 C   0  0  0  0  0  0  0  0  0  0  0  0
   45.1040   33.2900   44.0050 N   0  0  0  0  0  0  0  0  0  0  0  0
   45.1900   34.3150   44.8890 C   0  0  0  0  0  0  0  0  0  0  0  0
   44.8710   35.5920   44.5730 N   0  0  0  0  0  0  0  0  0  0  0  0
   43.8770   35.1710   41.0060 C   0  0  0  0  0  0  0  0  0  0  0  0
   42.4940   34.7720   40.8680 N   0  0  0  0  0  0  0  0  0  0  0  0
   41.5310   35.4290   41.5180 C   0  0  0  0  0  0  0  0  0  0  0  0
   40.2330   35.0040   41.3510 C   0  0  0  0  0  0  0  0  0  0  0  0
   39.9160   33.9290   40.5400 C   0  0  0  0  0  0  0  0  0  0  0  0
   38.7280   33.5850   40.4240 O   0  0  0  0  0  0  0  0  0  0  0  0
   40.9140   33.2820   39.8930 N   0  0  0  0  0  0  0  0  0  0  0  0
   42.1930   33.7040   40.0600 C   0  0  0  0  0  0  0  0  0  0  0  0
   43.0750   33.0580   39.4300 O   0  0  0  0  0  0  0  0  0  0  0  0
   45.6240   34.1060   46.2020 O   0  0  0  0  0  0  0  0  0  0  0  0
   46.0990   32.8340   46.4910 C   0  0  0  0  0  0  0  0  0  0  0  0
   45.4290   32.1090   47.4320 N   0  0  0  0  0  0  0  0  0  0  0  0
   46.0500   30.9230   47.5530 C   0  0  0  0  0  0  0  0  0  0  0  0
   47.0930   30.9010   46.7050 N   0  0  0  0  0  0  0  0  0  0  0  0
   47.1200   32.0460   46.0690 N   0  0  0  0  0  0  0  0  0  0  0  0
   44.1824   36.8195   43.0086 H   0  0  0  0  0  0  0  0  0  0  0  0
   44.6151   32.6711   42.0307 H   0  0  0  0  0  0  0  0  0  0  0  0
   43.9622   36.2613   40.8877 H   0  0  0  0  0  0  0  0  0  0  0  0
   44.4894   34.6813   40.2346 H   0  0  0  0  0  0  0  0  0  0  0  0
   41.7679   36.2845   42.1676 H   0  0  0  0  0  0  0  0  0  0  0  0
   39.4250   35.5337   41.8769 H   0  0  0  0  0  0  0  0  0  0  0  0
   40.7051   32.4797   39.2818 H   0  0  0  0  0  0  0  0  0  0  0  0
   45.7548   30.1086   48.2309 H   0  0  0  0  0  0  0  0  0  0  0  0
   47.7541   30.1215   46.5778 H   0  0  0  0  0  0  0  0  0  0  0  0
  1  6  2  0
  2  3  2  0
  2  1  1  0
  3  4  1  0
  4  5  2  0
  5 16  1  0
  6  5  1  0
  7  2  1  0
  8  7  1  0
  8  9  1  0
 10  9  2  0
 11 10  1  0
 12 11  2  0
 13 14  1  0
 13 11  1  0
 14  8  1  0
 15 14  2  0
 16 17  1  0
 17 18  1  0
 18 19  2  0
 20 19  1  0
 21 17  2  0
 21 20  1  0
  1 22  1  0
  3 23  1  0
  7 24  1  0
  7 25  1  0
  9 26  1  0
 10 27  1  0
 13 28  1  0
 19 29  1  0
 20 30  1  0
M  ISO  8  22  14  23  14  24   8  25   8  26  14  27  14  28   9  29  14
M  ISO  1  30   9
M  END
>  <minimizedAffinity>  (1) 
-5.09542704

>  <minimizedRMSD>  (1) 
0.498933464

$$$$
