
     RDKit          3D

 42 45  0  0  1  0  0  0  0  0999 V2000
   46.9810   34.3130   42.4330 N   0  0  0  0  0  0  0  0  0  0  0  0
   48.3140   33.7890   42.3530 C   0  0  0  0  0  0  0  0  0  0  0  0
   48.8610   34.7420   41.3000 C   0  0  0  0  0  0  0  0  0  0  0  0
   47.7900   34.4980   40.2260 C   0  0  0  0  0  0  0  0  0  0  0  0
   46.5470   34.5280   41.0480 C   0  0  1  0  0  0  0  0  0  0  0  0
   43.8740   35.3630   40.6010 F   0  0  0  0  0  0  0  0  0  0  0  0
   44.1730   34.0300   40.3860 C   0  0  0  0  0  0  0  0  0  0  0  0
   45.4650   33.6470   40.6290 C   0  0  0  0  0  0  0  0  0  0  0  0
   45.7200   32.2990   40.4120 C   0  0  0  0  0  0  0  0  0  0  0  0
   44.7260   31.4420   39.9840 C   0  0  0  0  0  0  0  0  0  0  0  0
   43.4210   31.9030   39.7540 C   0  0  0  0  0  0  0  0  0  0  0  0
   43.1410   33.2620   39.9670 C   0  0  0  0  0  0  0  0  0  0  0  0
   41.8070   33.8030   39.7460 C   0  0  0  0  0  0  0  0  0  0  0  0
   41.3310   34.3410   38.5650 C   0  0  0  0  0  0  0  0  0  0  0  0
   40.0240   34.8080   38.5460 C   0  0  0  0  0  0  0  0  0  0  0  0
   39.2390   34.7320   39.6730 C   0  0  0  0  0  0  0  0  0  0  0  0
   39.7040   34.2020   40.8430 C   0  0  0  0  0  0  0  0  0  0  0  0
   41.0070   33.7330   40.8700 C   0  0  0  0  0  0  0  0  0  0  0  0
   44.5160   35.9350   44.7030 C   0  0  0  0  0  0  0  0  0  0  0  0
   45.2870   35.7170   43.5690 C   0  0  0  0  0  0  0  0  0  0  0  0
   46.1550   34.6090   43.5440 C   0  0  0  0  0  0  0  0  0  0  0  0
   46.1870   33.8190   44.6310 N   0  0  0  0  0  0  0  0  0  0  0  0
   45.4320   34.0430   45.7250 C   0  0  0  0  0  0  0  0  0  0  0  0
   44.5890   35.1130   45.7580 N   0  0  0  0  0  0  0  0  0  0  0  0
   48.8516   33.8731   43.3090 H   0  0  0  0  0  0  0  0  0  0  0  0
   48.3954   32.7172   42.1192 H   0  0  0  0  0  0  0  0  0  0  0  0
   48.8744   35.7856   41.6474 H   0  0  0  0  0  0  0  0  0  0  0  0
   49.9042   34.5784   40.9918 H   0  0  0  0  0  0  0  0  0  0  0  0
   47.9257   33.5230   39.7350 H   0  0  0  0  0  0  0  0  0  0  0  0
   47.8038   35.2244   39.4001 H   0  0  0  0  0  0  0  0  0  0  0  0
   46.0573   35.5040   40.9153 H   0  0  0  0  0  0  0  0  0  0  0  0
   46.7332   31.9069   40.5845 H   0  0  0  0  0  0  0  0  0  0  0  0
   44.9610   30.3799   39.8205 H   0  0  0  0  0  0  0  0  0  0  0  0
   42.6338   31.2140   39.4139 H   0  0  0  0  0  0  0  0  0  0  0  0
   41.9672   34.3972   37.6694 H   0  0  0  0  0  0  0  0  0  0  0  0
   39.6129   35.2422   37.6227 H   0  0  0  0  0  0  0  0  0  0  0  0
   38.2065   35.1091   39.6309 H   0  0  0  0  0  0  0  0  0  0  0  0
   39.0636   34.1493   41.7358 H   0  0  0  0  0  0  0  0  0  0  0  0
   41.4095   33.2997   41.7975 H   0  0  0  0  0  0  0  0  0  0  0  0
   43.8338   36.7973   44.7355 H   0  0  0  0  0  0  0  0  0  0  0  0
   45.2208   36.3969   42.7068 H   0  0  0  0  0  0  0  0  0  0  0  0
   45.4962   33.3643   46.5882 H   0  0  0  0  0  0  0  0  0  0  0  0
  1 21  1  0
  2  1  1  0
  3  2  1  0
  4  5  1  0
  4  3  1  0
  5  1  1  0
  7  6  1  0
  7  8  2  0
  8  5  1  0
  9  8  1  0
 10  9  2  0
 11 12  2  0
 11 10  1  0
 12  7  1  0
 13 12  1  0
 13 18  1  0
 14 13  2  0
 15 14  1  0
 15 16  2  0
 16 17  1  0
 17 18  2  0
 19 24  2  0
 20 19  1  0
 21 20  2  0
 21 22  1  0
 22 23  2  0
 23 24  1  0
  2 25  1  0
  2 26  1  0
  3 27  1  0
  3 28  1  0
  4 29  1  0
  4 30  1  0
  5 31  1  1
  9 32  1  0
 10 33  1  0
 11 34  1  0
 14 35  1  0
 15 36  1  0
 16 37  1  0
 17 38  1  0
 18 39  1  0
 19 40  1  0
 20 41  1  0
 23 42  1  0
M  ISO  8  25  13  26  13  27  13  28  13  29  13  30  13  31  13  32  14
M  ISO  8  33  14  34  14  35  14  36  14  37  14  38  14  39  14  40  14
M  ISO  2  41  14  42  14
M  END
>  <minimizedAffinity>  (1) 
-6.7424593

>  <minimizedRMSD>  (1) 
0.68878305

$$$$
