
     RDKit          3D

 38 41  0  0  1  0  0  0  0  0999 V2000
   46.9180   34.2830   42.4330 N   0  0  0  0  0  0  0  0  0  0  0  0
   48.2140   33.6740   42.3240 C   0  0  0  0  0  0  0  0  0  0  0  0
   48.8130   34.6210   41.2970 C   0  0  0  0  0  0  0  0  0  0  0  0
   47.7190   34.5080   40.2270 C   0  0  0  0  0  0  0  0  0  0  0  0
   46.4890   34.5780   41.0630 C   0  0  1  0  0  0  0  0  0  0  0  0
   43.8240   35.5260   40.8740 F   0  0  0  0  0  0  0  0  0  0  0  0
   44.0620   34.2130   40.5050 C   0  0  0  0  0  0  0  0  0  0  0  0
   45.3550   33.7730   40.6220 C   0  0  0  0  0  0  0  0  0  0  0  0
   45.5370   32.4520   40.2490 C   0  0  0  0  0  0  0  0  0  0  0  0
   44.4890   31.6760   39.8030 C   0  0  0  0  0  0  0  0  0  0  0  0
   43.2010   32.1950   39.7110 C   0  0  0  0  0  0  0  0  0  0  0  0
   42.9800   33.5130   40.0760 C   0  0  0  0  0  0  0  0  0  0  0  0
   41.6440   34.1470   40.0120 C   0  0  0  0  0  0  0  0  0  0  0  0
   40.5920   33.4390   39.4900 C   0  0  0  0  0  0  0  0  0  0  0  0
   39.1400   34.5890   39.5980 S   0  0  0  0  0  0  0  0  0  0  0  0
   40.2910   35.8890   40.3720 C   0  0  0  0  0  0  0  0  0  0  0  0
   41.2720   35.3460   40.3910 N   0  0  0  0  0  0  0  0  0  0  0  0
   44.5560   35.9620   44.7730 C   0  0  0  0  0  0  0  0  0  0  0  0
   45.3020   35.7360   43.6210 C   0  0  0  0  0  0  0  0  0  0  0  0
   46.1210   34.5910   43.5620 C   0  0  0  0  0  0  0  0  0  0  0  0
   46.1350   33.7780   44.6320 N   0  0  0  0  0  0  0  0  0  0  0  0
   45.4060   34.0120   45.7410 C   0  0  0  0  0  0  0  0  0  0  0  0
   44.6100   35.1170   45.8080 N   0  0  0  0  0  0  0  0  0  0  0  0
   48.7635   33.6923   43.2768 H   0  0  0  0  0  0  0  0  0  0  0  0
   48.2229   32.6070   42.0568 H   0  0  0  0  0  0  0  0  0  0  0  0
   48.9109   35.6459   41.6843 H   0  0  0  0  0  0  0  0  0  0  0  0
   49.8349   34.3851   40.9653 H   0  0  0  0  0  0  0  0  0  0  0  0
   47.7835   33.5537   39.6837 H   0  0  0  0  0  0  0  0  0  0  0  0
   47.7751   35.2755   39.4410 H   0  0  0  0  0  0  0  0  0  0  0  0
   46.0585   35.5863   40.9735 H   0  0  0  0  0  0  0  0  0  0  0  0
   46.5429   32.0110   40.3102 H   0  0  0  0  0  0  0  0  0  0  0  0
   44.6734   30.6304   39.5153 H   0  0  0  0  0  0  0  0  0  0  0  0
   42.3708   31.5680   39.3538 H   0  0  0  0  0  0  0  0  0  0  0  0
   40.6059   32.4130   39.0937 H   0  0  0  0  0  0  0  0  0  0  0  0
   40.0560   36.9082   40.7125 H   0  0  0  0  0  0  0  0  0  0  0  0
   43.9107   36.8508   44.8337 H   0  0  0  0  0  0  0  0  0  0  0  0
   45.2536   36.4363   42.7741 H   0  0  0  0  0  0  0  0  0  0  0  0
   45.4530   33.3137   46.5896 H   0  0  0  0  0  0  0  0  0  0  0  0
  1 20  1  0
  2  1  1  0
  3  2  1  0
  4  5  1  0
  4  3  1  0
  5  1  1  0
  7  8  2  0
  7  6  1  0
  8  5  1  0
  9  8  1  0
 10  9  2  0
 11 10  1  0
 11 12  2  0
 12  7  1  0
 13 12  1  0
 13 17  1  0
 14 15  1  0
 14 13  2  0
 15 16  1  0
 16 17  2  0
 18 23  2  0
 19 18  1  0
 20 19  2  0
 20 21  1  0
 21 22  2  0
 22 23  1  0
  2 24  1  0
  2 25  1  0
  3 26  1  0
  3 27  1  0
  4 28  1  0
  4 29  1  0
  5 30  1  1
  9 31  1  0
 10 32  1  0
 11 33  1  0
 14 34  1  0
 16 35  1  0
 18 36  1  0
 19 37  1  0
 22 38  1  0
M  ISO  8  24  13  25  13  26  13  27  13  28  13  29  13  30  13  31  14
M  ISO  7  32  14  33  14  34  14  35  14  36  14  37  14  38  14
M  END
>  <minimizedAffinity>  (1) 
-6.13083029

>  <minimizedRMSD>  (1) 
0.919143677

$$$$
