
     RDKit          3D

 39 42  0  0  1  0  0  0  0  0999 V2000
   47.0500   34.2990   42.5620 N   0  0  0  0  0  0  0  0  0  0  0  0
   48.3490   33.7020   42.4840 C   0  0  0  0  0  0  0  0  0  0  0  0
   48.9840   34.6800   41.5090 C   0  0  0  0  0  0  0  0  0  0  0  0
   47.9350   34.6040   40.3970 C   0  0  0  0  0  0  0  0  0  0  0  0
   46.6730   34.6430   41.1860 C   0  0  1  0  0  0  0  0  0  0  0  0
   44.0190   35.6060   40.9020 F   0  0  0  0  0  0  0  0  0  0  0  0
   44.2720   34.3080   40.5150 C   0  0  0  0  0  0  0  0  0  0  0  0
   45.5530   33.8510   40.6720 C   0  0  0  0  0  0  0  0  0  0  0  0
   45.7590   32.5450   40.2740 C   0  0  0  0  0  0  0  0  0  0  0  0
   44.7370   31.7730   39.7560 C   0  0  0  0  0  0  0  0  0  0  0  0
   43.4420   32.3040   39.6210 C   0  0  0  0  0  0  0  0  0  0  0  0
   43.2090   33.6340   40.0210 C   0  0  0  0  0  0  0  0  0  0  0  0
   41.8830   34.2360   39.9040 C   0  0  0  0  0  0  0  0  0  0  0  0
   40.8900   34.2110   40.8620 C   0  0  0  0  0  0  0  0  0  0  0  0
   39.8430   34.9060   40.2890 C   0  0  0  0  0  0  0  0  0  0  0  0
   40.1880   35.3250   39.0540 N   0  0  0  0  0  0  0  0  0  0  0  0
   41.4430   34.9120   38.8200 N   0  0  0  0  0  0  0  0  0  0  0  0
   44.5500   35.8620   44.8390 C   0  0  0  0  0  0  0  0  0  0  0  0
   45.3430   35.6640   43.7170 C   0  0  0  0  0  0  0  0  0  0  0  0
   46.2060   34.5660   43.6680 C   0  0  0  0  0  0  0  0  0  0  0  0
   46.2190   33.7460   44.7300 N   0  0  0  0  0  0  0  0  0  0  0  0
   45.4460   33.9420   45.8210 C   0  0  0  0  0  0  0  0  0  0  0  0
   44.6080   35.0060   45.8730 N   0  0  0  0  0  0  0  0  0  0  0  0
   48.8615   33.6945   43.4573 H   0  0  0  0  0  0  0  0  0  0  0  0
   48.3727   32.6437   42.1848 H   0  0  0  0  0  0  0  0  0  0  0  0
   49.0672   35.6920   41.9320 H   0  0  0  0  0  0  0  0  0  0  0  0
   50.0171   34.4518   41.2079 H   0  0  0  0  0  0  0  0  0  0  0  0
   48.0229   33.6696   39.8232 H   0  0  0  0  0  0  0  0  0  0  0  0
   48.0197   35.3992   39.6417 H   0  0  0  0  0  0  0  0  0  0  0  0
   46.2443   35.6535   41.1144 H   0  0  0  0  0  0  0  0  0  0  0  0
   46.7635   32.1076   40.3720 H   0  0  0  0  0  0  0  0  0  0  0  0
   44.9376   30.7365   39.4473 H   0  0  0  0  0  0  0  0  0  0  0  0
   42.6257   31.6916   39.2104 H   0  0  0  0  0  0  0  0  0  0  0  0
   40.9245   33.7433   41.8570 H   0  0  0  0  0  0  0  0  0  0  0  0
   38.8707   35.0907   40.7691 H   0  0  0  0  0  0  0  0  0  0  0  0
   39.5950   35.8646   38.4074 H   0  0  0  0  0  0  0  0  0  0  0  0
   43.8697   36.7253   44.8818 H   0  0  0  0  0  0  0  0  0  0  0  0
   45.2924   36.3667   42.8722 H   0  0  0  0  0  0  0  0  0  0  0  0
   45.4968   33.2391   46.6656 H   0  0  0  0  0  0  0  0  0  0  0  0
  1 20  1  0
  2  1  1  0
  3  2  1  0
  4  5  1  0
  4  3  1  0
  5  1  1  0
  7  8  2  0
  7  6  1  0
  8  5  1  0
  9  8  1  0
 10  9  2  0
 11 10  1  0
 11 12  2  0
 12  7  1  0
 13 12  1  0
 13 14  1  0
 15 14  2  0
 16 15  1  0
 17 16  1  0
 17 13  2  0
 18 23  2  0
 19 18  1  0
 20 19  2  0
 20 21  1  0
 21 22  2  0
 22 23  1  0
  2 24  1  0
  2 25  1  0
  3 26  1  0
  3 27  1  0
  4 28  1  0
  4 29  1  0
  5 30  1  1
  9 31  1  0
 10 32  1  0
 11 33  1  0
 14 34  1  0
 15 35  1  0
 16 36  1  0
 18 37  1  0
 19 38  1  0
 22 39  1  0
M  ISO  8  24  13  25  13  26  13  27  13  28  13  29  13  30  13  31  14
M  ISO  8  32  14  33  14  34  14  35  14  36   9  37  14  38  14  39  14
M  END
>  <minimizedAffinity>  (1) 
-6.0468874

>  <minimizedRMSD>  (1) 
0.928847015

$$$$
