
     RDKit          3D

 39 42  0  0  1  0  0  0  0  0999 V2000
   46.5880   34.0420   42.4140 N   0  0  0  0  0  0  0  0  0  0  0  0
   47.7510   33.2240   42.1980 C   0  0  0  0  0  0  0  0  0  0  0  0
   48.4490   34.1240   41.1860 C   0  0  0  0  0  0  0  0  0  0  0  0
   47.3080   34.2470   40.1750 C   0  0  0  0  0  0  0  0  0  0  0  0
   46.1530   34.4810   41.0850 C   0  0  1  0  0  0  0  0  0  0  0  0
   43.7400   35.9490   40.8790 F   0  0  0  0  0  0  0  0  0  0  0  0
   43.6960   34.6260   40.5480 C   0  0  0  0  0  0  0  0  0  0  0  0
   44.8640   33.9190   40.6730 C   0  0  0  0  0  0  0  0  0  0  0  0
   44.7820   32.5720   40.3410 C   0  0  0  0  0  0  0  0  0  0  0  0
   43.5950   32.0150   39.9200 C   0  0  0  0  0  0  0  0  0  0  0  0
   42.4380   32.7880   39.8140 C   0  0  0  0  0  0  0  0  0  0  0  0
   42.4990   34.1550   40.1450 C   0  0  0  0  0  0  0  0  0  0  0  0
   41.2120   34.8580   39.9940 C   0  0  0  0  0  0  0  0  0  0  0  0
   40.2390   34.5980   41.1290 C   0  0  0  0  0  0  0  0  0  0  0  0
   40.7580   35.9420   40.8830 C   0  0  0  0  0  0  0  0  0  0  0  0
   44.5410   35.9030   44.9050 C   0  0  0  0  0  0  0  0  0  0  0  0
   45.1650   35.6100   43.6980 C   0  0  0  0  0  0  0  0  0  0  0  0
   45.9150   34.4230   43.5980 C   0  0  0  0  0  0  0  0  0  0  0  0
   45.9800   33.6410   44.6890 N   0  0  0  0  0  0  0  0  0  0  0  0
   45.3700   33.9370   45.8520 C   0  0  0  0  0  0  0  0  0  0  0  0
   44.6470   35.0770   45.9560 N   0  0  0  0  0  0  0  0  0  0  0  0
   48.3430   33.0889   43.1152 H   0  0  0  0  0  0  0  0  0  0  0  0
   47.5635   32.1883   41.8785 H   0  0  0  0  0  0  0  0  0  0  0  0
   48.7278   35.0965   41.6179 H   0  0  0  0  0  0  0  0  0  0  0  0
   49.4036   33.7487   40.7886 H   0  0  0  0  0  0  0  0  0  0  0  0
   47.1829   33.3230   39.5914 H   0  0  0  0  0  0  0  0  0  0  0  0
   47.4549   35.0288   39.4153 H   0  0  0  0  0  0  0  0  0  0  0  0
   45.9070   35.5530   41.0666 H   0  0  0  0  0  0  0  0  0  0  0  0
   45.6796   31.9406   40.4157 H   0  0  0  0  0  0  0  0  0  0  0  0
   43.5584   30.9459   39.6637 H   0  0  0  0  0  0  0  0  0  0  0  0
   41.4933   32.3363   39.4771 H   0  0  0  0  0  0  0  0  0  0  0  0
   41.2696   34.7921   38.8975 H   0  0  0  0  0  0  0  0  0  0  0  0
   39.1864   34.3643   40.9112 H   0  0  0  0  0  0  0  0  0  0  0  0
   40.2084   33.9173   41.9925 H   0  0  0  0  0  0  0  0  0  0  0  0
   41.4640   36.3912   41.5969 H   0  0  0  0  0  0  0  0  0  0  0  0
   40.2899   36.9231   40.7146 H   0  0  0  0  0  0  0  0  0  0  0  0
   43.9512   36.8267   44.9995 H   0  0  0  0  0  0  0  0  0  0  0  0
   45.0746   36.2913   42.8391 H   0  0  0  0  0  0  0  0  0  0  0  0
   45.4584   33.2571   46.7122 H   0  0  0  0  0  0  0  0  0  0  0  0
  1 18  1  0
  2  1  1  0
  3  2  1  0
  4  5  1  0
  4  3  1  0
  5  1  1  0
  7  8  2  0
  7  6  1  0
  8  5  1  0
  9  8  1  0
 10  9  2  0
 11 10  1  0
 11 12  2  0
 12  7  1  0
 13 12  1  0
 13 15  1  0
 13 14  1  0
 15 14  1  0
 16 21  2  0
 17 16  1  0
 18 17  2  0
 18 19  1  0
 19 20  2  0
 20 21  1  0
  2 22  1  0
  2 23  1  0
  3 24  1  0
  3 25  1  0
  4 26  1  0
  4 27  1  0
  5 28  1  1
  9 29  1  0
 10 30  1  0
 11 31  1  0
 13 32  1  0
 14 33  1  0
 14 34  1  0
 15 35  1  0
 15 36  1  0
 16 37  1  0
 17 38  1  0
 20 39  1  0
M  ISO  8  22  13  23  13  24  13  25  13  26  13  27  13  28  13  29  14
M  ISO  8  30  14  31  14  32  13  33  13  34  13  35  13  36  13  37  14
M  ISO  2  38  14  39  14
M  END
>  <minimizedAffinity>  (1) 
-5.81812143

>  <minimizedRMSD>  (1) 
1.7053746

$$$$
