
     RDKit          3D

 34 36  0  0  1  0  0  0  0  0999 V2000
   46.8150   34.1950   42.4620 N   0  0  0  0  0  0  0  0  0  0  0  0
   48.0790   33.5320   42.3120 C   0  0  0  0  0  0  0  0  0  0  0  0
   48.7040   34.4460   41.2900 C   0  0  0  0  0  0  0  0  0  0  0  0
   47.5820   34.4080   40.2430 C   0  0  0  0  0  0  0  0  0  0  0  0
   46.3750   34.5340   41.1040 C   0  0  1  0  0  0  0  0  0  0  0  0
   43.8110   35.6960   40.7380 F   0  0  0  0  0  0  0  0  0  0  0  0
   43.9470   34.3510   40.4670 C   0  0  0  0  0  0  0  0  0  0  0  0
   45.1860   33.8050   40.6720 C   0  0  0  0  0  0  0  0  0  0  0  0
   45.2770   32.4460   40.4010 C   0  0  0  0  0  0  0  0  0  0  0  0
   44.1850   31.7300   39.9590 C   0  0  0  0  0  0  0  0  0  0  0  0
   42.9400   32.3530   39.7690 C   0  0  0  0  0  0  0  0  0  0  0  0
   42.8270   33.7290   40.0380 C   0  0  0  0  0  0  0  0  0  0  0  0
   41.5400   34.3800   39.8430 C   0  0  0  0  0  0  0  0  0  0  0  0
   41.3550   35.1580   38.8730 O   0  0  0  0  0  0  0  0  0  0  0  0
   44.5280   35.9020   44.8520 C   0  0  0  0  0  0  0  0  0  0  0  0
   45.2340   35.6630   43.6790 C   0  0  0  0  0  0  0  0  0  0  0  0
   46.0560   34.5220   43.6120 C   0  0  0  0  0  0  0  0  0  0  0  0
   46.1110   33.7270   44.6940 N   0  0  0  0  0  0  0  0  0  0  0  0
   45.4200   33.9740   45.8250 C   0  0  0  0  0  0  0  0  0  0  0  0
   44.6240   35.0740   45.8990 N   0  0  0  0  0  0  0  0  0  0  0  0
   48.6493   33.5134   43.2524 H   0  0  0  0  0  0  0  0  0  0  0  0
   48.0260   32.4706   42.0282 H   0  0  0  0  0  0  0  0  0  0  0  0
   48.8695   35.4592   41.6849 H   0  0  0  0  0  0  0  0  0  0  0  0
   49.7031   34.1551   40.9334 H   0  0  0  0  0  0  0  0  0  0  0  0
   47.5824   33.4591   39.6866 H   0  0  0  0  0  0  0  0  0  0  0  0
   47.6642   35.1828   39.4665 H   0  0  0  0  0  0  0  0  0  0  0  0
   45.9993   35.5658   41.0394 H   0  0  0  0  0  0  0  0  0  0  0  0
   46.2388   31.9310   40.5417 H   0  0  0  0  0  0  0  0  0  0  0  0
   44.2899   30.6548   39.7519 H   0  0  0  0  0  0  0  0  0  0  0  0
   42.0717   31.7766   39.4172 H   0  0  0  0  0  0  0  0  0  0  0  0
   40.7206   34.1893   40.5517 H   0  0  0  0  0  0  0  0  0  0  0  0
   43.8789   36.7873   44.9211 H   0  0  0  0  0  0  0  0  0  0  0  0
   45.1525   36.3492   42.8231 H   0  0  0  0  0  0  0  0  0  0  0  0
   45.4996   33.2899   46.6827 H   0  0  0  0  0  0  0  0  0  0  0  0
  1 17  1  0
  2  1  1  0
  3  2  1  0
  4  5  1  0
  4  3  1  0
  5  1  1  0
  7  8  2  0
  7  6  1  0
  8  5  1  0
  9  8  1  0
 10  9  2  0
 11 10  1  0
 11 12  2  0
 12  7  1  0
 13 12  1  0
 14 13  2  0
 15 20  2  0
 16 15  1  0
 17 16  2  0
 17 18  1  0
 18 19  2  0
 19 20  1  0
  2 21  1  0
  2 22  1  0
  3 23  1  0
  3 24  1  0
  4 25  1  0
  4 26  1  0
  5 27  1  1
  9 28  1  0
 10 29  1  0
 11 30  1  0
 13 31  1  0
 15 32  1  0
 16 33  1  0
 19 34  1  0
M  ISO  8  21  13  22  13  23  13  24  13  25  13  26  13  27  13  28  14
M  ISO  6  29  14  30  14  31   6  32  14  33  14  34  14
M  END
>  <minimizedAffinity>  (1) 
-5.20786858

>  <minimizedRMSD>  (1) 
0.948601604

$$$$
