
     RDKit          3D

 34 36  0  0  1  0  0  0  0  0999 V2000
   47.2780   34.5560   42.5980 N   0  0  0  0  0  0  0  0  0  0  0  0
   48.6750   34.2440   42.6290 C   0  0  0  0  0  0  0  0  0  0  0  0
   49.1570   35.2360   41.5840 C   0  0  0  0  0  0  0  0  0  0  0  0
   48.2110   34.8410   40.4540 C   0  0  0  0  0  0  0  0  0  0  0  0
   46.9190   34.6940   41.1830 C   0  0  1  0  0  0  0  0  0  0  0  0
   44.1610   35.0810   40.6510 F   0  0  0  0  0  0  0  0  0  0  0  0
   44.6900   33.8250   40.4150 C   0  0  0  0  0  0  0  0  0  0  0  0
   46.0180   33.6540   40.7020 C   0  0  0  0  0  0  0  0  0  0  0  0
   46.5040   32.3760   40.4650 C   0  0  0  0  0  0  0  0  0  0  0  0
   45.6890   31.3750   39.9790 C   0  0  0  0  0  0  0  0  0  0  0  0
   44.3310   31.6190   39.7050 C   0  0  0  0  0  0  0  0  0  0  0  0
   43.8190   32.9070   39.9380 C   0  0  0  0  0  0  0  0  0  0  0  0
   42.4580   33.1150   39.6540 N   0  0  0  0  0  0  0  0  0  0  0  0
   44.4980   35.8570   44.7030 C   0  0  0  0  0  0  0  0  0  0  0  0
   45.3800   35.7560   43.6360 C   0  0  0  0  0  0  0  0  0  0  0  0
   46.3370   34.7290   43.6420 C   0  0  0  0  0  0  0  0  0  0  0  0
   46.3450   33.8910   44.6930 N   0  0  0  0  0  0  0  0  0  0  0  0
   45.4810   34.0010   45.7250 C   0  0  0  0  0  0  0  0  0  0  0  0
   44.5520   34.9930   45.7250 N   0  0  0  0  0  0  0  0  0  0  0  0
   49.1195   34.4353   43.6168 H   0  0  0  0  0  0  0  0  0  0  0  0
   48.9313   33.1913   42.4390 H   0  0  0  0  0  0  0  0  0  0  0  0
   49.0114   36.2788   41.9025 H   0  0  0  0  0  0  0  0  0  0  0  0
   50.2304   35.1997   41.3465 H   0  0  0  0  0  0  0  0  0  0  0  0
   48.5179   33.8940   39.9860 H   0  0  0  0  0  0  0  0  0  0  0  0
   48.1776   35.5632   39.6250 H   0  0  0  0  0  0  0  0  0  0  0  0
   46.2995   35.5843   40.9997 H   0  0  0  0  0  0  0  0  0  0  0  0
   47.5624   32.1565   40.6692 H   0  0  0  0  0  0  0  0  0  0  0  0
   46.1065   30.3726   39.8033 H   0  0  0  0  0  0  0  0  0  0  0  0
   43.6837   30.8189   39.3167 H   0  0  0  0  0  0  0  0  0  0  0  0
   42.0355   34.0417   39.8080 H   0  0  0  0  0  0  0  0  0  0  0  0
   41.8833   32.3407   39.2919 H   0  0  0  0  0  0  0  0  0  0  0  0
   43.7440   36.6579   44.7093 H   0  0  0  0  0  0  0  0  0  0  0  0
   45.3299   36.4688   42.7997 H   0  0  0  0  0  0  0  0  0  0  0  0
   45.5290   33.2900   46.5629 H   0  0  0  0  0  0  0  0  0  0  0  0
  1  2  1  0
  1 16  1  0
  3  2  1  0
  4  5  1  0
  4  3  1  0
  5  1  1  0
  7  6  1  0
  7  8  2  0
  8  5  1  0
  9  8  1  0
 10  9  2  0
 11 12  2  0
 11 10  1  0
 12  7  1  0
 13 12  1  0
 14 19  2  0
 15 16  2  0
 15 14  1  0
 16 17  1  0
 17 18  2  0
 18 19  1  0
  2 20  1  0
  2 21  1  0
  3 22  1  0
  3 23  1  0
  4 24  1  0
  4 25  1  0
  5 26  1  1
  9 27  1  0
 10 28  1  0
 11 29  1  0
 13 30  1  0
 13 31  1  0
 14 32  1  0
 15 33  1  0
 18 34  1  0
M  ISO  8  20  13  21  13  22  13  23  13  24  13  25  13  26  13  27  14
M  ISO  5  28  14  29  14  32  14  33  14  34  14
M  END
>  <minimizedAffinity>  (1) 
-5.1550684

>  <minimizedRMSD>  (1) 
0.0145412916

$$$$
