
     RDKit          3D

 32 34  0  0  1  0  0  0  0  0999 V2000
   46.8020   35.1110   42.4650 C   0  0  0  0  0  0  0  0  0  0  0  0
   47.6430   35.0740   41.3250 C   0  0  0  0  0  0  0  0  0  0  0  0
   48.5080   33.9640   41.1760 C   0  0  0  0  0  0  0  0  0  0  0  0
   48.4900   32.9900   42.1280 N   0  0  0  0  0  0  0  0  0  0  0  0
   47.6750   33.0610   43.1990 C   0  0  0  0  0  0  0  0  0  0  0  0
   46.8390   34.1070   43.3700 N   0  0  0  0  0  0  0  0  0  0  0  0
   47.5830   32.1090   44.2340 N   0  0  0  0  0  0  0  0  0  0  0  0
   48.0960   30.9020   43.8920 C   0  0  0  0  0  0  0  0  0  0  0  0
   48.0660   29.8730   44.8240 C   0  0  0  0  0  0  0  0  0  0  0  0
   47.4950   30.1760   46.0650 C   0  0  0  0  0  0  0  0  0  0  0  0
   47.4490   29.2720   46.9380 O   0  0  0  0  0  0  0  0  0  0  0  0
   46.9980   31.3870   46.3640 N   0  0  0  0  0  0  0  0  0  0  0  0
   47.0460   32.3630   45.4310 C   0  0  0  0  0  0  0  0  0  0  0  0
   46.6140   33.5380   45.5880 O   0  0  0  0  0  0  0  0  0  0  0  0
   44.9340   31.4360   47.7280 C   0  0  2  0  0  0  0  0  0  0  0  0
   46.4090   31.7360   47.6190 C   0  0  1  0  0  0  0  0  0  0  0  0
   46.9270   30.9000   48.7850 C   0  0  0  0  0  0  0  0  0  0  0  0
   45.8770   30.7260   49.6710 O   0  0  0  0  0  0  0  0  0  0  0  0
   44.8150   31.5170   49.2560 C   0  0  0  0  0  0  0  0  0  0  0  0
   44.6420   30.1250   47.3920 O   0  0  0  0  0  0  0  0  0  0  0  0
   46.1172   35.9588   42.6141 H   0  0  0  0  0  0  0  0  0  0  0  0
   47.6240   35.8826   40.5795 H   0  0  0  0  0  0  0  0  0  0  0  0
   49.1811   33.8893   40.3092 H   0  0  0  0  0  0  0  0  0  0  0  0
   48.5286   30.7403   42.8936 H   0  0  0  0  0  0  0  0  0  0  0  0
   48.4690   28.8745   44.5990 H   0  0  0  0  0  0  0  0  0  0  0  0
   44.2984   32.0775   47.1000 H   0  0  0  0  0  0  0  0  0  0  0  0
   46.6532   32.8076   47.6636 H   0  0  0  0  0  0  0  0  0  0  0  0
   47.2767   29.9229   48.4204 H   0  0  0  0  0  0  0  0  0  0  0  0
   47.7710   31.4042   49.2785 H   0  0  0  0  0  0  0  0  0  0  0  0
   44.9252   32.5523   49.6110 H   0  0  0  0  0  0  0  0  0  0  0  0
   43.8393   31.1876   49.6427 H   0  0  0  0  0  0  0  0  0  0  0  0
   44.5232   29.5914   48.2174 H   0  0  0  0  0  0  0  0  0  0  0  0
  1  6  2  0
  2  1  1  0
  3  2  2  0
  3  4  1  0
  4  5  2  0
  5  6  1  0
  5  7  1  0
  7 13  1  0
  8  7  1  0
  8  9  2  0
  9 10  1  0
 10 12  1  0
 10 11  2  0
 13 14  2  0
 13 12  1  0
 15 20  1  0
 15 19  1  0
 16 12  1  0
 16 15  1  0
 16 17  1  0
 17 18  1  0
 19 18  1  0
  1 21  1  0
  2 22  1  0
  3 23  1  0
  8 24  1  0
  9 25  1  0
 15 26  1  6
 16 27  1  1
 17 28  1  0
 17 29  1  0
 19 30  1  0
 19 31  1  0
 20 32  1  0
M  ISO  8  21  14  22  14  23  14  24  14  25  14  26  13  27  13  28  13
M  ISO  4  29  13  30  13  31  13  32   3
M  END
>  <minimizedAffinity>  (1) 
-4.91581535

>  <minimizedRMSD>  (1) 
3.42900038

$$$$
