
     RDKit          3D

 25 27  0  0  0  0  0  0  0  0999 V2000
   42.5800   35.3160   41.9140 C   0  0  0  0  0  0  0  0  0  0  0  0
   43.4520   34.8680   40.9330 C   0  0  0  0  0  0  0  0  0  0  0  0
   43.0080   34.5660   39.6770 C   0  0  0  0  0  0  0  0  0  0  0  0
   41.6760   34.6940   39.3360 C   0  0  0  0  0  0  0  0  0  0  0  0
   40.7840   35.1480   40.3230 C   0  0  0  0  0  0  0  0  0  0  0  0
   41.2280   35.4540   41.5950 C   0  0  0  0  0  0  0  0  0  0  0  0
   39.4960   35.1940   39.7330 O   0  0  0  0  0  0  0  0  0  0  0  0
   39.5850   34.3850   38.5670 C   0  0  0  0  0  0  0  0  0  0  0  0
   40.9400   34.4680   38.1610 O   0  0  0  0  0  0  0  0  0  0  0  0
   45.1680   34.7230   41.4420 S   0  0  0  0  0  0  0  0  0  0  0  0
   45.2580   34.3530   43.2100 C   0  0  0  0  0  0  0  0  0  0  0  0
   45.8360   33.1310   43.5150 C   0  0  0  0  0  0  0  0  0  0  0  0
   45.9300   32.7950   44.8850 C   0  0  0  0  0  0  0  0  0  0  0  0
   45.4620   33.6580   45.8050 N   0  0  0  0  0  0  0  0  0  0  0  0
   44.9040   34.8420   45.4600 C   0  0  0  0  0  0  0  0  0  0  0  0
   44.8140   35.1650   44.1680 N   0  0  0  0  0  0  0  0  0  0  0  0
   44.4030   35.7810   46.3390 O   0  0  0  0  0  0  0  0  0  0  0  0
   42.9462   35.5576   42.9227 H   0  0  0  0  0  0  0  0  0  0  0  0
   43.7261   34.2137   38.9219 H   0  0  0  0  0  0  0  0  0  0  0  0
   40.5163   35.8063   42.3562 H   0  0  0  0  0  0  0  0  0  0  0  0
   39.3144   33.3441   38.7979 H   0  0  0  0  0  0  0  0  0  0  0  0
   38.8974   34.7234   37.7778 H   0  0  0  0  0  0  0  0  0  0  0  0
   46.2039   32.4551   42.7290 H   0  0  0  0  0  0  0  0  0  0  0  0
   46.3800   31.8403   45.1948 H   0  0  0  0  0  0  0  0  0  0  0  0
   44.0115   36.6224   45.9943 H   0  0  0  0  0  0  0  0  0  0  0  0
  2 10  1  0
  2  1  2  0
  3  2  1  0
  4  3  2  0
  4  5  1  0
  5  6  2  0
  6  1  1  0
  7  5  1  0
  8  7  1  0
  9  8  1  0
  9  4  1  0
 10 11  1  0
 11 12  2  0
 11 16  1  0
 12 13  1  0
 13 14  2  0
 15 14  1  0
 15 17  1  0
 16 15  2  0
  1 18  1  0
  3 19  1  0
  6 20  1  0
  8 21  1  0
  8 22  1  0
 12 23  1  0
 13 24  1  0
 17 25  1  0
M  ISO  8  18  14  19  14  20  14  21  13  22  13  23  14  24  14  25   3
M  END
>  <minimizedAffinity>  (1) 
-5.43290424

>  <minimizedRMSD>  (1) 
0.731097162

$$$$
