
     RDKit          3D

 36 39  0  0  1  0  0  0  0  0999 V2000
   46.8980   33.3640   43.3680 C   0  0  0  0  0  0  0  0  0  0  0  0
   48.0020   32.7430   42.8100 C   0  0  0  0  0  0  0  0  0  0  0  0
   48.3690   31.4970   43.3570 C   0  0  0  0  0  0  0  0  0  0  0  0
   47.6530   30.9800   44.3650 N   0  0  0  0  0  0  0  0  0  0  0  0
   46.5770   31.6250   44.8810 C   0  0  0  0  0  0  0  0  0  0  0  0
   46.2280   32.8080   44.3630 N   0  0  0  0  0  0  0  0  0  0  0  0
   46.4860   34.9610   42.6160 S   0  0  0  0  0  0  0  0  0  0  0  0
   43.9210   35.5520   42.0930 C   0  0  0  0  0  0  0  0  0  0  0  0
   44.9850   34.8030   41.6380 C   0  0  0  0  0  0  0  0  0  0  0  0
   44.8790   34.0110   40.5260 C   0  0  0  0  0  0  0  0  0  0  0  0
   43.7040   33.9250   39.8090 C   0  0  0  0  0  0  0  0  0  0  0  0
   42.6170   34.6850   40.2680 C   0  0  0  0  0  0  0  0  0  0  0  0
   42.7130   35.4850   41.3850 C   0  0  0  0  0  0  0  0  0  0  0  0
   41.5370   34.4310   39.3750 O   0  0  0  0  0  0  0  0  0  0  0  0
   41.8880   33.2620   38.6670 C   0  0  0  0  0  0  0  0  0  0  0  0
   43.3070   33.2220   38.6660 O   0  0  0  0  0  0  0  0  0  0  0  0
   45.7830   31.1770   45.9120 O   0  0  0  0  0  0  0  0  0  0  0  0
   46.3960   28.8930   47.2600 O   0  0  0  0  0  0  0  0  0  0  0  0
   45.9640   29.8750   47.9270 C   0  0  0  0  0  0  0  0  0  0  0  0
   46.0880   31.2040   47.2640 C   0  0  2  0  0  0  0  0  0  0  0  0
   45.1350   32.0370   48.0890 C   0  0  0  0  0  0  0  0  0  0  0  0
   45.4600   31.5040   49.4910 C   0  0  0  0  0  0  0  0  0  0  0  0
   45.3550   30.0620   49.2200 N   0  0  0  0  0  0  0  0  0  0  0  0
   48.5644   33.1988   41.9817 H   0  0  0  0  0  0  0  0  0  0  0  0
   49.2378   30.9522   42.9590 H   0  0  0  0  0  0  0  0  0  0  0  0
   44.0172   36.1851   42.9874 H   0  0  0  0  0  0  0  0  0  0  0  0
   45.7524   33.4291   40.1965 H   0  0  0  0  0  0  0  0  0  0  0  0
   41.8440   36.0699   41.7207 H   0  0  0  0  0  0  0  0  0  0  0  0
   41.4801   32.3727   39.1697 H   0  0  0  0  0  0  0  0  0  0  0  0
   41.4824   33.2707   37.6445 H   0  0  0  0  0  0  0  0  0  0  0  0
   47.1143   31.5994   47.2469 H   0  0  0  0  0  0  0  0  0  0  0  0
   45.3511   33.1120   48.0008 H   0  0  0  0  0  0  0  0  0  0  0  0
   44.0776   31.9570   47.7966 H   0  0  0  0  0  0  0  0  0  0  0  0
   46.4711   31.7898   49.8166 H   0  0  0  0  0  0  0  0  0  0  0  0
   44.8177   31.8808   50.3006 H   0  0  0  0  0  0  0  0  0  0  0  0
   44.9362   29.3408   49.8244 H   0  0  0  0  0  0  0  0  0  0  0  0
  1  6  2  0
  2  3  2  0
  2  1  1  0
  3  4  1  0
  4  5  2  0
  5 17  1  0
  6  5  1  0
  7  1  1  0
  9  8  2  0
  9  7  1  0
 10  9  1  0
 11 12  1  0
 11 10  2  0
 12 13  2  0
 13  8  1  0
 14 12  1  0
 15 14  1  0
 16 15  1  0
 16 11  1  0
 18 19  2  0
 19 23  1  0
 20 17  1  0
 20 19  1  0
 20 21  1  0
 21 22  1  0
 23 22  1  0
  2 24  1  0
  3 25  1  0
  8 26  1  0
 10 27  1  0
 13 28  1  0
 15 29  1  0
 15 30  1  0
 20 31  1  6
 21 32  1  0
 21 33  1  0
 22 34  1  0
 22 35  1  0
 23 36  1  0
M  ISO  8  24  14  25  14  26  14  27  14  28  14  29  13  30  13  31  13
M  ISO  5  32  13  33  13  34  13  35  13  36  10
M  END
>  <minimizedAffinity>  (1) 
-5.2835536

>  <minimizedRMSD>  (1) 
4.76308632

$$$$
