
     RDKit          3D

 42 45  0  0  0  0  0  0  0  0999 V2000
   43.9080   34.7740   40.9880 C   0  0  0  0  0  0  0  0  0  0  0  0
   43.8330   33.9230   39.9010 C   0  0  0  0  0  0  0  0  0  0  0  0
   45.0460   33.3610   39.5030 C   0  0  0  0  0  0  0  0  0  0  0  0
   46.1880   33.6450   40.1480 N   0  0  0  0  0  0  0  0  0  0  0  0
   46.2110   34.4850   41.2080 C   0  0  0  0  0  0  0  0  0  0  0  0
   45.0590   35.0340   41.6070 N   0  0  0  0  0  0  0  0  0  0  0  0
   45.0540   32.4760   38.3940 N   0  0  0  0  0  0  0  0  0  0  0  0
   45.8320   32.7560   37.2100 C   0  0  0  0  0  0  0  0  0  0  0  0
   45.3470   31.9150   36.0520 C   0  0  0  0  0  0  0  0  0  0  0  0
   43.9210   31.8090   36.0610 N   0  0  0  0  0  0  0  0  0  0  0  0
   43.3480   31.2550   37.2480 C   0  0  0  0  0  0  0  0  0  0  0  0
   44.2690   31.2580   38.4320 C   0  0  0  0  0  0  0  0  0  0  0  0
   42.3340   35.5190   41.5240 S   0  0  0  0  0  0  0  0  0  0  0  0
   39.9970   34.9400   40.3050 C   0  0  0  0  0  0  0  0  0  0  0  0
   40.9790   34.4150   41.1450 C   0  0  0  0  0  0  0  0  0  0  0  0
   40.8790   33.1300   41.6300 C   0  0  0  0  0  0  0  0  0  0  0  0
   39.8100   32.3190   41.3060 C   0  0  0  0  0  0  0  0  0  0  0  0
   38.8190   32.8470   40.4600 C   0  0  0  0  0  0  0  0  0  0  0  0
   38.9030   34.1350   39.9630 C   0  0  0  0  0  0  0  0  0  0  0  0
   37.8480   31.8430   40.2790 O   0  0  0  0  0  0  0  0  0  0  0  0
   38.0810   30.8890   41.2820 C   0  0  0  0  0  0  0  0  0  0  0  0
   39.4460   31.0090   41.6360 O   0  0  0  0  0  0  0  0  0  0  0  0
   47.3110   34.8400   41.9320 O   0  0  0  0  0  0  0  0  0  0  0  0
   48.5310   35.0250   41.2490 C   0  0  0  0  0  0  0  0  0  0  0  0
   49.3930   33.9770   41.3640 F   0  0  0  0  0  0  0  0  0  0  0  0
   48.1790   35.2880   39.9200 F   0  0  0  0  0  0  0  0  0  0  0  0
   49.1400   36.1380   41.8200 F   0  0  0  0  0  0  0  0  0  0  0  0
   42.8852   33.7049   39.3871 H   0  0  0  0  0  0  0  0  0  0  0  0
   45.7306   33.8207   36.9527 H   0  0  0  0  0  0  0  0  0  0  0  0
   46.8865   32.5151   37.4099 H   0  0  0  0  0  0  0  0  0  0  0  0
   45.7836   30.9084   36.1301 H   0  0  0  0  0  0  0  0  0  0  0  0
   45.6579   32.3965   35.1131 H   0  0  0  0  0  0  0  0  0  0  0  0
   43.5326   32.7544   35.9336 H   0  0  0  0  0  0  0  0  0  0  0  0
   42.4529   31.8404   37.5052 H   0  0  0  0  0  0  0  0  0  0  0  0
   43.1183   30.2021   37.0276 H   0  0  0  0  0  0  0  0  0  0  0  0
   44.9356   30.3841   38.3871 H   0  0  0  0  0  0  0  0  0  0  0  0
   43.6879   31.2102   39.3647 H   0  0  0  0  0  0  0  0  0  0  0  0
   40.0801   35.9665   39.9186 H   0  0  0  0  0  0  0  0  0  0  0  0
   41.6684   32.7413   42.2901 H   0  0  0  0  0  0  0  0  0  0  0  0
   38.1146   34.5252   39.3025 H   0  0  0  0  0  0  0  0  0  0  0  0
   37.4422   31.0902   42.1546 H   0  0  0  0  0  0  0  0  0  0  0  0
   37.8475   29.8735   40.9294 H   0  0  0  0  0  0  0  0  0  0  0  0
  1 13  1  0
  1  6  1  0
  2  1  2  0
  3  2  1  0
  3  4  2  0
  4  5  1  0
  5  6  2  0
  5 23  1  0
  7 12  1  0
  7  3  1  0
  8  7  1  0
  9 10  1  0
  9  8  1  0
 10 11  1  0
 11 12  1  0
 14 15  2  0
 15 13  1  0
 15 16  1  0
 17 16  2  0
 17 22  1  0
 18 17  1  0
 19 14  1  0
 19 18  2  0
 20 18  1  0
 20 21  1  0
 21 22  1  0
 24 25  1  0
 24 27  1  0
 24 23  1  0
 26 24  1  0
  2 28  1  0
  8 29  1  0
  8 30  1  0
  9 31  1  0
  9 32  1  0
 10 33  1  0
 11 34  1  0
 11 35  1  0
 12 36  1  0
 12 37  1  0
 14 38  1  0
 16 39  1  0
 19 40  1  0
 21 41  1  0
 21 42  1  0
M  ISO  8  28  14  29  13  30  13  31  13  32  13  33   5  34  13  35  13
M  ISO  7  36  13  37  13  38  14  39  14  40  14  41  13  42  13
M  END
>  <minimizedAffinity>  (1) 
-6.421628

>  <minimizedRMSD>  (1) 
0.240427166

$$$$
