
     RDKit          3D

 31 33  0  0  0  0  0  0  0  0999 V2000
   42.3230   35.5360   41.3680 S   0  0  0  0  0  0  0  0  0  0  0  0
   39.9710   34.8830   40.2460 C   0  0  0  0  0  0  0  0  0  0  0  0
   40.9810   34.4000   41.0630 C   0  0  0  0  0  0  0  0  0  0  0  0
   40.9050   33.1210   41.5820 C   0  0  0  0  0  0  0  0  0  0  0  0
   39.8380   32.2880   41.3100 C   0  0  0  0  0  0  0  0  0  0  0  0
   38.8190   32.7780   40.4840 C   0  0  0  0  0  0  0  0  0  0  0  0
   38.8700   34.0600   39.9490 C   0  0  0  0  0  0  0  0  0  0  0  0
   37.8580   31.7630   40.3540 O   0  0  0  0  0  0  0  0  0  0  0  0
   38.1280   30.8510   41.3930 C   0  0  0  0  0  0  0  0  0  0  0  0
   39.5080   30.9920   41.6820 O   0  0  0  0  0  0  0  0  0  0  0  0
   43.9060   34.7590   40.9480 C   0  0  0  0  0  0  0  0  0  0  0  0
   43.8570   33.8210   39.9550 C   0  0  0  0  0  0  0  0  0  0  0  0
   45.0760   33.1960   39.6040 C   0  0  0  0  0  0  0  0  0  0  0  0
   46.2010   33.5470   40.2490 N   0  0  0  0  0  0  0  0  0  0  0  0
   46.1990   34.4810   41.2250 C   0  0  0  0  0  0  0  0  0  0  0  0
   45.0530   35.0740   41.5620 N   0  0  0  0  0  0  0  0  0  0  0  0
   45.0870   32.1680   38.5320 C   0  0  0  0  0  0  0  0  0  0  0  0
   47.3020   34.8950   41.9310 O   0  0  0  0  0  0  0  0  0  0  0  0
   48.5170   35.0880   41.2410 C   0  0  0  0  0  0  0  0  0  0  0  0
   49.4200   34.0930   41.4630 F   0  0  0  0  0  0  0  0  0  0  0  0
   48.1540   35.2390   39.9030 F   0  0  0  0  0  0  0  0  0  0  0  0
   49.0570   36.2740   41.7240 F   0  0  0  0  0  0  0  0  0  0  0  0
   40.0300   35.9010   39.8335 H   0  0  0  0  0  0  0  0  0  0  0  0
   41.7166   32.7570   42.2292 H   0  0  0  0  0  0  0  0  0  0  0  0
   38.0595   34.4261   39.3016 H   0  0  0  0  0  0  0  0  0  0  0  0
   37.5243   31.0918   42.2805 H   0  0  0  0  0  0  0  0  0  0  0  0
   37.8788   29.8200   41.1015 H   0  0  0  0  0  0  0  0  0  0  0  0
   42.9130   33.5642   39.4521 H   0  0  0  0  0  0  0  0  0  0  0  0
   45.0977   31.1658   38.9852 H   0  0  0  0  0  0  0  0  0  0  0  0
   44.1876   32.2788   37.9084 H   0  0  0  0  0  0  0  0  0  0  0  0
   45.9838   32.2981   37.9084 H   0  0  0  0  0  0  0  0  0  0  0  0
  2  3  2  0
  3  1  1  0
  3  4  1  0
  5  4  2  0
  5 10  1  0
  6  5  1  0
  7  2  1  0
  7  6  2  0
  8  6  1  0
  8  9  1  0
  9 10  1  0
 11  1  1  0
 11 16  1  0
 12 11  2  0
 13 12  1  0
 13 14  2  0
 14 15  1  0
 15 16  2  0
 15 18  1  0
 17 13  1  0
 19 20  1  0
 19 22  1  0
 19 18  1  0
 21 19  1  0
  2 23  1  0
  4 24  1  0
  7 25  1  0
  9 26  1  0
  9 27  1  0
 12 28  1  0
 17 29  1  0
 17 30  1  0
 17 31  1  0
M  ISO  8  23  14  24  14  25  14  26  13  27  13  28  14  29   8  30   8
M  ISO  1  31   8
M  END
>  <minimizedAffinity>  (1) 
-5.68239594

>  <minimizedRMSD>  (1) 
0.0595009923

$$$$
