
     RDKit          3D

 37 39  0  0  0  0  0  0  0  0999 V2000
   43.5430   34.0610   40.3150 C   0  0  0  0  0  0  0  0  0  0  0  0
   43.3210   33.6620   39.0430 C   0  0  0  0  0  0  0  0  0  0  0  0
   44.4180   33.1140   38.3470 C   0  0  0  0  0  0  0  0  0  0  0  0
   45.6220   33.0120   38.9590 N   0  0  0  0  0  0  0  0  0  0  0  0
   45.7940   33.4230   40.2270 C   0  0  0  0  0  0  0  0  0  0  0  0
   44.7400   33.9310   40.8480 N   0  0  0  0  0  0  0  0  0  0  0  0
   44.3080   32.6390   37.0060 N   0  0  0  0  0  0  0  0  0  0  0  0
   42.7910   35.9280   37.6580 N   0  0  0  0  0  0  0  0  0  0  0  0
   41.8690   35.0200   37.7400 C   0  0  0  0  0  0  0  0  0  0  0  0
   42.1840   33.6890   38.2210 N   0  0  0  0  0  0  0  0  0  0  0  0
   40.5250   35.3620   37.3440 N   0  0  0  0  0  0  0  0  0  0  0  0
   42.5470   36.8690   37.3140 H   0  0  0  0  0  0  0  0  0  0  0  0
   42.0950   34.7460   41.1640 S   0  0  0  0  0  0  0  0  0  0  0  0
   39.5700   34.1060   40.5770 C   0  0  0  0  0  0  0  0  0  0  0  0
   40.7460   33.5840   41.1360 C   0  0  0  0  0  0  0  0  0  0  0  0
   40.8070   32.2740   41.5910 C   0  0  0  0  0  0  0  0  0  0  0  0
   39.7130   31.4560   41.5050 C   0  0  0  0  0  0  0  0  0  0  0  0
   38.5320   31.9600   40.9500 C   0  0  0  0  0  0  0  0  0  0  0  0
   38.4460   33.2670   40.4890 C   0  0  0  0  0  0  0  0  0  0  0  0
   37.5720   30.9190   40.9830 O   0  0  0  0  0  0  0  0  0  0  0  0
   38.0740   29.9560   41.8470 C   0  0  0  0  0  0  0  0  0  0  0  0
   39.4730   30.1390   41.8630 O   0  0  0  0  0  0  0  0  0  0  0  0
   46.9670   33.3690   40.9450 O   0  0  0  0  0  0  0  0  0  0  0  0
   47.8680   34.4440   40.8080 C   0  0  0  0  0  0  0  0  0  0  0  0
   49.1330   34.1160   41.2280 F   0  0  0  0  0  0  0  0  0  0  0  0
   47.8420   34.8120   39.4500 F   0  0  0  0  0  0  0  0  0  0  0  0
   47.3990   35.4900   41.5860 F   0  0  0  0  0  0  0  0  0  0  0  0
   43.4074   32.7009   36.5100 H   0  0  0  0  0  0  0  0  0  0  0  0
   45.1292   32.2342   36.5340 H   0  0  0  0  0  0  0  0  0  0  0  0
   41.6319   32.8522   37.9845 H   0  0  0  0  0  0  0  0  0  0  0  0
   39.7763   34.6570   37.4006 H   0  0  0  0  0  0  0  0  0  0  0  0
   40.3139   36.3113   37.0046 H   0  0  0  0  0  0  0  0  0  0  0  0
   39.5287   35.1446   40.2170 H   0  0  0  0  0  0  0  0  0  0  0  0
   41.7424   31.8901   42.0243 H   0  0  0  0  0  0  0  0  0  0  0  0
   37.5060   33.6425   40.0585 H   0  0  0  0  0  0  0  0  0  0  0  0
   37.6589   30.0943   42.8562 H   0  0  0  0  0  0  0  0  0  0  0  0
   37.8042   28.9411   41.5196 H   0  0  0  0  0  0  0  0  0  0  0  0
  1  6  1  0
  1 13  1  0
  2  1  2  0
  3  4  2  0
  3  2  1  0
  4  5  1  0
  5  6  2  0
  5 23  1  0
  7  3  1  0
  8  9  2  0
  9 10  1  0
 10  2  1  0
 11  9  1  0
 12  8  1  0
 14 15  2  0
 15 13  1  0
 15 16  1  0
 17 16  2  0
 17 22  1  0
 18 20  1  0
 18 17  1  0
 19 14  1  0
 19 18  2  0
 20 21  1  0
 21 22  1  0
 24 23  1  0
 24 25  1  0
 24 27  1  0
 26 24  1  0
  7 28  1  0
  7 29  1  0
 10 30  1  0
 11 31  1  0
 11 32  1  0
 14 33  1  0
 16 34  1  0
 19 35  1  0
 21 36  1  0
 21 37  1  0
M  ISO  5  33  14  34  14  35  14  36  13  37  13
M  END
>  <minimizedAffinity>  (1) 
-6.13067818

>  <minimizedRMSD>  (1) 
1.19867861

$$$$
