
     RDKit          3D

 40 43  0  0  0  0  0  0  0  0999 V2000
   43.7030   34.7960   41.1930 C   0  0  0  0  0  0  0  0  0  0  0  0
   43.6800   33.8570   40.2190 C   0  0  0  0  0  0  0  0  0  0  0  0
   44.9310   33.3050   39.8570 C   0  0  0  0  0  0  0  0  0  0  0  0
   46.0580   33.7360   40.4800 N   0  0  0  0  0  0  0  0  0  0  0  0
   46.0210   34.6750   41.4380 C   0  0  0  0  0  0  0  0  0  0  0  0
   44.8410   35.1560   41.7440 N   0  0  0  0  0  0  0  0  0  0  0  0
   42.0010   34.6250   37.9560 F   0  0  0  0  0  0  0  0  0  0  0  0
   41.9820   33.2850   38.2590 C   0  0  0  0  0  0  0  0  0  0  0  0
   42.7770   33.1010   39.3600 C   0  0  0  0  0  0  0  0  0  0  0  0
   42.8530   31.7870   39.8620 C   0  0  0  0  0  0  0  0  0  0  0  0
   42.1520   30.7290   39.2610 C   0  0  0  0  0  0  0  0  0  0  0  0
   41.3630   30.9720   38.1460 C   0  0  0  0  0  0  0  0  0  0  0  0
   41.2960   32.2600   37.6670 C   0  0  0  0  0  0  0  0  0  0  0  0
   45.0720   32.2760   38.8810 N   0  0  0  0  0  0  0  0  0  0  0  0
   42.0700   35.4650   41.6000 S   0  0  0  0  0  0  0  0  0  0  0  0
   39.8100   34.7040   40.4060 C   0  0  0  0  0  0  0  0  0  0  0  0
   40.7910   34.2750   41.3080 C   0  0  0  0  0  0  0  0  0  0  0  0
   40.7490   33.0330   41.8740 C   0  0  0  0  0  0  0  0  0  0  0  0
   39.7400   32.1320   41.5860 C   0  0  0  0  0  0  0  0  0  0  0  0
   38.7440   32.5390   40.6830 C   0  0  0  0  0  0  0  0  0  0  0  0
   38.7610   33.8020   40.0920 C   0  0  0  0  0  0  0  0  0  0  0  0
   37.8350   31.4680   40.5490 O   0  0  0  0  0  0  0  0  0  0  0  0
   38.1080   30.5860   41.5860 C   0  0  0  0  0  0  0  0  0  0  0  0
   39.4380   30.8400   41.9850 O   0  0  0  0  0  0  0  0  0  0  0  0
   47.1020   35.1760   42.1190 O   0  0  0  0  0  0  0  0  0  0  0  0
   48.3560   35.1490   41.4830 C   0  0  0  0  0  0  0  0  0  0  0  0
   49.0530   34.0050   41.7740 F   0  0  0  0  0  0  0  0  0  0  0  0
   48.1120   35.2700   40.1080 F   0  0  0  0  0  0  0  0  0  0  0  0
   49.0970   36.2220   41.9380 F   0  0  0  0  0  0  0  0  0  0  0  0
   43.4762   31.5849   40.7456 H   0  0  0  0  0  0  0  0  0  0  0  0
   42.2281   29.7117   39.6726 H   0  0  0  0  0  0  0  0  0  0  0  0
   40.8066   30.1578   37.6586 H   0  0  0  0  0  0  0  0  0  0  0  0
   40.6743   32.4713   36.7845 H   0  0  0  0  0  0  0  0  0  0  0  0
   46.0062   31.9072   38.6527 H   0  0  0  0  0  0  0  0  0  0  0  0
   44.2397   31.9011   38.4039 H   0  0  0  0  0  0  0  0  0  0  0  0
   39.8512   35.7068   39.9559 H   0  0  0  0  0  0  0  0  0  0  0  0
   41.5407   32.7406   42.5795 H   0  0  0  0  0  0  0  0  0  0  0  0
   37.9681   34.0962   39.3886 H   0  0  0  0  0  0  0  0  0  0  0  0
   37.4189   30.7607   42.4255 H   0  0  0  0  0  0  0  0  0  0  0  0
   37.9802   29.5415   41.2654 H   0  0  0  0  0  0  0  0  0  0  0  0
  1 15  1  0
  1  6  2  0
  2  1  1  0
  3  2  2  0
  3  4  1  0
  4  5  2  0
  5  6  1  0
  5 25  1  0
  7  8  1  0
  8  9  2  0
  9 10  1  0
  9  2  1  0
 11 10  2  0
 12 11  1  0
 13 12  2  0
 13  8  1  0
 14  3  1  0
 16 17  2  0
 17 15  1  0
 17 18  1  0
 19 18  2  0
 19 24  1  0
 20 19  1  0
 21 16  1  0
 21 20  2  0
 22 20  1  0
 22 23  1  0
 23 24  1  0
 26 27  1  0
 26 29  1  0
 26 25  1  0
 28 26  1  0
 10 30  1  0
 11 31  1  0
 12 32  1  0
 13 33  1  0
 14 34  1  0
 14 35  1  0
 16 36  1  0
 18 37  1  0
 21 38  1  0
 23 39  1  0
 23 40  1  0
M  ISO  8  30  14  31  14  32  14  33  14  36  14  37  14  38  14  39  13
M  ISO  1  40  13
M  END
>  <minimizedAffinity>  (1) 
-6.08212519

>  <minimizedRMSD>  (1) 
0.368119061

$$$$
