
     RDKit          3D

 36 38  0  0  0  0  0  0  0  0999 V2000
   44.2380   34.6600   41.0980 C   0  0  0  0  0  0  0  0  0  0  0  0
   44.2310   33.4960   40.4000 C   0  0  0  0  0  0  0  0  0  0  0  0
   45.4540   32.8000   40.3150 C   0  0  0  0  0  0  0  0  0  0  0  0
   46.5530   33.3050   40.9160 N   0  0  0  0  0  0  0  0  0  0  0  0
   46.5170   34.4620   41.5980 C   0  0  0  0  0  0  0  0  0  0  0  0
   45.3520   35.0970   41.6610 N   0  0  0  0  0  0  0  0  0  0  0  0
   45.5660   31.5650   39.6090 N   0  0  0  0  0  0  0  0  0  0  0  0
   42.6430   35.5120   41.1800 S   0  0  0  0  0  0  0  0  0  0  0  0
   40.2040   34.7780   40.3820 C   0  0  0  0  0  0  0  0  0  0  0  0
   41.3000   34.3290   41.1020 C   0  0  0  0  0  0  0  0  0  0  0  0
   41.2970   33.0860   41.6710 C   0  0  0  0  0  0  0  0  0  0  0  0
   40.2290   32.2400   41.5610 C   0  0  0  0  0  0  0  0  0  0  0  0
   39.1220   32.6780   40.8420 C   0  0  0  0  0  0  0  0  0  0  0  0
   39.0960   33.9280   40.2550 C   0  0  0  0  0  0  0  0  0  0  0  0
   38.1640   31.6420   40.8700 O   0  0  0  0  0  0  0  0  0  0  0  0
   38.5820   30.7310   41.8260 C   0  0  0  0  0  0  0  0  0  0  0  0
   39.9570   30.9540   42.0260 O   0  0  0  0  0  0  0  0  0  0  0  0
   47.5750   35.0570   42.2400 O   0  0  0  0  0  0  0  0  0  0  0  0
   48.7360   35.3210   41.4930 C   0  0  0  0  0  0  0  0  0  0  0  0
   49.7280   34.4030   41.7010 F   0  0  0  0  0  0  0  0  0  0  0  0
   48.3360   35.3530   40.1400 F   0  0  0  0  0  0  0  0  0  0  0  0
   49.2090   36.5740   41.8820 F   0  0  0  0  0  0  0  0  0  0  0  0
   43.1940   32.8570   39.7340 O   0  0  0  0  0  0  0  0  0  0  0  0
   43.6940   31.9680   37.2940 O   0  0  0  0  0  0  0  0  0  0  0  0
   42.9350   33.0550   38.0490 P   0  0  0  0  0  0  0  0  0  0  0  0
   43.4590   34.5750   37.5600 O   0  0  0  0  0  0  0  0  0  0  0  0
   41.3080   32.9020   37.6750 O   0  0  0  0  0  0  0  0  0  0  0  0
   46.4726   31.0782   39.5634 H   0  0  0  0  0  0  0  0  0  0  0  0
   44.7403   31.1603   39.1450 H   0  0  0  0  0  0  0  0  0  0  0  0
   40.2034   35.7769   39.9214 H   0  0  0  0  0  0  0  0  0  0  0  0
   42.1819   32.7562   42.2351 H   0  0  0  0  0  0  0  0  0  0  0  0
   38.2103   34.2552   39.6906 H   0  0  0  0  0  0  0  0  0  0  0  0
   38.0321   30.8888   42.7655 H   0  0  0  0  0  0  0  0  0  0  0  0
   38.3933   29.6986   41.4967 H   0  0  0  0  0  0  0  0  0  0  0  0
   43.6504   35.1302   38.3570 H   0  0  0  0  0  0  0  0  0  0  0  0
   40.7804   32.8524   38.5112 H   0  0  0  0  0  0  0  0  0  0  0  0
  1  8  1  0
  1  6  1  0
  2  1  2  0
  3  2  1  0
  3  4  2  0
  4  5  1  0
  5  6  2  0
  5 18  1  0
  7  3  1  0
  9 10  2  0
 10  8  1  0
 10 11  1  0
 12 11  2  0
 12 17  1  0
 13 15  1  0
 13 12  1  0
 14  9  1  0
 14 13  2  0
 15 16  1  0
 16 17  1  0
 19 20  1  0
 19 22  1  0
 19 18  1  0
 21 19  1  0
 23  2  1  0
 24 25  2  0
 25 23  1  0
 26 25  1  0
 27 25  1  0
  7 28  1  0
  7 29  1  0
  9 30  1  0
 11 31  1  0
 14 32  1  0
 16 33  1  0
 16 34  1  0
 26 35  1  0
 27 36  1  0
M  ISO  7  30  14  31  14  32  14  33  13  34  13  35   3  36   3
M  END
>  <minimizedAffinity>  (1) 
-5.7983489

>  <minimizedRMSD>  (1) 
0.913203299

$$$$
