
     RDKit          3D

 43 46  0  0  0  0  0  0  0  0999 V2000
   41.3190   33.3080   40.7950 C   0  0  0  0  0  0  0  0  0  0  0  0
   41.2940   32.7490   39.5690 C   0  0  0  0  0  0  0  0  0  0  0  0
   42.4200   32.9950   38.7520 C   0  0  0  0  0  0  0  0  0  0  0  0
   43.4430   33.7610   39.2120 N   0  0  0  0  0  0  0  0  0  0  0  0
   43.4140   34.2980   40.4440 C   0  0  0  0  0  0  0  0  0  0  0  0
   42.3560   34.0450   41.1730 N   0  0  0  0  0  0  0  0  0  0  0  0
   39.5380   32.7870   38.1170 C   0  0  0  0  0  0  0  0  0  0  0  0
   40.4600   31.9250   38.7500 C   0  0  0  0  0  0  0  0  0  0  0  0
   40.3620   30.6080   38.3830 C   0  0  0  0  0  0  0  0  0  0  0  0
   39.4700   30.0860   37.4870 C   0  0  0  0  0  0  0  0  0  0  0  0
   38.5770   30.9240   36.8770 C   0  0  0  0  0  0  0  0  0  0  0  0
   38.6200   32.2540   37.1950 C   0  0  0  0  0  0  0  0  0  0  0  0
   39.3300   34.5070   38.2960 S   0  0  0  0  0  0  0  0  0  0  0  0
   38.6950   34.8090   39.6370 O   0  0  0  0  0  0  0  0  0  0  0  0
   40.5420   35.3080   38.0420 O   0  0  0  0  0  0  0  0  0  0  0  0
   42.5510   32.4180   37.4490 N   0  0  0  0  0  0  0  0  0  0  0  0
   39.8580   32.9660   41.8120 S   0  0  0  0  0  0  0  0  0  0  0  0
   38.0650   31.1030   41.1710 C   0  0  0  0  0  0  0  0  0  0  0  0
   39.3690   31.2700   41.6640 C   0  0  0  0  0  0  0  0  0  0  0  0
   40.1640   30.1920   41.9610 C   0  0  0  0  0  0  0  0  0  0  0  0
   39.7070   28.9010   41.7790 C   0  0  0  0  0  0  0  0  0  0  0  0
   38.4020   28.7150   41.2860 C   0  0  0  0  0  0  0  0  0  0  0  0
   37.5880   29.7890   40.9840 C   0  0  0  0  0  0  0  0  0  0  0  0
   38.1890   27.3230   41.1970 O   0  0  0  0  0  0  0  0  0  0  0  0
   39.2030   26.7120   41.9120 C   0  0  0  0  0  0  0  0  0  0  0  0
   40.2630   27.6470   41.9770 O   0  0  0  0  0  0  0  0  0  0  0  0
   44.3910   35.0870   40.9980 O   0  0  0  0  0  0  0  0  0  0  0  0
   45.5710   34.4600   41.4470 C   0  0  0  0  0  0  0  0  0  0  0  0
   45.3320   33.1870   41.9020 F   0  0  0  0  0  0  0  0  0  0  0  0
   46.4640   34.4660   40.3690 F   0  0  0  0  0  0  0  0  0  0  0  0
   46.0750   35.2030   42.5010 F   0  0  0  0  0  0  0  0  0  0  0  0
   41.0662   29.9055   38.8527 H   0  0  0  0  0  0  0  0  0  0  0  0
   39.4706   29.0096   37.2605 H   0  0  0  0  0  0  0  0  0  0  0  0
   37.8452   30.5393   36.1514 H   0  0  0  0  0  0  0  0  0  0  0  0
   37.9062   32.9352   36.7088 H   0  0  0  0  0  0  0  0  0  0  0  0
   38.4786   34.9066   37.2998 H   0  0  0  0  0  0  0  0  0  0  0  0
   41.7954   31.8314   37.0672 H   0  0  0  0  0  0  0  0  0  0  0  0
   43.4009   32.5893   36.8930 H   0  0  0  0  0  0  0  0  0  0  0  0
   37.4332   31.9726   40.9372 H   0  0  0  0  0  0  0  0  0  0  0  0
   41.1796   30.3580   42.3495 H   0  0  0  0  0  0  0  0  0  0  0  0
   36.5715   29.6202   40.5991 H   0  0  0  0  0  0  0  0  0  0  0  0
   38.8558   26.4590   42.9246 H   0  0  0  0  0  0  0  0  0  0  0  0
   39.5242   25.7768   41.4302 H   0  0  0  0  0  0  0  0  0  0  0  0
  1  6  1  0
  1 17  1  0
  2  1  2  0
  3  4  2  0
  3  2  1  0
  4  5  1  0
  5 27  1  0
  5  6  2  0
  7 13  1  0
  7  8  2  0
  8  2  1  0
  9  8  1  0
 10  9  2  0
 11 12  2  0
 11 10  1  0
 12  7  1  0
 13 14  2  0
 15 13  2  0
 16  3  1  0
 18 19  2  0
 19 17  1  0
 19 20  1  0
 21 20  2  0
 21 26  1  0
 22 21  1  0
 23 18  1  0
 23 22  2  0
 24 22  1  0
 24 25  1  0
 25 26  1  0
 27 28  1  0
 28 29  1  0
 28 31  1  0
 30 28  1  0
  9 32  1  0
 10 33  1  0
 11 34  1  0
 12 35  1  0
 13 36  1  0
 16 37  1  0
 16 38  1  0
 18 39  1  0
 20 40  1  0
 23 41  1  0
 25 42  1  0
 25 43  1  0
M  ISO  8  32  14  33  14  34  14  35  14  36  11  39  14  40  14  41  14
M  ISO  2  42  13  43  13
M  END
>  <minimizedAffinity>  (1) 
-5.77388716

>  <minimizedRMSD>  (1) 
3.41511273

$$$$
