
     RDKit          3D

 41 44  0  0  0  0  0  0  0  0999 V2000
   43.3730   34.6800   41.2750 C   0  0  0  0  0  0  0  0  0  0  0  0
   43.3690   33.8240   40.2290 C   0  0  0  0  0  0  0  0  0  0  0  0
   44.6430   33.3910   39.7920 C   0  0  0  0  0  0  0  0  0  0  0  0
   45.7590   33.8430   40.4210 N   0  0  0  0  0  0  0  0  0  0  0  0
   45.6940   34.6940   41.4550 C   0  0  0  0  0  0  0  0  0  0  0  0
   44.4980   35.0780   41.8390 N   0  0  0  0  0  0  0  0  0  0  0  0
   41.7090   33.3400   38.2640 C   0  0  0  0  0  0  0  0  0  0  0  0
   42.4990   33.0660   39.3580 C   0  0  0  0  0  0  0  0  0  0  0  0
   42.5800   31.7210   39.7450 C   0  0  0  0  0  0  0  0  0  0  0  0
   41.8900   30.7240   39.0460 C   0  0  0  0  0  0  0  0  0  0  0  0
   41.1140   31.0570   37.9550 C   0  0  0  0  0  0  0  0  0  0  0  0
   41.0280   32.3770   37.5680 C   0  0  0  0  0  0  0  0  0  0  0  0
   41.6100   35.9110   37.7840 N   0  0  0  0  0  0  0  0  0  0  0  0
   41.6600   34.7720   38.0070 C   0  0  0  0  0  0  0  0  0  0  0  0
   44.8070   32.4520   38.7370 N   0  0  0  0  0  0  0  0  0  0  0  0
   41.7150   35.2320   41.7830 S   0  0  0  0  0  0  0  0  0  0  0  0
   39.4800   34.3460   40.6340 C   0  0  0  0  0  0  0  0  0  0  0  0
   40.5040   33.9780   41.4990 C   0  0  0  0  0  0  0  0  0  0  0  0
   40.5470   32.7290   42.0370 C   0  0  0  0  0  0  0  0  0  0  0  0
   39.6020   31.7580   41.7700 C   0  0  0  0  0  0  0  0  0  0  0  0
   38.5590   32.1180   40.8950 C   0  0  0  0  0  0  0  0  0  0  0  0
   38.4820   33.3880   40.3260 C   0  0  0  0  0  0  0  0  0  0  0  0
   37.7130   30.9920   40.7600 O   0  0  0  0  0  0  0  0  0  0  0  0
   38.0770   30.1060   41.7680 C   0  0  0  0  0  0  0  0  0  0  0  0
   39.3980   30.4390   42.1550 O   0  0  0  0  0  0  0  0  0  0  0  0
   46.7680   35.1980   42.1390 O   0  0  0  0  0  0  0  0  0  0  0  0
   48.0470   35.0600   41.5720 C   0  0  0  0  0  0  0  0  0  0  0  0
   48.6810   33.9340   42.0020 F   0  0  0  0  0  0  0  0  0  0  0  0
   47.8710   35.0680   40.1790 F   0  0  0  0  0  0  0  0  0  0  0  0
   48.8080   36.1550   41.9790 F   0  0  0  0  0  0  0  0  0  0  0  0
   43.1965   31.4445   40.6130 H   0  0  0  0  0  0  0  0  0  0  0  0
   41.9664   29.6745   39.3666 H   0  0  0  0  0  0  0  0  0  0  0  0
   40.5702   30.2780   37.4004 H   0  0  0  0  0  0  0  0  0  0  0  0
   40.4125   32.6569   36.7003 H   0  0  0  0  0  0  0  0  0  0  0  0
   45.7521   32.1619   38.4480 H   0  0  0  0  0  0  0  0  0  0  0  0
   43.9807   32.0619   38.2617 H   0  0  0  0  0  0  0  0  0  0  0  0
   39.4451   35.3558   40.1993 H   0  0  0  0  0  0  0  0  0  0  0  0
   41.3747   32.4806   42.7177 H   0  0  0  0  0  0  0  0  0  0  0  0
   37.6562   33.6438   39.6458 H   0  0  0  0  0  0  0  0  0  0  0  0
   37.3952   30.2082   42.6251 H   0  0  0  0  0  0  0  0  0  0  0  0
   38.0219   29.0657   41.4149 H   0  0  0  0  0  0  0  0  0  0  0  0
  1 16  1  0
  1  6  2  0
  2  1  1  0
  3  2  2  0
  3  4  1  0
  4  5  2  0
  5  6  1  0
  5 26  1  0
  7  8  2  0
  8  9  1  0
  8  2  1  0
 10  9  2  0
 11 10  1  0
 12 11  2  0
 12  7  1  0
 13 14  3  0
 14  7  1  0
 15  3  1  0
 17 18  2  0
 18 16  1  0
 18 19  1  0
 20 19  2  0
 20 25  1  0
 21 20  1  0
 22 17  1  0
 22 21  2  0
 23 21  1  0
 23 24  1  0
 24 25  1  0
 27 30  1  0
 27 28  1  0
 27 26  1  0
 29 27  1  0
  9 31  1  0
 10 32  1  0
 11 33  1  0
 12 34  1  0
 15 35  1  0
 15 36  1  0
 17 37  1  0
 19 38  1  0
 22 39  1  0
 24 40  1  0
 24 41  1  0
M  ISO  8  31  14  32  14  33  14  34  14  37  14  38  14  39  14  40  13
M  ISO  1  41  13
M  END
>  <minimizedAffinity>  (1) 
-5.76639938

>  <minimizedRMSD>  (1) 
0.937657833

$$$$
