
     RDKit          3D

 45 49  0  0  0  0  0  0  0  0999 V2000
   44.7630   33.8340   39.9990 C   0  0  0  0  0  0  0  0  0  0  0  0
   45.2100   32.8290   39.2130 C   0  0  0  0  0  0  0  0  0  0  0  0
   46.5850   32.5180   39.3200 C   0  0  0  0  0  0  0  0  0  0  0  0
   47.3770   33.2150   40.1730 N   0  0  0  0  0  0  0  0  0  0  0  0
   46.8780   34.2100   40.9300 C   0  0  0  0  0  0  0  0  0  0  0  0
   45.5880   34.4620   40.7990 N   0  0  0  0  0  0  0  0  0  0  0  0
   44.6960   31.9090   38.2080 C   0  0  0  0  0  0  0  0  0  0  0  0
   44.2300   30.7900   38.9220 C   0  0  0  0  0  0  0  0  0  0  0  0
   43.6120   29.7130   38.2700 C   0  0  0  0  0  0  0  0  0  0  0  0
   43.4500   29.7390   36.8950 C   0  0  0  0  0  0  0  0  0  0  0  0
   42.8750   28.7680   36.1660 N   0  0  0  0  0  0  0  0  0  0  0  0
   42.7680   28.8950   34.8310 C   0  0  0  0  0  0  0  0  0  0  0  0
   43.2180   29.9890   34.0990 C   0  0  0  0  0  0  0  0  0  0  0  0
   43.8200   31.0090   34.8450 C   0  0  0  0  0  0  0  0  0  0  0  0
   43.9110   30.8410   36.2110 C   0  0  0  0  0  0  0  0  0  0  0  0
   44.5150   31.8930   36.8510 C   0  0  0  0  0  0  0  0  0  0  0  0
   47.1840   31.4460   38.5840 N   0  0  0  0  0  0  0  0  0  0  0  0
   42.9940   34.1810   39.8320 S   0  0  0  0  0  0  0  0  0  0  0  0
   40.6750   32.9560   40.2930 C   0  0  0  0  0  0  0  0  0  0  0  0
   42.0210   32.9750   40.6940 C   0  0  0  0  0  0  0  0  0  0  0  0
   42.5100   32.0990   41.6550 C   0  0  0  0  0  0  0  0  0  0  0  0
   41.6730   31.1800   42.2410 C   0  0  0  0  0  0  0  0  0  0  0  0
   40.3270   31.1390   41.8600 C   0  0  0  0  0  0  0  0  0  0  0  0
   39.8190   32.0090   40.9000 C   0  0  0  0  0  0  0  0  0  0  0  0
   39.7060   30.1160   42.6090 O   0  0  0  0  0  0  0  0  0  0  0  0
   40.5730   29.8090   43.6450 C   0  0  0  0  0  0  0  0  0  0  0  0
   41.8570   30.1970   43.2000 O   0  0  0  0  0  0  0  0  0  0  0  0
   47.5910   34.9790   41.8180 O   0  0  0  0  0  0  0  0  0  0  0  0
   48.8340   35.4870   41.3990 C   0  0  0  0  0  0  0  0  0  0  0  0
   49.8740   34.6390   41.7160 F   0  0  0  0  0  0  0  0  0  0  0  0
   48.7410   35.6810   40.0130 F   0  0  0  0  0  0  0  0  0  0  0  0
   49.0430   36.6930   42.0440 F   0  0  0  0  0  0  0  0  0  0  0  0
   44.3529   30.7591   40.0147 H   0  0  0  0  0  0  0  0  0  0  0  0
   43.2564   28.8487   38.8501 H   0  0  0  0  0  0  0  0  0  0  0  0
   42.2896   28.0735   34.2776 H   0  0  0  0  0  0  0  0  0  0  0  0
   43.1080   30.0486   33.0061 H   0  0  0  0  0  0  0  0  0  0  0  0
   44.2081   31.9155   34.3575 H   0  0  0  0  0  0  0  0  0  0  0  0
   44.8645   32.7497   36.2561 H   0  0  0  0  0  0  0  0  0  0  0  0
   48.1896   31.2490   38.6877 H   0  0  0  0  0  0  0  0  0  0  0  0
   46.6093   30.8718   37.9508 H   0  0  0  0  0  0  0  0  0  0  0  0
   40.2993   33.6552   39.5315 H   0  0  0  0  0  0  0  0  0  0  0  0
   43.5696   32.1411   41.9475 H   0  0  0  0  0  0  0  0  0  0  0  0
   38.7576   31.9600   40.6152 H   0  0  0  0  0  0  0  0  0  0  0  0
   40.2977   30.3659   44.5527 H   0  0  0  0  0  0  0  0  0  0  0  0
   40.5384   28.7392   43.8984 H   0  0  0  0  0  0  0  0  0  0  0  0
  1  6  2  0
  2  3  2  0
  2  1  1  0
  3  4  1  0
  4  5  2  0
  5 28  1  0
  6  5  1  0
  7  8  2  0
  7  2  1  0
  9  8  1  0
 10  9  2  0
 11 10  1  0
 12 11  2  0
 13 12  1  0
 13 14  2  0
 14 15  1  0
 15 16  2  0
 15 10  1  0
 16  7  1  0
 17  3  1  0
 18  1  1  0
 18 20  1  0
 19 20  2  0
 19 24  1  0
 20 21  1  0
 21 22  2  0
 22 27  1  0
 23 22  1  0
 23 25  1  0
 24 23  2  0
 25 26  1  0
 27 26  1  0
 29 30  1  0
 29 28  1  0
 29 32  1  0
 31 29  1  0
  8 33  1  0
  9 34  1  0
 12 35  1  0
 13 36  1  0
 14 37  1  0
 16 38  1  0
 17 39  1  0
 17 40  1  0
 19 41  1  0
 21 42  1  0
 24 43  1  0
 26 44  1  0
 26 45  1  0
M  ISO  8  33  14  34  14  35  14  36  14  37  14  38  14  41  14  42  14
M  ISO  3  43  14  44  13  45  13
M  END
>  <minimizedAffinity>  (1) 
-5.72435236

>  <minimizedRMSD>  (1) 
2.5723052

$$$$
