
     RDKit          3D

 34 36  0  0  0  0  0  0  0  0999 V2000
   42.9760   34.4550   40.9120 C   0  0  0  0  0  0  0  0  0  0  0  0
   42.9870   34.2960   39.5670 C   0  0  0  0  0  0  0  0  0  0  0  0
   44.2300   33.9230   39.0320 C   0  0  0  0  0  0  0  0  0  0  0  0
   45.3020   33.7540   39.8270 N   0  0  0  0  0  0  0  0  0  0  0  0
   45.2360   33.9350   41.1650 C   0  0  0  0  0  0  0  0  0  0  0  0
   44.0630   34.2770   41.6420 N   0  0  0  0  0  0  0  0  0  0  0  0
   44.3950   33.6510   37.6410 N   0  0  0  0  0  0  0  0  0  0  0  0
   41.3520   34.9270   41.5840 S   0  0  0  0  0  0  0  0  0  0  0  0
   39.1410   33.9810   40.4600 C   0  0  0  0  0  0  0  0  0  0  0  0
   40.1660   33.6360   41.3460 C   0  0  0  0  0  0  0  0  0  0  0  0
   40.2090   32.3890   41.9020 C   0  0  0  0  0  0  0  0  0  0  0  0
   39.2650   31.4180   41.6250 C   0  0  0  0  0  0  0  0  0  0  0  0
   38.2360   31.7540   40.7390 C   0  0  0  0  0  0  0  0  0  0  0  0
   38.1670   33.0110   40.1620 C   0  0  0  0  0  0  0  0  0  0  0  0
   37.4060   30.6250   40.6100 O   0  0  0  0  0  0  0  0  0  0  0  0
   37.7160   29.8040   41.6950 C   0  0  0  0  0  0  0  0  0  0  0  0
   39.0580   30.1030   42.0190 O   0  0  0  0  0  0  0  0  0  0  0  0
   46.2760   33.7980   42.0490 O   0  0  0  0  0  0  0  0  0  0  0  0
   47.1250   34.9070   42.2400 C   0  0  0  0  0  0  0  0  0  0  0  0
   47.8240   35.2220   41.1110 F   0  0  0  0  0  0  0  0  0  0  0  0
   46.3140   35.9640   42.6850 F   0  0  0  0  0  0  0  0  0  0  0  0
   48.0380   34.5690   43.2410 F   0  0  0  0  0  0  0  0  0  0  0  0
   42.1250   34.3140   38.3560 C   0  0  0  0  0  0  0  0  0  0  0  0
   41.4730   35.5990   38.0070 C   0  0  0  0  0  0  0  0  0  0  0  0
   41.7850   36.4870   38.5500 H   0  0  0  0  0  0  0  0  0  0  0  0
   45.3188   33.3792   37.2754 H   0  0  0  0  0  0  0  0  0  0  0  0
   43.5903   33.7265   37.0025 H   0  0  0  0  0  0  0  0  0  0  0  0
   39.0975   34.9831   40.0085 H   0  0  0  0  0  0  0  0  0  0  0  0
   41.0267   32.1482   42.5972 H   0  0  0  0  0  0  0  0  0  0  0  0
   37.3478   33.2516   39.4684 H   0  0  0  0  0  0  0  0  0  0  0  0
   37.0558   30.0255   42.5465 H   0  0  0  0  0  0  0  0  0  0  0  0
   37.5802   28.7392   41.4548 H   0  0  0  0  0  0  0  0  0  0  0  0
   41.9771   33.4117   37.7444 H   0  0  0  0  0  0  0  0  0  0  0  0
   40.7005   35.6516   37.2257 H   0  0  0  0  0  0  0  0  0  0  0  0
  1  8  1  0
  1  6  1  0
  2  1  2  0
  3  2  1  0
  3  4  2  0
  4  5  1  0
  5  6  2  0
  5 18  1  0
  7  3  1  0
  9 10  2  0
 10  8  1  0
 10 11  1  0
 12 11  2  0
 12 17  1  0
 13 12  1  0
 14  9  1  0
 14 13  2  0
 15 13  1  0
 15 16  1  0
 16 17  1  0
 18 19  1  0
 19 21  1  0
 19 22  1  0
 20 19  1  0
 23  2  1  0
 24 23  2  0
 24 25  1  0
  7 26  1  0
  7 27  1  0
  9 28  1  0
 11 29  1  0
 14 30  1  0
 16 31  1  0
 16 32  1  0
 23 33  1  0
 24 34  1  0
M  ISO  5  28  14  29  14  30  14  31  13  32  13
M  END
>  <minimizedAffinity>  (1) 
-5.66470671

>  <minimizedRMSD>  (1) 
1.54342556

$$$$
