
     RDKit          3D

 34 36  0  0  0  0  0  0  0  0999 V2000
   43.4500   34.6390   40.8460 C   0  0  0  0  0  0  0  0  0  0  0  0
   43.4470   33.9360   39.6950 C   0  0  0  0  0  0  0  0  0  0  0  0
   44.6850   33.4160   39.2580 C   0  0  0  0  0  0  0  0  0  0  0  0
   45.8000   33.6380   39.9930 N   0  0  0  0  0  0  0  0  0  0  0  0
   45.7440   34.3500   41.1350 C   0  0  0  0  0  0  0  0  0  0  0  0
   44.5640   34.8220   41.5170 N   0  0  0  0  0  0  0  0  0  0  0  0
   44.8170   32.6450   38.0680 N   0  0  0  0  0  0  0  0  0  0  0  0
   42.0230   34.6840   37.9320 C   0  0  0  0  0  0  0  0  0  0  0  0
   42.3990   35.8800   37.8350 O   0  0  0  0  0  0  0  0  0  0  0  0
   42.4390   33.6030   38.7940 N   0  0  0  0  0  0  0  0  0  0  0  0
   41.8250   35.2700   41.3520 S   0  0  0  0  0  0  0  0  0  0  0  0
   39.4630   34.4020   40.4540 C   0  0  0  0  0  0  0  0  0  0  0  0
   40.5830   34.0070   41.2010 C   0  0  0  0  0  0  0  0  0  0  0  0
   40.6770   32.7320   41.7420 C   0  0  0  0  0  0  0  0  0  0  0  0
   39.6670   31.8260   41.5510 C   0  0  0  0  0  0  0  0  0  0  0  0
   38.5390   32.2050   40.8050 C   0  0  0  0  0  0  0  0  0  0  0  0
   38.4290   33.4700   40.2620 C   0  0  0  0  0  0  0  0  0  0  0  0
   37.6690   31.0890   40.7710 O   0  0  0  0  0  0  0  0  0  0  0  0
   38.1220   30.1980   41.7360 C   0  0  0  0  0  0  0  0  0  0  0  0
   39.4810   30.5090   41.9550 O   0  0  0  0  0  0  0  0  0  0  0  0
   46.8130   34.6350   41.9540 O   0  0  0  0  0  0  0  0  0  0  0  0
   48.0600   34.8790   41.3480 C   0  0  0  0  0  0  0  0  0  0  0  0
   48.9810   33.9090   41.6220 F   0  0  0  0  0  0  0  0  0  0  0  0
   47.8130   35.0040   39.9690 F   0  0  0  0  0  0  0  0  0  0  0  0
   48.5460   36.0780   41.8520 F   0  0  0  0  0  0  0  0  0  0  0  0
   45.7404   32.2854   37.7871 H   0  0  0  0  0  0  0  0  0  0  0  0
   43.9891   32.4470   37.4882 H   0  0  0  0  0  0  0  0  0  0  0  0
   41.2256   34.4091   37.2259 H   0  0  0  0  0  0  0  0  0  0  0  0
   42.0237   32.6616   38.7463 H   0  0  0  0  0  0  0  0  0  0  0  0
   39.3961   35.4147   40.0298 H   0  0  0  0  0  0  0  0  0  0  0  0
   41.5650   32.4482   42.3258 H   0  0  0  0  0  0  0  0  0  0  0  0
   37.5363   33.7467   39.6820 H   0  0  0  0  0  0  0  0  0  0  0  0
   37.5485   30.3203   42.6666 H   0  0  0  0  0  0  0  0  0  0  0  0
   37.9982   29.1555   41.4074 H   0  0  0  0  0  0  0  0  0  0  0  0
  1 11  1  0
  1  6  1  0
  2  1  2  0
  3  2  1  0
  3  4  2  0
  4  5  1  0
  5  6  2  0
  5 21  1  0
  7  3  1  0
  8 10  1  0
  9  8  2  0
 10  2  1  0
 12 13  2  0
 13 11  1  0
 13 14  1  0
 15 14  2  0
 15 20  1  0
 16 15  1  0
 17 12  1  0
 17 16  2  0
 18 16  1  0
 18 19  1  0
 19 20  1  0
 22 23  1  0
 22 25  1  0
 22 21  1  0
 24 22  1  0
  7 26  1  0
  7 27  1  0
  8 28  1  0
 10 29  1  0
 12 30  1  0
 14 31  1  0
 17 32  1  0
 19 33  1  0
 19 34  1  0
M  ISO  6  28   6  30  14  31  14  32  14  33  13  34  13
M  END
>  <minimizedAffinity>  (1) 
-5.55880642

>  <minimizedRMSD>  (1) 
0.632862329

$$$$
