
     RDKit          3D

 20 21  0  0  0  0  0  0  0  0999 V2000
   45.6010   34.0380   45.3350 C   0  0  0  0  0  0  0  0  0  0  0  0
   44.7000   35.0930   45.5910 C   0  0  0  0  0  0  0  0  0  0  0  0
   44.5310   36.0470   44.5750 C   0  0  0  0  0  0  0  0  0  0  0  0
   45.2300   35.9010   43.4210 N   0  0  0  0  0  0  0  0  0  0  0  0
   46.0900   34.8650   43.2140 C   0  0  0  0  0  0  0  0  0  0  0  0
   46.2650   33.9410   44.1810 N   0  0  0  0  0  0  0  0  0  0  0  0
   44.5820   33.1350   41.1860 Br  0  0  0  0  0  0  0  0  0  0  0  0
   46.2800   33.9920   40.9440 C   0  0  0  0  0  0  0  0  0  0  0  0
   46.8260   34.7400   41.9610 C   0  0  0  0  0  0  0  0  0  0  0  0
   48.0630   35.3730   41.8030 C   0  0  0  0  0  0  0  0  0  0  0  0
   48.7130   35.2240   40.6070 C   0  0  0  0  0  0  0  0  0  0  0  0
   48.1300   34.4650   39.6160 C   0  0  0  0  0  0  0  0  0  0  0  0
   46.9310   33.8410   39.7420 C   0  0  0  0  0  0  0  0  0  0  0  0
   45.7610   33.2729   46.1090 H   0  0  0  0  0  0  0  0  0  0  0  0
   44.1546   35.1648   46.5436 H   0  0  0  0  0  0  0  0  0  0  0  0
   43.8454   36.8963   44.7117 H   0  0  0  0  0  0  0  0  0  0  0  0
   48.5006   35.9724   42.6149 H   0  0  0  0  0  0  0  0  0  0  0  0
   49.6884   35.7043   40.4396 H   0  0  0  0  0  0  0  0  0  0  0  0
   48.6696   34.3580   38.6634 H   0  0  0  0  0  0  0  0  0  0  0  0
   46.5016   33.2444   38.9236 H   0  0  0  0  0  0  0  0  0  0  0  0
  1  2  2  0
  3  2  1  0
  4  3  2  0
  5  4  1  0
  5  6  2  0
  6  1  1  0
  8  7  1  0
  8  9  2  0
  9  5  1  0
 10  9  1  0
 11 10  2  0
 12 13  2  0
 12 11  1  0
 13  8  1  0
  1 14  1  0
  2 15  1  0
  3 16  1  0
 10 17  1  0
 11 18  1  0
 12 19  1  0
 13 20  1  0
M  ISO  7  14  14  15  14  16  14  17  14  18  14  19  14  20  14
M  END
>  <minimizedAffinity>  (1) 
-4.95995998

>  <minimizedRMSD>  (1) 
6.00590372

$$$$
