
     RDKit          3D

 40 43  0  0  0  0  0  0  0  0999 V2000
   44.8070   33.8200   40.2910 C   0  0  0  0  0  0  0  0  0  0  0  0
   45.2530   32.7600   39.5860 C   0  0  0  0  0  0  0  0  0  0  0  0
   46.6370   32.4930   39.6720 C   0  0  0  0  0  0  0  0  0  0  0  0
   47.4420   33.2810   40.4260 N   0  0  0  0  0  0  0  0  0  0  0  0
   46.9420   34.3320   41.1090 C   0  0  0  0  0  0  0  0  0  0  0  0
   45.6450   34.5430   41.0030 N   0  0  0  0  0  0  0  0  0  0  0  0
   44.7290   31.7380   38.6880 C   0  0  0  0  0  0  0  0  0  0  0  0
   44.8360   32.2530   37.3830 C   0  0  0  0  0  0  0  0  0  0  0  0
   44.4790   31.5270   36.2650 C   0  0  0  0  0  0  0  0  0  0  0  0
   43.9900   30.2360   36.4130 C   0  0  0  0  0  0  0  0  0  0  0  0
   43.8830   29.7290   37.6850 C   0  0  0  0  0  0  0  0  0  0  0  0
   44.2430   30.4630   38.7850 C   0  0  0  0  0  0  0  0  0  0  0  0
   47.2440   31.3800   39.0140 N   0  0  0  0  0  0  0  0  0  0  0  0
   43.0270   34.1070   40.1610 S   0  0  0  0  0  0  0  0  0  0  0  0
   40.7280   33.0730   41.0020 C   0  0  0  0  0  0  0  0  0  0  0  0
   42.1180   32.8960   41.0850 C   0  0  0  0  0  0  0  0  0  0  0  0
   42.6770   31.8490   41.8030 C   0  0  0  0  0  0  0  0  0  0  0  0
   41.8740   30.9490   42.4560 C   0  0  0  0  0  0  0  0  0  0  0  0
   40.4850   31.1030   42.3890 C   0  0  0  0  0  0  0  0  0  0  0  0
   39.9030   32.1450   41.6760 C   0  0  0  0  0  0  0  0  0  0  0  0
   39.8960   30.0640   43.1340 O   0  0  0  0  0  0  0  0  0  0  0  0
   40.9170   29.4720   43.8700 C   0  0  0  0  0  0  0  0  0  0  0  0
   42.1250   29.8270   43.2310 O   0  0  0  0  0  0  0  0  0  0  0  0
   47.6630   35.1990   41.8960 O   0  0  0  0  0  0  0  0  0  0  0  0
   48.9190   35.6280   41.4210 C   0  0  0  0  0  0  0  0  0  0  0  0
   49.9260   34.7650   41.7740 F   0  0  0  0  0  0  0  0  0  0  0  0
   48.7990   35.7480   40.0310 F   0  0  0  0  0  0  0  0  0  0  0  0
   49.1890   36.8640   41.9870 F   0  0  0  0  0  0  0  0  0  0  0  0
   45.2195   33.2752   37.2485 H   0  0  0  0  0  0  0  0  0  0  0  0
   44.5812   31.9685   35.2627 H   0  0  0  0  0  0  0  0  0  0  0  0
   43.6971   29.6373   35.5379 H   0  0  0  0  0  0  0  0  0  0  0  0
   43.4986   28.7078   37.8244 H   0  0  0  0  0  0  0  0  0  0  0  0
   44.1373   30.0104   39.7820 H   0  0  0  0  0  0  0  0  0  0  0  0
   48.2577   31.2200   39.1018 H   0  0  0  0  0  0  0  0  0  0  0  0
   46.6680   30.7374   38.4517 H   0  0  0  0  0  0  0  0  0  0  0  0
   40.2950   33.9073   40.4306 H   0  0  0  0  0  0  0  0  0  0  0  0
   43.7706   31.7399   41.8489 H   0  0  0  0  0  0  0  0  0  0  0  0
   38.8084   32.2462   41.6369 H   0  0  0  0  0  0  0  0  0  0  0  0
   40.9084   29.8480   44.9037 H   0  0  0  0  0  0  0  0  0  0  0  0
   40.7951   28.3797   43.9150 H   0  0  0  0  0  0  0  0  0  0  0  0
  1  6  2  0
  2  3  2  0
  2  1  1  0
  3  4  1  0
  4  5  2  0
  5 24  1  0
  6  5  1  0
  7 12  1  0
  7  2  1  0
  8  7  2  0
  9 10  2  0
  9  8  1  0
 10 11  1  0
 11 12  2  0
 13  3  1  0
 14  1  1  0
 14 16  1  0
 15 16  2  0
 15 20  1  0
 16 17  1  0
 17 18  2  0
 18 23  1  0
 19 18  1  0
 19 21  1  0
 20 19  2  0
 21 22  1  0
 23 22  1  0
 25 26  1  0
 25 24  1  0
 25 28  1  0
 27 25  1  0
  8 29  1  0
  9 30  1  0
 10 31  1  0
 11 32  1  0
 12 33  1  0
 13 34  1  0
 13 35  1  0
 15 36  1  0
 17 37  1  0
 20 38  1  0
 22 39  1  0
 22 40  1  0
M  ISO  8  29  14  30  14  31  14  32  14  33  14  36  14  37  14  38  14
M  ISO  2  39  13  40  13
M  END
>  <minimizedAffinity>  (1) 
-5.46590567

>  <minimizedRMSD>  (1) 
2.30856609

$$$$
