
     RDKit          3D

 22 23  0  0  0  0  0  0  0  0999 V2000
   45.6790   34.0180   45.3010 C   0  0  0  0  0  0  0  0  0  0  0  0
   44.7890   35.0570   45.5860 C   0  0  0  0  0  0  0  0  0  0  0  0
   44.5860   36.0120   44.5870 C   0  0  0  0  0  0  0  0  0  0  0  0
   45.2560   35.8790   43.4150 N   0  0  0  0  0  0  0  0  0  0  0  0
   46.1120   34.8580   43.1780 C   0  0  0  0  0  0  0  0  0  0  0  0
   46.3200   33.9210   44.1370 N   0  0  0  0  0  0  0  0  0  0  0  0
   45.1780   33.3270   40.9950 F   0  0  0  0  0  0  0  0  0  0  0  0
   46.3530   33.9790   40.8780 C   0  0  0  0  0  0  0  0  0  0  0  0
   46.8260   34.7240   41.9130 C   0  0  0  0  0  0  0  0  0  0  0  0
   48.0470   35.3640   41.7080 C   0  0  0  0  0  0  0  0  0  0  0  0
   48.7510   35.2620   40.5300 C   0  0  0  0  0  0  0  0  0  0  0  0
   48.2400   34.4920   39.4880 C   0  0  0  0  0  0  0  0  0  0  0  0
   47.0230   33.8490   39.6830 C   0  0  0  0  0  0  0  0  0  0  0  0
   44.1700   35.0460   46.8660 N   0  0  0  0  0  0  0  0  0  0  0  0
   45.8574   33.2499   46.0679 H   0  0  0  0  0  0  0  0  0  0  0  0
   43.8971   36.8544   44.7474 H   0  0  0  0  0  0  0  0  0  0  0  0
   48.4650   35.9757   42.5211 H   0  0  0  0  0  0  0  0  0  0  0  0
   49.7113   35.7853   40.4121 H   0  0  0  0  0  0  0  0  0  0  0  0
   48.7843   34.3953   38.5370 H   0  0  0  0  0  0  0  0  0  0  0  0
   46.5937   33.2336   38.8786 H   0  0  0  0  0  0  0  0  0  0  0  0
   43.5063   35.7904   47.1235 H   0  0  0  0  0  0  0  0  0  0  0  0
   44.3853   34.2937   47.5357 H   0  0  0  0  0  0  0  0  0  0  0  0
  1  2  2  0
  2 14  1  0
  3  2  1  0
  4  3  2  0
  5  4  1  0
  5  6  2  0
  6  1  1  0
  8  7  1  0
  8  9  2  0
  9  5  1  0
 10  9  1  0
 11 10  2  0
 12 13  2  0
 12 11  1  0
 13  8  1  0
  1 15  1  0
  3 16  1  0
 10 17  1  0
 11 18  1  0
 12 19  1  0
 13 20  1  0
 14 21  1  0
 14 22  1  0
M  ISO  6  15  14  16  14  17  14  18  14  19  14  20  14
M  END
>  <minimizedAffinity>  (1) 
-5.72425556

>  <minimizedRMSD>  (1) 
5.91800928

$$$$
