
     RDKit          3D

 23 25  0  0  0  0  0  0  0  0999 V2000
   44.7000   35.7240   44.8460 C   0  0  0  0  0  0  0  0  0  0  0  0
   45.1900   35.9420   43.5450 C   0  0  0  0  0  0  0  0  0  0  0  0
   46.0630   35.0120   43.0030 C   0  0  0  0  0  0  0  0  0  0  0  0
   46.3850   33.9490   43.7740 N   0  0  0  0  0  0  0  0  0  0  0  0
   45.9120   33.7520   45.0140 C   0  0  0  0  0  0  0  0  0  0  0  0
   45.0590   34.6400   45.5710 N   0  0  0  0  0  0  0  0  0  0  0  0
   46.3270   32.5910   45.7240 N   0  0  0  0  0  0  0  0  0  0  0  0
   47.2380   31.7490   45.1560 C   0  0  0  0  0  0  0  0  0  0  0  0
   47.5120   30.7120   45.9620 N   0  0  0  0  0  0  0  0  0  0  0  0
   46.7710   30.8820   47.0690 C   0  0  0  0  0  0  0  0  0  0  0  0
   46.5740   30.2030   48.2660 C   0  0  0  0  0  0  0  0  0  0  0  0
   45.7160   30.6650   49.2150 N   0  0  0  0  0  0  0  0  0  0  0  0
   45.0570   31.8010   48.9690 C   0  0  0  0  0  0  0  0  0  0  0  0
   45.1950   32.5260   47.8200 N   0  0  0  0  0  0  0  0  0  0  0  0
   46.0500   32.0370   46.9080 C   0  0  0  0  0  0  0  0  0  0  0  0
   44.7190   37.1370   42.9040 N   0  0  0  0  0  0  0  0  0  0  0  0
   44.0058   36.4554   45.2855 H   0  0  0  0  0  0  0  0  0  0  0  0
   46.4756   35.1333   41.9905 H   0  0  0  0  0  0  0  0  0  0  0  0
   47.6898   31.9009   44.1646 H   0  0  0  0  0  0  0  0  0  0  0  0
   47.1255   29.2692   48.4502 H   0  0  0  0  0  0  0  0  0  0  0  0
   44.3630   32.1739   49.7366 H   0  0  0  0  0  0  0  0  0  0  0  0
   45.0320   37.3674   41.9501 H   0  0  0  0  0  0  0  0  0  0  0  0
   44.0680   37.7640   43.3979 H   0  0  0  0  0  0  0  0  0  0  0  0
  1  6  2  0
  2  1  1  0
  3  2  2  0
  3  4  1  0
  4  5  2  0
  5  6  1  0
  5  7  1  0
  7 15  1  0
  8  7  1  0
  8  9  2  0
  9 10  1  0
 10 11  2  0
 11 12  1  0
 13 12  2  0
 14 13  1  0
 15 10  1  0
 15 14  2  0
 16  2  1  0
  1 17  1  0
  3 18  1  0
  8 19  1  0
 11 20  1  0
 13 21  1  0
 16 22  1  0
 16 23  1  0
M  ISO  5  17  14  18  14  19  14  20  14  21  14
M  END
>  <minimizedAffinity>  (1) 
-5.24488592

>  <minimizedRMSD>  (1) 
1.71116042

$$$$
