
     RDKit          3D

 16 16  0  0  0  0  0  0  0  0999 V2000
   44.5010   35.4430   44.9030 C   0  0  0  0  0  0  0  0  0  0  0  0
   44.9200   35.4690   43.5680 C   0  0  0  0  0  0  0  0  0  0  0  0
   46.0060   34.6780   43.2020 C   0  0  0  0  0  0  0  0  0  0  0  0
   46.5880   33.9310   44.1730 N   0  0  0  0  0  0  0  0  0  0  0  0
   46.1720   33.9190   45.4480 C   0  0  0  0  0  0  0  0  0  0  0  0
   45.1250   34.6790   45.8130 N   0  0  0  0  0  0  0  0  0  0  0  0
   46.0860   32.5970   47.5650 C   0  0  0  0  0  0  0  0  0  0  0  0
   44.8530   32.8340   47.6990 O   0  0  0  0  0  0  0  0  0  0  0  0
   46.8060   33.1230   46.4410 N   0  0  0  0  0  0  0  0  0  0  0  0
   44.1780   36.3220   42.6910 N   0  0  0  0  0  0  0  0  0  0  0  0
   43.6445   36.0601   45.2122 H   0  0  0  0  0  0  0  0  0  0  0  0
   46.3771   34.6597   42.1666 H   0  0  0  0  0  0  0  0  0  0  0  0
   46.6104   31.9846   48.3133 H   0  0  0  0  0  0  0  0  0  0  0  0
   47.8114   32.9180   46.3508 H   0  0  0  0  0  0  0  0  0  0  0  0
   44.4354   36.3865   41.6958 H   0  0  0  0  0  0  0  0  0  0  0  0
   43.3865   36.8715   43.0549 H   0  0  0  0  0  0  0  0  0  0  0  0
  1  6  2  0
  2  1  1  0
  3  2  2  0
  3  4  1  0
  4  5  2  0
  5  6  1  0
  5  9  1  0
  7  8  2  0
  9  7  1  0
 10  2  1  0
  1 11  1  0
  3 12  1  0
  7 13  1  0
  9 14  1  0
 10 15  1  0
 10 16  1  0
M  ISO  3  11  14  12  14  13   6
M  END
>  <minimizedAffinity>  (1) 
-3.95651197

>  <minimizedRMSD>  (1) 
0.922488809

$$$$
