
     RDKit          3D

 13 13  0  0  0  0  0  0  0  0999 V2000
   44.6050   35.9950   44.3860 C   0  0  0  0  0  0  0  0  0  0  0  0
   45.3700   35.8910   43.1980 C   0  0  0  0  0  0  0  0  0  0  0  0
   46.2680   34.8120   43.1240 C   0  0  0  0  0  0  0  0  0  0  0  0
   46.3530   33.9460   44.1710 N   0  0  0  0  0  0  0  0  0  0  0  0
   45.5920   34.0970   45.2870 C   0  0  0  0  0  0  0  0  0  0  0  0
   44.7250   35.1170   45.3890 N   0  0  0  0  0  0  0  0  0  0  0  0
   47.0410   34.7360   41.8840 C   0  0  0  0  0  0  0  0  0  0  0  0
   47.8480   33.6050   41.9280 F   0  0  0  0  0  0  0  0  0  0  0  0
   47.9150   35.8110   41.8840 F   0  0  0  0  0  0  0  0  0  0  0  0
   46.2770   34.6700   40.7580 F   0  0  0  0  0  0  0  0  0  0  0  0
   43.8893   36.8242   44.4873 H   0  0  0  0  0  0  0  0  0  0  0  0
   45.2667   36.6160   42.3772 H   0  0  0  0  0  0  0  0  0  0  0  0
   45.6873   33.3775   46.1136 H   0  0  0  0  0  0  0  0  0  0  0  0
  1  6  2  0
  2  1  1  0
  3  2  2  0
  3  4  1  0
  4  5  2  0
  5  6  1  0
  7  9  1  0
  7  8  1  0
  7  3  1  0
 10  7  1  0
  1 11  1  0
  2 12  1  0
  5 13  1  0
M  ISO  3  11  14  12  14  13  14
M  END
>  <minimizedAffinity>  (1) 
-3.80488586

>  <minimizedRMSD>  (1) 
0.621738732

$$$$
