
     RDKit          3D

 14 14  0  0  0  0  0  0  0  0999 V2000
   44.3410   35.8500   44.5300 C   0  0  0  0  0  0  0  0  0  0  0  0
   44.5450   35.2850   43.2710 C   0  0  0  0  0  0  0  0  0  0  0  0
   45.1930   34.0610   43.2010 C   0  0  0  0  0  0  0  0  0  0  0  0
   45.5910   33.4850   44.3540 N   0  0  0  0  0  0  0  0  0  0  0  0
   45.3820   34.0540   45.5660 C   0  0  0  0  0  0  0  0  0  0  0  0
   44.7470   35.2560   45.6500 N   0  0  0  0  0  0  0  0  0  0  0  0
   45.8230   33.4030   46.7500 N   0  0  0  0  0  0  0  0  0  0  0  0
   44.0530   36.0430   42.1550 N   0  0  0  0  0  0  0  0  0  0  0  0
   43.8269   36.8199   44.5997 H   0  0  0  0  0  0  0  0  0  0  0  0
   45.3773   33.5734   42.2323 H   0  0  0  0  0  0  0  0  0  0  0  0
   45.6615   33.8400   47.6686 H   0  0  0  0  0  0  0  0  0  0  0  0
   46.3040   32.4943   46.6894 H   0  0  0  0  0  0  0  0  0  0  0  0
   44.1703   35.6840   41.1968 H   0  0  0  0  0  0  0  0  0  0  0  0
   43.5828   36.9457   42.3128 H   0  0  0  0  0  0  0  0  0  0  0  0
  1  6  2  0
  2  1  1  0
  3  2  2  0
  3  4  1  0
  4  5  2  0
  5  6  1  0
  5  7  1  0
  8  2  1  0
  1  9  1  0
  3 10  1  0
  7 11  1  0
  7 12  1  0
  8 13  1  0
  8 14  1  0
M  ISO  2   9  14  10  14
M  END
>  <minimizedAffinity>  (1) 
-3.36922073

>  <minimizedRMSD>  (1) 
0.120510116

$$$$
