
     RDKit          3D

 41 45  0  0  0  0  0  0  0  0999 V2000
   46.7210   32.5260   45.7990 C   0  0  0  0  0  0  0  0  0  0  0  0
   47.0210   32.7730   47.1550 C   0  0  0  0  0  0  0  0  0  0  0  0
   47.6090   31.8520   47.9950 C   0  0  0  0  0  0  0  0  0  0  0  0
   47.9370   30.6240   47.5360 C   0  0  0  0  0  0  0  0  0  0  0  0
   47.6590   30.3190   46.2060 C   0  0  0  0  0  0  0  0  0  0  0  0
   47.9920   29.0610   45.7980 C   0  0  0  0  0  0  0  0  0  0  0  0
   47.7180   28.6750   44.4890 C   0  0  0  0  0  0  0  0  0  0  0  0
   47.1010   29.6280   43.6720 C   0  0  0  0  0  0  0  0  0  0  0  0
   46.8110   30.8600   44.1810 C   0  0  0  0  0  0  0  0  0  0  0  0
   47.0710   31.2680   45.4200 C   0  0  0  0  0  0  0  0  0  0  0  0
   46.4430   31.8300   41.8250 C   0  0  0  0  0  0  0  0  0  0  0  0
   45.9740   31.4010   43.0950 C   0  0  0  0  0  0  0  0  0  0  0  0
   44.5760   31.3660   43.3520 C   0  0  0  0  0  0  0  0  0  0  0  0
   43.6730   31.7370   42.4100 C   0  0  0  0  0  0  0  0  0  0  0  0
   42.3280   31.7820   42.4360 N   0  0  0  0  0  0  0  0  0  0  0  0
   41.9510   32.2320   41.2040 C   0  0  0  0  0  0  0  0  0  0  0  0
   43.0650   32.4540   40.4500 N   0  0  0  0  0  0  0  0  0  0  0  0
   44.1430   32.1450   41.2010 C   0  0  0  0  0  0  0  0  0  0  0  0
   45.4800   32.2060   40.8760 C   0  0  0  0  0  0  0  0  0  0  0  0
   44.6200   35.2230   44.7120 C   0  0  0  0  0  0  0  0  0  0  0  0
   45.3090   35.7330   43.5670 C   0  0  0  0  0  0  0  0  0  0  0  0
   46.5070   35.1170   43.1260 C   0  0  0  0  0  0  0  0  0  0  0  0
   46.9060   34.0680   43.8520 N   0  0  0  0  0  0  0  0  0  0  0  0
   46.3010   33.5780   44.8970 C   0  0  0  0  0  0  0  0  0  0  0  0
   45.1440   34.1570   45.3400 N   0  0  0  0  0  0  0  0  0  0  0  0
   44.6950   36.8640   42.9560 N   0  0  0  0  0  0  0  0  0  0  0  0
   46.7702   33.7615   47.5674 H   0  0  0  0  0  0  0  0  0  0  0  0
   47.8121   32.1175   49.0430 H   0  0  0  0  0  0  0  0  0  0  0  0
   48.4118   29.8837   48.1966 H   0  0  0  0  0  0  0  0  0  0  0  0
   48.4719   28.3590   46.4958 H   0  0  0  0  0  0  0  0  0  0  0  0
   47.9735   27.6721   44.1163 H   0  0  0  0  0  0  0  0  0  0  0  0
   46.8518   29.3862   42.6282 H   0  0  0  0  0  0  0  0  0  0  0  0
   47.5180   31.8661   41.5944 H   0  0  0  0  0  0  0  0  0  0  0  0
   44.2186   31.0306   44.3368 H   0  0  0  0  0  0  0  0  0  0  0  0
   41.7118   31.5295   43.2218 H   0  0  0  0  0  0  0  0  0  0  0  0
   40.9142   32.3903   40.8724 H   0  0  0  0  0  0  0  0  0  0  0  0
   45.7913   32.5476   39.8778 H   0  0  0  0  0  0  0  0  0  0  0  0
   43.6894   35.6893   45.0676 H   0  0  0  0  0  0  0  0  0  0  0  0
   47.0675   35.4760   42.2502 H   0  0  0  0  0  0  0  0  0  0  0  0
   45.1235   37.2965   42.1252 H   0  0  0  0  0  0  0  0  0  0  0  0
   43.8225   37.2492   43.3450 H   0  0  0  0  0  0  0  0  0  0  0  0
  1  2  2  0
  2  3  1  0
  4  3  2  0
  5  4  1  0
  6  5  2  0
  7  6  1  0
  8  9  1  0
  8  7  2  0
  9 10  2  0
 10  1  1  0
 10  5  1  0
 11 12  2  0
 12 13  1  0
 12  9  1  0
 14 15  1  0
 14 13  2  0
 16 15  1  0
 17 18  1  0
 17 16  2  0
 18 14  1  0
 19 18  2  0
 19 11  1  0
 20 25  2  0
 21 20  1  0
 22 21  2  0
 22 23  1  0
 23 24  2  0
 24 25  1  0
 24  1  1  0
 26 21  1  0
  2 27  1  0
  3 28  1  0
  4 29  1  0
  6 30  1  0
  7 31  1  0
  8 32  1  0
 11 33  1  0
 13 34  1  0
 15 35  1  0
 16 36  1  0
 19 37  1  0
 20 38  1  0
 22 39  1  0
 26 40  1  0
 26 41  1  0
M  ISO  8  27  14  28  14  29  14  30  14  31  14  32  14  33  14  34  14
M  ISO  5  35   9  36  14  37  14  38  14  39  14
M  END
>  <minimizedAffinity>  (1) 
-5.63149452

>  <minimizedRMSD>  (1) 
1.48175085

$$$$
