
     RDKit          3D

 36 38  0  0  0  0  0  0  0  0999 V2000
   45.8950   32.6960   46.6280 C   0  0  0  0  0  0  0  0  0  0  0  0
   45.6600   33.0100   47.9820 C   0  0  0  0  0  0  0  0  0  0  0  0
   45.9230   32.1600   49.0320 C   0  0  0  0  0  0  0  0  0  0  0  0
   46.4400   30.9360   48.8020 C   0  0  0  0  0  0  0  0  0  0  0  0
   46.6930   30.5600   47.4820 C   0  0  0  0  0  0  0  0  0  0  0  0
   47.1920   29.3040   47.2860 C   0  0  0  0  0  0  0  0  0  0  0  0
   47.4370   28.8490   46.0050 C   0  0  0  0  0  0  0  0  0  0  0  0
   47.1490   29.7280   44.9760 C   0  0  0  0  0  0  0  0  0  0  0  0
   46.6510   30.9720   45.2700 C   0  0  0  0  0  0  0  0  0  0  0  0
   46.4090   31.4440   46.4890 C   0  0  0  0  0  0  0  0  0  0  0  0
   44.4690   35.6010   45.0770 C   0  0  0  0  0  0  0  0  0  0  0  0
   45.2260   35.7370   43.8840 C   0  0  0  0  0  0  0  0  0  0  0  0
   46.2320   34.7910   43.5820 C   0  0  0  0  0  0  0  0  0  0  0  0
   46.3900   33.8110   44.4810 N   0  0  0  0  0  0  0  0  0  0  0  0
   45.7240   33.6590   45.5680 C   0  0  0  0  0  0  0  0  0  0  0  0
   44.7510   34.5650   45.8690 N   0  0  0  0  0  0  0  0  0  0  0  0
   44.8840   36.8640   43.0840 N   0  0  0  0  0  0  0  0  0  0  0  0
   46.4710   31.4660   43.9510 N   0  0  0  0  0  0  0  0  0  0  0  0
   44.9910   30.9930   43.1310 S   0  0  0  0  0  0  0  0  0  0  0  0
   44.3210   29.8680   43.8660 O   0  0  0  0  0  0  0  0  0  0  0  0
   45.2880   30.4710   41.7470 O   0  0  0  0  0  0  0  0  0  0  0  0
   43.8980   32.2350   43.0400 O   0  0  0  0  0  0  0  0  0  0  0  0
   45.2388   33.9992   48.2146 H   0  0  0  0  0  0  0  0  0  0  0  0
   45.7107   32.4803   50.0627 H   0  0  0  0  0  0  0  0  0  0  0  0
   46.6570   30.2506   49.6345 H   0  0  0  0  0  0  0  0  0  0  0  0
   47.3990   28.6541   48.1490 H   0  0  0  0  0  0  0  0  0  0  0  0
   47.8390   27.8431   45.8135 H   0  0  0  0  0  0  0  0  0  0  0  0
   47.3180   29.4316   43.9303 H   0  0  0  0  0  0  0  0  0  0  0  0
   43.6803   36.3219   45.3384 H   0  0  0  0  0  0  0  0  0  0  0  0
   46.8438   34.8554   42.6701 H   0  0  0  0  0  0  0  0  0  0  0  0
   45.3836   37.0391   42.2005 H   0  0  0  0  0  0  0  0  0  0  0  0
   44.1369   37.5042   43.3888 H   0  0  0  0  0  0  0  0  0  0  0  0
   47.1717   32.0703   43.4985 H   0  0  0  0  0  0  0  0  0  0  0  0
   44.4075   30.0133   44.8414 H   0  0  0  0  0  0  0  0  0  0  0  0
   45.7764   29.6126   41.8158 H   0  0  0  0  0  0  0  0  0  0  0  0
   43.6465   32.5208   43.9539 H   0  0  0  0  0  0  0  0  0  0  0  0
  1  2  2  0
  2  3  1  0
  4  3  2  0
  5  4  1  0
  6  5  2  0
  7  6  1  0
  8  9  1  0
  8  7  2  0
  9 10  2  0
 10  1  1  0
 10  5  1  0
 11 16  2  0
 12 11  1  0
 13 12  2  0
 13 14  1  0
 14 15  2  0
 15 16  1  0
 15  1  1  0
 17 12  1  0
 18  9  1  0
 19 20  1  0
 19 18  1  0
 21 19  1  0
 22 19  1  0
  2 23  1  0
  3 24  1  0
  4 25  1  0
  6 26  1  0
  7 27  1  0
  8 28  1  0
 11 29  1  0
 13 30  1  0
 17 31  1  0
 17 32  1  0
 18 33  1  0
 20 34  1  0
 21 35  1  0
 22 36  1  0
M  ISO  8  23  14  24  14  25  14  26  14  27  14  28  14  29  14  30  14
M  ISO  3  34   3  35   3  36   3
M  END
>  <minimizedAffinity>  (1) 
-5.38956547

>  <minimizedRMSD>  (1) 
0.802810311

$$$$
