
     RDKit          3D

 44 48  0  0  0  0  0  0  0  0999 V2000
   46.5190   32.6260   45.5390 C   0  0  0  0  0  0  0  0  0  0  0  0
   46.9370   32.7890   46.8760 C   0  0  0  0  0  0  0  0  0  0  0  0
   47.3890   31.7630   47.6790 C   0  0  0  0  0  0  0  0  0  0  0  0
   47.4530   30.5070   47.1990 C   0  0  0  0  0  0  0  0  0  0  0  0
   47.0500   30.2780   45.8880 C   0  0  0  0  0  0  0  0  0  0  0  0
   47.0960   28.9830   45.4610 C   0  0  0  0  0  0  0  0  0  0  0  0
   46.6630   28.6700   44.1820 C   0  0  0  0  0  0  0  0  0  0  0  0
   46.1990   29.7360   43.4040 C   0  0  0  0  0  0  0  0  0  0  0  0
   46.1970   30.9980   43.9240 C   0  0  0  0  0  0  0  0  0  0  0  0
   46.6120   31.3280   45.1450 C   0  0  0  0  0  0  0  0  0  0  0  0
   45.6150   31.6450   42.7490 C   0  0  0  0  0  0  0  0  0  0  0  0
   44.2060   31.8040   42.7740 C   0  0  0  0  0  0  0  0  0  0  0  0
   43.5880   32.3450   41.6570 C   0  0  0  0  0  0  0  0  0  0  0  0
   44.3190   32.7170   40.5550 C   0  0  0  0  0  0  0  0  0  0  0  0
   45.6900   32.5800   40.4900 C   0  0  0  0  0  0  0  0  0  0  0  0
   46.4870   32.9270   39.4160 C   0  0  0  0  0  0  0  0  0  0  0  0
   47.8540   32.7440   39.4510 C   0  0  0  0  0  0  0  0  0  0  0  0
   48.4900   32.2050   40.5580 C   0  0  0  0  0  0  0  0  0  0  0  0
   47.7490   31.8390   41.6600 C   0  0  0  0  0  0  0  0  0  0  0  0
   46.3640   32.0370   41.5940 C   0  0  0  0  0  0  0  0  0  0  0  0
   44.5830   35.4790   44.5430 C   0  0  0  0  0  0  0  0  0  0  0  0
   45.3270   36.0100   43.4520 C   0  0  0  0  0  0  0  0  0  0  0  0
   46.5040   35.3520   43.0260 C   0  0  0  0  0  0  0  0  0  0  0  0
   46.8190   34.2520   43.7150 N   0  0  0  0  0  0  0  0  0  0  0  0
   46.1810   33.7420   44.6970 C   0  0  0  0  0  0  0  0  0  0  0  0
   45.0430   34.3640   45.1180 N   0  0  0  0  0  0  0  0  0  0  0  0
   44.7820   37.1950   42.9000 N   0  0  0  0  0  0  0  0  0  0  0  0
   46.9001   33.8006   47.3065 H   0  0  0  0  0  0  0  0  0  0  0  0
   47.6979   31.9714   48.7140 H   0  0  0  0  0  0  0  0  0  0  0  0
   47.8155   29.6813   47.8289 H   0  0  0  0  0  0  0  0  0  0  0  0
   47.4739   28.1931   46.1268 H   0  0  0  0  0  0  0  0  0  0  0  0
   46.6831   27.6389   43.7994 H   0  0  0  0  0  0  0  0  0  0  0  0
   45.8382   29.5584   42.3801 H   0  0  0  0  0  0  0  0  0  0  0  0
   43.6194   31.5062   43.6556 H   0  0  0  0  0  0  0  0  0  0  0  0
   42.4961   32.4783   41.6531 H   0  0  0  0  0  0  0  0  0  0  0  0
   43.7895   33.1414   39.6892 H   0  0  0  0  0  0  0  0  0  0  0  0
   46.0229   33.3572   38.5162 H   0  0  0  0  0  0  0  0  0  0  0  0
   48.4553   33.0337   38.5766 H   0  0  0  0  0  0  0  0  0  0  0  0
   49.5817   32.0700   40.5567 H   0  0  0  0  0  0  0  0  0  0  0  0
   48.2248   31.4094   42.5539 H   0  0  0  0  0  0  0  0  0  0  0  0
   43.6643   35.9679   44.8993 H   0  0  0  0  0  0  0  0  0  0  0  0
   47.1154   35.7192   42.1885 H   0  0  0  0  0  0  0  0  0  0  0  0
   45.2492   37.6555   42.1059 H   0  0  0  0  0  0  0  0  0  0  0  0
   43.9185   37.5963   43.2927 H   0  0  0  0  0  0  0  0  0  0  0  0
  1  2  2  0
  2  3  1  0
  4  3  2  0
  5  4  1  0
  6  5  2  0
  7  6  1  0
  8  9  1  0
  8  7  2  0
  9 10  2  0
 10  1  1  0
 10  5  1  0
 11 12  2  0
 11  9  1  0
 13 12  1  0
 14 13  2  0
 15 14  1  0
 15 20  2  0
 16 17  2  0
 16 15  1  0
 17 18  1  0
 18 19  2  0
 20 19  1  0
 20 11  1  0
 21 26  2  0
 22 21  1  0
 23 22  2  0
 23 24  1  0
 24 25  2  0
 25 26  1  0
 25  1  1  0
 27 22  1  0
  2 28  1  0
  3 29  1  0
  4 30  1  0
  6 31  1  0
  7 32  1  0
  8 33  1  0
 12 34  1  0
 13 35  1  0
 14 36  1  0
 16 37  1  0
 17 38  1  0
 18 39  1  0
 19 40  1  0
 21 41  1  0
 23 42  1  0
 27 43  1  0
 27 44  1  0
M  ISO  8  28  14  29  14  30  14  31  14  32  14  33  14  34  14  35  14
M  ISO  7  36  14  37  14  38  14  39  14  40  14  41  14  42  14
M  END
>  <minimizedAffinity>  (1) 
-5.35044146

>  <minimizedRMSD>  (1) 
2.09858894

$$$$
