
     RDKit          3D

 32 34  0  0  0  0  0  0  0  0999 V2000
   46.0180   32.7120   46.6750 C   0  0  0  0  0  0  0  0  0  0  0  0
   45.6290   32.9950   47.9960 C   0  0  0  0  0  0  0  0  0  0  0  0
   45.8810   32.1780   49.0740 C   0  0  0  0  0  0  0  0  0  0  0  0
   46.5460   31.0120   48.9000 C   0  0  0  0  0  0  0  0  0  0  0  0
   46.9570   30.6700   47.6180 C   0  0  0  0  0  0  0  0  0  0  0  0
   47.6010   29.4730   47.4720 C   0  0  0  0  0  0  0  0  0  0  0  0
   48.0080   29.0560   46.2070 C   0  0  0  0  0  0  0  0  0  0  0  0
   47.7220   29.9050   45.1540 C   0  0  0  0  0  0  0  0  0  0  0  0
   47.0770   31.0800   45.3930 C   0  0  0  0  0  0  0  0  0  0  0  0
   46.6750   31.5190   46.5920 C   0  0  0  0  0  0  0  0  0  0  0  0
   44.4790   35.5110   45.0400 C   0  0  0  0  0  0  0  0  0  0  0  0
   45.2310   35.6410   43.8380 C   0  0  0  0  0  0  0  0  0  0  0  0
   46.2800   34.7300   43.5690 C   0  0  0  0  0  0  0  0  0  0  0  0
   46.4760   33.7940   44.5010 N   0  0  0  0  0  0  0  0  0  0  0  0
   45.8240   33.6430   45.5910 C   0  0  0  0  0  0  0  0  0  0  0  0
   44.8160   34.5180   45.8510 N   0  0  0  0  0  0  0  0  0  0  0  0
   44.8710   36.7070   42.9640 N   0  0  0  0  0  0  0  0  0  0  0  0
   45.8260   30.9870   43.2220 C   0  0  0  0  0  0  0  0  0  0  0  0
   45.1100   30.1430   43.8600 O   0  0  0  0  0  0  0  0  0  0  0  0
   46.9240   31.5260   44.0470 N   0  0  0  0  0  0  0  0  0  0  0  0
   45.0861   33.9337   48.1804 H   0  0  0  0  0  0  0  0  0  0  0  0
   45.5418   32.4726   50.0780 H   0  0  0  0  0  0  0  0  0  0  0  0
   46.7560   30.3508   49.7537 H   0  0  0  0  0  0  0  0  0  0  0  0
   47.7971   28.8412   48.3508 H   0  0  0  0  0  0  0  0  0  0  0  0
   48.5303   28.1001   46.0536 H   0  0  0  0  0  0  0  0  0  0  0  0
   48.0139   29.6328   44.1290 H   0  0  0  0  0  0  0  0  0  0  0  0
   43.6580   36.2012   45.2839 H   0  0  0  0  0  0  0  0  0  0  0  0
   46.8910   34.7888   42.6562 H   0  0  0  0  0  0  0  0  0  0  0  0
   45.3837   36.8448   42.0814 H   0  0  0  0  0  0  0  0  0  0  0  0
   44.0980   37.3399   43.2148 H   0  0  0  0  0  0  0  0  0  0  0  0
   45.6446   31.2785   42.1770 H   0  0  0  0  0  0  0  0  0  0  0  0
   47.5757   32.2198   43.6535 H   0  0  0  0  0  0  0  0  0  0  0  0
  1  2  2  0
  2  3  1  0
  4  3  2  0
  5  4  1  0
  6  5  2  0
  7  6  1  0
  8  9  1  0
  8  7  2  0
  9 10  2  0
 10  1  1  0
 10  5  1  0
 11 16  2  0
 12 11  1  0
 13 12  2  0
 13 14  1  0
 14 15  2  0
 15 16  1  0
 15  1  1  0
 17 12  1  0
 18 19  2  0
 18 20  1  0
 20  9  1  0
  2 21  1  0
  3 22  1  0
  4 23  1  0
  6 24  1  0
  7 25  1  0
  8 26  1  0
 11 27  1  0
 13 28  1  0
 17 29  1  0
 17 30  1  0
 18 31  1  0
 20 32  1  0
M  ISO  8  21  14  22  14  23  14  24  14  25  14  26  14  27  14  28  14
M  ISO  1  31   6
M  END
>  <minimizedAffinity>  (1) 
-5.23632479

>  <minimizedRMSD>  (1) 
0.772106588

$$$$
