
     RDKit          3D

 29 31  0  0  0  0  0  0  0  0999 V2000
   44.5390   36.0310   44.4930 C   0  0  0  0  0  0  0  0  0  0  0  0
   45.2950   35.9190   43.3090 C   0  0  0  0  0  0  0  0  0  0  0  0
   46.1680   34.8370   43.2410 C   0  0  0  0  0  0  0  0  0  0  0  0
   46.2020   34.0140   44.3030 N   0  0  0  0  0  0  0  0  0  0  0  0
   45.4770   34.1320   45.4270 C   0  0  0  0  0  0  0  0  0  0  0  0
   44.6440   35.1630   45.4930 N   0  0  0  0  0  0  0  0  0  0  0  0
   45.7780   33.0560   46.3630 C   0  0  0  0  0  0  0  0  0  0  0  0
   45.3090   33.0300   47.6580 C   0  0  0  0  0  0  0  0  0  0  0  0
   45.5660   32.0480   48.5590 C   0  0  0  0  0  0  0  0  0  0  0  0
   46.3390   30.9790   48.2280 C   0  0  0  0  0  0  0  0  0  0  0  0
   46.8430   30.9350   46.9510 C   0  0  0  0  0  0  0  0  0  0  0  0
   47.6260   29.8510   46.6130 C   0  0  0  0  0  0  0  0  0  0  0  0
   48.1650   29.7390   45.3580 C   0  0  0  0  0  0  0  0  0  0  0  0
   47.8850   30.7520   44.4660 C   0  0  0  0  0  0  0  0  0  0  0  0
   47.1010   31.8190   44.8350 C   0  0  0  0  0  0  0  0  0  0  0  0
   46.5530   31.9560   46.0740 C   0  0  0  0  0  0  0  0  0  0  0  0
   46.9680   34.6880   42.0210 C   0  0  0  0  0  0  0  0  0  0  0  0
   47.7590   33.5620   42.1070 F   0  0  0  0  0  0  0  0  0  0  0  0
   47.8240   35.7760   41.9780 F   0  0  0  0  0  0  0  0  0  0  0  0
   46.1970   34.6060   40.8880 F   0  0  0  0  0  0  0  0  0  0  0  0
   43.8345   36.8699   44.5930 H   0  0  0  0  0  0  0  0  0  0  0  0
   45.2008   36.6439   42.4870 H   0  0  0  0  0  0  0  0  0  0  0  0
   44.6782   33.8690   47.9869 H   0  0  0  0  0  0  0  0  0  0  0  0
   45.1428   32.1177   49.5719 H   0  0  0  0  0  0  0  0  0  0  0  0
   46.5522   30.1810   48.9544 H   0  0  0  0  0  0  0  0  0  0  0  0
   47.8202   29.0670   47.3597 H   0  0  0  0  0  0  0  0  0  0  0  0
   48.7920   28.8805   45.0755 H   0  0  0  0  0  0  0  0  0  0  0  0
   48.2942   30.7059   43.4460 H   0  0  0  0  0  0  0  0  0  0  0  0
   46.9059   32.6041   44.0897 H   0  0  0  0  0  0  0  0  0  0  0  0
  1  6  2  0
  2  1  1  0
  3  2  2  0
  3  4  1  0
  4  5  2  0
  5  6  1  0
  5  7  1  0
  7  8  2  0
  8  9  1  0
 10  9  2  0
 11 10  1  0
 12 11  2  0
 13 12  1  0
 14 15  1  0
 14 13  2  0
 15 16  2  0
 16  7  1  0
 16 11  1  0
 17 18  1  0
 17  3  1  0
 19 17  1  0
 20 17  1  0
  1 21  1  0
  2 22  1  0
  8 23  1  0
  9 24  1  0
 10 25  1  0
 12 26  1  0
 13 27  1  0
 14 28  1  0
 15 29  1  0
M  ISO  8  21  14  22  14  23  14  24  14  25  14  26  14  27  14  28  14
M  ISO  1  29  14
M  END
>  <minimizedAffinity>  (1) 
-6.14205933

>  <minimizedRMSD>  (1) 
0.504581511

$$$$
