
     RDKit          3D

 46 49  0  0  1  0  0  0  0  0999 V2000
   45.9610   32.7730   46.4750 C   0  0  0  0  0  0  0  0  0  0  0  0
   45.4490   32.9080   47.7880 C   0  0  0  0  0  0  0  0  0  0  0  0
   45.6830   32.0010   48.7860 C   0  0  0  0  0  0  0  0  0  0  0  0
   46.4320   30.9090   48.5630 C   0  0  0  0  0  0  0  0  0  0  0  0
   46.9580   30.7200   47.3050 C   0  0  0  0  0  0  0  0  0  0  0  0
   47.7180   29.5970   47.0970 C   0  0  0  0  0  0  0  0  0  0  0  0
   48.2670   29.3550   45.8510 C   0  0  0  0  0  0  0  0  0  0  0  0
   48.0010   30.3030   44.8560 C   0  0  0  0  0  0  0  0  0  0  0  0
   47.2540   31.3620   45.1470 C   0  0  0  0  0  0  0  0  0  0  0  0
   46.7040   31.6510   46.3180 C   0  0  0  0  0  0  0  0  0  0  0  0
   44.4480   35.7350   45.1010 C   0  0  0  0  0  0  0  0  0  0  0  0
   45.0880   35.8400   43.8240 C   0  0  0  0  0  0  0  0  0  0  0  0
   46.0530   34.8690   43.4250 C   0  0  0  0  0  0  0  0  0  0  0  0
   46.3040   33.8930   44.3010 N   0  0  0  0  0  0  0  0  0  0  0  0
   45.7350   33.7760   45.4650 C   0  0  0  0  0  0  0  0  0  0  0  0
   44.8070   34.7030   45.8580 N   0  0  0  0  0  0  0  0  0  0  0  0
   44.7060   36.9450   43.0130 N   0  0  0  0  0  0  0  0  0  0  0  0
   47.1760   32.0610   44.0000 O   0  0  0  0  0  0  0  0  0  0  0  0
   48.3440   30.7760   42.2610 C   0  0  2  0  0  0  0  0  0  0  0  0
   47.9660   32.0790   42.8410 C   0  0  2  0  0  0  0  0  0  0  0  0
   49.1580   32.7850   43.1650 O   0  0  0  0  0  0  0  0  0  0  0  0
   49.5710   33.3780   41.9760 C   0  0  0  0  0  0  0  0  0  0  0  0
   49.7770   32.3110   40.9480 C   0  0  1  0  0  0  0  0  0  0  0  0
   49.6890   30.9310   41.5750 C   0  0  1  0  0  0  0  0  0  0  0  0
   47.4390   30.4050   41.2630 O   0  0  0  0  0  0  0  0  0  0  0  0
   48.8240   32.4470   39.9500 O   0  0  0  0  0  0  0  0  0  0  0  0
   50.6900   30.7450   42.5070 O   0  0  0  0  0  0  0  0  0  0  0  0
   44.8306   33.7881   48.0182 H   0  0  0  0  0  0  0  0  0  0  0  0
   45.2518   32.1688   49.7839 H   0  0  0  0  0  0  0  0  0  0  0  0
   46.6209   30.1823   49.3669 H   0  0  0  0  0  0  0  0  0  0  0  0
   47.8907   28.8892   47.9211 H   0  0  0  0  0  0  0  0  0  0  0  0
   48.8807   28.4640   45.6522 H   0  0  0  0  0  0  0  0  0  0  0  0
   48.4070   30.1721   43.8421 H   0  0  0  0  0  0  0  0  0  0  0  0
   43.7002   36.4684   45.4370 H   0  0  0  0  0  0  0  0  0  0  0  0
   46.5617   34.9210   42.4511 H   0  0  0  0  0  0  0  0  0  0  0  0
   45.1319   37.0736   42.0840 H   0  0  0  0  0  0  0  0  0  0  0  0
   44.0036   37.6163   43.3549 H   0  0  0  0  0  0  0  0  0  0  0  0
   48.3624   30.0266   43.0660 H   0  0  0  0  0  0  0  0  0  0  0  0
   47.3430   32.5482   42.0653 H   0  0  0  0  0  0  0  0  0  0  0  0
   48.8012   34.0824   41.6279 H   0  0  0  0  0  0  0  0  0  0  0  0
   50.5115   33.9245   42.1393 H   0  0  0  0  0  0  0  0  0  0  0  0
   50.7821   32.4220   40.5150 H   0  0  0  0  0  0  0  0  0  0  0  0
   49.8039   30.1813   40.7783 H   0  0  0  0  0  0  0  0  0  0  0  0
   46.6085   30.0645   41.6806 H   0  0  0  0  0  0  0  0  0  0  0  0
   47.9321   32.5743   40.3605 H   0  0  0  0  0  0  0  0  0  0  0  0
   50.3097   30.8157   43.4183 H   0  0  0  0  0  0  0  0  0  0  0  0
  1  2  2  0
  2  3  1  0
  4  3  2  0
  5  4  1  0
  6  5  2  0
  7  6  1  0
  8  9  1  0
  8  7  2  0
  9 10  2  0
 10  1  1  0
 10  5  1  0
 11 16  2  0
 12 11  1  0
 13 12  2  0
 13 14  1  0
 14 15  2  0
 15 16  1  0
 15  1  1  0
 17 12  1  0
 18  9  1  0
 19 25  1  0
 19 20  1  0
 20 21  1  0
 20 18  1  0
 22 21  1  0
 23 26  1  0
 23 24  1  0
 23 22  1  0
 24 19  1  0
 24 27  1  0
  2 28  1  0
  3 29  1  0
  4 30  1  0
  6 31  1  0
  7 32  1  0
  8 33  1  0
 11 34  1  0
 13 35  1  0
 17 36  1  0
 17 37  1  0
 19 38  1  1
 20 39  1  6
 22 40  1  0
 22 41  1  0
 23 42  1  6
 24 43  1  6
 25 44  1  0
 26 45  1  0
 27 46  1  0
M  ISO  8  28  14  29  14  30  14  31  14  32  14  33  14  34  14  35  14
M  ISO  8  38  13  39  13  40  13  41  13  42  13  43  13  44   3  45   3
M  ISO  1  46   3
M  END
>  <minimizedAffinity>  (1) 
-6.25285816

>  <minimizedRMSD>  (1) 
0.826185882

$$$$
