
     RDKit          3D

 42 45  0  0  1  0  0  0  0  0999 V2000
   45.9930   32.7950   46.2800 C   0  0  0  0  0  0  0  0  0  0  0  0
   45.4430   32.8880   47.5830 C   0  0  0  0  0  0  0  0  0  0  0  0
   45.6560   31.9630   48.5660 C   0  0  0  0  0  0  0  0  0  0  0  0
   46.4260   30.8870   48.3290 C   0  0  0  0  0  0  0  0  0  0  0  0
   46.9920   30.7330   47.0820 C   0  0  0  0  0  0  0  0  0  0  0  0
   47.7660   29.6270   46.8800 C   0  0  0  0  0  0  0  0  0  0  0  0
   48.3600   29.4170   45.6510 C   0  0  0  0  0  0  0  0  0  0  0  0
   48.1270   30.3670   44.6650 C   0  0  0  0  0  0  0  0  0  0  0  0
   47.3500   31.4360   44.9340 C   0  0  0  0  0  0  0  0  0  0  0  0
   46.7660   31.6720   46.1080 C   0  0  0  0  0  0  0  0  0  0  0  0
   44.4960   35.7860   44.9680 C   0  0  0  0  0  0  0  0  0  0  0  0
   45.1270   35.9210   43.6940 C   0  0  0  0  0  0  0  0  0  0  0  0
   46.0870   34.9540   43.2710 C   0  0  0  0  0  0  0  0  0  0  0  0
   46.3330   33.9570   44.1280 N   0  0  0  0  0  0  0  0  0  0  0  0
   45.7720   33.8170   45.2860 C   0  0  0  0  0  0  0  0  0  0  0  0
   44.8580   34.7420   45.6840 N   0  0  0  0  0  0  0  0  0  0  0  0
   44.7350   37.0510   42.9290 N   0  0  0  0  0  0  0  0  0  0  0  0
   47.2880   32.1740   43.8250 O   0  0  0  0  0  0  0  0  0  0  0  0
   49.2910   32.7610   42.6040 C   0  0  1  0  0  0  0  0  0  0  0  0
   47.9590   32.0160   42.6240 C   0  0  1  0  0  0  0  0  0  0  0  0
   48.3180   30.6690   42.3980 O   0  0  0  0  0  0  0  0  0  0  0  0
   49.2160   30.7440   41.3490 C   0  0  0  0  0  0  0  0  0  0  0  0
   50.1650   31.8210   41.8140 C   0  0  1  0  0  0  0  0  0  0  0  0
   49.1150   33.9250   41.8470 O   0  0  0  0  0  0  0  0  0  0  0  0
   50.6560   32.4330   40.6590 O   0  0  0  0  0  0  0  0  0  0  0  0
   44.8078   33.7552   47.8165 H   0  0  0  0  0  0  0  0  0  0  0  0
   45.1953   32.0995   49.5555 H   0  0  0  0  0  0  0  0  0  0  0  0
   46.6016   30.1410   49.1181 H   0  0  0  0  0  0  0  0  0  0  0  0
   47.9165   28.9038   47.6951 H   0  0  0  0  0  0  0  0  0  0  0  0
   48.9903   28.5356   45.4613 H   0  0  0  0  0  0  0  0  0  0  0  0
   48.5750   30.2478   43.6674 H   0  0  0  0  0  0  0  0  0  0  0  0
   43.7519   36.5110   45.3296 H   0  0  0  0  0  0  0  0  0  0  0  0
   46.5947   35.0242   42.2977 H   0  0  0  0  0  0  0  0  0  0  0  0
   45.1489   37.2126   41.9998 H   0  0  0  0  0  0  0  0  0  0  0  0
   44.0367   37.7092   43.3033 H   0  0  0  0  0  0  0  0  0  0  0  0
   49.6858   33.0252   43.5961 H   0  0  0  0  0  0  0  0  0  0  0  0
   47.2587   32.3993   41.8672 H   0  0  0  0  0  0  0  0  0  0  0  0
   48.7132   31.0326   40.4142 H   0  0  0  0  0  0  0  0  0  0  0  0
   49.7112   29.7879   41.1241 H   0  0  0  0  0  0  0  0  0  0  0  0
   51.0153   31.4756   42.4203 H   0  0  0  0  0  0  0  0  0  0  0  0
   48.9980   34.6986   42.4536 H   0  0  0  0  0  0  0  0  0  0  0  0
   51.2552   33.1799   40.9105 H   0  0  0  0  0  0  0  0  0  0  0  0
  1  2  2  0
  2  3  1  0
  4  3  2  0
  5  4  1  0
  6  5  2  0
  7  6  1  0
  8  9  1  0
  8  7  2  0
  9 10  2  0
 10  1  1  0
 10  5  1  0
 11 16  2  0
 12 11  1  0
 13 12  2  0
 13 14  1  0
 14 15  2  0
 15 16  1  0
 15  1  1  0
 17 12  1  0
 18  9  1  0
 19 24  1  0
 19 20  1  0
 20 18  1  0
 21 20  1  0
 22 23  1  0
 22 21  1  0
 23 25  1  0
 23 19  1  0
  2 26  1  0
  3 27  1  0
  4 28  1  0
  6 29  1  0
  7 30  1  0
  8 31  1  0
 11 32  1  0
 13 33  1  0
 17 34  1  0
 17 35  1  0
 19 36  1  1
 20 37  1  6
 22 38  1  0
 22 39  1  0
 23 40  1  1
 24 41  1  0
 25 42  1  0
M  ISO  8  26  14  27  14  28  14  29  14  30  14  31  14  32  14  33  14
M  ISO  7  36  13  37  13  38  13  39  13  40  13  41   3  42   3
M  END
>  <minimizedAffinity>  (1) 
-6.19892836

>  <minimizedRMSD>  (1) 
0.870518804

$$$$
