
     RDKit          3D

 35 37  0  0  0  0  0  0  0  0999 V2000
   46.0040   32.6840   46.6890 C   0  0  0  0  0  0  0  0  0  0  0  0
   45.4680   32.9000   47.9850 C   0  0  0  0  0  0  0  0  0  0  0  0
   45.6500   32.0380   49.0370 C   0  0  0  0  0  0  0  0  0  0  0  0
   46.3680   30.9120   48.8820 C   0  0  0  0  0  0  0  0  0  0  0  0
   46.9240   30.6400   47.6270 C   0  0  0  0  0  0  0  0  0  0  0  0
   47.6430   29.4880   47.5120 C   0  0  0  0  0  0  0  0  0  0  0  0
   48.2070   29.1650   46.3140 C   0  0  0  0  0  0  0  0  0  0  0  0
   48.0070   30.0410   45.2750 C   0  0  0  0  0  0  0  0  0  0  0  0
   47.2850   31.1640   45.4570 C   0  0  0  0  0  0  0  0  0  0  0  0
   46.7190   31.5180   46.6110 C   0  0  0  0  0  0  0  0  0  0  0  0
   44.5040   35.5320   45.0990 C   0  0  0  0  0  0  0  0  0  0  0  0
   45.2120   35.6140   43.8620 C   0  0  0  0  0  0  0  0  0  0  0  0
   46.2240   34.6580   43.5660 C   0  0  0  0  0  0  0  0  0  0  0  0
   46.4500   33.7210   44.4960 N   0  0  0  0  0  0  0  0  0  0  0  0
   45.8160   33.6330   45.6250 C   0  0  0  0  0  0  0  0  0  0  0  0
   44.8420   34.5460   45.9180 N   0  0  0  0  0  0  0  0  0  0  0  0
   44.8290   36.6780   43.0160 N   0  0  0  0  0  0  0  0  0  0  0  0
   47.2550   31.8260   44.2670 O   0  0  0  0  0  0  0  0  0  0  0  0
   47.8740   31.3590   43.0720 C   0  0  0  0  0  0  0  0  0  0  0  0
   48.9500   32.2140   42.5300 C   0  0  0  0  0  0  0  0  0  0  0  0
   44.8733   33.8094   48.1559 H   0  0  0  0  0  0  0  0  0  0  0  0
   45.2046   32.2703   50.0156 H   0  0  0  0  0  0  0  0  0  0  0  0
   46.5153   30.2193   49.7237 H   0  0  0  0  0  0  0  0  0  0  0  0
   47.7673   28.8236   48.3798 H   0  0  0  0  0  0  0  0  0  0  0  0
   48.7956   28.2447   46.1850 H   0  0  0  0  0  0  0  0  0  0  0  0
   48.4395   29.8241   44.2871 H   0  0  0  0  0  0  0  0  0  0  0  0
   43.7153   36.2529   45.3601 H   0  0  0  0  0  0  0  0  0  0  0  0
   46.7904   34.6871   42.6235 H   0  0  0  0  0  0  0  0  0  0  0  0
   45.2933   36.8046   42.1053 H   0  0  0  0  0  0  0  0  0  0  0  0
   44.0854   37.3274   43.3097 H   0  0  0  0  0  0  0  0  0  0  0  0
   48.3026   30.3673   43.2790 H   0  0  0  0  0  0  0  0  0  0  0  0
   47.0828   31.3532   42.3078 H   0  0  0  0  0  0  0  0  0  0  0  0
   49.5149   32.6629   43.3603 H   0  0  0  0  0  0  0  0  0  0  0  0
   49.6269   31.6047   41.9131 H   0  0  0  0  0  0  0  0  0  0  0  0
   48.5094   33.0110   41.9131 H   0  0  0  0  0  0  0  0  0  0  0  0
  1  2  2  0
  2  3  1  0
  4  3  2  0
  5  4  1  0
  6  5  2  0
  7  6  1  0
  8  9  1  0
  8  7  2  0
  9 10  2  0
 10  1  1  0
 10  5  1  0
 11 16  2  0
 12 11  1  0
 13 12  2  0
 13 14  1  0
 14 15  2  0
 15 16  1  0
 15  1  1  0
 17 12  1  0
 18  9  1  0
 19 18  1  0
 20 19  1  0
  2 21  1  0
  3 22  1  0
  4 23  1  0
  6 24  1  0
  7 25  1  0
  8 26  1  0
 11 27  1  0
 13 28  1  0
 17 29  1  0
 17 30  1  0
 19 31  1  0
 19 32  1  0
 20 33  1  0
 20 34  1  0
 20 35  1  0
M  ISO  8  21  14  22  14  23  14  24  14  25  14  26  14  27  14  28  14
M  ISO  5  31   8  32   8  33   8  34   8  35   8
M  END
>  <minimizedAffinity>  (1) 
-5.43676662

>  <minimizedRMSD>  (1) 
0.073653698

$$$$
