
     RDKit          3D

 23 24  0  0  0  0  0  0  0  0999 V2000
   44.6110   35.8170   44.3610 C   0  0  0  0  0  0  0  0  0  0  0  0
   45.3970   35.7520   43.1760 C   0  0  0  0  0  0  0  0  0  0  0  0
   46.3730   34.7570   43.1020 C   0  0  0  0  0  0  0  0  0  0  0  0
   46.5180   33.9120   44.1520 N   0  0  0  0  0  0  0  0  0  0  0  0
   45.7520   33.9970   45.2720 C   0  0  0  0  0  0  0  0  0  0  0  0
   44.8130   34.9420   45.3650 N   0  0  0  0  0  0  0  0  0  0  0  0
   44.2810   34.0260   47.6550 F   0  0  0  0  0  0  0  0  0  0  0  0
   45.2500   33.0820   47.4970 C   0  0  0  0  0  0  0  0  0  0  0  0
   46.0070   33.0270   46.3340 C   0  0  0  0  0  0  0  0  0  0  0  0
   46.9980   32.0860   46.1360 C   0  0  0  0  0  0  0  0  0  0  0  0
   47.2650   31.1540   47.1200 C   0  0  0  0  0  0  0  0  0  0  0  0
   46.5140   31.2140   48.2660 C   0  0  0  0  0  0  0  0  0  0  0  0
   45.5130   32.1450   48.4970 C   0  0  0  0  0  0  0  0  0  0  0  0
   47.1490   34.7360   41.8660 C   0  0  0  0  0  0  0  0  0  0  0  0
   48.0250   33.6620   41.9070 F   0  0  0  0  0  0  0  0  0  0  0  0
   47.9640   35.8620   41.8910 F   0  0  0  0  0  0  0  0  0  0  0  0
   46.4040   34.6490   40.7410 F   0  0  0  0  0  0  0  0  0  0  0  0
   43.8324   36.5880   44.4576 H   0  0  0  0  0  0  0  0  0  0  0  0
   45.2409   36.4601   42.3488 H   0  0  0  0  0  0  0  0  0  0  0  0
   47.5727   32.0786   45.1981 H   0  0  0  0  0  0  0  0  0  0  0  0
   48.0491   30.3936   46.9895 H   0  0  0  0  0  0  0  0  0  0  0  0
   46.7195   30.4745   49.0540 H   0  0  0  0  0  0  0  0  0  0  0  0
   44.9443   32.1450   49.4386 H   0  0  0  0  0  0  0  0  0  0  0  0
  1  6  2  0
  2  1  1  0
  3  2  2  0
  3  4  1  0
  4  5  2  0
  5  6  1  0
  5  9  1  0
  8  7  1  0
  8 13  2  0
  9  8  1  0
 10  9  2  0
 10 11  1  0
 11 12  2  0
 12 13  1  0
 14 16  1  0
 14 15  1  0
 14  3  1  0
 17 14  1  0
  1 18  1  0
  2 19  1  0
 10 20  1  0
 11 21  1  0
 12 22  1  0
 13 23  1  0
M  ISO  6  18  14  19  14  20  14  21  14  22  14  23  14
M  END
>  <minimizedAffinity>  (1) 
-5.81095076

>  <minimizedRMSD>  (1) 
0.23346144

$$$$
