
     RDKit          3D

 33 36  0  0  0  0  0  0  0  0999 V2000
   44.9740   33.0390   41.0890 Cl  0  0  0  0  0  0  0  0  0  0  0  0
   46.4610   33.9470   40.9030 C   0  0  0  0  0  0  0  0  0  0  0  0
   46.9140   34.7660   41.8920 C   0  0  0  0  0  0  0  0  0  0  0  0
   48.0870   35.4290   41.6430 C   0  0  0  0  0  0  0  0  0  0  0  0
   48.7900   35.3020   40.4840 C   0  0  0  0  0  0  0  0  0  0  0  0
   48.3240   34.4710   39.4880 C   0  0  0  0  0  0  0  0  0  0  0  0
   47.1440   33.7930   39.7170 C   0  0  0  0  0  0  0  0  0  0  0  0
   46.7150   31.5510   38.6330 C   0  0  0  0  0  0  0  0  0  0  0  0
   46.7040   32.9310   38.6270 C   0  0  0  0  0  0  0  0  0  0  0  0
   46.2250   33.5390   37.4620 C   0  0  0  0  0  0  0  0  0  0  0  0
   45.7860   32.8260   36.3780 C   0  0  0  0  0  0  0  0  0  0  0  0
   45.2870   33.0950   35.1580 N   0  0  0  0  0  0  0  0  0  0  0  0
   45.0110   31.9890   34.4660 C   0  0  0  0  0  0  0  0  0  0  0  0
   45.3450   30.9390   35.2710 N   0  0  0  0  0  0  0  0  0  0  0  0
   45.8120   31.4500   36.4230 C   0  0  0  0  0  0  0  0  0  0  0  0
   46.2780   30.8140   37.5530 C   0  0  0  0  0  0  0  0  0  0  0  0
   44.4800   35.9860   44.5310 C   0  0  0  0  0  0  0  0  0  0  0  0
   45.2120   35.8990   43.3400 C   0  0  0  0  0  0  0  0  0  0  0  0
   46.1450   34.8800   43.1110 C   0  0  0  0  0  0  0  0  0  0  0  0
   46.2880   33.9890   44.1260 N   0  0  0  0  0  0  0  0  0  0  0  0
   45.5760   34.0840   45.2670 C   0  0  0  0  0  0  0  0  0  0  0  0
   44.6870   35.0590   45.4780 N   0  0  0  0  0  0  0  0  0  0  0  0
   48.4816   36.0994   42.4207 H   0  0  0  0  0  0  0  0  0  0  0  0
   49.7269   35.8608   40.3429 H   0  0  0  0  0  0  0  0  0  0  0  0
   48.8739   34.3523   38.5428 H   0  0  0  0  0  0  0  0  0  0  0  0
   47.0832   31.0238   39.5255 H   0  0  0  0  0  0  0  0  0  0  0  0
   46.1997   34.6377   37.4142 H   0  0  0  0  0  0  0  0  0  0  0  0
   45.1352   34.0483   34.7987 H   0  0  0  0  0  0  0  0  0  0  0  0
   44.5965   31.9340   33.4486 H   0  0  0  0  0  0  0  0  0  0  0  0
   46.3014   29.7150   37.5935 H   0  0  0  0  0  0  0  0  0  0  0  0
   43.7521   36.7960   44.6861 H   0  0  0  0  0  0  0  0  0  0  0  0
   45.0487   36.6560   42.5588 H   0  0  0  0  0  0  0  0  0  0  0  0
   45.7328   33.3309   46.0533 H   0  0  0  0  0  0  0  0  0  0  0  0
  2  1  1  0
  2  3  2  0
  3 19  1  0
  4  3  1  0
  5  4  2  0
  6  7  2  0
  6  5  1  0
  7  2  1  0
  9  8  2  0
  9  7  1  0
 10  9  1  0
 11 15  1  0
 11 10  2  0
 12 11  1  0
 13 12  1  0
 13 14  2  0
 14 15  1  0
 15 16  2  0
 16  8  1  0
 17 22  2  0
 18 17  1  0
 19 18  2  0
 19 20  1  0
 20 21  2  0
 21 22  1  0
  4 23  1  0
  5 24  1  0
  6 25  1  0
  8 26  1  0
 10 27  1  0
 12 28  1  0
 13 29  1  0
 16 30  1  0
 17 31  1  0
 18 32  1  0
 21 33  1  0
M  ISO  8  23  14  24  14  25  14  26  14  27  14  28   9  29  14  30  14
M  ISO  3  31  14  32  14  33  14
M  END
>  <minimizedAffinity>  (1) 
-6.47988081

>  <minimizedRMSD>  (1) 
0.53153646

$$$$
