
     RDKit          3D

 30 32  0  0  0  0  0  0  0  0999 V2000
   44.7930   33.1660   41.1650 Cl  0  0  0  0  0  0  0  0  0  0  0  0
   46.3270   33.9750   40.9950 C   0  0  0  0  0  0  0  0  0  0  0  0
   46.8270   34.7560   41.9760 C   0  0  0  0  0  0  0  0  0  0  0  0
   48.0510   35.3510   41.7390 C   0  0  0  0  0  0  0  0  0  0  0  0
   48.7480   35.1790   40.5810 C   0  0  0  0  0  0  0  0  0  0  0  0
   48.2350   34.3850   39.5870 C   0  0  0  0  0  0  0  0  0  0  0  0
   47.0090   33.7810   39.8080 C   0  0  0  0  0  0  0  0  0  0  0  0
   44.4720   36.1110   44.6130 C   0  0  0  0  0  0  0  0  0  0  0  0
   45.1890   35.9840   43.4180 C   0  0  0  0  0  0  0  0  0  0  0  0
   46.0670   34.9230   43.2000 C   0  0  0  0  0  0  0  0  0  0  0  0
   46.1730   34.0300   44.2270 N   0  0  0  0  0  0  0  0  0  0  0  0
   45.4830   34.1590   45.3680 C   0  0  0  0  0  0  0  0  0  0  0  0
   44.6330   35.1890   45.5750 N   0  0  0  0  0  0  0  0  0  0  0  0
   48.2050   34.6930   37.2680 Cl  0  0  0  0  0  0  0  0  0  0  0  0
   47.0710   33.3620   37.4980 C   0  0  0  0  0  0  0  0  0  0  0  0
   46.5200   32.9490   38.7140 C   0  0  0  0  0  0  0  0  0  0  0  0
   45.6520   31.8960   38.7290 C   0  0  0  0  0  0  0  0  0  0  0  0
   45.3330   31.2540   37.5480 C   0  0  0  0  0  0  0  0  0  0  0  0
   45.8510   31.6260   36.3350 C   0  0  0  0  0  0  0  0  0  0  0  0
   46.7330   32.6960   36.3170 C   0  0  0  0  0  0  0  0  0  0  0  0
   48.4827   35.9930   42.5210 H   0  0  0  0  0  0  0  0  0  0  0  0
   49.7198   35.6757   40.4435 H   0  0  0  0  0  0  0  0  0  0  0  0
   48.7805   34.2330   38.6440 H   0  0  0  0  0  0  0  0  0  0  0  0
   43.7845   36.9566   44.7622 H   0  0  0  0  0  0  0  0  0  0  0  0
   45.0566   36.7405   42.6305 H   0  0  0  0  0  0  0  0  0  0  0  0
   45.6119   33.4053   46.1587 H   0  0  0  0  0  0  0  0  0  0  0  0
   45.2081   31.5598   39.6776 H   0  0  0  0  0  0  0  0  0  0  0  0
   44.6323   30.4068   37.5829 H   0  0  0  0  0  0  0  0  0  0  0  0
   45.5776   31.0960   35.4107 H   0  0  0  0  0  0  0  0  0  0  0  0
   47.1712   33.0240   35.3628 H   0  0  0  0  0  0  0  0  0  0  0  0
  2  1  1  0
  2  3  2  0
  3 10  1  0
  4  3  1  0
  5  4  2  0
  6  7  2  0
  6  5  1  0
  7  2  1  0
  8 13  2  0
  9  8  1  0
 10  9  2  0
 10 11  1  0
 11 12  2  0
 12 13  1  0
 14 15  1  0
 15 16  2  0
 16 17  1  0
 16  7  1  0
 18 17  2  0
 19 18  1  0
 20 19  2  0
 20 15  1  0
  4 21  1  0
  5 22  1  0
  6 23  1  0
  8 24  1  0
  9 25  1  0
 12 26  1  0
 17 27  1  0
 18 28  1  0
 19 29  1  0
 20 30  1  0
M  ISO  8  21  14  22  14  23  14  24  14  25  14  26  14  27  14  28  14
M  ISO  2  29  14  30  14
M  END
>  <minimizedAffinity>  (1) 
-6.10344362

>  <minimizedRMSD>  (1) 
0.220093697

$$$$
