
     RDKit          3D

 30 32  0  0  0  0  0  0  0  0999 V2000
   44.7840   33.3280   41.1860 Cl  0  0  0  0  0  0  0  0  0  0  0  0
   46.3350   34.1240   41.0760 C   0  0  0  0  0  0  0  0  0  0  0  0
   46.8630   34.8160   42.1200 C   0  0  0  0  0  0  0  0  0  0  0  0
   48.0880   35.4070   41.9330 C   0  0  0  0  0  0  0  0  0  0  0  0
   48.7680   35.3200   40.7610 C   0  0  0  0  0  0  0  0  0  0  0  0
   48.2430   34.6240   39.7030 C   0  0  0  0  0  0  0  0  0  0  0  0
   47.0100   34.0250   39.8760 C   0  0  0  0  0  0  0  0  0  0  0  0
   44.4640   35.9260   44.8450 C   0  0  0  0  0  0  0  0  0  0  0  0
   45.1780   35.8970   43.6320 C   0  0  0  0  0  0  0  0  0  0  0  0
   46.1030   34.8860   43.3590 C   0  0  0  0  0  0  0  0  0  0  0  0
   46.2550   33.9490   44.3410 N   0  0  0  0  0  0  0  0  0  0  0  0
   45.5630   33.9950   45.4920 C   0  0  0  0  0  0  0  0  0  0  0  0
   44.6800   34.9660   45.7440 N   0  0  0  0  0  0  0  0  0  0  0  0
   46.4980   33.2960   38.7170 C   0  0  0  0  0  0  0  0  0  0  0  0
   45.2980   32.6210   38.6270 C   0  0  0  0  0  0  0  0  0  0  0  0
   44.9410   31.9730   37.4630 C   0  0  0  0  0  0  0  0  0  0  0  0
   45.7750   31.9910   36.3710 C   0  0  0  0  0  0  0  0  0  0  0  0
   46.9870   32.6510   36.4020 C   0  0  0  0  0  0  0  0  0  0  0  0
   47.3130   33.2890   37.5850 C   0  0  0  0  0  0  0  0  0  0  0  0
   48.5354   35.9722   42.7639 H   0  0  0  0  0  0  0  0  0  0  0  0
   49.7469   35.8114   40.6597 H   0  0  0  0  0  0  0  0  0  0  0  0
   48.7849   34.5451   38.7490 H   0  0  0  0  0  0  0  0  0  0  0  0
   43.7393   36.7283   45.0476 H   0  0  0  0  0  0  0  0  0  0  0  0
   45.0043   36.6854   42.8848 H   0  0  0  0  0  0  0  0  0  0  0  0
   45.7278   33.2123   46.2471 H   0  0  0  0  0  0  0  0  0  0  0  0
   44.6192   32.5995   39.4923 H   0  0  0  0  0  0  0  0  0  0  0  0
   43.9815   31.4378   37.4084 H   0  0  0  0  0  0  0  0  0  0  0  0
   45.4702   31.4682   35.4524 H   0  0  0  0  0  0  0  0  0  0  0  0
   47.6586   32.6686   35.5310 H   0  0  0  0  0  0  0  0  0  0  0  0
   48.2732   33.8233   37.6363 H   0  0  0  0  0  0  0  0  0  0  0  0
  2  1  1  0
  2  3  2  0
  3 10  1  0
  4  3  1  0
  5  4  2  0
  6  7  2  0
  6  5  1  0
  7  2  1  0
  8 13  2  0
  9  8  1  0
 10  9  2  0
 10 11  1  0
 11 12  2  0
 12 13  1  0
 14  7  1  0
 15 14  2  0
 16 15  1  0
 17 18  1  0
 17 16  2  0
 18 19  2  0
 19 14  1  0
  4 20  1  0
  5 21  1  0
  6 22  1  0
  8 23  1  0
  9 24  1  0
 12 25  1  0
 15 26  1  0
 16 27  1  0
 17 28  1  0
 18 29  1  0
 19 30  1  0
M  ISO  8  20  14  21  14  22  14  23  14  24  14  25  14  26  14  27  14
M  ISO  3  28  14  29  14  30  14
M  END
>  <minimizedAffinity>  (1) 
-5.77584267

>  <minimizedRMSD>  (1) 
0.206637934

$$$$
