
     RDKit          3D

 36 38  0  0  0  0  0  0  0  0999 V2000
   44.7480   33.2190   41.1350 Cl  0  0  0  0  0  0  0  0  0  0  0  0
   46.2880   34.0140   40.9710 C   0  0  0  0  0  0  0  0  0  0  0  0
   46.8180   34.7540   41.9780 C   0  0  0  0  0  0  0  0  0  0  0  0
   48.0470   35.3460   41.7440 C   0  0  0  0  0  0  0  0  0  0  0  0
   48.7190   35.2090   40.5630 C   0  0  0  0  0  0  0  0  0  0  0  0
   48.1700   34.4520   39.5450 C   0  0  0  0  0  0  0  0  0  0  0  0
   46.9520   33.8610   39.7660 C   0  0  0  0  0  0  0  0  0  0  0  0
   44.4830   36.0270   44.6730 C   0  0  0  0  0  0  0  0  0  0  0  0
   45.1940   35.9080   43.4790 C   0  0  0  0  0  0  0  0  0  0  0  0
   46.0790   34.8790   43.2180 C   0  0  0  0  0  0  0  0  0  0  0  0
   46.2200   33.9640   44.2240 N   0  0  0  0  0  0  0  0  0  0  0  0
   45.5410   34.0710   45.3750 C   0  0  0  0  0  0  0  0  0  0  0  0
   44.6780   35.0870   45.6100 N   0  0  0  0  0  0  0  0  0  0  0  0
   46.3560   33.0450   38.6720 C   0  0  0  0  0  0  0  0  0  0  0  0
   46.8270   31.6070   38.8180 C   0  0  0  0  0  0  0  0  0  0  0  0
   45.9520   30.7510   37.9690 C   0  0  0  0  0  0  0  0  0  0  0  0
   45.1700   31.5540   36.9760 C   0  0  0  0  0  0  0  0  0  0  0  0
   45.9420   32.6610   36.3210 C   0  0  0  0  0  0  0  0  0  0  0  0
   46.7260   33.5110   37.2990 C   0  0  0  0  0  0  0  0  0  0  0  0
   48.5011   35.9517   42.5420 H   0  0  0  0  0  0  0  0  0  0  0  0
   49.6936   35.6993   40.4224 H   0  0  0  0  0  0  0  0  0  0  0  0
   48.6943   34.3272   38.5861 H   0  0  0  0  0  0  0  0  0  0  0  0
   43.7869   36.8621   44.8404 H   0  0  0  0  0  0  0  0  0  0  0  0
   45.0423   36.6737   42.7040 H   0  0  0  0  0  0  0  0  0  0  0  0
   45.6900   33.3084   46.1537 H   0  0  0  0  0  0  0  0  0  0  0  0
   45.2649   33.1437   38.7711 H   0  0  0  0  0  0  0  0  0  0  0  0
   47.8717   31.5201   38.4849 H   0  0  0  0  0  0  0  0  0  0  0  0
   46.7699   31.2897   39.8697 H   0  0  0  0  0  0  0  0  0  0  0  0
   46.5807   30.0301   37.4257 H   0  0  0  0  0  0  0  0  0  0  0  0
   45.2363   30.2389   38.6290 H   0  0  0  0  0  0  0  0  0  0  0  0
   44.8126   30.8730   36.1895 H   0  0  0  0  0  0  0  0  0  0  0  0
   44.3534   32.0327   37.5363 H   0  0  0  0  0  0  0  0  0  0  0  0
   46.6469   32.2165   35.6030 H   0  0  0  0  0  0  0  0  0  0  0  0
   45.2101   33.3212   35.8326 H   0  0  0  0  0  0  0  0  0  0  0  0
   47.8056   33.3804   37.1331 H   0  0  0  0  0  0  0  0  0  0  0  0
   46.4930   34.5781   37.1688 H   0  0  0  0  0  0  0  0  0  0  0  0
  2  1  1  0
  2  3  2  0
  3 10  1  0
  4  3  1  0
  5  4  2  0
  6  7  2  0
  6  5  1  0
  7  2  1  0
  8 13  2  0
  9  8  1  0
 10  9  2  0
 10 11  1  0
 11 12  2  0
 12 13  1  0
 14 15  1  0
 14  7  1  0
 16 15  1  0
 17 16  1  0
 18 17  1  0
 18 19  1  0
 19 14  1  0
  4 20  1  0
  5 21  1  0
  6 22  1  0
  8 23  1  0
  9 24  1  0
 12 25  1  0
 14 26  1  0
 15 27  1  0
 15 28  1  0
 16 29  1  0
 16 30  1  0
 17 31  1  0
 17 32  1  0
 18 33  1  0
 18 34  1  0
 19 35  1  0
 19 36  1  0
M  ISO  8  20  14  21  14  22  14  23  14  24  14  25  14  26  13  27  13
M  ISO  8  28  13  29  13  30  13  31  13  32  13  33  13  34  13  35  13
M  ISO  1  36  13
M  END
>  <minimizedAffinity>  (1) 
-5.68237925

>  <minimizedRMSD>  (1) 
1.23156238

$$$$
