
     RDKit          3D

 28 30  0  0  0  0  0  0  0  0999 V2000
   44.9570   33.0310   41.1820 Cl  0  0  0  0  0  0  0  0  0  0  0  0
   46.4400   33.9430   40.9880 C   0  0  0  0  0  0  0  0  0  0  0  0
   46.9120   34.7600   41.9820 C   0  0  0  0  0  0  0  0  0  0  0  0
   48.0750   35.4330   41.7360 C   0  0  0  0  0  0  0  0  0  0  0  0
   48.7530   35.3160   40.5640 C   0  0  0  0  0  0  0  0  0  0  0  0
   48.2870   34.5060   39.5740 C   0  0  0  0  0  0  0  0  0  0  0  0
   47.1240   33.8250   39.8040 C   0  0  0  0  0  0  0  0  0  0  0  0
   44.4970   35.8910   44.6800 C   0  0  0  0  0  0  0  0  0  0  0  0
   45.2120   35.8330   43.4840 C   0  0  0  0  0  0  0  0  0  0  0  0
   46.1470   34.8500   43.2240 C   0  0  0  0  0  0  0  0  0  0  0  0
   46.3210   33.9370   44.2250 N   0  0  0  0  0  0  0  0  0  0  0  0
   45.6310   33.9980   45.3750 C   0  0  0  0  0  0  0  0  0  0  0  0
   44.7290   34.9600   45.6050 N   0  0  0  0  0  0  0  0  0  0  0  0
   46.5840   32.9450   38.7750 C   0  0  0  0  0  0  0  0  0  0  0  0
   46.9330   31.6270   38.5960 C   0  0  0  0  0  0  0  0  0  0  0  0
   46.4170   30.8070   37.6210 C   0  0  0  0  0  0  0  0  0  0  0  0
   45.4920   31.3400   36.7720 N   0  0  0  0  0  0  0  0  0  0  0  0
   45.1260   32.6280   36.9190 C   0  0  0  0  0  0  0  0  0  0  0  0
   45.6630   33.3780   37.8850 N   0  0  0  0  0  0  0  0  0  0  0  0
   48.4782   36.0950   42.5165 H   0  0  0  0  0  0  0  0  0  0  0  0
   49.6854   35.8801   40.4142 H   0  0  0  0  0  0  0  0  0  0  0  0
   48.8277   34.4030   38.6216 H   0  0  0  0  0  0  0  0  0  0  0  0
   43.7584   36.6870   44.8559 H   0  0  0  0  0  0  0  0  0  0  0  0
   45.0241   36.5998   42.7180 H   0  0  0  0  0  0  0  0  0  0  0  0
   45.8116   33.2373   46.1488 H   0  0  0  0  0  0  0  0  0  0  0  0
   47.6783   31.1983   39.2821 H   0  0  0  0  0  0  0  0  0  0  0  0
   46.7383   29.7590   37.5288 H   0  0  0  0  0  0  0  0  0  0  0  0
   44.3799   33.0650   36.2390 H   0  0  0  0  0  0  0  0  0  0  0  0
  2  1  1  0
  2  3  2  0
  3 10  1  0
  4  3  1  0
  5  4  2  0
  6  7  2  0
  6  5  1  0
  7  2  1  0
  8 13  2  0
  9  8  1  0
 10  9  2  0
 10 11  1  0
 11 12  2  0
 12 13  1  0
 14  7  1  0
 15 14  2  0
 16 15  1  0
 17 18  1  0
 17 16  2  0
 18 19  2  0
 19 14  1  0
  4 20  1  0
  5 21  1  0
  6 22  1  0
  8 23  1  0
  9 24  1  0
 12 25  1  0
 15 26  1  0
 16 27  1  0
 18 28  1  0
M  ISO  8  20  14  21  14  22  14  23  14  24  14  25  14  26  14  27  14
M  ISO  1  28  14
M  END
>  <minimizedAffinity>  (1) 
-5.45648623

>  <minimizedRMSD>  (1) 
0.442893714

$$$$
