
     RDKit          3D

 23 24  0  0  0  0  0  0  0  0999 V2000
   44.7300   33.2030   41.2640 Cl  0  0  0  0  0  0  0  0  0  0  0  0
   46.2700   34.0200   41.0940 C   0  0  0  0  0  0  0  0  0  0  0  0
   46.7970   34.7530   42.1050 C   0  0  0  0  0  0  0  0  0  0  0  0
   48.0070   35.3510   41.8670 C   0  0  0  0  0  0  0  0  0  0  0  0
   48.6700   35.2320   40.6850 C   0  0  0  0  0  0  0  0  0  0  0  0
   48.1390   34.4960   39.6700 C   0  0  0  0  0  0  0  0  0  0  0  0
   46.9150   33.8820   39.8890 C   0  0  0  0  0  0  0  0  0  0  0  0
   44.4590   35.9470   44.8440 C   0  0  0  0  0  0  0  0  0  0  0  0
   45.1530   35.8800   43.6260 C   0  0  0  0  0  0  0  0  0  0  0  0
   46.0570   34.8580   43.3560 C   0  0  0  0  0  0  0  0  0  0  0  0
   46.2210   33.9360   44.3480 N   0  0  0  0  0  0  0  0  0  0  0  0
   45.5480   34.0160   45.5120 C   0  0  0  0  0  0  0  0  0  0  0  0
   44.6770   35.0040   45.7640 N   0  0  0  0  0  0  0  0  0  0  0  0
   46.3380   33.0740   38.7680 C   0  0  0  0  0  0  0  0  0  0  0  0
   48.4621   35.9537   42.6668 H   0  0  0  0  0  0  0  0  0  0  0  0
   49.6398   35.7328   40.5486 H   0  0  0  0  0  0  0  0  0  0  0  0
   48.6633   34.3919   38.7086 H   0  0  0  0  0  0  0  0  0  0  0  0
   43.7471   36.7629   45.0376 H   0  0  0  0  0  0  0  0  0  0  0  0
   44.9776   36.6553   42.8657 H   0  0  0  0  0  0  0  0  0  0  0  0
   45.7182   33.2469   46.2798 H   0  0  0  0  0  0  0  0  0  0  0  0
   45.7455   32.2444   39.1811 H   0  0  0  0  0  0  0  0  0  0  0  0
   45.6914   33.7140   38.1497 H   0  0  0  0  0  0  0  0  0  0  0  0
   47.1532   32.6701   38.1497 H   0  0  0  0  0  0  0  0  0  0  0  0
  2  1  1  0
  2  3  2  0
  3 10  1  0
  4  3  1  0
  5  4  2  0
  6  7  2  0
  6  5  1  0
  7  2  1  0
  8 13  2  0
  9  8  1  0
 10  9  2  0
 10 11  1  0
 11 12  2  0
 12 13  1  0
 14  7  1  0
  4 15  1  0
  5 16  1  0
  6 17  1  0
  8 18  1  0
  9 19  1  0
 12 20  1  0
 14 21  1  0
 14 22  1  0
 14 23  1  0
M  ISO  8  15  14  16  14  17  14  18  14  19  14  20  14  21   8  22   8
M  ISO  1  23   8
M  END
>  <minimizedAffinity>  (1) 
-5.23893499

>  <minimizedRMSD>  (1) 
0.0489476807

$$$$
