
     RDKit          3D

 26 27  0  0  0  0  0  0  0  0999 V2000
   44.7670   33.1930   41.1910 Cl  0  0  0  0  0  0  0  0  0  0  0  0
   46.3030   34.0160   41.0140 C   0  0  0  0  0  0  0  0  0  0  0  0
   46.8310   34.7590   42.0320 C   0  0  0  0  0  0  0  0  0  0  0  0
   48.0450   35.3620   41.7890 C   0  0  0  0  0  0  0  0  0  0  0  0
   48.7050   35.2410   40.6050 C   0  0  0  0  0  0  0  0  0  0  0  0
   48.1650   34.4910   39.5890 C   0  0  0  0  0  0  0  0  0  0  0  0
   46.9560   33.8810   39.8100 C   0  0  0  0  0  0  0  0  0  0  0  0
   44.4800   35.9550   44.7420 C   0  0  0  0  0  0  0  0  0  0  0  0
   45.1770   35.8820   43.5380 C   0  0  0  0  0  0  0  0  0  0  0  0
   46.0880   34.8620   43.2840 C   0  0  0  0  0  0  0  0  0  0  0  0
   46.2590   33.9440   44.2700 N   0  0  0  0  0  0  0  0  0  0  0  0
   45.5800   34.0270   45.4270 C   0  0  0  0  0  0  0  0  0  0  0  0
   44.6950   35.0180   45.6750 N   0  0  0  0  0  0  0  0  0  0  0  0
   46.3540   33.0610   38.7180 C   0  0  0  0  0  0  0  0  0  0  0  0
   46.8670   33.4000   37.3510 C   0  0  0  0  0  0  0  0  0  0  0  0
   48.5009   35.9675   42.5862 H   0  0  0  0  0  0  0  0  0  0  0  0
   49.6724   35.7446   40.4615 H   0  0  0  0  0  0  0  0  0  0  0  0
   48.6864   34.3826   38.6265 H   0  0  0  0  0  0  0  0  0  0  0  0
   43.7638   36.7699   44.9239 H   0  0  0  0  0  0  0  0  0  0  0  0
   45.0027   36.6496   42.7696 H   0  0  0  0  0  0  0  0  0  0  0  0
   45.7505   33.2619   46.1988 H   0  0  0  0  0  0  0  0  0  0  0  0
   46.5747   32.0021   38.9181 H   0  0  0  0  0  0  0  0  0  0  0  0
   45.2749   33.2743   38.7162 H   0  0  0  0  0  0  0  0  0  0  0  0
   47.7816   34.0044   37.4420 H   0  0  0  0  0  0  0  0  0  0  0  0
   47.0931   32.4729   36.8039 H   0  0  0  0  0  0  0  0  0  0  0  0
   46.1028   33.9715   36.8039 H   0  0  0  0  0  0  0  0  0  0  0  0
  2  1  1  0
  2  3  2  0
  3 10  1  0
  4  3  1  0
  5  4  2  0
  6  7  2  0
  6  5  1  0
  7  2  1  0
  8 13  2  0
  9  8  1  0
 10  9  2  0
 10 11  1  0
 11 12  2  0
 12 13  1  0
 14  7  1  0
 15 14  1  0
  4 16  1  0
  5 17  1  0
  6 18  1  0
  8 19  1  0
  9 20  1  0
 12 21  1  0
 14 22  1  0
 14 23  1  0
 15 24  1  0
 15 25  1  0
 15 26  1  0
M  ISO  8  16  14  17  14  18  14  19  14  20  14  21  14  22   8  23   8
M  ISO  3  24   8  25   8  26   8
M  END
>  <minimizedAffinity>  (1) 
-5.22456264

>  <minimizedRMSD>  (1) 
0.166168585

$$$$
