
     RDKit          3D

 21 22  0  0  0  0  0  0  0  0999 V2000
   44.7220   33.1930   41.2280 Cl  0  0  0  0  0  0  0  0  0  0  0  0
   46.2640   34.0070   41.0510 C   0  0  0  0  0  0  0  0  0  0  0  0
   46.7940   34.7420   42.0610 C   0  0  0  0  0  0  0  0  0  0  0  0
   48.0090   35.3370   41.8130 C   0  0  0  0  0  0  0  0  0  0  0  0
   48.6650   35.2120   40.6290 C   0  0  0  0  0  0  0  0  0  0  0  0
   48.1270   34.4720   39.6190 C   0  0  0  0  0  0  0  0  0  0  0  0
   46.9030   33.8590   39.8390 C   0  0  0  0  0  0  0  0  0  0  0  0
   44.4720   35.9710   44.7820 C   0  0  0  0  0  0  0  0  0  0  0  0
   45.1640   35.8840   43.5720 C   0  0  0  0  0  0  0  0  0  0  0  0
   46.0650   34.8520   43.3100 C   0  0  0  0  0  0  0  0  0  0  0  0
   46.2140   33.9520   44.3050 N   0  0  0  0  0  0  0  0  0  0  0  0
   45.5510   34.0310   45.4690 C   0  0  0  0  0  0  0  0  0  0  0  0
   44.6780   35.0360   45.7170 N   0  0  0  0  0  0  0  0  0  0  0  0
   46.3440   33.1020   38.8170 O   0  0  0  0  0  0  0  0  0  0  0  0
   48.4704   35.9409   42.6082 H   0  0  0  0  0  0  0  0  0  0  0  0
   49.6349   35.7106   40.4854 H   0  0  0  0  0  0  0  0  0  0  0  0
   48.6489   34.3641   38.6567 H   0  0  0  0  0  0  0  0  0  0  0  0
   43.7678   36.7962   44.9639 H   0  0  0  0  0  0  0  0  0  0  0  0
   44.9935   36.6519   42.8031 H   0  0  0  0  0  0  0  0  0  0  0  0
   45.7203   33.2630   46.2381 H   0  0  0  0  0  0  0  0  0  0  0  0
   45.4708   32.6555   38.9524 H   0  0  0  0  0  0  0  0  0  0  0  0
  2  1  1  0
  2  3  2  0
  3 10  1  0
  4  3  1  0
  5  4  2  0
  6  7  2  0
  6  5  1  0
  7  2  1  0
  8 13  2  0
  9  8  1  0
 10  9  2  0
 10 11  1  0
 11 12  2  0
 12 13  1  0
 14  7  1  0
  4 15  1  0
  5 16  1  0
  6 17  1  0
  8 18  1  0
  9 19  1  0
 12 20  1  0
 14 21  1  0
M  ISO  7  15  14  16  14  17  14  18  14  19  14  20  14  21   3
M  END
>  <minimizedAffinity>  (1) 
-5.16154003

>  <minimizedRMSD>  (1) 
0.00749347964

$$$$
