
     RDKit          3D

 22 23  0  0  0  0  0  0  0  0999 V2000
   44.7400   33.1490   41.2900 Cl  0  0  0  0  0  0  0  0  0  0  0  0
   46.2720   33.9860   41.1050 C   0  0  0  0  0  0  0  0  0  0  0  0
   46.7940   34.7350   42.1180 C   0  0  0  0  0  0  0  0  0  0  0  0
   47.9920   35.3400   41.8580 C   0  0  0  0  0  0  0  0  0  0  0  0
   48.6570   35.2280   40.6740 C   0  0  0  0  0  0  0  0  0  0  0  0
   48.1220   34.4700   39.6620 C   0  0  0  0  0  0  0  0  0  0  0  0
   46.9180   33.8520   39.8970 C   0  0  0  0  0  0  0  0  0  0  0  0
   44.4570   35.9560   44.8340 C   0  0  0  0  0  0  0  0  0  0  0  0
   45.1580   35.8630   43.6280 C   0  0  0  0  0  0  0  0  0  0  0  0
   46.0660   34.8370   43.3640 C   0  0  0  0  0  0  0  0  0  0  0  0
   46.2290   33.9170   44.3600 N   0  0  0  0  0  0  0  0  0  0  0  0
   45.5450   34.0190   45.5220 C   0  0  0  0  0  0  0  0  0  0  0  0
   44.6740   35.0160   45.7610 N   0  0  0  0  0  0  0  0  0  0  0  0
   46.3390   33.0530   38.8480 N   0  0  0  0  0  0  0  0  0  0  0  0
   48.4456   35.9530   42.6508 H   0  0  0  0  0  0  0  0  0  0  0  0
   49.6184   35.7427   40.5296 H   0  0  0  0  0  0  0  0  0  0  0  0
   48.6392   34.3614   38.6972 H   0  0  0  0  0  0  0  0  0  0  0  0
   43.7482   36.7774   45.0153 H   0  0  0  0  0  0  0  0  0  0  0  0
   44.9870   36.6287   42.8570 H   0  0  0  0  0  0  0  0  0  0  0  0
   45.7067   33.2588   46.3004 H   0  0  0  0  0  0  0  0  0  0  0  0
   45.4370   32.5794   38.9996 H   0  0  0  0  0  0  0  0  0  0  0  0
   46.8269   32.9551   37.9462 H   0  0  0  0  0  0  0  0  0  0  0  0
  2  1  1  0
  2  3  2  0
  3 10  1  0
  4  3  1  0
  5  4  2  0
  6  7  2  0
  6  5  1  0
  7  2  1  0
  8 13  2  0
  9  8  1  0
 10  9  2  0
 10 11  1  0
 11 12  2  0
 12 13  1  0
 14  7  1  0
  4 15  1  0
  5 16  1  0
  6 17  1  0
  8 18  1  0
  9 19  1  0
 12 20  1  0
 14 21  1  0
 14 22  1  0
M  ISO  6  15  14  16  14  17  14  18  14  19  14  20  14
M  END
>  <minimizedAffinity>  (1) 
-5.14595556

>  <minimizedRMSD>  (1) 
0.0557565801

$$$$
