
     RDKit          3D

 34 36  0  0  0  0  0  0  0  0999 V2000
   44.5940   33.2040   41.4080 Cl  0  0  0  0  0  0  0  0  0  0  0  0
   46.1490   33.9850   41.2250 C   0  0  0  0  0  0  0  0  0  0  0  0
   46.7090   34.7420   42.2040 C   0  0  0  0  0  0  0  0  0  0  0  0
   47.9270   35.2930   41.9280 C   0  0  0  0  0  0  0  0  0  0  0  0
   48.5770   35.1240   40.7620 C   0  0  0  0  0  0  0  0  0  0  0  0
   48.0190   34.3650   39.7750 C   0  0  0  0  0  0  0  0  0  0  0  0
   46.7760   33.7820   40.0110 C   0  0  0  0  0  0  0  0  0  0  0  0
   44.4190   36.0790   44.9100 C   0  0  0  0  0  0  0  0  0  0  0  0
   45.1160   35.9430   43.7050 C   0  0  0  0  0  0  0  0  0  0  0  0
   45.9800   34.9000   43.4440 C   0  0  0  0  0  0  0  0  0  0  0  0
   46.1040   33.9990   44.4670 N   0  0  0  0  0  0  0  0  0  0  0  0
   45.4360   34.1280   45.6250 C   0  0  0  0  0  0  0  0  0  0  0  0
   44.6120   35.1390   45.8500 N   0  0  0  0  0  0  0  0  0  0  0  0
   46.1580   32.9510   38.9380 C   0  0  0  0  0  0  0  0  0  0  0  0
   45.5330   31.7250   39.2140 C   0  0  0  0  0  0  0  0  0  0  0  0
   44.9870   31.1900   37.5620 S   0  0  0  0  0  0  0  0  0  0  0  0
   45.7090   32.7430   36.7640 C   0  0  0  0  0  0  0  0  0  0  0  0
   46.1140   33.2270   37.6820 N   0  0  0  0  0  0  0  0  0  0  0  0
   45.5630   32.8760   35.3470 N   0  0  0  0  0  0  0  0  0  0  0  0
   46.1810   31.7800   34.1930 S   0  0  0  0  0  0  0  0  0  0  0  0
   47.0670   30.7810   34.9240 O   0  0  0  0  0  0  0  0  0  0  0  0
   47.0970   32.4750   33.2090 O   0  0  0  0  0  0  0  0  0  0  0  0
   45.0010   31.0220   33.2880 O   0  0  0  0  0  0  0  0  0  0  0  0
   48.4045   35.9105   42.7031 H   0  0  0  0  0  0  0  0  0  0  0  0
   49.5574   35.5974   40.6047 H   0  0  0  0  0  0  0  0  0  0  0  0
   48.5379   34.2171   38.8164 H   0  0  0  0  0  0  0  0  0  0  0  0
   43.7374   36.9251   45.0817 H   0  0  0  0  0  0  0  0  0  0  0  0
   44.9677   36.7060   42.9266 H   0  0  0  0  0  0  0  0  0  0  0  0
   45.5780   33.3706   46.4100 H   0  0  0  0  0  0  0  0  0  0  0  0
   45.4056   31.2172   40.1814 H   0  0  0  0  0  0  0  0  0  0  0  0
   45.0459   33.6950   34.9965 H   0  0  0  0  0  0  0  0  0  0  0  0
   46.9617   30.8998   35.9012 H   0  0  0  0  0  0  0  0  0  0  0  0
   47.7802   32.9934   33.7036 H   0  0  0  0  0  0  0  0  0  0  0  0
   44.3419   30.5986   33.8934 H   0  0  0  0  0  0  0  0  0  0  0  0
  2  1  1  0
  2  3  2  0
  3 10  1  0
  4  3  1  0
  5  4  2  0
  6  7  2  0
  6  5  1  0
  7  2  1  0
  8 13  2  0
  9  8  1  0
 10  9  2  0
 10 11  1  0
 11 12  2  0
 12 13  1  0
 14 15  2  0
 14  7  1  0
 16 15  1  0
 17 16  1  0
 17 18  2  0
 18 14  1  0
 19 17  1  0
 20 21  1  0
 20 19  1  0
 22 20  1  0
 23 20  1  0
  4 24  1  0
  5 25  1  0
  6 26  1  0
  8 27  1  0
  9 28  1  0
 12 29  1  0
 15 30  1  0
 19 31  1  0
 21 32  1  0
 22 33  1  0
 23 34  1  0
M  ISO  8  24  14  25  14  26  14  27  14  28  14  29  14  30  14  32   3
M  ISO  2  33   3  34   3
M  END
>  <minimizedAffinity>  (1) 
-6.38933516

>  <minimizedRMSD>  (1) 
1.00626862

$$$$
