
     RDKit          3D

 42 45  0  0  0  0  0  0  0  0999 V2000
   45.1160   33.1630   41.1240 Cl  0  0  0  0  0  0  0  0  0  0  0  0
   46.5840   34.1050   41.0460 C   0  0  0  0  0  0  0  0  0  0  0  0
   47.0350   34.8320   42.1030 C   0  0  0  0  0  0  0  0  0  0  0  0
   48.1980   35.5290   41.9170 C   0  0  0  0  0  0  0  0  0  0  0  0
   48.8870   35.5150   40.7570 C   0  0  0  0  0  0  0  0  0  0  0  0
   48.4350   34.7860   39.6930 C   0  0  0  0  0  0  0  0  0  0  0  0
   47.2620   34.0690   39.8450 C   0  0  0  0  0  0  0  0  0  0  0  0
   44.5290   35.7000   44.8100 C   0  0  0  0  0  0  0  0  0  0  0  0
   45.2630   35.7370   43.6210 C   0  0  0  0  0  0  0  0  0  0  0  0
   46.2610   34.8140   43.3290 C   0  0  0  0  0  0  0  0  0  0  0  0
   46.4650   33.8750   44.2920 N   0  0  0  0  0  0  0  0  0  0  0  0
   45.7640   33.8350   45.4340 C   0  0  0  0  0  0  0  0  0  0  0  0
   44.8050   34.7400   45.6910 N   0  0  0  0  0  0  0  0  0  0  0  0
   46.7540   33.2700   38.7020 C   0  0  0  0  0  0  0  0  0  0  0  0
   45.3780   33.0170   38.5180 C   0  0  0  0  0  0  0  0  0  0  0  0
   45.3340   32.0170   37.0000 S   0  0  0  0  0  0  0  0  0  0  0  0
   47.2300   32.1050   36.8570 C   0  0  0  0  0  0  0  0  0  0  0  0
   47.4450   32.7190   37.7610 N   0  0  0  0  0  0  0  0  0  0  0  0
   48.0160   31.4530   35.7500 C   0  0  0  0  0  0  0  0  0  0  0  0
   48.5160   32.5000   34.7710 C   0  0  0  0  0  0  0  0  0  0  0  0
   49.1650   31.7650   33.6280 C   0  0  0  0  0  0  0  0  0  0  0  0
   48.1460   30.9530   32.8430 C   0  0  0  0  0  0  0  0  0  0  0  0
   46.8430   31.0060   33.5970 C   0  0  0  0  0  0  0  0  0  0  0  0
   47.1150   30.5120   35.0070 C   0  0  0  0  0  0  0  0  0  0  0  0
   48.5893   36.1286   42.7521 H   0  0  0  0  0  0  0  0  0  0  0  0
   49.8181   36.0938   40.6671 H   0  0  0  0  0  0  0  0  0  0  0  0
   48.9885   34.7699   38.7425 H   0  0  0  0  0  0  0  0  0  0  0  0
   43.7444   36.4439   45.0127 H   0  0  0  0  0  0  0  0  0  0  0  0
   45.0425   36.5269   42.8879 H   0  0  0  0  0  0  0  0  0  0  0  0
   45.9775   33.0484   46.1726 H   0  0  0  0  0  0  0  0  0  0  0  0
   44.5345   33.3458   39.1429 H   0  0  0  0  0  0  0  0  0  0  0  0
   48.8722   30.9186   36.1874 H   0  0  0  0  0  0  0  0  0  0  0  0
   47.6738   33.1036   34.4016 H   0  0  0  0  0  0  0  0  0  0  0  0
   49.2325   33.1788   35.2566 H   0  0  0  0  0  0  0  0  0  0  0  0
   49.6369   32.4953   32.9543 H   0  0  0  0  0  0  0  0  0  0  0  0
   49.9153   31.0746   34.0407 H   0  0  0  0  0  0  0  0  0  0  0  0
   48.4856   29.9105   32.7537 H   0  0  0  0  0  0  0  0  0  0  0  0
   48.0230   31.3632   31.8298 H   0  0  0  0  0  0  0  0  0  0  0  0
   46.4672   32.0394   33.6264 H   0  0  0  0  0  0  0  0  0  0  0  0
   46.0836   30.3801   33.1055 H   0  0  0  0  0  0  0  0  0  0  0  0
   46.1607   30.4279   35.5475 H   0  0  0  0  0  0  0  0  0  0  0  0
   47.6130   29.5334   34.9419 H   0  0  0  0  0  0  0  0  0  0  0  0
  2  1  1  0
  2  3  2  0
  3 10  1  0
  4  3  1  0
  5  4  2  0
  6  7  2  0
  6  5  1  0
  7  2  1  0
  8 13  2  0
  9  8  1  0
 10  9  2  0
 10 11  1  0
 11 12  2  0
 12 13  1  0
 14  7  1  0
 15 14  2  0
 16 15  1  0
 17 16  1  0
 17 18  2  0
 18 14  1  0
 19 17  1  0
 20 19  1  0
 21 20  1  0
 22 23  1  0
 22 21  1  0
 23 24  1  0
 24 19  1  0
  4 25  1  0
  5 26  1  0
  6 27  1  0
  8 28  1  0
  9 29  1  0
 12 30  1  0
 15 31  1  0
 19 32  1  0
 20 33  1  0
 20 34  1  0
 21 35  1  0
 21 36  1  0
 22 37  1  0
 22 38  1  0
 23 39  1  0
 23 40  1  0
 24 41  1  0
 24 42  1  0
M  ISO  8  25  14  26  14  27  14  28  14  29  14  30  14  31  14  32  13
M  ISO  8  33  13  34  13  35  13  36  13  37  13  38  13  39  13  40  13
M  ISO  2  41  13  42  13
M  END
>  <minimizedAffinity>  (1) 
-6.27845001

>  <minimizedRMSD>  (1) 
2.41408134

$$$$
