
     RDKit          3D

 27 29  0  0  0  0  0  0  0  0999 V2000
   45.0190   33.0710   41.1420 Cl  0  0  0  0  0  0  0  0  0  0  0  0
   46.4980   33.9960   41.0000 C   0  0  0  0  0  0  0  0  0  0  0  0
   46.9450   34.8050   41.9970 C   0  0  0  0  0  0  0  0  0  0  0  0
   48.1170   35.4710   41.7520 C   0  0  0  0  0  0  0  0  0  0  0  0
   48.8100   35.3560   40.6070 C   0  0  0  0  0  0  0  0  0  0  0  0
   48.3660   34.5430   39.6010 C   0  0  0  0  0  0  0  0  0  0  0  0
   47.1800   33.8540   39.8180 C   0  0  0  0  0  0  0  0  0  0  0  0
   44.4700   35.9530   44.6260 C   0  0  0  0  0  0  0  0  0  0  0  0
   45.2170   35.8910   43.4380 C   0  0  0  0  0  0  0  0  0  0  0  0
   46.1590   34.8940   43.2120 C   0  0  0  0  0  0  0  0  0  0  0  0
   46.3020   33.9850   44.2260 N   0  0  0  0  0  0  0  0  0  0  0  0
   45.5750   34.0640   45.3560 C   0  0  0  0  0  0  0  0  0  0  0  0
   44.6790   35.0200   45.5620 N   0  0  0  0  0  0  0  0  0  0  0  0
   46.6780   32.9650   38.7390 C   0  0  0  0  0  0  0  0  0  0  0  0
   46.7970   31.5600   38.7900 C   0  0  0  0  0  0  0  0  0  0  0  0
   46.0390   30.9960   37.2570 S   0  0  0  0  0  0  0  0  0  0  0  0
   45.6590   32.8020   36.7510 C   0  0  0  0  0  0  0  0  0  0  0  0
   46.0880   33.3050   37.6430 N   0  0  0  0  0  0  0  0  0  0  0  0
   45.0210   33.2280   35.5730 O   0  0  0  0  0  0  0  0  0  0  0  0
   48.5116   36.1354   42.5348 H   0  0  0  0  0  0  0  0  0  0  0  0
   49.7444   35.9217   40.4772 H   0  0  0  0  0  0  0  0  0  0  0  0
   48.9249   34.4392   38.6593 H   0  0  0  0  0  0  0  0  0  0  0  0
   43.7295   36.7511   44.7833 H   0  0  0  0  0  0  0  0  0  0  0  0
   45.0516   36.6542   42.6633 H   0  0  0  0  0  0  0  0  0  0  0  0
   45.7299   33.3067   46.1386 H   0  0  0  0  0  0  0  0  0  0  0  0
   47.2495   30.9487   39.5847 H   0  0  0  0  0  0  0  0  0  0  0  0
   44.8741   34.1935   35.4110 H   0  0  0  0  0  0  0  0  0  0  0  0
  2  1  1  0
  2  3  2  0
  3 10  1  0
  4  3  1  0
  5  4  2  0
  6  7  2  0
  6  5  1  0
  7  2  1  0
  8 13  2  0
  9  8  1  0
 10  9  2  0
 10 11  1  0
 11 12  2  0
 12 13  1  0
 14 15  2  0
 14  7  1  0
 16 15  1  0
 17 16  1  0
 17 18  2  0
 18 14  1  0
 19 17  1  0
  4 20  1  0
  5 21  1  0
  6 22  1  0
  8 23  1  0
  9 24  1  0
 12 25  1  0
 15 26  1  0
 19 27  1  0
M  ISO  8  20  14  21  14  22  14  23  14  24  14  25  14  26  14  27   3
M  END
>  <minimizedAffinity>  (1) 
-6.03973627

>  <minimizedRMSD>  (1) 
0.222698256

$$$$
