
     RDKit          3D

 29 31  0  0  0  0  0  0  0  0999 V2000
   44.4780   32.5020   43.0030 Cl  0  0  0  0  0  0  0  0  0  0  0  0
   45.9280   33.4200   42.6680 C   0  0  0  0  0  0  0  0  0  0  0  0
   46.9510   33.5030   43.5590 C   0  0  0  0  0  0  0  0  0  0  0  0
   48.0330   34.2520   43.1800 C   0  0  0  0  0  0  0  0  0  0  0  0
   48.1160   34.8880   41.9920 C   0  0  0  0  0  0  0  0  0  0  0  0
   47.0860   34.8050   41.0950 C   0  0  0  0  0  0  0  0  0  0  0  0
   45.9770   34.0580   41.4420 C   0  0  0  0  0  0  0  0  0  0  0  0
   46.0790   32.6580   47.1540 C   0  0  0  0  0  0  0  0  0  0  0  0
   46.2000   33.3510   45.9330 C   0  0  0  0  0  0  0  0  0  0  0  0
   46.8190   32.8040   44.8190 C   0  0  0  0  0  0  0  0  0  0  0  0
   47.3060   31.5370   44.9930 N   0  0  0  0  0  0  0  0  0  0  0  0
   47.1860   30.8820   46.1640 C   0  0  0  0  0  0  0  0  0  0  0  0
   46.5870   31.4260   47.2250 N   0  0  0  0  0  0  0  0  0  0  0  0
   44.8490   33.9560   40.4810 C   0  0  0  0  0  0  0  0  0  0  0  0
   44.8990   33.1180   39.3470 C   0  0  0  0  0  0  0  0  0  0  0  0
   43.2850   33.3870   38.5510 S   0  0  0  0  0  0  0  0  0  0  0  0
   42.7950   34.6120   39.9080 C   0  0  0  0  0  0  0  0  0  0  0  0
   43.7200   34.5770   40.5300 N   0  0  0  0  0  0  0  0  0  0  0  0
   41.4660   35.3410   39.9610 C   0  0  0  0  0  0  0  0  0  0  0  0
   41.2400   36.0420   38.8050 F   0  0  0  0  0  0  0  0  0  0  0  0
   40.4470   34.4040   40.1060 F   0  0  0  0  0  0  0  0  0  0  0  0
   41.4140   36.1430   41.0810 F   0  0  0  0  0  0  0  0  0  0  0  0
   48.8776   34.3399   43.8792 H   0  0  0  0  0  0  0  0  0  0  0  0
   49.0134   35.4741   41.7447 H   0  0  0  0  0  0  0  0  0  0  0  0
   47.1396   35.3191   40.1240 H   0  0  0  0  0  0  0  0  0  0  0  0
   45.5818   33.1178   48.0208 H   0  0  0  0  0  0  0  0  0  0  0  0
   45.7864   34.3677   45.8605 H   0  0  0  0  0  0  0  0  0  0  0  0
   47.5955   29.8646   46.2484 H   0  0  0  0  0  0  0  0  0  0  0  0
   45.7179   32.4595   39.0218 H   0  0  0  0  0  0  0  0  0  0  0  0
  2  1  1  0
  2  3  2  0
  3 10  1  0
  4  3  1  0
  5  4  2  0
  6  7  2  0
  6  5  1  0
  7  2  1  0
  8 13  2  0
  9  8  1  0
 10 11  1  0
 10  9  2  0
 11 12  2  0
 12 13  1  0
 14 18  1  0
 14  7  1  0
 15 14  2  0
 16 15  1  0
 16 17  1  0
 17 19  1  0
 17 18  2  0
 19 21  1  0
 19 22  1  0
 20 19  1  0
  4 23  1  0
  5 24  1  0
  6 25  1  0
  8 26  1  0
  9 27  1  0
 12 28  1  0
 15 29  1  0
M  ISO  7  23  14  24  14  25  14  26  14  27  14  28  14  29  14
M  END
>  <minimizedAffinity>  (1) 
-5.45578194

>  <minimizedRMSD>  (1) 
3.73221135

$$$$
