
     RDKit          3D

 27 29  0  0  0  0  0  0  0  0999 V2000
   45.3760   32.6390   41.4660 Cl  0  0  0  0  0  0  0  0  0  0  0  0
   46.6880   33.7630   41.2120 C   0  0  0  0  0  0  0  0  0  0  0  0
   46.9900   34.7370   42.1110 C   0  0  0  0  0  0  0  0  0  0  0  0
   48.0420   35.5500   41.7900 C   0  0  0  0  0  0  0  0  0  0  0  0
   48.7610   35.4270   40.6600 C   0  0  0  0  0  0  0  0  0  0  0  0
   48.4580   34.4500   39.7560 C   0  0  0  0  0  0  0  0  0  0  0  0
   47.4050   33.6100   40.0440 C   0  0  0  0  0  0  0  0  0  0  0  0
   44.4550   35.8980   44.6770 C   0  0  0  0  0  0  0  0  0  0  0  0
   45.2170   35.8200   43.5080 C   0  0  0  0  0  0  0  0  0  0  0  0
   46.1900   34.8360   43.3160 C   0  0  0  0  0  0  0  0  0  0  0  0
   46.3410   33.9610   44.3490 N   0  0  0  0  0  0  0  0  0  0  0  0
   45.5970   34.0550   45.4670 C   0  0  0  0  0  0  0  0  0  0  0  0
   44.6720   35.0010   45.6350 N   0  0  0  0  0  0  0  0  0  0  0  0
   47.0580   32.5340   39.0670 C   0  0  0  0  0  0  0  0  0  0  0  0
   47.3250   31.1750   39.3260 C   0  0  0  0  0  0  0  0  0  0  0  0
   46.7190   30.3320   37.8460 S   0  0  0  0  0  0  0  0  0  0  0  0
   46.1870   31.9830   37.0890 C   0  0  0  0  0  0  0  0  0  0  0  0
   46.5010   32.6770   37.9130 N   0  0  0  0  0  0  0  0  0  0  0  0
   45.3850   32.3100   35.4580 S   0  0  0  0  0  0  0  0  0  0  0  0
   48.3152   36.3488   42.4952 H   0  0  0  0  0  0  0  0  0  0  0  0
   49.5958   36.1158   40.4636 H   0  0  0  0  0  0  0  0  0  0  0  0
   49.0363   34.3371   38.8271 H   0  0  0  0  0  0  0  0  0  0  0  0
   43.6940   36.6824   44.8019 H   0  0  0  0  0  0  0  0  0  0  0  0
   45.0447   36.5589   42.7116 H   0  0  0  0  0  0  0  0  0  0  0  0
   45.7581   33.3237   46.2727 H   0  0  0  0  0  0  0  0  0  0  0  0
   47.7918   30.7317   40.2179 H   0  0  0  0  0  0  0  0  0  0  0  0
   44.1303   32.8216   35.6605 H   0  0  0  0  0  0  0  0  0  0  0  0
  2  1  1  0
  2  3  2  0
  3 10  1  0
  4  3  1  0
  5  4  2  0
  6  7  2  0
  6  5  1  0
  7  2  1  0
  8 13  2  0
  9  8  1  0
 10  9  2  0
 10 11  1  0
 11 12  2  0
 12 13  1  0
 14 15  2  0
 14  7  1  0
 16 15  1  0
 17 16  1  0
 17 18  2  0
 18 14  1  0
 19 17  1  0
  4 20  1  0
  5 21  1  0
  6 22  1  0
  8 23  1  0
  9 24  1  0
 12 25  1  0
 15 26  1  0
 19 27  1  0
M  ISO  8  20  14  21  14  22  14  23  14  24  14  25  14  26  14  27  11
M  END
>  <minimizedAffinity>  (1) 
-5.1587081

>  <minimizedRMSD>  (1) 
0.70907855

$$$$
