
     RDKit          3D

 27 28  0  0  0  0  0  0  0  0999 V2000
   44.5200   35.9550   44.5790 C   0  0  0  0  0  0  0  0  0  0  0  0
   45.2270   35.8400   43.3490 C   0  0  0  0  0  0  0  0  0  0  0  0
   46.1340   34.7840   43.2580 C   0  0  0  0  0  0  0  0  0  0  0  0
   46.2940   33.9350   44.3200 N   0  0  0  0  0  0  0  0  0  0  0  0
   45.5870   34.1000   45.4670 C   0  0  0  0  0  0  0  0  0  0  0  0
   44.7100   35.0960   45.6000 N   0  0  0  0  0  0  0  0  0  0  0  0
   45.8390   33.1560   46.5010 N   0  0  0  0  0  0  0  0  0  0  0  0
   44.9090   33.0620   47.6110 C   0  0  0  0  0  0  0  0  0  0  0  0
   45.3920   32.0910   48.6440 C   0  0  0  0  0  0  0  0  0  0  0  0
   46.7700   32.4130   48.9280 N   0  0  0  0  0  0  0  0  0  0  0  0
   47.6250   32.0640   47.8150 C   0  0  0  0  0  0  0  0  0  0  0  0
   47.0090   32.2840   46.4710 C   0  0  0  0  0  0  0  0  0  0  0  0
   46.8520   34.6840   41.9810 C   0  0  0  0  0  0  0  0  0  0  0  0
   47.6210   33.5250   41.9920 F   0  0  0  0  0  0  0  0  0  0  0  0
   47.7720   35.7330   41.9690 F   0  0  0  0  0  0  0  0  0  0  0  0
   46.0400   34.6570   40.9000 F   0  0  0  0  0  0  0  0  0  0  0  0
   43.7941   36.7725   44.7003 H   0  0  0  0  0  0  0  0  0  0  0  0
   45.0674   36.5431   42.5183 H   0  0  0  0  0  0  0  0  0  0  0  0
   44.8019   34.0541   48.0739 H   0  0  0  0  0  0  0  0  0  0  0  0
   43.9422   32.7066   47.2251 H   0  0  0  0  0  0  0  0  0  0  0  0
   44.7880   32.1837   49.5587 H   0  0  0  0  0  0  0  0  0  0  0  0
   45.3021   31.0576   48.2779 H   0  0  0  0  0  0  0  0  0  0  0  0
   46.8490   33.4239   49.1091 H   0  0  0  0  0  0  0  0  0  0  0  0
   48.5386   32.6733   47.8787 H   0  0  0  0  0  0  0  0  0  0  0  0
   47.8228   30.9850   47.8971 H   0  0  0  0  0  0  0  0  0  0  0  0
   46.7054   31.3084   46.0635 H   0  0  0  0  0  0  0  0  0  0  0  0
   47.7660   32.7807   45.8462 H   0  0  0  0  0  0  0  0  0  0  0  0
  1  6  2  0
  2  1  1  0
  3  2  2  0
  3  4  1  0
  4  5  2  0
  5  6  1  0
  5  7  1  0
  7  8  1  0
  8  9  1  0
  9 10  1  0
 11 10  1  0
 12  7  1  0
 12 11  1  0
 13 14  1  0
 13  3  1  0
 15 13  1  0
 16 13  1  0
  1 17  1  0
  2 18  1  0
  8 19  1  0
  8 20  1  0
  9 21  1  0
  9 22  1  0
 10 23  1  0
 11 24  1  0
 11 25  1  0
 12 26  1  0
 12 27  1  0
M  ISO  8  17  14  18  14  19  13  20  13  21  13  22  13  23   5  24  13
M  ISO  3  25  13  26  13  27  13
M  END
>  <minimizedAffinity>  (1) 
-5.49750757

>  <minimizedRMSD>  (1) 
0.228426874

$$$$
