
     RDKit          3D

 42 45  0  0  0  0  0  0  0  0999 V2000
   45.6550   33.0060   41.0160 Cl  0  0  0  0  0  0  0  0  0  0  0  0
   46.9740   34.1380   41.0000 C   0  0  0  0  0  0  0  0  0  0  0  0
   47.2630   34.9310   42.0760 C   0  0  0  0  0  0  0  0  0  0  0  0
   48.3290   35.7900   41.9460 C   0  0  0  0  0  0  0  0  0  0  0  0
   49.0650   35.8680   40.8300 C   0  0  0  0  0  0  0  0  0  0  0  0
   48.7790   35.0720   39.7440 C   0  0  0  0  0  0  0  0  0  0  0  0
   47.7160   34.2030   39.8500 C   0  0  0  0  0  0  0  0  0  0  0  0
   44.5550   35.5140   44.6670 C   0  0  0  0  0  0  0  0  0  0  0  0
   45.3430   35.6480   43.5270 C   0  0  0  0  0  0  0  0  0  0  0  0
   46.4290   34.8040   43.2630 C   0  0  0  0  0  0  0  0  0  0  0  0
   46.6440   33.8600   44.2020 N   0  0  0  0  0  0  0  0  0  0  0  0
   45.8860   33.7350   45.2950 C   0  0  0  0  0  0  0  0  0  0  0  0
   44.8590   34.5420   45.5310 N   0  0  0  0  0  0  0  0  0  0  0  0
   47.3910   33.3330   38.6900 C   0  0  0  0  0  0  0  0  0  0  0  0
   48.1030   32.1580   38.3900 C   0  0  0  0  0  0  0  0  0  0  0  0
   47.2930   31.5160   36.9060 S   0  0  0  0  0  0  0  0  0  0  0  0
   46.0650   32.9920   36.9170 C   0  0  0  0  0  0  0  0  0  0  0  0
   46.4360   33.5250   37.8190 N   0  0  0  0  0  0  0  0  0  0  0  0
   45.0090   33.2230   35.9650 N   0  0  0  0  0  0  0  0  0  0  0  0
   49.2320   31.5590   39.0700 N   0  0  0  0  0  0  0  0  0  0  0  0
   50.5690   31.4420   38.5440 C   0  0  0  0  0  0  0  0  0  0  0  0
   51.5610   31.3280   39.6580 C   0  0  0  0  0  0  0  0  0  0  0  0
   51.2270   32.1680   40.7690 N   0  0  0  0  0  0  0  0  0  0  0  0
   49.9770   31.7650   41.3940 C   0  0  0  0  0  0  0  0  0  0  0  0
   49.1050   31.0100   40.4030 C   0  0  0  0  0  0  0  0  0  0  0  0
   48.5880   36.4404   42.7945 H   0  0  0  0  0  0  0  0  0  0  0  0
   49.9063   36.5750   40.7806 H   0  0  0  0  0  0  0  0  0  0  0  0
   49.3787   35.1281   38.8235 H   0  0  0  0  0  0  0  0  0  0  0  0
   43.7064   36.1893   44.8508 H   0  0  0  0  0  0  0  0  0  0  0  0
   45.1040   36.4454   42.8079 H   0  0  0  0  0  0  0  0  0  0  0  0
   46.1196   32.9410   46.0196 H   0  0  0  0  0  0  0  0  0  0  0  0
   44.4017   34.0495   36.0599 H   0  0  0  0  0  0  0  0  0  0  0  0
   44.8611   32.5617   35.1893 H   0  0  0  0  0  0  0  0  0  0  0  0
   50.6316   30.5452   37.9101 H   0  0  0  0  0  0  0  0  0  0  0  0
   50.7991   32.3406   37.9527 H   0  0  0  0  0  0  0  0  0  0  0  0
   51.5904   30.2831   40.0004 H   0  0  0  0  0  0  0  0  0  0  0  0
   52.5394   31.6512   39.2729 H   0  0  0  0  0  0  0  0  0  0  0  0
   51.9820   32.1129   41.4675 H   0  0  0  0  0  0  0  0  0  0  0  0
   50.1954   31.1139   42.2533 H   0  0  0  0  0  0  0  0  0  0  0  0
   49.4395   32.6651   41.7270 H   0  0  0  0  0  0  0  0  0  0  0  0
   48.0547   31.0816   40.7220 H   0  0  0  0  0  0  0  0  0  0  0  0
   49.4326   29.9602   40.3800 H   0  0  0  0  0  0  0  0  0  0  0  0
  2  1  1  0
  2  3  2  0
  3 10  1  0
  4  3  1  0
  5  4  2  0
  6  7  2  0
  6  5  1  0
  7  2  1  0
  8 13  2  0
  9  8  1  0
 10  9  2  0
 10 11  1  0
 11 12  2  0
 12 13  1  0
 14  7  1  0
 15 14  2  0
 15 20  1  0
 16 17  1  0
 16 15  1  0
 17 18  2  0
 18 14  1  0
 19 17  1  0
 20 25  1  0
 21 20  1  0
 21 22  1  0
 22 23  1  0
 23 24  1  0
 25 24  1  0
  4 26  1  0
  5 27  1  0
  6 28  1  0
  8 29  1  0
  9 30  1  0
 12 31  1  0
 19 32  1  0
 19 33  1  0
 21 34  1  0
 21 35  1  0
 22 36  1  0
 22 37  1  0
 23 38  1  0
 24 39  1  0
 24 40  1  0
 25 41  1  0
 25 42  1  0
M  ISO  8  26  14  27  14  28  14  29  14  30  14  31  14  34  13  35  13
M  ISO  7  36  13  37  13  38   5  39  13  40  13  41  13  42  13
M  END
>  <minimizedAffinity>  (1) 
-6.35943556

>  <minimizedRMSD>  (1) 
2.11046839

$$$$
