
     RDKit          3D

 29 31  0  0  0  0  0  0  0  0999 V2000
   45.0130   33.0870   41.0790 Cl  0  0  0  0  0  0  0  0  0  0  0  0
   46.4920   33.9900   40.9350 C   0  0  0  0  0  0  0  0  0  0  0  0
   46.9490   34.7990   41.9240 C   0  0  0  0  0  0  0  0  0  0  0  0
   48.1280   35.4650   41.7010 C   0  0  0  0  0  0  0  0  0  0  0  0
   48.8250   35.3400   40.5590 C   0  0  0  0  0  0  0  0  0  0  0  0
   48.3740   34.5220   39.5460 C   0  0  0  0  0  0  0  0  0  0  0  0
   47.1880   33.8440   39.7510 C   0  0  0  0  0  0  0  0  0  0  0  0
   44.4730   35.9820   44.5460 C   0  0  0  0  0  0  0  0  0  0  0  0
   45.2200   35.9070   43.3620 C   0  0  0  0  0  0  0  0  0  0  0  0
   46.1560   34.9010   43.1460 C   0  0  0  0  0  0  0  0  0  0  0  0
   46.3010   33.9910   44.1580 N   0  0  0  0  0  0  0  0  0  0  0  0
   45.5700   34.0870   45.2840 C   0  0  0  0  0  0  0  0  0  0  0  0
   44.6740   35.0590   45.4780 N   0  0  0  0  0  0  0  0  0  0  0  0
   46.6840   32.9580   38.6730 C   0  0  0  0  0  0  0  0  0  0  0  0
   46.7510   31.5580   38.7510 C   0  0  0  0  0  0  0  0  0  0  0  0
   46.0050   31.0090   37.1890 S   0  0  0  0  0  0  0  0  0  0  0  0
   45.7080   32.8110   36.6580 C   0  0  0  0  0  0  0  0  0  0  0  0
   46.1310   33.3420   37.5530 N   0  0  0  0  0  0  0  0  0  0  0  0
   45.1050   33.2350   35.4350 N   0  0  0  0  0  0  0  0  0  0  0  0
   47.2670   30.7550   39.7770 O   0  0  0  0  0  0  0  0  0  0  0  0
   48.5178   36.1272   42.4881 H   0  0  0  0  0  0  0  0  0  0  0  0
   49.7653   35.8964   40.4315 H   0  0  0  0  0  0  0  0  0  0  0  0
   48.9380   34.4128   38.6079 H   0  0  0  0  0  0  0  0  0  0  0  0
   43.7383   36.7863   44.6987 H   0  0  0  0  0  0  0  0  0  0  0  0
   45.0613   36.6656   42.5814 H   0  0  0  0  0  0  0  0  0  0  0  0
   45.7158   33.3365   46.0749 H   0  0  0  0  0  0  0  0  0  0  0  0
   44.9882   34.2395   35.2395 H   0  0  0  0  0  0  0  0  0  0  0  0
   44.7868   32.5363   34.7483 H   0  0  0  0  0  0  0  0  0  0  0  0
   47.2460   29.7689   39.6919 H   0  0  0  0  0  0  0  0  0  0  0  0
  2  1  1  0
  2  3  2  0
  3 10  1  0
  4  3  1  0
  5  4  2  0
  6  7  2  0
  6  5  1  0
  7  2  1  0
  8 13  2  0
  9  8  1  0
 10  9  2  0
 10 11  1  0
 11 12  2  0
 12 13  1  0
 14 15  2  0
 14  7  1  0
 15 20  1  0
 16 15  1  0
 17 16  1  0
 17 18  2  0
 18 14  1  0
 19 17  1  0
  4 21  1  0
  5 22  1  0
  6 23  1  0
  8 24  1  0
  9 25  1  0
 12 26  1  0
 19 27  1  0
 19 28  1  0
 20 29  1  0
M  ISO  7  21  14  22  14  23  14  24  14  25  14  26  14  29   3
M  END
>  <minimizedAffinity>  (1) 
-6.10018158

>  <minimizedRMSD>  (1) 
0.025518503

$$$$
