
     RDKit          3D

 43 46  0  0  0  0  0  0  0  0999 V2000
   45.2040   33.0490   41.1800 Cl  0  0  0  0  0  0  0  0  0  0  0  0
   46.6310   34.0330   41.0570 C   0  0  0  0  0  0  0  0  0  0  0  0
   47.0180   34.8720   42.0650 C   0  0  0  0  0  0  0  0  0  0  0  0
   48.1520   35.6050   41.8450 C   0  0  0  0  0  0  0  0  0  0  0  0
   48.8740   35.5270   40.7060 C   0  0  0  0  0  0  0  0  0  0  0  0
   48.4880   34.6890   39.6980 C   0  0  0  0  0  0  0  0  0  0  0  0
   47.3360   33.9220   39.8840 C   0  0  0  0  0  0  0  0  0  0  0  0
   44.4690   35.8750   44.6860 C   0  0  0  0  0  0  0  0  0  0  0  0
   45.2300   35.8670   43.5050 C   0  0  0  0  0  0  0  0  0  0  0  0
   46.2090   34.9160   43.2680 C   0  0  0  0  0  0  0  0  0  0  0  0
   46.3640   34.0030   44.2660 N   0  0  0  0  0  0  0  0  0  0  0  0
   45.6380   34.0100   45.3930 C   0  0  0  0  0  0  0  0  0  0  0  0
   44.7030   34.9320   45.6010 N   0  0  0  0  0  0  0  0  0  0  0  0
   46.9050   33.0110   38.8020 C   0  0  0  0  0  0  0  0  0  0  0  0
   47.1870   31.6460   38.8070 C   0  0  0  0  0  0  0  0  0  0  0  0
   46.4290   31.0490   37.2600 S   0  0  0  0  0  0  0  0  0  0  0  0
   45.8270   32.8130   36.8340 C   0  0  0  0  0  0  0  0  0  0  0  0
   46.2290   33.3530   37.7350 N   0  0  0  0  0  0  0  0  0  0  0  0
   45.0890   33.1830   35.6800 N   0  0  0  0  0  0  0  0  0  0  0  0
   47.8570   30.7450   39.6500 N   0  0  0  0  0  0  0  0  0  0  0  0
   49.2780   30.6160   39.3080 C   0  0  0  0  0  0  0  0  0  0  0  0
   49.5850   29.1150   39.3680 C   0  0  0  0  0  0  0  0  0  0  0  0
   49.5450   28.6030   40.7740 C   0  0  0  0  0  0  0  0  0  0  0  0
   48.7150   29.5700   41.5880 C   0  0  0  0  0  0  0  0  0  0  0  0
   47.4830   29.8990   40.7660 C   0  0  0  0  0  0  0  0  0  0  0  0
   48.4925   36.2914   42.6342 H   0  0  0  0  0  0  0  0  0  0  0  0
   49.7785   36.1420   40.5892 H   0  0  0  0  0  0  0  0  0  0  0  0
   49.0685   34.6205   38.7662 H   0  0  0  0  0  0  0  0  0  0  0  0
   43.6976   36.6413   44.8528 H   0  0  0  0  0  0  0  0  0  0  0  0
   45.0426   36.6398   42.7450 H   0  0  0  0  0  0  0  0  0  0  0  0
   45.8188   33.2405   46.1580 H   0  0  0  0  0  0  0  0  0  0  0  0
   44.8098   34.1645   35.5400 H   0  0  0  0  0  0  0  0  0  0  0  0
   44.8325   32.4701   34.9823 H   0  0  0  0  0  0  0  0  0  0  0  0
   49.8981   31.1635   40.0330 H   0  0  0  0  0  0  0  0  0  0  0  0
   49.4961   31.0354   38.3148 H   0  0  0  0  0  0  0  0  0  0  0  0
   48.8384   28.5732   38.7688 H   0  0  0  0  0  0  0  0  0  0  0  0
   50.5979   28.9536   38.9704 H   0  0  0  0  0  0  0  0  0  0  0  0
   49.0863   27.6035   40.7965 H   0  0  0  0  0  0  0  0  0  0  0  0
   50.5619   28.5241   41.1860 H   0  0  0  0  0  0  0  0  0  0  0  0
   48.4204   29.1057   42.5407 H   0  0  0  0  0  0  0  0  0  0  0  0
   49.2874   30.4806   41.8187 H   0  0  0  0  0  0  0  0  0  0  0  0
   46.7518   30.4261   41.3965 H   0  0  0  0  0  0  0  0  0  0  0  0
   47.0369   28.9680   40.3863 H   0  0  0  0  0  0  0  0  0  0  0  0
  2  1  1  0
  2  3  2  0
  3 10  1  0
  4  3  1  0
  5  4  2  0
  6  7  2  0
  6  5  1  0
  7  2  1  0
  8 13  2  0
  9  8  1  0
 10  9  2  0
 10 11  1  0
 11 12  2  0
 12 13  1  0
 14 15  2  0
 14  7  1  0
 15 20  1  0
 16 15  1  0
 17 16  1  0
 17 18  2  0
 18 14  1  0
 19 17  1  0
 20 25  1  0
 21 22  1  0
 21 20  1  0
 22 23  1  0
 23 24  1  0
 25 24  1  0
  4 26  1  0
  5 27  1  0
  6 28  1  0
  8 29  1  0
  9 30  1  0
 12 31  1  0
 19 32  1  0
 19 33  1  0
 21 34  1  0
 21 35  1  0
 22 36  1  0
 22 37  1  0
 23 38  1  0
 23 39  1  0
 24 40  1  0
 24 41  1  0
 25 42  1  0
 25 43  1  0
M  ISO  8  26  14  27  14  28  14  29  14  30  14  31  14  34  13  35  13
M  ISO  8  36  13  37  13  38  13  39  13  40  13  41  13  42  13  43  13
M  END
>  <minimizedAffinity>  (1) 
-5.93463326

>  <minimizedRMSD>  (1) 
0.808651388

$$$$
