
     RDKit          3D

 34 36  0  0  0  0  0  0  0  0999 V2000
   45.0100   33.0840   41.0830 Cl  0  0  0  0  0  0  0  0  0  0  0  0
   46.5020   33.9910   40.9480 C   0  0  0  0  0  0  0  0  0  0  0  0
   46.9540   34.8030   41.9280 C   0  0  0  0  0  0  0  0  0  0  0  0
   48.1300   35.4720   41.6990 C   0  0  0  0  0  0  0  0  0  0  0  0
   48.8270   35.3410   40.5500 C   0  0  0  0  0  0  0  0  0  0  0  0
   48.3800   34.5220   39.5560 C   0  0  0  0  0  0  0  0  0  0  0  0
   47.1860   33.8300   39.7630 C   0  0  0  0  0  0  0  0  0  0  0  0
   44.4720   35.9720   44.5530 C   0  0  0  0  0  0  0  0  0  0  0  0
   45.2180   35.9100   43.3680 C   0  0  0  0  0  0  0  0  0  0  0  0
   46.1660   34.8990   43.1410 C   0  0  0  0  0  0  0  0  0  0  0  0
   46.2870   34.0080   44.1630 N   0  0  0  0  0  0  0  0  0  0  0  0
   45.5590   34.0900   45.2910 C   0  0  0  0  0  0  0  0  0  0  0  0
   44.6730   35.0510   45.4790 N   0  0  0  0  0  0  0  0  0  0  0  0
   46.6900   32.9530   38.6830 C   0  0  0  0  0  0  0  0  0  0  0  0
   46.7550   31.5620   38.7440 C   0  0  0  0  0  0  0  0  0  0  0  0
   46.0090   31.0200   37.1840 S   0  0  0  0  0  0  0  0  0  0  0  0
   45.7070   32.8430   36.6590 C   0  0  0  0  0  0  0  0  0  0  0  0
   46.1320   33.3430   37.5570 N   0  0  0  0  0  0  0  0  0  0  0  0
   45.1020   33.2290   35.4360 N   0  0  0  0  0  0  0  0  0  0  0  0
   47.2750   30.5570   39.6990 C   0  0  0  0  0  0  0  0  0  0  0  0
   48.7900   30.6210   39.8290 C   0  0  0  0  0  0  0  0  0  0  0  0
   48.5196   36.1403   42.4811 H   0  0  0  0  0  0  0  0  0  0  0  0
   49.7644   35.9004   40.4147 H   0  0  0  0  0  0  0  0  0  0  0  0
   48.9440   34.4099   38.6183 H   0  0  0  0  0  0  0  0  0  0  0  0
   43.7334   36.7720   44.7091 H   0  0  0  0  0  0  0  0  0  0  0  0
   45.0564   36.6747   42.5940 H   0  0  0  0  0  0  0  0  0  0  0  0
   45.7056   33.3360   46.0784 H   0  0  0  0  0  0  0  0  0  0  0  0
   44.9708   34.2273   35.2188 H   0  0  0  0  0  0  0  0  0  0  0  0
   44.7937   32.5111   34.7648 H   0  0  0  0  0  0  0  0  0  0  0  0
   46.8262   30.7405   40.6864 H   0  0  0  0  0  0  0  0  0  0  0  0
   47.0094   29.5594   39.3190 H   0  0  0  0  0  0  0  0  0  0  0  0
   49.0665   30.6327   40.8936 H   0  0  0  0  0  0  0  0  0  0  0  0
   49.2372   29.7409   39.3437 H   0  0  0  0  0  0  0  0  0  0  0  0
   49.1613   31.5356   39.3437 H   0  0  0  0  0  0  0  0  0  0  0  0
  2  1  1  0
  2  3  2  0
  3 10  1  0
  4  3  1  0
  5  4  2  0
  6  7  2  0
  6  5  1  0
  7  2  1  0
  8 13  2  0
  9  8  1  0
 10  9  2  0
 10 11  1  0
 11 12  2  0
 12 13  1  0
 14 15  2  0
 14  7  1  0
 15 20  1  0
 16 15  1  0
 17 16  1  0
 17 18  2  0
 18 14  1  0
 19 17  1  0
 20 21  1  0
  4 22  1  0
  5 23  1  0
  6 24  1  0
  8 25  1  0
  9 26  1  0
 12 27  1  0
 19 28  1  0
 19 29  1  0
 20 30  1  0
 20 31  1  0
 21 32  1  0
 21 33  1  0
 21 34  1  0
M  ISO  8  22  14  23  14  24  14  25  14  26  14  27  14  30   8  31   8
M  ISO  3  32   8  33   8  34   8
M  END
>  <minimizedAffinity>  (1) 
-5.86124611

>  <minimizedRMSD>  (1) 
0.0385004058

$$$$
