
     RDKit          3D

 24 26  0  0  0  0  0  0  0  0999 V2000
   48.0650   34.8150   41.6890 C   0  0  0  0  0  0  0  0  0  0  0  0
   48.9960   35.9750   41.6510 C   0  0  0  0  0  0  0  0  0  0  0  0
   49.5070   34.6380   42.0060 C   0  0  0  0  0  0  0  0  0  0  0  0
   45.9840   35.6190   42.8210 C   0  0  0  0  0  0  0  0  0  0  0  0
   47.0620   34.7370   42.7640 C   0  0  0  0  0  0  0  0  0  0  0  0
   47.1420   33.7660   43.7620 C   0  0  0  0  0  0  0  0  0  0  0  0
   46.1690   33.7260   44.7370 N   0  0  0  0  0  0  0  0  0  0  0  0
   45.1460   34.6010   44.7480 C   0  0  0  0  0  0  0  0  0  0  0  0
   45.0560   35.5430   43.7910 N   0  0  0  0  0  0  0  0  0  0  0  0
   47.5400   34.3020   40.3860 C   0  0  0  0  0  0  0  0  0  0  0  0
   48.2010   34.1900   39.1540 C   0  0  0  0  0  0  0  0  0  0  0  0
   47.3080   33.6600   38.2440 C   0  0  0  0  0  0  0  0  0  0  0  0
   46.1510   33.4640   38.9190 N   0  0  0  0  0  0  0  0  0  0  0  0
   46.2870   33.8370   40.1700 N   0  0  0  0  0  0  0  0  0  0  0  0
   49.2687   36.4291   40.6869 H   0  0  0  0  0  0  0  0  0  0  0  0
   49.0204   36.9668   42.1262 H   0  0  0  0  0  0  0  0  0  0  0  0
   49.8202   34.4263   43.0390 H   0  0  0  0  0  0  0  0  0  0  0  0
   50.3106   33.9889   41.6280 H   0  0  0  0  0  0  0  0  0  0  0  0
   45.8899   36.3989   42.0510 H   0  0  0  0  0  0  0  0  0  0  0  0
   47.9703   33.0422   43.7707 H   0  0  0  0  0  0  0  0  0  0  0  0
   44.3837   34.5461   45.5391 H   0  0  0  0  0  0  0  0  0  0  0  0
   49.2439   34.4736   38.9494 H   0  0  0  0  0  0  0  0  0  0  0  0
   47.4985   33.4409   37.1830 H   0  0  0  0  0  0  0  0  0  0  0  0
   45.2883   33.0778   38.5098 H   0  0  0  0  0  0  0  0  0  0  0  0
  1  3  1  0
  1  5  1  0
  2  1  1  0
  2  3  1  0
  4  9  2  0
  5  4  1  0
  5  6  2  0
  6  7  1  0
  7  8  2  0
  9  8  1  0
 10  1  1  0
 11 10  1  0
 12 13  1  0
 12 11  2  0
 13 14  1  0
 14 10  2  0
  2 15  1  0
  2 16  1  0
  3 17  1  0
  3 18  1  0
  4 19  1  0
  6 20  1  0
  8 21  1  0
 11 22  1  0
 12 23  1  0
 13 24  1  0
M  ISO  8  15  13  16  13  17  13  18  13  19  14  20  14  21  14  22  14
M  ISO  2  23  14  24   9
M  END
>  <minimizedAffinity>  (1) 
-4.85420704

>  <minimizedRMSD>  (1) 
1.48155963

$$$$
