
     RDKit          3D

 33 35  0  0  0  0  0  0  0  0999 V2000
   48.1040   34.6720   41.7090 C   0  0  0  0  0  0  0  0  0  0  0  0
   48.9510   35.9080   41.6720 C   0  0  0  0  0  0  0  0  0  0  0  0
   49.5210   34.6090   42.0560 C   0  0  0  0  0  0  0  0  0  0  0  0
   45.9670   35.4320   42.8220 C   0  0  0  0  0  0  0  0  0  0  0  0
   47.0890   34.5980   42.8180 C   0  0  0  0  0  0  0  0  0  0  0  0
   47.2220   33.6990   43.8850 C   0  0  0  0  0  0  0  0  0  0  0  0
   46.2740   33.6770   44.8580 N   0  0  0  0  0  0  0  0  0  0  0  0
   45.2100   34.4890   44.8350 C   0  0  0  0  0  0  0  0  0  0  0  0
   45.0620   35.3650   43.8140 N   0  0  0  0  0  0  0  0  0  0  0  0
   47.5040   34.3880   40.3720 C   0  0  0  0  0  0  0  0  0  0  0  0
   46.8880   32.9830   40.2950 C   0  0  0  0  0  0  0  0  0  0  0  0
   48.0310   32.0560   40.0470 C   0  0  0  0  0  0  0  0  0  0  0  0
   48.3220   32.2080   38.5670 C   0  0  0  0  0  0  0  0  0  0  0  0
   48.3520   33.6320   38.1110 C   0  0  0  0  0  0  0  0  0  0  0  0
   48.3740   34.6610   39.1990 C   0  0  0  0  0  0  0  0  0  0  0  0
   49.2187   36.3662   40.7085 H   0  0  0  0  0  0  0  0  0  0  0  0
   48.8998   36.9075   42.1284 H   0  0  0  0  0  0  0  0  0  0  0  0
   49.8199   34.4313   43.0996 H   0  0  0  0  0  0  0  0  0  0  0  0
   50.3728   34.0089   41.7034 H   0  0  0  0  0  0  0  0  0  0  0  0
   45.8228   36.1522   42.0031 H   0  0  0  0  0  0  0  0  0  0  0  0
   48.0848   33.0184   43.9341 H   0  0  0  0  0  0  0  0  0  0  0  0
   44.4616   34.4446   45.6399 H   0  0  0  0  0  0  0  0  0  0  0  0
   46.6972   35.1318   40.2949 H   0  0  0  0  0  0  0  0  0  0  0  0
   46.3877   32.7308   41.2416 H   0  0  0  0  0  0  0  0  0  0  0  0
   46.1292   32.9145   39.5016 H   0  0  0  0  0  0  0  0  0  0  0  0
   48.9055   32.3461   40.6479 H   0  0  0  0  0  0  0  0  0  0  0  0
   47.7980   31.0176   40.3251 H   0  0  0  0  0  0  0  0  0  0  0  0
   49.3011   31.7534   38.3556 H   0  0  0  0  0  0  0  0  0  0  0  0
   47.5062   31.7097   38.0227 H   0  0  0  0  0  0  0  0  0  0  0  0
   49.2531   33.7711   37.4957 H   0  0  0  0  0  0  0  0  0  0  0  0
   47.4106   33.7924   37.5650 H   0  0  0  0  0  0  0  0  0  0  0  0
   49.4094   34.7462   39.5606 H   0  0  0  0  0  0  0  0  0  0  0  0
   47.9785   35.5813   38.7445 H   0  0  0  0  0  0  0  0  0  0  0  0
  1  3  1  0
  1  5  1  0
  2  1  1  0
  2  3  1  0
  4  9  2  0
  5  4  1  0
  5  6  2  0
  6  7  1  0
  8  7  2  0
  9  8  1  0
 10  1  1  0
 11 10  1  0
 12 11  1  0
 13 12  1  0
 14 13  1  0
 14 15  1  0
 15 10  1  0
  2 16  1  0
  2 17  1  0
  3 18  1  0
  3 19  1  0
  4 20  1  0
  6 21  1  0
  8 22  1  0
 10 23  1  0
 11 24  1  0
 11 25  1  0
 12 26  1  0
 12 27  1  0
 13 28  1  0
 13 29  1  0
 14 30  1  0
 14 31  1  0
 15 32  1  0
 15 33  1  0
M  ISO  8  16  13  17  13  18  13  19  13  20  14  21  14  22  14  23  13
M  ISO  8  24  13  25  13  26  13  27  13  28  13  29  13  30  13  31  13
M  ISO  2  32  13  33  13
M  END
>  <minimizedAffinity>  (1) 
-4.79639482

>  <minimizedRMSD>  (1) 
1.18561852

$$$$
