
     RDKit          3D

 25 27  0  0  0  0  0  0  0  0999 V2000
   48.5120   34.7940   41.8210 C   0  0  0  0  0  0  0  0  0  0  0  0
   49.1430   36.1350   41.7250 C   0  0  0  0  0  0  0  0  0  0  0  0
   49.8560   35.0440   42.4080 C   0  0  0  0  0  0  0  0  0  0  0  0
   46.2050   35.4050   42.6160 C   0  0  0  0  0  0  0  0  0  0  0  0
   47.3530   34.6190   42.7450 C   0  0  0  0  0  0  0  0  0  0  0  0
   47.3840   33.6480   43.7750 C   0  0  0  0  0  0  0  0  0  0  0  0
   46.2840   33.5350   44.5910 N   0  0  0  0  0  0  0  0  0  0  0  0
   45.2130   34.3140   44.4230 C   0  0  0  0  0  0  0  0  0  0  0  0
   45.1660   35.2390   43.4500 N   0  0  0  0  0  0  0  0  0  0  0  0
   48.4840   33.9020   40.6440 C   0  0  0  0  0  0  0  0  0  0  0  0
   48.0080   34.3080   39.4020 C   0  0  0  0  0  0  0  0  0  0  0  0
   48.0140   33.4130   38.3490 C   0  0  0  0  0  0  0  0  0  0  0  0
   48.4760   32.1500   38.5080 N   0  0  0  0  0  0  0  0  0  0  0  0
   48.9390   31.7570   39.7200 C   0  0  0  0  0  0  0  0  0  0  0  0
   48.9330   32.6310   40.7450 N   0  0  0  0  0  0  0  0  0  0  0  0
   49.5044   36.5032   40.7535 H   0  0  0  0  0  0  0  0  0  0  0  0
   48.8404   37.1558   42.0012 H   0  0  0  0  0  0  0  0  0  0  0  0
   49.9822   35.0695   43.5004 H   0  0  0  0  0  0  0  0  0  0  0  0
   50.8476   34.5794   42.3033 H   0  0  0  0  0  0  0  0  0  0  0  0
   46.1520   36.1666   41.8241 H   0  0  0  0  0  0  0  0  0  0  0  0
   48.2632   33.0026   43.9180 H   0  0  0  0  0  0  0  0  0  0  0  0
   44.3506   34.1959   45.0956 H   0  0  0  0  0  0  0  0  0  0  0  0
   47.6305   35.3313   39.2592 H   0  0  0  0  0  0  0  0  0  0  0  0
   47.6374   33.7317   37.3658 H   0  0  0  0  0  0  0  0  0  0  0  0
   49.3161   30.7339   39.8651 H   0  0  0  0  0  0  0  0  0  0  0  0
  1  3  1  0
  1  5  1  0
  2  1  1  0
  2  3  1  0
  4  5  2  0
  4  9  1  0
  5  6  1  0
  6  7  2  0
  8  7  1  0
  9  8  2  0
 10 15  1  0
 10  1  1  0
 11 10  2  0
 12 13  2  0
 12 11  1  0
 13 14  1  0
 14 15  2  0
  2 16  1  0
  2 17  1  0
  3 18  1  0
  3 19  1  0
  4 20  1  0
  6 21  1  0
  8 22  1  0
 11 23  1  0
 12 24  1  0
 14 25  1  0
M  ISO  8  16  13  17  13  18  13  19  13  20  14  21  14  22  14  23  14
M  ISO  2  24  14  25  14
M  END
>  <minimizedAffinity>  (1) 
-4.7084589

>  <minimizedRMSD>  (1) 
0.99517709

$$$$
