
     RDKit          3D

 21 22  0  0  0  0  0  0  0  0999 V2000
   44.5330   35.7520   44.7230 C   0  0  0  0  0  0  0  0  0  0  0  0
   45.1830   35.7140   43.4690 C   0  0  0  0  0  0  0  0  0  0  0  0
   46.1530   34.7120   43.2910 C   0  0  0  0  0  0  0  0  0  0  0  0
   46.4130   33.8470   44.3070 N   0  0  0  0  0  0  0  0  0  0  0  0
   45.7450   33.9420   45.4970 C   0  0  0  0  0  0  0  0  0  0  0  0
   44.8170   34.8880   45.6920 N   0  0  0  0  0  0  0  0  0  0  0  0
   46.0370   33.0080   46.5790 C   0  0  0  0  0  0  0  0  0  0  0  0
   45.1840   32.9200   47.6760 C   0  0  0  0  0  0  0  0  0  0  0  0
   45.5110   32.0180   48.6700 C   0  0  0  0  0  0  0  0  0  0  0  0
   46.6100   31.2400   48.6010 N   0  0  0  0  0  0  0  0  0  0  0  0
   47.4170   31.3460   47.5260 C   0  0  0  0  0  0  0  0  0  0  0  0
   47.1310   32.2140   46.5390 N   0  0  0  0  0  0  0  0  0  0  0  0
   46.8070   34.6940   41.9870 C   0  0  0  0  0  0  0  0  0  0  0  0
   47.5870   33.5550   41.8750 F   0  0  0  0  0  0  0  0  0  0  0  0
   47.6930   35.7620   41.9630 F   0  0  0  0  0  0  0  0  0  0  0  0
   45.9320   34.7300   40.9320 F   0  0  0  0  0  0  0  0  0  0  0  0
   43.7675   36.5212   44.9029 H   0  0  0  0  0  0  0  0  0  0  0  0
   44.9421   36.4326   42.6718 H   0  0  0  0  0  0  0  0  0  0  0  0
   44.2824   33.5460   47.7486 H   0  0  0  0  0  0  0  0  0  0  0  0
   44.8527   31.9317   49.5471 H   0  0  0  0  0  0  0  0  0  0  0  0
   48.3169   30.7173   47.4555 H   0  0  0  0  0  0  0  0  0  0  0  0
  1  6  2  0
  2  1  1  0
  3  2  2  0
  3  4  1  0
  4  5  2  0
  5  6  1  0
  5  7  1  0
  7  8  2  0
  8  9  1  0
 10  9  2  0
 11 10  1  0
 12  7  1  0
 12 11  2  0
 13  3  1  0
 14 13  1  0
 15 13  1  0
 16 13  1  0
  1 17  1  0
  2 18  1  0
  8 19  1  0
  9 20  1  0
 11 21  1  0
M  ISO  5  17  14  18  14  19  14  20  14  21  14
M  END
>  <minimizedAffinity>  (1) 
-5.33380795

>  <minimizedRMSD>  (1) 
0.54293263

$$$$
