
     RDKit          3D

 29 31  0  0  1  0  0  0  0  0999 V2000
   47.6280   34.7300   41.7450 C   0  0  0  0  0  0  0  0  0  0  0  0
   48.7380   35.6990   41.6630 C   0  0  0  0  0  0  0  0  0  0  0  0
   49.0340   34.2970   42.0780 C   0  0  0  0  0  0  0  0  0  0  0  0
   45.6790   35.8610   42.9020 C   0  0  0  0  0  0  0  0  0  0  0  0
   46.6590   34.8340   42.8570 C   0  0  0  0  0  0  0  0  0  0  0  0
   46.6510   33.9470   43.9280 C   0  0  0  0  0  0  0  0  0  0  0  0
   45.7370   34.1010   44.9320 N   0  0  0  0  0  0  0  0  0  0  0  0
   44.8250   35.0930   44.9300 C   0  0  0  0  0  0  0  0  0  0  0  0
   44.8090   35.9680   43.9050 N   0  0  0  0  0  0  0  0  0  0  0  0
   47.0890   34.3170   40.4480 N   0  0  0  0  0  0  0  0  0  0  0  0
   46.6270   32.9460   40.5150 C   0  0  0  0  0  0  0  0  0  0  0  0
   46.7410   32.3560   39.1360 C   0  0  0  0  0  0  0  0  0  0  0  0
   47.3120   33.4880   38.3120 C   0  0  0  0  0  0  0  0  0  0  0  0
   48.0550   34.2930   39.3920 C   0  0  0  0  0  0  0  0  0  0  0  0
   49.0760   36.0617   40.6810 H   0  0  0  0  0  0  0  0  0  0  0  0
   48.9308   36.6898   42.1002 H   0  0  0  0  0  0  0  0  0  0  0  0
   49.3125   34.0755   43.1189 H   0  0  0  0  0  0  0  0  0  0  0  0
   49.7128   33.5036   41.7320 H   0  0  0  0  0  0  0  0  0  0  0  0
   45.6370   36.5923   42.0814 H   0  0  0  0  0  0  0  0  0  0  0  0
   47.3789   33.1232   43.9668 H   0  0  0  0  0  0  0  0  0  0  0  0
   44.1028   35.1874   45.7544 H   0  0  0  0  0  0  0  0  0  0  0  0
   47.2498   32.3750   41.2193 H   0  0  0  0  0  0  0  0  0  0  0  0
   45.5849   32.9077   40.8650 H   0  0  0  0  0  0  0  0  0  0  0  0
   47.4176   31.4887   39.1344 H   0  0  0  0  0  0  0  0  0  0  0  0
   45.7802   31.9867   38.7479 H   0  0  0  0  0  0  0  0  0  0  0  0
   48.0013   33.1171   37.5391 H   0  0  0  0  0  0  0  0  0  0  0  0
   46.5607   34.0654   37.7532 H   0  0  0  0  0  0  0  0  0  0  0  0
   48.9798   33.7864   39.7053 H   0  0  0  0  0  0  0  0  0  0  0  0
   48.3820   35.2900   39.0616 H   0  0  0  0  0  0  0  0  0  0  0  0
  1  3  1  0
  1  5  1  0
  2  1  1  0
  2  3  1  0
  4  9  2  0
  5  4  1  0
  5  6  2  0
  6  7  1  0
  8  7  2  0
  9  8  1  0
 10 11  1  0
 10  1  1  0
 12 11  1  0
 13 12  1  0
 13 14  1  0
 14 10  1  0
  2 15  1  0
  2 16  1  0
  3 17  1  0
  3 18  1  0
  4 19  1  0
  6 20  1  0
  8 21  1  0
 11 22  1  0
 11 23  1  0
 12 24  1  0
 12 25  1  0
 13 26  1  0
 13 27  1  0
 14 28  1  0
 14 29  1  0
M  ISO  8  15  13  16  13  17  13  18  13  19  14  20  14  21  14  22  13
M  ISO  7  23  13  24  13  25  13  26  13  27  13  28  13  29  13
M  END
>  <minimizedAffinity>  (1) 
-4.409338

>  <minimizedRMSD>  (1) 
1.73869205

$$$$
