
     RDKit          3D

 21 22  0  0  0  0  0  0  0  0999 V2000
   48.5150   34.4670   42.0060 C   0  0  0  0  0  0  0  0  0  0  0  0
   48.9640   35.7340   41.4210 C   0  0  0  0  0  0  0  0  0  0  0  0
   49.7850   35.1200   42.5070 C   0  0  0  0  0  0  0  0  0  0  0  0
   46.2700   35.4030   42.7450 C   0  0  0  0  0  0  0  0  0  0  0  0
   47.3250   34.4670   42.9030 C   0  0  0  0  0  0  0  0  0  0  0  0
   47.2400   33.5360   43.9300 C   0  0  0  0  0  0  0  0  0  0  0  0
   46.1280   33.5600   44.7560 N   0  0  0  0  0  0  0  0  0  0  0  0
   45.1440   34.4770   44.5640 C   0  0  0  0  0  0  0  0  0  0  0  0
   45.2140   35.3960   43.5610 N   0  0  0  0  0  0  0  0  0  0  0  0
   47.9940   33.1380   39.9790 C   0  0  0  0  0  0  0  0  0  0  0  0
   47.1790   34.0180   39.6620 O   0  0  0  0  0  0  0  0  0  0  0  0
   48.7270   33.2880   41.1720 N   0  0  0  0  0  0  0  0  0  0  0  0
   49.3487   35.7535   40.3906 H   0  0  0  0  0  0  0  0  0  0  0  0
   48.4991   36.7198   41.2725 H   0  0  0  0  0  0  0  0  0  0  0  0
   49.8155   35.5792   43.5061 H   0  0  0  0  0  0  0  0  0  0  0  0
   50.8351   34.8136   42.6227 H   0  0  0  0  0  0  0  0  0  0  0  0
   46.3236   36.1468   41.9363 H   0  0  0  0  0  0  0  0  0  0  0  0
   48.0385   32.7954   44.0843 H   0  0  0  0  0  0  0  0  0  0  0  0
   44.2712   34.4773   45.2335 H   0  0  0  0  0  0  0  0  0  0  0  0
   48.1415   32.2556   39.3390 H   0  0  0  0  0  0  0  0  0  0  0  0
   49.4090   32.5697   41.4545 H   0  0  0  0  0  0  0  0  0  0  0  0
  1  3  1  0
  1  5  1  0
  2  1  1  0
  2  3  1  0
  4  5  2  0
  4  9  1  0
  5  6  1  0
  6  7  2  0
  8  7  1  0
  9  8  2  0
 10 12  1  0
 11 10  2  0
 12  1  1  0
  2 13  1  0
  2 14  1  0
  3 15  1  0
  3 16  1  0
  4 17  1  0
  6 18  1  0
  8 19  1  0
 10 20  1  0
 12 21  1  0
M  ISO  8  13  13  14  13  15  13  16  13  17  14  18  14  19  14  20   6
M  END
>  <minimizedAffinity>  (1) 
-3.98247313

>  <minimizedRMSD>  (1) 
0.927946627

$$$$
