
     RDKit          3D

 19 20  0  0  0  0  0  0  0  0999 V2000
   48.3580   34.4660   41.9930 C   0  0  0  0  0  0  0  0  0  0  0  0
   48.8750   35.6740   41.3470 C   0  0  0  0  0  0  0  0  0  0  0  0
   49.6630   35.0480   42.4560 C   0  0  0  0  0  0  0  0  0  0  0  0
   46.1570   35.5330   42.7010 C   0  0  0  0  0  0  0  0  0  0  0  0
   47.1700   34.5570   42.8980 C   0  0  0  0  0  0  0  0  0  0  0  0
   47.0460   33.6850   43.9750 C   0  0  0  0  0  0  0  0  0  0  0  0
   45.9560   33.8100   44.7870 N   0  0  0  0  0  0  0  0  0  0  0  0
   45.0120   34.7470   44.5710 C   0  0  0  0  0  0  0  0  0  0  0  0
   45.1110   35.6120   43.5240 N   0  0  0  0  0  0  0  0  0  0  0  0
   48.3920   33.2570   41.1920 N   0  0  0  0  0  0  0  0  0  0  0  0
   49.2495   35.6247   40.3139 H   0  0  0  0  0  0  0  0  0  0  0  0
   48.4736   36.6805   41.1574 H   0  0  0  0  0  0  0  0  0  0  0  0
   49.7323   35.5441   43.4353 H   0  0  0  0  0  0  0  0  0  0  0  0
   50.6911   34.6763   42.5783 H   0  0  0  0  0  0  0  0  0  0  0  0
   46.2367   36.2340   41.8570 H   0  0  0  0  0  0  0  0  0  0  0  0
   47.8071   32.9144   44.1672 H   0  0  0  0  0  0  0  0  0  0  0  0
   44.1492   34.8141   45.2501 H   0  0  0  0  0  0  0  0  0  0  0  0
   48.4151   32.4349   41.8121 H   0  0  0  0  0  0  0  0  0  0  0  0
   47.5519   33.2152   40.5976 H   0  0  0  0  0  0  0  0  0  0  0  0
  1  3  1  0
  1  5  1  0
  2  1  1  0
  2  3  1  0
  4  5  2  0
  4  9  1  0
  5  6  1  0
  6  7  2  0
  8  7  1  0
  9  8  2  0
 10  1  1  0
  2 11  1  0
  2 12  1  0
  3 13  1  0
  3 14  1  0
  4 15  1  0
  6 16  1  0
  8 17  1  0
 10 18  1  0
 10 19  1  0
M  ISO  8  11  13  12  13  13  13  14  13  15  14  16  14  17  14  18   5
M  ISO  1  19   5
M  END
>  <minimizedAffinity>  (1) 
-3.78463006

>  <minimizedRMSD>  (1) 
0.151038378

$$$$
