
     RDKit          3D

 34 36  0  0  0  0  0  0  0  0999 V2000
   48.8020   33.3440   41.7470 C   0  0  0  0  0  0  0  0  0  0  0  0
   50.2100   33.6930   42.1490 C   0  0  0  0  0  0  0  0  0  0  0  0
   49.6660   32.3540   42.3780 C   0  0  0  0  0  0  0  0  0  0  0  0
   48.5820   33.2240   40.2620 C   0  0  0  0  0  0  0  0  0  0  0  0
   48.2230   34.5180   39.5730 C   0  0  0  0  0  0  0  0  0  0  0  0
   48.1720   34.1850   38.0780 C   0  0  0  0  0  0  0  0  0  0  0  0
   47.0050   33.4590   37.8680 O   0  0  0  0  0  0  0  0  0  0  0  0
   47.2570   32.2000   38.4400 C   0  0  0  0  0  0  0  0  0  0  0  0
   47.3700   32.3380   39.9510 C   0  0  0  0  0  0  0  0  0  0  0  0
   47.1290   35.1520   42.0990 C   0  0  0  0  0  0  0  0  0  0  0  0
   47.6800   33.9610   42.5470 C   0  0  0  0  0  0  0  0  0  0  0  0
   47.1760   33.3340   43.7350 C   0  0  0  0  0  0  0  0  0  0  0  0
   46.1480   33.9710   44.3730 N   0  0  0  0  0  0  0  0  0  0  0  0
   45.6500   35.1290   43.8910 C   0  0  0  0  0  0  0  0  0  0  0  0
   46.1060   35.7240   42.7910 N   0  0  0  0  0  0  0  0  0  0  0  0
   44.5250   35.7670   44.6390 C   0  0  0  0  0  0  0  0  0  0  0  0
   44.4620   35.2310   45.8910 F   0  0  0  0  0  0  0  0  0  0  0  0
   43.3330   35.7230   43.9550 F   0  0  0  0  0  0  0  0  0  0  0  0
   44.8280   37.1250   44.8050 F   0  0  0  0  0  0  0  0  0  0  0  0
   50.9811   33.8531   41.3810 H   0  0  0  0  0  0  0  0  0  0  0  0
   50.6786   34.4672   42.7743 H   0  0  0  0  0  0  0  0  0  0  0  0
   49.4532   32.0212   43.4046 H   0  0  0  0  0  0  0  0  0  0  0  0
   49.9918   31.3387   42.1077 H   0  0  0  0  0  0  0  0  0  0  0  0
   49.5457   32.8317   39.9051 H   0  0  0  0  0  0  0  0  0  0  0  0
   47.2438   34.8796   39.9200 H   0  0  0  0  0  0  0  0  0  0  0  0
   48.9528   35.3120   39.7897 H   0  0  0  0  0  0  0  0  0  0  0  0
   48.1541   35.1108   37.4842 H   0  0  0  0  0  0  0  0  0  0  0  0
   49.0567   33.6075   37.7717 H   0  0  0  0  0  0  0  0  0  0  0  0
   46.4314   31.5153   38.1959 H   0  0  0  0  0  0  0  0  0  0  0  0
   48.1995   31.7991   38.0388 H   0  0  0  0  0  0  0  0  0  0  0  0
   46.4568   32.8022   40.3518 H   0  0  0  0  0  0  0  0  0  0  0  0
   47.4940   31.3482   40.4146 H   0  0  0  0  0  0  0  0  0  0  0  0
   47.5169   35.6323   41.1886 H   0  0  0  0  0  0  0  0  0  0  0  0
   47.5949   32.3897   44.1130 H   0  0  0  0  0  0  0  0  0  0  0  0
  1  2  1  0
  1  3  1  0
  1 11  1  0
  2  3  1  0
  4  1  1  0
  5  4  1  0
  6  5  1  0
  7  6  1  0
  7  8  1  0
  8  9  1  0
  9  4  1  0
 10 11  2  0
 10 15  1  0
 11 12  1  0
 12 13  2  0
 14 13  1  0
 14 16  1  0
 15 14  2  0
 16 19  1  0
 16 17  1  0
 18 16  1  0
  2 20  1  0
  2 21  1  0
  3 22  1  0
  3 23  1  0
  4 24  1  0
  5 25  1  0
  5 26  1  0
  6 27  1  0
  6 28  1  0
  8 29  1  0
  8 30  1  0
  9 31  1  0
  9 32  1  0
 10 33  1  0
 12 34  1  0
M  ISO  8  20  13  21  13  22  13  23  13  24  13  25  13  26  13  27  13
M  ISO  7  28  13  29  13  30  13  31  13  32  13  33  14  34  14
M  END
>  <minimizedAffinity>  (1) 
-5.16956902

>  <minimizedRMSD>  (1) 
1.42295682

$$$$
