
     RDKit          3D

 48 51  0  0  0  0  0  0  0  0999 V2000
   48.0400   34.5580   41.7180 C   0  0  0  0  0  0  0  0  0  0  0  0
   48.8710   35.8030   41.4010 C   0  0  0  0  0  0  0  0  0  0  0  0
   49.4490   34.6480   42.0860 C   0  0  0  0  0  0  0  0  0  0  0  0
   46.1620   35.8250   42.7820 C   0  0  0  0  0  0  0  0  0  0  0  0
   47.0010   34.7180   42.7720 C   0  0  0  0  0  0  0  0  0  0  0  0
   46.8020   33.7790   43.8020 C   0  0  0  0  0  0  0  0  0  0  0  0
   45.8530   33.9540   44.7340 N   0  0  0  0  0  0  0  0  0  0  0  0
   45.0670   35.0590   44.6860 C   0  0  0  0  0  0  0  0  0  0  0  0
   45.2180   35.9650   43.7380 N   0  0  0  0  0  0  0  0  0  0  0  0
   44.0420   35.3310   45.6190 N   0  0  0  0  0  0  0  0  0  0  0  0
   47.5430   32.5790   43.9500 N   0  0  0  0  0  0  0  0  0  0  0  0
   47.5600   31.3960   44.7710 C   0  0  0  0  0  0  0  0  0  0  0  0
   47.9220   30.1570   43.9900 C   0  0  0  0  0  0  0  0  0  0  0  0
   47.5190   30.2650   42.5180 C   0  0  0  0  0  0  0  0  0  0  0  0
   48.3410   31.3950   41.9550 C   0  0  0  0  0  0  0  0  0  0  0  0
   48.6540   32.4370   43.0040 C   0  0  0  0  0  0  0  0  0  0  0  0
   47.6510   33.7640   40.5030 C   0  0  0  0  0  0  0  0  0  0  0  0
   48.1420   34.3500   39.1880 C   0  0  0  0  0  0  0  0  0  0  0  0
   47.7540   33.3140   38.1300 C   0  0  0  0  0  0  0  0  0  0  0  0
   46.3720   33.4340   37.9440 O   0  0  0  0  0  0  0  0  0  0  0  0
   45.8400   32.8450   39.1200 C   0  0  0  0  0  0  0  0  0  0  0  0
   46.1280   33.7780   40.2970 C   0  0  0  0  0  0  0  0  0  0  0  0
   49.1544   36.0311   40.3629 H   0  0  0  0  0  0  0  0  0  0  0  0
   48.7863   36.8801   41.6077 H   0  0  0  0  0  0  0  0  0  0  0  0
   49.7267   34.7315   43.1471 H   0  0  0  0  0  0  0  0  0  0  0  0
   50.3256   34.0120   41.8932 H   0  0  0  0  0  0  0  0  0  0  0  0
   46.2674   36.5952   42.0038 H   0  0  0  0  0  0  0  0  0  0  0  0
   43.4783   36.1884   45.5294 H   0  0  0  0  0  0  0  0  0  0  0  0
   43.8583   34.6720   46.3890 H   0  0  0  0  0  0  0  0  0  0  0  0
   48.2981   31.5348   45.5747 H   0  0  0  0  0  0  0  0  0  0  0  0
   46.5463   31.2535   45.1736 H   0  0  0  0  0  0  0  0  0  0  0  0
   49.0099   30.0057   44.0495 H   0  0  0  0  0  0  0  0  0  0  0  0
   47.3759   29.3089   44.4289 H   0  0  0  0  0  0  0  0  0  0  0  0
   47.7424   29.3269   41.9889 H   0  0  0  0  0  0  0  0  0  0  0  0
   46.4407   30.4497   42.4036 H   0  0  0  0  0  0  0  0  0  0  0  0
   49.2853   30.9882   41.5641 H   0  0  0  0  0  0  0  0  0  0  0  0
   47.7582   31.8774   41.1565 H   0  0  0  0  0  0  0  0  0  0  0  0
   49.5579   32.1347   43.5532 H   0  0  0  0  0  0  0  0  0  0  0  0
   48.8134   33.4029   42.5025 H   0  0  0  0  0  0  0  0  0  0  0  0
   48.0893   32.7758   40.7065 H   0  0  0  0  0  0  0  0  0  0  0  0
   47.6510   35.3133   38.9856 H   0  0  0  0  0  0  0  0  0  0  0  0
   49.2241   34.5471   39.1993 H   0  0  0  0  0  0  0  0  0  0  0  0
   48.2833   33.5170   37.1873 H   0  0  0  0  0  0  0  0  0  0  0  0
   48.0253   32.2973   38.4506 H   0  0  0  0  0  0  0  0  0  0  0  0
   44.7539   32.7098   39.0097 H   0  0  0  0  0  0  0  0  0  0  0  0
   46.3020   31.8620   39.2938 H   0  0  0  0  0  0  0  0  0  0  0  0
   45.7851   34.7975   40.0664 H   0  0  0  0  0  0  0  0  0  0  0  0
   45.6010   33.4478   41.2043 H   0  0  0  0  0  0  0  0  0  0  0  0
  1  3  1  0
  1  5  1  0
  2  1  1  0
  2  3  1  0
  4  9  2  0
  5  4  1  0
  5  6  2  0
  6 11  1  0
  6  7  1  0
  8  7  2  0
  8 10  1  0
  9  8  1  0
 11 12  1  0
 13 12  1  0
 14 13  1  0
 15 14  1  0
 15 16  1  0
 16 11  1  0
 17  1  1  0
 18 17  1  0
 19 18  1  0
 20 19  1  0
 20 21  1  0
 21 22  1  0
 22 17  1  0
  2 23  1  0
  2 24  1  0
  3 25  1  0
  3 26  1  0
  4 27  1  0
 10 28  1  0
 10 29  1  0
 12 30  1  0
 12 31  1  0
 13 32  1  0
 13 33  1  0
 14 34  1  0
 14 35  1  0
 15 36  1  0
 15 37  1  0
 16 38  1  0
 16 39  1  0
 17 40  1  0
 18 41  1  0
 18 42  1  0
 19 43  1  0
 19 44  1  0
 21 45  1  0
 21 46  1  0
 22 47  1  0
 22 48  1  0
M  ISO  8  23  13  24  13  25  13  26  13  27  14  30  13  31  13  32  13
M  ISO  8  33  13  34  13  35  13  36  13  37  13  38  13  39  13  40  13
M  ISO  8  41  13  42  13  43  13  44  13  45  13  46  13  47  13  48  13
M  END
>  <minimizedAffinity>  (1) 
-6.07025719

>  <minimizedRMSD>  (1) 
0.252953172

$$$$
