
     RDKit          3D

 34 36  0  0  0  0  0  0  0  0999 V2000
   48.0800   34.6440   41.7460 C   0  0  0  0  0  0  0  0  0  0  0  0
   48.8970   35.8880   41.4480 C   0  0  0  0  0  0  0  0  0  0  0  0
   49.5000   34.7510   42.1220 C   0  0  0  0  0  0  0  0  0  0  0  0
   47.7340   33.8110   40.5530 C   0  0  0  0  0  0  0  0  0  0  0  0
   48.1900   34.4030   39.2330 C   0  0  0  0  0  0  0  0  0  0  0  0
   47.8350   33.3610   38.1830 C   0  0  0  0  0  0  0  0  0  0  0  0
   46.4630   33.4030   38.0150 O   0  0  0  0  0  0  0  0  0  0  0  0
   45.9520   32.7870   39.1900 C   0  0  0  0  0  0  0  0  0  0  0  0
   46.2230   33.7200   40.3780 C   0  0  0  0  0  0  0  0  0  0  0  0
   46.1010   35.7550   42.7520 C   0  0  0  0  0  0  0  0  0  0  0  0
   47.0520   34.7490   42.8330 C   0  0  0  0  0  0  0  0  0  0  0  0
   47.0030   33.8720   43.9350 C   0  0  0  0  0  0  0  0  0  0  0  0
   46.0320   34.0510   44.8630 N   0  0  0  0  0  0  0  0  0  0  0  0
   45.1380   35.0400   44.7370 C   0  0  0  0  0  0  0  0  0  0  0  0
   45.1460   35.8950   43.7080 N   0  0  0  0  0  0  0  0  0  0  0  0
   44.1200   35.2340   45.7050 N   0  0  0  0  0  0  0  0  0  0  0  0
   47.9710   32.9060   43.9470 O   0  0  0  0  0  0  0  0  0  0  0  0
   49.1785   36.1281   40.4121 H   0  0  0  0  0  0  0  0  0  0  0  0
   48.7941   36.9612   41.6663 H   0  0  0  0  0  0  0  0  0  0  0  0
   49.7758   34.8329   43.1837 H   0  0  0  0  0  0  0  0  0  0  0  0
   50.3891   34.1329   41.9282 H   0  0  0  0  0  0  0  0  0  0  0  0
   48.2312   32.8509   40.7557 H   0  0  0  0  0  0  0  0  0  0  0  0
   47.6637   35.3477   39.0319 H   0  0  0  0  0  0  0  0  0  0  0  0
   49.2657   34.6329   39.2360 H   0  0  0  0  0  0  0  0  0  0  0  0
   48.3386   33.5955   37.2336 H   0  0  0  0  0  0  0  0  0  0  0  0
   48.1597   32.3592   38.5006 H   0  0  0  0  0  0  0  0  0  0  0  0
   44.8693   32.6240   39.0841 H   0  0  0  0  0  0  0  0  0  0  0  0
   46.4401   31.8146   39.3519 H   0  0  0  0  0  0  0  0  0  0  0  0
   45.8077   34.7180   40.1742 H   0  0  0  0  0  0  0  0  0  0  0  0
   45.7497   33.3315   41.2918 H   0  0  0  0  0  0  0  0  0  0  0  0
   46.1202   36.4507   41.9001 H   0  0  0  0  0  0  0  0  0  0  0  0
   43.4409   36.0000   45.5917 H   0  0  0  0  0  0  0  0  0  0  0  0
   44.0597   34.6089   46.5214 H   0  0  0  0  0  0  0  0  0  0  0  0
   48.0062   32.2496   44.6873 H   0  0  0  0  0  0  0  0  0  0  0  0
  1  3  1  0
  1 11  1  0
  2  1  1  0
  2  3  1  0
  4  1  1  0
  5  4  1  0
  6  5  1  0
  7  6  1  0
  7  8  1  0
  8  9  1  0
  9  4  1  0
 10 11  2  0
 10 15  1  0
 11 12  1  0
 12 17  1  0
 12 13  2  0
 14 13  1  0
 14 16  1  0
 15 14  2  0
  2 18  1  0
  2 19  1  0
  3 20  1  0
  3 21  1  0
  4 22  1  0
  5 23  1  0
  5 24  1  0
  6 25  1  0
  6 26  1  0
  8 27  1  0
  8 28  1  0
  9 29  1  0
  9 30  1  0
 10 31  1  0
 16 32  1  0
 16 33  1  0
 17 34  1  0
M  ISO  8  18  13  19  13  20  13  21  13  22  13  23  13  24  13  25  13
M  ISO  7  26  13  27  13  28  13  29  13  30  13  31  14  34   3
M  END
>  <minimizedAffinity>  (1) 
-5.66692114

>  <minimizedRMSD>  (1) 
0.0728682131

$$$$
