
     RDKit          3D

 35 37  0  0  0  0  0  0  0  0999 V2000
   48.0670   34.6300   41.7330 C   0  0  0  0  0  0  0  0  0  0  0  0
   48.8800   35.8710   41.4360 C   0  0  0  0  0  0  0  0  0  0  0  0
   49.4830   34.7320   42.1100 C   0  0  0  0  0  0  0  0  0  0  0  0
   47.7090   33.8170   40.5470 C   0  0  0  0  0  0  0  0  0  0  0  0
   48.1850   34.3980   39.2250 C   0  0  0  0  0  0  0  0  0  0  0  0
   47.8300   33.3410   38.1760 C   0  0  0  0  0  0  0  0  0  0  0  0
   46.4430   33.4260   37.9880 O   0  0  0  0  0  0  0  0  0  0  0  0
   45.9270   32.8270   39.1640 C   0  0  0  0  0  0  0  0  0  0  0  0
   46.1910   33.7250   40.3650 C   0  0  0  0  0  0  0  0  0  0  0  0
   46.1020   35.7690   42.7670 C   0  0  0  0  0  0  0  0  0  0  0  0
   47.0350   34.7390   42.8240 C   0  0  0  0  0  0  0  0  0  0  0  0
   46.9560   33.8460   43.9190 C   0  0  0  0  0  0  0  0  0  0  0  0
   45.9920   34.0290   44.8450 N   0  0  0  0  0  0  0  0  0  0  0  0
   45.1230   35.0390   44.7370 C   0  0  0  0  0  0  0  0  0  0  0  0
   45.1660   35.8940   43.7290 N   0  0  0  0  0  0  0  0  0  0  0  0
   44.0890   35.2740   45.6900 N   0  0  0  0  0  0  0  0  0  0  0  0
   47.8970   32.8070   43.9730 N   0  0  0  0  0  0  0  0  0  0  0  0
   49.1613   36.1117   40.4002 H   0  0  0  0  0  0  0  0  0  0  0  0
   48.7769   36.9441   41.6545 H   0  0  0  0  0  0  0  0  0  0  0  0
   49.7582   34.8122   43.1720 H   0  0  0  0  0  0  0  0  0  0  0  0
   50.3714   34.1127   41.9168 H   0  0  0  0  0  0  0  0  0  0  0  0
   48.1930   32.8514   40.7554 H   0  0  0  0  0  0  0  0  0  0  0  0
   47.6676   35.3447   39.0102 H   0  0  0  0  0  0  0  0  0  0  0  0
   49.2617   34.6228   39.2366 H   0  0  0  0  0  0  0  0  0  0  0  0
   48.3560   33.5486   37.2325 H   0  0  0  0  0  0  0  0  0  0  0  0
   48.1288   32.3346   38.5043 H   0  0  0  0  0  0  0  0  0  0  0  0
   44.8429   32.6785   39.0516 H   0  0  0  0  0  0  0  0  0  0  0  0
   46.4220   31.8575   39.3224 H   0  0  0  0  0  0  0  0  0  0  0  0
   45.7732   34.7264   40.1841 H   0  0  0  0  0  0  0  0  0  0  0  0
   45.7170   33.3130   41.2681 H   0  0  0  0  0  0  0  0  0  0  0  0
   46.1281   36.4853   41.9326 H   0  0  0  0  0  0  0  0  0  0  0  0
   43.4427   36.0660   45.5639 H   0  0  0  0  0  0  0  0  0  0  0  0
   43.9883   34.6517   46.5046 H   0  0  0  0  0  0  0  0  0  0  0  0
   47.8767   32.1337   44.7522 H   0  0  0  0  0  0  0  0  0  0  0  0
   48.6083   32.7174   43.2334 H   0  0  0  0  0  0  0  0  0  0  0  0
  1  3  1  0
  1 11  1  0
  2  1  1  0
  2  3  1  0
  4  1  1  0
  5  4  1  0
  6  5  1  0
  7  6  1  0
  7  8  1  0
  8  9  1  0
  9  4  1  0
 10 11  2  0
 10 15  1  0
 11 12  1  0
 12 17  1  0
 12 13  2  0
 14 13  1  0
 14 16  1  0
 15 14  2  0
  2 18  1  0
  2 19  1  0
  3 20  1  0
  3 21  1  0
  4 22  1  0
  5 23  1  0
  5 24  1  0
  6 25  1  0
  6 26  1  0
  8 27  1  0
  8 28  1  0
  9 29  1  0
  9 30  1  0
 10 31  1  0
 16 32  1  0
 16 33  1  0
 17 34  1  0
 17 35  1  0
M  ISO  8  18  13  19  13  20  13  21  13  22  13  23  13  24  13  25  13
M  ISO  6  26  13  27  13  28  13  29  13  30  13  31  14
M  END
>  <minimizedAffinity>  (1) 
-5.64326572

>  <minimizedRMSD>  (1) 
0.0575522147

$$$$
