
     RDKit          3D

 36 38  0  0  0  0  0  0  0  0999 V2000
   48.0320   34.5750   41.7240 C   0  0  0  0  0  0  0  0  0  0  0  0
   48.8600   35.8130   41.4170 C   0  0  0  0  0  0  0  0  0  0  0  0
   49.4500   34.6730   42.0840 C   0  0  0  0  0  0  0  0  0  0  0  0
   47.6510   33.7660   40.5210 C   0  0  0  0  0  0  0  0  0  0  0  0
   48.1370   34.3540   39.2010 C   0  0  0  0  0  0  0  0  0  0  0  0
   47.7420   33.3000   38.1550 C   0  0  0  0  0  0  0  0  0  0  0  0
   46.3750   33.4170   37.9680 O   0  0  0  0  0  0  0  0  0  0  0  0
   45.8320   32.8350   39.1410 C   0  0  0  0  0  0  0  0  0  0  0  0
   46.1230   33.7460   40.3410 C   0  0  0  0  0  0  0  0  0  0  0  0
   46.1450   35.8020   42.7950 C   0  0  0  0  0  0  0  0  0  0  0  0
   47.0030   34.7110   42.8030 C   0  0  0  0  0  0  0  0  0  0  0  0
   46.8610   33.7700   43.8430 C   0  0  0  0  0  0  0  0  0  0  0  0
   45.9160   33.9490   44.7840 N   0  0  0  0  0  0  0  0  0  0  0  0
   45.1060   35.0340   44.7240 C   0  0  0  0  0  0  0  0  0  0  0  0
   45.2070   35.9400   43.7630 N   0  0  0  0  0  0  0  0  0  0  0  0
   44.0950   35.2660   45.6930 N   0  0  0  0  0  0  0  0  0  0  0  0
   47.7560   32.6110   43.8740 C   0  0  0  0  0  0  0  0  0  0  0  0
   49.1361   36.0493   40.3788 H   0  0  0  0  0  0  0  0  0  0  0  0
   48.7714   36.8876   41.6346 H   0  0  0  0  0  0  0  0  0  0  0  0
   49.7357   34.7532   43.1432 H   0  0  0  0  0  0  0  0  0  0  0  0
   50.3307   34.0458   41.8816 H   0  0  0  0  0  0  0  0  0  0  0  0
   48.1038   32.7825   40.7153 H   0  0  0  0  0  0  0  0  0  0  0  0
   47.6412   35.3141   38.9948 H   0  0  0  0  0  0  0  0  0  0  0  0
   49.2169   34.5632   39.2035 H   0  0  0  0  0  0  0  0  0  0  0  0
   48.2713   33.4877   37.2092 H   0  0  0  0  0  0  0  0  0  0  0  0
   48.0097   32.2880   38.4928 H   0  0  0  0  0  0  0  0  0  0  0  0
   44.7445   32.7182   39.0236 H   0  0  0  0  0  0  0  0  0  0  0  0
   46.2889   31.8484   39.3082 H   0  0  0  0  0  0  0  0  0  0  0  0
   45.7512   34.7624   40.1443 H   0  0  0  0  0  0  0  0  0  0  0  0
   45.6226   33.3769   41.2484 H   0  0  0  0  0  0  0  0  0  0  0  0
   46.2268   36.5575   41.9997 H   0  0  0  0  0  0  0  0  0  0  0  0
   43.4945   36.0997   45.6212 H   0  0  0  0  0  0  0  0  0  0  0  0
   43.9619   34.6006   46.4679 H   0  0  0  0  0  0  0  0  0  0  0  0
   47.9666   32.3382   44.9186 H   0  0  0  0  0  0  0  0  0  0  0  0
   47.2759   31.7632   43.3633 H   0  0  0  0  0  0  0  0  0  0  0  0
   48.6976   32.8611   43.3633 H   0  0  0  0  0  0  0  0  0  0  0  0
  1  3  1  0
  1 11  1  0
  2  1  1  0
  2  3  1  0
  4  1  1  0
  5  4  1  0
  6  5  1  0
  7  6  1  0
  7  8  1  0
  8  9  1  0
  9  4  1  0
 10 11  2  0
 10 15  1  0
 11 12  1  0
 12 17  1  0
 12 13  2  0
 14 13  1  0
 14 16  1  0
 15 14  2  0
  2 18  1  0
  2 19  1  0
  3 20  1  0
  3 21  1  0
  4 22  1  0
  5 23  1  0
  5 24  1  0
  6 25  1  0
  6 26  1  0
  8 27  1  0
  8 28  1  0
  9 29  1  0
  9 30  1  0
 10 31  1  0
 16 32  1  0
 16 33  1  0
 17 34  1  0
 17 35  1  0
 17 36  1  0
M  ISO  8  18  13  19  13  20  13  21  13  22  13  23  13  24  13  25  13
M  ISO  8  26  13  27  13  28  13  29  13  30  13  31  14  34   8  35   8
M  ISO  1  36   8
M  END
>  <minimizedAffinity>  (1) 
-5.56250095

>  <minimizedRMSD>  (1) 
0.0918820053

$$$$
