
     RDKit          3D

 35 37  0  0  0  0  0  0  0  0999 V2000
   48.0390   34.5610   41.7230 C   0  0  0  0  0  0  0  0  0  0  0  0
   48.8600   35.8050   41.4110 C   0  0  0  0  0  0  0  0  0  0  0  0
   49.4520   34.6690   42.0800 C   0  0  0  0  0  0  0  0  0  0  0  0
   47.6580   33.7680   40.5160 C   0  0  0  0  0  0  0  0  0  0  0  0
   48.1350   34.3480   39.1960 C   0  0  0  0  0  0  0  0  0  0  0  0
   47.7390   33.3040   38.1430 C   0  0  0  0  0  0  0  0  0  0  0  0
   46.3560   33.4330   37.9630 O   0  0  0  0  0  0  0  0  0  0  0  0
   45.8320   32.8290   39.1430 C   0  0  0  0  0  0  0  0  0  0  0  0
   46.1270   33.7350   40.3340 C   0  0  0  0  0  0  0  0  0  0  0  0
   46.1410   35.7950   42.7940 C   0  0  0  0  0  0  0  0  0  0  0  0
   47.0100   34.7070   42.7940 C   0  0  0  0  0  0  0  0  0  0  0  0
   46.8560   33.7820   43.8410 C   0  0  0  0  0  0  0  0  0  0  0  0
   45.9040   33.9730   44.7800 N   0  0  0  0  0  0  0  0  0  0  0  0
   45.1050   35.0420   44.7180 C   0  0  0  0  0  0  0  0  0  0  0  0
   45.2040   35.9450   43.7550 N   0  0  0  0  0  0  0  0  0  0  0  0
   44.0900   35.2670   45.6950 N   0  0  0  0  0  0  0  0  0  0  0  0
   47.7120   32.6140   43.9170 C   0  0  0  0  0  0  0  0  0  0  0  0
   47.5880   31.5060   44.4800 O   0  0  0  0  0  0  0  0  0  0  0  0
   49.1349   36.0399   40.3721 H   0  0  0  0  0  0  0  0  0  0  0  0
   48.7668   36.8800   41.6250 H   0  0  0  0  0  0  0  0  0  0  0  0
   49.7375   34.7532   43.1390 H   0  0  0  0  0  0  0  0  0  0  0  0
   50.3353   34.0453   41.8780 H   0  0  0  0  0  0  0  0  0  0  0  0
   48.1225   32.7904   40.7124 H   0  0  0  0  0  0  0  0  0  0  0  0
   47.6401   35.3093   38.9938 H   0  0  0  0  0  0  0  0  0  0  0  0
   49.2168   34.5472   39.1968 H   0  0  0  0  0  0  0  0  0  0  0  0
   48.2660   33.4980   37.1972 H   0  0  0  0  0  0  0  0  0  0  0  0
   48.0072   32.2875   38.4669 H   0  0  0  0  0  0  0  0  0  0  0  0
   44.7448   32.6977   39.0392 H   0  0  0  0  0  0  0  0  0  0  0  0
   46.2998   31.8455   39.2977 H   0  0  0  0  0  0  0  0  0  0  0  0
   45.7491   34.7493   40.1382 H   0  0  0  0  0  0  0  0  0  0  0  0
   45.6346   33.3574   41.2423 H   0  0  0  0  0  0  0  0  0  0  0  0
   46.2192   36.5473   41.9953 H   0  0  0  0  0  0  0  0  0  0  0  0
   43.4853   36.0981   45.6275 H   0  0  0  0  0  0  0  0  0  0  0  0
   43.9619   34.5983   46.4679 H   0  0  0  0  0  0  0  0  0  0  0  0
   48.6595   32.7262   43.3696 H   0  0  0  0  0  0  0  0  0  0  0  0
  1  3  1  0
  1 11  1  0
  2  1  1  0
  2  3  1  0
  4  1  1  0
  5  4  1  0
  6  5  1  0
  7  6  1  0
  7  8  1  0
  8  9  1  0
  9  4  1  0
 10 11  2  0
 10 15  1  0
 11 12  1  0
 12 17  1  0
 12 13  2  0
 14 13  1  0
 14 16  1  0
 15 14  2  0
 17 18  2  0
  2 19  1  0
  2 20  1  0
  3 21  1  0
  3 22  1  0
  4 23  1  0
  5 24  1  0
  5 25  1  0
  6 26  1  0
  6 27  1  0
  8 28  1  0
  8 29  1  0
  9 30  1  0
  9 31  1  0
 10 32  1  0
 16 33  1  0
 16 34  1  0
 17 35  1  0
M  ISO  8  19  13  20  13  21  13  22  13  23  13  24  13  25  13  26  13
M  ISO  7  27  13  28  13  29  13  30  13  31  13  32  14  35   6
M  END
>  <minimizedAffinity>  (1) 
-5.38841772

>  <minimizedRMSD>  (1) 
0.375220597

$$$$
