
     RDKit          3D

 36 38  0  0  0  0  0  0  0  0999 V2000
   47.9010   34.3610   41.4160 C   0  0  0  0  0  0  0  0  0  0  0  0
   48.7850   35.5750   41.1010 C   0  0  0  0  0  0  0  0  0  0  0  0
   49.3160   34.4110   41.7740 C   0  0  0  0  0  0  0  0  0  0  0  0
   47.4840   33.6150   40.2040 C   0  0  0  0  0  0  0  0  0  0  0  0
   48.0160   34.1650   38.8890 C   0  0  0  0  0  0  0  0  0  0  0  0
   47.5420   33.1750   37.8220 C   0  0  0  0  0  0  0  0  0  0  0  0
   46.1670   33.4140   37.6360 O   0  0  0  0  0  0  0  0  0  0  0  0
   45.5900   32.8470   38.8060 C   0  0  0  0  0  0  0  0  0  0  0  0
   45.9470   33.7150   40.0080 C   0  0  0  0  0  0  0  0  0  0  0  0
   46.2570   35.8090   42.6240 C   0  0  0  0  0  0  0  0  0  0  0  0
   46.8860   34.5780   42.4830 C   0  0  0  0  0  0  0  0  0  0  0  0
   46.5170   33.5710   43.3900 C   0  0  0  0  0  0  0  0  0  0  0  0
   45.6000   33.8080   44.3370 N   0  0  0  0  0  0  0  0  0  0  0  0
   45.0280   35.0210   44.4200 C   0  0  0  0  0  0  0  0  0  0  0  0
   45.3360   36.0070   43.5950 N   0  0  0  0  0  0  0  0  0  0  0  0
   44.0490   35.3240   45.4100 N   0  0  0  0  0  0  0  0  0  0  0  0
   47.1160   32.2470   43.3240 C   0  0  0  0  0  0  0  0  0  0  0  0
   46.7060   31.2110   42.7350 O   0  0  0  0  0  0  0  0  0  0  0  0
   48.2770   31.7530   43.8720 O   0  0  0  0  0  0  0  0  0  0  0  0
   49.0747   35.7947   40.0628 H   0  0  0  0  0  0  0  0  0  0  0  0
   48.7429   36.6538   41.3118 H   0  0  0  0  0  0  0  0  0  0  0  0
   49.6020   34.4843   42.8336 H   0  0  0  0  0  0  0  0  0  0  0  0
   50.1696   33.7467   41.5736 H   0  0  0  0  0  0  0  0  0  0  0  0
   47.8747   32.6042   40.3926 H   0  0  0  0  0  0  0  0  0  0  0  0
   47.6059   35.1672   38.6954 H   0  0  0  0  0  0  0  0  0  0  0  0
   49.1111   34.2681   38.8982 H   0  0  0  0  0  0  0  0  0  0  0  0
   48.0870   33.3409   36.8810 H   0  0  0  0  0  0  0  0  0  0  0  0
   47.7261   32.1363   38.1339 H   0  0  0  0  0  0  0  0  0  0  0  0
   44.4965   32.8042   38.6941 H   0  0  0  0  0  0  0  0  0  0  0  0
   45.9784   31.8287   38.9552 H   0  0  0  0  0  0  0  0  0  0  0  0
   45.6581   34.7593   39.8182 H   0  0  0  0  0  0  0  0  0  0  0  0
   45.4148   33.3743   40.9084 H   0  0  0  0  0  0  0  0  0  0  0  0
   46.5106   36.6313   41.9388 H   0  0  0  0  0  0  0  0  0  0  0  0
   43.6286   36.2635   45.4480 H   0  0  0  0  0  0  0  0  0  0  0  0
   43.7617   34.6035   46.0876 H   0  0  0  0  0  0  0  0  0  0  0  0
   48.5332   30.8088   43.7205 H   0  0  0  0  0  0  0  0  0  0  0  0
  1  3  1  0
  1 11  1  0
  2  1  1  0
  2  3  1  0
  4  1  1  0
  5  4  1  0
  6  5  1  0
  7  6  1  0
  7  8  1  0
  8  9  1  0
  9  4  1  0
 10 15  2  0
 11 10  1  0
 11 12  2  0
 12 13  1  0
 13 14  2  0
 14 16  1  0
 15 14  1  0
 17 12  1  0
 17 19  1  0
 18 17  2  0
  2 20  1  0
  2 21  1  0
  3 22  1  0
  3 23  1  0
  4 24  1  0
  5 25  1  0
  5 26  1  0
  6 27  1  0
  6 28  1  0
  8 29  1  0
  8 30  1  0
  9 31  1  0
  9 32  1  0
 10 33  1  0
 16 34  1  0
 16 35  1  0
 19 36  1  0
M  ISO  8  20  13  21  13  22  13  23  13  24  13  25  13  26  13  27  13
M  ISO  7  28  13  29  13  30  13  31  13  32  13  33  14  36   3
M  END
>  <minimizedAffinity>  (1) 
-4.90763617

>  <minimizedRMSD>  (1) 
0.656585455

$$$$
