
     RDKit          3D

 30 32  0  0  0  0  0  0  0  0999 V2000
   45.9360   32.8420   47.0260 C   0  0  0  0  0  0  0  0  0  0  0  0
   47.2020   32.3640   47.3120 C   0  0  0  0  0  0  0  0  0  0  0  0
   47.4470   31.5360   48.3960 C   0  0  0  0  0  0  0  0  0  0  0  0
   46.4040   31.1600   49.2340 C   0  0  0  0  0  0  0  0  0  0  0  0
   45.1320   31.6280   48.9640 C   0  0  0  0  0  0  0  0  0  0  0  0
   44.9260   32.4520   47.8750 C   0  0  0  0  0  0  0  0  0  0  0  0
   44.5510   35.5340   44.9870 C   0  0  0  0  0  0  0  0  0  0  0  0
   45.2160   35.4110   43.7680 C   0  0  0  0  0  0  0  0  0  0  0  0
   46.1650   34.3810   43.6350 C   0  0  0  0  0  0  0  0  0  0  0  0
   46.3700   33.5730   44.7040 N   0  0  0  0  0  0  0  0  0  0  0  0
   45.7120   33.7140   45.8760 C   0  0  0  0  0  0  0  0  0  0  0  0
   44.7970   34.7030   46.0120 N   0  0  0  0  0  0  0  0  0  0  0  0
   48.1780   28.7860   47.2850 Cl  0  0  0  0  0  0  0  0  0  0  0  0
   49.2230   29.7790   48.2760 C   0  0  0  0  0  0  0  0  0  0  0  0
   48.7710   31.0170   48.7210 C   0  0  0  0  0  0  0  0  0  0  0  0
   49.6510   31.7380   49.4950 C   0  0  0  0  0  0  0  0  0  0  0  0
   50.9250   31.2980   49.8400 C   0  0  0  0  0  0  0  0  0  0  0  0
   51.3430   30.0670   49.3840 C   0  0  0  0  0  0  0  0  0  0  0  0
   50.4820   29.3240   48.6060 C   0  0  0  0  0  0  0  0  0  0  0  0
   48.0399   32.6498   46.6592 H   0  0  0  0  0  0  0  0  0  0  0  0
   46.5875   30.5021   50.0962 H   0  0  0  0  0  0  0  0  0  0  0  0
   44.2892   31.3461   49.6122 H   0  0  0  0  0  0  0  0  0  0  0  0
   43.9062   32.8136   47.6770 H   0  0  0  0  0  0  0  0  0  0  0  0
   43.8052   36.3329   45.1122 H   0  0  0  0  0  0  0  0  0  0  0  0
   45.0051   36.0983   42.9355 H   0  0  0  0  0  0  0  0  0  0  0  0
   46.7209   34.2364   42.6969 H   0  0  0  0  0  0  0  0  0  0  0  0
   49.3274   32.7226   49.8636 H   0  0  0  0  0  0  0  0  0  0  0  0
   51.5844   31.9197   50.4635 H   0  0  0  0  0  0  0  0  0  0  0  0
   52.3434   29.6852   49.6358 H   0  0  0  0  0  0  0  0  0  0  0  0
   50.8083   28.3401   48.2378 H   0  0  0  0  0  0  0  0  0  0  0  0
  1  2  2  0
  1  6  1  0
  2  3  1  0
  3 15  1  0
  3  4  2  0
  5  4  1  0
  6  5  2  0
  7 12  2  0
  8  7  1  0
  9  8  2  0
  9 10  1  0
 10 11  2  0
 11 12  1  0
 11  1  1  0
 13 14  1  0
 14 19  2  0
 14 15  1  0
 15 16  2  0
 16 17  1  0
 18 17  2  0
 19 18  1  0
  2 20  1  0
  4 21  1  0
  5 22  1  0
  6 23  1  0
  7 24  1  0
  8 25  1  0
  9 26  1  0
 16 27  1  0
 17 28  1  0
 18 29  1  0
 19 30  1  0
M  ISO  8  20  14  21  14  22  14  23  14  24  14  25  14  26  14  27  14
M  ISO  3  28  14  29  14  30  14
M  END
>  <minimizedAffinity>  (1) 
-5.9947691

>  <minimizedRMSD>  (1) 
0.603965461

$$$$
