
     RDKit          3D

 30 32  0  0  0  0  0  0  0  0999 V2000
   46.0340   32.7420   47.0480 C   0  0  0  0  0  0  0  0  0  0  0  0
   47.2630   32.2300   47.3970 C   0  0  0  0  0  0  0  0  0  0  0  0
   47.4460   31.4280   48.5150 C   0  0  0  0  0  0  0  0  0  0  0  0
   46.3690   31.1200   49.3220 C   0  0  0  0  0  0  0  0  0  0  0  0
   45.1240   31.6230   48.9930 C   0  0  0  0  0  0  0  0  0  0  0  0
   44.9780   32.4210   47.8670 C   0  0  0  0  0  0  0  0  0  0  0  0
   44.7260   35.3560   44.8510 C   0  0  0  0  0  0  0  0  0  0  0  0
   45.4900   35.2230   43.6810 C   0  0  0  0  0  0  0  0  0  0  0  0
   46.4750   34.2130   43.6490 C   0  0  0  0  0  0  0  0  0  0  0  0
   46.6390   33.4160   44.7500 N   0  0  0  0  0  0  0  0  0  0  0  0
   45.8730   33.5850   45.8610 C   0  0  0  0  0  0  0  0  0  0  0  0
   44.9300   34.5500   45.8950 N   0  0  0  0  0  0  0  0  0  0  0  0
   48.3120   28.9990   47.5410 F   0  0  0  0  0  0  0  0  0  0  0  0
   49.2110   29.7480   48.2390 C   0  0  0  0  0  0  0  0  0  0  0  0
   48.8120   30.9680   48.7420 C   0  0  0  0  0  0  0  0  0  0  0  0
   49.6390   31.8120   49.4650 C   0  0  0  0  0  0  0  0  0  0  0  0
   50.9330   31.3670   49.6750 C   0  0  0  0  0  0  0  0  0  0  0  0
   51.3550   30.1350   49.1760 C   0  0  0  0  0  0  0  0  0  0  0  0
   50.5120   29.3260   48.4640 C   0  0  0  0  0  0  0  0  0  0  0  0
   48.1329   32.4652   46.7662 H   0  0  0  0  0  0  0  0  0  0  0  0
   46.4992   30.4855   50.2111 H   0  0  0  0  0  0  0  0  0  0  0  0
   44.2517   31.3914   49.6219 H   0  0  0  0  0  0  0  0  0  0  0  0
   43.9795   32.8113   47.6207 H   0  0  0  0  0  0  0  0  0  0  0  0
   43.9501   36.1336   44.9081 H   0  0  0  0  0  0  0  0  0  0  0  0
   45.3263   35.8844   42.8174 H   0  0  0  0  0  0  0  0  0  0  0  0
   47.0999   34.0686   42.7553 H   0  0  0  0  0  0  0  0  0  0  0  0
   49.2876   32.7805   49.8503 H   0  0  0  0  0  0  0  0  0  0  0  0
   51.6372   31.9931   50.2426 H   0  0  0  0  0  0  0  0  0  0  0  0
   52.3887   29.8063   49.3589 H   0  0  0  0  0  0  0  0  0  0  0  0
   50.8608   28.3573   48.0768 H   0  0  0  0  0  0  0  0  0  0  0  0
  1  2  2  0
  1  6  1  0
  2  3  1  0
  3 15  1  0
  3  4  2  0
  5  4  1  0
  6  5  2  0
  7 12  2  0
  8  7  1  0
  9  8  2  0
  9 10  1  0
 10 11  2  0
 11 12  1  0
 11  1  1  0
 13 14  1  0
 14 19  2  0
 14 15  1  0
 15 16  2  0
 16 17  1  0
 18 17  2  0
 19 18  1  0
  2 20  1  0
  4 21  1  0
  5 22  1  0
  6 23  1  0
  7 24  1  0
  8 25  1  0
  9 26  1  0
 16 27  1  0
 17 28  1  0
 18 29  1  0
 19 30  1  0
M  ISO  8  20  14  21  14  22  14  23  14  24  14  25  14  26  14  27  14
M  ISO  3  28  14  29  14  30  14
M  END
>  <minimizedAffinity>  (1) 
-5.9368453

>  <minimizedRMSD>  (1) 
1.01747215

$$$$
