
     RDKit          3D

 36 38  0  0  0  0  0  0  0  0999 V2000
   45.9620   32.8360   46.9820 C   0  0  0  0  0  0  0  0  0  0  0  0
   47.1870   32.2550   47.2130 C   0  0  0  0  0  0  0  0  0  0  0  0
   47.4470   31.4150   48.2770 C   0  0  0  0  0  0  0  0  0  0  0  0
   46.4480   31.1250   49.1720 C   0  0  0  0  0  0  0  0  0  0  0  0
   45.2170   31.6850   48.9760 C   0  0  0  0  0  0  0  0  0  0  0  0
   44.9760   32.5280   47.8970 C   0  0  0  0  0  0  0  0  0  0  0  0
   44.5480   35.5490   44.9870 C   0  0  0  0  0  0  0  0  0  0  0  0
   45.2180   35.4350   43.7580 C   0  0  0  0  0  0  0  0  0  0  0  0
   46.1620   34.4140   43.6230 C   0  0  0  0  0  0  0  0  0  0  0  0
   46.4040   33.5670   44.6730 N   0  0  0  0  0  0  0  0  0  0  0  0
   45.7310   33.7140   45.8500 C   0  0  0  0  0  0  0  0  0  0  0  0
   44.8240   34.6970   45.9760 N   0  0  0  0  0  0  0  0  0  0  0  0
   48.7700   30.8160   48.4820 C   0  0  0  0  0  0  0  0  0  0  0  0
   49.2010   30.6870   49.9130 C   0  0  0  0  0  0  0  0  0  0  0  0
   50.1200   29.5000   50.1260 C   0  0  0  0  0  0  0  0  0  0  0  0
   50.9480   29.1650   48.9220 C   0  0  0  0  0  0  0  0  0  0  0  0
   50.1840   29.0480   47.6410 C   0  0  0  0  0  0  0  0  0  0  0  0
   48.7350   29.3950   47.9190 C   0  0  0  0  0  0  0  0  0  0  0  0
   48.0053   32.4718   46.5106 H   0  0  0  0  0  0  0  0  0  0  0  0
   46.6337   30.4578   50.0266 H   0  0  0  0  0  0  0  0  0  0  0  0
   44.4037   31.4653   49.6833 H   0  0  0  0  0  0  0  0  0  0  0  0
   43.9729   32.9609   47.7693 H   0  0  0  0  0  0  0  0  0  0  0  0
   43.7971   36.3392   45.1340 H   0  0  0  0  0  0  0  0  0  0  0  0
   45.0065   36.1266   42.9292 H   0  0  0  0  0  0  0  0  0  0  0  0
   46.7094   34.2903   42.6769 H   0  0  0  0  0  0  0  0  0  0  0  0
   49.4807   31.4926   47.9849 H   0  0  0  0  0  0  0  0  0  0  0  0
   49.7319   31.6042   50.2078 H   0  0  0  0  0  0  0  0  0  0  0  0
   48.3006   30.5331   50.5259 H   0  0  0  0  0  0  0  0  0  0  0  0
   50.7971   29.7288   50.9622 H   0  0  0  0  0  0  0  0  0  0  0  0
   49.4820   28.6284   50.3343 H   0  0  0  0  0  0  0  0  0  0  0  0
   51.7039   29.9544   48.7975 H   0  0  0  0  0  0  0  0  0  0  0  0
   51.3805   28.1719   49.1134 H   0  0  0  0  0  0  0  0  0  0  0  0
   50.2535   28.0188   47.2589 H   0  0  0  0  0  0  0  0  0  0  0  0
   50.6002   29.7324   46.8871 H   0  0  0  0  0  0  0  0  0  0  0  0
   48.1444   29.3609   46.9916 H   0  0  0  0  0  0  0  0  0  0  0  0
   48.2665   28.6853   48.6167 H   0  0  0  0  0  0  0  0  0  0  0  0
  1  2  2  0
  1  6  1  0
  2  3  1  0
  3 13  1  0
  3  4  2  0
  5  4  1  0
  6  5  2  0
  7 12  2  0
  8  7  1  0
  9  8  2  0
  9 10  1  0
 10 11  2  0
 11 12  1  0
 11  1  1  0
 13 14  1  0
 14 15  1  0
 16 15  1  0
 17 18  1  0
 17 16  1  0
 18 13  1  0
  2 19  1  0
  4 20  1  0
  5 21  1  0
  6 22  1  0
  7 23  1  0
  8 24  1  0
  9 25  1  0
 13 26  1  0
 14 27  1  0
 14 28  1  0
 15 29  1  0
 15 30  1  0
 16 31  1  0
 16 32  1  0
 17 33  1  0
 17 34  1  0
 18 35  1  0
 18 36  1  0
M  ISO  8  19  14  20  14  21  14  22  14  23  14  24  14  25  14  26  13
M  ISO  8  27  13  28  13  29  13  30  13  31  13  32  13  33  13  34  13
M  ISO  2  35  13  36  13
M  END
>  <minimizedAffinity>  (1) 
-5.77807188

>  <minimizedRMSD>  (1) 
0.398066729

$$$$
