
     RDKit          3D

 28 30  0  0  0  0  0  0  0  0999 V2000
   45.8950   32.7970   47.0600 C   0  0  0  0  0  0  0  0  0  0  0  0
   47.1620   32.3540   47.4040 C   0  0  0  0  0  0  0  0  0  0  0  0
   47.3760   31.5230   48.4840 C   0  0  0  0  0  0  0  0  0  0  0  0
   46.3250   31.1070   49.2580 C   0  0  0  0  0  0  0  0  0  0  0  0
   45.0500   31.5310   48.9400 C   0  0  0  0  0  0  0  0  0  0  0  0
   44.8610   32.3650   47.8520 C   0  0  0  0  0  0  0  0  0  0  0  0
   44.5630   35.5220   45.0320 C   0  0  0  0  0  0  0  0  0  0  0  0
   45.2470   35.4080   43.8170 C   0  0  0  0  0  0  0  0  0  0  0  0
   46.1840   34.3760   43.6900 C   0  0  0  0  0  0  0  0  0  0  0  0
   46.3970   33.5250   44.7420 N   0  0  0  0  0  0  0  0  0  0  0  0
   45.7040   33.6780   45.9060 C   0  0  0  0  0  0  0  0  0  0  0  0
   44.8040   34.6660   46.0350 N   0  0  0  0  0  0  0  0  0  0  0  0
   48.7550   31.1270   48.7430 C   0  0  0  0  0  0  0  0  0  0  0  0
   49.3240   29.9480   48.3120 C   0  0  0  0  0  0  0  0  0  0  0  0
   50.6380   29.6210   48.5850 C   0  0  0  0  0  0  0  0  0  0  0  0
   51.3960   30.4890   49.3000 N   0  0  0  0  0  0  0  0  0  0  0  0
   50.8510   31.6430   49.7240 C   0  0  0  0  0  0  0  0  0  0  0  0
   49.5520   31.9490   49.4470 N   0  0  0  0  0  0  0  0  0  0  0  0
   48.0224   32.6744   46.7981 H   0  0  0  0  0  0  0  0  0  0  0  0
   46.4943   30.4450   50.1200 H   0  0  0  0  0  0  0  0  0  0  0  0
   44.1911   31.2083   49.5468 H   0  0  0  0  0  0  0  0  0  0  0  0
   43.8396   32.6953   47.6121 H   0  0  0  0  0  0  0  0  0  0  0  0
   43.8200   36.3221   45.1656 H   0  0  0  0  0  0  0  0  0  0  0  0
   45.0548   36.1062   42.9890 H   0  0  0  0  0  0  0  0  0  0  0  0
   46.7451   34.2493   42.7524 H   0  0  0  0  0  0  0  0  0  0  0  0
   48.7109   29.2435   47.7309 H   0  0  0  0  0  0  0  0  0  0  0  0
   51.0630   28.6713   48.2280 H   0  0  0  0  0  0  0  0  0  0  0  0
   51.4627   32.3505   50.3030 H   0  0  0  0  0  0  0  0  0  0  0  0
  1  2  2  0
  1  6  1  0
  2  3  1  0
  3 13  1  0
  3  4  2  0
  5  4  1  0
  6  5  2  0
  7 12  2  0
  8  7  1  0
  9  8  2  0
  9 10  1  0
 10 11  2  0
 11 12  1  0
 11  1  1  0
 13 18  2  0
 14 15  2  0
 14 13  1  0
 15 16  1  0
 16 17  2  0
 18 17  1  0
  2 19  1  0
  4 20  1  0
  5 21  1  0
  6 22  1  0
  7 23  1  0
  8 24  1  0
  9 25  1  0
 14 26  1  0
 15 27  1  0
 17 28  1  0
M  ISO  8  19  14  20  14  21  14  22  14  23  14  24  14  25  14  26  14
M  ISO  2  27  14  28  14
M  END
>  <minimizedAffinity>  (1) 
-5.66690731

>  <minimizedRMSD>  (1) 
0.732510805

$$$$
