
     RDKit          3D

 23 24  0  0  0  0  0  0  0  0999 V2000
   46.0610   32.7650   47.0430 C   0  0  0  0  0  0  0  0  0  0  0  0
   47.2980   32.3650   47.4540 C   0  0  0  0  0  0  0  0  0  0  0  0
   47.4910   31.5730   48.5680 C   0  0  0  0  0  0  0  0  0  0  0  0
   46.4180   31.1550   49.3120 C   0  0  0  0  0  0  0  0  0  0  0  0
   45.1700   31.5400   48.9240 C   0  0  0  0  0  0  0  0  0  0  0  0
   44.9940   32.3370   47.8000 C   0  0  0  0  0  0  0  0  0  0  0  0
   44.7120   35.3620   44.8430 C   0  0  0  0  0  0  0  0  0  0  0  0
   45.4550   35.2330   43.6720 C   0  0  0  0  0  0  0  0  0  0  0  0
   46.4350   34.2370   43.6420 C   0  0  0  0  0  0  0  0  0  0  0  0
   46.6300   33.4380   44.7340 N   0  0  0  0  0  0  0  0  0  0  0  0
   45.8730   33.6050   45.8590 C   0  0  0  0  0  0  0  0  0  0  0  0
   44.9140   34.5720   45.9040 N   0  0  0  0  0  0  0  0  0  0  0  0
   48.8340   31.1270   49.0310 C   0  0  0  0  0  0  0  0  0  0  0  0
   49.4010   30.3930   48.0060 F   0  0  0  0  0  0  0  0  0  0  0  0
   48.7680   30.4000   50.2020 F   0  0  0  0  0  0  0  0  0  0  0  0
   49.5810   32.2900   49.2250 F   0  0  0  0  0  0  0  0  0  0  0  0
   48.1766   32.6860   46.8752 H   0  0  0  0  0  0  0  0  0  0  0  0
   46.5613   30.5236   50.2013 H   0  0  0  0  0  0  0  0  0  0  0  0
   44.2942   31.2169   49.5059 H   0  0  0  0  0  0  0  0  0  0  0  0
   43.9760   32.6337   47.5074 H   0  0  0  0  0  0  0  0  0  0  0  0
   43.9343   36.1381   44.8974 H   0  0  0  0  0  0  0  0  0  0  0  0
   45.2778   35.8881   42.8063 H   0  0  0  0  0  0  0  0  0  0  0  0
   47.0490   34.0961   42.7403 H   0  0  0  0  0  0  0  0  0  0  0  0
  1  2  2  0
  1  6  1  0
  2  3  1  0
  3 13  1  0
  3  4  2  0
  5  4  1  0
  6  5  2  0
  7 12  2  0
  8  7  1  0
  9  8  2  0
  9 10  1  0
 10 11  2  0
 11 12  1  0
 11  1  1  0
 13 16  1  0
 13 15  1  0
 14 13  1  0
  2 17  1  0
  4 18  1  0
  5 19  1  0
  6 20  1  0
  7 21  1  0
  8 22  1  0
  9 23  1  0
M  ISO  7  17  14  18  14  19  14  20  14  21  14  22  14  23  14
M  END
>  <minimizedAffinity>  (1) 
-5.57436514

>  <minimizedRMSD>  (1) 
0.610865593

$$$$
