
     RDKit          3D

 16 16  0  0  0  0  0  0  0  0999 V2000
   44.5990   35.9380   44.3760 C   0  0  0  0  0  0  0  0  0  0  0  0
   45.3520   35.8520   43.1790 C   0  0  0  0  0  0  0  0  0  0  0  0
   46.2880   34.8010   43.1090 C   0  0  0  0  0  0  0  0  0  0  0  0
   46.4110   33.9520   44.1690 N   0  0  0  0  0  0  0  0  0  0  0  0
   45.6530   34.0940   45.2900 C   0  0  0  0  0  0  0  0  0  0  0  0
   44.7570   35.0830   45.3830 N   0  0  0  0  0  0  0  0  0  0  0  0
   47.0560   34.7340   41.8600 C   0  0  0  0  0  0  0  0  0  0  0  0
   47.8690   33.6200   41.9060 F   0  0  0  0  0  0  0  0  0  0  0  0
   47.9210   35.8270   41.8860 F   0  0  0  0  0  0  0  0  0  0  0  0
   46.2930   34.6830   40.7460 F   0  0  0  0  0  0  0  0  0  0  0  0
   45.8300   33.1460   46.4020 C   0  0  0  0  0  0  0  0  0  0  0  0
   43.8554   36.7423   44.4766 H   0  0  0  0  0  0  0  0  0  0  0  0
   45.2140   36.5643   42.3522 H   0  0  0  0  0  0  0  0  0  0  0  0
   45.7303   33.6800   47.3585 H   0  0  0  0  0  0  0  0  0  0  0  0
   45.0631   32.3599   46.3393 H   0  0  0  0  0  0  0  0  0  0  0  0
   46.8289   32.6896   46.3393 H   0  0  0  0  0  0  0  0  0  0  0  0
  1  6  2  0
  2  1  1  0
  3  2  2  0
  3  4  1  0
  4  5  2  0
  5  6  1  0
  5 11  1  0
  7  9  1  0
  7  8  1  0
  7  3  1  0
 10  7  1  0
  1 12  1  0
  2 13  1  0
 11 14  1  0
 11 15  1  0
 11 16  1  0
M  ISO  5  12  14  13  14  14   8  15   8  16   8
M  END
>  <minimizedAffinity>  (1) 
-4.17753887

>  <minimizedRMSD>  (1) 
0.0504833311

$$$$
