
     RDKit          3D

 27 28  0  0  0  0  0  0  0  0999 V2000
   46.0620   32.7710   47.0320 C   0  0  0  0  0  0  0  0  0  0  0  0
   47.3170   32.2940   47.3730 C   0  0  0  0  0  0  0  0  0  0  0  0
   47.4830   31.4960   48.4890 C   0  0  0  0  0  0  0  0  0  0  0  0
   46.4340   31.1430   49.2960 C   0  0  0  0  0  0  0  0  0  0  0  0
   45.1920   31.6080   48.9690 C   0  0  0  0  0  0  0  0  0  0  0  0
   45.0000   32.4110   47.8550 C   0  0  0  0  0  0  0  0  0  0  0  0
   44.7090   35.3650   44.8430 C   0  0  0  0  0  0  0  0  0  0  0  0
   45.4440   35.2440   43.6660 C   0  0  0  0  0  0  0  0  0  0  0  0
   46.4230   34.2500   43.6280 C   0  0  0  0  0  0  0  0  0  0  0  0
   46.5950   33.4690   44.7350 N   0  0  0  0  0  0  0  0  0  0  0  0
   45.8620   33.6180   45.8580 C   0  0  0  0  0  0  0  0  0  0  0  0
   44.9030   34.5810   45.9160 N   0  0  0  0  0  0  0  0  0  0  0  0
   48.8190   31.0130   48.8150 C   0  0  0  0  0  0  0  0  0  0  0  0
   49.7020   31.7100   49.4900 C   0  0  0  0  0  0  0  0  0  0  0  0
   51.0670   31.2580   49.8410 C   0  0  0  0  0  0  0  0  0  0  0  0
   48.1871   32.5521   46.7515 H   0  0  0  0  0  0  0  0  0  0  0  0
   46.5869   30.5054   50.1792 H   0  0  0  0  0  0  0  0  0  0  0  0
   44.3307   31.3413   49.5992 H   0  0  0  0  0  0  0  0  0  0  0  0
   43.9879   32.7704   47.6174 H   0  0  0  0  0  0  0  0  0  0  0  0
   43.9312   36.1410   44.8963 H   0  0  0  0  0  0  0  0  0  0  0  0
   45.2609   35.9029   42.8044 H   0  0  0  0  0  0  0  0  0  0  0  0
   47.0400   34.0996   42.7298 H   0  0  0  0  0  0  0  0  0  0  0  0
   49.1033   30.0061   48.4755 H   0  0  0  0  0  0  0  0  0  0  0  0
   49.4028   32.7147   49.8231 H   0  0  0  0  0  0  0  0  0  0  0  0
   51.1717   31.2233   50.9355 H   0  0  0  0  0  0  0  0  0  0  0  0
   51.2396   30.2548   49.4242 H   0  0  0  0  0  0  0  0  0  0  0  0
   51.8042   31.9600   49.4242 H   0  0  0  0  0  0  0  0  0  0  0  0
  1  2  2  0
  1  6  1  0
  2  3  1  0
  3 13  1  0
  3  4  2  0
  5  4  1  0
  6  5  2  0
  7 12  2  0
  8  7  1  0
  9  8  2  0
  9 10  1  0
 10 11  2  0
 11 12  1  0
 11  1  1  0
 13 14  2  0
 14 15  1  0
  2 16  1  0
  4 17  1  0
  5 18  1  0
  6 19  1  0
  7 20  1  0
  8 21  1  0
  9 22  1  0
 13 23  1  0
 14 24  1  0
 15 25  1  0
 15 26  1  0
 15 27  1  0
M  ISO  8  16  14  17  14  18  14  19  14  20  14  21  14  22  14  25   8
M  ISO  2  26   8  27   8
M  END
>  <minimizedAffinity>  (1) 
-5.30007505

>  <minimizedRMSD>  (1) 
0.503546596

$$$$
