
     RDKit          3D

 26 27  0  0  0  0  0  0  0  0999 V2000
   46.0490   32.7580   46.9970 C   0  0  0  0  0  0  0  0  0  0  0  0
   47.2560   32.1750   47.2720 C   0  0  0  0  0  0  0  0  0  0  0  0
   47.4900   31.3630   48.3680 C   0  0  0  0  0  0  0  0  0  0  0  0
   46.4540   31.1150   49.2440 C   0  0  0  0  0  0  0  0  0  0  0  0
   45.2320   31.6820   49.0000 C   0  0  0  0  0  0  0  0  0  0  0  0
   45.0460   32.4860   47.8930 C   0  0  0  0  0  0  0  0  0  0  0  0
   44.7040   35.3830   44.8480 C   0  0  0  0  0  0  0  0  0  0  0  0
   45.4500   35.2690   43.6730 C   0  0  0  0  0  0  0  0  0  0  0  0
   46.4360   34.2700   43.6140 C   0  0  0  0  0  0  0  0  0  0  0  0
   46.6130   33.4710   44.6980 N   0  0  0  0  0  0  0  0  0  0  0  0
   45.8770   33.6020   45.8240 C   0  0  0  0  0  0  0  0  0  0  0  0
   44.9270   34.5600   45.8890 N   0  0  0  0  0  0  0  0  0  0  0  0
   48.8370   30.7680   48.5920 C   0  0  0  0  0  0  0  0  0  0  0  0
   49.6500   31.5800   49.5680 C   0  0  0  0  0  0  0  0  0  0  0  0
   48.0905   32.3630   46.5804 H   0  0  0  0  0  0  0  0  0  0  0  0
   46.6070   30.4726   50.1237 H   0  0  0  0  0  0  0  0  0  0  0  0
   44.3947   31.4962   49.6888 H   0  0  0  0  0  0  0  0  0  0  0  0
   44.0527   32.9267   47.7223 H   0  0  0  0  0  0  0  0  0  0  0  0
   43.9243   36.1553   44.9235 H   0  0  0  0  0  0  0  0  0  0  0  0
   45.2712   35.9405   42.8203 H   0  0  0  0  0  0  0  0  0  0  0  0
   47.0503   34.1380   42.7111 H   0  0  0  0  0  0  0  0  0  0  0  0
   48.7152   29.7498   48.9899 H   0  0  0  0  0  0  0  0  0  0  0  0
   49.3700   30.7541   47.6299 H   0  0  0  0  0  0  0  0  0  0  0  0
   49.3727   31.3030   50.5958 H   0  0  0  0  0  0  0  0  0  0  0  0
   50.7199   31.3792   49.4102 H   0  0  0  0  0  0  0  0  0  0  0  0
   49.4506   32.6502   49.4102 H   0  0  0  0  0  0  0  0  0  0  0  0
  1  2  2  0
  1  6  1  0
  2  3  1  0
  3 13  1  0
  3  4  2  0
  5  4  1  0
  6  5  2  0
  7 12  2  0
  8  7  1  0
  9  8  2  0
  9 10  1  0
 10 11  2  0
 11 12  1  0
 11  1  1  0
 13 14  1  0
  2 15  1  0
  4 16  1  0
  5 17  1  0
  6 18  1  0
  7 19  1  0
  8 20  1  0
  9 21  1  0
 13 22  1  0
 13 23  1  0
 14 24  1  0
 14 25  1  0
 14 26  1  0
M  ISO  8  15  14  16  14  17  14  18  14  19  14  20  14  21  14  22   8
M  ISO  4  23   8  24   8  25   8  26   8
M  END
>  <minimizedAffinity>  (1) 
-5.04985809

>  <minimizedRMSD>  (1) 
0.354219019

$$$$
