
     RDKit          3D

 22 23  0  0  0  0  0  0  0  0999 V2000
   46.0080   32.7950   46.9450 C   0  0  0  0  0  0  0  0  0  0  0  0
   47.2080   32.1380   47.0770 C   0  0  0  0  0  0  0  0  0  0  0  0
   47.4550   31.2780   48.1420 C   0  0  0  0  0  0  0  0  0  0  0  0
   46.4980   31.0590   49.1030 C   0  0  0  0  0  0  0  0  0  0  0  0
   45.2920   31.7010   48.9970 C   0  0  0  0  0  0  0  0  0  0  0  0
   45.0860   32.5440   47.9280 C   0  0  0  0  0  0  0  0  0  0  0  0
   44.5530   35.5250   45.0140 C   0  0  0  0  0  0  0  0  0  0  0  0
   45.2090   35.4370   43.7680 C   0  0  0  0  0  0  0  0  0  0  0  0
   46.1580   34.4270   43.6020 C   0  0  0  0  0  0  0  0  0  0  0  0
   46.4040   33.5790   44.6420 N   0  0  0  0  0  0  0  0  0  0  0  0
   45.7520   33.6950   45.8290 C   0  0  0  0  0  0  0  0  0  0  0  0
   44.8220   34.6720   46.0160 N   0  0  0  0  0  0  0  0  0  0  0  0
   48.7190   30.6000   48.2590 N   0  0  0  0  0  0  0  0  0  0  0  0
   47.9922   32.2961   46.3220 H   0  0  0  0  0  0  0  0  0  0  0  0
   46.6967   30.3789   49.9444 H   0  0  0  0  0  0  0  0  0  0  0  0
   44.5052   31.5462   49.7500 H   0  0  0  0  0  0  0  0  0  0  0  0
   44.1128   33.0520   47.8578 H   0  0  0  0  0  0  0  0  0  0  0  0
   43.8014   36.3131   45.1689 H   0  0  0  0  0  0  0  0  0  0  0  0
   44.9802   36.1410   42.9544 H   0  0  0  0  0  0  0  0  0  0  0  0
   46.6978   34.3168   42.6499 H   0  0  0  0  0  0  0  0  0  0  0  0
   48.8915   29.9653   49.0516 H   0  0  0  0  0  0  0  0  0  0  0  0
   49.4511   30.7495   47.5501 H   0  0  0  0  0  0  0  0  0  0  0  0
  1  2  2  0
  1  6  1  0
  2  3  1  0
  3 13  1  0
  3  4  2  0
  5  4  1  0
  6  5  2  0
  7 12  2  0
  8  7  1  0
  9  8  2  0
  9 10  1  0
 10 11  2  0
 11 12  1  0
 11  1  1  0
  2 14  1  0
  4 15  1  0
  5 16  1  0
  6 17  1  0
  7 18  1  0
  8 19  1  0
  9 20  1  0
 13 21  1  0
 13 22  1  0
M  ISO  7  14  14  15  14  16  14  17  14  18  14  19  14  20  14
M  END
>  <minimizedAffinity>  (1) 
-4.80373049

>  <minimizedRMSD>  (1) 
0.0283979699

$$$$
