
     RDKit          3D

 21 22  0  0  0  0  0  0  0  0999 V2000
   46.0070   32.7490   47.0550 C   0  0  0  0  0  0  0  0  0  0  0  0
   47.2640   32.4080   47.5180 C   0  0  0  0  0  0  0  0  0  0  0  0
   47.4290   31.6170   48.6420 C   0  0  0  0  0  0  0  0  0  0  0  0
   46.3220   31.1460   49.3350 C   0  0  0  0  0  0  0  0  0  0  0  0
   45.0740   31.4730   48.8890 C   0  0  0  0  0  0  0  0  0  0  0  0
   44.9350   32.2660   47.7610 C   0  0  0  0  0  0  0  0  0  0  0  0
   44.7280   35.3600   44.8450 C   0  0  0  0  0  0  0  0  0  0  0  0
   45.4840   35.2260   43.6810 C   0  0  0  0  0  0  0  0  0  0  0  0
   46.4520   34.2200   43.6550 C   0  0  0  0  0  0  0  0  0  0  0  0
   46.6290   33.4110   44.7460 N   0  0  0  0  0  0  0  0  0  0  0  0
   45.8570   33.5890   45.8610 C   0  0  0  0  0  0  0  0  0  0  0  0
   44.9030   34.5630   45.9160 N   0  0  0  0  0  0  0  0  0  0  0  0
   49.0770   31.2170   49.1850 S   0  0  0  0  0  0  0  0  0  0  0  0
   48.1523   32.7731   46.9817 H   0  0  0  0  0  0  0  0  0  0  0  0
   46.4487   30.5189   50.2298 H   0  0  0  0  0  0  0  0  0  0  0  0
   44.1833   31.1090   49.4221 H   0  0  0  0  0  0  0  0  0  0  0  0
   43.9212   32.5189   47.4171 H   0  0  0  0  0  0  0  0  0  0  0  0
   43.9600   36.1462   44.8899 H   0  0  0  0  0  0  0  0  0  0  0  0
   45.3240   35.8873   42.8166 H   0  0  0  0  0  0  0  0  0  0  0  0
   47.0726   34.0772   42.7581 H   0  0  0  0  0  0  0  0  0  0  0  0
   49.1169   31.2073   50.5544 H   0  0  0  0  0  0  0  0  0  0  0  0
  1  2  2  0
  1  6  1  0
  2  3  1  0
  3 13  1  0
  3  4  2  0
  5  4  1  0
  6  5  2  0
  7 12  2  0
  8  7  1  0
  9  8  2  0
  9 10  1  0
 10 11  2  0
 11 12  1  0
 11  1  1  0
  2 14  1  0
  4 15  1  0
  5 16  1  0
  6 17  1  0
  7 18  1  0
  8 19  1  0
  9 20  1  0
 13 21  1  0
M  ISO  8  14  14  15  14  16  14  17  14  18  14  19  14  20  14  21  11
M  END
>  <minimizedAffinity>  (1) 
-4.87326384

>  <minimizedRMSD>  (1) 
0.466068059

$$$$
