
     RDKit          3D

 31 33  0  0  0  0  0  0  0  0999 V2000
   46.0260   32.7730   47.0430 C   0  0  0  0  0  0  0  0  0  0  0  0
   47.2740   32.4870   47.5370 C   0  0  0  0  0  0  0  0  0  0  0  0
   47.4840   31.7070   48.6510 C   0  0  0  0  0  0  0  0  0  0  0  0
   46.3850   31.1780   49.3200 C   0  0  0  0  0  0  0  0  0  0  0  0
   45.1330   31.4400   48.8600 C   0  0  0  0  0  0  0  0  0  0  0  0
   44.9880   32.2300   47.7360 C   0  0  0  0  0  0  0  0  0  0  0  0
   44.7050   35.3650   44.8420 C   0  0  0  0  0  0  0  0  0  0  0  0
   45.4470   35.2260   43.6750 C   0  0  0  0  0  0  0  0  0  0  0  0
   46.4120   34.2310   43.6380 C   0  0  0  0  0  0  0  0  0  0  0  0
   46.6230   33.4150   44.7280 N   0  0  0  0  0  0  0  0  0  0  0  0
   45.8520   33.6060   45.8550 C   0  0  0  0  0  0  0  0  0  0  0  0
   44.9020   34.5720   45.9140 N   0  0  0  0  0  0  0  0  0  0  0  0
   49.1450   31.3920   49.2160 S   0  0  0  0  0  0  0  0  0  0  0  0
   50.8660   30.0750   51.5800 Cl  0  0  0  0  0  0  0  0  0  0  0  0
   50.2450   29.1090   50.2670 C   0  0  0  0  0  0  0  0  0  0  0  0
   49.5040   29.6340   49.2330 C   0  0  0  0  0  0  0  0  0  0  0  0
   49.0580   28.7810   48.2390 C   0  0  0  0  0  0  0  0  0  0  0  0
   49.3780   27.4230   48.3220 C   0  0  0  0  0  0  0  0  0  0  0  0
   50.1290   26.8950   49.3680 C   0  0  0  0  0  0  0  0  0  0  0  0
   50.5020   25.1780   49.4220 Cl  0  0  0  0  0  0  0  0  0  0  0  0
   50.5470   27.7820   50.3310 C   0  0  0  0  0  0  0  0  0  0  0  0
   48.1499   32.9018   47.0167 H   0  0  0  0  0  0  0  0  0  0  0  0
   46.5279   30.5529   50.2138 H   0  0  0  0  0  0  0  0  0  0  0  0
   44.2508   31.0302   49.3737 H   0  0  0  0  0  0  0  0  0  0  0  0
   43.9679   32.4333   47.3780 H   0  0  0  0  0  0  0  0  0  0  0  0
   43.9327   36.1467   44.8923 H   0  0  0  0  0  0  0  0  0  0  0  0
   45.2745   35.8832   42.8099 H   0  0  0  0  0  0  0  0  0  0  0  0
   47.0154   34.0916   42.7289 H   0  0  0  0  0  0  0  0  0  0  0  0
   48.4619   29.1650   47.3980 H   0  0  0  0  0  0  0  0  0  0  0  0
   49.0230   26.7462   47.5309 H   0  0  0  0  0  0  0  0  0  0  0  0
   51.1425   27.4099   51.1777 H   0  0  0  0  0  0  0  0  0  0  0  0
  1  2  2  0
  1  6  1  0
  2  3  1  0
  3 13  1  0
  3  4  2  0
  5  4  1  0
  6  5  2  0
  7 12  2  0
  8  7  1  0
  9  8  2  0
  9 10  1  0
 10 11  2  0
 11 12  1  0
 11  1  1  0
 13 16  1  0
 15 21  2  0
 15 14  1  0
 16 15  1  0
 17 18  1  0
 17 16  2  0
 18 19  2  0
 19 20  1  0
 19 21  1  0
  2 22  1  0
  4 23  1  0
  5 24  1  0
  6 25  1  0
  7 26  1  0
  8 27  1  0
  9 28  1  0
 17 29  1  0
 18 30  1  0
 21 31  1  0
M  ISO  8  22  14  23  14  24  14  25  14  26  14  27  14  28  14  29  14
M  ISO  2  30  14  31  14
M  END
>  <minimizedAffinity>  (1) 
-5.7714777

>  <minimizedRMSD>  (1) 
1.17504418

$$$$
