
     RDKit          3D

 37 40  0  0  0  0  0  0  0  0999 V2000
   46.1160   32.6830   46.9380 C   0  0  0  0  0  0  0  0  0  0  0  0
   47.2340   31.8950   47.0480 C   0  0  0  0  0  0  0  0  0  0  0  0
   47.4290   31.0610   48.1320 C   0  0  0  0  0  0  0  0  0  0  0  0
   46.4750   31.0050   49.1580 C   0  0  0  0  0  0  0  0  0  0  0  0
   45.3580   31.7770   49.0740 C   0  0  0  0  0  0  0  0  0  0  0  0
   45.1970   32.5970   47.9760 C   0  0  0  0  0  0  0  0  0  0  0  0
   44.7100   35.3580   44.8810 C   0  0  0  0  0  0  0  0  0  0  0  0
   45.4470   35.2680   43.6970 C   0  0  0  0  0  0  0  0  0  0  0  0
   46.4330   34.2880   43.5960 C   0  0  0  0  0  0  0  0  0  0  0  0
   46.6600   33.4400   44.6480 N   0  0  0  0  0  0  0  0  0  0  0  0
   45.9120   33.5670   45.7860 C   0  0  0  0  0  0  0  0  0  0  0  0
   44.9530   34.5140   45.8940 N   0  0  0  0  0  0  0  0  0  0  0  0
   48.8910   30.0680   48.2150 S   0  0  0  0  0  0  0  0  0  0  0  0
   49.8800   30.5630   49.6120 C   0  0  0  0  0  0  0  0  0  0  0  0
   50.1200   31.8520   49.9910 N   0  0  0  0  0  0  0  0  0  0  0  0
   50.8630   32.1710   51.0390 C   0  0  0  0  0  0  0  0  0  0  0  0
   51.4060   31.1710   51.7630 N   0  0  0  0  0  0  0  0  0  0  0  0
   51.2210   29.8710   51.4610 C   0  0  0  0  0  0  0  0  0  0  0  0
   51.7750   28.8350   52.1990 C   0  0  0  0  0  0  0  0  0  0  0  0
   51.5570   27.5240   51.8500 C   0  0  0  0  0  0  0  0  0  0  0  0
   50.7780   27.1710   50.7500 C   0  0  0  0  0  0  0  0  0  0  0  0
   50.2510   28.2330   50.0510 C   0  0  0  0  0  0  0  0  0  0  0  0
   50.4490   29.5560   50.3730 C   0  0  0  0  0  0  0  0  0  0  0  0
   49.4460   27.8570   48.9160 N   0  0  0  0  0  0  0  0  0  0  0  0
   47.9939   31.9282   46.2533 H   0  0  0  0  0  0  0  0  0  0  0  0
   46.6283   30.3429   50.0229 H   0  0  0  0  0  0  0  0  0  0  0  0
   44.5966   31.7480   49.8674 H   0  0  0  0  0  0  0  0  0  0  0  0
   44.2903   33.2172   47.9195 H   0  0  0  0  0  0  0  0  0  0  0  0
   43.9274   36.1244   44.9822 H   0  0  0  0  0  0  0  0  0  0  0  0
   45.2529   35.9567   42.8616 H   0  0  0  0  0  0  0  0  0  0  0  0
   47.0269   34.1957   42.6747 H   0  0  0  0  0  0  0  0  0  0  0  0
   51.0329   33.2230   51.3120 H   0  0  0  0  0  0  0  0  0  0  0  0
   52.3975   29.0664   53.0759 H   0  0  0  0  0  0  0  0  0  0  0  0
   52.0118   26.7282   52.4581 H   0  0  0  0  0  0  0  0  0  0  0  0
   50.5981   26.1246   50.4625 H   0  0  0  0  0  0  0  0  0  0  0  0
   49.3083   26.8617   48.6894 H   0  0  0  0  0  0  0  0  0  0  0  0
   49.0085   28.5836   48.3316 H   0  0  0  0  0  0  0  0  0  0  0  0
  1  2  2  0
  1  6  1  0
  2  3  1  0
  3 13  1  0
  3  4  2  0
  5  4  1  0
  6  5  2  0
  7 12  2  0
  8  7  1  0
  9  8  2  0
  9 10  1  0
 10 11  2  0
 11 12  1  0
 11  1  1  0
 13 14  1  0
 14 15  2  0
 14 23  1  0
 15 16  1  0
 16 17  2  0
 18 17  1  0
 18 19  2  0
 20 19  1  0
 21 20  2  0
 22 23  2  0
 22 21  1  0
 23 18  1  0
 24 22  1  0
  2 25  1  0
  4 26  1  0
  5 27  1  0
  6 28  1  0
  7 29  1  0
  8 30  1  0
  9 31  1  0
 16 32  1  0
 19 33  1  0
 20 34  1  0
 21 35  1  0
 24 36  1  0
 24 37  1  0
M  ISO  8  25  14  26  14  27  14  28  14  29  14  30  14  31  14  32  14
M  ISO  3  33  14  34  14  35  14
M  END
>  <minimizedAffinity>  (1) 
-6.85792351

>  <minimizedRMSD>  (1) 
0.0585015453

$$$$
