
     RDKit          3D

 49 53  0  0  0  0  0  0  0  0999 V2000
   49.7460   30.1230   49.4000 C   0  0  0  0  0  0  0  0  0  0  0  0
   49.9740   31.2940   50.0570 N   0  0  0  0  0  0  0  0  0  0  0  0
   50.6460   31.3630   51.2150 C   0  0  0  0  0  0  0  0  0  0  0  0
   51.1070   30.2120   51.7370 N   0  0  0  0  0  0  0  0  0  0  0  0
   50.9240   29.0270   51.1550 C   0  0  0  0  0  0  0  0  0  0  0  0
   51.3950   27.8320   51.6900 C   0  0  0  0  0  0  0  0  0  0  0  0
   51.1860   26.6330   51.0650 C   0  0  0  0  0  0  0  0  0  0  0  0
   50.4870   26.5610   49.8540 C   0  0  0  0  0  0  0  0  0  0  0  0
   50.0290   27.7720   49.3430 C   0  0  0  0  0  0  0  0  0  0  0  0
   50.2330   28.9750   49.9640 C   0  0  0  0  0  0  0  0  0  0  0  0
   49.4270   27.4370   48.1070 N   0  0  0  0  0  0  0  0  0  0  0  0
   49.7910   27.4990   46.6790 C   0  0  0  0  0  0  0  0  0  0  0  0
   50.0910   26.0540   46.2070 C   0  0  0  0  0  0  0  0  0  0  0  0
   49.2550   25.1130   46.8590 N   0  0  0  0  0  0  0  0  0  0  0  0
   48.0190   25.5710   47.3760 C   0  0  0  0  0  0  0  0  0  0  0  0
   48.0910   26.8250   48.2220 C   0  0  0  0  0  0  0  0  0  0  0  0
   48.8540   30.0130   47.8850 S   0  0  0  0  0  0  0  0  0  0  0  0
   46.0350   32.7040   46.8990 C   0  0  0  0  0  0  0  0  0  0  0  0
   47.1410   31.8990   46.9130 C   0  0  0  0  0  0  0  0  0  0  0  0
   47.3980   31.0210   47.9310 C   0  0  0  0  0  0  0  0  0  0  0  0
   46.5140   30.9300   48.9970 C   0  0  0  0  0  0  0  0  0  0  0  0
   45.4010   31.7110   49.0250 C   0  0  0  0  0  0  0  0  0  0  0  0
   45.1840   32.5810   47.9780 C   0  0  0  0  0  0  0  0  0  0  0  0
   44.5730   35.4960   45.0410 C   0  0  0  0  0  0  0  0  0  0  0  0
   45.2400   35.4350   43.7950 C   0  0  0  0  0  0  0  0  0  0  0  0
   46.1870   34.4420   43.5920 C   0  0  0  0  0  0  0  0  0  0  0  0
   46.4570   33.5450   44.5940 N   0  0  0  0  0  0  0  0  0  0  0  0
   45.7870   33.6360   45.7920 C   0  0  0  0  0  0  0  0  0  0  0  0
   44.8640   34.5990   46.0010 N   0  0  0  0  0  0  0  0  0  0  0  0
   50.8143   32.3257   51.7199 H   0  0  0  0  0  0  0  0  0  0  0  0
   51.9496   27.8518   52.6398 H   0  0  0  0  0  0  0  0  0  0  0  0
   51.5736   25.7103   51.5215 H   0  0  0  0  0  0  0  0  0  0  0  0
   50.3106   25.6057   49.3379 H   0  0  0  0  0  0  0  0  0  0  0  0
   48.9565   27.9176   46.0973 H   0  0  0  0  0  0  0  0  0  0  0  0
   50.6709   28.1428   46.5330 H   0  0  0  0  0  0  0  0  0  0  0  0
   49.9236   25.9900   45.1217 H   0  0  0  0  0  0  0  0  0  0  0  0
   51.1365   25.8187   46.4552 H   0  0  0  0  0  0  0  0  0  0  0  0
   49.0460   24.3666   46.1806 H   0  0  0  0  0  0  0  0  0  0  0  0
   47.3503   25.7733   46.5264 H   0  0  0  0  0  0  0  0  0  0  0  0
   47.6579   24.7757   48.0447 H   0  0  0  0  0  0  0  0  0  0  0  0
   47.8986   26.5660   49.2736 H   0  0  0  0  0  0  0  0  0  0  0  0
   47.3349   27.5417   47.8689 H   0  0  0  0  0  0  0  0  0  0  0  0
   47.8505   31.9596   46.0746 H   0  0  0  0  0  0  0  0  0  0  0  0
   46.7135   30.2266   49.8188 H   0  0  0  0  0  0  0  0  0  0  0  0
   44.6910   31.6499   49.8630 H   0  0  0  0  0  0  0  0  0  0  0  0
   44.2831   33.2117   48.0042 H   0  0  0  0  0  0  0  0  0  0  0  0
   43.8182   36.2748   45.2247 H   0  0  0  0  0  0  0  0  0  0  0  0
   45.0118   36.1618   43.0015 H   0  0  0  0  0  0  0  0  0  0  0  0
   46.7191   34.3742   42.6317 H   0  0  0  0  0  0  0  0  0  0  0  0
  1 10  1  0
  1  2  2  0
  2  3  1  0
  3  4  2  0
  5  6  2  0
  5  4  1  0
  7  6  1  0
  8  7  2  0
  9  8  1  0
  9 10  2  0
 10  5  1  0
 11 16  1  0
 11  9  1  0
 12 11  1  0
 13 12  1  0
 13 14  1  0
 14 15  1  0
 15 16  1  0
 17 20  1  0
 17  1  1  0
 18 19  2  0
 18 23  1  0
 19 20  1  0
 20 21  2  0
 21 22  1  0
 23 22  2  0
 24 29  2  0
 25 24  1  0
 26 25  2  0
 26 27  1  0
 27 28  2  0
 28 29  1  0
 28 18  1  0
  3 30  1  0
  6 31  1  0
  7 32  1  0
  8 33  1  0
 12 34  1  0
 12 35  1  0
 13 36  1  0
 13 37  1  0
 14 38  1  0
 15 39  1  0
 15 40  1  0
 16 41  1  0
 16 42  1  0
 19 43  1  0
 21 44  1  0
 22 45  1  0
 23 46  1  0
 24 47  1  0
 25 48  1  0
 26 49  1  0
M  ISO  8  30  14  31  14  32  14  33  14  34  13  35  13  36  13  37  13
M  ISO  8  38   5  39  13  40  13  41  13  42  13  43  14  44  14  45  14
M  ISO  4  46  14  47  14  48  14  49  14
M  END
>  <minimizedAffinity>  (1) 
-6.42403364

>  <minimizedRMSD>  (1) 
1.16075337

$$$$
