
     RDKit          3D

 23 24  0  0  0  0  0  0  0  0999 V2000
   44.5420   35.8440   44.7350 C   0  0  0  0  0  0  0  0  0  0  0  0
   45.2010   35.8080   43.4840 C   0  0  0  0  0  0  0  0  0  0  0  0
   46.1100   34.7400   43.2970 C   0  0  0  0  0  0  0  0  0  0  0  0
   46.2810   33.8490   44.3040 N   0  0  0  0  0  0  0  0  0  0  0  0
   45.6220   33.9370   45.4780 C   0  0  0  0  0  0  0  0  0  0  0  0
   44.7520   34.9400   45.6880 N   0  0  0  0  0  0  0  0  0  0  0  0
   47.5100   31.8170   44.7000 Cl  0  0  0  0  0  0  0  0  0  0  0  0
   46.7250   31.8930   46.2760 C   0  0  0  0  0  0  0  0  0  0  0  0
   45.8600   32.9410   46.5140 C   0  0  0  0  0  0  0  0  0  0  0  0
   45.2550   33.0020   47.7290 C   0  0  0  0  0  0  0  0  0  0  0  0
   45.5280   32.0120   48.6800 C   0  0  0  0  0  0  0  0  0  0  0  0
   46.3960   30.9690   48.4280 C   0  0  0  0  0  0  0  0  0  0  0  0
   47.0190   30.9000   47.1880 C   0  0  0  0  0  0  0  0  0  0  0  0
   46.7710   34.7330   41.9940 C   0  0  0  0  0  0  0  0  0  0  0  0
   47.5380   33.5750   41.8950 F   0  0  0  0  0  0  0  0  0  0  0  0
   47.6720   35.7710   41.9860 F   0  0  0  0  0  0  0  0  0  0  0  0
   45.9040   34.7490   40.9320 F   0  0  0  0  0  0  0  0  0  0  0  0
   43.8244   36.6550   44.9283 H   0  0  0  0  0  0  0  0  0  0  0  0
   45.0182   36.5631   42.7052 H   0  0  0  0  0  0  0  0  0  0  0  0
   44.5583   33.8205   47.9627 H   0  0  0  0  0  0  0  0  0  0  0  0
   45.0341   32.0671   49.6613 H   0  0  0  0  0  0  0  0  0  0  0  0
   46.5912   30.2056   49.1955 H   0  0  0  0  0  0  0  0  0  0  0  0
   47.7182   30.0868   46.9432 H   0  0  0  0  0  0  0  0  0  0  0  0
  1  6  2  0
  2  1  1  0
  3  2  2  0
  3  4  1  0
  4  5  2  0
  5  6  1  0
  5  9  1  0
  7  8  1  0
  8  9  2  0
  8 13  1  0
  9 10  1  0
 10 11  2  0
 12 11  1  0
 13 12  2  0
 14  3  1  0
 15 14  1  0
 16 14  1  0
 17 14  1  0
  1 18  1  0
  2 19  1  0
 10 20  1  0
 11 21  1  0
 12 22  1  0
 13 23  1  0
M  ISO  6  18  14  19  14  20  14  21  14  22  14  23  14
M  END
>  <minimizedAffinity>  (1) 
-5.61597109

>  <minimizedRMSD>  (1) 
0.515005946

$$$$
