
     RDKit          3D

 39 42  0  0  0  0  0  0  0  0999 V2000
   48.9450   30.0910   48.1850 S   0  0  0  0  0  0  0  0  0  0  0  0
   49.8470   30.3640   49.6280 C   0  0  0  0  0  0  0  0  0  0  0  0
   50.0510   31.6220   50.1270 N   0  0  0  0  0  0  0  0  0  0  0  0
   50.7630   31.8780   51.2240 C   0  0  0  0  0  0  0  0  0  0  0  0
   51.3030   30.8360   51.8640 N   0  0  0  0  0  0  0  0  0  0  0  0
   51.1510   29.5710   51.4430 C   0  0  0  0  0  0  0  0  0  0  0  0
   51.7160   28.4940   52.1000 C   0  0  0  0  0  0  0  0  0  0  0  0
   51.5600   27.2250   51.6590 C   0  0  0  0  0  0  0  0  0  0  0  0
   50.8290   26.9830   50.5390 C   0  0  0  0  0  0  0  0  0  0  0  0
   50.2320   28.0350   49.8310 C   0  0  0  0  0  0  0  0  0  0  0  0
   50.4020   29.3000   50.2900 C   0  0  0  0  0  0  0  0  0  0  0  0
   49.4370   27.6580   48.6540 C   0  0  0  0  0  0  0  0  0  0  0  0
   48.6050   26.5340   48.9780 O   0  0  0  0  0  0  0  0  0  0  0  0
   46.1290   32.6520   46.9610 C   0  0  0  0  0  0  0  0  0  0  0  0
   47.2700   31.8740   47.0420 C   0  0  0  0  0  0  0  0  0  0  0  0
   47.4710   31.0400   48.1170 C   0  0  0  0  0  0  0  0  0  0  0  0
   46.5410   30.9670   49.1280 C   0  0  0  0  0  0  0  0  0  0  0  0
   45.4040   31.7160   49.0870 C   0  0  0  0  0  0  0  0  0  0  0  0
   45.2230   32.5490   47.9980 C   0  0  0  0  0  0  0  0  0  0  0  0
   44.7200   35.3320   44.9070 C   0  0  0  0  0  0  0  0  0  0  0  0
   45.4660   35.2510   43.7060 C   0  0  0  0  0  0  0  0  0  0  0  0
   46.4470   34.2780   43.6090 C   0  0  0  0  0  0  0  0  0  0  0  0
   46.6800   33.4220   44.6560 N   0  0  0  0  0  0  0  0  0  0  0  0
   45.9220   33.5440   45.8080 C   0  0  0  0  0  0  0  0  0  0  0  0
   44.9580   34.4820   45.9330 N   0  0  0  0  0  0  0  0  0  0  0  0
   50.9010   32.9066   51.5886 H   0  0  0  0  0  0  0  0  0  0  0  0
   52.3099   28.6744   53.0081 H   0  0  0  0  0  0  0  0  0  0  0  0
   52.0237   26.3906   52.2056 H   0  0  0  0  0  0  0  0  0  0  0  0
   50.7045   25.9493   50.1840 H   0  0  0  0  0  0  0  0  0  0  0  0
   50.1109   27.3890   47.8273 H   0  0  0  0  0  0  0  0  0  0  0  0
   48.8054   28.5063   48.3514 H   0  0  0  0  0  0  0  0  0  0  0  0
   48.5391   26.4449   49.9618 H   0  0  0  0  0  0  0  0  0  0  0  0
   48.0221   31.9228   46.2407 H   0  0  0  0  0  0  0  0  0  0  0  0
   46.7178   30.2950   49.9807 H   0  0  0  0  0  0  0  0  0  0  0  0
   44.6561   31.6603   49.8917 H   0  0  0  0  0  0  0  0  0  0  0  0
   44.3101   33.1612   47.9557 H   0  0  0  0  0  0  0  0  0  0  0  0
   43.9358   36.0968   45.0075 H   0  0  0  0  0  0  0  0  0  0  0  0
   45.2716   35.9422   42.8726 H   0  0  0  0  0  0  0  0  0  0  0  0
   47.0423   34.1910   42.6881 H   0  0  0  0  0  0  0  0  0  0  0  0
  1  2  1  0
  2  3  2  0
  2 11  1  0
  3  4  1  0
  4  5  2  0
  6  5  1  0
  6  7  2  0
  8  7  1  0
  9  8  2  0
 10 11  2  0
 10  9  1  0
 11  6  1  0
 12 13  1  0
 12 10  1  0
 14 15  2  0
 14 19  1  0
 15 16  1  0
 16  1  1  0
 16 17  2  0
 18 17  1  0
 19 18  2  0
 20 25  2  0
 21 20  1  0
 22 21  2  0
 22 23  1  0
 23 24  2  0
 24 25  1  0
 24 14  1  0
  4 26  1  0
  7 27  1  0
  8 28  1  0
  9 29  1  0
 12 30  1  0
 12 31  1  0
 13 32  1  0
 15 33  1  0
 17 34  1  0
 18 35  1  0
 19 36  1  0
 20 37  1  0
 21 38  1  0
 22 39  1  0
M  ISO  8  26  14  27  14  28  14  29  14  30   8  31   8  32   3  33  14
M  ISO  6  34  14  35  14  36  14  37  14  38  14  39  14
M  END
>  <minimizedAffinity>  (1) 
-6.70094728

>  <minimizedRMSD>  (1) 
0.253902674

$$$$
