
     RDKit          3D

 36 38  0  0  0  0  0  0  0  0999 V2000
   47.7340   32.0080   45.0380 Cl  0  0  0  0  0  0  0  0  0  0  0  0
   46.7730   32.0010   46.5190 C   0  0  0  0  0  0  0  0  0  0  0  0
   45.7780   32.9520   46.6480 C   0  0  0  0  0  0  0  0  0  0  0  0
   45.0340   32.9430   47.7840 C   0  0  0  0  0  0  0  0  0  0  0  0
   45.3040   31.9840   48.7680 C   0  0  0  0  0  0  0  0  0  0  0  0
   46.3060   31.0420   48.6160 C   0  0  0  0  0  0  0  0  0  0  0  0
   47.0720   31.0420   47.4550 C   0  0  0  0  0  0  0  0  0  0  0  0
   44.5480   35.8410   44.8060 C   0  0  0  0  0  0  0  0  0  0  0  0
   45.2120   35.7710   43.5560 C   0  0  0  0  0  0  0  0  0  0  0  0
   46.0870   34.6830   43.3950 C   0  0  0  0  0  0  0  0  0  0  0  0
   46.2370   33.7990   44.4130 N   0  0  0  0  0  0  0  0  0  0  0  0
   45.5670   33.9280   45.5880 C   0  0  0  0  0  0  0  0  0  0  0  0
   44.7260   34.9500   45.7750 N   0  0  0  0  0  0  0  0  0  0  0  0
   46.7720   34.6260   42.0930 C   0  0  0  0  0  0  0  0  0  0  0  0
   47.5010   33.4540   42.0250 F   0  0  0  0  0  0  0  0  0  0  0  0
   47.7160   35.6370   42.1010 F   0  0  0  0  0  0  0  0  0  0  0  0
   45.9170   34.6890   41.0360 F   0  0  0  0  0  0  0  0  0  0  0  0
   49.1860   29.8480   48.1310 C   0  0  0  0  0  0  0  0  0  0  0  0
   48.1370   30.0640   47.2610 C   0  0  0  0  0  0  0  0  0  0  0  0
   48.0800   29.2930   46.1040 C   0  0  0  0  0  0  0  0  0  0  0  0
   49.0200   28.3290   45.7920 C   0  0  0  0  0  0  0  0  0  0  0  0
   50.0590   28.1560   46.7120 C   0  0  0  0  0  0  0  0  0  0  0  0
   50.1410   28.9060   47.8680 C   0  0  0  0  0  0  0  0  0  0  0  0
   49.2440   30.8240   49.5800 S   0  0  0  0  0  0  0  0  0  0  0  0
   49.7220   29.9990   50.7430 O   0  0  0  0  0  0  0  0  0  0  0  0
   50.2210   31.9470   49.3400 O   0  0  0  0  0  0  0  0  0  0  0  0
   44.2298   33.6793   47.9293 H   0  0  0  0  0  0  0  0  0  0  0  0
   44.7020   31.9794   49.6886 H   0  0  0  0  0  0  0  0  0  0  0  0
   46.4950   30.3001   49.4059 H   0  0  0  0  0  0  0  0  0  0  0  0
   43.8513   36.6737   44.9824 H   0  0  0  0  0  0  0  0  0  0  0  0
   45.0532   36.5183   42.7646 H   0  0  0  0  0  0  0  0  0  0  0  0
   47.2473   29.4586   45.4045 H   0  0  0  0  0  0  0  0  0  0  0  0
   48.9545   27.7310   44.8711 H   0  0  0  0  0  0  0  0  0  0  0  0
   50.8327   27.4010   46.5087 H   0  0  0  0  0  0  0  0  0  0  0  0
   50.9699   28.7466   48.5733 H   0  0  0  0  0  0  0  0  0  0  0  0
   47.9953   31.3088   49.8676 H   0  0  0  0  0  0  0  0  0  0  0  0
  1  2  1  0
  2  3  2  0
  2  7  1  0
  3  4  1  0
  4  5  2  0
  6  5  1  0
  7  6  2  0
  8 13  2  0
  9  8  1  0
 10  9  2  0
 10 11  1  0
 11 12  2  0
 12 13  1  0
 12  3  1  0
 14 16  1  0
 14 10  1  0
 15 14  1  0
 17 14  1  0
 18 24  1  0
 19  7  1  0
 19 18  2  0
 20 19  1  0
 21 20  2  0
 21 22  1  0
 22 23  2  0
 23 18  1  0
 24 25  2  0
 26 24  2  0
  4 27  1  0
  5 28  1  0
  6 29  1  0
  8 30  1  0
  9 31  1  0
 20 32  1  0
 21 33  1  0
 22 34  1  0
 23 35  1  0
 24 36  1  0
M  ISO  8  27  14  28  14  29  14  30  14  31  14  32  14  33  14  34  14
M  ISO  2  35  14  36  11
M  END
>  <minimizedAffinity>  (1) 
-6.49180889

>  <minimizedRMSD>  (1) 
0.525588453

$$$$
