
     RDKit          3D

 34 36  0  0  1  0  0  0  0  0999 V2000
   47.5360   31.8430   44.7360 Cl  0  0  0  0  0  0  0  0  0  0  0  0
   46.7640   31.8630   46.3130 C   0  0  0  0  0  0  0  0  0  0  0  0
   45.8680   32.8670   46.5740 C   0  0  0  0  0  0  0  0  0  0  0  0
   45.2540   32.8870   47.7890 C   0  0  0  0  0  0  0  0  0  0  0  0
   45.5630   31.8870   48.7200 C   0  0  0  0  0  0  0  0  0  0  0  0
   46.4680   30.8870   48.4410 C   0  0  0  0  0  0  0  0  0  0  0  0
   47.0920   30.8690   47.1960 C   0  0  0  0  0  0  0  0  0  0  0  0
   49.7420   30.4020   48.4350 O   0  0  0  0  0  0  0  0  0  0  0  0
   48.9340   29.4900   48.1070 C   0  0  0  0  0  0  0  0  0  0  0  0
   48.0590   29.7710   46.9400 C   0  0  1  0  0  0  0  0  0  0  0  0
   47.3360   28.4400   46.7700 C   0  0  0  0  0  0  0  0  0  0  0  0
   48.0720   27.4340   47.6260 C   0  0  0  0  0  0  0  0  0  0  0  0
   48.7010   28.1980   48.6700 N   0  0  0  0  0  0  0  0  0  0  0  0
   44.5200   35.8190   44.9030 C   0  0  0  0  0  0  0  0  0  0  0  0
   45.1310   35.7960   43.6280 C   0  0  0  0  0  0  0  0  0  0  0  0
   46.0170   34.7250   43.3780 C   0  0  0  0  0  0  0  0  0  0  0  0
   46.2090   33.8160   44.3640 N   0  0  0  0  0  0  0  0  0  0  0  0
   45.5990   33.8830   45.5640 C   0  0  0  0  0  0  0  0  0  0  0  0
   44.7500   34.8940   45.8280 N   0  0  0  0  0  0  0  0  0  0  0  0
   46.6340   34.7310   42.0490 C   0  0  0  0  0  0  0  0  0  0  0  0
   47.3180   33.5400   41.8840 F   0  0  0  0  0  0  0  0  0  0  0  0
   47.5780   35.7270   42.0490 F   0  0  0  0  0  0  0  0  0  0  0  0
   45.7090   34.8290   41.0340 F   0  0  0  0  0  0  0  0  0  0  0  0
   44.5274   33.6753   48.0355 H   0  0  0  0  0  0  0  0  0  0  0  0
   45.0685   31.9008   49.7025 H   0  0  0  0  0  0  0  0  0  0  0  0
   46.6946   30.1141   49.1902 H   0  0  0  0  0  0  0  0  0  0  0  0
   48.6193   30.1087   46.0557 H   0  0  0  0  0  0  0  0  0  0  0  0
   46.2918   28.5303   47.1040 H   0  0  0  0  0  0  0  0  0  0  0  0
   47.3233   28.1282   45.7152 H   0  0  0  0  0  0  0  0  0  0  0  0
   47.3671   26.7064   48.0546 H   0  0  0  0  0  0  0  0  0  0  0  0
   48.8080   26.8636   47.0403 H   0  0  0  0  0  0  0  0  0  0  0  0
   48.9340   27.8807   49.6218 H   0  0  0  0  0  0  0  0  0  0  0  0
   43.8245   36.6379   45.1389 H   0  0  0  0  0  0  0  0  0  0  0  0
   44.9275   36.5694   42.8727 H   0  0  0  0  0  0  0  0  0  0  0  0
  1  2  1  0
  2  3  2  0
  2  7  1  0
  3  4  1  0
  4  5  2  0
  6  5  1  0
  7  6  2  0
  9  8  2  0
  9 13  1  0
 10  7  1  0
 10  9  1  0
 11 10  1  0
 11 12  1  0
 12 13  1  0
 14 19  2  0
 15 14  1  0
 16 15  2  0
 16 17  1  0
 17 18  2  0
 18 19  1  0
 18  3  1  0
 20 16  1  0
 21 20  1  0
 22 20  1  0
 23 20  1  0
  4 24  1  0
  5 25  1  0
  6 26  1  0
 10 27  1  6
 11 28  1  0
 11 29  1  0
 12 30  1  0
 12 31  1  0
 13 32  1  0
 14 33  1  0
 15 34  1  0
M  ISO  8  24  14  25  14  26  14  27  13  28  13  29  13  30  13  31  13
M  ISO  3  32  10  33  14  34  14
M  END
>  <minimizedAffinity>  (1) 
-6.37257099

>  <minimizedRMSD>  (1) 
0.301823318

$$$$
