
     RDKit          3D

 43 46  0  0  1  0  0  0  0  0999 V2000
   47.7070   31.4000   45.4160 Cl  0  0  0  0  0  0  0  0  0  0  0  0
   46.7560   31.5720   46.8780 C   0  0  0  0  0  0  0  0  0  0  0  0
   45.8900   32.6330   46.9470 C   0  0  0  0  0  0  0  0  0  0  0  0
   45.1410   32.7830   48.0750 C   0  0  0  0  0  0  0  0  0  0  0  0
   45.2790   31.8670   49.1120 C   0  0  0  0  0  0  0  0  0  0  0  0
   46.1470   30.8100   49.0360 C   0  0  0  0  0  0  0  0  0  0  0  0
   46.9170   30.6530   47.8760 C   0  0  0  0  0  0  0  0  0  0  0  0
   44.7420   35.3640   44.8010 C   0  0  0  0  0  0  0  0  0  0  0  0
   45.6060   35.2970   43.6780 C   0  0  0  0  0  0  0  0  0  0  0  0
   46.5760   34.2800   43.7170 C   0  0  0  0  0  0  0  0  0  0  0  0
   46.6130   33.4650   44.7890 N   0  0  0  0  0  0  0  0  0  0  0  0
   45.7740   33.5660   45.8310 C   0  0  0  0  0  0  0  0  0  0  0  0
   44.8330   34.5270   45.8280 N   0  0  0  0  0  0  0  0  0  0  0  0
   47.4510   34.2440   42.5360 C   0  0  0  0  0  0  0  0  0  0  0  0
   48.7720   34.1340   42.9720 F   0  0  0  0  0  0  0  0  0  0  0  0
   47.3750   35.4670   41.9350 F   0  0  0  0  0  0  0  0  0  0  0  0
   47.1950   33.1880   41.6960 F   0  0  0  0  0  0  0  0  0  0  0  0
   47.8570   29.4860   47.8250 C   0  0  0  0  0  0  0  0  0  0  0  0
   49.1790   29.8410   48.3610 C   0  0  0  0  0  0  0  0  0  0  0  0
   50.3170   29.5860   47.7890 C   0  0  0  0  0  0  0  0  0  0  0  0
   51.5200   29.9990   48.4260 N   0  0  0  0  0  0  0  0  0  0  0  0
   52.8860   29.7350   48.7310 C   0  0  0  0  0  0  0  0  0  0  0  0
   53.7750   28.9140   48.3570 O   0  0  0  0  0  0  0  0  0  0  0  0
   52.9830   30.8240   49.7310 C   0  0  0  0  0  0  0  0  0  0  0  0
   51.6610   31.2280   49.1840 C   0  0  2  0  0  0  0  0  0  0  0  0
   50.3790   31.1140   50.4930 S   0  0  0  0  0  0  0  0  0  0  0  0
   48.9050   30.5230   49.6450 C   0  0  0  0  0  0  0  0  0  0  0  0
   50.4710   28.8920   46.4940 C   0  0  0  0  0  0  0  0  0  0  0  0
   50.3720   29.2160   45.2890 O   0  0  0  0  0  0  0  0  0  0  0  0
   50.7990   27.5740   46.3610 O   0  0  0  0  0  0  0  0  0  0  0  0
   44.4338   33.6208   48.1646 H   0  0  0  0  0  0  0  0  0  0  0  0
   44.6728   31.9950   50.0209 H   0  0  0  0  0  0  0  0  0  0  0  0
   46.2378   30.0981   49.8697 H   0  0  0  0  0  0  0  0  0  0  0  0
   43.9643   36.1416   44.8221 H   0  0  0  0  0  0  0  0  0  0  0  0
   45.5226   35.9951   42.8320 H   0  0  0  0  0  0  0  0  0  0  0  0
   47.4380   28.6621   48.4214 H   0  0  0  0  0  0  0  0  0  0  0  0
   47.9782   29.1835   46.7744 H   0  0  0  0  0  0  0  0  0  0  0  0
   52.9806   30.5014   50.7826 H   0  0  0  0  0  0  0  0  0  0  0  0
   53.8437   31.5045   49.8091 H   0  0  0  0  0  0  0  0  0  0  0  0
   51.5823   32.2198   48.7149 H   0  0  0  0  0  0  0  0  0  0  0  0
   48.2521   31.3855   49.4455 H   0  0  0  0  0  0  0  0  0  0  0  0
   48.4361   29.7788   50.3056 H   0  0  0  0  0  0  0  0  0  0  0  0
   50.8854   27.1739   45.4596 H   0  0  0  0  0  0  0  0  0  0  0  0
  1  2  1  0
  2  3  2  0
  2  7  1  0
  3  4  1  0
  4  5  2  0
  6  5  1  0
  7  6  2  0
  8 13  2  0
  9 10  2  0
  9  8  1  0
 10 11  1  0
 11 12  2  0
 12  3  1  0
 13 12  1  0
 14 15  1  0
 14 10  1  0
 16 14  1  0
 17 14  1  0
 18  7  1  0
 18 19  1  0
 19 27  1  0
 20 19  2  0
 20 21  1  0
 21 22  1  0
 21 25  1  0
 22 24  1  0
 23 22  2  0
 25 24  1  0
 25 26  1  0
 27 26  1  0
 28 20  1  0
 29 28  2  0
 30 28  1  0
  4 31  1  0
  5 32  1  0
  6 33  1  0
  8 34  1  0
  9 35  1  0
 18 36  1  0
 18 37  1  0
 24 38  1  0
 24 39  1  0
 25 40  1  6
 27 41  1  0
 27 42  1  0
 30 43  1  0
M  ISO  8  31  14  32  14  33  14  34  14  35  14  36   8  37   8  38  13
M  ISO  5  39  13  40  13  41  13  42  13  43   3
M  END
>  <minimizedAffinity>  (1) 
-6.25340128

>  <minimizedRMSD>  (1) 
1.54720259

$$$$
