
     RDKit          3D

 33 35  0  0  0  0  0  0  0  0999 V2000
   47.6550   31.9750   45.0490 Cl  0  0  0  0  0  0  0  0  0  0  0  0
   46.6880   31.9850   46.5150 C   0  0  0  0  0  0  0  0  0  0  0  0
   45.7440   32.9700   46.6470 C   0  0  0  0  0  0  0  0  0  0  0  0
   45.0010   32.9940   47.7740 C   0  0  0  0  0  0  0  0  0  0  0  0
   45.2080   32.0320   48.7590 C   0  0  0  0  0  0  0  0  0  0  0  0
   46.1630   31.0420   48.6150 C   0  0  0  0  0  0  0  0  0  0  0  0
   46.9290   31.0110   47.4630 C   0  0  0  0  0  0  0  0  0  0  0  0
   49.3220   31.4640   49.1000 Cl  0  0  0  0  0  0  0  0  0  0  0  0
   49.1370   30.1600   47.9450 C   0  0  0  0  0  0  0  0  0  0  0  0
   47.9760   30.0020   47.2010 C   0  0  0  0  0  0  0  0  0  0  0  0
   47.7700   28.9950   46.2750 C   0  0  0  0  0  0  0  0  0  0  0  0
   48.7920   28.0830   46.0790 C   0  0  0  0  0  0  0  0  0  0  0  0
   49.9710   28.2120   46.8090 C   0  0  0  0  0  0  0  0  0  0  0  0
   50.1290   29.2320   47.7200 C   0  0  0  0  0  0  0  0  0  0  0  0
   44.5480   35.8740   44.7660 C   0  0  0  0  0  0  0  0  0  0  0  0
   45.2300   35.7840   43.5320 C   0  0  0  0  0  0  0  0  0  0  0  0
   46.1080   34.6860   43.3910 C   0  0  0  0  0  0  0  0  0  0  0  0
   46.2250   33.8220   44.4280 N   0  0  0  0  0  0  0  0  0  0  0  0
   45.5460   33.9610   45.5840 C   0  0  0  0  0  0  0  0  0  0  0  0
   44.7060   34.9950   45.7460 N   0  0  0  0  0  0  0  0  0  0  0  0
   46.7980   34.6210   42.1040 C   0  0  0  0  0  0  0  0  0  0  0  0
   47.4970   33.4270   42.0380 F   0  0  0  0  0  0  0  0  0  0  0  0
   47.7520   35.6090   42.1150 F   0  0  0  0  0  0  0  0  0  0  0  0
   45.9540   34.6610   41.0170 F   0  0  0  0  0  0  0  0  0  0  0  0
   44.2348   33.7708   47.9135 H   0  0  0  0  0  0  0  0  0  0  0  0
   44.5974   32.0600   49.6736 H   0  0  0  0  0  0  0  0  0  0  0  0
   46.3114   30.2905   49.4044 H   0  0  0  0  0  0  0  0  0  0  0  0
   46.8266   28.9219   45.7141 H   0  0  0  0  0  0  0  0  0  0  0  0
   48.6744   27.2643   45.3538 H   0  0  0  0  0  0  0  0  0  0  0  0
   50.7863   27.4897   46.6557 H   0  0  0  0  0  0  0  0  0  0  0  0
   51.0714   29.3075   48.2823 H   0  0  0  0  0  0  0  0  0  0  0  0
   43.8533   36.7127   44.9210 H   0  0  0  0  0  0  0  0  0  0  0  0
   45.0863   36.5233   42.7303 H   0  0  0  0  0  0  0  0  0  0  0  0
  1  2  1  0
  2  3  2  0
  2  7  1  0
  3  4  1  0
  4  5  2  0
  6  5  1  0
  7  6  2  0
  9  8  1  0
 10  7  1  0
 10  9  2  0
 11 10  1  0
 12 11  2  0
 12 13  1  0
 13 14  2  0
 14  9  1  0
 15 20  2  0
 16 15  1  0
 17 16  2  0
 17 18  1  0
 18 19  2  0
 19 20  1  0
 19  3  1  0
 21 23  1  0
 21 17  1  0
 22 21  1  0
 24 21  1  0
  4 25  1  0
  5 26  1  0
  6 27  1  0
 11 28  1  0
 12 29  1  0
 13 30  1  0
 14 31  1  0
 15 32  1  0
 16 33  1  0
M  ISO  8  25  14  26  14  27  14  28  14  29  14  30  14  31  14  32  14
M  ISO  1  33  14
M  END
>  <minimizedAffinity>  (1) 
-6.15560007

>  <minimizedRMSD>  (1) 
0.484036535

$$$$
