
     RDKit          3D

 42 45  0  0  1  0  0  0  0  0999 V2000
   48.0710   34.5580   41.9950 C   0  0  2  0  0  0  0  0  0  0  0  0
   46.7320   33.8190   42.2540 C   0  0  1  0  0  0  0  0  0  0  0  0
   47.2180   32.5890   42.5800 O   0  0  0  0  0  0  0  0  0  0  0  0
   48.1060   32.2870   41.5270 C   0  0  0  0  0  0  0  0  0  0  0  0
   48.5470   33.6270   40.9020 C   0  0  1  0  0  0  0  0  0  0  0  0
   44.5460   36.0670   44.4050 C   0  0  0  0  0  0  0  0  0  0  0  0
   45.2150   35.6520   43.2530 C   0  0  0  0  0  0  0  0  0  0  0  0
   45.9570   34.4930   43.3030 C   0  0  0  0  0  0  0  0  0  0  0  0
   45.9860   33.8160   44.5030 N   0  0  0  0  0  0  0  0  0  0  0  0
   45.3310   34.2380   45.5970 C   0  0  0  0  0  0  0  0  0  0  0  0
   44.6090   35.3700   45.5420 N   0  0  0  0  0  0  0  0  0  0  0  0
   48.9290   34.3930   43.0480 O   0  0  0  0  0  0  0  0  0  0  0  0
   47.8210   33.8080   39.7620 O   0  0  0  0  0  0  0  0  0  0  0  0
   49.0350   32.7300   38.0520 C   0  0  1  0  0  0  0  0  0  0  0  0
   48.5510   34.1570   38.6280 C   0  0  1  0  0  0  0  0  0  0  0  0
   47.7090   34.4840   37.6330 O   0  0  0  0  0  0  0  0  0  0  0  0
   46.8140   33.3770   37.6990 C   0  0  0  0  0  0  0  0  0  0  0  0
   47.7570   32.2190   37.4620 C   0  0  1  0  0  0  0  0  0  0  0  0
   49.8870   33.0600   36.9900 O   0  0  0  0  0  0  0  0  0  0  0  0
   47.8580   31.9950   36.1040 O   0  0  0  0  0  0  0  0  0  0  0  0
   46.6960   31.7660   35.3780 C   0  0  0  0  0  0  0  0  0  0  0  0
   45.7420   30.8360   35.6400 N   0  0  0  0  0  0  0  0  0  0  0  0
   44.7520   30.9130   34.7090 C   0  0  0  0  0  0  0  0  0  0  0  0
   45.1120   31.9100   33.8610 N   0  0  0  0  0  0  0  0  0  0  0  0
   46.2600   32.3960   34.2770 N   0  0  0  0  0  0  0  0  0  0  0  0
   48.0010   35.6391   41.8042 H   0  0  0  0  0  0  0  0  0  0  0  0
   46.0059   33.7849   41.4284 H   0  0  0  0  0  0  0  0  0  0  0  0
   48.9816   31.7465   41.9159 H   0  0  0  0  0  0  0  0  0  0  0  0
   47.6178   31.6484   40.7761 H   0  0  0  0  0  0  0  0  0  0  0  0
   49.6067   33.7395   40.6292 H   0  0  0  0  0  0  0  0  0  0  0  0
   43.9515   36.9920   44.3757 H   0  0  0  0  0  0  0  0  0  0  0  0
   45.1511   36.2383   42.3245 H   0  0  0  0  0  0  0  0  0  0  0  0
   45.3852   33.6608   46.5318 H   0  0  0  0  0  0  0  0  0  0  0  0
   48.4305   34.4889   43.8980 H   0  0  0  0  0  0  0  0  0  0  0  0
   49.5190   32.0387   38.7576 H   0  0  0  0  0  0  0  0  0  0  0  0
   49.2909   34.9327   38.8746 H   0  0  0  0  0  0  0  0  0  0  0  0
   46.3311   33.3078   38.6849 H   0  0  0  0  0  0  0  0  0  0  0  0
   45.9781   33.4304   36.9860 H   0  0  0  0  0  0  0  0  0  0  0  0
   47.4492   31.2591   37.9022 H   0  0  0  0  0  0  0  0  0  0  0  0
   50.7475   33.3933   37.3486 H   0  0  0  0  0  0  0  0  0  0  0  0
   43.8448   30.2933   34.6548 H   0  0  0  0  0  0  0  0  0  0  0  0
   44.5803   32.2287   33.0384 H   0  0  0  0  0  0  0  0  0  0  0  0
  1  2  1  0
  1 12  1  0
  2  3  1  0
  2  8  1  0
  4  3  1  0
  5  4  1  0
  5  1  1  0
  6 11  2  0
  7  8  2  0
  7  6  1  0
  8  9  1  0
  9 10  2  0
 11 10  1  0
 13  5  1  0
 14 15  1  0
 15 13  1  0
 16 17  1  0
 16 15  1  0
 18 17  1  0
 18 14  1  0
 19 14  1  0
 20 18  1  0
 21 22  1  0
 21 20  1  0
 23 22  2  0
 24 25  1  0
 24 23  1  0
 25 21  2  0
  1 26  1  6
  2 27  1  6
  4 28  1  0
  4 29  1  0
  5 30  1  6
  6 31  1  0
  7 32  1  0
 10 33  1  0
 12 34  1  0
 14 35  1  1
 15 36  1  1
 17 37  1  0
 17 38  1  0
 18 39  1  1
 19 40  1  0
 23 41  1  0
 24 42  1  0
M  ISO  8  26  13  27  13  28  13  29  13  30  13  31  14  32  14  33  14
M  ISO  8  34   3  35  13  36  13  37  13  38  13  39  13  40   3  41  14
M  ISO  1  42   9
M  END
>  <minimizedAffinity>  (1) 
-5.63362455

>  <minimizedRMSD>  (1) 
1.45648074

$$$$
