
     RDKit          3D

 46 49  0  0  1  0  0  0  0  0999 V2000
   47.8440   33.8570   39.7720 O   0  0  0  0  0  0  0  0  0  0  0  0
   48.0810   34.5700   42.0200 C   0  0  2  0  0  0  0  0  0  0  0  0
   46.7270   33.8450   42.2500 C   0  0  1  0  0  0  0  0  0  0  0  0
   47.1970   32.6050   42.5640 O   0  0  0  0  0  0  0  0  0  0  0  0
   48.0960   32.3120   41.5190 C   0  0  0  0  0  0  0  0  0  0  0  0
   48.5590   33.6580   40.9160 C   0  0  1  0  0  0  0  0  0  0  0  0
   44.5420   36.0800   44.4130 C   0  0  0  0  0  0  0  0  0  0  0  0
   45.2080   35.6820   43.2510 C   0  0  0  0  0  0  0  0  0  0  0  0
   45.9500   34.5140   43.3020 C   0  0  0  0  0  0  0  0  0  0  0  0
   45.9770   33.8310   44.4960 N   0  0  0  0  0  0  0  0  0  0  0  0
   45.3240   34.2440   45.5940 C   0  0  0  0  0  0  0  0  0  0  0  0
   44.6040   35.3760   45.5450 N   0  0  0  0  0  0  0  0  0  0  0  0
   48.9180   34.3840   43.0800 O   0  0  0  0  0  0  0  0  0  0  0  0
   49.1610   32.8260   38.1100 C   0  0  1  0  0  0  0  0  0  0  0  0
   48.5900   34.2320   38.6550 C   0  0  1  0  0  0  0  0  0  0  0  0
   47.7580   34.5030   37.6340 O   0  0  0  0  0  0  0  0  0  0  0  0
   46.9210   33.3540   37.6870 C   0  0  0  0  0  0  0  0  0  0  0  0
   47.9300   32.2430   37.4880 C   0  0  1  0  0  0  0  0  0  0  0  0
   50.0270   33.1950   37.0690 O   0  0  0  0  0  0  0  0  0  0  0  0
   48.0850   32.0110   36.1380 O   0  0  0  0  0  0  0  0  0  0  0  0
   47.2680   31.1860   35.3840 C   0  0  0  0  0  0  0  0  0  0  0  0
   47.6860   31.2360   34.0490 C   0  0  0  0  0  0  0  0  0  0  0  0
   47.0320   30.4920   33.0590 C   0  0  0  0  0  0  0  0  0  0  0  0
   45.9630   29.6990   33.4050 C   0  0  0  0  0  0  0  0  0  0  0  0
   45.5700   29.6640   34.7250 C   0  0  0  0  0  0  0  0  0  0  0  0
   46.1980   30.3870   35.7080 C   0  0  0  0  0  0  0  0  0  0  0  0
   48.0283   35.6548   41.8454 H   0  0  0  0  0  0  0  0  0  0  0  0
   46.0091   33.8321   41.4166 H   0  0  0  0  0  0  0  0  0  0  0  0
   48.9616   31.7585   41.9119 H   0  0  0  0  0  0  0  0  0  0  0  0
   47.6109   31.6896   40.7526 H   0  0  0  0  0  0  0  0  0  0  0  0
   49.6212   33.7704   40.6529 H   0  0  0  0  0  0  0  0  0  0  0  0
   43.9466   37.0047   44.3941 H   0  0  0  0  0  0  0  0  0  0  0  0
   45.1450   36.2761   42.3274 H   0  0  0  0  0  0  0  0  0  0  0  0
   45.3784   33.6604   46.5248 H   0  0  0  0  0  0  0  0  0  0  0  0
   48.4122   34.4964   43.9236 H   0  0  0  0  0  0  0  0  0  0  0  0
   49.6568   32.1650   38.8362 H   0  0  0  0  0  0  0  0  0  0  0  0
   49.2833   35.0465   38.9119 H   0  0  0  0  0  0  0  0  0  0  0  0
   46.4149   33.2689   38.6600 H   0  0  0  0  0  0  0  0  0  0  0  0
   46.1036   33.3576   36.9509 H   0  0  0  0  0  0  0  0  0  0  0  0
   47.6575   31.2722   37.9277 H   0  0  0  0  0  0  0  0  0  0  0  0
   50.8675   33.5531   37.4503 H   0  0  0  0  0  0  0  0  0  0  0  0
   48.5417   31.8697   33.7731 H   0  0  0  0  0  0  0  0  0  0  0  0
   47.3705   30.5415   32.0135 H   0  0  0  0  0  0  0  0  0  0  0  0
   45.4336   29.1059   32.6448 H   0  0  0  0  0  0  0  0  0  0  0  0
   44.7159   29.0291   35.0031 H   0  0  0  0  0  0  0  0  0  0  0  0
   45.8470   30.3273   36.7488 H   0  0  0  0  0  0  0  0  0  0  0  0
  1  6  1  0
  2  3  1  0
  2 13  1  0
  3  4  1  0
  3  9  1  0
  5  4  1  0
  6  5  1  0
  6  2  1  0
  7 12  2  0
  8  9  2  0
  8  7  1  0
  9 10  1  0
 10 11  2  0
 12 11  1  0
 14 15  1  0
 15  1  1  0
 16 17  1  0
 16 15  1  0
 18 17  1  0
 18 14  1  0
 19 14  1  0
 20 18  1  0
 21 26  1  0
 21 20  1  0
 22 21  2  0
 23 24  2  0
 23 22  1  0
 24 25  1  0
 25 26  2  0
  2 27  1  6
  3 28  1  6
  5 29  1  0
  5 30  1  0
  6 31  1  6
  7 32  1  0
  8 33  1  0
 11 34  1  0
 13 35  1  0
 14 36  1  1
 15 37  1  1
 17 38  1  0
 17 39  1  0
 18 40  1  1
 19 41  1  0
 22 42  1  0
 23 43  1  0
 24 44  1  0
 25 45  1  0
 26 46  1  0
M  ISO  8  27  13  28  13  29  13  30  13  31  13  32  14  33  14  34  14
M  ISO  8  35   3  36  13  37  13  38  13  39  13  40  13  41   3  42  14
M  ISO  4  43  14  44  14  45  14  46  14
M  END
>  <minimizedAffinity>  (1) 
-5.45554399

>  <minimizedRMSD>  (1) 
1.01335824

$$$$
