
     RDKit          3D

 33 35  0  0  0  0  0  0  0  0999 V2000
   47.5160   31.8180   44.8490 Cl  0  0  0  0  0  0  0  0  0  0  0  0
   46.6660   31.9100   46.4010 C   0  0  0  0  0  0  0  0  0  0  0  0
   45.7800   32.9510   46.5890 C   0  0  0  0  0  0  0  0  0  0  0  0
   45.1340   33.0050   47.7750 C   0  0  0  0  0  0  0  0  0  0  0  0
   45.3830   32.0250   48.7440 C   0  0  0  0  0  0  0  0  0  0  0  0
   46.2780   30.9920   48.5310 C   0  0  0  0  0  0  0  0  0  0  0  0
   46.9540   30.9210   47.3100 C   0  0  0  0  0  0  0  0  0  0  0  0
   49.3870   31.0580   48.5470 F   0  0  0  0  0  0  0  0  0  0  0  0
   49.1060   30.0350   47.6980 C   0  0  0  0  0  0  0  0  0  0  0  0
   47.9130   29.8590   47.0150 C   0  0  0  0  0  0  0  0  0  0  0  0
   47.7370   28.7770   46.1740 C   0  0  0  0  0  0  0  0  0  0  0  0
   48.7670   27.8770   46.0270 C   0  0  0  0  0  0  0  0  0  0  0  0
   49.9740   28.0270   46.6970 C   0  0  0  0  0  0  0  0  0  0  0  0
   50.1370   29.1150   47.5370 C   0  0  0  0  0  0  0  0  0  0  0  0
   44.5640   35.8500   44.7520 C   0  0  0  0  0  0  0  0  0  0  0  0
   45.2550   35.7980   43.5120 C   0  0  0  0  0  0  0  0  0  0  0  0
   46.1470   34.7150   43.3560 C   0  0  0  0  0  0  0  0  0  0  0  0
   46.2750   33.8280   44.3770 N   0  0  0  0  0  0  0  0  0  0  0  0
   45.5800   33.9390   45.5410 C   0  0  0  0  0  0  0  0  0  0  0  0
   44.7300   34.9520   45.7150 N   0  0  0  0  0  0  0  0  0  0  0  0
   46.8440   34.6870   42.0740 C   0  0  0  0  0  0  0  0  0  0  0  0
   47.6520   33.5550   42.0370 F   0  0  0  0  0  0  0  0  0  0  0  0
   47.7150   35.7620   42.0700 F   0  0  0  0  0  0  0  0  0  0  0  0
   46.0100   34.6440   41.0000 F   0  0  0  0  0  0  0  0  0  0  0  0
   44.4168   33.8140   47.9780 H   0  0  0  0  0  0  0  0  0  0  0  0
   44.8500   32.0784   49.7048 H   0  0  0  0  0  0  0  0  0  0  0  0
   46.4550   30.2373   49.3115 H   0  0  0  0  0  0  0  0  0  0  0  0
   46.7902   28.6377   45.6317 H   0  0  0  0  0  0  0  0  0  0  0  0
   48.6305   27.0135   45.3594 H   0  0  0  0  0  0  0  0  0  0  0  0
   50.7846   27.2956   46.5628 H   0  0  0  0  0  0  0  0  0  0  0  0
   51.0844   29.2526   48.0788 H   0  0  0  0  0  0  0  0  0  0  0  0
   43.8567   36.6750   44.9224 H   0  0  0  0  0  0  0  0  0  0  0  0
   45.1049   36.5519   42.7252 H   0  0  0  0  0  0  0  0  0  0  0  0
  1  2  1  0
  2  3  2  0
  2  7  1  0
  3  4  1  0
  4  5  2  0
  6  5  1  0
  7  6  2  0
  9  8  1  0
 10  7  1  0
 10  9  2  0
 11 10  1  0
 12 11  2  0
 12 13  1  0
 13 14  2  0
 14  9  1  0
 15 20  2  0
 16 15  1  0
 17 16  2  0
 17 18  1  0
 18 19  2  0
 19 20  1  0
 19  3  1  0
 21 17  1  0
 22 21  1  0
 23 21  1  0
 24 21  1  0
  4 25  1  0
  5 26  1  0
  6 27  1  0
 11 28  1  0
 12 29  1  0
 13 30  1  0
 14 31  1  0
 15 32  1  0
 16 33  1  0
M  ISO  8  25  14  26  14  27  14  28  14  29  14  30  14  31  14  32  14
M  ISO  1  33  14
M  END
>  <minimizedAffinity>  (1) 
-6.15235424

>  <minimizedRMSD>  (1) 
0.344224602

$$$$
