
     RDKit          3D

 39 41  0  0  1  0  0  0  0  0999 V2000
   48.0290   34.6820   41.9750 C   0  0  2  0  0  0  0  0  0  0  0  0
   46.7240   33.8900   42.2580 C   0  0  1  0  0  0  0  0  0  0  0  0
   47.2690   32.6800   42.5730 O   0  0  0  0  0  0  0  0  0  0  0  0
   48.1500   32.4190   41.5030 C   0  0  0  0  0  0  0  0  0  0  0  0
   48.5190   33.7790   40.8680 C   0  0  1  0  0  0  0  0  0  0  0  0
   44.5180   36.0550   44.4700 C   0  0  0  0  0  0  0  0  0  0  0  0
   45.1820   35.6790   43.3020 C   0  0  0  0  0  0  0  0  0  0  0  0
   45.9470   34.5300   43.3280 C   0  0  0  0  0  0  0  0  0  0  0  0
   46.0020   33.8300   44.5140 N   0  0  0  0  0  0  0  0  0  0  0  0
   45.3480   34.2220   45.6210 C   0  0  0  0  0  0  0  0  0  0  0  0
   44.6060   35.3380   45.5940 N   0  0  0  0  0  0  0  0  0  0  0  0
   48.9110   34.5520   43.0080 O   0  0  0  0  0  0  0  0  0  0  0  0
   47.7580   33.9230   39.7460 O   0  0  0  0  0  0  0  0  0  0  0  0
   49.1450   32.9280   38.1200 C   0  0  1  0  0  0  0  0  0  0  0  0
   48.4470   34.3020   38.5940 C   0  0  1  0  0  0  0  0  0  0  0  0
   47.5790   34.4330   37.5760 O   0  0  0  0  0  0  0  0  0  0  0  0
   46.8590   33.2130   37.7120 C   0  0  0  0  0  0  0  0  0  0  0  0
   47.9650   32.1950   37.5560 C   0  0  1  0  0  0  0  0  0  0  0  0
   49.9560   33.3100   37.0420 O   0  0  0  0  0  0  0  0  0  0  0  0
   48.1180   31.9020   36.2150 O   0  0  0  0  0  0  0  0  0  0  0  0
   47.7750   30.5740   36.0220 C   0  0  0  0  0  0  0  0  0  0  0  0
   47.9123   35.7601   41.7901 H   0  0  0  0  0  0  0  0  0  0  0  0
   45.9824   33.8289   41.4479 H   0  0  0  0  0  0  0  0  0  0  0  0
   49.0565   31.9193   41.8753 H   0  0  0  0  0  0  0  0  0  0  0  0
   47.6765   31.7590   40.7613 H   0  0  0  0  0  0  0  0  0  0  0  0
   49.5647   33.9435   40.5688 H   0  0  0  0  0  0  0  0  0  0  0  0
   43.9044   36.9680   44.4654 H   0  0  0  0  0  0  0  0  0  0  0  0
   45.0983   36.2815   42.3855 H   0  0  0  0  0  0  0  0  0  0  0  0
   45.4214   33.6296   46.5449 H   0  0  0  0  0  0  0  0  0  0  0  0
   48.4252   34.6236   43.8677 H   0  0  0  0  0  0  0  0  0  0  0  0
   49.7136   32.3645   38.8744 H   0  0  0  0  0  0  0  0  0  0  0  0
   49.0609   35.1935   38.7897 H   0  0  0  0  0  0  0  0  0  0  0  0
   46.3786   33.1372   38.6987 H   0  0  0  0  0  0  0  0  0  0  0  0
   46.0345   33.0949   36.9934 H   0  0  0  0  0  0  0  0  0  0  0  0
   47.7964   31.2295   38.0554 H   0  0  0  0  0  0  0  0  0  0  0  0
   50.7961   33.7057   37.3851 H   0  0  0  0  0  0  0  0  0  0  0  0
   47.6481   30.0825   36.9979 H   0  0  0  0  0  0  0  0  0  0  0  0
   46.8327   30.5170   35.4574 H   0  0  0  0  0  0  0  0  0  0  0  0
   48.5719   30.0678   35.4574 H   0  0  0  0  0  0  0  0  0  0  0  0
  1  2  1  0
  1 12  1  0
  2  3  1  0
  2  8  1  0
  4  3  1  0
  5  4  1  0
  5  1  1  0
  6 11  2  0
  7  8  2  0
  7  6  1  0
  8  9  1  0
  9 10  2  0
 11 10  1  0
 13  5  1  0
 14 15  1  0
 15 13  1  0
 16 17  1  0
 16 15  1  0
 18 17  1  0
 18 14  1  0
 19 14  1  0
 20 18  1  0
 21 20  1  0
  1 22  1  6
  2 23  1  6
  4 24  1  0
  4 25  1  0
  5 26  1  6
  6 27  1  0
  7 28  1  0
 10 29  1  0
 12 30  1  0
 14 31  1  1
 15 32  1  1
 17 33  1  0
 17 34  1  0
 18 35  1  1
 19 36  1  0
 21 37  1  0
 21 38  1  0
 21 39  1  0
M  ISO  8  22  13  23  13  24  13  25  13  26  13  27  14  28  14  29  14
M  ISO  8  30   3  31  13  32  13  33  13  34  13  35  13  36   3  37   8
M  ISO  2  38   8  39   8
M  END
>  <minimizedAffinity>  (1) 
-5.02902699

>  <minimizedRMSD>  (1) 
0.136259869

$$$$
