
     RDKit          3D

 26 28  0  0  0  0  0  0  0  0999 V2000
   46.1260   34.9060   43.3980 C   0  0  0  0  0  0  0  0  0  0  0  0
   45.2280   35.8940   43.6490 N   0  0  0  0  0  0  0  0  0  0  0  0
   44.4980   35.9950   44.7530 C   0  0  0  0  0  0  0  0  0  0  0  0
   44.6130   35.0820   45.7310 N   0  0  0  0  0  0  0  0  0  0  0  0
   45.4820   34.0400   45.5970 C   0  0  0  0  0  0  0  0  0  0  0  0
   45.6050   33.1000   46.5960 C   0  0  0  0  0  0  0  0  0  0  0  0
   46.4760   32.0500   46.4710 C   0  0  0  0  0  0  0  0  0  0  0  0
   47.2250   31.9800   45.2930 C   0  0  0  0  0  0  0  0  0  0  0  0
   47.0600   32.9470   44.3320 C   0  0  0  0  0  0  0  0  0  0  0  0
   46.1970   34.0140   44.4210 C   0  0  0  0  0  0  0  0  0  0  0  0
   46.7990   34.0320   39.8420 C   0  0  0  0  0  0  0  0  0  0  0  0
   46.2490   34.2030   41.1140 C   0  0  0  0  0  0  0  0  0  0  0  0
   46.8930   34.8500   42.1700 C   0  0  0  0  0  0  0  0  0  0  0  0
   48.1100   35.2890   41.8050 N   0  0  0  0  0  0  0  0  0  0  0  0
   48.6740   35.1510   40.6100 C   0  0  0  0  0  0  0  0  0  0  0  0
   48.0150   34.5240   39.6390 N   0  0  0  0  0  0  0  0  0  0  0  0
   46.0550   33.3610   38.8540 N   0  0  0  0  0  0  0  0  0  0  0  0
   43.7940   36.8324   44.8676 H   0  0  0  0  0  0  0  0  0  0  0  0
   44.9954   33.1936   47.5069 H   0  0  0  0  0  0  0  0  0  0  0  0
   46.5814   31.2945   47.2636 H   0  0  0  0  0  0  0  0  0  0  0  0
   47.9396   31.1584   45.1372 H   0  0  0  0  0  0  0  0  0  0  0  0
   47.6664   32.8613   43.4183 H   0  0  0  0  0  0  0  0  0  0  0  0
   45.2413   33.8012   41.2960 H   0  0  0  0  0  0  0  0  0  0  0  0
   49.6809   35.5532   40.4243 H   0  0  0  0  0  0  0  0  0  0  0  0
   46.4506   33.2291   37.9122 H   0  0  0  0  0  0  0  0  0  0  0  0
   45.1147   33.0018   39.0726 H   0  0  0  0  0  0  0  0  0  0  0  0
  1  2  2  0
  1 10  1  0
  2  3  1  0
  3  4  2  0
  5  4  1  0
  5  6  2  0
  7  6  1  0
  8  7  2  0
  9 10  2  0
  9  8  1  0
 10  5  1  0
 11 12  2  0
 12 13  1  0
 13  1  1  0
 14 13  2  0
 15 14  1  0
 16 11  1  0
 16 15  2  0
 17 11  1  0
  3 18  1  0
  6 19  1  0
  7 20  1  0
  8 21  1  0
  9 22  1  0
 12 23  1  0
 15 24  1  0
 17 25  1  0
 17 26  1  0
M  ISO  7  18  14  19  14  20  14  21  14  22  14  23  14  24  14
M  END
>  <minimizedAffinity>  (1) 
-5.60063028

>  <minimizedRMSD>  (1) 
5.4232955

$$$$
