
     RDKit          3D

 36 39  0  0  0  0  0  0  0  0999 V2000
   47.6320   31.9690   44.8890 Cl  0  0  0  0  0  0  0  0  0  0  0  0
   46.7510   32.0110   46.4100 C   0  0  0  0  0  0  0  0  0  0  0  0
   45.8300   33.0110   46.5830 C   0  0  0  0  0  0  0  0  0  0  0  0
   45.1630   33.0550   47.7540 C   0  0  0  0  0  0  0  0  0  0  0  0
   45.4320   32.0950   48.7350 C   0  0  0  0  0  0  0  0  0  0  0  0
   46.3550   31.0990   48.5510 C   0  0  0  0  0  0  0  0  0  0  0  0
   47.0420   31.0470   47.3540 C   0  0  0  0  0  0  0  0  0  0  0  0
   47.7500   28.9710   46.2560 C   0  0  0  0  0  0  0  0  0  0  0  0
   48.0190   29.9980   47.1520 C   0  0  0  0  0  0  0  0  0  0  0  0
   49.2340   29.9400   47.8030 C   0  0  0  0  0  0  0  0  0  0  0  0
   50.1800   28.9510   47.6260 C   0  0  0  0  0  0  0  0  0  0  0  0
   51.3920   28.7250   48.1540 N   0  0  0  0  0  0  0  0  0  0  0  0
   51.8300   27.5890   47.5810 C   0  0  0  0  0  0  0  0  0  0  0  0
   50.9190   27.1100   46.7140 N   0  0  0  0  0  0  0  0  0  0  0  0
   49.8750   27.9420   46.7220 C   0  0  0  0  0  0  0  0  0  0  0  0
   48.6690   27.9580   46.0450 C   0  0  0  0  0  0  0  0  0  0  0  0
   44.5140   35.8650   44.7110 C   0  0  0  0  0  0  0  0  0  0  0  0
   45.1790   35.7880   43.4610 C   0  0  0  0  0  0  0  0  0  0  0  0
   46.0850   34.7160   43.3130 C   0  0  0  0  0  0  0  0  0  0  0  0
   46.2520   33.8590   44.3470 N   0  0  0  0  0  0  0  0  0  0  0  0
   45.5830   33.9900   45.5190 C   0  0  0  0  0  0  0  0  0  0  0  0
   44.7170   34.9920   45.6960 N   0  0  0  0  0  0  0  0  0  0  0  0
   46.7550   34.6650   42.0090 C   0  0  0  0  0  0  0  0  0  0  0  0
   47.4740   33.4820   41.9310 F   0  0  0  0  0  0  0  0  0  0  0  0
   47.6880   35.6710   42.0060 F   0  0  0  0  0  0  0  0  0  0  0  0
   45.8770   34.7060   40.9490 F   0  0  0  0  0  0  0  0  0  0  0  0
   44.4136   33.8393   47.9363 H   0  0  0  0  0  0  0  0  0  0  0  0
   44.8835   32.1411   49.6874 H   0  0  0  0  0  0  0  0  0  0  0  0
   46.5448   30.3565   49.3401 H   0  0  0  0  0  0  0  0  0  0  0  0
   46.7961   28.9629   45.7083 H   0  0  0  0  0  0  0  0  0  0  0  0
   49.4664   30.7433   48.5176 H   0  0  0  0  0  0  0  0  0  0  0  0
   51.8844   29.3005   48.8520 H   0  0  0  0  0  0  0  0  0  0  0  0
   52.8005   27.1163   47.7925 H   0  0  0  0  0  0  0  0  0  0  0  0
   48.4373   27.1552   45.3296 H   0  0  0  0  0  0  0  0  0  0  0  0
   43.7975   36.6834   44.8746 H   0  0  0  0  0  0  0  0  0  0  0  0
   45.0001   36.5176   42.6575 H   0  0  0  0  0  0  0  0  0  0  0  0
  1  2  1  0
  2  3  2  0
  2  7  1  0
  3  4  1  0
  4  5  2  0
  6  5  1  0
  7  6  2  0
  8  9  2  0
  9  7  1  0
  9 10  1  0
 11 10  2  0
 11 12  1  0
 13 12  1  0
 14 15  1  0
 14 13  2  0
 15 11  1  0
 16  8  1  0
 16 15  2  0
 17 22  2  0
 18 17  1  0
 19 18  2  0
 19 20  1  0
 20 21  2  0
 21 22  1  0
 21  3  1  0
 23 19  1  0
 24 23  1  0
 25 23  1  0
 26 23  1  0
  4 27  1  0
  5 28  1  0
  6 29  1  0
  8 30  1  0
 10 31  1  0
 12 32  1  0
 13 33  1  0
 16 34  1  0
 17 35  1  0
 18 36  1  0
M  ISO  8  27  14  28  14  29  14  30  14  31  14  32   9  33  14  34  14
M  ISO  2  35  14  36  14
M  END
>  <minimizedAffinity>  (1) 
-6.15025949

>  <minimizedRMSD>  (1) 
0.7564556

$$$$
