
     RDKit          3D

 22 23  0  0  0  0  0  0  0  0999 V2000
   44.5600   35.6140   42.3570 C   0  0  0  0  0  0  0  0  0  0  0  0
   43.4250   35.6500   41.5290 C   0  0  0  0  0  0  0  0  0  0  0  0
   43.3190   34.8140   40.4090 C   0  0  0  0  0  0  0  0  0  0  0  0
   44.3860   33.9900   40.2050 N   0  0  0  0  0  0  0  0  0  0  0  0
   45.4620   33.9640   40.9990 C   0  0  0  0  0  0  0  0  0  0  0  0
   45.5520   34.7730   42.0740 N   0  0  0  0  0  0  0  0  0  0  0  0
   44.6180   36.4830   43.4790 N   0  0  0  0  0  0  0  0  0  0  0  0
   41.1670   32.9760   41.3160 Cl  0  0  0  0  0  0  0  0  0  0  0  0
   41.1090   34.0150   39.8840 C   0  0  0  0  0  0  0  0  0  0  0  0
   42.1680   34.8350   39.5500 C   0  0  0  0  0  0  0  0  0  0  0  0
   42.0250   35.5940   38.4310 C   0  0  0  0  0  0  0  0  0  0  0  0
   40.8810   35.5740   37.6320 C   0  0  0  0  0  0  0  0  0  0  0  0
   39.8640   34.7280   38.0310 C   0  0  0  0  0  0  0  0  0  0  0  0
   39.9420   33.9310   39.1530 C   0  0  0  0  0  0  0  0  0  0  0  0
   42.6061   36.3459   41.7638 H   0  0  0  0  0  0  0  0  0  0  0  0
   46.2862   33.2720   40.7715 H   0  0  0  0  0  0  0  0  0  0  0  0
   45.4415   36.4712   44.0975 H   0  0  0  0  0  0  0  0  0  0  0  0
   43.8365   37.1250   43.6741 H   0  0  0  0  0  0  0  0  0  0  0  0
   42.8530   36.2574   38.1408 H   0  0  0  0  0  0  0  0  0  0  0  0
   40.7934   36.1993   36.7313 H   0  0  0  0  0  0  0  0  0  0  0  0
   38.9476   34.6886   37.4238 H   0  0  0  0  0  0  0  0  0  0  0  0
   39.1187   33.2644   39.4493 H   0  0  0  0  0  0  0  0  0  0  0  0
  1  7  1  0
  2  1  2  0
  3  2  1  0
  4  3  2  0
  4  5  1  0
  5  6  2  0
  6  1  1  0
  9  8  1  0
 10  9  2  0
 10  3  1  0
 11 10  1  0
 12 13  1  0
 12 11  2  0
 13 14  2  0
 14  9  1  0
  2 15  1  0
  5 16  1  0
  7 17  1  0
  7 18  1  0
 11 19  1  0
 12 20  1  0
 13 21  1  0
 14 22  1  0
M  ISO  6  15  14  16  14  19  14  20  14  21  14  22  14
M  END
>  <minimizedAffinity>  (1) 
-4.90879869

>  <minimizedRMSD>  (1) 
7.13006592

$$$$
