
     RDKit          3D

 19 20  0  0  0  0  0  0  0  0999 V2000
   45.0840   35.0770   43.8640 C   0  0  0  0  0  0  0  0  0  0  0  0
   46.0600   35.2320   42.8530 C   0  0  0  0  0  0  0  0  0  0  0  0
   47.2400   34.4450   42.9420 C   0  0  0  0  0  0  0  0  0  0  0  0
   47.3490   33.5960   43.9960 N   0  0  0  0  0  0  0  0  0  0  0  0
   46.4000   33.4810   44.9340 C   0  0  0  0  0  0  0  0  0  0  0  0
   45.2770   34.2080   44.8760 N   0  0  0  0  0  0  0  0  0  0  0  0
   43.9020   35.8590   43.7830 N   0  0  0  0  0  0  0  0  0  0  0  0
   48.2920   34.5570   41.9260 C   0  0  0  0  0  0  0  0  0  0  0  0
   49.6520   35.0010   42.4980 C   0  0  0  0  0  0  0  0  0  0  0  0
   48.8770   35.8450   41.5310 C   0  0  0  0  0  0  0  0  0  0  0  0
   45.9108   35.9393   42.0238 H   0  0  0  0  0  0  0  0  0  0  0  0
   46.5456   32.7770   45.7666 H   0  0  0  0  0  0  0  0  0  0  0  0
   43.7728   36.5177   43.0018 H   0  0  0  0  0  0  0  0  0  0  0  0
   43.1736   35.7677   44.5054 H   0  0  0  0  0  0  0  0  0  0  0  0
   47.8676   33.7374   41.3276 H   0  0  0  0  0  0  0  0  0  0  0  0
   49.7403   35.3021   43.5523 H   0  0  0  0  0  0  0  0  0  0  0  0
   50.6669   34.5791   42.5424 H   0  0  0  0  0  0  0  0  0  0  0  0
   49.2522   35.9792   40.5057 H   0  0  0  0  0  0  0  0  0  0  0  0
   48.5148   36.8835   41.5453 H   0  0  0  0  0  0  0  0  0  0  0  0
  1  6  2  0
  2  3  2  0
  2  1  1  0
  3  4  1  0
  4  5  2  0
  6  5  1  0
  7  1  1  0
  8  9  1  0
  8  3  1  0
 10  8  1  0
 10  9  1  0
  2 11  1  0
  5 12  1  0
  7 13  1  0
  7 14  1  0
  8 15  1  0
  9 16  1  0
  9 17  1  0
 10 18  1  0
 10 19  1  0
M  ISO  7  11  14  12  14  15  13  16  13  17  13  18  13  19  13
M  END
>  <minimizedAffinity>  (1) 
-4.51115274

>  <minimizedRMSD>  (1) 
1.38700068

$$$$
