
     RDKit          3D

 27 28  0  0  0  0  0  0  0  0999 V2000
   44.8710   35.0250   44.5970 C   0  0  0  0  0  0  0  0  0  0  0  0
   45.6680   34.8610   43.4470 C   0  0  0  0  0  0  0  0  0  0  0  0
   46.7520   33.9650   43.5030 C   0  0  0  0  0  0  0  0  0  0  0  0
   46.9560   33.3140   44.6740 N   0  0  0  0  0  0  0  0  0  0  0  0
   46.1890   33.4790   45.7560 C   0  0  0  0  0  0  0  0  0  0  0  0
   45.1540   34.3310   45.7120 N   0  0  0  0  0  0  0  0  0  0  0  0
   43.7790   35.9230   44.5500 N   0  0  0  0  0  0  0  0  0  0  0  0
   47.5750   33.7810   42.3550 N   0  0  0  0  0  0  0  0  0  0  0  0
   48.7060   32.8860   42.5580 C   0  0  0  0  0  0  0  0  0  0  0  0
   49.5900   32.7830   41.3670 C   0  0  0  0  0  0  0  0  0  0  0  0
   48.8890   33.0060   40.0710 C   0  0  0  0  0  0  0  0  0  0  0  0
   48.1520   34.3210   40.0260 C   0  0  0  0  0  0  0  0  0  0  0  0
   47.1880   34.4960   41.1560 C   0  0  0  0  0  0  0  0  0  0  0  0
   45.4481   35.4207   42.5259 H   0  0  0  0  0  0  0  0  0  0  0  0
   46.4054   32.9190   46.6777 H   0  0  0  0  0  0  0  0  0  0  0  0
   43.5789   36.4456   43.6853 H   0  0  0  0  0  0  0  0  0  0  0  0
   43.1840   36.0542   45.3805 H   0  0  0  0  0  0  0  0  0  0  0  0
   49.3010   33.2602   43.4041 H   0  0  0  0  0  0  0  0  0  0  0  0
   48.2992   31.8826   42.7520 H   0  0  0  0  0  0  0  0  0  0  0  0
   50.3879   33.5341   41.4624 H   0  0  0  0  0  0  0  0  0  0  0  0
   49.9776   31.7538   41.3463 H   0  0  0  0  0  0  0  0  0  0  0  0
   49.6335   32.9921   39.2614 H   0  0  0  0  0  0  0  0  0  0  0  0
   48.1450   32.2043   39.9537 H   0  0  0  0  0  0  0  0  0  0  0  0
   48.8893   35.1364   40.0662 H   0  0  0  0  0  0  0  0  0  0  0  0
   47.5685   34.3365   39.0936 H   0  0  0  0  0  0  0  0  0  0  0  0
   47.1208   35.5676   41.3949 H   0  0  0  0  0  0  0  0  0  0  0  0
   46.2226   34.0833   40.8277 H   0  0  0  0  0  0  0  0  0  0  0  0
  1  6  2  0
  2  3  2  0
  2  1  1  0
  3  4  1  0
  4  5  2  0
  6  5  1  0
  7  1  1  0
  8  9  1  0
  8  3  1  0
 10  9  1  0
 11 10  1  0
 12 11  1  0
 12 13  1  0
 13  8  1  0
  2 14  1  0
  5 15  1  0
  7 16  1  0
  7 17  1  0
  9 18  1  0
  9 19  1  0
 10 20  1  0
 10 21  1  0
 11 22  1  0
 11 23  1  0
 12 24  1  0
 12 25  1  0
 13 26  1  0
 13 27  1  0
M  ISO  8  14  14  15  14  18  13  19  13  20  13  21  13  22  13  23  13
M  ISO  4  24  13  25  13  26  13  27  13
M  END
>  <minimizedAffinity>  (1) 
-4.48229694

>  <minimizedRMSD>  (1) 
1.38239014

$$$$
