
     RDKit          3D

 24 25  0  0  0  0  0  0  0  0999 V2000
   45.2220   35.5000   43.4830 C   0  0  0  0  0  0  0  0  0  0  0  0
   46.4250   35.1630   42.8390 C   0  0  0  0  0  0  0  0  0  0  0  0
   47.2380   34.1550   43.3990 C   0  0  0  0  0  0  0  0  0  0  0  0
   46.8000   33.5680   44.5380 N   0  0  0  0  0  0  0  0  0  0  0  0
   45.6430   33.9080   45.1370 C   0  0  0  0  0  0  0  0  0  0  0  0
   44.8690   34.8640   44.6100 N   0  0  0  0  0  0  0  0  0  0  0  0
   44.4130   36.5110   42.9150 N   0  0  0  0  0  0  0  0  0  0  0  0
   48.4690   33.7560   42.8090 N   0  0  0  0  0  0  0  0  0  0  0  0
   49.6000   34.6300   42.5600 C   0  0  0  0  0  0  0  0  0  0  0  0
   50.7270   33.6280   42.4120 C   0  0  0  0  0  0  0  0  0  0  0  0
   50.0360   32.6030   41.5370 C   0  0  0  0  0  0  0  0  0  0  0  0
   48.7630   32.4060   42.3700 C   0  0  0  0  0  0  0  0  0  0  0  0
   46.7274   35.6763   41.9143 H   0  0  0  0  0  0  0  0  0  0  0  0
   45.3334   33.3988   46.0616 H   0  0  0  0  0  0  0  0  0  0  0  0
   44.7100   36.9821   42.0485 H   0  0  0  0  0  0  0  0  0  0  0  0
   43.5267   36.7764   43.3677 H   0  0  0  0  0  0  0  0  0  0  0  0
   49.4600   35.2166   41.6400 H   0  0  0  0  0  0  0  0  0  0  0  0
   49.7678   35.3821   43.3450 H   0  0  0  0  0  0  0  0  0  0  0  0
   51.6043   34.0675   41.9148 H   0  0  0  0  0  0  0  0  0  0  0  0
   51.1349   33.2388   43.3566 H   0  0  0  0  0  0  0  0  0  0  0  0
   50.6195   31.6748   41.4476 H   0  0  0  0  0  0  0  0  0  0  0  0
   49.8780   32.9006   40.4899 H   0  0  0  0  0  0  0  0  0  0  0  0
   47.9450   31.9993   41.7573 H   0  0  0  0  0  0  0  0  0  0  0  0
   48.8839   31.6905   43.1967 H   0  0  0  0  0  0  0  0  0  0  0  0
  1  6  2  0
  2  3  2  0
  2  1  1  0
  3  4  1  0
  4  5  2  0
  6  5  1  0
  7  1  1  0
  8  3  1  0
  9  8  1  0
 10  9  1  0
 11 12  1  0
 11 10  1  0
 12  8  1  0
  2 13  1  0
  5 14  1  0
  7 15  1  0
  7 16  1  0
  9 17  1  0
  9 18  1  0
 10 19  1  0
 10 20  1  0
 11 21  1  0
 11 22  1  0
 12 23  1  0
 12 24  1  0
M  ISO  8  13  14  14  14  17  13  18  13  19  13  20  13  21  13  22  13
M  ISO  2  23  13  24  13
M  END
>  <minimizedAffinity>  (1) 
-4.28039646

>  <minimizedRMSD>  (1) 
1.10587263

$$$$
