
     RDKit          3D

 16 16  0  0  0  0  0  0  0  0999 V2000
   44.8990   35.1070   44.0410 C   0  0  0  0  0  0  0  0  0  0  0  0
   45.6280   35.2220   42.8300 C   0  0  0  0  0  0  0  0  0  0  0  0
   46.8150   34.4660   42.6890 C   0  0  0  0  0  0  0  0  0  0  0  0
   47.1820   33.6790   43.7210 N   0  0  0  0  0  0  0  0  0  0  0  0
   46.4720   33.5880   44.8610 C   0  0  0  0  0  0  0  0  0  0  0  0
   45.3530   34.2940   45.0060 N   0  0  0  0  0  0  0  0  0  0  0  0
   43.7070   35.8620   44.1890 N   0  0  0  0  0  0  0  0  0  0  0  0
   48.6100   35.4910   41.3030 C   0  0  0  0  0  0  0  0  0  0  0  0
   49.3930   36.3570   41.7370 O   0  0  0  0  0  0  0  0  0  0  0  0
   47.5150   34.5990   41.4840 N   0  0  0  0  0  0  0  0  0  0  0  0
   45.2795   35.8817   42.0217 H   0  0  0  0  0  0  0  0  0  0  0  0
   46.8165   32.9303   45.6726 H   0  0  0  0  0  0  0  0  0  0  0  0
   43.3885   36.4765   43.4262 H   0  0  0  0  0  0  0  0  0  0  0  0
   43.1601   35.7956   45.0593 H   0  0  0  0  0  0  0  0  0  0  0  0
   48.9185   35.3398   40.2580 H   0  0  0  0  0  0  0  0  0  0  0  0
   47.2218   34.0198   40.6844 H   0  0  0  0  0  0  0  0  0  0  0  0
  1  7  1  0
  1  6  2  0
  2  1  1  0
  3  2  2  0
  3  4  1  0
  4  5  2  0
  5  6  1  0
  8 10  1  0
  8  9  2  0
 10  3  1  0
  2 11  1  0
  5 12  1  0
  7 13  1  0
  7 14  1  0
  8 15  1  0
 10 16  1  0
M  ISO  3  11  14  12  14  15   6
M  END
>  <minimizedAffinity>  (1) 
-4.0600915

>  <minimizedRMSD>  (1) 
1.7105993

$$$$
