
     RDKit          3D

 15 15  0  0  0  0  0  0  0  0999 V2000
   45.0990   35.3770   44.1100 C   0  0  0  0  0  0  0  0  0  0  0  0
   46.1570   34.8000   43.3690 C   0  0  0  0  0  0  0  0  0  0  0  0
   46.8890   33.7360   43.9570 C   0  0  0  0  0  0  0  0  0  0  0  0
   46.5180   33.3420   45.2040 N   0  0  0  0  0  0  0  0  0  0  0  0
   45.5110   33.9110   45.8750 C   0  0  0  0  0  0  0  0  0  0  0  0
   44.8080   34.9200   45.3320 N   0  0  0  0  0  0  0  0  0  0  0  0
   44.3660   36.4380   43.5250 N   0  0  0  0  0  0  0  0  0  0  0  0
   47.9990   33.0860   43.2540 C   0  0  0  0  0  0  0  0  0  0  0  0
   46.4060   35.1669   42.3623 H   0  0  0  0  0  0  0  0  0  0  0  0
   45.2552   33.5496   46.8819 H   0  0  0  0  0  0  0  0  0  0  0  0
   44.6089   36.7731   42.5818 H   0  0  0  0  0  0  0  0  0  0  0  0
   43.5900   36.8746   44.0427 H   0  0  0  0  0  0  0  0  0  0  0  0
   48.7058   32.6721   43.9882 H   0  0  0  0  0  0  0  0  0  0  0  0
   47.6082   32.2740   42.6231 H   0  0  0  0  0  0  0  0  0  0  0  0
   48.5159   33.8241   42.6231 H   0  0  0  0  0  0  0  0  0  0  0  0
  1  6  2  0
  2  3  2  0
  2  1  1  0
  3  4  1  0
  4  5  2  0
  6  5  1  0
  7  1  1  0
  8  3  1  0
  2  9  1  0
  5 10  1  0
  7 11  1  0
  7 12  1  0
  8 13  1  0
  8 14  1  0
  8 15  1  0
M  ISO  5   9  14  10  14  13   8  14   8  15   8
M  END
>  <minimizedAffinity>  (1) 
-3.25299168

>  <minimizedRMSD>  (1) 
0.081452623

$$$$
