
     RDKit          3D

 33 35  0  0  0  0  0  0  0  0999 V2000
   47.5640   31.8790   44.8070 Cl  0  0  0  0  0  0  0  0  0  0  0  0
   46.7120   31.9510   46.3590 C   0  0  0  0  0  0  0  0  0  0  0  0
   45.8190   32.9890   46.5690 C   0  0  0  0  0  0  0  0  0  0  0  0
   45.1840   33.0410   47.7570 C   0  0  0  0  0  0  0  0  0  0  0  0
   45.4580   32.0490   48.7080 C   0  0  0  0  0  0  0  0  0  0  0  0
   46.3430   31.0220   48.4970 C   0  0  0  0  0  0  0  0  0  0  0  0
   47.0000   30.9600   47.2830 C   0  0  0  0  0  0  0  0  0  0  0  0
   47.9300   29.8860   47.0530 C   0  0  0  0  0  0  0  0  0  0  0  0
   49.1500   29.9410   47.7050 C   0  0  0  0  0  0  0  0  0  0  0  0
   50.1010   28.9490   47.5400 C   0  0  0  0  0  0  0  0  0  0  0  0
   49.8700   27.8580   46.7130 C   0  0  0  0  0  0  0  0  0  0  0  0
   48.6430   27.8120   46.0640 C   0  0  0  0  0  0  0  0  0  0  0  0
   47.6930   28.8070   46.2310 C   0  0  0  0  0  0  0  0  0  0  0  0
   44.5280   35.8570   44.7370 C   0  0  0  0  0  0  0  0  0  0  0  0
   45.1950   35.8030   43.4850 C   0  0  0  0  0  0  0  0  0  0  0  0
   46.1070   34.7250   43.3220 C   0  0  0  0  0  0  0  0  0  0  0  0
   46.2690   33.8550   44.3410 N   0  0  0  0  0  0  0  0  0  0  0  0
   45.6110   33.9540   45.5040 C   0  0  0  0  0  0  0  0  0  0  0  0
   44.7350   34.9650   45.6990 N   0  0  0  0  0  0  0  0  0  0  0  0
   46.7740   34.7040   42.0200 C   0  0  0  0  0  0  0  0  0  0  0  0
   47.5250   33.5230   41.9390 F   0  0  0  0  0  0  0  0  0  0  0  0
   47.6880   35.7160   42.0090 F   0  0  0  0  0  0  0  0  0  0  0  0
   45.9030   34.7060   40.9490 F   0  0  0  0  0  0  0  0  0  0  0  0
   44.4659   33.8452   47.9752 H   0  0  0  0  0  0  0  0  0  0  0  0
   44.9359   32.0962   49.6750 H   0  0  0  0  0  0  0  0  0  0  0  0
   46.5251   30.2663   49.2754 H   0  0  0  0  0  0  0  0  0  0  0  0
   49.3682   30.7910   48.3682 H   0  0  0  0  0  0  0  0  0  0  0  0
   51.0591   29.0266   48.0748 H   0  0  0  0  0  0  0  0  0  0  0  0
   50.6230   27.0676   46.5782 H   0  0  0  0  0  0  0  0  0  0  0  0
   48.4195   26.9638   45.4002 H   0  0  0  0  0  0  0  0  0  0  0  0
   46.7336   28.7336   45.6980 H   0  0  0  0  0  0  0  0  0  0  0  0
   43.8104   36.6709   44.9178 H   0  0  0  0  0  0  0  0  0  0  0  0
   45.0178   36.5461   42.6935 H   0  0  0  0  0  0  0  0  0  0  0  0
  1  2  1  0
  2  3  2  0
  2  7  1  0
  3  4  1  0
  4  5  2  0
  6  5  1  0
  7  6  2  0
  8  7  1  0
  8  9  2  0
 10  9  1  0
 11 10  2  0
 12 13  2  0
 12 11  1  0
 13  8  1  0
 14 19  2  0
 15 14  1  0
 16 15  2  0
 16 17  1  0
 17 18  2  0
 18 19  1  0
 18  3  1  0
 20 16  1  0
 21 20  1  0
 22 20  1  0
 23 20  1  0
  4 24  1  0
  5 25  1  0
  6 26  1  0
  9 27  1  0
 10 28  1  0
 11 29  1  0
 12 30  1  0
 13 31  1  0
 14 32  1  0
 15 33  1  0
M  ISO  8  24  14  25  14  26  14  27  14  28  14  29  14  30  14  31  14
M  ISO  2  32  14  33  14
M  END
>  <minimizedAffinity>  (1) 
-6.00962734

>  <minimizedRMSD>  (1) 
0.270361066

$$$$
