
     RDKit          3D

 18 18  0  0  0  0  0  0  0  0999 V2000
   45.0050   35.1270   44.0210 C   0  0  0  0  0  0  0  0  0  0  0  0
   45.7280   35.4210   42.8480 C   0  0  0  0  0  0  0  0  0  0  0  0
   46.9370   34.7510   42.6110 C   0  0  0  0  0  0  0  0  0  0  0  0
   47.3430   33.8470   43.5380 N   0  0  0  0  0  0  0  0  0  0  0  0
   46.6280   33.5890   44.6500 C   0  0  0  0  0  0  0  0  0  0  0  0
   45.4630   34.2250   44.8910 N   0  0  0  0  0  0  0  0  0  0  0  0
   43.7860   35.8040   44.2600 N   0  0  0  0  0  0  0  0  0  0  0  0
   47.6930   35.0680   41.3710 C   0  0  0  0  0  0  0  0  0  0  0  0
   48.9920   35.7300   41.7640 C   0  0  0  0  0  0  0  0  0  0  0  0
   45.3504   36.1638   42.1299 H   0  0  0  0  0  0  0  0  0  0  0  0
   46.9999   32.8480   45.3730 H   0  0  0  0  0  0  0  0  0  0  0  0
   43.4411   36.4986   43.5821 H   0  0  0  0  0  0  0  0  0  0  0  0
   43.2433   35.6023   45.1119 H   0  0  0  0  0  0  0  0  0  0  0  0
   47.1039   35.7500   40.7403 H   0  0  0  0  0  0  0  0  0  0  0  0
   47.8933   34.1473   40.8034 H   0  0  0  0  0  0  0  0  0  0  0  0
   49.0669   35.7682   42.8608 H   0  0  0  0  0  0  0  0  0  0  0  0
   49.8355   35.1518   41.3588 H   0  0  0  0  0  0  0  0  0  0  0  0
   49.0199   36.7523   41.3588 H   0  0  0  0  0  0  0  0  0  0  0  0
  1  7  1  0
  1  6  2  0
  2  1  1  0
  3  2  2  0
  3  4  1  0
  4  5  2  0
  5  6  1  0
  8  9  1  0
  8  3  1  0
  2 10  1  0
  5 11  1  0
  7 12  1  0
  7 13  1  0
  8 14  1  0
  8 15  1  0
  9 16  1  0
  9 17  1  0
  9 18  1  0
M  ISO  7  10  14  11  14  14   8  15   8  16   8  17   8  18   8
M  END
>  <minimizedAffinity>  (1) 
-4.08727217

>  <minimizedRMSD>  (1) 
1.62036967

$$$$
