
     RDKit          3D

 25 26  0  0  0  0  0  0  0  0999 V2000
   46.2400   35.0310   42.0800 C   0  0  0  0  0  0  0  0  0  0  0  0
   45.0990   34.5530   45.6380 C   0  0  0  0  0  0  0  0  0  0  0  0
   45.2080   35.0580   44.3380 C   0  0  0  0  0  0  0  0  0  0  0  0
   46.1240   34.4960   43.4540 C   0  0  0  0  0  0  0  0  0  0  0  0
   46.8670   33.4750   43.9180 N   0  0  0  0  0  0  0  0  0  0  0  0
   46.7520   32.9930   45.1830 C   0  0  0  0  0  0  0  0  0  0  0  0
   45.8640   33.5420   46.0300 N   0  0  0  0  0  0  0  0  0  0  0  0
   44.1570   35.1380   46.5320 N   0  0  0  0  0  0  0  0  0  0  0  0
   47.6290   34.7070   41.5550 C   0  0  0  0  0  0  0  0  0  0  0  0
   47.4800   34.2920   40.1200 C   0  0  0  0  0  0  0  0  0  0  0  0
   46.4070   33.5570   39.6490 C   0  0  0  0  0  0  0  0  0  0  0  0
   46.6020   33.3670   38.3250 N   0  0  0  0  0  0  0  0  0  0  0  0
   47.7610   33.9570   37.9550 C   0  0  0  0  0  0  0  0  0  0  0  0
   48.2970   34.5260   39.0710 N   0  0  0  0  0  0  0  0  0  0  0  0
   45.4808   34.5651   41.4346 H   0  0  0  0  0  0  0  0  0  0  0  0
   46.0816   36.1195   42.0835 H   0  0  0  0  0  0  0  0  0  0  0  0
   44.5722   35.8959   44.0159 H   0  0  0  0  0  0  0  0  0  0  0  0
   47.3840   32.1555   45.5134 H   0  0  0  0  0  0  0  0  0  0  0  0
   43.5677   35.9224   46.2183 H   0  0  0  0  0  0  0  0  0  0  0  0
   44.0651   34.7766   47.4921 H   0  0  0  0  0  0  0  0  0  0  0  0
   48.2741   35.5953   41.6246 H   0  0  0  0  0  0  0  0  0  0  0  0
   48.0903   33.9024   42.1465 H   0  0  0  0  0  0  0  0  0  0  0  0
   45.5540   33.1946   40.2415 H   0  0  0  0  0  0  0  0  0  0  0  0
   45.9675   32.8535   37.6968 H   0  0  0  0  0  0  0  0  0  0  0  0
   48.1907   33.9744   36.9426 H   0  0  0  0  0  0  0  0  0  0  0  0
  1  4  1  0
  2  7  2  0
  2  8  1  0
  3  2  1  0
  4  5  1  0
  4  3  2  0
  5  6  2  0
  6  7  1  0
  9  1  1  0
 10  9  1  0
 11 10  2  0
 12 11  1  0
 13 12  1  0
 13 14  2  0
 14 10  1  0
  1 15  1  0
  1 16  1  0
  3 17  1  0
  6 18  1  0
  8 19  1  0
  8 20  1  0
  9 21  1  0
  9 22  1  0
 11 23  1  0
 12 24  1  0
 13 25  1  0
M  ISO  8  15   8  16   8  17  14  18  14  21   8  22   8  23  14  24   9
M  ISO  1  25  14
M  END
>  <minimizedAffinity>  (1) 
-4.62233686

>  <minimizedRMSD>  (1) 
2.65445018

$$$$
