
     RDKit          3D

 38 40  0  0  0  0  0  0  0  0999 V2000
   47.5460   31.8600   44.8050 Cl  0  0  0  0  0  0  0  0  0  0  0  0
   46.7260   31.9360   46.3580 C   0  0  0  0  0  0  0  0  0  0  0  0
   45.8360   32.9610   46.5670 C   0  0  0  0  0  0  0  0  0  0  0  0
   45.1890   33.0360   47.7650 C   0  0  0  0  0  0  0  0  0  0  0  0
   45.4710   32.0500   48.7310 C   0  0  0  0  0  0  0  0  0  0  0  0
   46.3690   31.0270   48.5040 C   0  0  0  0  0  0  0  0  0  0  0  0
   47.0160   30.9630   47.2880 C   0  0  0  0  0  0  0  0  0  0  0  0
   44.5370   35.8470   44.7430 C   0  0  0  0  0  0  0  0  0  0  0  0
   45.1910   35.7950   43.4920 C   0  0  0  0  0  0  0  0  0  0  0  0
   46.0890   34.7210   43.3200 C   0  0  0  0  0  0  0  0  0  0  0  0
   46.2500   33.8480   44.3440 N   0  0  0  0  0  0  0  0  0  0  0  0
   45.6020   33.9440   45.5170 C   0  0  0  0  0  0  0  0  0  0  0  0
   44.7390   34.9580   45.7100 N   0  0  0  0  0  0  0  0  0  0  0  0
   46.7550   34.6820   42.0220 C   0  0  0  0  0  0  0  0  0  0  0  0
   47.4980   33.5130   41.9270 F   0  0  0  0  0  0  0  0  0  0  0  0
   47.6750   35.7150   42.0040 F   0  0  0  0  0  0  0  0  0  0  0  0
   45.9010   34.7140   40.9650 F   0  0  0  0  0  0  0  0  0  0  0  0
   47.9400   29.9000   47.0710 N   0  0  0  0  0  0  0  0  0  0  0  0
   47.6730   28.8310   46.1700 C   0  0  0  0  0  0  0  0  0  0  0  0
   48.8910   28.3360   45.4250 C   0  0  0  0  0  0  0  0  0  0  0  0
   49.9150   27.9710   46.4720 C   0  0  0  0  0  0  0  0  0  0  0  0
   50.2830   29.1410   47.3430 C   0  0  0  0  0  0  0  0  0  0  0  0
   49.1560   29.9750   47.8160 C   0  0  0  0  0  0  0  0  0  0  0  0
   44.4689   33.8417   47.9709 H   0  0  0  0  0  0  0  0  0  0  0  0
   44.9564   32.0973   49.7020 H   0  0  0  0  0  0  0  0  0  0  0  0
   46.5657   30.2740   49.2814 H   0  0  0  0  0  0  0  0  0  0  0  0
   43.8244   36.6648   44.9261 H   0  0  0  0  0  0  0  0  0  0  0  0
   45.0119   36.5421   42.7047 H   0  0  0  0  0  0  0  0  0  0  0  0
   47.2538   27.9915   46.7440 H   0  0  0  0  0  0  0  0  0  0  0  0
   46.9738   29.2188   45.4145 H   0  0  0  0  0  0  0  0  0  0  0  0
   48.6342   27.4534   44.8208 H   0  0  0  0  0  0  0  0  0  0  0  0
   49.2785   29.1052   44.7408 H   0  0  0  0  0  0  0  0  0  0  0  0
   49.5026   27.1731   47.1071 H   0  0  0  0  0  0  0  0  0  0  0  0
   50.8255   27.6397   45.9511 H   0  0  0  0  0  0  0  0  0  0  0  0
   50.8077   28.7507   48.2275 H   0  0  0  0  0  0  0  0  0  0  0  0
   50.8965   29.8005   46.7116 H   0  0  0  0  0  0  0  0  0  0  0  0
   49.4897   31.0231   47.8029 H   0  0  0  0  0  0  0  0  0  0  0  0
   48.9066   29.5818   48.8126 H   0  0  0  0  0  0  0  0  0  0  0  0
  1  2  1  0
  2  3  2  0
  2  7  1  0
  3  4  1  0
  4  5  2  0
  6  5  1  0
  7  6  2  0
  8 13  2  0
  9  8  1  0
 10  9  2  0
 10 11  1  0
 11 12  2  0
 12 13  1  0
 12  3  1  0
 14 10  1  0
 15 14  1  0
 16 14  1  0
 17 14  1  0
 18  7  1  0
 18 23  1  0
 19 18  1  0
 20 19  1  0
 20 21  1  0
 21 22  1  0
 22 23  1  0
  4 24  1  0
  5 25  1  0
  6 26  1  0
  8 27  1  0
  9 28  1  0
 19 29  1  0
 19 30  1  0
 20 31  1  0
 20 32  1  0
 21 33  1  0
 21 34  1  0
 22 35  1  0
 22 36  1  0
 23 37  1  0
 23 38  1  0
M  ISO  8  24  14  25  14  26  14  27  14  28  14  29  13  30  13  31  13
M  ISO  7  32  13  33  13  34  13  35  13  36  13  37  13  38  13
M  END
>  <minimizedAffinity>  (1) 
-5.96256781

>  <minimizedRMSD>  (1) 
0.626209259

$$$$
