
     RDKit          3D

 33 34  0  0  0  0  0  0  0  0999 V2000
   47.7300   34.9000   41.5320 C   0  0  0  0  0  0  0  0  0  0  0  0
   44.9020   35.1490   44.0070 C   0  0  0  0  0  0  0  0  0  0  0  0
   45.7050   35.3570   42.8800 C   0  0  0  0  0  0  0  0  0  0  0  0
   46.8940   34.6590   42.7410 C   0  0  0  0  0  0  0  0  0  0  0  0
   47.2250   33.7920   43.7250 N   0  0  0  0  0  0  0  0  0  0  0  0
   46.4430   33.6030   44.8020 C   0  0  0  0  0  0  0  0  0  0  0  0
   45.2880   34.2710   44.9510 N   0  0  0  0  0  0  0  0  0  0  0  0
   43.6860   35.8550   44.1590 N   0  0  0  0  0  0  0  0  0  0  0  0
   48.5610   33.6550   41.2810 C   0  0  0  0  0  0  0  0  0  0  0  0
   48.4630   33.2560   39.8660 N   0  0  0  0  0  0  0  0  0  0  0  0
   47.3660   32.3580   39.7000 C   0  0  0  0  0  0  0  0  0  0  0  0
   46.3090   33.0720   38.8460 C   0  0  0  0  0  0  0  0  0  0  0  0
   46.9800   33.2880   37.5070 C   0  0  0  0  0  0  0  0  0  0  0  0
   48.0320   34.3470   37.6710 C   0  0  0  0  0  0  0  0  0  0  0  0
   48.3990   34.4770   39.1210 C   0  0  0  0  0  0  0  0  0  0  0  0
   47.0834   35.0985   40.6645 H   0  0  0  0  0  0  0  0  0  0  0  0
   48.3836   35.7711   41.6867 H   0  0  0  0  0  0  0  0  0  0  0  0
   45.3929   36.0734   42.1058 H   0  0  0  0  0  0  0  0  0  0  0  0
   46.7556   32.8870   45.5764 H   0  0  0  0  0  0  0  0  0  0  0  0
   43.3875   36.5277   43.4384 H   0  0  0  0  0  0  0  0  0  0  0  0
   43.0989   35.6964   44.9903 H   0  0  0  0  0  0  0  0  0  0  0  0
   49.6124   33.8638   41.5279 H   0  0  0  0  0  0  0  0  0  0  0  0
   48.1829   32.8372   41.9121 H   0  0  0  0  0  0  0  0  0  0  0  0
   47.7037   31.4428   39.1917 H   0  0  0  0  0  0  0  0  0  0  0  0
   46.9471   32.0741   40.6767 H   0  0  0  0  0  0  0  0  0  0  0  0
   45.4123   32.4448   38.7340 H   0  0  0  0  0  0  0  0  0  0  0  0
   45.9740   34.0158   39.3011 H   0  0  0  0  0  0  0  0  0  0  0  0
   46.2353   33.6153   36.7665 H   0  0  0  0  0  0  0  0  0  0  0  0
   47.4376   32.3508   37.1573 H   0  0  0  0  0  0  0  0  0  0  0  0
   48.9246   34.0682   37.0917 H   0  0  0  0  0  0  0  0  0  0  0  0
   47.6403   35.3084   37.3073 H   0  0  0  0  0  0  0  0  0  0  0  0
   49.3875   34.9565   39.1759 H   0  0  0  0  0  0  0  0  0  0  0  0
   47.5879   35.0613   39.5801 H   0  0  0  0  0  0  0  0  0  0  0  0
  1  4  1  0
  2  8  1  0
  2  7  2  0
  3  2  1  0
  4  3  2  0
  4  5  1  0
  5  6  2  0
  6  7  1  0
  9  1  1  0
 10  9  1  0
 11 10  1  0
 12 11  1  0
 13 14  1  0
 13 12  1  0
 14 15  1  0
 15 10  1  0
  1 16  1  0
  1 17  1  0
  3 18  1  0
  6 19  1  0
  8 20  1  0
  8 21  1  0
  9 22  1  0
  9 23  1  0
 11 24  1  0
 11 25  1  0
 12 26  1  0
 12 27  1  0
 13 28  1  0
 13 29  1  0
 14 30  1  0
 14 31  1  0
 15 32  1  0
 15 33  1  0
M  ISO  8  16   8  17   8  18  14  19  14  22   8  23   8  24  13  25  13
M  ISO  8  26  13  27  13  28  13  29  13  30  13  31  13  32  13  33  13
M  END
>  <minimizedAffinity>  (1) 
-4.52784061

>  <minimizedRMSD>  (1) 
3.35072756

$$$$
