
     RDKit          3D

 35 37  0  0  0  0  0  0  0  0999 V2000
   49.1190   32.6030   42.0050 O   0  0  0  0  0  0  0  0  0  0  0  0
   49.1810   33.9430   42.3250 C   0  0  0  0  0  0  0  0  0  0  0  0
   47.9080   34.6420   41.9720 C   0  0  0  0  0  0  0  0  0  0  0  0
   44.8650   35.1400   44.1430 C   0  0  0  0  0  0  0  0  0  0  0  0
   45.7900   35.2610   43.0590 C   0  0  0  0  0  0  0  0  0  0  0  0
   46.9570   34.5080   43.1000 C   0  0  0  0  0  0  0  0  0  0  0  0
   47.1600   33.7070   44.1500 N   0  0  0  0  0  0  0  0  0  0  0  0
   46.2760   33.6040   45.1660 C   0  0  0  0  0  0  0  0  0  0  0  0
   45.1360   34.3080   45.1730 N   0  0  0  0  0  0  0  0  0  0  0  0
   43.6760   35.8870   44.1310 N   0  0  0  0  0  0  0  0  0  0  0  0
   50.9440   30.7430   42.2400 O   0  0  0  0  0  0  0  0  0  0  0  0
   50.6120   31.9960   41.4870 P   0  0  2  0  0  0  0  0  0  0  0  0
   51.7490   33.2230   41.7440 O   0  0  0  0  0  0  0  0  0  0  0  0
   50.5740   31.7440   39.8100 O   0  0  0  0  0  0  0  0  0  0  0  0
   48.9680   33.1980   38.4890 N   0  0  0  0  0  0  0  0  0  0  0  0
   49.4370   32.0950   39.0940 C   0  0  0  0  0  0  0  0  0  0  0  0
   48.5390   31.0850   38.9450 N   0  0  0  0  0  0  0  0  0  0  0  0
   47.4770   31.5390   38.2360 C   0  0  0  0  0  0  0  0  0  0  0  0
   46.2730   31.0850   37.7450 C   0  0  0  0  0  0  0  0  0  0  0  0
   45.4590   31.8890   37.0540 N   0  0  0  0  0  0  0  0  0  0  0  0
   45.7580   33.1750   36.7960 C   0  0  0  0  0  0  0  0  0  0  0  0
   46.9400   33.6460   37.2690 N   0  0  0  0  0  0  0  0  0  0  0  0
   47.7800   32.8620   37.9680 C   0  0  0  0  0  0  0  0  0  0  0  0
   49.3593   34.0461   43.4056 H   0  0  0  0  0  0  0  0  0  0  0  0
   50.0005   34.4007   41.7515 H   0  0  0  0  0  0  0  0  0  0  0  0
   48.1112   35.7068   41.7851 H   0  0  0  0  0  0  0  0  0  0  0  0
   47.4759   34.1931   41.0655 H   0  0  0  0  0  0  0  0  0  0  0  0
   45.5827   35.9336   42.2136 H   0  0  0  0  0  0  0  0  0  0  0  0
   46.4966   32.9280   46.0053 H   0  0  0  0  0  0  0  0  0  0  0  0
   43.4734   36.5199   43.3441 H   0  0  0  0  0  0  0  0  0  0  0  0
   43.0065   35.8020   44.9091 H   0  0  0  0  0  0  0  0  0  0  0  0
   51.8744   33.3583   42.7167 H   0  0  0  0  0  0  0  0  0  0  0  0
   49.4288   34.1177   38.4360 H   0  0  0  0  0  0  0  0  0  0  0  0
   45.9758   30.0413   37.9249 H   0  0  0  0  0  0  0  0  0  0  0  0
   45.0726   33.8186   36.2250 H   0  0  0  0  0  0  0  0  0  0  0  0
  1  2  1  0
  3  2  1  0
  3  6  1  0
  4  9  2  0
  5  6  2  0
  5  4  1  0
  6  7  1  0
  7  8  2  0
  8  9  1  0
 10  4  1  0
 12 13  1  0
 12  1  1  0
 12 11  2  0
 14 12  1  0
 15 16  1  0
 16 14  1  0
 17 16  2  0
 18 17  1  0
 19 18  2  0
 20 19  1  0
 21 20  2  0
 21 22  1  0
 22 23  2  0
 23 18  1  0
 23 15  1  0
  2 24  1  0
  2 25  1  0
  3 26  1  0
  3 27  1  0
  5 28  1  0
  8 29  1  0
 10 30  1  0
 10 31  1  0
 13 32  1  0
 15 33  1  0
 19 34  1  0
 21 35  1  0
M  ISO  8  24   8  25   8  26   8  27   8  28  14  29  14  32   3  33   9
M  ISO  2  34  14  35  14
M  END
>  <minimizedAffinity>  (1) 
-5.14318657

>  <minimizedRMSD>  (1) 
1.36620212

$$$$
