
     RDKit          3D

 32 33  0  0  0  0  0  0  0  0999 V2000
   49.0920   34.4290   41.8450 C   0  0  0  0  0  0  0  0  0  0  0  0
   47.7700   35.1250   41.6910 C   0  0  0  0  0  0  0  0  0  0  0  0
   44.8540   35.1280   44.0600 C   0  0  0  0  0  0  0  0  0  0  0  0
   45.6950   35.4350   42.9690 C   0  0  0  0  0  0  0  0  0  0  0  0
   46.9070   34.7910   42.8360 C   0  0  0  0  0  0  0  0  0  0  0  0
   47.2390   33.8880   43.7620 N   0  0  0  0  0  0  0  0  0  0  0  0
   46.4250   33.5950   44.8130 C   0  0  0  0  0  0  0  0  0  0  0  0
   45.2460   34.2040   44.9660 N   0  0  0  0  0  0  0  0  0  0  0  0
   43.6120   35.7670   44.2250 N   0  0  0  0  0  0  0  0  0  0  0  0
   49.1380   33.3310   41.0060 O   0  0  0  0  0  0  0  0  0  0  0  0
   49.9200   31.4860   42.6830 O   0  0  0  0  0  0  0  0  0  0  0  0
   50.3650   32.2550   41.4730 P   0  0  2  0  0  0  0  0  0  0  0  0
   51.7620   33.1560   41.7620 O   0  0  0  0  0  0  0  0  0  0  0  0
   50.7120   31.2280   40.1690 O   0  0  0  0  0  0  0  0  0  0  0  0
   51.9190   31.1010   39.5290 C   0  0  0  0  0  0  0  0  0  0  0  0
   52.8340   30.2450   40.1540 C   0  0  0  0  0  0  0  0  0  0  0  0
   54.0920   30.0520   39.5730 C   0  0  0  0  0  0  0  0  0  0  0  0
   54.4600   30.6610   38.4280 N   0  0  0  0  0  0  0  0  0  0  0  0
   53.5350   31.4870   37.8540 C   0  0  0  0  0  0  0  0  0  0  0  0
   52.3120   31.6950   38.3880 N   0  0  0  0  0  0  0  0  0  0  0  0
   49.9041   35.1235   41.5840 H   0  0  0  0  0  0  0  0  0  0  0  0
   49.2116   34.0980   42.8872 H   0  0  0  0  0  0  0  0  0  0  0  0
   47.9295   36.2128   41.6563 H   0  0  0  0  0  0  0  0  0  0  0  0
   47.2877   34.7968   40.7584 H   0  0  0  0  0  0  0  0  0  0  0  0
   45.3846   36.1856   42.2272 H   0  0  0  0  0  0  0  0  0  0  0  0
   46.7439   32.8430   45.5497 H   0  0  0  0  0  0  0  0  0  0  0  0
   43.3012   36.4728   43.5422 H   0  0  0  0  0  0  0  0  0  0  0  0
   43.0132   35.5292   45.0286 H   0  0  0  0  0  0  0  0  0  0  0  0
   51.9009   33.2456   42.7381 H   0  0  0  0  0  0  0  0  0  0  0  0
   52.5673   29.7311   41.0893 H   0  0  0  0  0  0  0  0  0  0  0  0
   54.8069   29.3787   40.0686 H   0  0  0  0  0  0  0  0  0  0  0  0
   53.7972   32.0036   36.9189 H   0  0  0  0  0  0  0  0  0  0  0  0
  2  1  1  0
  2  5  1  0
  3  9  1  0
  3  8  2  0
  4  3  1  0
  5  4  2  0
  5  6  1  0
  6  7  2  0
  7  8  1  0
 10 12  1  0
 10  1  1  0
 12 13  1  0
 12 11  2  0
 14 12  1  0
 15 16  2  0
 15 14  1  0
 17 16  1  0
 18 17  2  0
 19 20  2  0
 19 18  1  0
 20 15  1  0
  1 21  1  0
  1 22  1  0
  2 23  1  0
  2 24  1  0
  4 25  1  0
  7 26  1  0
  9 27  1  0
  9 28  1  0
 13 29  1  0
 16 30  1  0
 17 31  1  0
 19 32  1  0
M  ISO  8  21   8  22   8  23   8  24   8  25  14  26  14  29   3  30  14
M  ISO  2  31  14  32  14
M  END
>  <minimizedAffinity>  (1) 
-4.86496735

>  <minimizedRMSD>  (1) 
1.89491224

$$$$
