
     RDKit          3D

 30 30  0  0  0  0  0  0  0  0999 V2000
   47.0100   32.2220   44.4240 C   0  0  0  0  0  0  0  0  0  0  0  0
   44.8130   35.2140   43.8210 C   0  0  0  0  0  0  0  0  0  0  0  0
   45.3010   33.9880   44.3710 C   0  0  0  0  0  0  0  0  0  0  0  0
   46.5030   33.4900   43.8620 C   0  0  0  0  0  0  0  0  0  0  0  0
   47.1480   34.1680   42.8910 N   0  0  0  0  0  0  0  0  0  0  0  0
   46.6440   35.3240   42.4050 C   0  0  0  0  0  0  0  0  0  0  0  0
   45.4930   35.8480   42.8570 N   0  0  0  0  0  0  0  0  0  0  0  0
   43.6130   35.7630   44.2930 N   0  0  0  0  0  0  0  0  0  0  0  0
   46.9890   32.3140   45.9300 C   0  0  0  0  0  0  0  0  0  0  0  0
   46.1060   31.3730   46.4260 O   0  0  0  0  0  0  0  0  0  0  0  0
   44.6940   30.6650   48.5150 O   0  0  0  0  0  0  0  0  0  0  0  0
   45.5600   31.7820   47.9800 P   0  0  2  0  0  0  0  0  0  0  0  0
   44.7380   33.2440   47.8460 O   0  0  0  0  0  0  0  0  0  0  0  0
   46.8900   32.0770   48.9830 O   0  0  0  0  0  0  0  0  0  0  0  0
   47.7050   30.9730   49.1560 C   0  0  0  0  0  0  0  0  0  0  0  0
   49.1570   31.4460   49.2570 C   0  0  0  0  0  0  0  0  0  0  0  0
   48.0401   32.0504   44.0785 H   0  0  0  0  0  0  0  0  0  0  0  0
   46.3762   31.3865   44.0920 H   0  0  0  0  0  0  0  0  0  0  0  0
   44.7521   33.4579   45.1633 H   0  0  0  0  0  0  0  0  0  0  0  0
   47.1946   35.8531   41.6132 H   0  0  0  0  0  0  0  0  0  0  0  0
   43.2601   36.6463   43.8977 H   0  0  0  0  0  0  0  0  0  0  0  0
   43.0840   35.2832   45.0352 H   0  0  0  0  0  0  0  0  0  0  0  0
   47.9967   32.1188   46.3255 H   0  0  0  0  0  0  0  0  0  0  0  0
   46.6698   33.3211   46.2365 H   0  0  0  0  0  0  0  0  0  0  0  0
   44.5404   33.5955   48.7501 H   0  0  0  0  0  0  0  0  0  0  0  0
   47.4225   30.4454   50.0789 H   0  0  0  0  0  0  0  0  0  0  0  0
   47.5927   30.2870   48.3035 H   0  0  0  0  0  0  0  0  0  0  0  0
   49.4398   31.5381   50.3160 H   0  0  0  0  0  0  0  0  0  0  0  0
   49.8156   30.7159   48.7638 H   0  0  0  0  0  0  0  0  0  0  0  0
   49.2592   32.4239   48.7638 H   0  0  0  0  0  0  0  0  0  0  0  0
  1  9  1  0
  2  8  1  0
  2  3  2  0
  4  3  1  0
  4  1  1  0
  5  4  2  0
  6  7  2  0
  6  5  1  0
  7  2  1  0
  9 10  1  0
 10 12  1  0
 12 11  2  0
 12 14  1  0
 13 12  1  0
 14 15  1  0
 15 16  1  0
  1 17  1  0
  1 18  1  0
  3 19  1  0
  6 20  1  0
  8 21  1  0
  8 22  1  0
  9 23  1  0
  9 24  1  0
 13 25  1  0
 15 26  1  0
 15 27  1  0
 16 28  1  0
 16 29  1  0
 16 30  1  0
M  ISO  8  17   8  18   8  19  14  20  14  23   8  24   8  25   3  26   8
M  ISO  4  27   8  28   8  29   8  30   8
M  END
>  <minimizedAffinity>  (1) 
-4.64341021

>  <minimizedRMSD>  (1) 
6.39893103

$$$$
