
     RDKit          3D

 28 28  0  0  0  0  0  0  0  0999 V2000
   44.3110   34.6740   41.1210 C   0  0  0  0  0  0  0  0  0  0  0  0
   41.3360   35.3840   38.9340 C   0  0  0  0  0  0  0  0  0  0  0  0
   42.6480   35.0010   39.3480 C   0  0  0  0  0  0  0  0  0  0  0  0
   42.9490   35.0670   40.7010 C   0  0  0  0  0  0  0  0  0  0  0  0
   42.0070   35.4840   41.5600 N   0  0  0  0  0  0  0  0  0  0  0  0
   40.7650   35.8420   41.1410 C   0  0  0  0  0  0  0  0  0  0  0  0
   40.4380   35.7910   39.8460 N   0  0  0  0  0  0  0  0  0  0  0  0
   40.9920   35.3440   37.5830 N   0  0  0  0  0  0  0  0  0  0  0  0
   44.4990   35.0290   42.5750 C   0  0  0  0  0  0  0  0  0  0  0  0
   44.6240   33.8720   43.3100 O   0  0  0  0  0  0  0  0  0  0  0  0
   47.1190   34.6600   43.2190 O   0  0  0  0  0  0  0  0  0  0  0  0
   46.1910   33.7020   43.9300 P   0  0  2  0  0  0  0  0  0  0  0  0
   46.6320   32.0880   43.7600 O   0  0  0  0  0  0  0  0  0  0  0  0
   46.1690   34.0120   45.5970 O   0  0  0  0  0  0  0  0  0  0  0  0
   45.5870   33.2080   46.5390 C   0  0  0  0  0  0  0  0  0  0  0  0
   45.8800   31.9800   46.4050 O   0  0  0  0  0  0  0  0  0  0  0  0
   44.7310   33.5930   47.5970 N   0  0  0  0  0  0  0  0  0  0  0  0
   45.0537   35.2098   40.5117 H   0  0  0  0  0  0  0  0  0  0  0  0
   44.4441   33.5908   40.9830 H   0  0  0  0  0  0  0  0  0  0  0  0
   43.3972   34.6639   38.6166 H   0  0  0  0  0  0  0  0  0  0  0  0
   40.0194   36.1780   41.8767 H   0  0  0  0  0  0  0  0  0  0  0  0
   40.0458   35.6202   37.2841 H   0  0  0  0  0  0  0  0  0  0  0  0
   41.6841   35.0383   36.8842 H   0  0  0  0  0  0  0  0  0  0  0  0
   45.4074   35.6385   42.6906 H   0  0  0  0  0  0  0  0  0  0  0  0
   43.6300   35.6016   42.9314 H   0  0  0  0  0  0  0  0  0  0  0  0
   46.7434   31.6803   44.6552 H   0  0  0  0  0  0  0  0  0  0  0  0
   44.3576   32.8821   48.2421 H   0  0  0  0  0  0  0  0  0  0  0  0
   44.4810   34.5843   47.7224 H   0  0  0  0  0  0  0  0  0  0  0  0
  1  9  1  0
  2  3  2  0
  2  7  1  0
  3  4  1  0
  4  1  1  0
  4  5  2  0
  6  5  1  0
  7  6  2  0
  8  2  1  0
  9 10  1  0
 10 12  1  0
 12 11  2  0
 12 14  1  0
 13 12  1  0
 14 15  1  0
 15 17  1  0
 16 15  2  0
  1 18  1  0
  1 19  1  0
  3 20  1  0
  6 21  1  0
  8 22  1  0
  8 23  1  0
  9 24  1  0
  9 25  1  0
 13 26  1  0
 17 27  1  0
 17 28  1  0
M  ISO  7  18   8  19   8  20  14  21  14  24   8  25   8  26   3
M  END
>  <minimizedAffinity>  (1) 
-4.59147692

>  <minimizedRMSD>  (1) 
6.79184961

$$$$
