
     RDKit          3D

 30 32  0  0  0  0  0  0  0  0999 V2000
   47.3720   31.7350   44.7540 Cl  0  0  0  0  0  0  0  0  0  0  0  0
   46.6300   31.8720   46.3360 C   0  0  0  0  0  0  0  0  0  0  0  0
   45.8310   32.9590   46.5700 C   0  0  0  0  0  0  0  0  0  0  0  0
   45.2540   33.0750   47.7950 C   0  0  0  0  0  0  0  0  0  0  0  0
   45.4880   32.1010   48.7550 C   0  0  0  0  0  0  0  0  0  0  0  0
   46.2880   31.0190   48.5100 C   0  0  0  0  0  0  0  0  0  0  0  0
   46.8930   30.8840   47.2510 C   0  0  0  0  0  0  0  0  0  0  0  0
   44.5370   35.8380   44.7300 C   0  0  0  0  0  0  0  0  0  0  0  0
   45.2260   35.7890   43.4960 C   0  0  0  0  0  0  0  0  0  0  0  0
   46.1440   34.7310   43.3410 C   0  0  0  0  0  0  0  0  0  0  0  0
   46.2960   33.8540   44.3630 N   0  0  0  0  0  0  0  0  0  0  0  0
   45.6100   33.9470   45.5240 C   0  0  0  0  0  0  0  0  0  0  0  0
   44.7280   34.9500   45.6970 N   0  0  0  0  0  0  0  0  0  0  0  0
   46.8480   34.6940   42.0570 C   0  0  0  0  0  0  0  0  0  0  0  0
   47.6360   33.5530   42.0030 F   0  0  0  0  0  0  0  0  0  0  0  0
   47.6980   35.7650   42.0390 F   0  0  0  0  0  0  0  0  0  0  0  0
   45.9920   34.6760   40.9740 F   0  0  0  0  0  0  0  0  0  0  0  0
   47.7260   29.7180   47.0540 C   0  0  0  0  0  0  0  0  0  0  0  0
   49.0290   29.5270   47.1890 C   0  0  0  0  0  0  0  0  0  0  0  0
   49.6870   28.3730   46.9700 C   0  0  0  0  0  0  0  0  0  0  0  0
   48.7680   27.3090   46.5500 C   0  0  0  0  0  0  0  0  0  0  0  0
   47.0870   28.1700   46.5420 S   0  0  0  0  0  0  0  0  0  0  0  0
   44.6065   33.9344   48.0236 H   0  0  0  0  0  0  0  0  0  0  0  0
   45.0157   32.2021   49.7433 H   0  0  0  0  0  0  0  0  0  0  0  0
   46.4553   30.2629   49.2913 H   0  0  0  0  0  0  0  0  0  0  0  0
   43.8110   36.6477   44.8953 H   0  0  0  0  0  0  0  0  0  0  0  0
   45.0555   36.5329   42.7038 H   0  0  0  0  0  0  0  0  0  0  0  0
   49.6296   30.3910   47.5097 H   0  0  0  0  0  0  0  0  0  0  0  0
   50.7728   28.2445   47.0903 H   0  0  0  0  0  0  0  0  0  0  0  0
   49.0015   26.2635   46.3003 H   0  0  0  0  0  0  0  0  0  0  0  0
  1  2  1  0
  2  3  2  0
  2  7  1  0
  3  4  1  0
  4  5  2  0
  6  5  1  0
  7  6  2  0
  8 13  2  0
  9  8  1  0
 10  9  2  0
 10 11  1  0
 11 12  2  0
 12 13  1  0
 12  3  1  0
 14 10  1  0
 15 14  1  0
 16 14  1  0
 17 14  1  0
 18 19  2  0
 18  7  1  0
 20 19  1  0
 21 20  2  0
 22 21  1  0
 22 18  1  0
  4 23  1  0
  5 24  1  0
  6 25  1  0
  8 26  1  0
  9 27  1  0
 19 28  1  0
 20 29  1  0
 21 30  1  0
M  ISO  8  23  14  24  14  25  14  26  14  27  14  28  14  29  14  30  14
M  END
>  <minimizedAffinity>  (1) 
-5.88856316

>  <minimizedRMSD>  (1) 
0.241286799

$$$$
