
     RDKit          3D

 27 27  0  0  0  0  0  0  0  0999 V2000
   47.8650   34.1230   42.2620 C   0  0  0  0  0  0  0  0  0  0  0  0
   44.8800   35.0910   44.3430 C   0  0  0  0  0  0  0  0  0  0  0  0
   45.8080   35.0200   43.2680 C   0  0  0  0  0  0  0  0  0  0  0  0
   46.9070   34.1900   43.3850 C   0  0  0  0  0  0  0  0  0  0  0  0
   47.0630   33.4720   44.5220 N   0  0  0  0  0  0  0  0  0  0  0  0
   46.1670   33.5550   45.5320 C   0  0  0  0  0  0  0  0  0  0  0  0
   45.0840   34.3570   45.4470 N   0  0  0  0  0  0  0  0  0  0  0  0
   43.7560   35.9140   44.2690 N   0  0  0  0  0  0  0  0  0  0  0  0
   49.1910   33.6400   42.7610 C   0  0  0  0  0  0  0  0  0  0  0  0
   49.3090   32.2820   42.5660 O   0  0  0  0  0  0  0  0  0  0  0  0
   50.9280   30.4870   41.5780 O   0  0  0  0  0  0  0  0  0  0  0  0
   50.4890   31.9100   41.4210 P   0  0  2  0  0  0  0  0  0  0  0  0
   51.7420   33.0080   41.5860 O   0  0  0  0  0  0  0  0  0  0  0  0
   49.8160   32.1630   39.8630 O   0  0  0  0  0  0  0  0  0  0  0  0
   48.7020   31.3010   39.8110 C   0  0  0  0  0  0  0  0  0  0  0  0
   47.9824   35.1238   41.8208 H   0  0  0  0  0  0  0  0  0  0  0  0
   47.4859   33.4265   41.4996 H   0  0  0  0  0  0  0  0  0  0  0  0
   45.6536   35.6167   42.3569 H   0  0  0  0  0  0  0  0  0  0  0  0
   46.3239   32.9566   46.4416 H   0  0  0  0  0  0  0  0  0  0  0  0
   43.5885   36.4824   43.4265 H   0  0  0  0  0  0  0  0  0  0  0  0
   43.0937   35.9532   45.0568 H   0  0  0  0  0  0  0  0  0  0  0  0
   49.9942   34.1562   42.2148 H   0  0  0  0  0  0  0  0  0  0  0  0
   49.2685   33.8551   43.8370 H   0  0  0  0  0  0  0  0  0  0  0  0
   51.9198   33.1638   42.5474 H   0  0  0  0  0  0  0  0  0  0  0  0
   48.3820   31.0534   40.8339 H   0  0  0  0  0  0  0  0  0  0  0  0
   47.8777   31.7988   39.2793 H   0  0  0  0  0  0  0  0  0  0  0  0
   48.9770   30.3781   39.2793 H   0  0  0  0  0  0  0  0  0  0  0  0
  1  9  1  0
  1  4  1  0
  2  7  2  0
  3  4  2  0
  3  2  1  0
  4  5  1  0
  5  6  2  0
  7  6  1  0
  8  2  1  0
 10  9  1  0
 12 11  2  0
 12 13  1  0
 12 10  1  0
 14 12  1  0
 15 14  1  0
  1 16  1  0
  1 17  1  0
  3 18  1  0
  6 19  1  0
  8 20  1  0
  8 21  1  0
  9 22  1  0
  9 23  1  0
 13 24  1  0
 15 25  1  0
 15 26  1  0
 15 27  1  0
M  ISO  8  16   8  17   8  18  14  19  14  22   8  23   8  24   3  25   8
M  ISO  2  26   8  27   8
M  END
>  <minimizedAffinity>  (1) 
-4.05230904

>  <minimizedRMSD>  (1) 
0.19154267

$$$$
