
     RDKit          3D

 37 39  0  0  0  0  0  0  0  0999 V2000
   47.3130   31.6600   44.7900 Cl  0  0  0  0  0  0  0  0  0  0  0  0
   46.5720   31.8390   46.3830 C   0  0  0  0  0  0  0  0  0  0  0  0
   45.7890   32.9480   46.6050 C   0  0  0  0  0  0  0  0  0  0  0  0
   45.2230   33.0850   47.8230 C   0  0  0  0  0  0  0  0  0  0  0  0
   45.4550   32.1010   48.7980 C   0  0  0  0  0  0  0  0  0  0  0  0
   46.2440   30.9940   48.5560 C   0  0  0  0  0  0  0  0  0  0  0  0
   46.8220   30.8560   47.3110 C   0  0  0  0  0  0  0  0  0  0  0  0
   47.6420   29.7190   47.0380 N   0  0  0  0  0  0  0  0  0  0  0  0
   49.0860   29.6620   47.2960 C   0  0  0  0  0  0  0  0  0  0  0  0
   49.2980   28.3780   48.0890 C   0  0  0  0  0  0  0  0  0  0  0  0
   48.9700   27.2310   47.2640 N   0  0  0  0  0  0  0  0  0  0  0  0
   48.1890   27.5980   46.1100 C   0  0  0  0  0  0  0  0  0  0  0  0
   47.0380   28.5350   46.4730 C   0  0  0  0  0  0  0  0  0  0  0  0
   44.5590   35.8220   44.7250 C   0  0  0  0  0  0  0  0  0  0  0  0
   45.2750   35.7660   43.5090 C   0  0  0  0  0  0  0  0  0  0  0  0
   46.1890   34.6990   43.3780 C   0  0  0  0  0  0  0  0  0  0  0  0
   46.3100   33.8230   44.4080 N   0  0  0  0  0  0  0  0  0  0  0  0
   45.5940   33.9340   45.5460 C   0  0  0  0  0  0  0  0  0  0  0  0
   44.7230   34.9330   45.6980 N   0  0  0  0  0  0  0  0  0  0  0  0
   46.9180   34.6710   42.1040 C   0  0  0  0  0  0  0  0  0  0  0  0
   47.7830   33.5890   42.1130 F   0  0  0  0  0  0  0  0  0  0  0  0
   47.7250   35.7950   42.0900 F   0  0  0  0  0  0  0  0  0  0  0  0
   46.1060   34.5830   41.0160 F   0  0  0  0  0  0  0  0  0  0  0  0
   44.5890   33.9551   48.0487 H   0  0  0  0  0  0  0  0  0  0  0  0
   44.9919   32.2163   49.7891 H   0  0  0  0  0  0  0  0  0  0  0  0
   46.4081   30.2387   49.3387 H   0  0  0  0  0  0  0  0  0  0  0  0
   49.6462   29.6284   46.3499 H   0  0  0  0  0  0  0  0  0  0  0  0
   49.4419   30.5475   47.8431 H   0  0  0  0  0  0  0  0  0  0  0  0
   50.3500   28.3126   48.4036 H   0  0  0  0  0  0  0  0  0  0  0  0
   48.6460   28.3865   48.9749 H   0  0  0  0  0  0  0  0  0  0  0  0
   49.8447   26.7896   46.9462 H   0  0  0  0  0  0  0  0  0  0  0  0
   47.7747   26.6854   45.6566 H   0  0  0  0  0  0  0  0  0  0  0  0
   48.8492   28.1269   45.4068 H   0  0  0  0  0  0  0  0  0  0  0  0
   46.4600   28.7944   45.5738 H   0  0  0  0  0  0  0  0  0  0  0  0
   46.3457   28.0610   47.1844 H   0  0  0  0  0  0  0  0  0  0  0  0
   43.8346   36.6366   44.8726 H   0  0  0  0  0  0  0  0  0  0  0  0
   45.1289   36.5096   42.7117 H   0  0  0  0  0  0  0  0  0  0  0  0
  1  2  1  0
  2  3  2  0
  2  7  1  0
  3  4  1  0
  4  5  2  0
  6  5  1  0
  7  6  2  0
  8  9  1  0
  8  7  1  0
  9 10  1  0
 11 10  1  0
 12 13  1  0
 12 11  1  0
 13  8  1  0
 14 19  2  0
 15 14  1  0
 16 15  2  0
 16 17  1  0
 17 18  2  0
 18 19  1  0
 18  3  1  0
 20 21  1  0
 20 16  1  0
 22 20  1  0
 23 20  1  0
  4 24  1  0
  5 25  1  0
  6 26  1  0
  9 27  1  0
  9 28  1  0
 10 29  1  0
 10 30  1  0
 11 31  1  0
 12 32  1  0
 12 33  1  0
 13 34  1  0
 13 35  1  0
 14 36  1  0
 15 37  1  0
M  ISO  8  24  14  25  14  26  14  27  13  28  13  29  13  30  13  31   5
M  ISO  6  32  13  33  13  34  13  35  13  36  14  37  14
M  END
>  <minimizedAffinity>  (1) 
-5.86371613

>  <minimizedRMSD>  (1) 
0.451779395

$$$$
