
     RDKit          3D

 38 41  0  0  1  0  0  0  0  0999 V2000
   45.1550   33.8450   41.3490 C   0  0  0  0  0  0  0  0  0  0  0  0
   44.3590   32.7910   41.6080 N   0  0  0  0  0  0  0  0  0  0  0  0
   43.0870   33.0740   41.3170 C   0  0  0  0  0  0  0  0  0  0  0  0
   43.0760   34.3530   40.8590 N   0  0  0  0  0  0  0  0  0  0  0  0
   44.3000   34.8280   40.8710 N   0  0  0  0  0  0  0  0  0  0  0  0
   40.2500   34.6220   42.0970 O   0  0  0  0  0  0  0  0  0  0  0  0
   40.6530   34.5420   40.8930 C   0  0  0  0  0  0  0  0  0  0  0  0
   41.9260   35.1220   40.4090 C   0  0  2  0  0  0  0  0  0  0  0  0
   41.7830   35.0560   38.8980 C   0  0  0  0  0  0  0  0  0  0  0  0
   40.9870   33.7500   38.7340 C   0  0  0  0  0  0  0  0  0  0  0  0
   39.9970   33.8990   39.7780 N   0  0  0  0  0  0  0  0  0  0  0  0
   38.6430   33.5040   39.7430 C   0  0  0  0  0  0  0  0  0  0  0  0
   38.3930   33.9540   38.5840 O   0  0  0  0  0  0  0  0  0  0  0  0
   38.0600   32.8270   40.8480 N   0  0  0  0  0  0  0  0  0  0  0  0
   47.3550   34.0470   42.7730 C   0  0  1  0  0  0  0  0  0  0  0  0
   46.6060   34.0210   41.4860 C   0  0  2  0  0  0  0  0  0  0  0  0
   47.0960   35.2780   42.0010 C   0  0  0  0  0  0  0  0  0  0  0  0
   47.0720   32.6820   44.8280 C   0  0  0  0  0  0  0  0  0  0  0  0
   46.6940   33.7890   44.0700 C   0  0  0  0  0  0  0  0  0  0  0  0
   45.7200   34.6030   44.5930 C   0  0  0  0  0  0  0  0  0  0  0  0
   45.1950   34.2780   45.8020 N   0  0  0  0  0  0  0  0  0  0  0  0
   45.5670   33.2200   46.5080 C   0  0  0  0  0  0  0  0  0  0  0  0
   46.5220   32.4190   46.0010 N   0  0  0  0  0  0  0  0  0  0  0  0
   42.2207   32.4050   41.4263 H   0  0  0  0  0  0  0  0  0  0  0  0
   42.0988   36.1403   40.7875 H   0  0  0  0  0  0  0  0  0  0  0  0
   41.2259   35.9202   38.5070 H   0  0  0  0  0  0  0  0  0  0  0  0
   42.7373   35.0765   38.3514 H   0  0  0  0  0  0  0  0  0  0  0  0
   40.5198   33.6834   37.7404 H   0  0  0  0  0  0  0  0  0  0  0  0
   41.5938   32.8357   38.8108 H   0  0  0  0  0  0  0  0  0  0  0  0
   37.0707   32.5423   40.8139 H   0  0  0  0  0  0  0  0  0  0  0  0
   38.6267   32.6210   41.6831 H   0  0  0  0  0  0  0  0  0  0  0  0
   48.2441   33.5398   43.1758 H   0  0  0  0  0  0  0  0  0  0  0  0
   46.7232   33.4052   40.5821 H   0  0  0  0  0  0  0  0  0  0  0  0
   47.9271   35.7896   41.4935 H   0  0  0  0  0  0  0  0  0  0  0  0
   46.6327   36.2485   42.2320 H   0  0  0  0  0  0  0  0  0  0  0  0
   47.8498   32.0083   44.4392 H   0  0  0  0  0  0  0  0  0  0  0  0
   45.3746   35.4937   44.0476 H   0  0  0  0  0  0  0  0  0  0  0  0
   45.1070   33.0022   47.4832 H   0  0  0  0  0  0  0  0  0  0  0  0
  1 16  1  0
  1  2  1  0
  3  2  2  0
  4  5  1  0
  4  3  1  0
  5  1  2  0
  7  6  2  0
  8  4  1  0
  8  7  1  0
  9  8  1  0
 10  9  1  0
 10 11  1  0
 11  7  1  0
 12 11  1  0
 12 14  1  0
 13 12  2  0
 15 19  1  0
 16 17  1  0
 16 15  1  0
 17 15  1  0
 18 23  2  0
 19 20  2  0
 19 18  1  0
 20 21  1  0
 21 22  2  0
 23 22  1  0
  3 24  1  0
  8 25  1  6
  9 26  1  0
  9 27  1  0
 10 28  1  0
 10 29  1  0
 14 30  1  0
 14 31  1  0
 15 32  1  6
 16 33  1  6
 17 34  1  0
 17 35  1  0
 18 36  1  0
 20 37  1  0
 22 38  1  0
M  ISO  8  24  14  25  13  26  13  27  13  28  13  29  13  32  13  33  13
M  ISO  5  34  13  35  13  36  14  37  14  38  14
M  END
>  <minimizedAffinity>  (1) 
-6.1982131

>  <minimizedRMSD>  (1) 
0.324540764

$$$$
