
     RDKit          3D

 46 50  0  0  1  0  0  0  0  0999 V2000
   45.4190   32.9760   42.2380 C   0  0  0  0  0  0  0  0  0  0  0  0
   44.6090   31.9060   42.3500 N   0  0  0  0  0  0  0  0  0  0  0  0
   43.3570   32.2150   41.9870 C   0  0  0  0  0  0  0  0  0  0  0  0
   43.3800   33.5270   41.6340 N   0  0  0  0  0  0  0  0  0  0  0  0
   44.6060   34.0010   41.7770 N   0  0  0  0  0  0  0  0  0  0  0  0
   40.4050   32.7690   41.2350 O   0  0  0  0  0  0  0  0  0  0  0  0
   41.1980   33.4960   40.5630 C   0  0  0  0  0  0  0  0  0  0  0  0
   42.2640   34.3320   41.1630 C   0  0  2  0  0  0  0  0  0  0  0  0
   42.6890   35.2340   40.0120 C   0  0  0  0  0  0  0  0  0  0  0  0
   42.5180   34.2880   38.8200 C   0  0  0  0  0  0  0  0  0  0  0  0
   41.2510   33.6730   39.1330 N   0  0  0  0  0  0  0  0  0  0  0  0
   39.5800   32.0410   38.5360 N   0  0  0  0  0  0  0  0  0  0  0  0
   38.5700   31.9850   37.4680 C   0  0  0  0  0  0  0  0  0  0  0  0
   38.0310   33.4110   37.3810 C   0  0  0  0  0  0  0  0  0  0  0  0
   39.0250   34.2310   38.2100 C   0  0  0  0  0  0  0  0  0  0  0  0
   40.2200   33.3000   38.2030 C   0  0  1  0  0  0  0  0  0  0  0  0
   47.4790   33.2420   43.8470 C   0  0  1  0  0  0  0  0  0  0  0  0
   46.8530   33.1390   42.5000 C   0  0  2  0  0  0  0  0  0  0  0  0
   47.3220   34.4230   42.9730 C   0  0  0  0  0  0  0  0  0  0  0  0
   46.8720   31.9580   45.8850 C   0  0  0  0  0  0  0  0  0  0  0  0
   46.6970   33.0880   45.0880 C   0  0  0  0  0  0  0  0  0  0  0  0
   45.7900   34.0200   45.5320 C   0  0  0  0  0  0  0  0  0  0  0  0
   45.1360   33.7840   46.6980 N   0  0  0  0  0  0  0  0  0  0  0  0
   45.3200   32.7000   47.4390 C   0  0  0  0  0  0  0  0  0  0  0  0
   46.2050   31.7830   47.0130 N   0  0  0  0  0  0  0  0  0  0  0  0
   42.4865   31.5426   41.9768 H   0  0  0  0  0  0  0  0  0  0  0  0
   41.9185   34.8873   42.0475 H   0  0  0  0  0  0  0  0  0  0  0  0
   42.0350   36.1143   39.9260 H   0  0  0  0  0  0  0  0  0  0  0  0
   43.7002   35.6546   40.1154 H   0  0  0  0  0  0  0  0  0  0  0  0
   43.3274   33.5445   38.7755 H   0  0  0  0  0  0  0  0  0  0  0  0
   42.5495   34.7855   37.8394 H   0  0  0  0  0  0  0  0  0  0  0  0
   39.1483   32.0660   39.4708 H   0  0  0  0  0  0  0  0  0  0  0  0
   39.0279   31.6829   36.5145 H   0  0  0  0  0  0  0  0  0  0  0  0
   37.7791   31.2495   37.6766 H   0  0  0  0  0  0  0  0  0  0  0  0
   38.0107   33.7589   36.3377 H   0  0  0  0  0  0  0  0  0  0  0  0
   36.9981   33.4976   37.7492 H   0  0  0  0  0  0  0  0  0  0  0  0
   39.2569   35.1938   37.7311 H   0  0  0  0  0  0  0  0  0  0  0  0
   38.6668   34.5113   39.2116 H   0  0  0  0  0  0  0  0  0  0  0  0
   40.7734   33.2931   37.2523 H   0  0  0  0  0  0  0  0  0  0  0  0
   48.3143   32.7475   44.3645 H   0  0  0  0  0  0  0  0  0  0  0  0
   47.0400   32.4602   41.6548 H   0  0  0  0  0  0  0  0  0  0  0  0
   48.2084   34.8844   42.5132 H   0  0  0  0  0  0  0  0  0  0  0  0
   46.8620   35.4149   43.0931 H   0  0  0  0  0  0  0  0  0  0  0  0
   47.5882   31.1869   45.5651 H   0  0  0  0  0  0  0  0  0  0  0  0
   45.5982   34.9369   44.9554 H   0  0  0  0  0  0  0  0  0  0  0  0
   44.7635   32.5553   48.3767 H   0  0  0  0  0  0  0  0  0  0  0  0
  1  2  1  0
  1 18  1  0
  3  2  2  0
  4  5  1  0
  4  3  1  0
  5  1  2  0
  7  8  1  0
  7  6  2  0
  8  4  1  0
  9  8  1  0
 10 11  1  0
 10  9  1  0
 11  7  1  0
 13 12  1  0
 14 13  1  0
 14 15  1  0
 16 15  1  0
 16 12  1  0
 16 11  1  0
 17 21  1  0
 18 19  1  0
 18 17  1  0
 19 17  1  0
 20 25  2  0
 21 22  2  0
 21 20  1  0
 22 23  1  0
 23 24  2  0
 25 24  1  0
  3 26  1  0
  8 27  1  1
  9 28  1  0
  9 29  1  0
 10 30  1  0
 10 31  1  0
 12 32  1  0
 13 33  1  0
 13 34  1  0
 14 35  1  0
 14 36  1  0
 15 37  1  0
 15 38  1  0
 16 39  1  6
 17 40  1  6
 18 41  1  6
 19 42  1  0
 19 43  1  0
 20 44  1  0
 22 45  1  0
 24 46  1  0
M  ISO  8  26  14  27  13  28  13  29  13  30  13  31  13  32   5  33  13
M  ISO  8  34  13  35  13  36  13  37  13  38  13  39  13  40  13  41  13
M  ISO  5  42  13  43  13  44  14  45  14  46  14
M  END
>  <minimizedAffinity>  (1) 
-5.85261822

>  <minimizedRMSD>  (1) 
1.46939337

$$$$
