
     RDKit          3D

 47 51  0  0  1  0  0  0  0  0999 V2000
   44.8750   33.8200   41.6760 C   0  0  0  0  0  0  0  0  0  0  0  0
   44.4230   32.5540   41.7430 N   0  0  0  0  0  0  0  0  0  0  0  0
   43.0920   32.5150   41.5910 C   0  0  0  0  0  0  0  0  0  0  0  0
   42.6910   33.8020   41.4220 N   0  0  0  0  0  0  0  0  0  0  0  0
   43.7420   34.5960   41.4700 N   0  0  0  0  0  0  0  0  0  0  0  0
   39.9960   32.6430   42.4120 O   0  0  0  0  0  0  0  0  0  0  0  0
   40.3420   33.1900   41.3220 C   0  0  0  0  0  0  0  0  0  0  0  0
   41.3350   34.2810   41.2160 C   0  0  2  0  0  0  0  0  0  0  0  0
   41.1470   34.7890   39.7910 C   0  0  0  0  0  0  0  0  0  0  0  0
   40.8040   33.4800   39.0610 C   0  0  0  0  0  0  0  0  0  0  0  0
   39.8700   32.8930   39.9930 N   0  0  0  0  0  0  0  0  0  0  0  0
   38.9730   30.7890   39.0840 C   0  0  1  0  0  0  0  0  0  0  0  0
   38.6720   32.1410   39.6710 C   0  0  1  0  0  0  0  0  0  0  0  0
   37.8670   31.9530   40.7850 O   0  0  0  0  0  0  0  0  0  0  0  0
   37.9490   30.6440   41.1820 C   0  0  0  0  0  0  0  0  0  0  0  0
   38.2470   29.8060   39.9670 C   0  0  1  0  0  0  0  0  0  0  0  0
   38.4190   30.6230   37.7960 O   0  0  0  0  0  0  0  0  0  0  0  0
   37.0460   29.3490   39.3990 O   0  0  0  0  0  0  0  0  0  0  0  0
   47.0810   34.3680   42.9940 C   0  0  1  0  0  0  0  0  0  0  0  0
   46.2300   34.3730   41.7720 C   0  0  2  0  0  0  0  0  0  0  0  0
   46.4180   35.5990   42.5170 C   0  0  0  0  0  0  0  0  0  0  0  0
   47.1970   32.4540   44.5770 C   0  0  0  0  0  0  0  0  0  0  0  0
   46.6570   33.6950   44.2400 C   0  0  0  0  0  0  0  0  0  0  0  0
   45.7540   34.2390   45.1210 C   0  0  0  0  0  0  0  0  0  0  0  0
   45.4520   33.5380   46.2450 N   0  0  0  0  0  0  0  0  0  0  0  0
   45.9760   32.3610   46.5470 C   0  0  0  0  0  0  0  0  0  0  0  0
   46.8650   31.8170   45.6890 N   0  0  0  0  0  0  0  0  0  0  0  0
   42.4523   31.6202   41.6011 H   0  0  0  0  0  0  0  0  0  0  0  0
   41.1881   35.0586   41.9800 H   0  0  0  0  0  0  0  0  0  0  0  0
   40.3244   35.5163   39.7258 H   0  0  0  0  0  0  0  0  0  0  0  0
   42.0153   35.3252   39.3805 H   0  0  0  0  0  0  0  0  0  0  0  0
   40.3362   33.6710   38.0839 H   0  0  0  0  0  0  0  0  0  0  0  0
   41.6722   32.8475   38.8239 H   0  0  0  0  0  0  0  0  0  0  0  0
   40.0632   30.6579   39.0194 H   0  0  0  0  0  0  0  0  0  0  0  0
   38.1458   32.7502   38.9213 H   0  0  0  0  0  0  0  0  0  0  0  0
   38.7548   30.5283   41.9218 H   0  0  0  0  0  0  0  0  0  0  0  0
   37.0026   30.3249   41.6430 H   0  0  0  0  0  0  0  0  0  0  0  0
   38.8355   28.8960   40.1556 H   0  0  0  0  0  0  0  0  0  0  0  0
   37.4739   30.3398   37.8773 H   0  0  0  0  0  0  0  0  0  0  0  0
   36.4112   29.1075   40.1193 H   0  0  0  0  0  0  0  0  0  0  0  0
   48.1121   34.0672   43.2311 H   0  0  0  0  0  0  0  0  0  0  0  0
   46.4084   33.9985   40.7532 H   0  0  0  0  0  0  0  0  0  0  0  0
   47.0204   36.4129   42.0872 H   0  0  0  0  0  0  0  0  0  0  0  0
   45.7398   36.3353   42.9731 H   0  0  0  0  0  0  0  0  0  0  0  0
   47.9239   31.9884   43.8952 H   0  0  0  0  0  0  0  0  0  0  0  0
   45.2882   35.2154   44.9218 H   0  0  0  0  0  0  0  0  0  0  0  0
   45.6944   31.8392   47.4735 H   0  0  0  0  0  0  0  0  0  0  0  0
  1  2  1  0
  1 20  1  0
  3  2  2  0
  4  5  1  0
  4  3  1  0
  5  1  2  0
  7  6  2  0
  8  7  1  0
  8  4  1  0
  9  8  1  0
 10  9  1  0
 10 11  1  0
 11  7  1  0
 12 17  1  0
 12 13  1  0
 12 16  1  0
 13 11  1  0
 13 14  1  0
 14 15  1  0
 16 18  1  0
 16 15  1  0
 19 23  1  0
 20 21  1  0
 20 19  1  0
 21 19  1  0
 22 27  2  0
 23 22  1  0
 23 24  2  0
 24 25  1  0
 25 26  2  0
 27 26  1  0
  3 28  1  0
  8 29  1  1
  9 30  1  0
  9 31  1  0
 10 32  1  0
 10 33  1  0
 12 34  1  6
 13 35  1  6
 15 36  1  0
 15 37  1  0
 16 38  1  1
 17 39  1  0
 18 40  1  0
 19 41  1  6
 20 42  1  6
 21 43  1  0
 21 44  1  0
 22 45  1  0
 24 46  1  0
 26 47  1  0
M  ISO  8  28  14  29  13  30  13  31  13  32  13  33  13  34  13  35  13
M  ISO  8  36  13  37  13  38  13  39   3  40   3  41  13  42  13  43  13
M  ISO  4  44  13  45  14  46  14  47  14
M  END
>  <minimizedAffinity>  (1) 
-5.71278715

>  <minimizedRMSD>  (1) 
1.15407717

$$$$
