
     RDKit          3D

 26 27  0  0  0  0  0  0  0  0999 V2000
   47.2120   31.5930   44.6170 Cl  0  0  0  0  0  0  0  0  0  0  0  0
   46.5450   31.7830   46.2420 C   0  0  0  0  0  0  0  0  0  0  0  0
   45.8180   32.9150   46.5200 C   0  0  0  0  0  0  0  0  0  0  0  0
   45.3120   33.0500   47.7660 C   0  0  0  0  0  0  0  0  0  0  0  0
   45.5360   32.0570   48.7210 C   0  0  0  0  0  0  0  0  0  0  0  0
   46.2730   30.9200   48.4230 C   0  0  0  0  0  0  0  0  0  0  0  0
   46.8050   30.7600   47.1400 C   0  0  0  0  0  0  0  0  0  0  0  0
   44.5640   35.8300   44.7210 C   0  0  0  0  0  0  0  0  0  0  0  0
   45.2570   35.7980   43.4900 C   0  0  0  0  0  0  0  0  0  0  0  0
   46.1670   34.7280   43.3190 C   0  0  0  0  0  0  0  0  0  0  0  0
   46.3160   33.8250   44.3180 N   0  0  0  0  0  0  0  0  0  0  0  0
   45.6230   33.9120   45.4740 C   0  0  0  0  0  0  0  0  0  0  0  0
   44.7450   34.9200   45.6690 N   0  0  0  0  0  0  0  0  0  0  0  0
   46.8700   34.7260   42.0290 C   0  0  0  0  0  0  0  0  0  0  0  0
   47.6980   33.6020   41.9800 F   0  0  0  0  0  0  0  0  0  0  0  0
   47.7290   35.8120   42.0450 F   0  0  0  0  0  0  0  0  0  0  0  0
   46.0450   34.6790   40.9480 F   0  0  0  0  0  0  0  0  0  0  0  0
   47.6000   29.5760   46.7540 C   0  0  0  0  0  0  0  0  0  0  0  0
   48.8780   29.9290   46.3340 F   0  0  0  0  0  0  0  0  0  0  0  0
   47.7440   28.7890   47.8850 F   0  0  0  0  0  0  0  0  0  0  0  0
   46.9240   28.8800   45.7720 F   0  0  0  0  0  0  0  0  0  0  0  0
   44.7239   33.9421   48.0274 H   0  0  0  0  0  0  0  0  0  0  0  0
   45.1192   32.1786   49.7317 H   0  0  0  0  0  0  0  0  0  0  0  0
   46.4376   30.1497   49.1908 H   0  0  0  0  0  0  0  0  0  0  0  0
   43.8449   36.6429   44.9005 H   0  0  0  0  0  0  0  0  0  0  0  0
   45.0986   36.5590   42.7116 H   0  0  0  0  0  0  0  0  0  0  0  0
  1  2  1  0
  2  3  2  0
  2  7  1  0
  3  4  1  0
  4  5  2  0
  6  5  1  0
  7  6  2  0
  8 13  2  0
  9  8  1  0
 10  9  2  0
 10 11  1  0
 11 12  2  0
 12 13  1  0
 12  3  1  0
 14 16  1  0
 14 10  1  0
 15 14  1  0
 17 14  1  0
 18  7  1  0
 18 20  1  0
 19 18  1  0
 21 18  1  0
  4 22  1  0
  5 23  1  0
  6 24  1  0
  8 25  1  0
  9 26  1  0
M  ISO  5  22  14  23  14  24  14  25  14  26  14
M  END
>  <minimizedAffinity>  (1) 
-5.80791473

>  <minimizedRMSD>  (1) 
0.281682849

$$$$
