
     RDKit          3D

 36 39  0  0  1  0  0  0  0  0999 V2000
   45.1900   33.8160   41.3540 C   0  0  0  0  0  0  0  0  0  0  0  0
   44.3360   32.8040   41.5930 N   0  0  0  0  0  0  0  0  0  0  0  0
   43.0780   33.1660   41.3040 C   0  0  0  0  0  0  0  0  0  0  0  0
   43.1420   34.4510   40.8670 N   0  0  0  0  0  0  0  0  0  0  0  0
   44.3920   34.8540   40.8900 N   0  0  0  0  0  0  0  0  0  0  0  0
   40.2460   34.6460   41.9470 O   0  0  0  0  0  0  0  0  0  0  0  0
   40.7260   34.6900   40.7720 C   0  0  0  0  0  0  0  0  0  0  0  0
   42.0400   35.2870   40.4310 C   0  0  2  0  0  0  0  0  0  0  0  0
   41.9920   35.3860   38.9140 C   0  0  0  0  0  0  0  0  0  0  0  0
   41.1860   34.1280   38.5630 C   0  0  0  0  0  0  0  0  0  0  0  0
   40.1330   34.1910   39.5550 N   0  0  0  0  0  0  0  0  0  0  0  0
   38.7360   33.8490   39.4590 C   0  0  0  0  0  0  0  0  0  0  0  0
   38.1370   33.1800   40.3420 O   0  0  0  0  0  0  0  0  0  0  0  0
   47.3890   33.9170   42.7890 C   0  0  1  0  0  0  0  0  0  0  0  0
   46.6470   33.9100   41.4980 C   0  0  2  0  0  0  0  0  0  0  0  0
   47.2080   35.1450   41.9960 C   0  0  0  0  0  0  0  0  0  0  0  0
   47.0490   32.6140   44.8740 C   0  0  0  0  0  0  0  0  0  0  0  0
   46.7080   33.7130   44.0870 C   0  0  0  0  0  0  0  0  0  0  0  0
   45.7540   34.5700   44.5750 C   0  0  0  0  0  0  0  0  0  0  0  0
   45.2050   34.2990   45.7850 N   0  0  0  0  0  0  0  0  0  0  0  0
   45.5420   33.2490   46.5200 C   0  0  0  0  0  0  0  0  0  0  0  0
   46.4750   32.4040   46.0500 N   0  0  0  0  0  0  0  0  0  0  0  0
   42.1743   32.5464   41.4012 H   0  0  0  0  0  0  0  0  0  0  0  0
   42.2071   36.2552   40.9256 H   0  0  0  0  0  0  0  0  0  0  0  0
   41.4768   36.3005   38.5851 H   0  0  0  0  0  0  0  0  0  0  0  0
   42.9793   35.4408   38.4320 H   0  0  0  0  0  0  0  0  0  0  0  0
   40.7822   34.1786   37.5410 H   0  0  0  0  0  0  0  0  0  0  0  0
   41.7695   33.1957   38.5787 H   0  0  0  0  0  0  0  0  0  0  0  0
   38.1698   34.1862   38.5783 H   0  0  0  0  0  0  0  0  0  0  0  0
   48.2461   33.3692   43.2077 H   0  0  0  0  0  0  0  0  0  0  0  0
   46.7324   33.2726   40.6056 H   0  0  0  0  0  0  0  0  0  0  0  0
   48.0709   35.5978   41.4858 H   0  0  0  0  0  0  0  0  0  0  0  0
   46.8014   36.1450   42.2076 H   0  0  0  0  0  0  0  0  0  0  0  0
   47.8098   31.9069   44.5117 H   0  0  0  0  0  0  0  0  0  0  0  0
   45.4425   35.4542   43.9995 H   0  0  0  0  0  0  0  0  0  0  0  0
   45.0669   33.0726   47.4963 H   0  0  0  0  0  0  0  0  0  0  0  0
  1 15  1  0
  1  2  1  0
  3  2  2  0
  4  5  1  0
  4  3  1  0
  5  1  2  0
  7  6  2  0
  8  7  1  0
  8  4  1  0
  9  8  1  0
 10  9  1  0
 10 11  1  0
 11  7  1  0
 12 11  1  0
 12 13  2  0
 14 18  1  0
 15 16  1  0
 15 14  1  0
 16 14  1  0
 17 22  2  0
 18 19  2  0
 18 17  1  0
 19 20  1  0
 20 21  2  0
 22 21  1  0
  3 23  1  0
  8 24  1  1
  9 25  1  0
  9 26  1  0
 10 27  1  0
 10 28  1  0
 12 29  1  0
 14 30  1  6
 15 31  1  6
 16 32  1  0
 16 33  1  0
 17 34  1  0
 19 35  1  0
 21 36  1  0
M  ISO  8  23  14  24  13  25  13  26  13  27  13  28  13  29   6  30  13
M  ISO  6  31  13  32  13  33  13  34  14  35  14  36  14
M  END
>  <minimizedAffinity>  (1) 
-5.574718

>  <minimizedRMSD>  (1) 
0.279336691

$$$$
