
     RDKit          3D

 26 27  0  0  0  0  0  0  0  0999 V2000
   44.5380   35.8530   44.7300 C   0  0  0  0  0  0  0  0  0  0  0  0
   45.1980   35.8170   43.4770 C   0  0  0  0  0  0  0  0  0  0  0  0
   46.1100   34.7490   43.2890 C   0  0  0  0  0  0  0  0  0  0  0  0
   46.2750   33.8650   44.3040 N   0  0  0  0  0  0  0  0  0  0  0  0
   45.6200   33.9460   45.4780 C   0  0  0  0  0  0  0  0  0  0  0  0
   44.7470   34.9500   45.6850 N   0  0  0  0  0  0  0  0  0  0  0  0
   47.5120   31.8380   44.7120 Cl  0  0  0  0  0  0  0  0  0  0  0  0
   46.7020   31.9040   46.2770 C   0  0  0  0  0  0  0  0  0  0  0  0
   45.8390   32.9620   46.5200 C   0  0  0  0  0  0  0  0  0  0  0  0
   45.2370   33.0160   47.7270 C   0  0  0  0  0  0  0  0  0  0  0  0
   45.5190   32.0050   48.6560 C   0  0  0  0  0  0  0  0  0  0  0  0
   46.3710   30.9580   48.4110 C   0  0  0  0  0  0  0  0  0  0  0  0
   46.9930   30.8930   47.1790 C   0  0  0  0  0  0  0  0  0  0  0  0
   47.9350   29.8080   46.8040 C   0  0  0  0  0  0  0  0  0  0  0  0
   46.7740   34.7360   41.9910 C   0  0  0  0  0  0  0  0  0  0  0  0
   47.5400   33.5830   41.9010 F   0  0  0  0  0  0  0  0  0  0  0  0
   47.6670   35.7710   41.9930 F   0  0  0  0  0  0  0  0  0  0  0  0
   45.8990   34.7410   40.9250 F   0  0  0  0  0  0  0  0  0  0  0  0
   43.8202   36.6641   44.9223 H   0  0  0  0  0  0  0  0  0  0  0  0
   45.0138   36.5716   42.6981 H   0  0  0  0  0  0  0  0  0  0  0  0
   44.5429   33.8325   47.9752 H   0  0  0  0  0  0  0  0  0  0  0  0
   45.0283   32.0540   49.6393 H   0  0  0  0  0  0  0  0  0  0  0  0
   46.5544   30.1894   49.1763 H   0  0  0  0  0  0  0  0  0  0  0  0
   48.3393   29.3423   47.7149 H   0  0  0  0  0  0  0  0  0  0  0  0
   47.4035   29.0502   46.2097 H   0  0  0  0  0  0  0  0  0  0  0  0
   48.7599   30.2278   46.2097 H   0  0  0  0  0  0  0  0  0  0  0  0
  1  6  2  0
  2  1  1  0
  3  2  2  0
  3  4  1  0
  4  5  2  0
  5  6  1  0
  5  9  1  0
  7  8  1  0
  8  9  2  0
  8 13  1  0
  9 10  1  0
 10 11  2  0
 12 11  1  0
 13 12  2  0
 14 13  1  0
 15 17  1  0
 15  3  1  0
 16 15  1  0
 18 15  1  0
  1 19  1  0
  2 20  1  0
 10 21  1  0
 11 22  1  0
 12 23  1  0
 14 24  1  0
 14 25  1  0
 14 26  1  0
M  ISO  8  19  14  20  14  21  14  22  14  23  14  24   8  25   8  26   8
M  END
>  <minimizedAffinity>  (1) 
-5.79773521

>  <minimizedRMSD>  (1) 
0.0272875316

$$$$
