
     RDKit          3D

 50 53  0  0  1  0  0  0  0  0999 V2000
   47.5990   32.6030   41.3580 C   0  0  1  0  0  0  0  0  0  0  0  0
   46.9930   31.9310   40.1890 C   0  0  0  0  0  0  0  0  0  0  0  0
   47.9060   32.2430   39.0050 C   0  0  0  0  0  0  0  0  0  0  0  0
   47.7330   33.7290   38.7140 C   0  0  0  0  0  0  0  0  0  0  0  0
   47.9720   34.6070   39.8840 C   0  0  0  0  0  0  0  0  0  0  0  0
   47.5950   34.1120   41.2180 C   0  0  1  0  0  0  0  0  0  0  0  0
   46.3330   34.6920   41.7140 C   0  0  0  0  0  0  0  0  0  0  0  0
   46.1850   35.5220   42.8340 C   0  0  0  0  0  0  0  0  0  0  0  0
   44.8810   35.9670   43.0780 C   0  0  0  0  0  0  0  0  0  0  0  0
   43.8660   35.5610   42.2180 C   0  0  0  0  0  0  0  0  0  0  0  0
   44.0480   34.7500   41.1370 C   0  0  0  0  0  0  0  0  0  0  0  0
   45.3040   34.3200   40.8960 N   0  0  0  0  0  0  0  0  0  0  0  0
   42.9690   34.3640   40.2880 N   0  0  0  0  0  0  0  0  0  0  0  0
   42.7750   34.9530   38.9750 C   0  0  0  0  0  0  0  0  0  0  0  0
   41.3010   35.3520   38.9360 C   0  0  0  0  0  0  0  0  0  0  0  0
   40.7310   35.4850   40.3450 C   0  0  0  0  0  0  0  0  0  0  0  0
   40.7540   34.1750   41.0990 C   0  0  0  0  0  0  0  0  0  0  0  0
   41.9790   33.3710   40.6380 C   0  0  0  0  0  0  0  0  0  0  0  0
   45.3800   31.0480   43.9830 C   0  0  0  0  0  0  0  0  0  0  0  0
   45.9300   31.4380   42.7650 C   0  0  0  0  0  0  0  0  0  0  0  0
   47.0690   32.2150   42.6590 C   0  0  0  0  0  0  0  0  0  0  0  0
   47.6320   32.5840   43.8210 N   0  0  0  0  0  0  0  0  0  0  0  0
   47.1120   32.2130   45.0150 C   0  0  0  0  0  0  0  0  0  0  0  0
   46.0140   31.4650   45.1090 N   0  0  0  0  0  0  0  0  0  0  0  0
   48.6358   32.2358   41.3453 H   0  0  0  0  0  0  0  0  0  0  0  0
   46.9416   30.8450   40.3564 H   0  0  0  0  0  0  0  0  0  0  0  0
   45.9660   32.2820   40.0097 H   0  0  0  0  0  0  0  0  0  0  0  0
   48.9528   32.0244   39.2628 H   0  0  0  0  0  0  0  0  0  0  0  0
   47.6486   31.6305   38.1283 H   0  0  0  0  0  0  0  0  0  0  0  0
   48.4412   34.0103   37.9207 H   0  0  0  0  0  0  0  0  0  0  0  0
   46.6836   33.8740   38.4180 H   0  0  0  0  0  0  0  0  0  0  0  0
   49.0494   34.8270   39.9111 H   0  0  0  0  0  0  0  0  0  0  0  0
   47.3079   35.4678   39.7168 H   0  0  0  0  0  0  0  0  0  0  0  0
   48.4062   34.4737   41.8670 H   0  0  0  0  0  0  0  0  0  0  0  0
   47.0334   35.8034   43.4752 H   0  0  0  0  0  0  0  0  0  0  0  0
   44.6630   36.6245   43.9325 H   0  0  0  0  0  0  0  0  0  0  0  0
   42.8464   35.9187   42.4241 H   0  0  0  0  0  0  0  0  0  0  0  0
   43.4183   35.8362   38.8483 H   0  0  0  0  0  0  0  0  0  0  0  0
   43.0362   34.2551   38.1658 H   0  0  0  0  0  0  0  0  0  0  0  0
   41.2035   36.3166   38.4164 H   0  0  0  0  0  0  0  0  0  0  0  0
   40.7407   34.5685   38.4047 H   0  0  0  0  0  0  0  0  0  0  0  0
   41.3284   36.2232   40.9001 H   0  0  0  0  0  0  0  0  0  0  0  0
   39.6819   35.8032   40.2550 H   0  0  0  0  0  0  0  0  0  0  0  0
   40.8226   34.3695   42.1795 H   0  0  0  0  0  0  0  0  0  0  0  0
   39.8329   33.6079   40.8990 H   0  0  0  0  0  0  0  0  0  0  0  0
   41.7280   32.7509   39.7648 H   0  0  0  0  0  0  0  0  0  0  0  0
   42.3402   32.6851   41.4184 H   0  0  0  0  0  0  0  0  0  0  0  0
   44.4718   30.4293   44.0311 H   0  0  0  0  0  0  0  0  0  0  0  0
   45.4331   31.1114   41.8396 H   0  0  0  0  0  0  0  0  0  0  0  0
   47.6131   32.5403   45.9379 H   0  0  0  0  0  0  0  0  0  0  0  0
  1 21  1  0
  2  1  1  0
  3  2  1  0
  4  3  1  0
  4  5  1  0
  5  6  1  0
  6  1  1  0
  6  7  1  0
  7  8  2  0
  8  9  1  0
 10  9  2  0
 11 10  1  0
 12 11  2  0
 12  7  1  0
 13 18  1  0
 13 11  1  0
 14 13  1  0
 15 14  1  0
 15 16  1  0
 16 17  1  0
 18 17  1  0
 19 24  2  0
 20 19  1  0
 21 20  2  0
 21 22  1  0
 22 23  2  0
 23 24  1  0
  1 25  1  1
  2 26  1  0
  2 27  1  0
  3 28  1  0
  3 29  1  0
  4 30  1  0
  4 31  1  0
  5 32  1  0
  5 33  1  0
  6 34  1  1
  8 35  1  0
  9 36  1  0
 10 37  1  0
 14 38  1  0
 14 39  1  0
 15 40  1  0
 15 41  1  0
 16 42  1  0
 16 43  1  0
 17 44  1  0
 17 45  1  0
 18 46  1  0
 18 47  1  0
 19 48  1  0
 20 49  1  0
 23 50  1  0
M  ISO  8  25  13  26  13  27  13  28  13  29  13  30  13  31  13  32  13
M  ISO  8  33  13  34  13  35  14  36  14  37  14  38  13  39  13  40  13
M  ISO  8  41  13  42  13  43  13  44  13  45  13  46  13  47  13  48  14
M  ISO  2  49  14  50  14
M  END
>  <minimizedAffinity>  (1) 
-5.98956823

>  <minimizedRMSD>  (1) 
0.690764308

$$$$
