
     RDKit          3D

 49 52  0  0  1  0  0  0  0  0999 V2000
   47.8170   32.8680   41.7640 C   0  0  1  0  0  0  0  0  0  0  0  0
   47.4170   32.1480   40.5390 C   0  0  0  0  0  0  0  0  0  0  0  0
   48.4100   32.5790   39.4590 C   0  0  0  0  0  0  0  0  0  0  0  0
   48.1000   34.0350   39.1470 C   0  0  0  0  0  0  0  0  0  0  0  0
   48.1320   34.9270   40.3500 C   0  0  0  0  0  0  0  0  0  0  0  0
   47.6690   34.3690   41.6270 C   0  0  1  0  0  0  0  0  0  0  0  0
   46.3090   34.8040   41.9920 C   0  0  0  0  0  0  0  0  0  0  0  0
   45.9480   35.6160   43.0750 C   0  0  0  0  0  0  0  0  0  0  0  0
   44.5780   35.9070   43.1840 C   0  0  0  0  0  0  0  0  0  0  0  0
   43.7200   35.3840   42.2420 C   0  0  0  0  0  0  0  0  0  0  0  0
   44.0940   34.5940   41.1940 C   0  0  0  0  0  0  0  0  0  0  0  0
   45.4120   34.3090   41.0810 N   0  0  0  0  0  0  0  0  0  0  0  0
   43.1050   34.1130   40.2830 N   0  0  0  0  0  0  0  0  0  0  0  0
   42.3330   35.1050   39.5630 C   0  0  0  0  0  0  0  0  0  0  0  0
   41.5440   34.3000   38.5230 C   0  0  0  0  0  0  0  0  0  0  0  0
   42.4620   33.4360   37.8050 N   0  0  0  0  0  0  0  0  0  0  0  0
   43.0020   32.3800   38.6060 C   0  0  0  0  0  0  0  0  0  0  0  0
   42.8700   32.6960   40.0730 C   0  0  0  0  0  0  0  0  0  0  0  0
   45.5550   30.9980   44.1390 C   0  0  0  0  0  0  0  0  0  0  0  0
   46.1840   31.4670   42.9890 C   0  0  0  0  0  0  0  0  0  0  0  0
   47.2000   32.4080   43.0010 C   0  0  0  0  0  0  0  0  0  0  0  0
   47.5580   32.8590   44.2160 N   0  0  0  0  0  0  0  0  0  0  0  0
   46.9560   32.4140   45.3440 C   0  0  0  0  0  0  0  0  0  0  0  0
   45.9840   31.5130   45.3220 N   0  0  0  0  0  0  0  0  0  0  0  0
   48.8833   32.6155   41.8599 H   0  0  0  0  0  0  0  0  0  0  0  0
   47.4723   31.0610   40.6983 H   0  0  0  0  0  0  0  0  0  0  0  0
   46.3809   32.3813   40.2525 H   0  0  0  0  0  0  0  0  0  0  0  0
   49.4412   32.4805   39.8291 H   0  0  0  0  0  0  0  0  0  0  0  0
   48.3197   31.9507   38.5606 H   0  0  0  0  0  0  0  0  0  0  0  0
   48.8428   34.4011   38.4230 H   0  0  0  0  0  0  0  0  0  0  0  0
   47.0752   34.0680   38.7486 H   0  0  0  0  0  0  0  0  0  0  0  0
   49.1739   35.2503   40.4914 H   0  0  0  0  0  0  0  0  0  0  0  0
   47.4142   35.7283   40.1206 H   0  0  0  0  0  0  0  0  0  0  0  0
   48.3688   34.8027   42.3565 H   0  0  0  0  0  0  0  0  0  0  0  0
   46.6881   36.0002   43.7924 H   0  0  0  0  0  0  0  0  0  0  0  0
   44.1995   36.5375   44.0021 H   0  0  0  0  0  0  0  0  0  0  0  0
   42.6506   35.6215   42.3422 H   0  0  0  0  0  0  0  0  0  0  0  0
   41.6503   35.6349   40.2436 H   0  0  0  0  0  0  0  0  0  0  0  0
   42.9692   35.8741   39.1006 H   0  0  0  0  0  0  0  0  0  0  0  0
   40.7813   33.6898   39.0289 H   0  0  0  0  0  0  0  0  0  0  0  0
   41.0474   34.9843   37.8193 H   0  0  0  0  0  0  0  0  0  0  0  0
   41.9595   33.0167   37.0096 H   0  0  0  0  0  0  0  0  0  0  0  0
   42.4586   31.4488   38.3880 H   0  0  0  0  0  0  0  0  0  0  0  0
   44.0695   32.2675   38.3656 H   0  0  0  0  0  0  0  0  0  0  0  0
   41.8569   32.4372   40.4146 H   0  0  0  0  0  0  0  0  0  0  0  0
   43.6079   32.1123   40.6429 H   0  0  0  0  0  0  0  0  0  0  0  0
   44.7513   30.2484   44.0929 H   0  0  0  0  0  0  0  0  0  0  0  0
   45.8560   31.0683   42.0177 H   0  0  0  0  0  0  0  0  0  0  0  0
   47.2854   32.8147   46.3140 H   0  0  0  0  0  0  0  0  0  0  0  0
  1 21  1  0
  2  1  1  0
  3  2  1  0
  4  3  1  0
  4  5  1  0
  5  6  1  0
  6  1  1  0
  6  7  1  0
  7  8  2  0
  8  9  1  0
 10  9  2  0
 11 10  1  0
 12 11  2  0
 12  7  1  0
 13 11  1  0
 14 13  1  0
 15 14  1  0
 16 15  1  0
 16 17  1  0
 17 18  1  0
 18 13  1  0
 19 24  2  0
 20 21  2  0
 20 19  1  0
 21 22  1  0
 22 23  2  0
 24 23  1  0
  1 25  1  1
  2 26  1  0
  2 27  1  0
  3 28  1  0
  3 29  1  0
  4 30  1  0
  4 31  1  0
  5 32  1  0
  5 33  1  0
  6 34  1  1
  8 35  1  0
  9 36  1  0
 10 37  1  0
 14 38  1  0
 14 39  1  0
 15 40  1  0
 15 41  1  0
 16 42  1  0
 17 43  1  0
 17 44  1  0
 18 45  1  0
 18 46  1  0
 19 47  1  0
 20 48  1  0
 23 49  1  0
M  ISO  8  25  13  26  13  27  13  28  13  29  13  30  13  31  13  32  13
M  ISO  8  33  13  34  13  35  14  36  14  37  14  38  13  39  13  40  13
M  ISO  8  41  13  42   5  43  13  44  13  45  13  46  13  47  14  48  14
M  ISO  1  49  14
M  END
>  <minimizedAffinity>  (1) 
-5.84982204

>  <minimizedRMSD>  (1) 
0.518923402

$$$$
