
     RDKit          3D

 24 25  0  0  0  0  0  0  0  0999 V2000
   44.5350   35.8480   44.7400 C   0  0  0  0  0  0  0  0  0  0  0  0
   45.1930   35.8120   43.4840 C   0  0  0  0  0  0  0  0  0  0  0  0
   46.1060   34.7330   43.3100 C   0  0  0  0  0  0  0  0  0  0  0  0
   46.2740   33.8510   44.3240 N   0  0  0  0  0  0  0  0  0  0  0  0
   45.6200   33.9420   45.4890 C   0  0  0  0  0  0  0  0  0  0  0  0
   44.7440   34.9530   45.6910 N   0  0  0  0  0  0  0  0  0  0  0  0
   47.5100   31.8280   44.7330 Cl  0  0  0  0  0  0  0  0  0  0  0  0
   46.7070   31.9090   46.3080 C   0  0  0  0  0  0  0  0  0  0  0  0
   45.8440   32.9610   46.5340 C   0  0  0  0  0  0  0  0  0  0  0  0
   45.2430   33.0080   47.7410 C   0  0  0  0  0  0  0  0  0  0  0  0
   45.5000   32.0300   48.6990 C   0  0  0  0  0  0  0  0  0  0  0  0
   46.3630   30.9910   48.4560 C   0  0  0  0  0  0  0  0  0  0  0  0
   46.9920   30.9190   47.2240 C   0  0  0  0  0  0  0  0  0  0  0  0
   48.1460   29.6030   46.7850 S   0  0  0  0  0  0  0  0  0  0  0  0
   46.7710   34.7200   42.0060 C   0  0  0  0  0  0  0  0  0  0  0  0
   47.5410   33.5640   41.9150 F   0  0  0  0  0  0  0  0  0  0  0  0
   47.6680   35.7540   42.0000 F   0  0  0  0  0  0  0  0  0  0  0  0
   45.8980   34.7340   40.9410 F   0  0  0  0  0  0  0  0  0  0  0  0
   43.8168   36.6587   44.9322 H   0  0  0  0  0  0  0  0  0  0  0  0
   45.0113   36.5630   42.7011 H   0  0  0  0  0  0  0  0  0  0  0  0
   44.5440   33.8257   47.9706 H   0  0  0  0  0  0  0  0  0  0  0  0
   44.9981   32.0921   49.6758 H   0  0  0  0  0  0  0  0  0  0  0  0
   46.5519   30.2287   49.2262 H   0  0  0  0  0  0  0  0  0  0  0  0
   48.6452   29.0337   47.9267 H   0  0  0  0  0  0  0  0  0  0  0  0
  1  6  2  0
  2  1  1  0
  3  2  2  0
  3  4  1  0
  4  5  2  0
  5  6  1  0
  5  9  1  0
  7  8  1  0
  8  9  2  0
  8 13  1  0
  9 10  1  0
 10 11  2  0
 12 11  1  0
 13 12  2  0
 14 13  1  0
 15  3  1  0
 16 15  1  0
 17 15  1  0
 18 15  1  0
  1 19  1  0
  2 20  1  0
 10 21  1  0
 11 22  1  0
 12 23  1  0
 14 24  1  0
M  ISO  6  19  14  20  14  21  14  22  14  23  14  24  11
M  END
>  <minimizedAffinity>  (1) 
-5.74556541

>  <minimizedRMSD>  (1) 
0.0311488919

$$$$
