
     RDKit          3D

 45 48  0  0  1  0  0  0  0  0999 V2000
   47.6880   32.6600   41.4240 C   0  0  1  0  0  0  0  0  0  0  0  0
   47.1390   32.0000   40.2190 C   0  0  0  0  0  0  0  0  0  0  0  0
   48.1110   32.3630   39.0910 C   0  0  0  0  0  0  0  0  0  0  0  0
   47.8910   33.8400   38.8110 C   0  0  0  0  0  0  0  0  0  0  0  0
   48.0800   34.7050   40.0120 C   0  0  0  0  0  0  0  0  0  0  0  0
   47.6660   34.1720   41.3170 C   0  0  1  0  0  0  0  0  0  0  0  0
   45.3570   31.0550   43.9230 C   0  0  0  0  0  0  0  0  0  0  0  0
   45.9510   31.4840   42.7380 C   0  0  0  0  0  0  0  0  0  0  0  0
   47.1160   32.2320   42.6930 C   0  0  0  0  0  0  0  0  0  0  0  0
   47.6570   32.5300   43.8860 N   0  0  0  0  0  0  0  0  0  0  0  0
   47.0940   32.1220   45.0480 C   0  0  0  0  0  0  0  0  0  0  0  0
   45.9730   31.4040   45.0790 N   0  0  0  0  0  0  0  0  0  0  0  0
   46.3770   34.7180   41.7770 C   0  0  0  0  0  0  0  0  0  0  0  0
   46.1450   35.4630   42.9380 C   0  0  0  0  0  0  0  0  0  0  0  0
   44.8350   35.8880   43.1410 C   0  0  0  0  0  0  0  0  0  0  0  0
   43.8860   35.5500   42.2030 C   0  0  0  0  0  0  0  0  0  0  0  0
   44.1200   34.8200   41.0700 C   0  0  0  0  0  0  0  0  0  0  0  0
   45.3950   34.4050   40.8710 N   0  0  0  0  0  0  0  0  0  0  0  0
   43.0780   34.4810   40.0980 C   0  0  0  0  0  0  0  0  0  0  0  0
   42.0070   35.3430   39.9690 C   0  0  0  0  0  0  0  0  0  0  0  0
   40.9700   35.0920   39.0630 C   0  0  0  0  0  0  0  0  0  0  0  0
   41.0890   33.9200   38.3080 C   0  0  0  0  0  0  0  0  0  0  0  0
   42.1440   33.0370   38.4110 C   0  0  0  0  0  0  0  0  0  0  0  0
   43.1450   33.3440   39.3310 C   0  0  0  0  0  0  0  0  0  0  0  0
   48.7322   32.3147   41.4423 H   0  0  0  0  0  0  0  0  0  0  0  0
   47.0994   30.9097   40.3594 H   0  0  0  0  0  0  0  0  0  0  0  0
   46.1116   32.3267   40.0005 H   0  0  0  0  0  0  0  0  0  0  0  0
   49.1490   32.1841   39.4080 H   0  0  0  0  0  0  0  0  0  0  0  0
   47.9351   31.7513   38.1939 H   0  0  0  0  0  0  0  0  0  0  0  0
   48.6042   34.1581   38.0364 H   0  0  0  0  0  0  0  0  0  0  0  0
   46.8463   33.9572   38.4873 H   0  0  0  0  0  0  0  0  0  0  0  0
   49.1523   34.9408   40.0800 H   0  0  0  0  0  0  0  0  0  0  0  0
   47.4129   35.5627   39.8410 H   0  0  0  0  0  0  0  0  0  0  0  0
   48.4493   34.5296   42.0015 H   0  0  0  0  0  0  0  0  0  0  0  0
   44.4313   30.4608   43.9207 H   0  0  0  0  0  0  0  0  0  0  0  0
   45.4688   31.2142   41.7868 H   0  0  0  0  0  0  0  0  0  0  0  0
   47.5787   32.3926   45.9977 H   0  0  0  0  0  0  0  0  0  0  0  0
   46.9505   35.6992   43.6489 H   0  0  0  0  0  0  0  0  0  0  0  0
   44.5651   36.4790   44.0286 H   0  0  0  0  0  0  0  0  0  0  0  0
   42.8563   35.8947   42.3786 H   0  0  0  0  0  0  0  0  0  0  0  0
   41.9679   36.2481   40.5929 H   0  0  0  0  0  0  0  0  0  0  0  0
   40.1142   35.7741   38.9514 H   0  0  0  0  0  0  0  0  0  0  0  0
   40.2912   33.6881   37.5870 H   0  0  0  0  0  0  0  0  0  0  0  0
   42.1931   32.1285   37.7928 H   0  0  0  0  0  0  0  0  0  0  0  0
   44.0025   32.6645   39.4445 H   0  0  0  0  0  0  0  0  0  0  0  0
  1  9  1  0
  2  1  1  0
  3  2  1  0
  4  3  1  0
  4  5  1  0
  5  6  1  0
  6  1  1  0
  6 13  1  0
  7 12  2  0
  8  7  1  0
  9  8  2  0
  9 10  1  0
 10 11  2  0
 11 12  1  0
 13 14  2  0
 14 15  1  0
 16 15  2  0
 17 16  1  0
 18 17  2  0
 18 13  1  0
 19 17  1  0
 20 19  2  0
 21 20  1  0
 22 23  1  0
 22 21  2  0
 23 24  2  0
 24 19  1  0
  1 25  1  1
  2 26  1  0
  2 27  1  0
  3 28  1  0
  3 29  1  0
  4 30  1  0
  4 31  1  0
  5 32  1  0
  5 33  1  0
  6 34  1  1
  7 35  1  0
  8 36  1  0
 11 37  1  0
 14 38  1  0
 15 39  1  0
 16 40  1  0
 20 41  1  0
 21 42  1  0
 22 43  1  0
 23 44  1  0
 24 45  1  0
M  ISO  8  25  13  26  13  27  13  28  13  29  13  30  13  31  13  32  13
M  ISO  8  33  13  34  13  35  14  36  14  37  14  38  14  39  14  40  14
M  ISO  5  41  14  42  14  43  14  44  14  45  14
M  END
>  <minimizedAffinity>  (1) 
-5.76077652

>  <minimizedRMSD>  (1) 
0.732236207

$$$$
