
     RDKit          3D

 42 45  0  0  1  0  0  0  0  0999 V2000
   47.8390   32.8880   41.7250 C   0  0  1  0  0  0  0  0  0  0  0  0
   47.4740   32.1890   40.4770 C   0  0  0  0  0  0  0  0  0  0  0  0
   48.4990   32.6510   39.4340 C   0  0  0  0  0  0  0  0  0  0  0  0
   48.1670   34.1040   39.1380 C   0  0  0  0  0  0  0  0  0  0  0  0
   48.1670   34.9770   40.3560 C   0  0  0  0  0  0  0  0  0  0  0  0
   47.6790   34.3910   41.6140 C   0  0  1  0  0  0  0  0  0  0  0  0
   45.4510   31.0460   43.9980 C   0  0  0  0  0  0  0  0  0  0  0  0
   46.1090   31.5390   42.8740 C   0  0  0  0  0  0  0  0  0  0  0  0
   47.1950   32.3980   42.9370 C   0  0  0  0  0  0  0  0  0  0  0  0
   47.5930   32.7410   44.1730 N   0  0  0  0  0  0  0  0  0  0  0  0
   46.9650   32.2710   45.2770 C   0  0  0  0  0  0  0  0  0  0  0  0
   45.9250   31.4470   45.2040 N   0  0  0  0  0  0  0  0  0  0  0  0
   46.3060   34.8050   41.9500 C   0  0  0  0  0  0  0  0  0  0  0  0
   45.8930   35.4880   43.1000 C   0  0  0  0  0  0  0  0  0  0  0  0
   44.5240   35.7920   43.1710 C   0  0  0  0  0  0  0  0  0  0  0  0
   43.7160   35.4020   42.1320 C   0  0  0  0  0  0  0  0  0  0  0  0
   44.1370   34.7300   41.0070 C   0  0  0  0  0  0  0  0  0  0  0  0
   45.4530   34.4390   40.9390 N   0  0  0  0  0  0  0  0  0  0  0  0
   43.1890   34.3600   39.9520 C   0  0  0  0  0  0  0  0  0  0  0  0
   42.2360   35.2100   39.4260 C   0  0  0  0  0  0  0  0  0  0  0  0
   41.6040   34.4030   38.4790 C   0  0  0  0  0  0  0  0  0  0  0  0
   42.1940   33.1380   38.4810 C   0  0  0  0  0  0  0  0  0  0  0  0
   43.1420   33.1940   39.3970 O   0  0  0  0  0  0  0  0  0  0  0  0
   48.9052   32.6439   41.8417 H   0  0  0  0  0  0  0  0  0  0  0  0
   47.5312   31.0993   40.6158 H   0  0  0  0  0  0  0  0  0  0  0  0
   46.4440   32.4188   40.1667 H   0  0  0  0  0  0  0  0  0  0  0  0
   49.5192   32.5661   39.8365 H   0  0  0  0  0  0  0  0  0  0  0  0
   48.4556   32.0337   38.5245 H   0  0  0  0  0  0  0  0  0  0  0  0
   48.9128   34.4943   38.4298 H   0  0  0  0  0  0  0  0  0  0  0  0
   47.1479   34.1254   38.7245 H   0  0  0  0  0  0  0  0  0  0  0  0
   49.2032   35.3049   40.5259 H   0  0  0  0  0  0  0  0  0  0  0  0
   47.4504   35.7789   40.1249 H   0  0  0  0  0  0  0  0  0  0  0  0
   48.3547   34.8174   42.3701 H   0  0  0  0  0  0  0  0  0  0  0  0
   44.5906   30.3660   43.9122 H   0  0  0  0  0  0  0  0  0  0  0  0
   45.7472   31.2299   41.8822 H   0  0  0  0  0  0  0  0  0  0  0  0
   47.3281   32.5819   46.2677 H   0  0  0  0  0  0  0  0  0  0  0  0
   46.5965   35.7688   43.8977 H   0  0  0  0  0  0  0  0  0  0  0  0
   44.1096   36.3289   44.0370 H   0  0  0  0  0  0  0  0  0  0  0  0
   42.6459   35.6462   42.2044 H   0  0  0  0  0  0  0  0  0  0  0  0
   42.0278   36.2580   39.6874 H   0  0  0  0  0  0  0  0  0  0  0  0
   40.7709   34.7151   37.8320 H   0  0  0  0  0  0  0  0  0  0  0  0
   41.9254   32.2765   37.8519 H   0  0  0  0  0  0  0  0  0  0  0  0
  1  9  1  0
  2  1  1  0
  3  2  1  0
  4  3  1  0
  4  5  1  0
  5  6  1  0
  6  1  1  0
  6 13  1  0
  7 12  2  0
  8  9  2  0
  8  7  1  0
  9 10  1  0
 10 11  2  0
 12 11  1  0
 13 14  2  0
 14 15  1  0
 16 15  2  0
 17 16  1  0
 18 17  2  0
 18 13  1  0
 19 17  1  0
 20 19  2  0
 21 22  2  0
 21 20  1  0
 22 23  1  0
 23 19  1  0
  1 24  1  1
  2 25  1  0
  2 26  1  0
  3 27  1  0
  3 28  1  0
  4 29  1  0
  4 30  1  0
  5 31  1  0
  5 32  1  0
  6 33  1  1
  7 34  1  0
  8 35  1  0
 11 36  1  0
 14 37  1  0
 15 38  1  0
 16 39  1  0
 20 40  1  0
 21 41  1  0
 22 42  1  0
M  ISO  8  24  13  25  13  26  13  27  13  28  13  29  13  30  13  31  13
M  ISO  8  32  13  33  13  34  14  35  14  36  14  37  14  38  14  39  14
M  ISO  3  40  14  41  14  42  14
M  END
>  <minimizedAffinity>  (1) 
-5.49629879

>  <minimizedRMSD>  (1) 
0.428813487

$$$$
