
     RDKit          3D

 41 43  0  0  1  0  0  0  0  0999 V2000
   47.8760   32.9580   41.8210 C   0  0  1  0  0  0  0  0  0  0  0  0
   47.5830   32.1910   40.5920 C   0  0  0  0  0  0  0  0  0  0  0  0
   48.6210   32.6510   39.5620 C   0  0  0  0  0  0  0  0  0  0  0  0
   48.2540   34.0780   39.1990 C   0  0  0  0  0  0  0  0  0  0  0  0
   48.1640   35.0000   40.3760 C   0  0  0  0  0  0  0  0  0  0  0  0
   47.6530   34.4450   41.6390 C   0  0  1  0  0  0  0  0  0  0  0  0
   45.4870   31.1100   44.0910 C   0  0  0  0  0  0  0  0  0  0  0  0
   46.1640   31.5830   42.9680 C   0  0  0  0  0  0  0  0  0  0  0  0
   47.2110   32.4920   43.0330 C   0  0  0  0  0  0  0  0  0  0  0  0
   47.5540   32.9080   44.2630 N   0  0  0  0  0  0  0  0  0  0  0  0
   46.9030   32.4550   45.3650 C   0  0  0  0  0  0  0  0  0  0  0  0
   45.8960   31.5800   45.2950 N   0  0  0  0  0  0  0  0  0  0  0  0
   46.2530   34.8140   41.9070 C   0  0  0  0  0  0  0  0  0  0  0  0
   45.7710   35.5070   43.0240 C   0  0  0  0  0  0  0  0  0  0  0  0
   44.3960   35.7580   43.0380 C   0  0  0  0  0  0  0  0  0  0  0  0
   43.6360   35.3130   41.9710 C   0  0  0  0  0  0  0  0  0  0  0  0
   44.1330   34.6390   40.8950 C   0  0  0  0  0  0  0  0  0  0  0  0
   45.4700   34.3950   40.8810 N   0  0  0  0  0  0  0  0  0  0  0  0
   43.2130   34.2020   39.7910 C   0  0  0  0  0  0  0  0  0  0  0  0
   42.1400   35.1900   39.5280 C   0  0  0  0  0  0  0  0  0  0  0  0
   48.9470   32.7663   41.9826 H   0  0  0  0  0  0  0  0  0  0  0  0
   47.6811   31.1117   40.7804 H   0  0  0  0  0  0  0  0  0  0  0  0
   46.5554   32.3638   40.2395 H   0  0  0  0  0  0  0  0  0  0  0  0
   49.6309   32.6158   39.9966 H   0  0  0  0  0  0  0  0  0  0  0  0
   48.6219   31.9996   38.6756 H   0  0  0  0  0  0  0  0  0  0  0  0
   49.0188   34.4680   38.5113 H   0  0  0  0  0  0  0  0  0  0  0  0
   47.2536   34.0441   38.7429 H   0  0  0  0  0  0  0  0  0  0  0  0
   49.1761   35.3842   40.5711 H   0  0  0  0  0  0  0  0  0  0  0  0
   47.4207   35.7558   40.0823 H   0  0  0  0  0  0  0  0  0  0  0  0
   48.2789   34.9305   42.4022 H   0  0  0  0  0  0  0  0  0  0  0  0
   44.6602   30.3896   44.0043 H   0  0  0  0  0  0  0  0  0  0  0  0
   45.8522   31.2168   41.9787 H   0  0  0  0  0  0  0  0  0  0  0  0
   47.2167   32.8225   46.3532 H   0  0  0  0  0  0  0  0  0  0  0  0
   46.4330   35.8335   43.8396 H   0  0  0  0  0  0  0  0  0  0  0  0
   43.9298   36.2960   43.8766 H   0  0  0  0  0  0  0  0  0  0  0  0
   42.5553   35.5172   41.9922 H   0  0  0  0  0  0  0  0  0  0  0  0
   43.8024   34.0670   38.8721 H   0  0  0  0  0  0  0  0  0  0  0  0
   42.7351   33.2619   40.1038 H   0  0  0  0  0  0  0  0  0  0  0  0
   41.7392   35.5591   40.4836 H   0  0  0  0  0  0  0  0  0  0  0  0
   42.5506   36.0328   38.9526 H   0  0  0  0  0  0  0  0  0  0  0  0
   41.3339   34.7114   38.9526 H   0  0  0  0  0  0  0  0  0  0  0  0
  1  9  1  0
  2  1  1  0
  3  2  1  0
  4  3  1  0
  4  5  1  0
  5  6  1  0
  6  1  1  0
  6 13  1  0
  7 12  2  0
  8  9  2  0
  8  7  1  0
  9 10  1  0
 10 11  2  0
 12 11  1  0
 13 14  2  0
 14 15  1  0
 16 15  2  0
 17 16  1  0
 18 17  2  0
 18 13  1  0
 19 17  1  0
 20 19  1  0
  1 21  1  1
  2 22  1  0
  2 23  1  0
  3 24  1  0
  3 25  1  0
  4 26  1  0
  4 27  1  0
  5 28  1  0
  5 29  1  0
  6 30  1  1
  7 31  1  0
  8 32  1  0
 11 33  1  0
 14 34  1  0
 15 35  1  0
 16 36  1  0
 19 37  1  0
 19 38  1  0
 20 39  1  0
 20 40  1  0
 20 41  1  0
M  ISO  8  21  13  22  13  23  13  24  13  25  13  26  13  27  13  28  13
M  ISO  8  29  13  30  13  31  14  32  14  33  14  34  14  35  14  36  14
M  ISO  5  37   8  38   8  39   8  40   8  41   8
M  END
>  <minimizedAffinity>  (1) 
-4.92368889

>  <minimizedRMSD>  (1) 
0.414169908

$$$$
