
     RDKit          3D

 29 30  0  0  0  0  0  0  0  0999 V2000
   47.5260   31.8400   44.7360 Cl  0  0  0  0  0  0  0  0  0  0  0  0
   46.7250   31.9120   46.2950 C   0  0  0  0  0  0  0  0  0  0  0  0
   45.8460   32.9620   46.5250 C   0  0  0  0  0  0  0  0  0  0  0  0
   45.2430   33.0010   47.7290 C   0  0  0  0  0  0  0  0  0  0  0  0
   45.5030   32.0230   48.6840 C   0  0  0  0  0  0  0  0  0  0  0  0
   46.3780   30.9860   48.4380 C   0  0  0  0  0  0  0  0  0  0  0  0
   47.0080   30.9260   47.2140 C   0  0  0  0  0  0  0  0  0  0  0  0
   44.5320   35.8570   44.7380 C   0  0  0  0  0  0  0  0  0  0  0  0
   45.1850   35.8060   43.4810 C   0  0  0  0  0  0  0  0  0  0  0  0
   46.0890   34.7320   43.2930 C   0  0  0  0  0  0  0  0  0  0  0  0
   46.2590   33.8480   44.3120 N   0  0  0  0  0  0  0  0  0  0  0  0
   45.6050   33.9530   45.4860 C   0  0  0  0  0  0  0  0  0  0  0  0
   44.7450   34.9580   45.6900 N   0  0  0  0  0  0  0  0  0  0  0  0
   46.7440   34.7150   41.9990 C   0  0  0  0  0  0  0  0  0  0  0  0
   47.5070   33.5670   41.9000 F   0  0  0  0  0  0  0  0  0  0  0  0
   47.6560   35.7540   41.9970 F   0  0  0  0  0  0  0  0  0  0  0  0
   45.8950   34.7450   40.9340 F   0  0  0  0  0  0  0  0  0  0  0  0
   47.9390   29.8160   47.0080 C   0  0  0  0  0  0  0  0  0  0  0  0
   49.0510   29.7400   48.0430 C   0  0  0  0  0  0  0  0  0  0  0  0
   44.5384   33.8137   47.9593 H   0  0  0  0  0  0  0  0  0  0  0  0
   44.9979   32.0785   49.6596 H   0  0  0  0  0  0  0  0  0  0  0  0
   46.5695   30.2208   49.2047 H   0  0  0  0  0  0  0  0  0  0  0  0
   43.8210   36.6737   44.9316 H   0  0  0  0  0  0  0  0  0  0  0  0
   45.0006   36.5561   42.6979 H   0  0  0  0  0  0  0  0  0  0  0  0
   47.3692   28.8758   47.0431 H   0  0  0  0  0  0  0  0  0  0  0  0
   48.4221   29.9829   46.0340 H   0  0  0  0  0  0  0  0  0  0  0  0
   48.6150   29.7698   49.0525 H   0  0  0  0  0  0  0  0  0  0  0  0
   49.6099   28.8016   47.9125 H   0  0  0  0  0  0  0  0  0  0  0  0
   49.7323   30.5937   47.9125 H   0  0  0  0  0  0  0  0  0  0  0  0
  1  2  1  0
  2  3  2  0
  2  7  1  0
  3  4  1  0
  4  5  2  0
  6  5  1  0
  7  6  2  0
  8 13  2  0
  9  8  1  0
 10  9  2  0
 10 11  1  0
 11 12  2  0
 12 13  1  0
 12  3  1  0
 14 10  1  0
 15 14  1  0
 16 14  1  0
 17 14  1  0
 18  7  1  0
 18 19  1  0
  4 20  1  0
  5 21  1  0
  6 22  1  0
  8 23  1  0
  9 24  1  0
 18 25  1  0
 18 26  1  0
 19 27  1  0
 19 28  1  0
 19 29  1  0
M  ISO  8  20  14  21  14  22  14  23  14  24  14  25   8  26   8  27   8
M  ISO  2  28   8  29   8
M  END
>  <minimizedAffinity>  (1) 
-5.72260237

>  <minimizedRMSD>  (1) 
0.0841115937

$$$$
