
     RDKit          3D

 25 26  0  0  0  0  0  0  0  0999 V2000
   47.5170   31.8390   44.7210 Cl  0  0  0  0  0  0  0  0  0  0  0  0
   46.6930   31.9080   46.2850 C   0  0  0  0  0  0  0  0  0  0  0  0
   45.8360   32.9690   46.5250 C   0  0  0  0  0  0  0  0  0  0  0  0
   45.2310   33.0220   47.7300 C   0  0  0  0  0  0  0  0  0  0  0  0
   45.4990   32.0150   48.6590 C   0  0  0  0  0  0  0  0  0  0  0  0
   46.3460   30.9630   48.4190 C   0  0  0  0  0  0  0  0  0  0  0  0
   46.9710   30.8980   47.1890 C   0  0  0  0  0  0  0  0  0  0  0  0
   44.5330   35.8550   44.7270 C   0  0  0  0  0  0  0  0  0  0  0  0
   45.1980   35.8120   43.4780 C   0  0  0  0  0  0  0  0  0  0  0  0
   46.1090   34.7510   43.2980 C   0  0  0  0  0  0  0  0  0  0  0  0
   46.2880   33.8570   44.3080 N   0  0  0  0  0  0  0  0  0  0  0  0
   45.6250   33.9490   45.4750 C   0  0  0  0  0  0  0  0  0  0  0  0
   44.7440   34.9550   45.6840 N   0  0  0  0  0  0  0  0  0  0  0  0
   46.7670   34.7450   42.0000 C   0  0  0  0  0  0  0  0  0  0  0  0
   47.5410   33.5790   41.9080 F   0  0  0  0  0  0  0  0  0  0  0  0
   47.6710   35.7630   41.9950 F   0  0  0  0  0  0  0  0  0  0  0  0
   45.8980   34.7340   40.9280 F   0  0  0  0  0  0  0  0  0  0  0  0
   47.8850   29.8060   46.8690 C   0  0  0  0  0  0  0  0  0  0  0  0
   48.2580   29.0280   47.7870 O   0  0  0  0  0  0  0  0  0  0  0  0
   44.5404   33.8423   47.9754 H   0  0  0  0  0  0  0  0  0  0  0  0
   45.0027   32.0682   49.6392 H   0  0  0  0  0  0  0  0  0  0  0  0
   46.5225   30.1930   49.1845 H   0  0  0  0  0  0  0  0  0  0  0  0
   43.8128   36.6652   44.9139 H   0  0  0  0  0  0  0  0  0  0  0  0
   45.0149   36.5619   42.6944 H   0  0  0  0  0  0  0  0  0  0  0  0
   48.2438   29.6640   45.8389 H   0  0  0  0  0  0  0  0  0  0  0  0
  1  2  1  0
  2  3  2  0
  2  7  1  0
  3  4  1  0
  4  5  2  0
  6  5  1  0
  7  6  2  0
  8 13  2  0
  9  8  1  0
 10  9  2  0
 10 11  1  0
 11 12  2  0
 12 13  1  0
 12  3  1  0
 14 10  1  0
 15 14  1  0
 16 14  1  0
 17 14  1  0
 18  7  1  0
 18 19  2  0
  4 20  1  0
  5 21  1  0
  6 22  1  0
  8 23  1  0
  9 24  1  0
 18 25  1  0
M  ISO  6  20  14  21  14  22  14  23  14  24  14  25   6
M  END
>  <minimizedAffinity>  (1) 
-5.62723017

>  <minimizedRMSD>  (1) 
0.0555020422

$$$$
