
     RDKit          3D

 50 53  0  0  1  0  0  0  0  0999 V2000
   47.5880   32.5540   41.3140 C   0  0  1  0  0  0  0  0  0  0  0  0
   46.9630   31.9390   40.1420 C   0  0  0  0  0  0  0  0  0  0  0  0
   47.8670   32.2630   38.9550 C   0  0  0  0  0  0  0  0  0  0  0  0
   47.7210   33.7390   38.6950 C   0  0  0  0  0  0  0  0  0  0  0  0
   47.9960   34.6040   39.8920 C   0  0  0  0  0  0  0  0  0  0  0  0
   47.6140   34.0840   41.2180 C   0  0  1  0  0  0  0  0  0  0  0  0
   45.3250   31.0450   43.9350 C   0  0  0  0  0  0  0  0  0  0  0  0
   45.8840   31.4490   42.7170 C   0  0  0  0  0  0  0  0  0  0  0  0
   47.0770   32.1670   42.6120 C   0  0  0  0  0  0  0  0  0  0  0  0
   47.6770   32.4600   43.7670 N   0  0  0  0  0  0  0  0  0  0  0  0
   47.1440   32.0730   44.9580 C   0  0  0  0  0  0  0  0  0  0  0  0
   45.9990   31.3840   45.0520 N   0  0  0  0  0  0  0  0  0  0  0  0
   46.3730   34.6770   41.7160 C   0  0  0  0  0  0  0  0  0  0  0  0
   46.2490   35.4640   42.8660 C   0  0  0  0  0  0  0  0  0  0  0  0
   44.9720   35.9430   43.1490 C   0  0  0  0  0  0  0  0  0  0  0  0
   43.9460   35.6060   42.2830 C   0  0  0  0  0  0  0  0  0  0  0  0
   44.0940   34.8280   41.1560 C   0  0  0  0  0  0  0  0  0  0  0  0
   45.3500   34.3670   40.8930 N   0  0  0  0  0  0  0  0  0  0  0  0
   42.9410   34.5320   40.3090 C   0  0  0  0  0  0  0  0  0  0  0  0
   42.6930   35.3000   39.3430 O   0  0  0  0  0  0  0  0  0  0  0  0
   41.9580   33.5090   40.3140 N   0  0  0  0  0  0  0  0  0  0  0  0
   42.1710   32.5680   41.4200 C   0  0  0  0  0  0  0  0  0  0  0  0
   40.7880   32.0050   41.7590 C   0  0  0  0  0  0  0  0  0  0  0  0
   39.8370   33.0110   41.6980 O   0  0  0  0  0  0  0  0  0  0  0  0
   39.5750   33.4000   40.3800 C   0  0  0  0  0  0  0  0  0  0  0  0
   40.7830   33.1270   39.5130 C   0  0  0  0  0  0  0  0  0  0  0  0
   48.6061   32.1398   41.2696 H   0  0  0  0  0  0  0  0  0  0  0  0
   46.8881   30.8500   40.2777 H   0  0  0  0  0  0  0  0  0  0  0  0
   45.9440   32.3222   39.9849 H   0  0  0  0  0  0  0  0  0  0  0  0
   48.9126   32.0216   39.1969 H   0  0  0  0  0  0  0  0  0  0  0  0
   47.5862   31.6740   38.0694 H   0  0  0  0  0  0  0  0  0  0  0  0
   48.4240   34.0202   37.8971 H   0  0  0  0  0  0  0  0  0  0  0  0
   46.6706   33.9090   38.4161 H   0  0  0  0  0  0  0  0  0  0  0  0
   49.0785   34.7979   39.9150 H   0  0  0  0  0  0  0  0  0  0  0  0
   47.3585   35.4886   39.7470 H   0  0  0  0  0  0  0  0  0  0  0  0
   48.4280   34.4061   41.8841 H   0  0  0  0  0  0  0  0  0  0  0  0
   44.3827   30.4791   43.9785 H   0  0  0  0  0  0  0  0  0  0  0  0
   45.3534   31.1860   41.7900 H   0  0  0  0  0  0  0  0  0  0  0  0
   47.6765   32.3374   45.8835 H   0  0  0  0  0  0  0  0  0  0  0  0
   47.1111   35.6916   43.5102 H   0  0  0  0  0  0  0  0  0  0  0  0
   44.7846   36.5697   44.0334 H   0  0  0  0  0  0  0  0  0  0  0  0
   42.9397   35.9871   42.5114 H   0  0  0  0  0  0  0  0  0  0  0  0
   42.8487   31.7590   41.1098 H   0  0  0  0  0  0  0  0  0  0  0  0
   42.6321   33.0609   42.2886 H   0  0  0  0  0  0  0  0  0  0  0  0
   40.5296   31.2157   41.0378 H   0  0  0  0  0  0  0  0  0  0  0  0
   40.8079   31.5892   42.7772 H   0  0  0  0  0  0  0  0  0  0  0  0
   38.7148   32.8319   39.9962 H   0  0  0  0  0  0  0  0  0  0  0  0
   39.3495   34.4764   40.3582 H   0  0  0  0  0  0  0  0  0  0  0  0
   40.7363   33.7288   38.5934 H   0  0  0  0  0  0  0  0  0  0  0  0
   40.8296   32.0701   39.2116 H   0  0  0  0  0  0  0  0  0  0  0  0
  1  9  1  0
  2  1  1  0
  3  2  1  0
  4  3  1  0
  4  5  1  0
  5  6  1  0
  6  1  1  0
  6 13  1  0
  7 12  2  0
  8  7  1  0
  9  8  2  0
  9 10  1  0
 10 11  2  0
 11 12  1  0
 13 14  2  0
 14 15  1  0
 16 15  2  0
 17 16  1  0
 18 17  2  0
 18 13  1  0
 19 21  1  0
 19 17  1  0
 20 19  2  0
 21 22  1  0
 22 23  1  0
 24 23  1  0
 25 24  1  0
 26 21  1  0
 26 25  1  0
  1 27  1  1
  2 28  1  0
  2 29  1  0
  3 30  1  0
  3 31  1  0
  4 32  1  0
  4 33  1  0
  5 34  1  0
  5 35  1  0
  6 36  1  1
  7 37  1  0
  8 38  1  0
 11 39  1  0
 14 40  1  0
 15 41  1  0
 16 42  1  0
 22 43  1  0
 22 44  1  0
 23 45  1  0
 23 46  1  0
 25 47  1  0
 25 48  1  0
 26 49  1  0
 26 50  1  0
M  ISO  8  27  13  28  13  29  13  30  13  31  13  32  13  33  13  34  13
M  ISO  8  35  13  36  13  37  14  38  14  39  14  40  14  41  14  42  14
M  ISO  8  43  13  44  13  45  13  46  13  47  13  48  13  49  13  50  13
M  END
>  <minimizedAffinity>  (1) 
-5.85333967

>  <minimizedRMSD>  (1) 
1.52894843

$$$$
