
     RDKit          3D

 52 55  0  0  1  0  0  0  0  0999 V2000
   47.7670   32.7770   41.6360 C   0  0  1  0  0  0  0  0  0  0  0  0
   47.3340   32.0920   40.4180 C   0  0  0  0  0  0  0  0  0  0  0  0
   48.3200   32.5110   39.3300 C   0  0  0  0  0  0  0  0  0  0  0  0
   48.0420   33.9770   39.0360 C   0  0  0  0  0  0  0  0  0  0  0  0
   48.1020   34.8630   40.2420 C   0  0  0  0  0  0  0  0  0  0  0  0
   47.6430   34.3010   41.5200 C   0  0  1  0  0  0  0  0  0  0  0  0
   45.4490   31.0120   44.0430 C   0  0  0  0  0  0  0  0  0  0  0  0
   46.0820   31.4780   42.8830 C   0  0  0  0  0  0  0  0  0  0  0  0
   47.1800   32.3420   42.8840 C   0  0  0  0  0  0  0  0  0  0  0  0
   47.6120   32.7160   44.0890 N   0  0  0  0  0  0  0  0  0  0  0  0
   47.0120   32.2760   45.2260 C   0  0  0  0  0  0  0  0  0  0  0  0
   45.9660   31.4520   45.2190 N   0  0  0  0  0  0  0  0  0  0  0  0
   46.3070   34.7630   41.8970 C   0  0  0  0  0  0  0  0  0  0  0  0
   45.9850   35.4850   43.0530 C   0  0  0  0  0  0  0  0  0  0  0  0
   44.6390   35.8340   43.1970 C   0  0  0  0  0  0  0  0  0  0  0  0
   43.7550   35.4470   42.2080 C   0  0  0  0  0  0  0  0  0  0  0  0
   44.0970   34.7320   41.0710 C   0  0  0  0  0  0  0  0  0  0  0  0
   45.4110   34.3990   40.9460 N   0  0  0  0  0  0  0  0  0  0  0  0
   43.0880   34.3740   40.0850 C   0  0  0  0  0  0  0  0  0  0  0  0
   42.7560   35.2220   39.2180 O   0  0  0  0  0  0  0  0  0  0  0  0
   42.3640   33.1820   39.9040 N   0  0  0  0  0  0  0  0  0  0  0  0
   42.2630   32.7010   38.5400 C   0  0  0  0  0  0  0  0  0  0  0  0
   40.8320   32.9480   38.0810 C   0  0  0  0  0  0  0  0  0  0  0  0
   39.8850   32.3720   39.0920 C   0  0  0  0  0  0  0  0  0  0  0  0
   40.5670   31.5640   40.1740 C   0  0  0  0  0  0  0  0  0  0  0  0
   41.6710   32.3060   40.8600 C   0  0  0  0  0  0  0  0  0  0  0  0
   48.8226   32.4738   41.6970 H   0  0  0  0  0  0  0  0  0  0  0  0
   47.3627   31.0017   40.5613 H   0  0  0  0  0  0  0  0  0  0  0  0
   46.3005   32.3574   40.1508 H   0  0  0  0  0  0  0  0  0  0  0  0
   49.3535   32.3839   39.6845 H   0  0  0  0  0  0  0  0  0  0  0  0
   48.2008   31.8948   38.4266 H   0  0  0  0  0  0  0  0  0  0  0  0
   48.7878   34.3313   38.3092 H   0  0  0  0  0  0  0  0  0  0  0  0
   47.0135   34.0344   38.6503 H   0  0  0  0  0  0  0  0  0  0  0  0
   49.1502   35.1692   40.3742 H   0  0  0  0  0  0  0  0  0  0  0  0
   47.3972   35.6794   40.0255 H   0  0  0  0  0  0  0  0  0  0  0  0
   48.3550   34.7058   42.2543 H   0  0  0  0  0  0  0  0  0  0  0  0
   44.5859   30.3312   44.0034 H   0  0  0  0  0  0  0  0  0  0  0  0
   45.6902   31.1428   41.9113 H   0  0  0  0  0  0  0  0  0  0  0  0
   47.4077   32.6154   46.1946 H   0  0  0  0  0  0  0  0  0  0  0  0
   46.7435   35.7602   43.8006 H   0  0  0  0  0  0  0  0  0  0  0  0
   44.2930   36.4012   44.0737 H   0  0  0  0  0  0  0  0  0  0  0  0
   42.6988   35.7279   42.3326 H   0  0  0  0  0  0  0  0  0  0  0  0
   42.9658   33.2480   37.8943 H   0  0  0  0  0  0  0  0  0  0  0  0
   42.5124   31.6311   38.4834 H   0  0  0  0  0  0  0  0  0  0  0  0
   40.6570   34.0299   37.9871 H   0  0  0  0  0  0  0  0  0  0  0  0
   40.6682   32.4682   37.1048 H   0  0  0  0  0  0  0  0  0  0  0  0
   39.3401   33.2002   39.5686 H   0  0  0  0  0  0  0  0  0  0  0  0
   39.2168   31.6855   38.5515 H   0  0  0  0  0  0  0  0  0  0  0  0
   39.8152   31.2830   40.9262 H   0  0  0  0  0  0  0  0  0  0  0  0
   41.0172   30.6851   39.6894 H   0  0  0  0  0  0  0  0  0  0  0  0
   42.3886   31.5848   41.2782 H   0  0  0  0  0  0  0  0  0  0  0  0
   41.2438   32.9208   41.6660 H   0  0  0  0  0  0  0  0  0  0  0  0
  1  9  1  0
  2  1  1  0
  3  2  1  0
  4  3  1  0
  4  5  1  0
  5  6  1  0
  6  1  1  0
  6 13  1  0
  7 12  2  0
  8  9  2  0
  8  7  1  0
  9 10  1  0
 10 11  2  0
 12 11  1  0
 13 14  2  0
 14 15  1  0
 16 15  2  0
 17 16  1  0
 18 17  2  0
 18 13  1  0
 19 17  1  0
 20 19  2  0
 21 19  1  0
 21 26  1  0
 22 21  1  0
 23 22  1  0
 23 24  1  0
 24 25  1  0
 25 26  1  0
  1 27  1  1
  2 28  1  0
  2 29  1  0
  3 30  1  0
  3 31  1  0
  4 32  1  0
  4 33  1  0
  5 34  1  0
  5 35  1  0
  6 36  1  1
  7 37  1  0
  8 38  1  0
 11 39  1  0
 14 40  1  0
 15 41  1  0
 16 42  1  0
 22 43  1  0
 22 44  1  0
 23 45  1  0
 23 46  1  0
 24 47  1  0
 24 48  1  0
 25 49  1  0
 25 50  1  0
 26 51  1  0
 26 52  1  0
M  ISO  8  27  13  28  13  29  13  30  13  31  13  32  13  33  13  34  13
M  ISO  8  35  13  36  13  37  14  38  14  39  14  40  14  41  14  42  14
M  ISO  8  43  13  44  13  45  13  46  13  47  13  48  13  49  13  50  13
M  ISO  2  51  13  52  13
M  END
>  <minimizedAffinity>  (1) 
-5.78981113

>  <minimizedRMSD>  (1) 
0.864845812

$$$$
