
     RDKit          3D

 43 46  0  0  1  0  0  0  0  0999 V2000
   47.8320   32.8870   41.8270 C   0  0  1  0  0  0  0  0  0  0  0  0
   47.5340   32.2790   40.5290 C   0  0  0  0  0  0  0  0  0  0  0  0
   48.5750   32.8310   39.5560 C   0  0  0  0  0  0  0  0  0  0  0  0
   48.2260   34.2790   39.3410 C   0  0  0  0  0  0  0  0  0  0  0  0
   48.1340   35.0810   40.6090 C   0  0  0  0  0  0  0  0  0  0  0  0
   47.6230   34.4050   41.8110 C   0  0  1  0  0  0  0  0  0  0  0  0
   45.3820   30.8990   43.9010 C   0  0  0  0  0  0  0  0  0  0  0  0
   46.0710   31.4750   42.8330 C   0  0  0  0  0  0  0  0  0  0  0  0
   47.1710   32.3220   42.9850 C   0  0  0  0  0  0  0  0  0  0  0  0
   47.5410   32.5620   44.2440 N   0  0  0  0  0  0  0  0  0  0  0  0
   46.8780   32.0080   45.2920 C   0  0  0  0  0  0  0  0  0  0  0  0
   45.8290   31.1980   45.1360 N   0  0  0  0  0  0  0  0  0  0  0  0
   46.2330   34.7610   42.1040 C   0  0  0  0  0  0  0  0  0  0  0  0
   45.7600   35.2830   43.3190 C   0  0  0  0  0  0  0  0  0  0  0  0
   44.3910   35.5620   43.3630 C   0  0  0  0  0  0  0  0  0  0  0  0
   43.6320   35.3030   42.2260 C   0  0  0  0  0  0  0  0  0  0  0  0
   44.1230   34.7860   41.0390 C   0  0  0  0  0  0  0  0  0  0  0  0
   45.4580   34.5210   41.0130 N   0  0  0  0  0  0  0  0  0  0  0  0
   43.2350   34.5580   39.9080 C   0  0  0  0  0  0  0  0  0  0  0  0
   42.2110   35.3000   39.8060 O   0  0  0  0  0  0  0  0  0  0  0  0
   43.4170   33.5450   38.8740 C   0  0  0  0  0  0  0  0  0  0  0  0
   44.6290   33.2530   38.3780 N   0  0  0  0  0  0  0  0  0  0  0  0
   44.5100   32.2800   37.4290 C   0  0  0  0  0  0  0  0  0  0  0  0
   43.1990   31.9950   37.3700 N   0  0  0  0  0  0  0  0  0  0  0  0
   42.5590   32.7440   38.2230 N   0  0  0  0  0  0  0  0  0  0  0  0
   48.8959   32.6397   41.9571 H   0  0  0  0  0  0  0  0  0  0  0  0
   47.6134   31.1837   40.5928 H   0  0  0  0  0  0  0  0  0  0  0  0
   46.5109   32.5133   40.1999 H   0  0  0  0  0  0  0  0  0  0  0  0
   49.5834   32.7421   39.9863 H   0  0  0  0  0  0  0  0  0  0  0  0
   48.5711   32.2737   38.6077 H   0  0  0  0  0  0  0  0  0  0  0  0
   48.9995   34.7299   38.7020 H   0  0  0  0  0  0  0  0  0  0  0  0
   47.2284   34.3004   38.8781 H   0  0  0  0  0  0  0  0  0  0  0  0
   49.1458   35.4444   40.8418 H   0  0  0  0  0  0  0  0  0  0  0  0
   47.3890   35.8604   40.3910 H   0  0  0  0  0  0  0  0  0  0  0  0
   48.2494   34.7925   42.6279 H   0  0  0  0  0  0  0  0  0  0  0  0
   44.5190   30.2355   43.7427 H   0  0  0  0  0  0  0  0  0  0  0  0
   45.7280   31.2489   41.8126 H   0  0  0  0  0  0  0  0  0  0  0  0
   47.2201   32.2366   46.3122 H   0  0  0  0  0  0  0  0  0  0  0  0
   46.4228   35.4605   44.1788 H   0  0  0  0  0  0  0  0  0  0  0  0
   43.9268   35.9747   44.2709 H   0  0  0  0  0  0  0  0  0  0  0  0
   42.5561   35.5268   42.2739 H   0  0  0  0  0  0  0  0  0  0  0  0
   45.3177   31.8249   36.8370 H   0  0  0  0  0  0  0  0  0  0  0  0
   42.7678   31.2954   36.7491 H   0  0  0  0  0  0  0  0  0  0  0  0
  1  9  1  0
  2  1  1  0
  3  2  1  0
  4  3  1  0
  4  5  1  0
  5  6  1  0
  6  1  1  0
  6 13  1  0
  7 12  2  0
  8  9  2  0
  8  7  1  0
  9 10  1  0
 10 11  2  0
 12 11  1  0
 13 14  2  0
 14 15  1  0
 16 15  2  0
 17 16  1  0
 18 17  2  0
 18 13  1  0
 19 17  1  0
 20 19  2  0
 21 19  1  0
 22 21  1  0
 23 22  2  0
 24 23  1  0
 24 25  1  0
 25 21  2  0
  1 26  1  1
  2 27  1  0
  2 28  1  0
  3 29  1  0
  3 30  1  0
  4 31  1  0
  4 32  1  0
  5 33  1  0
  5 34  1  0
  6 35  1  1
  7 36  1  0
  8 37  1  0
 11 38  1  0
 14 39  1  0
 15 40  1  0
 16 41  1  0
 23 42  1  0
 24 43  1  0
M  ISO  8  26  13  27  13  28  13  29  13  30  13  31  13  32  13  33  13
M  ISO  8  34  13  35  13  36  14  37  14  38  14  39  14  40  14  41  14
M  ISO  2  42  14  43   9
M  END
>  <minimizedAffinity>  (1) 
-5.4129138

>  <minimizedRMSD>  (1) 
0.576058805

$$$$
