
     RDKit          3D

 30 32  0  0  0  0  0  0  0  0999 V2000
   46.6430   34.7670   42.0560 C   0  0  0  0  0  0  0  0  0  0  0  0
   47.9480   35.2420   42.0150 C   0  0  0  0  0  0  0  0  0  0  0  0
   48.6950   35.1040   40.8670 C   0  0  0  0  0  0  0  0  0  0  0  0
   48.1100   34.4870   39.7750 C   0  0  0  0  0  0  0  0  0  0  0  0
   46.8260   34.0040   39.7710 C   0  0  0  0  0  0  0  0  0  0  0  0
   46.1090   34.1710   40.9680 C   0  0  0  0  0  0  0  0  0  0  0  0
   44.4490   36.1420   44.8210 C   0  0  0  0  0  0  0  0  0  0  0  0
   45.0980   36.0480   43.5700 C   0  0  0  0  0  0  0  0  0  0  0  0
   45.9290   34.9560   43.3020 C   0  0  0  0  0  0  0  0  0  0  0  0
   46.0500   34.0490   44.2880 N   0  0  0  0  0  0  0  0  0  0  0  0
   45.4320   34.1320   45.4860 C   0  0  0  0  0  0  0  0  0  0  0  0
   44.6290   35.1860   45.7480 N   0  0  0  0  0  0  0  0  0  0  0  0
   44.7430   33.6570   40.9760 C   0  0  0  0  0  0  0  0  0  0  0  0
   43.7190   34.4630   40.4730 C   0  0  0  0  0  0  0  0  0  0  0  0
   42.3950   34.0380   40.4460 C   0  0  0  0  0  0  0  0  0  0  0  0
   42.0580   32.7700   40.9310 C   0  0  0  0  0  0  0  0  0  0  0  0
   43.0650   31.9490   41.4360 C   0  0  0  0  0  0  0  0  0  0  0  0
   44.3360   32.4230   41.4340 C   0  0  0  0  0  0  0  0  0  0  0  0
   48.3843   35.7284   42.8999 H   0  0  0  0  0  0  0  0  0  0  0  0
   49.7297   35.4744   40.8189 H   0  0  0  0  0  0  0  0  0  0  0  0
   48.7084   34.3777   38.8585 H   0  0  0  0  0  0  0  0  0  0  0  0
   46.3861   33.5175   38.8879 H   0  0  0  0  0  0  0  0  0  0  0  0
   43.7948   36.9996   45.0369 H   0  0  0  0  0  0  0  0  0  0  0  0
   44.9504   36.8299   42.8105 H   0  0  0  0  0  0  0  0  0  0  0  0
   45.5814   33.3474   46.2424 H   0  0  0  0  0  0  0  0  0  0  0  0
   43.9670   35.4628   40.0871 H   0  0  0  0  0  0  0  0  0  0  0  0
   41.6131   34.6988   40.0434 H   0  0  0  0  0  0  0  0  0  0  0  0
   41.0134   32.4257   40.9141 H   0  0  0  0  0  0  0  0  0  0  0  0
   42.8356   30.9459   41.8248 H   0  0  0  0  0  0  0  0  0  0  0  0
   45.1156   31.7593   41.8361 H   0  0  0  0  0  0  0  0  0  0  0  0
  1  9  1  0
  2  1  2  0
  3  2  1  0
  4  3  2  0
  5  4  1  0
  5  6  2  0
  6 13  1  0
  6  1  1  0
  7 12  2  0
  8  7  1  0
  9  8  2  0
  9 10  1  0
 10 11  2  0
 11 12  1  0
 13 18  1  0
 14 13  2  0
 15 14  1  0
 15 16  2  0
 16 17  1  0
 18 17  2  0
  2 19  1  0
  3 20  1  0
  4 21  1  0
  5 22  1  0
  7 23  1  0
  8 24  1  0
 11 25  1  0
 14 26  1  0
 15 27  1  0
 16 28  1  0
 17 29  1  0
 18 30  1  0
M  ISO  8  19  14  20  14  21  14  22  14  23  14  24  14  25  14  26  14
M  ISO  4  27  14  28  14  29  14  30  14
M  END
>  <minimizedAffinity>  (1) 
-5.73931265

>  <minimizedRMSD>  (1) 
0.767399609

$$$$
