
     RDKit          3D

 30 32  0  0  0  0  0  0  0  0999 V2000
   46.6540   34.7950   42.0540 C   0  0  0  0  0  0  0  0  0  0  0  0
   47.9740   35.2220   42.0380 C   0  0  0  0  0  0  0  0  0  0  0  0
   48.7550   35.0800   40.9050 C   0  0  0  0  0  0  0  0  0  0  0  0
   48.1640   34.4960   39.7970 C   0  0  0  0  0  0  0  0  0  0  0  0
   46.8440   34.0510   39.7610 C   0  0  0  0  0  0  0  0  0  0  0  0
   46.1310   34.2330   40.9440 C   0  0  0  0  0  0  0  0  0  0  0  0
   44.4420   36.1560   44.7950 C   0  0  0  0  0  0  0  0  0  0  0  0
   45.0990   36.0630   43.5540 C   0  0  0  0  0  0  0  0  0  0  0  0
   45.9290   34.9890   43.2880 C   0  0  0  0  0  0  0  0  0  0  0  0
   46.0620   34.0590   44.2760 N   0  0  0  0  0  0  0  0  0  0  0  0
   45.4230   34.1560   45.4750 C   0  0  0  0  0  0  0  0  0  0  0  0
   44.6120   35.2100   45.7290 N   0  0  0  0  0  0  0  0  0  0  0  0
   46.0410   31.4450   41.8500 Cl  0  0  0  0  0  0  0  0  0  0  0  0
   44.6690   32.4420   41.3430 C   0  0  0  0  0  0  0  0  0  0  0  0
   44.7500   33.7700   40.9160 C   0  0  0  0  0  0  0  0  0  0  0  0
   43.5840   34.4090   40.5540 C   0  0  0  0  0  0  0  0  0  0  0  0
   42.3940   33.7330   40.6230 C   0  0  0  0  0  0  0  0  0  0  0  0
   42.3090   32.4210   41.0450 C   0  0  0  0  0  0  0  0  0  0  0  0
   43.4560   31.7790   41.4060 C   0  0  0  0  0  0  0  0  0  0  0  0
   48.4060   35.6804   42.9398 H   0  0  0  0  0  0  0  0  0  0  0  0
   49.8019   35.4169   40.8850 H   0  0  0  0  0  0  0  0  0  0  0  0
   48.7741   34.3761   38.8896 H   0  0  0  0  0  0  0  0  0  0  0  0
   46.3988   33.5910   38.8665 H   0  0  0  0  0  0  0  0  0  0  0  0
   43.7832   37.0126   45.0002 H   0  0  0  0  0  0  0  0  0  0  0  0
   44.9523   36.8453   42.7947 H   0  0  0  0  0  0  0  0  0  0  0  0
   45.5661   33.3768   46.2381 H   0  0  0  0  0  0  0  0  0  0  0  0
   43.6083   35.4542   40.2121 H   0  0  0  0  0  0  0  0  0  0  0  0
   41.4711   34.2556   40.3310 H   0  0  0  0  0  0  0  0  0  0  0  0
   41.3381   31.9058   41.0888 H   0  0  0  0  0  0  0  0  0  0  0  0
   43.4174   30.7340   41.7474 H   0  0  0  0  0  0  0  0  0  0  0  0
  1  9  1  0
  2  1  2  0
  3  2  1  0
  4  3  2  0
  5  4  1  0
  5  6  2  0
  6  1  1  0
  7 12  2  0
  8  7  1  0
  9  8  2  0
  9 10  1  0
 10 11  2  0
 11 12  1  0
 14 19  2  0
 14 13  1  0
 15  6  1  0
 15 14  1  0
 16 17  1  0
 16 15  2  0
 17 18  2  0
 18 19  1  0
  2 20  1  0
  3 21  1  0
  4 22  1  0
  5 23  1  0
  7 24  1  0
  8 25  1  0
 11 26  1  0
 16 27  1  0
 17 28  1  0
 18 29  1  0
 19 30  1  0
M  ISO  8  20  14  21  14  22  14  23  14  24  14  25  14  26  14  27  14
M  ISO  3  28  14  29  14  30  14
M  END
>  <minimizedAffinity>  (1) 
-5.70418072

>  <minimizedRMSD>  (1) 
0.53009069

$$$$
