
     RDKit          3D

 36 38  0  0  0  0  0  0  0  0999 V2000
   46.6980   34.7860   42.0330 C   0  0  0  0  0  0  0  0  0  0  0  0
   47.9750   35.2730   41.9900 C   0  0  0  0  0  0  0  0  0  0  0  0
   48.7190   35.1530   40.8380 C   0  0  0  0  0  0  0  0  0  0  0  0
   48.1500   34.5390   39.7480 C   0  0  0  0  0  0  0  0  0  0  0  0
   46.8680   34.0350   39.7470 C   0  0  0  0  0  0  0  0  0  0  0  0
   46.1420   34.1750   40.9370 C   0  0  0  0  0  0  0  0  0  0  0  0
   44.4650   36.1210   44.7910 C   0  0  0  0  0  0  0  0  0  0  0  0
   45.1300   36.0480   43.5480 C   0  0  0  0  0  0  0  0  0  0  0  0
   45.9660   34.9510   43.2920 C   0  0  0  0  0  0  0  0  0  0  0  0
   46.0850   34.0220   44.2600 N   0  0  0  0  0  0  0  0  0  0  0  0
   45.4420   34.1020   45.4480 C   0  0  0  0  0  0  0  0  0  0  0  0
   44.6330   35.1480   45.7160 N   0  0  0  0  0  0  0  0  0  0  0  0
   44.7450   33.6810   41.0890 C   0  0  0  0  0  0  0  0  0  0  0  0
   43.7210   34.5990   40.4710 C   0  0  0  0  0  0  0  0  0  0  0  0
   42.6580   33.8500   39.7190 C   0  0  0  0  0  0  0  0  0  0  0  0
   42.2400   32.5580   40.3690 C   0  0  0  0  0  0  0  0  0  0  0  0
   43.3650   31.6350   40.7050 C   0  0  0  0  0  0  0  0  0  0  0  0
   44.6760   32.3300   40.4080 C   0  0  0  0  0  0  0  0  0  0  0  0
   48.4078   35.7607   42.8759 H   0  0  0  0  0  0  0  0  0  0  0  0
   49.7474   35.5404   40.7909 H   0  0  0  0  0  0  0  0  0  0  0  0
   48.7486   34.4453   38.8299 H   0  0  0  0  0  0  0  0  0  0  0  0
   46.4373   33.5486   38.8593 H   0  0  0  0  0  0  0  0  0  0  0  0
   43.8060   36.9744   45.0090 H   0  0  0  0  0  0  0  0  0  0  0  0
   44.9951   36.8372   42.7937 H   0  0  0  0  0  0  0  0  0  0  0  0
   45.5796   33.3102   46.1991 H   0  0  0  0  0  0  0  0  0  0  0  0
   44.5072   33.6269   42.1616 H   0  0  0  0  0  0  0  0  0  0  0  0
   43.2424   35.1832   41.2708 H   0  0  0  0  0  0  0  0  0  0  0  0
   44.2436   35.2488   39.7536 H   0  0  0  0  0  0  0  0  0  0  0  0
   43.0415   33.6226   38.7134 H   0  0  0  0  0  0  0  0  0  0  0  0
   41.7686   34.4969   39.6982 H   0  0  0  0  0  0  0  0  0  0  0  0
   41.7059   32.8000   41.2997 H   0  0  0  0  0  0  0  0  0  0  0  0
   41.6138   32.0297   39.6350 H   0  0  0  0  0  0  0  0  0  0  0  0
   43.3203   31.3718   41.7721 H   0  0  0  0  0  0  0  0  0  0  0  0
   43.2857   30.7172   40.1039 H   0  0  0  0  0  0  0  0  0  0  0  0
   45.5046   31.7031   40.7693 H   0  0  0  0  0  0  0  0  0  0  0  0
   44.7513   32.4829   39.3213 H   0  0  0  0  0  0  0  0  0  0  0  0
  1  9  1  0
  2  1  2  0
  3  2  1  0
  4  3  2  0
  5  4  1  0
  5  6  2  0
  6 13  1  0
  6  1  1  0
  7 12  2  0
  8  7  1  0
  9  8  2  0
  9 10  1  0
 10 11  2  0
 11 12  1  0
 14 13  1  0
 15 16  1  0
 15 14  1  0
 16 17  1  0
 18 17  1  0
 18 13  1  0
  2 19  1  0
  3 20  1  0
  4 21  1  0
  5 22  1  0
  7 23  1  0
  8 24  1  0
 11 25  1  0
 13 26  1  0
 14 27  1  0
 14 28  1  0
 15 29  1  0
 15 30  1  0
 16 31  1  0
 16 32  1  0
 17 33  1  0
 17 34  1  0
 18 35  1  0
 18 36  1  0
M  ISO  8  19  14  20  14  21  14  22  14  23  14  24  14  25  14  26  13
M  ISO  8  27  13  28  13  29  13  30  13  31  13  32  13  33  13  34  13
M  ISO  2  35  13  36  13
M  END
>  <minimizedAffinity>  (1) 
-5.63184452

>  <minimizedRMSD>  (1) 
0.75773114

$$$$
