
     RDKit          3D

 29 31  0  0  1  0  0  0  0  0999 V2000
   46.6850   34.7830   42.0260 C   0  0  0  0  0  0  0  0  0  0  0  0
   47.9510   35.2970   41.9740 C   0  0  0  0  0  0  0  0  0  0  0  0
   48.6980   35.1680   40.8230 C   0  0  0  0  0  0  0  0  0  0  0  0
   48.1450   34.5190   39.7450 C   0  0  0  0  0  0  0  0  0  0  0  0
   46.8790   33.9880   39.7510 C   0  0  0  0  0  0  0  0  0  0  0  0
   46.1450   34.1380   40.9420 C   0  0  0  0  0  0  0  0  0  0  0  0
   44.4660   36.0860   44.8040 C   0  0  0  0  0  0  0  0  0  0  0  0
   45.1160   36.0260   43.5570 C   0  0  0  0  0  0  0  0  0  0  0  0
   45.9530   34.9590   43.2830 C   0  0  0  0  0  0  0  0  0  0  0  0
   46.0980   34.0170   44.2520 N   0  0  0  0  0  0  0  0  0  0  0  0
   45.4730   34.0750   45.4500 C   0  0  0  0  0  0  0  0  0  0  0  0
   44.6490   35.1200   45.7260 N   0  0  0  0  0  0  0  0  0  0  0  0
   44.7610   33.6000   41.0600 C   0  0  0  0  0  0  0  0  0  0  0  0
   44.6530   32.2720   40.3690 C   0  0  0  0  0  0  0  0  0  0  0  0
   43.6000   32.3780   39.3100 C   0  0  0  0  0  0  0  0  0  0  0  0
   43.0430   33.7610   39.3410 C   0  0  0  0  0  0  0  0  0  0  0  0
   43.7150   34.4950   40.4790 C   0  0  0  0  0  0  0  0  0  0  0  0
   48.3726   35.8126   42.8494 H   0  0  0  0  0  0  0  0  0  0  0  0
   49.7177   35.5768   40.7681 H   0  0  0  0  0  0  0  0  0  0  0  0
   48.7479   34.4199   38.8303 H   0  0  0  0  0  0  0  0  0  0  0  0
   46.4614   33.4735   38.8730 H   0  0  0  0  0  0  0  0  0  0  0  0
   43.8001   36.9321   45.0290 H   0  0  0  0  0  0  0  0  0  0  0  0
   44.9604   36.8178   42.8094 H   0  0  0  0  0  0  0  0  0  0  0  0
   45.6305   33.2819   46.1958 H   0  0  0  0  0  0  0  0  0  0  0  0
   44.5780   33.5123   42.1411 H   0  0  0  0  0  0  0  0  0  0  0  0
   45.2458   31.3748   40.6008 H   0  0  0  0  0  0  0  0  0  0  0  0
   43.2903   31.5738   38.6264 H   0  0  0  0  0  0  0  0  0  0  0  0
   42.2826   34.1718   38.6605 H   0  0  0  0  0  0  0  0  0  0  0  0
   43.4752   35.5128   40.8205 H   0  0  0  0  0  0  0  0  0  0  0  0
  1  9  1  0
  2  1  2  0
  3  2  1  0
  4  5  1  0
  4  3  2  0
  5  6  2  0
  6  1  1  0
  7 12  2  0
  8  7  1  0
  9  8  2  0
  9 10  1  0
 10 11  2  0
 11 12  1  0
 13  6  1  0
 14 13  1  0
 15 16  1  0
 15 14  2  0
 16 17  2  0
 17 13  1  0
  2 18  1  0
  3 19  1  0
  4 20  1  0
  5 21  1  0
  7 22  1  0
  8 23  1  0
 11 24  1  0
 13 25  1  0
 14 26  1  0
 15 27  1  0
 16 28  1  0
 17 29  1  0
M  ISO  8  18  14  19  14  20  14  21  14  22  14  23  14  24  14  25  13
M  ISO  4  26  13  27  13  28  13  29  13
M  END
>  <minimizedAffinity>  (1) 
-5.51850796

>  <minimizedRMSD>  (1) 
1.47103238

$$$$
