
     RDKit          3D

 22 23  0  0  0  0  0  0  0  0999 V2000
   46.7080   34.7590   42.0060 C   0  0  0  0  0  0  0  0  0  0  0  0
   47.9580   35.3510   41.9250 C   0  0  0  0  0  0  0  0  0  0  0  0
   48.7270   35.2530   40.7860 C   0  0  0  0  0  0  0  0  0  0  0  0
   48.1990   34.5400   39.7220 C   0  0  0  0  0  0  0  0  0  0  0  0
   46.9540   33.9250   39.7400 C   0  0  0  0  0  0  0  0  0  0  0  0
   46.2530   34.0780   40.9310 C   0  0  0  0  0  0  0  0  0  0  0  0
   44.4680   36.0200   44.7700 C   0  0  0  0  0  0  0  0  0  0  0  0
   45.1170   35.9700   43.5180 C   0  0  0  0  0  0  0  0  0  0  0  0
   45.9810   34.9230   43.2500 C   0  0  0  0  0  0  0  0  0  0  0  0
   46.1540   33.9930   44.2260 N   0  0  0  0  0  0  0  0  0  0  0  0
   45.5360   34.0320   45.4260 C   0  0  0  0  0  0  0  0  0  0  0  0
   44.6850   35.0610   45.6950 N   0  0  0  0  0  0  0  0  0  0  0  0
   44.9390   33.4490   40.9940 C   0  0  0  0  0  0  0  0  0  0  0  0
   43.8870   33.9810   40.5070 O   0  0  0  0  0  0  0  0  0  0  0  0
   48.3449   35.9114   42.7888 H   0  0  0  0  0  0  0  0  0  0  0  0
   49.7201   35.7220   40.7240 H   0  0  0  0  0  0  0  0  0  0  0  0
   48.8031   34.4558   38.8066 H   0  0  0  0  0  0  0  0  0  0  0  0
   46.5552   33.3631   38.8826 H   0  0  0  0  0  0  0  0  0  0  0  0
   43.7791   36.8478   44.9942 H   0  0  0  0  0  0  0  0  0  0  0  0
   44.9386   36.7524   42.7657 H   0  0  0  0  0  0  0  0  0  0  0  0
   45.7168   33.2459   46.1739 H   0  0  0  0  0  0  0  0  0  0  0  0
   44.8508   32.4687   41.4851 H   0  0  0  0  0  0  0  0  0  0  0  0
  1  9  1  0
  2  1  2  0
  3  2  1  0
  4  5  1  0
  4  3  2  0
  5  6  2  0
  6 13  1  0
  6  1  1  0
  7 12  2  0
  8  7  1  0
  9  8  2  0
  9 10  1  0
 10 11  2  0
 11 12  1  0
 14 13  2  0
  2 15  1  0
  3 16  1  0
  4 17  1  0
  5 18  1  0
  7 19  1  0
  8 20  1  0
 11 21  1  0
 13 22  1  0
M  ISO  8  15  14  16  14  17  14  18  14  19  14  20  14  21  14  22   6
M  END
>  <minimizedAffinity>  (1) 
-5.03221703

>  <minimizedRMSD>  (1) 
0.280484676

$$$$
