
     RDKit          3D

 24 25  0  0  0  0  0  0  0  0999 V2000
   46.6820   34.7580   41.9800 C   0  0  0  0  0  0  0  0  0  0  0  0
   47.9310   35.3530   41.8970 C   0  0  0  0  0  0  0  0  0  0  0  0
   48.6680   35.2000   40.7300 C   0  0  0  0  0  0  0  0  0  0  0  0
   48.1510   34.4690   39.6870 C   0  0  0  0  0  0  0  0  0  0  0  0
   46.9200   33.8680   39.7340 C   0  0  0  0  0  0  0  0  0  0  0  0
   46.2180   34.0500   40.9270 C   0  0  0  0  0  0  0  0  0  0  0  0
   44.5070   36.1190   44.7500 C   0  0  0  0  0  0  0  0  0  0  0  0
   45.1600   36.0470   43.5010 C   0  0  0  0  0  0  0  0  0  0  0  0
   45.9570   34.9520   43.2250 C   0  0  0  0  0  0  0  0  0  0  0  0
   46.0640   33.9960   44.1930 N   0  0  0  0  0  0  0  0  0  0  0  0
   45.4370   34.0720   45.3850 C   0  0  0  0  0  0  0  0  0  0  0  0
   44.6490   35.1470   45.6660 N   0  0  0  0  0  0  0  0  0  0  0  0
   43.5890   33.8510   40.7940 C   0  0  0  0  0  0  0  0  0  0  0  0
   43.2280   34.8880   40.2180 O   0  0  0  0  0  0  0  0  0  0  0  0
   44.9260   33.4780   41.1100 N   0  0  0  0  0  0  0  0  0  0  0  0
   48.3311   35.9356   42.7399 H   0  0  0  0  0  0  0  0  0  0  0  0
   49.6622   35.6622   40.6406 H   0  0  0  0  0  0  0  0  0  0  0  0
   48.7529   34.3614   38.7726 H   0  0  0  0  0  0  0  0  0  0  0  0
   46.5150   33.2852   38.8936 H   0  0  0  0  0  0  0  0  0  0  0  0
   43.8703   36.9867   44.9774 H   0  0  0  0  0  0  0  0  0  0  0  0
   45.0367   36.8496   42.7589 H   0  0  0  0  0  0  0  0  0  0  0  0
   45.5615   33.2694   46.1268 H   0  0  0  0  0  0  0  0  0  0  0  0
   42.7963   33.1485   41.0907 H   0  0  0  0  0  0  0  0  0  0  0  0
   44.9704   32.5681   41.5906 H   0  0  0  0  0  0  0  0  0  0  0  0
  1  9  1  0
  2  1  2  0
  3  2  1  0
  4  5  1  0
  4  3  2  0
  5  6  2  0
  6 15  1  0
  6  1  1  0
  7 12  2  0
  8  7  1  0
  9  8  2  0
  9 10  1  0
 10 11  2  0
 11 12  1  0
 13 15  1  0
 14 13  2  0
  2 16  1  0
  3 17  1  0
  4 18  1  0
  5 19  1  0
  7 20  1  0
  8 21  1  0
 11 22  1  0
 13 23  1  0
 15 24  1  0
M  ISO  8  16  14  17  14  18  14  19  14  20  14  21  14  22  14  23   6
M  END
>  <minimizedAffinity>  (1) 
-5.23504686

>  <minimizedRMSD>  (1) 
0.400645137

$$$$
