
     RDKit          3D

 39 41  0  0  0  0  0  0  0  0999 V2000
   46.5920   34.7350   42.0000 C   0  0  0  0  0  0  0  0  0  0  0  0
   47.8770   35.2470   41.9170 C   0  0  0  0  0  0  0  0  0  0  0  0
   48.5840   35.0490   40.7380 C   0  0  0  0  0  0  0  0  0  0  0  0
   48.0040   34.3610   39.6970 C   0  0  0  0  0  0  0  0  0  0  0  0
   46.7400   33.8480   39.7580 C   0  0  0  0  0  0  0  0  0  0  0  0
   46.0500   34.0610   40.9520 C   0  0  0  0  0  0  0  0  0  0  0  0
   43.4290   34.1090   40.9460 C   0  0  0  0  0  0  0  0  0  0  0  0
   43.1350   35.2390   40.5520 O   0  0  0  0  0  0  0  0  0  0  0  0
   44.7290   33.5840   41.1560 N   0  0  0  0  0  0  0  0  0  0  0  0
   42.3100   33.2680   41.2080 N   0  0  0  0  0  0  0  0  0  0  0  0
   42.6960   31.9650   41.6630 C   0  0  0  0  0  0  0  0  0  0  0  0
   41.6130   31.1950   42.3460 C   0  0  0  0  0  0  0  0  0  0  0  0
   40.2750   31.4200   41.7250 C   0  0  0  0  0  0  0  0  0  0  0  0
   39.9120   32.8730   41.6000 C   0  0  0  0  0  0  0  0  0  0  0  0
   40.9560   33.7310   41.0190 C   0  0  0  0  0  0  0  0  0  0  0  0
   44.5100   36.1990   44.7990 C   0  0  0  0  0  0  0  0  0  0  0  0
   45.1450   36.0890   43.5380 C   0  0  0  0  0  0  0  0  0  0  0  0
   45.8920   34.9690   43.2560 C   0  0  0  0  0  0  0  0  0  0  0  0
   45.9720   34.0210   44.2350 N   0  0  0  0  0  0  0  0  0  0  0  0
   45.3670   34.1270   45.4340 C   0  0  0  0  0  0  0  0  0  0  0  0
   44.6300   35.2270   45.7180 N   0  0  0  0  0  0  0  0  0  0  0  0
   48.3240   35.7942   42.7601 H   0  0  0  0  0  0  0  0  0  0  0  0
   49.6065   35.4418   40.6365 H   0  0  0  0  0  0  0  0  0  0  0  0
   48.5849   34.2178   38.7739 H   0  0  0  0  0  0  0  0  0  0  0  0
   46.2924   33.2995   38.9161 H   0  0  0  0  0  0  0  0  0  0  0  0
   44.7104   32.6322   41.5492 H   0  0  0  0  0  0  0  0  0  0  0  0
   43.0323   31.3837   40.7918 H   0  0  0  0  0  0  0  0  0  0  0  0
   43.4866   32.1195   42.4121 H   0  0  0  0  0  0  0  0  0  0  0  0
   41.8526   30.1229   42.2895 H   0  0  0  0  0  0  0  0  0  0  0  0
   41.5611   31.5427   43.3883 H   0  0  0  0  0  0  0  0  0  0  0  0
   40.2776   30.9735   40.7197 H   0  0  0  0  0  0  0  0  0  0  0  0
   39.5282   30.9542   42.3848 H   0  0  0  0  0  0  0  0  0  0  0  0
   39.0176   32.9469   40.9639 H   0  0  0  0  0  0  0  0  0  0  0  0
   39.7527   33.2375   42.6256 H   0  0  0  0  0  0  0  0  0  0  0  0
   40.8705   34.7276   41.4766 H   0  0  0  0  0  0  0  0  0  0  0  0
   40.7823   33.7287   39.9328 H   0  0  0  0  0  0  0  0  0  0  0  0
   43.9106   37.0923   45.0288 H   0  0  0  0  0  0  0  0  0  0  0  0
   45.0419   36.8907   42.7919 H   0  0  0  0  0  0  0  0  0  0  0  0
   45.4711   33.3240   46.1786 H   0  0  0  0  0  0  0  0  0  0  0  0
  1 18  1  0
  2  1  2  0
  3  2  1  0
  4  5  1  0
  4  3  2  0
  5  6  2  0
  6  9  1  0
  6  1  1  0
  7  9  1  0
  7 10  1  0
  8  7  2  0
 10 11  1  0
 11 12  1  0
 13 12  1  0
 14 13  1  0
 15 10  1  0
 15 14  1  0
 16 21  2  0
 17 16  1  0
 18 17  2  0
 18 19  1  0
 19 20  2  0
 20 21  1  0
  2 22  1  0
  3 23  1  0
  4 24  1  0
  5 25  1  0
  9 26  1  0
 11 27  1  0
 11 28  1  0
 12 29  1  0
 12 30  1  0
 13 31  1  0
 13 32  1  0
 14 33  1  0
 14 34  1  0
 15 35  1  0
 15 36  1  0
 16 37  1  0
 17 38  1  0
 20 39  1  0
M  ISO  8  22  14  23  14  24  14  25  14  27  13  28  13  29  13  30  13
M  ISO  8  31  13  32  13  33  13  34  13  35  13  36  13  37  14  38  14
M  ISO  1  39  14
M  END
>  <minimizedAffinity>  (1) 
-6.61210918

>  <minimizedRMSD>  (1) 
0.31311208

$$$$
