
     RDKit          3D

 38 40  0  0  0  0  0  0  0  0999 V2000
   46.5900   34.7460   42.0020 C   0  0  0  0  0  0  0  0  0  0  0  0
   47.8900   35.2450   41.9280 C   0  0  0  0  0  0  0  0  0  0  0  0
   48.6060   35.0560   40.7570 C   0  0  0  0  0  0  0  0  0  0  0  0
   48.0330   34.3910   39.7050 C   0  0  0  0  0  0  0  0  0  0  0  0
   46.7630   33.8910   39.7470 C   0  0  0  0  0  0  0  0  0  0  0  0
   46.0610   34.0940   40.9380 C   0  0  0  0  0  0  0  0  0  0  0  0
   43.4350   34.1010   40.8060 C   0  0  0  0  0  0  0  0  0  0  0  0
   43.1820   35.1750   40.2150 O   0  0  0  0  0  0  0  0  0  0  0  0
   44.7350   33.6230   41.1120 N   0  0  0  0  0  0  0  0  0  0  0  0
   42.3910   33.2050   41.2530 N   0  0  0  0  0  0  0  0  0  0  0  0
   42.3150   31.8130   41.7040 C   0  0  0  0  0  0  0  0  0  0  0  0
   41.3380   31.0130   40.9190 C   0  0  0  0  0  0  0  0  0  0  0  0
   40.5320   31.7250   39.9880 N   0  0  0  0  0  0  0  0  0  0  0  0
   40.0620   32.9980   40.4590 C   0  0  0  0  0  0  0  0  0  0  0  0
   41.0550   33.7330   41.2960 C   0  0  0  0  0  0  0  0  0  0  0  0
   44.4980   36.1930   44.7810 C   0  0  0  0  0  0  0  0  0  0  0  0
   45.1300   36.0860   43.5280 C   0  0  0  0  0  0  0  0  0  0  0  0
   45.8890   34.9740   43.2510 C   0  0  0  0  0  0  0  0  0  0  0  0
   45.9850   34.0210   44.2300 N   0  0  0  0  0  0  0  0  0  0  0  0
   45.3810   34.1180   45.4310 C   0  0  0  0  0  0  0  0  0  0  0  0
   44.6230   35.2270   45.7100 N   0  0  0  0  0  0  0  0  0  0  0  0
   48.3372   35.7770   42.7806 H   0  0  0  0  0  0  0  0  0  0  0  0
   49.6335   35.4395   40.6720 H   0  0  0  0  0  0  0  0  0  0  0  0
   48.6219   34.2538   38.7861 H   0  0  0  0  0  0  0  0  0  0  0  0
   46.3184   33.3593   38.8928 H   0  0  0  0  0  0  0  0  0  0  0  0
   44.7093   32.7042   41.5767 H   0  0  0  0  0  0  0  0  0  0  0  0
   43.3096   31.3543   41.6020 H   0  0  0  0  0  0  0  0  0  0  0  0
   41.9779   31.8187   42.7511 H   0  0  0  0  0  0  0  0  0  0  0  0
   41.9028   30.2534   40.3586 H   0  0  0  0  0  0  0  0  0  0  0  0
   40.6340   30.6073   41.6604 H   0  0  0  0  0  0  0  0  0  0  0  0
   39.7128   31.1435   39.7609 H   0  0  0  0  0  0  0  0  0  0  0  0
   39.8145   33.6209   39.5868 H   0  0  0  0  0  0  0  0  0  0  0  0
   39.1876   32.8014   41.0968 H   0  0  0  0  0  0  0  0  0  0  0  0
   40.7097   33.7045   42.3400 H   0  0  0  0  0  0  0  0  0  0  0  0
   41.1122   34.7514   40.8841 H   0  0  0  0  0  0  0  0  0  0  0  0
   43.8908   37.0824   45.0052 H   0  0  0  0  0  0  0  0  0  0  0  0
   45.0178   36.8834   42.7787 H   0  0  0  0  0  0  0  0  0  0  0  0
   45.4943   33.3184   46.1778 H   0  0  0  0  0  0  0  0  0  0  0  0
  1 18  1  0
  2  1  2  0
  3  2  1  0
  4  5  1  0
  4  3  2  0
  5  6  2  0
  6  9  1  0
  6  1  1  0
  7  9  1  0
  7 10  1  0
  8  7  2  0
 10 15  1  0
 10 11  1  0
 12 11  1  0
 13 14  1  0
 13 12  1  0
 14 15  1  0
 16 21  2  0
 17 16  1  0
 18 17  2  0
 18 19  1  0
 19 20  2  0
 20 21  1  0
  2 22  1  0
  3 23  1  0
  4 24  1  0
  5 25  1  0
  9 26  1  0
 11 27  1  0
 11 28  1  0
 12 29  1  0
 12 30  1  0
 13 31  1  0
 14 32  1  0
 14 33  1  0
 15 34  1  0
 15 35  1  0
 16 36  1  0
 17 37  1  0
 20 38  1  0
M  ISO  8  22  14  23  14  24  14  25  14  27  13  28  13  29  13  30  13
M  ISO  8  31   5  32  13  33  13  34  13  35  13  36  14  37  14  38  14
M  END
>  <minimizedAffinity>  (1) 
-6.36586809

>  <minimizedRMSD>  (1) 
0.308348805

$$$$
