
     RDKit          3D

 35 37  0  0  0  0  0  0  0  0999 V2000
   46.6790   34.7900   41.9780 C   0  0  0  0  0  0  0  0  0  0  0  0
   48.0040   35.2140   41.9940 C   0  0  0  0  0  0  0  0  0  0  0  0
   48.7530   35.0300   40.8370 C   0  0  0  0  0  0  0  0  0  0  0  0
   48.1910   34.4540   39.7380 C   0  0  0  0  0  0  0  0  0  0  0  0
   46.8930   34.0330   39.7050 C   0  0  0  0  0  0  0  0  0  0  0  0
   46.1320   34.2170   40.8730 C   0  0  0  0  0  0  0  0  0  0  0  0
   44.5320   36.2230   44.7320 C   0  0  0  0  0  0  0  0  0  0  0  0
   45.2070   36.1330   43.4890 C   0  0  0  0  0  0  0  0  0  0  0  0
   45.9360   35.0070   43.2210 C   0  0  0  0  0  0  0  0  0  0  0  0
   45.9690   34.0300   44.1750 N   0  0  0  0  0  0  0  0  0  0  0  0
   45.3300   34.1120   45.3560 C   0  0  0  0  0  0  0  0  0  0  0  0
   44.5990   35.2260   45.6380 N   0  0  0  0  0  0  0  0  0  0  0  0
   43.5400   34.4500   40.8270 C   0  0  0  0  0  0  0  0  0  0  0  0
   43.3610   35.6240   40.5480 O   0  0  0  0  0  0  0  0  0  0  0  0
   44.7840   33.8200   40.9970 N   0  0  0  0  0  0  0  0  0  0  0  0
   42.3960   33.6650   40.9910 O   0  0  0  0  0  0  0  0  0  0  0  0
   40.1310   34.6120   42.1130 F   0  0  0  0  0  0  0  0  0  0  0  0
   40.1730   34.3330   40.7780 C   0  0  0  0  0  0  0  0  0  0  0  0
   41.2930   33.8540   40.1690 C   0  0  0  0  0  0  0  0  0  0  0  0
   41.3850   33.5560   38.8210 C   0  0  0  0  0  0  0  0  0  0  0  0
   40.2430   33.7750   38.0820 C   0  0  0  0  0  0  0  0  0  0  0  0
   39.0920   34.2590   38.6700 C   0  0  0  0  0  0  0  0  0  0  0  0
   39.0330   34.5470   40.0180 C   0  0  0  0  0  0  0  0  0  0  0  0
   48.4432   35.6780   42.8895 H   0  0  0  0  0  0  0  0  0  0  0  0
   49.8047   35.3512   40.8091 H   0  0  0  0  0  0  0  0  0  0  0  0
   48.8099   34.3224   38.8382 H   0  0  0  0  0  0  0  0  0  0  0  0
   46.4616   33.5705   38.8050 H   0  0  0  0  0  0  0  0  0  0  0  0
   43.9425   37.1227   44.9621 H   0  0  0  0  0  0  0  0  0  0  0  0
   45.1460   36.9508   42.7558 H   0  0  0  0  0  0  0  0  0  0  0  0
   45.3970   33.2903   46.0842 H   0  0  0  0  0  0  0  0  0  0  0  0
   44.6895   32.8339   41.2792 H   0  0  0  0  0  0  0  0  0  0  0  0
   42.3101   33.1693   38.3686 H   0  0  0  0  0  0  0  0  0  0  0  0
   40.2487   33.5601   37.0032 H   0  0  0  0  0  0  0  0  0  0  0  0
   38.1989   34.4192   38.0481 H   0  0  0  0  0  0  0  0  0  0  0  0
   38.1106   34.9342   40.4755 H   0  0  0  0  0  0  0  0  0  0  0  0
  1  2  2  0
  1  9  1  0
  3  2  1  0
  4  3  2  0
  5  4  1  0
  5  6  2  0
  6 15  1  0
  6  1  1  0
  7 12  2  0
  8  7  1  0
  9  8  2  0
  9 10  1  0
 10 11  2  0
 11 12  1  0
 13 16  1  0
 13 15  1  0
 14 13  2  0
 18 17  1  0
 19 18  2  0
 19 16  1  0
 20 19  1  0
 21 22  1  0
 21 20  2  0
 22 23  2  0
 23 18  1  0
  2 24  1  0
  3 25  1  0
  4 26  1  0
  5 27  1  0
  7 28  1  0
  8 29  1  0
 11 30  1  0
 15 31  1  0
 20 32  1  0
 21 33  1  0
 22 34  1  0
 23 35  1  0
M  ISO  8  24  14  25  14  26  14  27  14  28  14  29  14  30  14  32  14
M  ISO  3  33  14  34  14  35  14
M  END
>  <minimizedAffinity>  (1) 
-7.04607153

>  <minimizedRMSD>  (1) 
1.1950618

$$$$
