
     RDKit          3D

 34 36  0  0  0  0  0  0  0  0999 V2000
   46.6410   34.7740   41.9820 C   0  0  0  0  0  0  0  0  0  0  0  0
   47.9580   35.2110   41.9580 C   0  0  0  0  0  0  0  0  0  0  0  0
   48.6830   35.0190   40.7990 C   0  0  0  0  0  0  0  0  0  0  0  0
   48.1150   34.4150   39.7160 C   0  0  0  0  0  0  0  0  0  0  0  0
   46.8210   33.9770   39.7140 C   0  0  0  0  0  0  0  0  0  0  0  0
   46.0810   34.1720   40.8930 C   0  0  0  0  0  0  0  0  0  0  0  0
   44.5310   36.2220   44.7520 C   0  0  0  0  0  0  0  0  0  0  0  0
   45.1890   36.1260   43.5020 C   0  0  0  0  0  0  0  0  0  0  0  0
   45.9160   35.0000   43.2320 C   0  0  0  0  0  0  0  0  0  0  0  0
   45.9620   34.0310   44.1940 N   0  0  0  0  0  0  0  0  0  0  0  0
   45.3340   34.1260   45.3830 C   0  0  0  0  0  0  0  0  0  0  0  0
   44.6100   35.2360   45.6650 N   0  0  0  0  0  0  0  0  0  0  0  0
   43.4850   34.3830   40.8670 C   0  0  0  0  0  0  0  0  0  0  0  0
   43.2920   35.5470   40.5520 O   0  0  0  0  0  0  0  0  0  0  0  0
   44.7370   33.7680   41.0450 N   0  0  0  0  0  0  0  0  0  0  0  0
   42.3500   33.5940   41.0670 O   0  0  0  0  0  0  0  0  0  0  0  0
   41.2050   33.8980   40.3430 C   0  0  0  0  0  0  0  0  0  0  0  0
   40.0090   34.4520   40.7610 C   0  0  0  0  0  0  0  0  0  0  0  0
   39.0240   34.6540   39.8330 C   0  0  0  0  0  0  0  0  0  0  0  0
   39.1990   34.3210   38.5150 C   0  0  0  0  0  0  0  0  0  0  0  0
   40.4040   33.7650   38.1100 C   0  0  0  0  0  0  0  0  0  0  0  0
   41.3410   33.5830   39.0320 N   0  0  0  0  0  0  0  0  0  0  0  0
   48.4104   35.6956   42.8358 H   0  0  0  0  0  0  0  0  0  0  0  0
   49.7288   35.3564   40.7484 H   0  0  0  0  0  0  0  0  0  0  0  0
   48.7221   34.2752   38.8094 H   0  0  0  0  0  0  0  0  0  0  0  0
   46.3785   33.4939   38.8303 H   0  0  0  0  0  0  0  0  0  0  0  0
   43.9422   37.1222   44.9821 H   0  0  0  0  0  0  0  0  0  0  0  0
   45.1169   36.9391   42.7646 H   0  0  0  0  0  0  0  0  0  0  0  0
   45.4086   33.3103   46.1172 H   0  0  0  0  0  0  0  0  0  0  0  0
   44.6536   32.7913   41.3612 H   0  0  0  0  0  0  0  0  0  0  0  0
   39.8530   34.7241   41.8153 H   0  0  0  0  0  0  0  0  0  0  0  0
   38.0681   35.0945   40.1526 H   0  0  0  0  0  0  0  0  0  0  0  0
   38.3930   34.4926   37.7863 H   0  0  0  0  0  0  0  0  0  0  0  0
   40.5768   33.4846   37.0605 H   0  0  0  0  0  0  0  0  0  0  0  0
  1  9  1  0
  2  1  2  0
  3  2  1  0
  4  3  2  0
  5  4  1  0
  5  6  2  0
  6 15  1  0
  6  1  1  0
  7 12  2  0
  8  7  1  0
  9  8  2  0
  9 10  1  0
 10 11  2  0
 11 12  1  0
 13 15  1  0
 13 16  1  0
 14 13  2  0
 17 18  2  0
 17 16  1  0
 19 18  1  0
 20 19  2  0
 21 20  1  0
 21 22  2  0
 22 17  1  0
  2 23  1  0
  3 24  1  0
  4 25  1  0
  5 26  1  0
  7 27  1  0
  8 28  1  0
 11 29  1  0
 15 30  1  0
 18 31  1  0
 19 32  1  0
 20 33  1  0
 21 34  1  0
M  ISO  8  23  14  24  14  25  14  26  14  27  14  28  14  29  14  31  14
M  ISO  3  32  14  33  14  34  14
M  END
>  <minimizedAffinity>  (1) 
-6.78500366

>  <minimizedRMSD>  (1) 
0.88453716

$$$$
