
     RDKit          3D

 41 43  0  0  0  0  0  0  0  0999 V2000
   46.5010   34.6960   41.9950 C   0  0  0  0  0  0  0  0  0  0  0  0
   47.8290   35.1020   41.9170 C   0  0  0  0  0  0  0  0  0  0  0  0
   48.5180   34.8820   40.7400 C   0  0  0  0  0  0  0  0  0  0  0  0
   47.8950   34.2790   39.6840 C   0  0  0  0  0  0  0  0  0  0  0  0
   46.5790   33.8640   39.7260 C   0  0  0  0  0  0  0  0  0  0  0  0
   45.8980   34.0970   40.9330 C   0  0  0  0  0  0  0  0  0  0  0  0
   44.5010   36.2590   44.7880 C   0  0  0  0  0  0  0  0  0  0  0  0
   45.1190   36.0960   43.5330 C   0  0  0  0  0  0  0  0  0  0  0  0
   45.8260   34.9560   43.2630 C   0  0  0  0  0  0  0  0  0  0  0  0
   45.8870   34.0300   44.2420 N   0  0  0  0  0  0  0  0  0  0  0  0
   45.2990   34.1740   45.4460 C   0  0  0  0  0  0  0  0  0  0  0  0
   44.5970   35.3000   45.7250 N   0  0  0  0  0  0  0  0  0  0  0  0
   43.3030   34.3070   40.8520 C   0  0  0  0  0  0  0  0  0  0  0  0
   43.1120   35.4040   40.3530 O   0  0  0  0  0  0  0  0  0  0  0  0
   44.5510   33.7210   41.1280 N   0  0  0  0  0  0  0  0  0  0  0  0
   42.1600   33.5720   41.1780 O   0  0  0  0  0  0  0  0  0  0  0  0
   41.6750   32.6300   40.2540 C   0  0  0  0  0  0  0  0  0  0  0  0
   41.0570   31.5080   41.0500 C   0  0  0  0  0  0  0  0  0  0  0  0
   39.7590   31.8490   41.7000 C   0  0  0  0  0  0  0  0  0  0  0  0
   38.8400   32.7070   40.8970 C   0  0  0  0  0  0  0  0  0  0  0  0
   39.6170   33.9010   40.3800 C   0  0  0  0  0  0  0  0  0  0  0  0
   40.6220   33.3230   39.3860 C   0  0  0  0  0  0  0  0  0  0  0  0
   48.3197   35.5875   42.7734 H   0  0  0  0  0  0  0  0  0  0  0  0
   49.5696   35.1927   40.6528 H   0  0  0  0  0  0  0  0  0  0  0  0
   48.4677   34.1170   38.7589 H   0  0  0  0  0  0  0  0  0  0  0  0
   46.0926   33.3800   38.8663 H   0  0  0  0  0  0  0  0  0  0  0  0
   43.9356   37.1778   45.0030 H   0  0  0  0  0  0  0  0  0  0  0  0
   45.0334   36.8843   42.7706 H   0  0  0  0  0  0  0  0  0  0  0  0
   45.3884   33.3793   46.2013 H   0  0  0  0  0  0  0  0  0  0  0  0
   44.4614   32.7994   41.5792 H   0  0  0  0  0  0  0  0  0  0  0  0
   42.4674   32.2312   39.6036 H   0  0  0  0  0  0  0  0  0  0  0  0
   40.8882   30.6587   40.3716 H   0  0  0  0  0  0  0  0  0  0  0  0
   41.7615   31.2779   41.8629 H   0  0  0  0  0  0  0  0  0  0  0  0
   39.2348   30.9079   41.9226 H   0  0  0  0  0  0  0  0  0  0  0  0
   40.0160   32.4379   42.5928 H   0  0  0  0  0  0  0  0  0  0  0  0
   38.4410   32.1301   40.0497 H   0  0  0  0  0  0  0  0  0  0  0  0
   38.0026   33.0478   41.5236 H   0  0  0  0  0  0  0  0  0  0  0  0
   38.9437   34.6120   39.8788 H   0  0  0  0  0  0  0  0  0  0  0  0
   40.1124   34.4529   41.1924 H   0  0  0  0  0  0  0  0  0  0  0  0
   41.0796   34.1243   38.7872 H   0  0  0  0  0  0  0  0  0  0  0  0
   40.1502   32.6308   38.6731 H   0  0  0  0  0  0  0  0  0  0  0  0
  1  9  1  0
  2  1  2  0
  3  2  1  0
  4  5  1  0
  4  3  2  0
  5  6  2  0
  6 15  1  0
  6  1  1  0
  7 12  2  0
  8  7  1  0
  9  8  2  0
  9 10  1  0
 10 11  2  0
 11 12  1  0
 13 15  1  0
 13 16  1  0
 14 13  2  0
 17 18  1  0
 17 16  1  0
 18 19  1  0
 20 19  1  0
 21 20  1  0
 22 17  1  0
 22 21  1  0
  2 23  1  0
  3 24  1  0
  4 25  1  0
  5 26  1  0
  7 27  1  0
  8 28  1  0
 11 29  1  0
 15 30  1  0
 17 31  1  0
 18 32  1  0
 18 33  1  0
 19 34  1  0
 19 35  1  0
 20 36  1  0
 20 37  1  0
 21 38  1  0
 21 39  1  0
 22 40  1  0
 22 41  1  0
M  ISO  8  23  14  24  14  25  14  26  14  27  14  28  14  29  14  31  13
M  ISO  8  32  13  33  13  34  13  35  13  36  13  37  13  38  13  39  13
M  ISO  2  40  13  41  13
M  END
>  <minimizedAffinity>  (1) 
-6.22624588

>  <minimizedRMSD>  (1) 
1.50359917

$$$$
