
     RDKit          3D

 31 32  0  0  0  0  0  0  0  0999 V2000
   46.6170   34.7610   42.0000 C   0  0  0  0  0  0  0  0  0  0  0  0
   47.9140   35.2480   41.9440 C   0  0  0  0  0  0  0  0  0  0  0  0
   48.6370   35.0640   40.7790 C   0  0  0  0  0  0  0  0  0  0  0  0
   48.0720   34.4200   39.7260 C   0  0  0  0  0  0  0  0  0  0  0  0
   46.7980   33.9290   39.7490 C   0  0  0  0  0  0  0  0  0  0  0  0
   46.0660   34.1170   40.9340 C   0  0  0  0  0  0  0  0  0  0  0  0
   44.5060   36.2010   44.7750 C   0  0  0  0  0  0  0  0  0  0  0  0
   45.1530   36.0920   43.5230 C   0  0  0  0  0  0  0  0  0  0  0  0
   45.9060   34.9830   43.2520 C   0  0  0  0  0  0  0  0  0  0  0  0
   45.9780   34.0460   44.2250 N   0  0  0  0  0  0  0  0  0  0  0  0
   45.3710   34.1290   45.4240 C   0  0  0  0  0  0  0  0  0  0  0  0
   44.6210   35.2280   45.7030 N   0  0  0  0  0  0  0  0  0  0  0  0
   43.4600   34.1500   40.8280 C   0  0  0  0  0  0  0  0  0  0  0  0
   43.2180   35.2430   40.3410 O   0  0  0  0  0  0  0  0  0  0  0  0
   44.7450   33.6520   41.1100 N   0  0  0  0  0  0  0  0  0  0  0  0
   42.3790   33.3200   41.1340 O   0  0  0  0  0  0  0  0  0  0  0  0
   41.1530   33.5310   40.5050 C   0  0  0  0  0  0  0  0  0  0  0  0
   40.1690   34.0190   41.5660 C   0  0  0  0  0  0  0  0  0  0  0  0
   48.3576   35.7684   42.8056 H   0  0  0  0  0  0  0  0  0  0  0  0
   49.6685   35.4391   40.7060 H   0  0  0  0  0  0  0  0  0  0  0  0
   48.6684   34.2875   38.8113 H   0  0  0  0  0  0  0  0  0  0  0  0
   46.3649   33.4106   38.8808 H   0  0  0  0  0  0  0  0  0  0  0  0
   43.8999   37.0919   44.9961 H   0  0  0  0  0  0  0  0  0  0  0  0
   45.0518   36.8913   42.7741 H   0  0  0  0  0  0  0  0  0  0  0  0
   45.4799   33.3225   46.1641 H   0  0  0  0  0  0  0  0  0  0  0  0
   44.7145   32.7223   41.5523 H   0  0  0  0  0  0  0  0  0  0  0  0
   41.2615   34.2901   39.7163 H   0  0  0  0  0  0  0  0  0  0  0  0
   40.7916   32.6017   40.0405 H   0  0  0  0  0  0  0  0  0  0  0  0
   40.5783   33.8160   42.5667 H   0  0  0  0  0  0  0  0  0  0  0  0
   40.0090   35.1009   41.4478 H   0  0  0  0  0  0  0  0  0  0  0  0
   39.2109   33.4916   41.4478 H   0  0  0  0  0  0  0  0  0  0  0  0
  1  9  1  0
  2  1  2  0
  3  2  1  0
  4  5  1  0
  4  3  2  0
  5  6  2  0
  6 15  1  0
  6  1  1  0
  7 12  2  0
  8  7  1  0
  9  8  2  0
  9 10  1  0
 10 11  2  0
 11 12  1  0
 13 15  1  0
 13 16  1  0
 14 13  2  0
 17 16  1  0
 17 18  1  0
  2 19  1  0
  3 20  1  0
  4 21  1  0
  5 22  1  0
  7 23  1  0
  8 24  1  0
 11 25  1  0
 15 26  1  0
 17 27  1  0
 17 28  1  0
 18 29  1  0
 18 30  1  0
 18 31  1  0
M  ISO  8  19  14  20  14  21  14  22  14  23  14  24  14  25  14  27   8
M  ISO  4  28   8  29   8  30   8  31   8
M  END
>  <minimizedAffinity>  (1) 
-5.44818735

>  <minimizedRMSD>  (1) 
0.374199241

$$$$
