
     RDKit          3D

 36 38  0  0  1  0  0  0  0  0999 V2000
   46.4280   33.9170   43.1570 C   0  0  2  0  0  0  0  0  0  0  0  0
   45.8800   35.0880   42.4400 C   0  0  2  0  0  0  0  0  0  0  0  0
   45.4970   36.2170   43.3390 C   0  0  0  0  0  0  0  0  0  0  0  0
   44.6150   35.8360   44.4960 C   0  0  0  0  0  0  0  0  0  0  0  0
   44.9860   34.5270   45.1280 C   0  0  0  0  0  0  0  0  0  0  0  0
   46.3330   34.0210   44.6710 C   0  0  0  0  0  0  0  0  0  0  0  0
   47.8630   33.7140   42.8390 C   0  0  0  0  0  0  0  0  0  0  0  0
   48.6510   34.8950   42.6920 C   0  0  0  0  0  0  0  0  0  0  0  0
   50.0070   34.7740   42.3890 C   0  0  0  0  0  0  0  0  0  0  0  0
   50.5020   33.4950   42.2480 N   0  0  0  0  0  0  0  0  0  0  0  0
   49.7320   32.3960   42.3940 C   0  0  0  0  0  0  0  0  0  0  0  0
   48.4150   32.5050   42.6880 N   0  0  0  0  0  0  0  0  0  0  0  0
   44.7940   34.8160   41.4820 C   0  0  0  0  0  0  0  0  0  0  0  0
   44.8010   33.8160   40.5410 C   0  0  0  0  0  0  0  0  0  0  0  0
   43.7880   33.5560   39.6450 C   0  0  0  0  0  0  0  0  0  0  0  0
   42.6580   34.3410   39.6610 C   0  0  0  0  0  0  0  0  0  0  0  0
   42.5560   35.3680   40.5680 C   0  0  0  0  0  0  0  0  0  0  0  0
   43.6110   35.5660   41.4320 C   0  0  0  0  0  0  0  0  0  0  0  0
   45.8077   33.0764   42.8127 H   0  0  0  0  0  0  0  0  0  0  0  0
   46.7449   35.3943   41.8333 H   0  0  0  0  0  0  0  0  0  0  0  0
   46.4193   36.6590   43.7439 H   0  0  0  0  0  0  0  0  0  0  0  0
   44.9120   36.9160   42.7232 H   0  0  0  0  0  0  0  0  0  0  0  0
   44.6848   36.6236   45.2607 H   0  0  0  0  0  0  0  0  0  0  0  0
   43.5943   35.7259   44.1011 H   0  0  0  0  0  0  0  0  0  0  0  0
   45.0111   34.6579   46.2199 H   0  0  0  0  0  0  0  0  0  0  0  0
   44.2320   33.7858   44.8246 H   0  0  0  0  0  0  0  0  0  0  0  0
   46.5023   33.0246   45.1052 H   0  0  0  0  0  0  0  0  0  0  0  0
   47.0941   34.7407   45.0069 H   0  0  0  0  0  0  0  0  0  0  0  0
   48.1945   35.8881   42.8161 H   0  0  0  0  0  0  0  0  0  0  0  0
   50.6512   35.6574   42.2682 H   0  0  0  0  0  0  0  0  0  0  0  0
   50.1804   31.3989   42.2725 H   0  0  0  0  0  0  0  0  0  0  0  0
   45.6895   33.1689   40.4994 H   0  0  0  0  0  0  0  0  0  0  0  0
   43.8812   32.7300   38.9246 H   0  0  0  0  0  0  0  0  0  0  0  0
   41.8403   34.1473   38.9511 H   0  0  0  0  0  0  0  0  0  0  0  0
   41.6633   36.0098   40.6032 H   0  0  0  0  0  0  0  0  0  0  0  0
   43.5156   36.3923   42.1518 H   0  0  0  0  0  0  0  0  0  0  0  0
  1  6  1  0
  2  1  1  0
  2  3  1  0
  3  4  1  0
  4  5  1  0
  6  5  1  0
  7  1  1  0
  8  7  2  0
  9  8  1  0
 10  9  2  0
 10 11  1  0
 11 12  2  0
 12  7  1  0
 13  2  1  0
 14 13  2  0
 15 16  2  0
 15 14  1  0
 16 17  1  0
 17 18  2  0
 18 13  1  0
  1 19  1  6
  2 20  1  6
  3 21  1  0
  3 22  1  0
  4 23  1  0
  4 24  1  0
  5 25  1  0
  5 26  1  0
  6 27  1  0
  6 28  1  0
  8 29  1  0
  9 30  1  0
 11 31  1  0
 14 32  1  0
 15 33  1  0
 16 34  1  0
 17 35  1  0
 18 36  1  0
M  ISO  8  19  13  20  13  21  13  22  13  23  13  24  13  25  13  26  13
M  ISO  8  27  13  28  13  29  14  30  14  31  14  32  14  33  14  34  14
M  ISO  2  35  14  36  14
M  END
>  <minimizedAffinity>  (1) 
-5.49404144

>  <minimizedRMSD>  (1) 
2.43293905

$$$$
