
     RDKit          3D

 32 33  0  0  1  0  0  0  0  0999 V2000
   47.7090   34.1220   43.5730 C   0  0  2  0  0  0  0  0  0  0  0  0
   46.7470   34.7940   42.6730 C   0  0  1  0  0  0  0  0  0  0  0  0
   47.1730   34.7970   41.2330 C   0  0  0  0  0  0  0  0  0  0  0  0
   48.5390   35.4040   41.0440 C   0  0  0  0  0  0  0  0  0  0  0  0
   49.5300   35.0230   42.1320 C   0  0  0  0  0  0  0  0  0  0  0  0
   49.0360   33.8130   42.8920 C   0  0  0  0  0  0  0  0  0  0  0  0
   47.2000   32.8480   44.1150 C   0  0  0  0  0  0  0  0  0  0  0  0
   47.3370   31.7140   43.2810 C   0  0  0  0  0  0  0  0  0  0  0  0
   46.8820   30.4660   43.7230 C   0  0  0  0  0  0  0  0  0  0  0  0
   46.3160   30.4270   44.9720 N   0  0  0  0  0  0  0  0  0  0  0  0
   46.1970   31.5330   45.7510 C   0  0  0  0  0  0  0  0  0  0  0  0
   46.6350   32.7240   45.3240 N   0  0  0  0  0  0  0  0  0  0  0  0
   45.4310   34.4750   42.8440 O   0  0  0  0  0  0  0  0  0  0  0  0
   44.6780   35.5090   45.1390 O   0  0  0  0  0  0  0  0  0  0  0  0
   44.5700   35.6970   43.6520 P   0  0  0  0  0  0  0  0  0  0  0  0
   42.9310   35.5510   43.1860 O   0  0  0  0  0  0  0  0  0  0  0  0
   45.1870   37.2210   43.2720 O   0  0  0  0  0  0  0  0  0  0  0  0
   47.8562   34.8465   44.3875 H   0  0  0  0  0  0  0  0  0  0  0  0
   46.7927   35.8383   43.0155 H   0  0  0  0  0  0  0  0  0  0  0  0
   47.1928   33.7597   40.8674 H   0  0  0  0  0  0  0  0  0  0  0  0
   46.4519   35.4070   40.6692 H   0  0  0  0  0  0  0  0  0  0  0  0
   48.9385   35.0669   40.0761 H   0  0  0  0  0  0  0  0  0  0  0  0
   48.4156   36.4962   41.0881 H   0  0  0  0  0  0  0  0  0  0  0  0
   50.5020   34.7907   41.6723 H   0  0  0  0  0  0  0  0  0  0  0  0
   49.6353   35.8659   42.8309 H   0  0  0  0  0  0  0  0  0  0  0  0
   48.8982   32.9760   42.1917 H   0  0  0  0  0  0  0  0  0  0  0  0
   49.7777   33.5447   43.6587 H   0  0  0  0  0  0  0  0  0  0  0  0
   47.7997   31.8123   42.2879 H   0  0  0  0  0  0  0  0  0  0  0  0
   46.9736   29.5634   43.1010 H   0  0  0  0  0  0  0  0  0  0  0  0
   45.7348   31.4493   46.7457 H   0  0  0  0  0  0  0  0  0  0  0  0
   42.3614   35.5003   43.9941 H   0  0  0  0  0  0  0  0  0  0  0  0
   45.3865   37.7138   44.1071 H   0  0  0  0  0  0  0  0  0  0  0  0
  1  7  1  0
  2 13  1  0
  2  1  1  0
  3  2  1  0
  4  3  1  0
  4  5  1  0
  5  6  1  0
  6  1  1  0
  7 12  2  0
  8  9  2  0
  8  7  1  0
  9 10  1  0
 10 11  2  0
 12 11  1  0
 13 15  1  0
 15 14  2  0
 16 15  1  0
 17 15  1  0
  1 18  1  1
  2 19  1  1
  3 20  1  0
  3 21  1  0
  4 22  1  0
  4 23  1  0
  5 24  1  0
  5 25  1  0
  6 26  1  0
  6 27  1  0
  8 28  1  0
  9 29  1  0
 11 30  1  0
 16 31  1  0
 17 32  1  0
M  ISO  8  18  13  19  13  20  13  21  13  22  13  23  13  24  13  25  13
M  ISO  7  26  13  27  13  28  14  29  14  30  14  31   3  32   3
M  END
>  <minimizedAffinity>  (1) 
-5.32472134

>  <minimizedRMSD>  (1) 
4.43622923

$$$$
