
     RDKit          3D

 35 37  0  0  1  0  0  0  0  0999 V2000
   46.1220   33.7880   43.0630 C   0  0  2  0  0  0  0  0  0  0  0  0
   45.4750   34.9200   42.3620 C   0  0  2  0  0  0  0  0  0  0  0  0
   45.2900   36.1270   43.2160 C   0  0  0  0  0  0  0  0  0  0  0  0
   44.5700   35.8310   44.5160 C   0  0  0  0  0  0  0  0  0  0  0  0
   45.0490   34.5690   45.1870 C   0  0  0  0  0  0  0  0  0  0  0  0
   46.3030   34.0090   44.5560 C   0  0  0  0  0  0  0  0  0  0  0  0
   47.4600   33.5000   42.5060 C   0  0  0  0  0  0  0  0  0  0  0  0
   48.5020   34.3990   42.8950 C   0  0  0  0  0  0  0  0  0  0  0  0
   49.7970   34.2130   42.4150 C   0  0  0  0  0  0  0  0  0  0  0  0
   49.9830   33.1360   41.5710 N   0  0  0  0  0  0  0  0  0  0  0  0
   48.9920   32.3040   41.2190 C   0  0  0  0  0  0  0  0  0  0  0  0
   47.7420   32.4900   41.6870 N   0  0  0  0  0  0  0  0  0  0  0  0
   44.1850   34.5560   41.7020 C   0  0  0  0  0  0  0  0  0  0  0  0
   43.4450   35.4460   40.9300 C   0  0  0  0  0  0  0  0  0  0  0  0
   42.2590   34.9410   40.3860 C   0  0  0  0  0  0  0  0  0  0  0  0
   41.8570   33.6410   40.6040 C   0  0  0  0  0  0  0  0  0  0  0  0
   42.6280   32.7900   41.3810 C   0  0  0  0  0  0  0  0  0  0  0  0
   43.7710   33.2790   41.9070 N   0  0  0  0  0  0  0  0  0  0  0  0
   45.4307   32.9465   42.9080 H   0  0  0  0  0  0  0  0  0  0  0  0
   46.1945   35.1792   41.5714 H   0  0  0  0  0  0  0  0  0  0  0  0
   46.2802   36.5443   43.4514 H   0  0  0  0  0  0  0  0  0  0  0  0
   44.6677   36.8364   42.6507 H   0  0  0  0  0  0  0  0  0  0  0  0
   44.7294   36.6746   45.2037 H   0  0  0  0  0  0  0  0  0  0  0  0
   43.5061   35.6891   44.2751 H   0  0  0  0  0  0  0  0  0  0  0  0
   45.2565   34.7903   46.2444 H   0  0  0  0  0  0  0  0  0  0  0  0
   44.2569   33.8139   45.0755 H   0  0  0  0  0  0  0  0  0  0  0  0
   46.5452   33.0480   45.0332 H   0  0  0  0  0  0  0  0  0  0  0  0
   47.1173   34.7339   44.7023 H   0  0  0  0  0  0  0  0  0  0  0  0
   48.2814   35.2369   43.5727 H   0  0  0  0  0  0  0  0  0  0  0  0
   50.6227   34.8848   42.6922 H   0  0  0  0  0  0  0  0  0  0  0  0
   49.2012   31.4623   40.5424 H   0  0  0  0  0  0  0  0  0  0  0  0
   43.7720   36.4821   40.7580 H   0  0  0  0  0  0  0  0  0  0  0  0
   41.6307   35.5991   39.7678 H   0  0  0  0  0  0  0  0  0  0  0  0
   40.9193   33.2765   40.1591 H   0  0  0  0  0  0  0  0  0  0  0  0
   42.3184   31.7503   41.5629 H   0  0  0  0  0  0  0  0  0  0  0  0
  1  6  1  0
  2  1  1  0
  2  3  1  0
  3  4  1  0
  4  5  1  0
  6  5  1  0
  7  8  2  0
  7  1  1  0
  9  8  1  0
 10  9  2  0
 11 10  1  0
 11 12  2  0
 12  7  1  0
 13 18  1  0
 13  2  1  0
 14 13  2  0
 15 16  2  0
 15 14  1  0
 16 17  1  0
 17 18  2  0
  1 19  1  1
  2 20  1  6
  3 21  1  0
  3 22  1  0
  4 23  1  0
  4 24  1  0
  5 25  1  0
  5 26  1  0
  6 27  1  0
  6 28  1  0
  8 29  1  0
  9 30  1  0
 11 31  1  0
 14 32  1  0
 15 33  1  0
 16 34  1  0
 17 35  1  0
M  ISO  8  19  13  20  13  21  13  22  13  23  13  24  13  25  13  26  13
M  ISO  8  27  13  28  13  29  14  30  14  31  14  32  14  33  14  34  14
M  ISO  1  35  14
M  END
>  <minimizedAffinity>  (1) 
-5.16850615

>  <minimizedRMSD>  (1) 
2.39451861

$$$$
