
     RDKit          3D

 33 35  0  0  1  0  0  0  0  0999 V2000
   46.3310   33.9140   43.2060 C   0  0  2  0  0  0  0  0  0  0  0  0
   45.7440   35.0460   42.4570 C   0  0  2  0  0  0  0  0  0  0  0  0
   45.4130   36.2160   43.3420 C   0  0  0  0  0  0  0  0  0  0  0  0
   44.5540   35.8530   44.5270 C   0  0  0  0  0  0  0  0  0  0  0  0
   44.9710   34.5780   45.1970 C   0  0  0  0  0  0  0  0  0  0  0  0
   46.3190   34.0960   44.7160 C   0  0  0  0  0  0  0  0  0  0  0  0
   47.7370   33.6720   42.8180 C   0  0  0  0  0  0  0  0  0  0  0  0
   48.5570   34.8380   42.7400 C   0  0  0  0  0  0  0  0  0  0  0  0
   49.8990   34.7070   42.3700 C   0  0  0  0  0  0  0  0  0  0  0  0
   50.3460   33.4360   42.1020 N   0  0  0  0  0  0  0  0  0  0  0  0
   49.5400   32.3460   42.1870 C   0  0  0  0  0  0  0  0  0  0  0  0
   48.2560   32.4770   42.5400 N   0  0  0  0  0  0  0  0  0  0  0  0
   44.5700   34.6610   41.6620 C   0  0  0  0  0  0  0  0  0  0  0  0
   43.5580   35.3850   40.9690 C   0  0  0  0  0  0  0  0  0  0  0  0
   42.6110   34.6510   40.3300 C   0  0  0  0  0  0  0  0  0  0  0  0
   42.5990   33.2450   40.3290 C   0  0  0  0  0  0  0  0  0  0  0  0
   44.1420   32.8920   41.3810 S   0  0  0  0  0  0  0  0  0  0  0  0
   45.6865   33.0626   42.9418 H   0  0  0  0  0  0  0  0  0  0  0  0
   46.5311   35.3616   41.7564 H   0  0  0  0  0  0  0  0  0  0  0  0
   46.3539   36.6478   43.7139 H   0  0  0  0  0  0  0  0  0  0  0  0
   44.8375   36.9285   42.7328 H   0  0  0  0  0  0  0  0  0  0  0  0
   44.6123   36.6687   45.2627 H   0  0  0  0  0  0  0  0  0  0  0  0
   43.5307   35.7031   44.1523 H   0  0  0  0  0  0  0  0  0  0  0  0
   45.0223   34.7484   46.2825 H   0  0  0  0  0  0  0  0  0  0  0  0
   44.2276   33.8065   44.9479 H   0  0  0  0  0  0  0  0  0  0  0  0
   46.5477   33.1327   45.1954 H   0  0  0  0  0  0  0  0  0  0  0  0
   47.0741   34.8504   44.9821 H   0  0  0  0  0  0  0  0  0  0  0  0
   48.1376   35.8289   42.9685 H   0  0  0  0  0  0  0  0  0  0  0  0
   50.5647   35.5796   42.2970 H   0  0  0  0  0  0  0  0  0  0  0  0
   49.9458   31.3482   41.9640 H   0  0  0  0  0  0  0  0  0  0  0  0
   43.5442   36.4848   40.9522 H   0  0  0  0  0  0  0  0  0  0  0  0
   41.8151   35.1818   39.7871 H   0  0  0  0  0  0  0  0  0  0  0  0
   41.8950   32.5463   39.8534 H   0  0  0  0  0  0  0  0  0  0  0  0
  1  6  1  0
  2  1  1  0
  2  3  1  0
  3  4  1  0
  4  5  1  0
  6  5  1  0
  7  1  1  0
  8  7  2  0
  9  8  1  0
 10 11  1  0
 10  9  2  0
 11 12  2  0
 12  7  1  0
 13  2  1  0
 14 13  2  0
 15 14  1  0
 16 15  2  0
 16 17  1  0
 17 13  1  0
  1 18  1  1
  2 19  1  6
  3 20  1  0
  3 21  1  0
  4 22  1  0
  4 23  1  0
  5 24  1  0
  5 25  1  0
  6 26  1  0
  6 27  1  0
  8 28  1  0
  9 29  1  0
 11 30  1  0
 14 31  1  0
 15 32  1  0
 16 33  1  0
M  ISO  8  18  13  19  13  20  13  21  13  22  13  23  13  24  13  25  13
M  ISO  8  26  13  27  13  28  14  29  14  30  14  31  14  32  14  33  14
M  END
>  <minimizedAffinity>  (1) 
-4.94621325

>  <minimizedRMSD>  (1) 
2.34815764

$$$$
