
     RDKit          3D

 36 38  0  0  0  0  0  0  0  0999 V2000
   47.5560   31.5540   45.2320 Cl  0  0  0  0  0  0  0  0  0  0  0  0
   46.6980   31.6550   46.7790 C   0  0  0  0  0  0  0  0  0  0  0  0
   45.8060   32.6930   46.9600 C   0  0  0  0  0  0  0  0  0  0  0  0
   45.1580   32.7560   48.1460 C   0  0  0  0  0  0  0  0  0  0  0  0
   45.4070   31.7910   49.1240 C   0  0  0  0  0  0  0  0  0  0  0  0
   46.3110   30.7510   48.9220 C   0  0  0  0  0  0  0  0  0  0  0  0
   46.9840   30.6770   47.7040 C   0  0  0  0  0  0  0  0  0  0  0  0
   49.5280   31.0380   48.6400 F   0  0  0  0  0  0  0  0  0  0  0  0
   49.1990   29.9100   47.9420 C   0  0  0  0  0  0  0  0  0  0  0  0
   47.9440   29.6180   47.4190 C   0  0  0  0  0  0  0  0  0  0  0  0
   47.7390   28.4460   46.7330 C   0  0  0  0  0  0  0  0  0  0  0  0
   48.7730   27.5640   46.5650 C   0  0  0  0  0  0  0  0  0  0  0  0
   50.0460   27.8270   47.0770 C   0  0  0  0  0  0  0  0  0  0  0  0
   50.2480   29.0050   47.7650 C   0  0  0  0  0  0  0  0  0  0  0  0
   44.5640   35.5510   45.0840 C   0  0  0  0  0  0  0  0  0  0  0  0
   45.2390   35.4810   43.8450 C   0  0  0  0  0  0  0  0  0  0  0  0
   46.1320   34.4110   43.6950 C   0  0  0  0  0  0  0  0  0  0  0  0
   46.2830   33.5310   44.7320 N   0  0  0  0  0  0  0  0  0  0  0  0
   45.5940   33.6650   45.9030 C   0  0  0  0  0  0  0  0  0  0  0  0
   44.7440   34.6730   46.0600 N   0  0  0  0  0  0  0  0  0  0  0  0
   46.8310   34.3420   42.4040 C   0  0  0  0  0  0  0  0  0  0  0  0
   47.6170   33.2060   42.3750 F   0  0  0  0  0  0  0  0  0  0  0  0
   47.6780   35.4240   42.3720 F   0  0  0  0  0  0  0  0  0  0  0  0
   45.9760   34.2830   41.3410 F   0  0  0  0  0  0  0  0  0  0  0  0
   45.0350   36.4670   42.7490 C   0  0  0  0  0  0  0  0  0  0  0  0
   44.4376   33.5645   48.3391 H   0  0  0  0  0  0  0  0  0  0  0  0
   44.8727   31.8542   50.0835 H   0  0  0  0  0  0  0  0  0  0  0  0
   46.4902   30.0029   49.7083 H   0  0  0  0  0  0  0  0  0  0  0  0
   46.7460   28.2162   46.3193 H   0  0  0  0  0  0  0  0  0  0  0  0
   48.5974   26.6278   46.0148 H   0  0  0  0  0  0  0  0  0  0  0  0
   50.8686   27.1107   46.9346 H   0  0  0  0  0  0  0  0  0  0  0  0
   51.2420   29.2334   48.1771 H   0  0  0  0  0  0  0  0  0  0  0  0
   43.8538   36.3751   45.2466 H   0  0  0  0  0  0  0  0  0  0  0  0
   44.8300   37.4578   43.1806 H   0  0  0  0  0  0  0  0  0  0  0  0
   45.9416   36.5179   42.1282 H   0  0  0  0  0  0  0  0  0  0  0  0
   44.1826   36.1540   42.1282 H   0  0  0  0  0  0  0  0  0  0  0  0
  1  2  1  0
  2  3  2  0
  2  7  1  0
  3  4  1  0
  4  5  2  0
  6  5  1  0
  7  6  2  0
  9  8  1  0
 10  7  1  0
 10  9  2  0
 11 10  1  0
 12 11  2  0
 12 13  1  0
 13 14  2  0
 14  9  1  0
 15 20  2  0
 16 15  1  0
 17 16  2  0
 17 18  1  0
 18 19  2  0
 19 20  1  0
 19  3  1  0
 21 17  1  0
 22 21  1  0
 23 21  1  0
 24 21  1  0
 25 16  1  0
  4 26  1  0
  5 27  1  0
  6 28  1  0
 11 29  1  0
 12 30  1  0
 13 31  1  0
 14 32  1  0
 15 33  1  0
 25 34  1  0
 25 35  1  0
 25 36  1  0
M  ISO  8  26  14  27  14  28  14  29  14  30  14  31  14  32  14  33  14
M  ISO  3  34   8  35   8  36   8
M  END
>  <minimizedAffinity>  (1) 
-6.19950151

>  <minimizedRMSD>  (1) 
0.457519919

$$$$
