
     RDKit          3D

 39 41  0  0  1  0  0  0  0  0999 V2000
   46.0680   33.8220   43.1300 C   0  0  2  0  0  0  0  0  0  0  0  0
   45.3390   34.9370   42.4860 C   0  0  2  0  0  0  0  0  0  0  0  0
   45.1910   36.1440   43.3530 C   0  0  0  0  0  0  0  0  0  0  0  0
   44.6080   35.8430   44.7180 C   0  0  0  0  0  0  0  0  0  0  0  0
   45.0530   34.5170   45.2890 C   0  0  0  0  0  0  0  0  0  0  0  0
   46.3110   34.0300   44.6160 C   0  0  0  0  0  0  0  0  0  0  0  0
   47.3770   33.5700   42.4980 C   0  0  0  0  0  0  0  0  0  0  0  0
   48.4390   34.3730   42.9510 C   0  0  0  0  0  0  0  0  0  0  0  0
   49.7270   34.2160   42.4200 C   0  0  0  0  0  0  0  0  0  0  0  0
   49.8600   33.2430   41.4510 N   0  0  0  0  0  0  0  0  0  0  0  0
   48.8220   32.4870   41.0350 C   0  0  0  0  0  0  0  0  0  0  0  0
   47.5820   32.6480   41.5560 N   0  0  0  0  0  0  0  0  0  0  0  0
   43.2580   35.4520   41.1550 C   0  0  1  0  0  0  0  0  0  0  0  0
   44.0020   34.4530   41.9800 C   0  0  1  0  0  0  0  0  0  0  0  0
   44.2160   33.3190   41.2230 O   0  0  0  0  0  0  0  0  0  0  0  0
   44.0690   33.6640   39.8810 C   0  0  0  0  0  0  0  0  0  0  0  0
   42.8650   34.5900   39.9480 C   0  0  2  0  0  0  0  0  0  0  0  0
   42.1040   35.9220   41.7420 O   0  0  0  0  0  0  0  0  0  0  0  0
   42.7690   35.3860   38.8110 O   0  0  0  0  0  0  0  0  0  0  0  0
   45.4018   32.9575   42.9931 H   0  0  0  0  0  0  0  0  0  0  0  0
   45.9536   35.2692   41.6364 H   0  0  0  0  0  0  0  0  0  0  0  0
   46.1840   36.5966   43.4912 H   0  0  0  0  0  0  0  0  0  0  0  0
   44.4890   36.8216   42.8450 H   0  0  0  0  0  0  0  0  0  0  0  0
   44.9157   36.6403   45.4106 H   0  0  0  0  0  0  0  0  0  0  0  0
   43.5159   35.7908   44.5969 H   0  0  0  0  0  0  0  0  0  0  0  0
   45.2447   34.6358   46.3656 H   0  0  0  0  0  0  0  0  0  0  0  0
   44.2566   33.7780   45.1168 H   0  0  0  0  0  0  0  0  0  0  0  0
   46.6197   33.0768   45.0701 H   0  0  0  0  0  0  0  0  0  0  0  0
   47.1015   34.7836   44.7471 H   0  0  0  0  0  0  0  0  0  0  0  0
   48.2577   35.1302   43.7280 H   0  0  0  0  0  0  0  0  0  0  0  0
   50.5768   34.8291   42.7544 H   0  0  0  0  0  0  0  0  0  0  0  0
   48.9862   31.7257   40.2582 H   0  0  0  0  0  0  0  0  0  0  0  0
   43.8608   36.3514   40.9611 H   0  0  0  0  0  0  0  0  0  0  0  0
   43.3755   34.2595   42.8632 H   0  0  0  0  0  0  0  0  0  0  0  0
   43.8651   32.7812   39.2572 H   0  0  0  0  0  0  0  0  0  0  0  0
   44.9639   34.1168   39.4292 H   0  0  0  0  0  0  0  0  0  0  0  0
   41.8977   34.0714   40.0218 H   0  0  0  0  0  0  0  0  0  0  0  0
   42.1959   35.8846   42.7270 H   0  0  0  0  0  0  0  0  0  0  0  0
   42.6549   36.3321   39.0792 H   0  0  0  0  0  0  0  0  0  0  0  0
  1  6  1  0
  2  1  1  0
  2  3  1  0
  3  4  1  0
  4  5  1  0
  6  5  1  0
  7  8  2  0
  7  1  1  0
  9  8  1  0
 10  9  2  0
 11 10  1  0
 11 12  2  0
 12  7  1  0
 13 18  1  0
 13 14  1  0
 14 15  1  0
 14  2  1  0
 16 17  1  0
 16 15  1  0
 17 19  1  0
 17 13  1  0
  1 20  1  1
  2 21  1  6
  3 22  1  0
  3 23  1  0
  4 24  1  0
  4 25  1  0
  5 26  1  0
  5 27  1  0
  6 28  1  0
  6 29  1  0
  8 30  1  0
  9 31  1  0
 11 32  1  0
 13 33  1  6
 14 34  1  1
 16 35  1  0
 16 36  1  0
 17 37  1  1
 18 38  1  0
 19 39  1  0
M  ISO  8  20  13  21  13  22  13  23  13  24  13  25  13  26  13  27  13
M  ISO  8  28  13  29  13  30  14  31  14  32  14  33  13  34  13  35  13
M  ISO  4  36  13  37  13  38   3  39   3
M  END
>  <minimizedAffinity>  (1) 
-5.63440514

>  <minimizedRMSD>  (1) 
2.84251165

$$$$
