
     RDKit          3D

 55 59  0  0  1  0  0  0  0  0999 V2000
   46.2920   33.3900   43.5370 C   0  0  2  0  0  0  0  0  0  0  0  0
   45.3690   34.2690   42.7690 C   0  0  2  0  0  0  0  0  0  0  0  0
   45.0750   35.5490   43.4600 C   0  0  0  0  0  0  0  0  0  0  0  0
   44.6160   35.4020   44.8850 C   0  0  0  0  0  0  0  0  0  0  0  0
   45.2620   34.2540   45.6220 C   0  0  0  0  0  0  0  0  0  0  0  0
   46.5530   33.8240   44.9540 C   0  0  0  0  0  0  0  0  0  0  0  0
   43.3570   34.0520   41.2580 C   0  0  1  0  0  0  0  0  0  0  0  0
   44.0930   33.5220   42.4450 C   0  0  1  0  0  0  0  0  0  0  0  0
   44.4200   32.1890   42.2150 O   0  0  0  0  0  0  0  0  0  0  0  0
   44.3450   31.9570   40.8450 C   0  0  0  0  0  0  0  0  0  0  0  0
   43.0960   32.7490   40.4800 C   0  0  2  0  0  0  0  0  0  0  0  0
   42.1320   34.6090   41.5770 O   0  0  0  0  0  0  0  0  0  0  0  0
   43.0230   33.0050   39.1360 O   0  0  0  0  0  0  0  0  0  0  0  0
   42.1880   33.9640   38.6140 C   0  0  0  0  0  0  0  0  0  0  0  0
   42.3660   35.2910   38.2920 C   0  0  0  0  0  0  0  0  0  0  0  0
   41.3680   36.0820   37.7690 C   0  0  0  0  0  0  0  0  0  0  0  0
   40.1250   35.5650   37.5410 C   0  0  0  0  0  0  0  0  0  0  0  0
   39.8980   34.2360   37.8480 C   0  0  0  0  0  0  0  0  0  0  0  0
   38.6190   33.8000   37.5870 C   0  0  0  0  0  0  0  0  0  0  0  0
   38.3110   32.4850   37.8660 C   0  0  0  0  0  0  0  0  0  0  0  0
   39.2700   31.6470   38.3920 C   0  0  0  0  0  0  0  0  0  0  0  0
   40.5350   32.1350   38.6340 C   0  0  0  0  0  0  0  0  0  0  0  0
   40.9130   33.4350   38.3800 C   0  0  0  0  0  0  0  0  0  0  0  0
   47.5900   33.2030   42.8600 C   0  0  0  0  0  0  0  0  0  0  0  0
   48.4490   34.3000   42.9230 C   0  0  0  0  0  0  0  0  0  0  0  0
   49.7160   34.2470   42.3230 C   0  0  0  0  0  0  0  0  0  0  0  0
   50.0250   33.0510   41.6840 N   0  0  0  0  0  0  0  0  0  0  0  0
   49.1590   32.0100   41.6450 C   0  0  0  0  0  0  0  0  0  0  0  0
   47.9410   32.0800   42.2320 N   0  0  0  0  0  0  0  0  0  0  0  0
   45.7440   32.4371   43.5790 H   0  0  0  0  0  0  0  0  0  0  0  0
   45.8816   34.5390   41.8339 H   0  0  0  0  0  0  0  0  0  0  0  0
   45.9904   36.1589   43.4559 H   0  0  0  0  0  0  0  0  0  0  0  0
   44.2429   36.0146   42.9116 H   0  0  0  0  0  0  0  0  0  0  0  0
   44.8500   36.3332   45.4217 H   0  0  0  0  0  0  0  0  0  0  0  0
   43.5367   35.1923   44.8520 H   0  0  0  0  0  0  0  0  0  0  0  0
   45.4802   34.5684   46.6533 H   0  0  0  0  0  0  0  0  0  0  0  0
   44.5668   33.4016   45.6124 H   0  0  0  0  0  0  0  0  0  0  0  0
   46.9894   32.9847   45.5154 H   0  0  0  0  0  0  0  0  0  0  0  0
   47.2497   34.6752   44.9436 H   0  0  0  0  0  0  0  0  0  0  0  0
   43.9163   34.8456   40.7410 H   0  0  0  0  0  0  0  0  0  0  0  0
   43.4184   33.6483   43.3046 H   0  0  0  0  0  0  0  0  0  0  0  0
   45.2332   32.3408   40.3217 H   0  0  0  0  0  0  0  0  0  0  0  0
   44.3025   30.8932   40.5684 H   0  0  0  0  0  0  0  0  0  0  0  0
   42.1542   32.2328   40.7175 H   0  0  0  0  0  0  0  0  0  0  0  0
   42.0357   34.6528   42.5613 H   0  0  0  0  0  0  0  0  0  0  0  0
   43.3551   35.7415   38.4611 H   0  0  0  0  0  0  0  0  0  0  0  0
   41.5732   37.1367   37.5334 H   0  0  0  0  0  0  0  0  0  0  0  0
   39.3230   36.1911   37.1229 H   0  0  0  0  0  0  0  0  0  0  0  0
   37.8638   34.4811   37.1677 H   0  0  0  0  0  0  0  0  0  0  0  0
   37.2980   32.1045   37.6683 H   0  0  0  0  0  0  0  0  0  0  0  0
   39.0275   30.5978   38.6166 H   0  0  0  0  0  0  0  0  0  0  0  0
   41.2852   31.4484   39.0534 H   0  0  0  0  0  0  0  0  0  0  0  0
   48.1307   35.2133   43.4469 H   0  0  0  0  0  0  0  0  0  0  0  0
   50.4173   35.0938   42.3557 H   0  0  0  0  0  0  0  0  0  0  0  0
   49.4522   31.0864   41.1243 H   0  0  0  0  0  0  0  0  0  0  0  0
  1  6  1  0
  2  3  1  0
  2  1  1  0
  3  4  1  0
  4  5  1  0
  6  5  1  0
  7 12  1  0
  7  8  1  0
  8  2  1  0
  9  8  1  0
 10  9  1  0
 11 10  1  0
 11  7  1  0
 13 11  1  0
 14 13  1  0
 15 14  2  0
 16 15  1  0
 17 16  2  0
 17 18  1  0
 18 23  2  0
 19 18  1  0
 19 20  2  0
 20 21  1  0
 21 22  2  0
 23 14  1  0
 23 22  1  0
 24 25  2  0
 24  1  1  0
 26 25  1  0
 27 26  2  0
 28 27  1  0
 28 29  2  0
 29 24  1  0
  1 30  1  1
  2 31  1  6
  3 32  1  0
  3 33  1  0
  4 34  1  0
  4 35  1  0
  5 36  1  0
  5 37  1  0
  6 38  1  0
  6 39  1  0
  7 40  1  6
  8 41  1  1
 10 42  1  0
 10 43  1  0
 11 44  1  1
 12 45  1  0
 15 46  1  0
 16 47  1  0
 17 48  1  0
 19 49  1  0
 20 50  1  0
 21 51  1  0
 22 52  1  0
 25 53  1  0
 26 54  1  0
 28 55  1  0
M  ISO  8  30  13  31  13  32  13  33  13  34  13  35  13  36  13  37  13
M  ISO  8  38  13  39  13  40  13  41  13  42  13  43  13  44  13  45   3
M  ISO  8  46  14  47  14  48  14  49  14  50  14  51  14  52  14  53  14
M  ISO  2  54  14  55  14
M  END
>  <minimizedAffinity>  (1) 
-7.25445747

>  <minimizedRMSD>  (1) 
1.24751031

$$$$
