
     RDKit          3D

 48 51  0  0  1  0  0  0  0  0999 V2000
   45.8680   34.1710   42.7320 C   0  0  2  0  0  0  0  0  0  0  0  0
   44.7410   35.1440   42.7360 C   0  0  2  0  0  0  0  0  0  0  0  0
   44.7470   36.0330   43.9240 C   0  0  0  0  0  0  0  0  0  0  0  0
   44.8400   35.3120   45.2430 C   0  0  0  0  0  0  0  0  0  0  0  0
   45.6880   34.0760   45.2040 C   0  0  0  0  0  0  0  0  0  0  0  0
   46.6350   34.0770   44.0180 C   0  0  0  0  0  0  0  0  0  0  0  0
   42.4090   35.0980   41.7640 C   0  0  1  0  0  0  0  0  0  0  0  0
   43.4230   34.4160   42.6060 C   0  0  1  0  0  0  0  0  0  0  0  0
   43.6760   33.1610   42.0660 O   0  0  0  0  0  0  0  0  0  0  0  0
   43.2580   33.1680   40.7450 C   0  0  0  0  0  0  0  0  0  0  0  0
   41.9540   33.9420   40.8590 C   0  0  2  0  0  0  0  0  0  0  0  0
   41.3100   35.5510   42.4630 O   0  0  0  0  0  0  0  0  0  0  0  0
   41.5480   34.4480   39.6310 O   0  0  0  0  0  0  0  0  0  0  0  0
   40.4010   34.1310   38.9540 C   0  0  0  0  0  0  0  0  0  0  0  0
   39.9150   34.6830   37.8000 C   0  0  0  0  0  0  0  0  0  0  0  0
   38.7630   34.3220   37.1730 C   0  0  0  0  0  0  0  0  0  0  0  0
   38.0550   33.3100   37.7860 C   0  0  0  0  0  0  0  0  0  0  0  0
   38.5120   32.7270   38.9490 C   0  0  0  0  0  0  0  0  0  0  0  0
   39.6640   33.1420   39.5080 N   0  0  0  0  0  0  0  0  0  0  0  0
   46.8220   34.4150   41.6320 C   0  0  0  0  0  0  0  0  0  0  0  0
   47.8710   35.2800   41.9470 C   0  0  0  0  0  0  0  0  0  0  0  0
   48.8450   35.5900   40.9850 C   0  0  0  0  0  0  0  0  0  0  0  0
   48.6790   34.9860   39.7450 N   0  0  0  0  0  0  0  0  0  0  0  0
   47.6460   34.1540   39.4810 C   0  0  0  0  0  0  0  0  0  0  0  0
   46.7180   33.8670   40.4220 N   0  0  0  0  0  0  0  0  0  0  0  0
   45.3577   33.2076   42.5858 H   0  0  0  0  0  0  0  0  0  0  0  0
   44.8771   35.8006   41.8640 H   0  0  0  0  0  0  0  0  0  0  0  0
   45.6093   36.7109   43.8415 H   0  0  0  0  0  0  0  0  0  0  0  0
   43.7825   36.5619   43.9239 H   0  0  0  0  0  0  0  0  0  0  0  0
   45.2683   36.0020   45.9849 H   0  0  0  0  0  0  0  0  0  0  0  0
   43.8206   34.9904   45.5025 H   0  0  0  0  0  0  0  0  0  0  0  0
   46.2783   34.0203   46.1305 H   0  0  0  0  0  0  0  0  0  0  0  0
   45.0203   33.2073   45.1066 H   0  0  0  0  0  0  0  0  0  0  0  0
   47.2213   33.1463   44.0224 H   0  0  0  0  0  0  0  0  0  0  0  0
   47.3032   34.9471   44.0976 H   0  0  0  0  0  0  0  0  0  0  0  0
   42.8233   35.9910   41.2731 H   0  0  0  0  0  0  0  0  0  0  0  0
   42.9920   34.3718   43.6171 H   0  0  0  0  0  0  0  0  0  0  0  0
   43.0911   32.1480   40.3684 H   0  0  0  0  0  0  0  0  0  0  0  0
   43.9837   33.6021   40.0415 H   0  0  0  0  0  0  0  0  0  0  0  0
   41.1060   33.3438   41.2237 H   0  0  0  0  0  0  0  0  0  0  0  0
   41.4844   35.4791   43.4349 H   0  0  0  0  0  0  0  0  0  0  0  0
   40.5068   35.4879   37.3397 H   0  0  0  0  0  0  0  0  0  0  0  0
   38.4211   34.8025   36.2444 H   0  0  0  0  0  0  0  0  0  0  0  0
   37.1112   32.9624   37.3405 H   0  0  0  0  0  0  0  0  0  0  0  0
   37.9331   31.9199   39.4216 H   0  0  0  0  0  0  0  0  0  0  0  0
   47.9347   35.7205   42.9529 H   0  0  0  0  0  0  0  0  0  0  0  0
   49.6851   36.2671   41.1990 H   0  0  0  0  0  0  0  0  0  0  0  0
   47.5589   33.7021   38.4819 H   0  0  0  0  0  0  0  0  0  0  0  0
  1  2  1  0
  1  6  1  0
  2  3  1  0
  3  4  1  0
  5  4  1  0
  6  5  1  0
  7 12  1  0
  7  8  1  0
  8  2  1  0
  9  8  1  0
 10 11  1  0
 10  9  1  0
 11  7  1  0
 13 11  1  0
 14 19  1  0
 14 13  1  0
 15 14  2  0
 16 17  2  0
 16 15  1  0
 17 18  1  0
 18 19  2  0
 20 21  2  0
 20  1  1  0
 22 21  1  0
 23 22  2  0
 24 23  1  0
 24 25  2  0
 25 20  1  0
  1 26  1  6
  2 27  1  6
  3 28  1  0
  3 29  1  0
  4 30  1  0
  4 31  1  0
  5 32  1  0
  5 33  1  0
  6 34  1  0
  6 35  1  0
  7 36  1  6
  8 37  1  1
 10 38  1  0
 10 39  1  0
 11 40  1  1
 12 41  1  0
 15 42  1  0
 16 43  1  0
 17 44  1  0
 18 45  1  0
 21 46  1  0
 22 47  1  0
 24 48  1  0
M  ISO  8  26  13  27  13  28  13  29  13  30  13  31  13  32  13  33  13
M  ISO  8  34  13  35  13  36  13  37  13  38  13  39  13  40  13  41   3
M  ISO  7  42  14  43  14  44  14  45  14  46  14  47  14  48  14
M  END
>  <minimizedAffinity>  (1) 
-6.54439783

>  <minimizedRMSD>  (1) 
1.79714751

$$$$
