
     RDKit          3D

 40 43  0  0  0  0  0  0  0  0999 V2000
   48.2320   30.9430   44.4940 Cl  0  0  0  0  0  0  0  0  0  0  0  0
   47.0970   31.9520   45.4140 C   0  0  0  0  0  0  0  0  0  0  0  0
   46.4530   32.9620   44.7380 C   0  0  0  0  0  0  0  0  0  0  0  0
   45.5870   33.7270   45.4450 C   0  0  0  0  0  0  0  0  0  0  0  0
   45.3900   33.4620   46.8120 C   0  0  0  0  0  0  0  0  0  0  0  0
   46.0540   32.4370   47.4660 C   0  0  0  0  0  0  0  0  0  0  0  0
   46.9420   31.6490   46.7470 C   0  0  0  0  0  0  0  0  0  0  0  0
   48.7380   32.3130   48.7080 F   0  0  0  0  0  0  0  0  0  0  0  0
   48.5630   31.0080   48.3450 C   0  0  0  0  0  0  0  0  0  0  0  0
   47.6850   30.5470   47.3690 C   0  0  0  0  0  0  0  0  0  0  0  0
   47.5990   29.2050   47.0960 C   0  0  0  0  0  0  0  0  0  0  0  0
   48.3980   28.3340   47.8050 C   0  0  0  0  0  0  0  0  0  0  0  0
   49.2770   28.7640   48.7770 C   0  0  0  0  0  0  0  0  0  0  0  0
   49.3610   30.1080   49.0500 C   0  0  0  0  0  0  0  0  0  0  0  0
   46.3040   34.3200   41.3720 C   0  0  0  0  0  0  0  0  0  0  0  0
   47.2550   33.5570   40.6410 C   0  0  0  0  0  0  0  0  0  0  0  0
   47.9300   32.5690   41.3650 C   0  0  0  0  0  0  0  0  0  0  0  0
   47.6360   32.4110   42.6900 N   0  0  0  0  0  0  0  0  0  0  0  0
   46.7100   33.1820   43.3220 C   0  0  0  0  0  0  0  0  0  0  0  0
   46.0570   34.1250   42.6570 N   0  0  0  0  0  0  0  0  0  0  0  0
   47.4690   33.8520   39.2370 C   0  0  0  0  0  0  0  0  0  0  0  0
   46.5920   33.4620   38.2460 C   0  0  0  0  0  0  0  0  0  0  0  0
   47.0580   33.8770   37.0600 N   0  0  0  0  0  0  0  0  0  0  0  0
   48.2040   34.5210   37.2390 C   0  0  0  0  0  0  0  0  0  0  0  0
   48.4270   34.4910   38.5540 N   0  0  0  0  0  0  0  0  0  0  0  0
   48.8930   31.8020   40.5960 C   0  0  0  0  0  0  0  0  0  0  0  0
   49.3440   30.7340   41.3810 F   0  0  0  0  0  0  0  0  0  0  0  0
   49.9970   32.6000   40.4260 F   0  0  0  0  0  0  0  0  0  0  0  0
   48.3790   31.2670   39.4430 F   0  0  0  0  0  0  0  0  0  0  0  0
   45.0430   34.5477   44.9545 H   0  0  0  0  0  0  0  0  0  0  0  0
   44.6864   34.0884   47.3799 H   0  0  0  0  0  0  0  0  0  0  0  0
   45.8805   32.2509   48.5362 H   0  0  0  0  0  0  0  0  0  0  0  0
   46.9065   28.8319   46.3270 H   0  0  0  0  0  0  0  0  0  0  0  0
   48.3323   27.2576   47.5879 H   0  0  0  0  0  0  0  0  0  0  0  0
   49.9008   28.0425   49.3249 H   0  0  0  0  0  0  0  0  0  0  0  0
   50.0551   30.4724   49.8217 H   0  0  0  0  0  0  0  0  0  0  0  0
   45.7477   35.1091   40.8448 H   0  0  0  0  0  0  0  0  0  0  0  0
   45.6595   32.9003   38.4040 H   0  0  0  0  0  0  0  0  0  0  0  0
   46.5984   33.7205   36.1516 H   0  0  0  0  0  0  0  0  0  0  0  0
   48.8367   34.9823   36.4664 H   0  0  0  0  0  0  0  0  0  0  0  0
  1  2  1  0
  2  7  2  0
  3  2  1  0
  3  4  2  0
  4  5  1  0
  5  6  2  0
  7 10  1  0
  7  6  1  0
  9  8  1  0
  9 14  2  0
 10  9  1  0
 11 10  2  0
 11 12  1  0
 12 13  2  0
 13 14  1  0
 15 20  2  0
 16 17  2  0
 16 15  1  0
 17 18  1  0
 18 19  2  0
 19  3  1  0
 20 19  1  0
 21 16  1  0
 22 21  2  0
 23 24  1  0
 23 22  1  0
 24 25  2  0
 25 21  1  0
 26 17  1  0
 26 27  1  0
 28 26  1  0
 29 26  1  0
  4 30  1  0
  5 31  1  0
  6 32  1  0
 11 33  1  0
 12 34  1  0
 13 35  1  0
 14 36  1  0
 15 37  1  0
 22 38  1  0
 23 39  1  0
 24 40  1  0
M  ISO  8  30  14  31  14  32  14  33  14  34  14  35  14  36  14  37  14
M  ISO  3  38  14  39   9  40  14
M  END
>  <minimizedAffinity>  (1) 
-5.68596315

>  <minimizedRMSD>  (1) 
3.44444966

$$$$
