
     RDKit          3D

 43 45  0  0  1  0  0  0  0  0999 V2000
   46.0760   33.8070   43.2100 C   0  0  2  0  0  0  0  0  0  0  0  0
   45.2740   34.8690   42.5400 C   0  0  2  0  0  0  0  0  0  0  0  0
   45.1050   36.0840   43.3760 C   0  0  0  0  0  0  0  0  0  0  0  0
   44.5900   35.8150   44.7680 C   0  0  0  0  0  0  0  0  0  0  0  0
   45.0870   34.5310   45.3670 C   0  0  0  0  0  0  0  0  0  0  0  0
   46.3440   34.0420   44.6710 C   0  0  0  0  0  0  0  0  0  0  0  0
   43.0170   35.3040   41.4920 C   0  0  1  0  0  0  0  0  0  0  0  0
   43.9350   34.3150   42.1070 C   0  0  1  0  0  0  0  0  0  0  0  0
   44.1670   33.2940   41.1930 O   0  0  0  0  0  0  0  0  0  0  0  0
   43.8410   33.7600   39.9320 C   0  0  0  0  0  0  0  0  0  0  0  0
   42.5780   34.5610   40.2290 C   0  0  2  0  0  0  0  0  0  0  0  0
   41.8960   35.5780   42.2460 O   0  0  0  0  0  0  0  0  0  0  0  0
   42.2840   35.4610   39.2230 O   0  0  0  0  0  0  0  0  0  0  0  0
   41.0620   35.5110   38.5520 C   0  0  0  0  0  0  0  0  0  0  0  0
   39.9970   35.1670   39.1200 O   0  0  0  0  0  0  0  0  0  0  0  0
   41.0430   35.9580   37.2080 N   0  0  0  0  0  0  0  0  0  0  0  0
   47.3640   33.5610   42.5330 C   0  0  0  0  0  0  0  0  0  0  0  0
   48.4220   34.3610   42.9710 C   0  0  0  0  0  0  0  0  0  0  0  0
   49.6970   34.2180   42.4050 C   0  0  0  0  0  0  0  0  0  0  0  0
   49.8070   33.2510   41.4110 N   0  0  0  0  0  0  0  0  0  0  0  0
   48.7570   32.4970   41.0160 C   0  0  0  0  0  0  0  0  0  0  0  0
   47.5340   32.6490   41.5740 N   0  0  0  0  0  0  0  0  0  0  0  0
   45.4291   32.9209   43.1304 H   0  0  0  0  0  0  0  0  0  0  0  0
   45.8380   35.1879   41.6510 H   0  0  0  0  0  0  0  0  0  0  0  0
   46.0821   36.5821   43.4608 H   0  0  0  0  0  0  0  0  0  0  0  0
   44.3486   36.7068   42.8760 H   0  0  0  0  0  0  0  0  0  0  0  0
   44.9039   36.6443   45.4189 H   0  0  0  0  0  0  0  0  0  0  0  0
   43.4963   35.7269   44.6905 H   0  0  0  0  0  0  0  0  0  0  0  0
   45.3091   34.6957   46.4317 H   0  0  0  0  0  0  0  0  0  0  0  0
   44.3050   33.7673   45.2435 H   0  0  0  0  0  0  0  0  0  0  0  0
   46.6726   33.1005   45.1353 H   0  0  0  0  0  0  0  0  0  0  0  0
   47.1283   34.8067   44.7716 H   0  0  0  0  0  0  0  0  0  0  0  0
   43.5084   36.2783   41.3531 H   0  0  0  0  0  0  0  0  0  0  0  0
   43.4312   33.9677   43.0211 H   0  0  0  0  0  0  0  0  0  0  0  0
   43.6390   32.9323   39.2362 H   0  0  0  0  0  0  0  0  0  0  0  0
   44.6389   34.3397   39.4449 H   0  0  0  0  0  0  0  0  0  0  0  0
   41.6711   33.9462   40.3268 H   0  0  0  0  0  0  0  0  0  0  0  0
   42.1236   35.5224   43.2079 H   0  0  0  0  0  0  0  0  0  0  0  0
   41.9198   36.2392   36.7463 H   0  0  0  0  0  0  0  0  0  0  0  0
   40.1524   36.0018   36.6924 H   0  0  0  0  0  0  0  0  0  0  0  0
   48.2544   35.1059   43.7628 H   0  0  0  0  0  0  0  0  0  0  0  0
   50.5531   34.8297   42.7256 H   0  0  0  0  0  0  0  0  0  0  0  0
   48.8997   31.7453   40.2256 H   0  0  0  0  0  0  0  0  0  0  0  0
  1  6  1  0
  2  1  1  0
  2  3  1  0
  3  4  1  0
  4  5  1  0
  6  5  1  0
  7  8  1  0
  7 12  1  0
  8  2  1  0
  9  8  1  0
 10 11  1  0
 10  9  1  0
 11  7  1  0
 13 11  1  0
 14 15  2  0
 14 13  1  0
 16 14  1  0
 17 18  2  0
 17  1  1  0
 19 18  1  0
 20 19  2  0
 21 20  1  0
 21 22  2  0
 22 17  1  0
  1 23  1  1
  2 24  1  6
  3 25  1  0
  3 26  1  0
  4 27  1  0
  4 28  1  0
  5 29  1  0
  5 30  1  0
  6 31  1  0
  6 32  1  0
  7 33  1  6
  8 34  1  1
 10 35  1  0
 10 36  1  0
 11 37  1  1
 12 38  1  0
 16 39  1  0
 16 40  1  0
 18 41  1  0
 19 42  1  0
 21 43  1  0
M  ISO  8  23  13  24  13  25  13  26  13  27  13  28  13  29  13  30  13
M  ISO  8  31  13  32  13  33  13  34  13  35  13  36  13  37  13  38   3
M  ISO  3  41  14  42  14  43  14
M  END
>  <minimizedAffinity>  (1) 
-6.01622772

>  <minimizedRMSD>  (1) 
0.419416428

$$$$
