
     RDKit          3D

 47 50  0  0  1  0  0  0  0  0999 V2000
   45.9390   33.6810   43.2780 C   0  0  2  0  0  0  0  0  0  0  0  0
   45.0180   34.6990   42.6970 C   0  0  2  0  0  0  0  0  0  0  0  0
   44.9410   35.9390   43.5080 C   0  0  0  0  0  0  0  0  0  0  0  0
   44.6430   35.7150   44.9660 C   0  0  0  0  0  0  0  0  0  0  0  0
   45.2540   34.4670   45.5310 C   0  0  0  0  0  0  0  0  0  0  0  0
   46.4040   33.9650   44.6760 C   0  0  0  0  0  0  0  0  0  0  0  0
   42.7750   34.8480   41.5440 C   0  0  1  0  0  0  0  0  0  0  0  0
   43.6460   34.1020   42.4850 C   0  0  1  0  0  0  0  0  0  0  0  0
   43.8110   32.8060   42.0070 O   0  0  0  0  0  0  0  0  0  0  0  0
   43.4870   32.7940   40.6670 C   0  0  0  0  0  0  0  0  0  0  0  0
   42.2820   33.7160   40.6380 C   0  0  2  0  0  0  0  0  0  0  0  0
   41.6810   35.4390   42.1350 O   0  0  0  0  0  0  0  0  0  0  0  0
   42.0230   34.2030   39.3660 O   0  0  0  0  0  0  0  0  0  0  0  0
   40.8830   33.7360   38.7240 C   0  0  0  0  0  0  0  0  0  0  0  0
   39.9090   34.6040   38.2730 C   0  0  0  0  0  0  0  0  0  0  0  0
   38.7400   34.2300   37.6230 C   0  0  0  0  0  0  0  0  0  0  0  0
   38.5530   32.9090   37.4190 N   0  0  0  0  0  0  0  0  0  0  0  0
   39.4890   32.0430   37.8490 C   0  0  0  0  0  0  0  0  0  0  0  0
   40.6160   32.4210   38.4780 N   0  0  0  0  0  0  0  0  0  0  0  0
   47.1200   33.4400   42.4270 C   0  0  0  0  0  0  0  0  0  0  0  0
   48.3240   33.9180   42.9460 C   0  0  0  0  0  0  0  0  0  0  0  0
   49.5190   33.7450   42.2300 C   0  0  0  0  0  0  0  0  0  0  0  0
   49.3980   33.0850   41.0130 N   0  0  0  0  0  0  0  0  0  0  0  0
   48.2110   32.6380   40.5460 C   0  0  0  0  0  0  0  0  0  0  0  0
   47.0710   32.8140   41.2500 N   0  0  0  0  0  0  0  0  0  0  0  0
   45.3119   32.7784   43.3223 H   0  0  0  0  0  0  0  0  0  0  0  0
   45.4361   34.9951   41.7236 H   0  0  0  0  0  0  0  0  0  0  0  0
   45.9067   36.4601   43.4310 H   0  0  0  0  0  0  0  0  0  0  0  0
   44.1020   36.5247   43.1042 H   0  0  0  0  0  0  0  0  0  0  0  0
   45.0275   36.5754   45.5334 H   0  0  0  0  0  0  0  0  0  0  0  0
   43.5523   35.6019   45.0532 H   0  0  0  0  0  0  0  0  0  0  0  0
   45.6294   34.6808   46.5426 H   0  0  0  0  0  0  0  0  0  0  0  0
   44.4789   33.6868   45.5535 H   0  0  0  0  0  0  0  0  0  0  0  0
   46.8063   33.0414   45.1177 H   0  0  0  0  0  0  0  0  0  0  0  0
   47.1832   34.7406   44.6395 H   0  0  0  0  0  0  0  0  0  0  0  0
   43.3148   35.6768   41.0627 H   0  0  0  0  0  0  0  0  0  0  0  0
   43.1354   34.1411   43.4585 H   0  0  0  0  0  0  0  0  0  0  0  0
   44.3091   33.1879   40.0514 H   0  0  0  0  0  0  0  0  0  0  0  0
   43.2929   31.7899   40.2618 H   0  0  0  0  0  0  0  0  0  0  0  0
   41.3453   33.2292   40.9472 H   0  0  0  0  0  0  0  0  0  0  0  0
   41.7713   35.3902   43.1197 H   0  0  0  0  0  0  0  0  0  0  0  0
   40.0719   35.6787   38.4421 H   0  0  0  0  0  0  0  0  0  0  0  0
   38.0019   34.9747   37.2904 H   0  0  0  0  0  0  0  0  0  0  0  0
   39.3235   30.9692   37.6769 H   0  0  0  0  0  0  0  0  0  0  0  0
   48.3367   34.4316   43.9186 H   0  0  0  0  0  0  0  0  0  0  0  0
   50.4866   34.1077   42.6071 H   0  0  0  0  0  0  0  0  0  0  0  0
   48.1722   32.1217   39.5755 H   0  0  0  0  0  0  0  0  0  0  0  0
  1  6  1  0
  2  1  1  0
  2  3  1  0
  3  4  1  0
  4  5  1  0
  6  5  1  0
  7 12  1  0
  7  8  1  0
  8  2  1  0
  9  8  1  0
 10  9  1  0
 11 10  1  0
 11  7  1  0
 13 11  1  0
 14 13  1  0
 15 14  2  0
 16 15  1  0
 17 16  2  0
 17 18  1  0
 18 19  2  0
 19 14  1  0
 20 21  2  0
 20  1  1  0
 22 21  1  0
 23 22  2  0
 24 23  1  0
 24 25  2  0
 25 20  1  0
  1 26  1  1
  2 27  1  6
  3 28  1  0
  3 29  1  0
  4 30  1  0
  4 31  1  0
  5 32  1  0
  5 33  1  0
  6 34  1  0
  6 35  1  0
  7 36  1  6
  8 37  1  1
 10 38  1  0
 10 39  1  0
 11 40  1  1
 12 41  1  0
 15 42  1  0
 16 43  1  0
 18 44  1  0
 21 45  1  0
 22 46  1  0
 24 47  1  0
M  ISO  8  26  13  27  13  28  13  29  13  30  13  31  13  32  13  33  13
M  ISO  8  34  13  35  13  36  13  37  13  38  13  39  13  40  13  41   3
M  ISO  6  42  14  43  14  44  14  45  14  46  14  47  14
M  END
>  <minimizedAffinity>  (1) 
-5.87399769

>  <minimizedRMSD>  (1) 
1.34701252

$$$$
