
     RDKit          3D

 32 33  0  0  0  0  0  0  0  0999 V2000
   43.8250   35.1090   41.2980 C   0  0  0  0  0  0  0  0  0  0  0  0
   42.5750   34.9760   40.8830 C   0  0  0  0  0  0  0  0  0  0  0  0
   44.2110   35.8940   43.6270 C   0  0  0  0  0  0  0  0  0  0  0  0
   44.3020   34.8900   42.6740 C   0  0  0  0  0  0  0  0  0  0  0  0
   44.8540   33.6720   43.0280 C   0  0  0  0  0  0  0  0  0  0  0  0
   45.2830   33.5250   44.3080 N   0  0  0  0  0  0  0  0  0  0  0  0
   45.1930   34.4990   45.2230 C   0  0  0  0  0  0  0  0  0  0  0  0
   44.6590   35.6710   44.8770 N   0  0  0  0  0  0  0  0  0  0  0  0
   42.2870   35.2260   39.4130 C   0  0  0  0  0  0  0  0  0  0  0  0
   40.8850   35.4560   39.1620 N   0  0  0  0  0  0  0  0  0  0  0  0
   40.4490   34.9180   37.9170 C   0  0  0  0  0  0  0  0  0  0  0  0
   39.6640   33.6610   37.9490 C   0  0  0  0  0  0  0  0  0  0  0  0
   38.4490   33.9410   38.8410 C   0  0  0  0  0  0  0  0  0  0  0  0
   39.0350   34.1570   40.2080 C   0  0  0  0  0  0  0  0  0  0  0  0
   40.0470   35.2410   40.2950 C   0  0  0  0  0  0  0  0  0  0  0  0
   44.5730   35.4094   40.5495 H   0  0  0  0  0  0  0  0  0  0  0  0
   41.7718   34.6938   41.5796 H   0  0  0  0  0  0  0  0  0  0  0  0
   43.7746   36.8685   43.3625 H   0  0  0  0  0  0  0  0  0  0  0  0
   44.9422   32.8526   42.2994 H   0  0  0  0  0  0  0  0  0  0  0  0
   45.5555   34.3340   46.2484 H   0  0  0  0  0  0  0  0  0  0  0  0
   42.8546   36.1098   39.0865 H   0  0  0  0  0  0  0  0  0  0  0  0
   42.5865   34.3275   38.8535 H   0  0  0  0  0  0  0  0  0  0  0  0
   41.3454   34.7306   37.3077 H   0  0  0  0  0  0  0  0  0  0  0  0
   39.7543   35.6706   37.5158 H   0  0  0  0  0  0  0  0  0  0  0  0
   39.3380   33.3886   36.9344 H   0  0  0  0  0  0  0  0  0  0  0  0
   40.2624   32.8233   38.3365 H   0  0  0  0  0  0  0  0  0  0  0  0
   37.9137   34.8394   38.4999 H   0  0  0  0  0  0  0  0  0  0  0  0
   37.7157   33.1213   38.8224 H   0  0  0  0  0  0  0  0  0  0  0  0
   38.2129   34.4021   40.8965 H   0  0  0  0  0  0  0  0  0  0  0  0
   39.5601   33.2258   40.4672 H   0  0  0  0  0  0  0  0  0  0  0  0
   40.7013   35.0122   41.1492 H   0  0  0  0  0  0  0  0  0  0  0  0
   39.4579   36.1656   40.3853 H   0  0  0  0  0  0  0  0  0  0  0  0
  1  4  1  0
  2  1  2  0
  3  8  2  0
  4  5  2  0
  4  3  1  0
  5  6  1  0
  6  7  2  0
  8  7  1  0
  9  2  1  0
 10  9  1  0
 10 15  1  0
 11 12  1  0
 11 10  1  0
 12 13  1  0
 13 14  1  0
 14 15  1  0
  1 16  1  0
  2 17  1  0
  3 18  1  0
  5 19  1  0
  7 20  1  0
  9 21  1  0
  9 22  1  0
 11 23  1  0
 11 24  1  0
 12 25  1  0
 12 26  1  0
 13 27  1  0
 13 28  1  0
 14 29  1  0
 14 30  1  0
 15 31  1  0
 15 32  1  0
M  ISO  8  18  14  19  14  20  14  21   8  22   8  23  13  24  13  25  13
M  ISO  7  26  13  27  13  28  13  29  13  30  13  31  13  32  13
M  END
>  <minimizedAffinity>  (1) 
-4.87545538

>  <minimizedRMSD>  (1) 
1.17002392

$$$$
