
     RDKit          3D

 42 45  0  0  0  0  0  0  0  0999 V2000
   44.6560   35.0150   43.4830 C   0  0  0  0  0  0  0  0  0  0  0  0
   43.8870   34.4460   42.4300 C   0  0  0  0  0  0  0  0  0  0  0  0
   43.9610   33.0830   42.2200 C   0  0  0  0  0  0  0  0  0  0  0  0
   44.7800   32.3580   43.0490 N   0  0  0  0  0  0  0  0  0  0  0  0
   45.4850   32.9200   44.0240 C   0  0  0  0  0  0  0  0  0  0  0  0
   45.4260   34.2380   44.2430 N   0  0  0  0  0  0  0  0  0  0  0  0
   46.3420   32.0790   44.8730 C   0  0  0  0  0  0  0  0  0  0  0  0
   46.9730   30.9630   44.3580 C   0  0  0  0  0  0  0  0  0  0  0  0
   47.7680   30.1970   45.1790 C   0  0  0  0  0  0  0  0  0  0  0  0
   47.9110   30.5690   46.5030 C   0  0  0  0  0  0  0  0  0  0  0  0
   48.6890   29.8180   47.3110 N   0  0  0  0  0  0  0  0  0  0  0  0
   48.8610   30.1380   48.6100 C   0  0  0  0  0  0  0  0  0  0  0  0
   48.2120   31.2710   49.1090 C   0  0  0  0  0  0  0  0  0  0  0  0
   47.3950   32.0940   48.3440 C   0  0  0  0  0  0  0  0  0  0  0  0
   47.2850   31.6810   47.0300 C   0  0  0  0  0  0  0  0  0  0  0  0
   46.4740   32.4690   46.2050 C   0  0  0  0  0  0  0  0  0  0  0  0
   43.0200   35.2610   41.5670 C   0  0  0  0  0  0  0  0  0  0  0  0
   41.7100   35.3510   41.6810 C   0  0  0  0  0  0  0  0  0  0  0  0
   40.8780   36.1890   40.7860 C   0  0  0  0  0  0  0  0  0  0  0  0
   41.5460   36.1350   38.0740 F   0  0  0  0  0  0  0  0  0  0  0  0
   40.4960   35.3760   38.4770 C   0  0  0  0  0  0  0  0  0  0  0  0
   40.1270   35.3750   39.8330 C   0  0  0  0  0  0  0  0  0  0  0  0
   39.0580   34.5710   40.0970 C   0  0  0  0  0  0  0  0  0  0  0  0
   38.3400   33.8000   39.2200 C   0  0  0  0  0  0  0  0  0  0  0  0
   38.7890   33.8690   37.8910 C   0  0  0  0  0  0  0  0  0  0  0  0
   39.8510   34.6380   37.4820 C   0  0  0  0  0  0  0  0  0  0  0  0
   44.6146   36.0982   43.6698 H   0  0  0  0  0  0  0  0  0  0  0  0
   43.3853   32.5969   41.4186 H   0  0  0  0  0  0  0  0  0  0  0  0
   46.8409   30.6893   43.3008 H   0  0  0  0  0  0  0  0  0  0  0  0
   48.2804   29.3051   44.7893 H   0  0  0  0  0  0  0  0  0  0  0  0
   49.4974   29.5215   49.2618 H   0  0  0  0  0  0  0  0  0  0  0  0
   48.3566   31.5258   50.1693 H   0  0  0  0  0  0  0  0  0  0  0  0
   46.8872   32.9841   48.7438 H   0  0  0  0  0  0  0  0  0  0  0  0
   45.9607   33.3614   46.5926 H   0  0  0  0  0  0  0  0  0  0  0  0
   43.5012   35.8399   40.7649 H   0  0  0  0  0  0  0  0  0  0  0  0
   41.2117   34.7779   42.4768 H   0  0  0  0  0  0  0  0  0  0  0  0
   40.1699   36.7691   41.3961 H   0  0  0  0  0  0  0  0  0  0  0  0
   41.5451   36.8552   40.2193 H   0  0  0  0  0  0  0  0  0  0  0  0
   38.7302   34.5367   41.1465 H   0  0  0  0  0  0  0  0  0  0  0  0
   37.4857   33.1805   39.5304 H   0  0  0  0  0  0  0  0  0  0  0  0
   38.2593   33.2725   37.1336 H   0  0  0  0  0  0  0  0  0  0  0  0
   40.1749   34.6708   36.4313 H   0  0  0  0  0  0  0  0  0  0  0  0
  1  6  2  0
  2  1  1  0
  3  2  2  0
  3  4  1  0
  4  5  2  0
  5  6  1  0
  5  7  1  0
  7 16  1  0
  8  7  2  0
  8  9  1  0
  9 10  2  0
 10 15  1  0
 10 11  1  0
 11 12  2  0
 12 13  1  0
 14 13  2  0
 15 14  1  0
 16 15  2  0
 17 18  2  0
 17  2  1  0
 19 18  1  0
 20 21  1  0
 21 22  2  0
 22 23  1  0
 22 19  1  0
 24 23  2  0
 25 24  1  0
 26 25  2  0
 26 21  1  0
  1 27  1  0
  3 28  1  0
  8 29  1  0
  9 30  1  0
 12 31  1  0
 13 32  1  0
 14 33  1  0
 16 34  1  0
 17 35  1  0
 18 36  1  0
 19 37  1  0
 19 38  1  0
 23 39  1  0
 24 40  1  0
 25 41  1  0
 26 42  1  0
M  ISO  8  27  14  28  14  29  14  30  14  31  14  32  14  33  14  34  14
M  ISO  6  37   8  38   8  39  14  40  14  41  14  42  14
M  END
>  <minimizedAffinity>  (1) 
-7.03372908

>  <minimizedRMSD>  (1) 
1.89371753

$$$$
