
     RDKit          3D

 43 46  0  0  0  0  0  0  0  0999 V2000
   44.9910   34.8850   44.4580 C   0  0  0  0  0  0  0  0  0  0  0  0
   44.7770   34.3080   43.1990 C   0  0  0  0  0  0  0  0  0  0  0  0
   45.0000   32.9530   43.0850 C   0  0  0  0  0  0  0  0  0  0  0  0
   45.4060   32.2850   44.1880 N   0  0  0  0  0  0  0  0  0  0  0  0
   45.6080   32.8170   45.3630 C   0  0  0  0  0  0  0  0  0  0  0  0
   45.3950   34.1230   45.4820 N   0  0  0  0  0  0  0  0  0  0  0  0
   46.0390   32.2240   46.6250 C   0  0  0  0  0  0  0  0  0  0  0  0
   45.5360   32.6050   47.8760 C   0  0  0  0  0  0  0  0  0  0  0  0
   45.9070   32.0810   49.0760 C   0  0  0  0  0  0  0  0  0  0  0  0
   46.8530   31.0900   49.1030 C   0  0  0  0  0  0  0  0  0  0  0  0
   47.3970   30.6580   47.9200 C   0  0  0  0  0  0  0  0  0  0  0  0
   48.3410   29.6640   48.0150 C   0  0  0  0  0  0  0  0  0  0  0  0
   48.9370   29.1720   46.8810 C   0  0  0  0  0  0  0  0  0  0  0  0
   48.5320   29.7320   45.6680 C   0  0  0  0  0  0  0  0  0  0  0  0
   47.5880   30.7200   45.6400 C   0  0  0  0  0  0  0  0  0  0  0  0
   46.9820   31.2270   46.7460 C   0  0  0  0  0  0  0  0  0  0  0  0
   44.3280   35.0880   42.0510 C   0  0  0  0  0  0  0  0  0  0  0  0
   43.1790   34.9140   41.4210 C   0  0  0  0  0  0  0  0  0  0  0  0
   42.7830   35.7520   40.2530 C   0  0  0  0  0  0  0  0  0  0  0  0
   42.2990   35.8670   37.5060 F   0  0  0  0  0  0  0  0  0  0  0  0
   41.3170   35.3660   38.3010 C   0  0  0  0  0  0  0  0  0  0  0  0
   41.5190   35.2950   39.6880 C   0  0  0  0  0  0  0  0  0  0  0  0
   40.4490   34.7760   40.3530 C   0  0  0  0  0  0  0  0  0  0  0  0
   39.2580   34.3380   39.8420 C   0  0  0  0  0  0  0  0  0  0  0  0
   39.1500   34.4490   38.4540 C   0  0  0  0  0  0  0  0  0  0  0  0
   40.1480   34.9530   37.6560 C   0  0  0  0  0  0  0  0  0  0  0  0
   44.8272   35.9628   44.6048 H   0  0  0  0  0  0  0  0  0  0  0  0
   44.8525   32.4318   42.1276 H   0  0  0  0  0  0  0  0  0  0  0  0
   44.7737   33.3979   47.8894 H   0  0  0  0  0  0  0  0  0  0  0  0
   45.4546   32.4472   50.0094 H   0  0  0  0  0  0  0  0  0  0  0  0
   47.1713   30.6477   50.0585 H   0  0  0  0  0  0  0  0  0  0  0  0
   48.6191   29.2624   49.0006 H   0  0  0  0  0  0  0  0  0  0  0  0
   49.6955   28.3766   46.9255 H   0  0  0  0  0  0  0  0  0  0  0  0
   48.9763   29.3752   44.7271 H   0  0  0  0  0  0  0  0  0  0  0  0
   47.3006   31.1307   44.6608 H   0  0  0  0  0  0  0  0  0  0  0  0
   44.9957   35.8804   41.6819 H   0  0  0  0  0  0  0  0  0  0  0  0
   42.4940   34.1269   41.7691 H   0  0  0  0  0  0  0  0  0  0  0  0
   42.6743   36.7967   40.5799 H   0  0  0  0  0  0  0  0  0  0  0  0
   43.5626   35.6693   39.4814 H   0  0  0  0  0  0  0  0  0  0  0  0
   40.5571   34.6990   41.4450 H   0  0  0  0  0  0  0  0  0  0  0  0
   38.4526   33.9322   40.4718 H   0  0  0  0  0  0  0  0  0  0  0  0
   38.2175   34.1156   37.9751 H   0  0  0  0  0  0  0  0  0  0  0  0
   40.0329   35.0277   36.5646 H   0  0  0  0  0  0  0  0  0  0  0  0
  1  6  2  0
  2  1  1  0
  3  2  2  0
  3  4  1  0
  4  5  2  0
  5  6  1  0
  5  7  1  0
  7 16  1  0
  7  8  2  0
  8  9  1  0
  9 10  2  0
 11 12  2  0
 11 10  1  0
 13 12  1  0
 14 13  2  0
 15 14  1  0
 15 16  2  0
 16 11  1  0
 17  2  1  0
 18 17  2  0
 19 18  1  0
 20 21  1  0
 21 22  2  0
 22 19  1  0
 22 23  1  0
 24 23  2  0
 25 24  1  0
 26 21  1  0
 26 25  2  0
  1 27  1  0
  3 28  1  0
  8 29  1  0
  9 30  1  0
 10 31  1  0
 12 32  1  0
 13 33  1  0
 14 34  1  0
 15 35  1  0
 17 36  1  0
 18 37  1  0
 19 38  1  0
 19 39  1  0
 23 40  1  0
 24 41  1  0
 25 42  1  0
 26 43  1  0
M  ISO  8  27  14  28  14  29  14  30  14  31  14  32  14  33  14  34  14
M  ISO  7  35  14  38   8  39   8  40  14  41  14  42  14  43  14
M  END
>  <minimizedAffinity>  (1) 
-6.98641872

>  <minimizedRMSD>  (1) 
1.57694852

$$$$
