
     RDKit          3D

 41 43  0  0  0  0  0  0  0  0999 V2000
   44.8120   34.9530   45.0410 C   0  0  0  0  0  0  0  0  0  0  0  0
   44.9860   34.3370   43.7730 C   0  0  0  0  0  0  0  0  0  0  0  0
   45.5370   33.0700   43.7450 C   0  0  0  0  0  0  0  0  0  0  0  0
   45.8770   32.4970   44.9350 N   0  0  0  0  0  0  0  0  0  0  0  0
   45.7020   33.0980   46.1050 C   0  0  0  0  0  0  0  0  0  0  0  0
   45.1690   34.3260   46.1540 N   0  0  0  0  0  0  0  0  0  0  0  0
   46.0470   32.5220   47.3580 N   0  0  0  0  0  0  0  0  0  0  0  0
   47.4050   32.3990   47.8520 C   0  0  0  0  0  0  0  0  0  0  0  0
   47.5480   31.2620   48.8320 C   0  0  0  0  0  0  0  0  0  0  0  0
   46.6630   30.1660   48.6310 N   0  0  0  0  0  0  0  0  0  0  0  0
   45.3190   30.4780   48.2760 C   0  0  0  0  0  0  0  0  0  0  0  0
   45.1120   31.9770   48.3230 C   0  0  0  0  0  0  0  0  0  0  0  0
   44.5950   35.0190   42.5410 C   0  0  0  0  0  0  0  0  0  0  0  0
   43.5130   34.7910   41.8540 C   0  0  0  0  0  0  0  0  0  0  0  0
   43.1630   35.5210   40.5950 C   0  0  0  0  0  0  0  0  0  0  0  0
   42.4380   35.7340   37.9070 F   0  0  0  0  0  0  0  0  0  0  0  0
   41.5090   35.2950   38.7790 C   0  0  0  0  0  0  0  0  0  0  0  0
   41.8300   35.1730   40.1460 C   0  0  0  0  0  0  0  0  0  0  0  0
   40.7870   34.7190   40.8960 C   0  0  0  0  0  0  0  0  0  0  0  0
   39.5190   34.3830   40.4950 C   0  0  0  0  0  0  0  0  0  0  0  0
   39.2890   34.5350   39.1190 C   0  0  0  0  0  0  0  0  0  0  0  0
   40.2550   34.9840   38.2490 C   0  0  0  0  0  0  0  0  0  0  0  0
   44.3763   35.9613   45.1006 H   0  0  0  0  0  0  0  0  0  0  0  0
   45.6962   32.5408   42.7939 H   0  0  0  0  0  0  0  0  0  0  0  0
   48.0781   32.2208   47.0004 H   0  0  0  0  0  0  0  0  0  0  0  0
   47.6629   33.3323   48.3740 H   0  0  0  0  0  0  0  0  0  0  0  0
   48.5783   30.8828   48.7634 H   0  0  0  0  0  0  0  0  0  0  0  0
   47.2941   31.6788   49.8178 H   0  0  0  0  0  0  0  0  0  0  0  0
   47.0560   29.5830   47.8783 H   0  0  0  0  0  0  0  0  0  0  0  0
   44.6318   29.9919   48.9842 H   0  0  0  0  0  0  0  0  0  0  0  0
   45.1184   30.1150   47.2572 H   0  0  0  0  0  0  0  0  0  0  0  0
   45.3274   32.3645   49.3297 H   0  0  0  0  0  0  0  0  0  0  0  0
   44.0735   32.2554   48.0907 H   0  0  0  0  0  0  0  0  0  0  0  0
   45.2759   35.7944   42.1601 H   0  0  0  0  0  0  0  0  0  0  0  0
   42.8182   34.0200   42.2185 H   0  0  0  0  0  0  0  0  0  0  0  0
   43.2080   36.6039   40.7828 H   0  0  0  0  0  0  0  0  0  0  0  0
   43.8818   35.2351   39.8130 H   0  0  0  0  0  0  0  0  0  0  0  0
   40.9898   34.6064   41.9713 H   0  0  0  0  0  0  0  0  0  0  0  0
   38.7478   34.0248   41.1928 H   0  0  0  0  0  0  0  0  0  0  0  0
   38.2950   34.2847   38.7197 H   0  0  0  0  0  0  0  0  0  0  0  0
   40.0473   35.0942   37.1744 H   0  0  0  0  0  0  0  0  0  0  0  0
  1  6  2  0
  2  1  1  0
  3  2  2  0
  3  4  1  0
  4  5  2  0
  5  6  1  0
  5  7  1  0
  7  8  1  0
  7 12  1  0
  8  9  1  0
 10  9  1  0
 11 12  1  0
 11 10  1  0
 13  2  1  0
 14 13  2  0
 15 14  1  0
 16 17  1  0
 17 18  2  0
 18 15  1  0
 18 19  1  0
 20 19  2  0
 21 20  1  0
 22 17  1  0
 22 21  2  0
  1 23  1  0
  3 24  1  0
  8 25  1  0
  8 26  1  0
  9 27  1  0
  9 28  1  0
 10 29  1  0
 11 30  1  0
 11 31  1  0
 12 32  1  0
 12 33  1  0
 13 34  1  0
 14 35  1  0
 15 36  1  0
 15 37  1  0
 19 38  1  0
 20 39  1  0
 21 40  1  0
 22 41  1  0
M  ISO  8  23  14  24  14  25  13  26  13  27  13  28  13  29   5  30  13
M  ISO  8  31  13  32  13  33  13  36   8  37   8  38  14  39  14  40  14
M  ISO  1  41  14
M  END
>  <minimizedAffinity>  (1) 
-6.81482506

>  <minimizedRMSD>  (1) 
1.72604311

$$$$
