
     RDKit          3D

 37 39  0  0  0  0  0  0  0  0999 V2000
   44.7920   35.2370   44.2360 C   0  0  0  0  0  0  0  0  0  0  0  0
   44.5880   34.5230   43.0400 C   0  0  0  0  0  0  0  0  0  0  0  0
   44.8870   33.1760   43.0200 C   0  0  0  0  0  0  0  0  0  0  0  0
   45.3610   32.6210   44.1630 N   0  0  0  0  0  0  0  0  0  0  0  0
   45.5530   33.3140   45.3030 C   0  0  0  0  0  0  0  0  0  0  0  0
   45.2620   34.6140   45.3140 N   0  0  0  0  0  0  0  0  0  0  0  0
   44.3100   33.7060   47.7940 F   0  0  0  0  0  0  0  0  0  0  0  0
   45.4030   32.9110   47.7080 C   0  0  0  0  0  0  0  0  0  0  0  0
   46.0670   32.6740   46.5110 C   0  0  0  0  0  0  0  0  0  0  0  0
   47.1910   31.8530   46.4390 C   0  0  0  0  0  0  0  0  0  0  0  0
   47.6800   31.2470   47.5800 C   0  0  0  0  0  0  0  0  0  0  0  0
   47.0320   31.4730   48.7790 C   0  0  0  0  0  0  0  0  0  0  0  0
   45.9180   32.2850   48.8480 C   0  0  0  0  0  0  0  0  0  0  0  0
   44.0710   35.1840   41.8340 C   0  0  0  0  0  0  0  0  0  0  0  0
   42.8950   35.0080   41.3050 C   0  0  0  0  0  0  0  0  0  0  0  0
   42.4390   35.7190   40.0750 C   0  0  0  0  0  0  0  0  0  0  0  0
   41.7420   35.7790   37.3760 F   0  0  0  0  0  0  0  0  0  0  0  0
   40.8440   35.2210   38.2450 C   0  0  0  0  0  0  0  0  0  0  0  0
   41.1690   35.1780   39.6140 C   0  0  0  0  0  0  0  0  0  0  0  0
   40.1870   34.5960   40.3610 C   0  0  0  0  0  0  0  0  0  0  0  0
   38.9910   34.0820   39.9470 C   0  0  0  0  0  0  0  0  0  0  0  0
   38.7730   34.1770   38.5810 C   0  0  0  0  0  0  0  0  0  0  0  0
   39.6600   34.7330   37.6900 C   0  0  0  0  0  0  0  0  0  0  0  0
   44.5625   36.3119   44.2796 H   0  0  0  0  0  0  0  0  0  0  0  0
   44.7460   32.5743   42.1100 H   0  0  0  0  0  0  0  0  0  0  0  0
   47.6893   31.6874   45.4724 H   0  0  0  0  0  0  0  0  0  0  0  0
   48.5670   30.5980   47.5348 H   0  0  0  0  0  0  0  0  0  0  0  0
   47.4108   30.9971   49.6955 H   0  0  0  0  0  0  0  0  0  0  0  0
   45.4254   32.4430   49.8188 H   0  0  0  0  0  0  0  0  0  0  0  0
   44.7418   35.8954   41.3302 H   0  0  0  0  0  0  0  0  0  0  0  0
   42.2041   34.3012   41.7878 H   0  0  0  0  0  0  0  0  0  0  0  0
   42.3164   36.7888   40.2999 H   0  0  0  0  0  0  0  0  0  0  0  0
   43.1919   35.5811   39.2850 H   0  0  0  0  0  0  0  0  0  0  0  0
   40.3847   34.5321   41.4412 H   0  0  0  0  0  0  0  0  0  0  0  0
   38.2633   33.6314   40.6380 H   0  0  0  0  0  0  0  0  0  0  0  0
   37.8269   33.7809   38.1836 H   0  0  0  0  0  0  0  0  0  0  0  0
   39.4506   34.7895   36.6116 H   0  0  0  0  0  0  0  0  0  0  0  0
  1  6  2  0
  2  1  1  0
  3  2  2  0
  3  4  1  0
  4  5  2  0
  5  6  1  0
  5  9  1  0
  8  7  1  0
  8 13  2  0
  9  8  1  0
 10  9  2  0
 10 11  1  0
 11 12  2  0
 12 13  1  0
 14  2  1  0
 15 14  2  0
 16 15  1  0
 17 18  1  0
 18 19  2  0
 19 16  1  0
 19 20  1  0
 21 20  2  0
 22 21  1  0
 23 18  1  0
 23 22  2  0
  1 24  1  0
  3 25  1  0
 10 26  1  0
 11 27  1  0
 12 28  1  0
 13 29  1  0
 14 30  1  0
 15 31  1  0
 16 32  1  0
 16 33  1  0
 20 34  1  0
 21 35  1  0
 22 36  1  0
 23 37  1  0
M  ISO  8  24  14  25  14  26  14  27  14  28  14  29  14  32   8  33   8
M  ISO  4  34  14  35  14  36  14  37  14
M  END
>  <minimizedAffinity>  (1) 
-6.71646595

>  <minimizedRMSD>  (1) 
1.18564546

$$$$
