
     RDKit          3D

 36 38  0  0  0  0  0  0  0  0999 V2000
   44.2590   35.4750   42.3310 C   0  0  0  0  0  0  0  0  0  0  0  0
   43.3270   35.0570   41.5070 C   0  0  0  0  0  0  0  0  0  0  0  0
   44.6260   35.3050   44.7950 C   0  0  0  0  0  0  0  0  0  0  0  0
   44.7290   34.7370   43.5130 C   0  0  0  0  0  0  0  0  0  0  0  0
   45.2820   33.4760   43.4030 C   0  0  0  0  0  0  0  0  0  0  0  0
   45.6880   32.8740   44.5560 N   0  0  0  0  0  0  0  0  0  0  0  0
   45.5820   33.4280   45.7590 C   0  0  0  0  0  0  0  0  0  0  0  0
   45.0480   34.6480   45.8750 N   0  0  0  0  0  0  0  0  0  0  0  0
   46.0430   32.7110   46.9440 C   0  0  0  0  0  0  0  0  0  0  0  0
   45.1900   32.4410   47.9950 C   0  0  0  0  0  0  0  0  0  0  0  0
   45.5680   31.7620   49.1490 C   0  0  0  0  0  0  0  0  0  0  0  0
   46.9000   31.3410   49.2160 C   0  0  0  0  0  0  0  0  0  0  0  0
   47.7010   31.6410   48.1330 C   0  0  0  0  0  0  0  0  0  0  0  0
   47.3200   32.2980   47.0260 N   0  0  0  0  0  0  0  0  0  0  0  0
   42.8940   35.8570   40.3200 C   0  0  0  0  0  0  0  0  0  0  0  0
   42.3340   35.8610   37.5850 F   0  0  0  0  0  0  0  0  0  0  0  0
   41.3760   35.3800   38.4200 C   0  0  0  0  0  0  0  0  0  0  0  0
   41.6280   35.3650   39.7980 C   0  0  0  0  0  0  0  0  0  0  0  0
   40.5870   34.8580   40.5210 C   0  0  0  0  0  0  0  0  0  0  0  0
   39.3750   34.3830   40.0600 C   0  0  0  0  0  0  0  0  0  0  0  0
   39.2310   34.4440   38.6770 C   0  0  0  0  0  0  0  0  0  0  0  0
   40.1980   34.9310   37.8320 C   0  0  0  0  0  0  0  0  0  0  0  0
   44.7232   36.4501   42.1219 H   0  0  0  0  0  0  0  0  0  0  0  0
   42.8479   34.0850   41.6959 H   0  0  0  0  0  0  0  0  0  0  0  0
   44.1898   36.3084   44.9085 H   0  0  0  0  0  0  0  0  0  0  0  0
   45.3899   32.9795   42.4273 H   0  0  0  0  0  0  0  0  0  0  0  0
   44.1477   32.7836   47.9153 H   0  0  0  0  0  0  0  0  0  0  0  0
   44.8570   31.5667   49.9653 H   0  0  0  0  0  0  0  0  0  0  0  0
   47.2901   30.7974   50.0891 H   0  0  0  0  0  0  0  0  0  0  0  0
   48.7492   31.3111   48.1813 H   0  0  0  0  0  0  0  0  0  0  0  0
   42.7765   36.9093   40.6180 H   0  0  0  0  0  0  0  0  0  0  0  0
   43.6587   35.7640   39.5347 H   0  0  0  0  0  0  0  0  0  0  0  0
   40.7322   34.8234   41.6108 H   0  0  0  0  0  0  0  0  0  0  0  0
   38.5927   33.9912   40.7267 H   0  0  0  0  0  0  0  0  0  0  0  0
   38.2904   34.0820   38.2362 H   0  0  0  0  0  0  0  0  0  0  0  0
   40.0482   34.9644   36.7428 H   0  0  0  0  0  0  0  0  0  0  0  0
  1  4  1  0
  2  1  2  0
  3  8  2  0
  4  3  1  0
  5  4  2  0
  5  6  1  0
  6  7  2  0
  7  8  1  0
  7  9  1  0
  9 14  1  0
  9 10  2  0
 10 11  1  0
 11 12  2  0
 13 12  1  0
 14 13  2  0
 15  2  1  0
 16 17  1  0
 17 18  2  0
 18 15  1  0
 18 19  1  0
 20 19  2  0
 21 20  1  0
 22 17  1  0
 22 21  2  0
  1 23  1  0
  2 24  1  0
  3 25  1  0
  5 26  1  0
 10 27  1  0
 11 28  1  0
 12 29  1  0
 13 30  1  0
 15 31  1  0
 15 32  1  0
 19 33  1  0
 20 34  1  0
 21 35  1  0
 22 36  1  0
M  ISO  8  25  14  26  14  27  14  28  14  29  14  30  14  31   8  32   8
M  ISO  4  33  14  34  14  35  14  36  14
M  END
>  <minimizedAffinity>  (1) 
-6.70207357

>  <minimizedRMSD>  (1) 
1.39076793

$$$$
