
     RDKit          3D

 33 34  0  0  0  0  0  0  0  0999 V2000
   43.3290   35.5010   41.6920 C   0  0  0  0  0  0  0  0  0  0  0  0
   42.1540   35.1240   41.2840 C   0  0  0  0  0  0  0  0  0  0  0  0
   44.5000   35.5370   43.9070 C   0  0  0  0  0  0  0  0  0  0  0  0
   44.1390   34.8550   42.7340 C   0  0  0  0  0  0  0  0  0  0  0  0
   44.5600   33.5490   42.5710 C   0  0  0  0  0  0  0  0  0  0  0  0
   45.3070   33.0030   43.5700 N   0  0  0  0  0  0  0  0  0  0  0  0
   45.6470   33.6640   44.6900 C   0  0  0  0  0  0  0  0  0  0  0  0
   45.2350   34.9230   44.8360 N   0  0  0  0  0  0  0  0  0  0  0  0
   46.4120   33.0770   45.6920 O   0  0  0  0  0  0  0  0  0  0  0  0
   46.8120   32.5050   48.2210 O   0  0  0  0  0  0  0  0  0  0  0  0
   45.7170   32.5800   47.1770 P   0  0  0  0  0  0  0  0  0  0  0  0
   44.8940   31.1170   47.0380 O   0  0  0  0  0  0  0  0  0  0  0  0
   44.5660   33.7430   47.6560 O   0  0  0  0  0  0  0  0  0  0  0  0
   41.3920   35.8320   40.2210 C   0  0  0  0  0  0  0  0  0  0  0  0
   40.9470   35.5340   37.4870 F   0  0  0  0  0  0  0  0  0  0  0  0
   40.1110   34.8650   38.3380 C   0  0  0  0  0  0  0  0  0  0  0  0
   40.3170   35.0010   39.7120 C   0  0  0  0  0  0  0  0  0  0  0  0
   39.4050   34.2740   40.4390 C   0  0  0  0  0  0  0  0  0  0  0  0
   38.3870   33.4860   39.9890 C   0  0  0  0  0  0  0  0  0  0  0  0
   38.2810   33.4280   38.6070 C   0  0  0  0  0  0  0  0  0  0  0  0
   39.1130   34.0950   37.7380 C   0  0  0  0  0  0  0  0  0  0  0  0
   43.7594   36.3911   41.2099 H   0  0  0  0  0  0  0  0  0  0  0  0
   41.7001   34.2362   41.7485 H   0  0  0  0  0  0  0  0  0  0  0  0
   44.1769   36.5773   44.0601 H   0  0  0  0  0  0  0  0  0  0  0  0
   44.3019   32.9733   41.6699 H   0  0  0  0  0  0  0  0  0  0  0  0
   44.6950   30.7632   47.9410 H   0  0  0  0  0  0  0  0  0  0  0  0
   44.5277   33.7817   48.6445 H   0  0  0  0  0  0  0  0  0  0  0  0
   40.9657   36.7561   40.6385 H   0  0  0  0  0  0  0  0  0  0  0  0
   42.0780   36.0644   39.3931 H   0  0  0  0  0  0  0  0  0  0  0  0
   39.5105   34.3362   41.5322 H   0  0  0  0  0  0  0  0  0  0  0  0
   37.7085   32.9432   40.6636 H   0  0  0  0  0  0  0  0  0  0  0  0
   37.4796   32.8084   38.1782 H   0  0  0  0  0  0  0  0  0  0  0  0
   38.9998   34.0264   36.6460 H   0  0  0  0  0  0  0  0  0  0  0  0
  1  4  1  0
  2  1  2  0
  3  8  2  0
  4  3  1  0
  5  4  2  0
  5  6  1  0
  6  7  2  0
  7  8  1  0
  7  9  1  0
  9 11  1  0
 11 13  1  0
 11 10  2  0
 12 11  1  0
 14  2  1  0
 15 16  1  0
 16 17  2  0
 17 14  1  0
 17 18  1  0
 19 18  2  0
 20 19  1  0
 21 16  1  0
 21 20  2  0
  1 22  1  0
  2 23  1  0
  3 24  1  0
  5 25  1  0
 12 26  1  0
 13 27  1  0
 14 28  1  0
 14 29  1  0
 18 30  1  0
 19 31  1  0
 20 32  1  0
 21 33  1  0
M  ISO  8  24  14  25  14  26   3  27   3  28   8  29   8  30  14  31  14
M  ISO  2  32  14  33  14
M  END
>  <minimizedAffinity>  (1) 
-6.67476892

>  <minimizedRMSD>  (1) 
0.765237153

$$$$
