
     RDKit          3D

 34 36  0  0  0  0  0  0  0  0999 V2000
   43.7930   35.4670   41.9110 C   0  0  0  0  0  0  0  0  0  0  0  0
   42.7050   35.0690   41.3060 C   0  0  0  0  0  0  0  0  0  0  0  0
   44.4070   35.5730   44.3300 C   0  0  0  0  0  0  0  0  0  0  0  0
   44.3700   34.8700   43.1150 C   0  0  0  0  0  0  0  0  0  0  0  0
   44.8960   33.5940   43.0940 C   0  0  0  0  0  0  0  0  0  0  0  0
   45.4130   33.1050   44.2480 N   0  0  0  0  0  0  0  0  0  0  0  0
   45.4410   33.7950   45.4060 C   0  0  0  0  0  0  0  0  0  0  0  0
   44.9330   35.0280   45.4260 N   0  0  0  0  0  0  0  0  0  0  0  0
   46.0290   33.1530   46.5770 C   0  0  0  0  0  0  0  0  0  0  0  0
   45.1760   32.8850   47.6540 C   0  0  0  0  0  0  0  0  0  0  0  0
   45.9640   32.2850   48.6180 C   0  0  0  0  0  0  0  0  0  0  0  0
   47.2530   32.2160   48.0830 C   0  0  0  0  0  0  0  0  0  0  0  0
   47.2270   32.7470   46.8690 O   0  0  0  0  0  0  0  0  0  0  0  0
   42.1500   35.7080   40.0780 C   0  0  0  0  0  0  0  0  0  0  0  0
   41.3520   35.6530   37.4020 F   0  0  0  0  0  0  0  0  0  0  0  0
   40.5470   35.0610   38.3080 C   0  0  0  0  0  0  0  0  0  0  0  0
   40.9180   35.0700   39.6630 C   0  0  0  0  0  0  0  0  0  0  0  0
   40.0030   34.4330   40.4550 C   0  0  0  0  0  0  0  0  0  0  0  0
   38.8300   33.8190   40.0940 C   0  0  0  0  0  0  0  0  0  0  0  0
   38.5630   33.8720   38.7220 C   0  0  0  0  0  0  0  0  0  0  0  0
   39.3890   34.4770   37.8080 C   0  0  0  0  0  0  0  0  0  0  0  0
   44.3219   36.3278   41.4758 H   0  0  0  0  0  0  0  0  0  0  0  0
   42.1649   34.2091   41.7289 H   0  0  0  0  0  0  0  0  0  0  0  0
   43.9944   36.5916   44.3777 H   0  0  0  0  0  0  0  0  0  0  0  0
   44.8957   32.9941   42.1720 H   0  0  0  0  0  0  0  0  0  0  0  0
   44.1005   33.1063   47.7196 H   0  0  0  0  0  0  0  0  0  0  0  0
   45.6409   31.9322   49.6086 H   0  0  0  0  0  0  0  0  0  0  0  0
   48.1370   31.7937   48.5833 H   0  0  0  0  0  0  0  0  0  0  0  0
   41.9513   36.7699   40.2853 H   0  0  0  0  0  0  0  0  0  0  0  0
   42.8863   35.6004   39.2679 H   0  0  0  0  0  0  0  0  0  0  0  0
   40.2398   34.4096   41.5290 H   0  0  0  0  0  0  0  0  0  0  0  0
   38.1610   33.3299   40.8174 H   0  0  0  0  0  0  0  0  0  0  0  0
   37.6387   33.4022   38.3548 H   0  0  0  0  0  0  0  0  0  0  0  0
   39.1471   34.4986   36.7351 H   0  0  0  0  0  0  0  0  0  0  0  0
  1  4  1  0
  2  1  2  0
  3  8  2  0
  4  3  1  0
  5  4  2  0
  5  6  1  0
  6  7  2  0
  7  8  1  0
  7  9  1  0
  9 13  1  0
  9 10  2  0
 10 11  1  0
 12 11  2  0
 13 12  1  0
 14  2  1  0
 15 16  1  0
 16 17  2  0
 17 14  1  0
 17 18  1  0
 19 18  2  0
 20 19  1  0
 21 16  1  0
 21 20  2  0
  1 22  1  0
  2 23  1  0
  3 24  1  0
  5 25  1  0
 10 26  1  0
 11 27  1  0
 12 28  1  0
 14 29  1  0
 14 30  1  0
 18 31  1  0
 19 32  1  0
 20 33  1  0
 21 34  1  0
M  ISO  8  24  14  25  14  26  14  27  14  28  14  29   8  30   8  31  14
M  ISO  3  32  14  33  14  34  14
M  END
>  <minimizedAffinity>  (1) 
-6.55723286

>  <minimizedRMSD>  (1) 
0.687984705

$$$$
