
     RDKit          3D

 31 32  0  0  0  0  0  0  0  0999 V2000
   43.6970   35.3280   41.5730 C   0  0  0  0  0  0  0  0  0  0  0  0
   42.4960   35.0240   41.1490 C   0  0  0  0  0  0  0  0  0  0  0  0
   44.2360   35.8070   43.9660 C   0  0  0  0  0  0  0  0  0  0  0  0
   44.2670   34.9380   42.8640 C   0  0  0  0  0  0  0  0  0  0  0  0
   44.8550   33.6870   43.0230 C   0  0  0  0  0  0  0  0  0  0  0  0
   45.3640   33.3850   44.2450 N   0  0  0  0  0  0  0  0  0  0  0  0
   45.3280   34.2270   45.2960 C   0  0  0  0  0  0  0  0  0  0  0  0
   44.7630   35.4250   45.1380 N   0  0  0  0  0  0  0  0  0  0  0  0
   46.7730   32.5630   46.5610 C   0  0  0  0  0  0  0  0  0  0  0  0
   47.0160   31.9710   45.4590 O   0  0  0  0  0  0  0  0  0  0  0  0
   45.9230   33.7000   46.4780 N   0  0  0  0  0  0  0  0  0  0  0  0
   41.9710   35.4530   39.8200 C   0  0  0  0  0  0  0  0  0  0  0  0
   40.9060   35.4580   37.2490 F   0  0  0  0  0  0  0  0  0  0  0  0
   40.1960   34.8380   38.2150 C   0  0  0  0  0  0  0  0  0  0  0  0
   40.6940   34.8110   39.5290 C   0  0  0  0  0  0  0  0  0  0  0  0
   39.8820   34.1570   40.4070 C   0  0  0  0  0  0  0  0  0  0  0  0
   38.6740   33.5460   40.1460 C   0  0  0  0  0  0  0  0  0  0  0  0
   38.2620   33.6260   38.8090 C   0  0  0  0  0  0  0  0  0  0  0  0
   38.9920   34.2580   37.8310 C   0  0  0  0  0  0  0  0  0  0  0  0
   44.3311   35.9269   40.9028 H   0  0  0  0  0  0  0  0  0  0  0  0
   41.8445   34.4251   41.8024 H   0  0  0  0  0  0  0  0  0  0  0  0
   43.7787   36.8026   43.8678 H   0  0  0  0  0  0  0  0  0  0  0  0
   44.9056   32.9699   42.1904 H   0  0  0  0  0  0  0  0  0  0  0  0
   47.1942   32.2164   47.5162 H   0  0  0  0  0  0  0  0  0  0  0  0
   45.7172   34.1910   47.3598 H   0  0  0  0  0  0  0  0  0  0  0  0
   41.8322   36.5442   39.8235 H   0  0  0  0  0  0  0  0  0  0  0  0
   42.6951   35.1584   39.0461 H   0  0  0  0  0  0  0  0  0  0  0  0
   40.2326   34.1112   41.4486 H   0  0  0  0  0  0  0  0  0  0  0  0
   38.0830   33.0381   40.9224 H   0  0  0  0  0  0  0  0  0  0  0  0
   37.3062   33.1595   38.5281 H   0  0  0  0  0  0  0  0  0  0  0  0
   38.6393   34.3030   36.7901 H   0  0  0  0  0  0  0  0  0  0  0  0
  1  4  1  0
  2  1  2  0
  3  8  2  0
  4  5  2  0
  4  3  1  0
  5  6  1  0
  6  7  2  0
  7 11  1  0
  8  7  1  0
 10  9  2  0
 11  9  1  0
 12  2  1  0
 13 14  1  0
 14 15  2  0
 15 12  1  0
 15 16  1  0
 17 16  2  0
 18 17  1  0
 19 14  1  0
 19 18  2  0
  1 20  1  0
  2 21  1  0
  3 22  1  0
  5 23  1  0
  9 24  1  0
 11 25  1  0
 12 26  1  0
 12 27  1  0
 16 28  1  0
 17 29  1  0
 18 30  1  0
 19 31  1  0
M  ISO  8  22  14  23  14  24   6  26   8  27   8  28  14  29  14  30  14
M  ISO  1  31  14
M  END
>  <minimizedAffinity>  (1) 
-6.46896172

>  <minimizedRMSD>  (1) 
0.44578138

$$$$
