
     RDKit          3D

 30 31  0  0  0  0  0  0  0  0999 V2000
   41.4570   35.7660   39.8810 C   0  0  0  0  0  0  0  0  0  0  0  0
   40.7370   35.5030   37.1940 F   0  0  0  0  0  0  0  0  0  0  0  0
   39.9880   34.8620   38.1190 C   0  0  0  0  0  0  0  0  0  0  0  0
   40.3110   34.9650   39.4790 C   0  0  0  0  0  0  0  0  0  0  0  0
   39.4640   34.2640   40.2880 C   0  0  0  0  0  0  0  0  0  0  0  0
   38.3810   33.5040   39.9370 C   0  0  0  0  0  0  0  0  0  0  0  0
   38.1400   33.4630   38.5500 C   0  0  0  0  0  0  0  0  0  0  0  0
   38.9120   34.1210   37.6210 C   0  0  0  0  0  0  0  0  0  0  0  0
   43.3500   35.5100   41.4280 C   0  0  0  0  0  0  0  0  0  0  0  0
   42.1370   35.1780   41.0620 C   0  0  0  0  0  0  0  0  0  0  0  0
   44.3090   35.7430   43.7270 C   0  0  0  0  0  0  0  0  0  0  0  0
   44.0700   34.9610   42.5860 C   0  0  0  0  0  0  0  0  0  0  0  0
   44.5290   33.6580   42.5790 C   0  0  0  0  0  0  0  0  0  0  0  0
   45.1880   33.2180   43.6900 N   0  0  0  0  0  0  0  0  0  0  0  0
   45.4050   33.9780   44.7620 C   0  0  0  0  0  0  0  0  0  0  0  0
   44.9620   35.2470   44.7810 N   0  0  0  0  0  0  0  0  0  0  0  0
   46.1230   33.4600   45.9440 C   0  0  0  0  0  0  0  0  0  0  0  0
   41.1147   36.7806   40.1327 H   0  0  0  0  0  0  0  0  0  0  0  0
   42.1723   35.7932   39.0458 H   0  0  0  0  0  0  0  0  0  0  0  0
   39.6805   34.3169   41.3652 H   0  0  0  0  0  0  0  0  0  0  0  0
   37.7562   32.9739   40.6709 H   0  0  0  0  0  0  0  0  0  0  0  0
   37.2859   32.8712   38.1891 H   0  0  0  0  0  0  0  0  0  0  0  0
   38.6945   34.0671   36.5441 H   0  0  0  0  0  0  0  0  0  0  0  0
   43.8731   36.2616   40.8186 H   0  0  0  0  0  0  0  0  0  0  0  0
   41.5967   34.4279   41.6581 H   0  0  0  0  0  0  0  0  0  0  0  0
   43.9520   36.7831   43.7534 H   0  0  0  0  0  0  0  0  0  0  0  0
   44.3695   33.0007   41.7115 H   0  0  0  0  0  0  0  0  0  0  0  0
   45.6281   33.8170   46.8592 H   0  0  0  0  0  0  0  0  0  0  0  0
   46.1124   32.3602   45.9266 H   0  0  0  0  0  0  0  0  0  0  0  0
   47.1633   33.8169   45.9266 H   0  0  0  0  0  0  0  0  0  0  0  0
  1 10  1  0
  2  3  1  0
  3  4  2  0
  4  1  1  0
  4  5  1  0
  6  5  2  0
  7  6  1  0
  8  3  1  0
  8  7  2  0
  9 12  1  0
 10  9  2  0
 11 16  2  0
 12 11  1  0
 13 12  2  0
 13 14  1  0
 14 15  2  0
 15 16  1  0
 15 17  1  0
  1 18  1  0
  1 19  1  0
  5 20  1  0
  6 21  1  0
  7 22  1  0
  8 23  1  0
  9 24  1  0
 10 25  1  0
 11 26  1  0
 13 27  1  0
 17 28  1  0
 17 29  1  0
 17 30  1  0
M  ISO  8  18   8  19   8  20  14  21  14  22  14  23  14  26  14  27  14
M  ISO  3  28   8  29   8  30   8
M  END
>  <minimizedAffinity>  (1) 
-5.8752737

>  <minimizedRMSD>  (1) 
0.103504695

$$$$
