
     RDKit          3D

 43 45  0  0  0  0  0  0  0  0999 V2000
   44.3110   35.5960   43.4590 C   0  0  0  0  0  0  0  0  0  0  0  0
   43.7460   34.8460   42.3940 C   0  0  0  0  0  0  0  0  0  0  0  0
   44.0920   33.5050   42.2630 C   0  0  0  0  0  0  0  0  0  0  0  0
   44.9600   33.0130   43.1840 N   0  0  0  0  0  0  0  0  0  0  0  0
   45.4920   33.7220   44.1870 C   0  0  0  0  0  0  0  0  0  0  0  0
   45.1520   35.0030   44.3000 N   0  0  0  0  0  0  0  0  0  0  0  0
   46.4230   33.2040   45.1840 C   0  0  0  0  0  0  0  0  0  0  0  0
   46.3160   31.7060   45.2860 C   0  0  0  0  0  0  0  0  0  0  0  0
   45.9280   31.3770   46.6830 C   0  0  0  0  0  0  0  0  0  0  0  0
   45.3730   30.2190   47.1810 C   0  0  0  0  0  0  0  0  0  0  0  0
   45.0870   30.1240   48.5280 C   0  0  0  0  0  0  0  0  0  0  0  0
   45.3410   31.1600   49.4040 C   0  0  0  0  0  0  0  0  0  0  0  0
   45.9000   32.3280   48.9110 C   0  0  0  0  0  0  0  0  0  0  0  0
   46.1870   32.4300   47.5640 C   0  0  0  0  0  0  0  0  0  0  0  0
   42.8130   35.4860   41.4510 C   0  0  0  0  0  0  0  0  0  0  0  0
   41.5090   35.5350   41.6080 C   0  0  0  0  0  0  0  0  0  0  0  0
   40.5920   36.1920   40.6350 C   0  0  0  0  0  0  0  0  0  0  0  0
   41.2120   35.8930   37.9260 F   0  0  0  0  0  0  0  0  0  0  0  0
   40.2540   35.1000   38.4420 C   0  0  0  0  0  0  0  0  0  0  0  0
   39.9140   35.2180   39.7930 C   0  0  0  0  0  0  0  0  0  0  0  0
   38.9210   34.3500   40.1900 C   0  0  0  0  0  0  0  0  0  0  0  0
   38.2610   33.4210   39.4240 C   0  0  0  0  0  0  0  0  0  0  0  0
   38.6670   33.3700   38.0750 C   0  0  0  0  0  0  0  0  0  0  0  0
   39.6440   34.1870   37.5730 C   0  0  0  0  0  0  0  0  0  0  0  0
   44.0550   36.6581   43.5868 H   0  0  0  0  0  0  0  0  0  0  0  0
   43.6845   32.8772   41.4569 H   0  0  0  0  0  0  0  0  0  0  0  0
   47.4492   33.4736   44.8939 H   0  0  0  0  0  0  0  0  0  0  0  0
   46.1742   33.6432   46.1614 H   0  0  0  0  0  0  0  0  0  0  0  0
   45.5511   31.3362   44.5873 H   0  0  0  0  0  0  0  0  0  0  0  0
   47.2749   31.2319   45.0296 H   0  0  0  0  0  0  0  0  0  0  0  0
   45.1589   29.3747   46.5091 H   0  0  0  0  0  0  0  0  0  0  0  0
   44.6433   29.1948   48.9150 H   0  0  0  0  0  0  0  0  0  0  0  0
   45.1041   31.0602   50.4735 H   0  0  0  0  0  0  0  0  0  0  0  0
   46.1137   33.1683   49.5879 H   0  0  0  0  0  0  0  0  0  0  0  0
   46.6288   33.3599   47.1765 H   0  0  0  0  0  0  0  0  0  0  0  0
   43.2376   35.9562   40.5518 H   0  0  0  0  0  0  0  0  0  0  0  0
   41.0728   35.0673   42.5030 H   0  0  0  0  0  0  0  0  0  0  0  0
   39.8381   36.7699   41.1897 H   0  0  0  0  0  0  0  0  0  0  0  0
   41.1921   36.8474   39.9866 H   0  0  0  0  0  0  0  0  0  0  0  0
   38.6209   34.4079   41.2467 H   0  0  0  0  0  0  0  0  0  0  0  0
   37.4760   32.7670   39.8316 H   0  0  0  0  0  0  0  0  0  0  0  0
   38.1815   32.6481   37.4018 H   0  0  0  0  0  0  0  0  0  0  0  0
   39.9418   34.1279   36.5157 H   0  0  0  0  0  0  0  0  0  0  0  0
  1  6  2  0
  2  1  1  0
  3  2  2  0
  3  4  1  0
  4  5  2  0
  5  6  1  0
  5  7  1  0
  7  8  1  0
  8  9  1  0
  9 10  2  0
  9 14  1  0
 10 11  1  0
 11 12  2  0
 13 12  1  0
 14 13  2  0
 15 16  2  0
 15  2  1  0
 17 16  1  0
 18 19  1  0
 19 20  2  0
 20 21  1  0
 20 17  1  0
 22 21  2  0
 23 22  1  0
 24 23  2  0
 24 19  1  0
  1 25  1  0
  3 26  1  0
  7 27  1  0
  7 28  1  0
  8 29  1  0
  8 30  1  0
 10 31  1  0
 11 32  1  0
 12 33  1  0
 13 34  1  0
 14 35  1  0
 15 36  1  0
 16 37  1  0
 17 38  1  0
 17 39  1  0
 21 40  1  0
 22 41  1  0
 23 42  1  0
 24 43  1  0
M  ISO  8  25  14  26  14  27   8  28   8  29   8  30   8  31  14  32  14
M  ISO  8  33  14  34  14  35  14  38   8  39   8  40  14  41  14  42  14
M  ISO  1  43  14
M  END
>  <minimizedAffinity>  (1) 
-7.10615301

>  <minimizedRMSD>  (1) 
2.6451304

$$$$
