
     RDKit          3D

 43 45  0  0  0  0  0  0  0  0999 V2000
   44.3940   35.6310   43.4240 C   0  0  0  0  0  0  0  0  0  0  0  0
   43.8520   34.8280   42.3780 C   0  0  0  0  0  0  0  0  0  0  0  0
   44.2020   33.4980   42.3100 C   0  0  0  0  0  0  0  0  0  0  0  0
   45.0510   33.0530   43.2610 N   0  0  0  0  0  0  0  0  0  0  0  0
   45.5620   33.8160   44.2480 C   0  0  0  0  0  0  0  0  0  0  0  0
   45.2220   35.0980   44.3120 N   0  0  0  0  0  0  0  0  0  0  0  0
   46.4830   33.2730   45.2560 C   0  0  0  0  0  0  0  0  0  0  0  0
   45.7040   32.8510   46.5020 C   0  0  0  0  0  0  0  0  0  0  0  0
   45.3390   29.9640   45.8030 Cl  0  0  0  0  0  0  0  0  0  0  0  0
   46.5220   30.5510   46.9520 C   0  0  0  0  0  0  0  0  0  0  0  0
   46.6410   31.9200   47.2260 C   0  0  0  0  0  0  0  0  0  0  0  0
   47.5420   32.4840   48.1110 C   0  0  0  0  0  0  0  0  0  0  0  0
   48.4010   31.6050   48.7850 C   0  0  0  0  0  0  0  0  0  0  0  0
   48.2910   30.2550   48.5220 C   0  0  0  0  0  0  0  0  0  0  0  0
   47.3860   29.7100   47.6360 C   0  0  0  0  0  0  0  0  0  0  0  0
   42.9340   35.4380   41.3920 C   0  0  0  0  0  0  0  0  0  0  0  0
   41.6410   35.4110   41.4710 C   0  0  0  0  0  0  0  0  0  0  0  0
   40.7600   36.0460   40.4460 C   0  0  0  0  0  0  0  0  0  0  0  0
   40.7890   35.7770   37.6740 F   0  0  0  0  0  0  0  0  0  0  0  0
   39.9810   34.9580   38.3700 C   0  0  0  0  0  0  0  0  0  0  0  0
   39.9360   35.0640   39.7650 C   0  0  0  0  0  0  0  0  0  0  0  0
   39.0650   34.1660   40.3570 C   0  0  0  0  0  0  0  0  0  0  0  0
   38.2740   33.2190   39.7390 C   0  0  0  0  0  0  0  0  0  0  0  0
   38.3900   33.1900   38.3380 C   0  0  0  0  0  0  0  0  0  0  0  0
   39.2220   34.0350   37.6450 C   0  0  0  0  0  0  0  0  0  0  0  0
   44.1247   36.6952   43.4945 H   0  0  0  0  0  0  0  0  0  0  0  0
   43.8115   32.8346   41.5243 H   0  0  0  0  0  0  0  0  0  0  0  0
   47.0051   32.3990   44.8393 H   0  0  0  0  0  0  0  0  0  0  0  0
   47.2139   34.0473   45.5319 H   0  0  0  0  0  0  0  0  0  0  0  0
   45.4628   33.7244   47.1257 H   0  0  0  0  0  0  0  0  0  0  0  0
   44.7431   32.3750   46.2570 H   0  0  0  0  0  0  0  0  0  0  0  0
   47.5825   33.5705   48.2779 H   0  0  0  0  0  0  0  0  0  0  0  0
   49.1431   31.9815   49.5045 H   0  0  0  0  0  0  0  0  0  0  0  0
   48.9684   29.5700   49.0529 H   0  0  0  0  0  0  0  0  0  0  0  0
   47.3501   28.6226   47.4741 H   0  0  0  0  0  0  0  0  0  0  0  0
   43.3815   35.9521   40.5286 H   0  0  0  0  0  0  0  0  0  0  0  0
   41.1741   34.9005   42.3263 H   0  0  0  0  0  0  0  0  0  0  0  0
   40.1058   36.7780   40.9422 H   0  0  0  0  0  0  0  0  0  0  0  0
   41.4011   36.5346   39.6975 H   0  0  0  0  0  0  0  0  0  0  0  0
   38.9947   34.2128   41.4538 H   0  0  0  0  0  0  0  0  0  0  0  0
   37.6083   32.5432   40.2959 H   0  0  0  0  0  0  0  0  0  0  0  0
   37.7899   32.4608   37.7740 H   0  0  0  0  0  0  0  0  0  0  0  0
   39.2892   33.9866   36.5481 H   0  0  0  0  0  0  0  0  0  0  0  0
  1  6  2  0
  2  1  1  0
  3  2  2  0
  3  4  1  0
  4  5  2  0
  5  6  1  0
  5  7  1  0
  7  8  1  0
  8 11  1  0
  9 10  1  0
 10 11  2  0
 10 15  1  0
 11 12  1  0
 12 13  2  0
 14 13  1  0
 15 14  2  0
 16 17  2  0
 16  2  1  0
 18 17  1  0
 19 20  1  0
 20 21  2  0
 21 22  1  0
 21 18  1  0
 23 22  2  0
 24 23  1  0
 25 24  2  0
 25 20  1  0
  1 26  1  0
  3 27  1  0
  7 28  1  0
  7 29  1  0
  8 30  1  0
  8 31  1  0
 12 32  1  0
 13 33  1  0
 14 34  1  0
 15 35  1  0
 16 36  1  0
 17 37  1  0
 18 38  1  0
 18 39  1  0
 22 40  1  0
 23 41  1  0
 24 42  1  0
 25 43  1  0
M  ISO  8  26  14  27  14  28   8  29   8  30   8  31   8  32  14  33  14
M  ISO  8  34  14  35  14  38   8  39   8  40  14  41  14  42  14  43  14
M  END
>  <minimizedAffinity>  (1) 
-6.78801966

>  <minimizedRMSD>  (1) 
1.1114285

$$$$
