
     RDKit          3D

 39 40  0  0  0  0  0  0  0  0999 V2000
   44.4680   35.5630   43.4010 C   0  0  0  0  0  0  0  0  0  0  0  0
   43.8000   34.8530   42.3760 C   0  0  0  0  0  0  0  0  0  0  0  0
   44.1010   33.5240   42.1990 C   0  0  0  0  0  0  0  0  0  0  0  0
   45.0320   32.9720   43.0280 N   0  0  0  0  0  0  0  0  0  0  0  0
   45.6590   33.6440   43.9900 C   0  0  0  0  0  0  0  0  0  0  0  0
   45.3660   34.9490   44.1680 N   0  0  0  0  0  0  0  0  0  0  0  0
   46.6620   33.0580   44.8870 C   0  0  0  0  0  0  0  0  0  0  0  0
   46.1790   33.1580   46.3330 C   0  0  0  0  0  0  0  0  0  0  0  0
   46.7820   32.2250   47.1400 O   0  0  0  0  0  0  0  0  0  0  0  0
   45.2760   30.0470   47.4380 O   0  0  0  0  0  0  0  0  0  0  0  0
   45.6790   31.3590   48.0820 P   0  0  0  0  0  0  0  0  0  0  0  0
   44.2650   32.2830   48.3120 O   0  0  0  0  0  0  0  0  0  0  0  0
   46.3390   30.9730   49.5960 O   0  0  0  0  0  0  0  0  0  0  0  0
   42.8110   35.5410   41.5350 C   0  0  0  0  0  0  0  0  0  0  0  0
   41.5060   35.4760   41.6990 C   0  0  0  0  0  0  0  0  0  0  0  0
   40.5500   36.2040   40.8040 C   0  0  0  0  0  0  0  0  0  0  0  0
   41.2610   36.1200   38.1090 F   0  0  0  0  0  0  0  0  0  0  0  0
   40.2960   35.2860   38.5260 C   0  0  0  0  0  0  0  0  0  0  0  0
   39.9070   35.2940   39.8700 C   0  0  0  0  0  0  0  0  0  0  0  0
   38.9120   34.3960   40.1730 C   0  0  0  0  0  0  0  0  0  0  0  0
   38.2800   33.5220   39.3160 C   0  0  0  0  0  0  0  0  0  0  0  0
   38.7280   33.5780   37.9940 C   0  0  0  0  0  0  0  0  0  0  0  0
   39.7140   34.4330   37.5770 C   0  0  0  0  0  0  0  0  0  0  0  0
   44.2443   36.6275   43.5650 H   0  0  0  0  0  0  0  0  0  0  0  0
   43.6087   32.9273   41.4170 H   0  0  0  0  0  0  0  0  0  0  0  0
   46.8144   32.0007   44.6245 H   0  0  0  0  0  0  0  0  0  0  0  0
   47.6105   33.6049   44.7806 H   0  0  0  0  0  0  0  0  0  0  0  0
   46.4104   34.1627   46.7165 H   0  0  0  0  0  0  0  0  0  0  0  0
   45.0954   32.9691   46.3443 H   0  0  0  0  0  0  0  0  0  0  0  0
   44.0967   32.3930   49.2814 H   0  0  0  0  0  0  0  0  0  0  0  0
   45.7482   31.3185   50.3113 H   0  0  0  0  0  0  0  0  0  0  0  0
   43.1892   36.1569   40.7058 H   0  0  0  0  0  0  0  0  0  0  0  0
   41.1039   34.8662   42.5215 H   0  0  0  0  0  0  0  0  0  0  0  0
   39.7790   36.6886   41.4211 H   0  0  0  0  0  0  0  0  0  0  0  0
   41.1136   36.9530   40.2283 H   0  0  0  0  0  0  0  0  0  0  0  0
   38.5817   34.3723   41.2220 H   0  0  0  0  0  0  0  0  0  0  0  0
   37.4865   32.8354   39.6461 H   0  0  0  0  0  0  0  0  0  0  0  0
   38.2685   32.9055   37.2547 H   0  0  0  0  0  0  0  0  0  0  0  0
   40.0402   34.4500   36.5266 H   0  0  0  0  0  0  0  0  0  0  0  0
  1  6  2  0
  2  1  1  0
  3  2  2  0
  3  4  1  0
  4  5  2  0
  5  6  1  0
  5  7  1  0
  7  8  1  0
  8  9  1  0
  9 11  1  0
 10 11  2  0
 11 12  1  0
 11 13  1  0
 14 15  2  0
 14  2  1  0
 16 15  1  0
 17 18  1  0
 18 19  2  0
 19 20  1  0
 19 16  1  0
 21 20  2  0
 22 21  1  0
 23 22  2  0
 23 18  1  0
  1 24  1  0
  3 25  1  0
  7 26  1  0
  7 27  1  0
  8 28  1  0
  8 29  1  0
 12 30  1  0
 13 31  1  0
 14 32  1  0
 15 33  1  0
 16 34  1  0
 16 35  1  0
 20 36  1  0
 21 37  1  0
 22 38  1  0
 23 39  1  0
M  ISO  8  24  14  25  14  26   8  27   8  28   8  29   8  30   3  31   3
M  ISO  6  34   8  35   8  36  14  37  14  38  14  39  14
M  END
>  <minimizedAffinity>  (1) 
-6.7837348

>  <minimizedRMSD>  (1) 
1.3851794

$$$$
