
     RDKit          3D

 34 35  0  0  0  0  0  0  0  0999 V2000
   42.6960   35.5170   41.3030 C   0  0  0  0  0  0  0  0  0  0  0  0
   41.4370   35.6010   41.6130 C   0  0  0  0  0  0  0  0  0  0  0  0
   44.5730   35.7270   42.9410 C   0  0  0  0  0  0  0  0  0  0  0  0
   43.7460   34.9140   42.1350 C   0  0  0  0  0  0  0  0  0  0  0  0
   43.9510   33.5450   42.1540 C   0  0  0  0  0  0  0  0  0  0  0  0
   44.9410   33.0700   42.9490 N   0  0  0  0  0  0  0  0  0  0  0  0
   45.7180   33.8440   43.7070 C   0  0  0  0  0  0  0  0  0  0  0  0
   45.5240   35.1690   43.6920 N   0  0  0  0  0  0  0  0  0  0  0  0
   46.8050   33.3910   44.5880 C   0  0  0  0  0  0  0  0  0  0  0  0
   46.2690   33.1570   45.9950 C   0  0  0  0  0  0  0  0  0  0  0  0
   45.3690   34.1450   46.3510 O   0  0  0  0  0  0  0  0  0  0  0  0
   40.4130   36.2190   40.7390 C   0  0  0  0  0  0  0  0  0  0  0  0
   41.0670   36.1100   38.0220 F   0  0  0  0  0  0  0  0  0  0  0  0
   40.1550   35.2280   38.4890 C   0  0  0  0  0  0  0  0  0  0  0  0
   39.8030   35.2520   39.8420 C   0  0  0  0  0  0  0  0  0  0  0  0
   38.8740   34.3120   40.1820 C   0  0  0  0  0  0  0  0  0  0  0  0
   38.2750   33.3760   39.3520 C   0  0  0  0  0  0  0  0  0  0  0  0
   38.6900   33.4300   38.0260 C   0  0  0  0  0  0  0  0  0  0  0  0
   39.6220   34.3400   37.5700 C   0  0  0  0  0  0  0  0  0  0  0  0
   43.0026   35.9340   40.3324 H   0  0  0  0  0  0  0  0  0  0  0  0
   41.1128   35.1895   42.5802 H   0  0  0  0  0  0  0  0  0  0  0  0
   44.4333   36.8181   42.9495 H   0  0  0  0  0  0  0  0  0  0  0  0
   43.3332   32.8675   41.5463 H   0  0  0  0  0  0  0  0  0  0  0  0
   47.2244   32.4524   44.1967 H   0  0  0  0  0  0  0  0  0  0  0  0
   47.5883   34.1625   44.6226 H   0  0  0  0  0  0  0  0  0  0  0  0
   45.7642   32.1803   46.0303 H   0  0  0  0  0  0  0  0  0  0  0  0
   47.1126   33.1792   46.7006 H   0  0  0  0  0  0  0  0  0  0  0  0
   45.3161   34.2031   47.3379 H   0  0  0  0  0  0  0  0  0  0  0  0
   39.6282   36.6612   41.3703 H   0  0  0  0  0  0  0  0  0  0  0  0
   40.9099   36.9841   40.1244 H   0  0  0  0  0  0  0  0  0  0  0  0
   38.5641   34.2946   41.2373 H   0  0  0  0  0  0  0  0  0  0  0  0
   37.5319   32.6499   39.7134 H   0  0  0  0  0  0  0  0  0  0  0  0
   38.2567   32.7166   37.3095 H   0  0  0  0  0  0  0  0  0  0  0  0
   39.9304   34.3592   36.5143 H   0  0  0  0  0  0  0  0  0  0  0  0
  1  2  2  0
  1  4  1  0
  3  8  2  0
  4  5  2  0
  4  3  1  0
  5  6  1  0
  6  7  2  0
  7  9  1  0
  8  7  1  0
  9 10  1  0
 10 11  1  0
 12  2  1  0
 13 14  1  0
 14 15  2  0
 15 16  1  0
 15 12  1  0
 17 16  2  0
 18 17  1  0
 19 18  2  0
 19 14  1  0
  1 20  1  0
  2 21  1  0
  3 22  1  0
  5 23  1  0
  9 24  1  0
  9 25  1  0
 10 26  1  0
 10 27  1  0
 11 28  1  0
 12 29  1  0
 12 30  1  0
 16 31  1  0
 17 32  1  0
 18 33  1  0
 19 34  1  0
M  ISO  8  22  14  23  14  24   8  25   8  26   8  27   8  28   3  29   8
M  ISO  5  30   8  31  14  32  14  33  14  34  14
M  END
>  <minimizedAffinity>  (1) 
-6.00957394

>  <minimizedRMSD>  (1) 
0.136910543

$$$$
