
     RDKit          3D

 34 35  0  0  0  0  0  0  0  0999 V2000
   42.7100   35.5480   41.3910 C   0  0  0  0  0  0  0  0  0  0  0  0
   41.4420   35.5350   41.6570 C   0  0  0  0  0  0  0  0  0  0  0  0
   44.5640   35.6880   43.0600 C   0  0  0  0  0  0  0  0  0  0  0  0
   43.7610   34.9080   42.1890 C   0  0  0  0  0  0  0  0  0  0  0  0
   43.9970   33.5550   42.1210 C   0  0  0  0  0  0  0  0  0  0  0  0
   44.9950   33.0550   42.9010 N   0  0  0  0  0  0  0  0  0  0  0  0
   45.7490   33.7900   43.7200 C   0  0  0  0  0  0  0  0  0  0  0  0
   45.5180   35.1100   43.7860 N   0  0  0  0  0  0  0  0  0  0  0  0
   46.8280   33.2940   44.5730 C   0  0  0  0  0  0  0  0  0  0  0  0
   46.3580   33.2200   46.0250 C   0  0  0  0  0  0  0  0  0  0  0  0
   46.1560   31.4980   46.5410 S   0  0  0  0  0  0  0  0  0  0  0  0
   40.4190   36.2060   40.8050 C   0  0  0  0  0  0  0  0  0  0  0  0
   41.3060   36.1630   38.1700 F   0  0  0  0  0  0  0  0  0  0  0  0
   40.3250   35.3020   38.5140 C   0  0  0  0  0  0  0  0  0  0  0  0
   39.8510   35.2880   39.8180 C   0  0  0  0  0  0  0  0  0  0  0  0
   38.8550   34.3700   40.0480 C   0  0  0  0  0  0  0  0  0  0  0  0
   38.3000   33.4960   39.1450 C   0  0  0  0  0  0  0  0  0  0  0  0
   38.8350   33.5790   37.8640 C   0  0  0  0  0  0  0  0  0  0  0  0
   39.8340   34.4590   37.5210 C   0  0  0  0  0  0  0  0  0  0  0  0
   43.0265   36.0871   40.4859 H   0  0  0  0  0  0  0  0  0  0  0  0
   41.1030   35.0017   42.5574 H   0  0  0  0  0  0  0  0  0  0  0  0
   44.3979   36.7728   43.1356 H   0  0  0  0  0  0  0  0  0  0  0  0
   43.4036   32.9030   41.4632 H   0  0  0  0  0  0  0  0  0  0  0  0
   47.1263   32.2904   44.2356 H   0  0  0  0  0  0  0  0  0  0  0  0
   47.6843   33.9813   44.5065 H   0  0  0  0  0  0  0  0  0  0  0  0
   47.1033   33.7062   46.6716 H   0  0  0  0  0  0  0  0  0  0  0  0
   45.3883   33.7323   46.1107 H   0  0  0  0  0  0  0  0  0  0  0  0
   46.1479   31.4292   47.9092 H   0  0  0  0  0  0  0  0  0  0  0  0
   39.6103   36.5825   41.4486 H   0  0  0  0  0  0  0  0  0  0  0  0
   40.9089   37.0298   40.2653 H   0  0  0  0  0  0  0  0  0  0  0  0
   38.4563   34.3303   41.0724 H   0  0  0  0  0  0  0  0  0  0  0  0
   37.4999   32.7901   39.4126 H   0  0  0  0  0  0  0  0  0  0  0  0
   38.4396   32.9078   37.0874 H   0  0  0  0  0  0  0  0  0  0  0  0
   40.2320   34.4957   36.4962 H   0  0  0  0  0  0  0  0  0  0  0  0
  1  2  2  0
  1  4  1  0
  3  8  2  0
  4  3  1  0
  5  4  2  0
  5  6  1  0
  6  7  2  0
  7  8  1  0
  7  9  1  0
  9 10  1  0
 10 11  1  0
 12  2  1  0
 13 14  1  0
 14 15  2  0
 15 16  1  0
 15 12  1  0
 17 16  2  0
 18 17  1  0
 19 18  2  0
 19 14  1  0
  1 20  1  0
  2 21  1  0
  3 22  1  0
  5 23  1  0
  9 24  1  0
  9 25  1  0
 10 26  1  0
 10 27  1  0
 11 28  1  0
 12 29  1  0
 12 30  1  0
 16 31  1  0
 17 32  1  0
 18 33  1  0
 19 34  1  0
M  ISO  8  22  14  23  14  24   8  25   8  26   8  27   8  28  11  29   8
M  ISO  5  30   8  31  14  32  14  33  14  34  14
M  END
>  <minimizedAffinity>  (1) 
-5.7530961

>  <minimizedRMSD>  (1) 
0.345332652

$$$$
