
     RDKit          3D

 27 28  0  0  1  0  0  0  0  0999 V2000
   44.4850   36.0940   44.7680 C   0  0  0  0  0  0  0  0  0  0  0  0
   44.8020   35.9380   43.4190 C   0  0  0  0  0  0  0  0  0  0  0  0
   45.4310   34.7660   42.9970 C   0  0  0  0  0  0  0  0  0  0  0  0
   45.7030   33.8240   43.9470 N   0  0  0  0  0  0  0  0  0  0  0  0
   45.3930   33.9870   45.2400 C   0  0  0  0  0  0  0  0  0  0  0  0
   44.7870   35.1230   45.6260 N   0  0  0  0  0  0  0  0  0  0  0  0
   45.6930   32.9750   46.2150 N   0  0  0  0  0  0  0  0  0  0  0  0
   45.1530   33.1520   47.5390 C   0  0  0  0  0  0  0  0  0  0  0  0
   45.6570   32.2050   48.5560 C   0  0  0  0  0  0  0  0  0  0  0  0
   45.9550   30.8700   47.9210 C   0  0  0  0  0  0  0  0  0  0  0  0
   47.1130   31.1490   46.9720 C   0  0  0  0  0  0  0  0  0  0  0  0
   46.5170   31.8570   45.7810 C   0  0  2  0  0  0  0  0  0  0  0  0
   47.6280   32.4440   45.0450 N   0  0  0  0  0  0  0  0  0  0  0  0
   43.9899   37.0113   45.1195 H   0  0  0  0  0  0  0  0  0  0  0  0
   44.5589   36.7301   42.6955 H   0  0  0  0  0  0  0  0  0  0  0  0
   45.6969   34.6075   41.9415 H   0  0  0  0  0  0  0  0  0  0  0  0
   45.3971   34.1714   47.8726 H   0  0  0  0  0  0  0  0  0  0  0  0
   44.0724   32.9639   47.4556 H   0  0  0  0  0  0  0  0  0  0  0  0
   46.5774   32.6082   49.0036 H   0  0  0  0  0  0  0  0  0  0  0  0
   44.8899   32.0701   49.3328 H   0  0  0  0  0  0  0  0  0  0  0  0
   46.2464   30.1330   48.6838 H   0  0  0  0  0  0  0  0  0  0  0  0
   45.0811   30.4493   47.4021 H   0  0  0  0  0  0  0  0  0  0  0  0
   47.8617   31.7893   47.4613 H   0  0  0  0  0  0  0  0  0  0  0  0
   47.6211   30.2199   46.6742 H   0  0  0  0  0  0  0  0  0  0  0  0
   45.9183   31.1468   45.1917 H   0  0  0  0  0  0  0  0  0  0  0  0
   48.3239   32.8117   45.7094 H   0  0  0  0  0  0  0  0  0  0  0  0
   48.0658   31.7242   44.4525 H   0  0  0  0  0  0  0  0  0  0  0  0
  1  6  2  0
  2  1  1  0
  3  2  2  0
  3  4  1  0
  4  5  2  0
  5  6  1  0
  5  7  1  0
  7  8  1  0
  8  9  1  0
 10  9  1  0
 11 10  1  0
 12  7  1  0
 12 11  1  0
 13 12  1  0
  1 14  1  0
  2 15  1  0
  3 16  1  0
  8 17  1  0
  8 18  1  0
  9 19  1  0
  9 20  1  0
 10 21  1  0
 10 22  1  0
 11 23  1  0
 11 24  1  0
 12 25  1  6
 13 26  1  0
 13 27  1  0
M  ISO  8  14  14  15  14  16  14  17  13  18  13  19  13  20  13  21  13
M  ISO  6  22  13  23  13  24  13  25  13  26   5  27   5
M  END
>  <minimizedAffinity>  (1) 
-4.36784077

>  <minimizedRMSD>  (1) 
0.788833916

$$$$
