
     RDKit          3D

 29 30  0  0  1  0  0  0  0  0999 V2000
   44.4720   36.0560   44.7420 C   0  0  0  0  0  0  0  0  0  0  0  0
   44.5810   35.7980   43.3710 C   0  0  0  0  0  0  0  0  0  0  0  0
   45.0680   34.5620   42.9600 C   0  0  0  0  0  0  0  0  0  0  0  0
   45.4210   33.6470   43.9110 N   0  0  0  0  0  0  0  0  0  0  0  0
   45.3040   33.9270   45.2320 C   0  0  0  0  0  0  0  0  0  0  0  0
   44.8270   35.1360   45.6430 N   0  0  0  0  0  0  0  0  0  0  0  0
   45.6890   32.9280   46.1930 N   0  0  0  0  0  0  0  0  0  0  0  0
   45.1540   33.0970   47.5430 C   0  0  0  0  0  0  0  0  0  0  0  0
   45.8860   32.3150   48.5830 C   0  0  0  0  0  0  0  0  0  0  0  0
   46.2380   30.9740   48.0110 C   0  0  0  0  0  0  0  0  0  0  0  0
   47.2980   31.2700   46.9560 C   0  0  0  0  0  0  0  0  0  0  0  0
   46.5550   31.8570   45.7760 C   0  0  2  0  0  0  0  0  0  0  0  0
   47.9740   31.6240   43.7590 C   0  0  0  0  0  0  0  0  0  0  0  0
   47.4700   30.4830   43.5770 O   0  0  0  0  0  0  0  0  0  0  0  0
   47.5560   32.4190   44.8840 N   0  0  0  0  0  0  0  0  0  0  0  0
   44.0889   37.0294   45.0823 H   0  0  0  0  0  0  0  0  0  0  0  0
   44.2871   36.5584   42.6325 H   0  0  0  0  0  0  0  0  0  0  0  0
   45.1670   34.3257   41.8902 H   0  0  0  0  0  0  0  0  0  0  0  0
   45.2100   34.1633   47.8074 H   0  0  0  0  0  0  0  0  0  0  0  0
   44.1204   32.7210   47.5276 H   0  0  0  0  0  0  0  0  0  0  0  0
   46.8042   32.8483   48.8703 H   0  0  0  0  0  0  0  0  0  0  0  0
   45.2539   32.1900   49.4746 H   0  0  0  0  0  0  0  0  0  0  0  0
   46.6418   30.3129   48.7920 H   0  0  0  0  0  0  0  0  0  0  0  0
   45.3627   30.4587   47.5887 H   0  0  0  0  0  0  0  0  0  0  0  0
   48.0324   31.9916   47.3433 H   0  0  0  0  0  0  0  0  0  0  0  0
   47.8520   30.3625   46.6739 H   0  0  0  0  0  0  0  0  0  0  0  0
   45.9472   31.0757   45.2962 H   0  0  0  0  0  0  0  0  0  0  0  0
   48.7306   32.0109   43.0606 H   0  0  0  0  0  0  0  0  0  0  0  0
   47.9528   33.3546   45.0513 H   0  0  0  0  0  0  0  0  0  0  0  0
  1  6  2  0
  2  1  1  0
  3  2  2  0
  3  4  1  0
  4  5  2  0
  5  6  1  0
  5  7  1  0
  7  8  1  0
  8  9  1  0
 10  9  1  0
 11 10  1  0
 12  7  1  0
 12 11  1  0
 13 15  1  0
 14 13  2  0
 15 12  1  0
  1 16  1  0
  2 17  1  0
  3 18  1  0
  8 19  1  0
  8 20  1  0
  9 21  1  0
  9 22  1  0
 10 23  1  0
 10 24  1  0
 11 25  1  0
 11 26  1  0
 12 27  1  6
 13 28  1  0
 15 29  1  0
M  ISO  8  16  14  17  14  18  14  19  13  20  13  21  13  22  13  23  13
M  ISO  5  24  13  25  13  26  13  27  13  28   6
M  END
>  <minimizedAffinity>  (1) 
-4.26841688

>  <minimizedRMSD>  (1) 
1.00370061

$$$$
