
     RDKit          3D

 11 11  0  0  0  0  0  0  0  0999 V2000
   45.0000   35.4840   44.1920 C   0  0  0  0  0  0  0  0  0  0  0  0
   45.9810   34.9290   43.3400 C   0  0  0  0  0  0  0  0  0  0  0  0
   46.7140   33.8320   43.8380 C   0  0  0  0  0  0  0  0  0  0  0  0
   46.4420   33.3780   45.0870 N   0  0  0  0  0  0  0  0  0  0  0  0
   45.4940   33.9430   45.8610 C   0  0  0  0  0  0  0  0  0  0  0  0
   44.7800   34.9870   45.4160 N   0  0  0  0  0  0  0  0  0  0  0  0
   44.2870   36.5500   43.7100 O   0  0  0  0  0  0  0  0  0  0  0  0
   46.1646   35.3342   42.3340 H   0  0  0  0  0  0  0  0  0  0  0  0
   47.4919   33.3533   43.2250 H   0  0  0  0  0  0  0  0  0  0  0  0
   45.3042   33.5434   46.8681 H   0  0  0  0  0  0  0  0  0  0  0  0
   44.4699   36.8977   42.8013 H   0  0  0  0  0  0  0  0  0  0  0  0
  1  6  2  0
  2  3  2  0
  2  1  1  0
  3  4  1  0
  4  5  2  0
  6  5  1  0
  7  1  1  0
  2  8  1  0
  3  9  1  0
  5 10  1  0
  7 11  1  0
M  ISO  4   8  14   9  14  10  14  11   3
M  END
>  <minimizedAffinity>  (1) 
-2.96454024

>  <minimizedRMSD>  (1) 
0.727976978

$$$$
