
     RDKit          3D

 38 40  0  0  1  0  0  0  0  0999 V2000
   44.6210   35.4550   45.3570 C   0  0  0  0  0  0  0  0  0  0  0  0
   44.5080   36.0800   44.1010 C   0  0  0  0  0  0  0  0  0  0  0  0
   45.0860   35.4480   42.9710 C   0  0  0  0  0  0  0  0  0  0  0  0
   45.7190   34.2650   43.1830 N   0  0  0  0  0  0  0  0  0  0  0  0
   45.8080   33.6930   44.4040 C   0  0  0  0  0  0  0  0  0  0  0  0
   45.2580   34.2870   45.5020 N   0  0  0  0  0  0  0  0  0  0  0  0
   46.4980   32.4470   44.5120 N   0  0  0  0  0  0  0  0  0  0  0  0
   46.3190   31.7130   45.7680 C   0  0  0  0  0  0  0  0  0  0  0  0
   47.3140   30.6610   46.0310 C   0  0  0  0  0  0  0  0  0  0  0  0
   47.7270   30.0000   44.7540 C   0  0  0  0  0  0  0  0  0  0  0  0
   48.3790   31.0440   43.9080 C   0  0  0  0  0  0  0  0  0  0  0  0
   47.3160   31.9670   43.4270 C   0  0  2  0  0  0  0  0  0  0  0  0
   47.0240   32.0310   40.5690 F   0  0  0  0  0  0  0  0  0  0  0  0
   47.7100   33.0670   41.1570 C   0  0  0  0  0  0  0  0  0  0  0  0
   47.8490   33.0390   42.5410 C   0  0  0  0  0  0  0  0  0  0  0  0
   48.5460   34.1050   43.0960 C   0  0  0  0  0  0  0  0  0  0  0  0
   49.0740   35.1340   42.3500 C   0  0  0  0  0  0  0  0  0  0  0  0
   48.9150   35.1280   40.9720 C   0  0  0  0  0  0  0  0  0  0  0  0
   48.2300   34.0860   40.4050 C   0  0  0  0  0  0  0  0  0  0  0  0
   48.0300   34.0290   38.9250 C   0  0  0  0  0  0  0  0  0  0  0  0
   48.6860   32.9530   38.3500 F   0  0  0  0  0  0  0  0  0  0  0  0
   48.5770   35.1620   38.3210 F   0  0  0  0  0  0  0  0  0  0  0  0
   46.7010   33.9370   38.5890 F   0  0  0  0  0  0  0  0  0  0  0  0
   44.1756   35.9375   46.2395 H   0  0  0  0  0  0  0  0  0  0  0  0
   43.9814   37.0403   43.9980 H   0  0  0  0  0  0  0  0  0  0  0  0
   45.0246   35.8955   41.9680 H   0  0  0  0  0  0  0  0  0  0  0  0
   46.3648   32.4377   46.5942 H   0  0  0  0  0  0  0  0  0  0  0  0
   45.3498   31.1996   45.6839 H   0  0  0  0  0  0  0  0  0  0  0  0
   48.1975   31.1095   46.5088 H   0  0  0  0  0  0  0  0  0  0  0  0
   46.8668   29.9059   46.6942 H   0  0  0  0  0  0  0  0  0  0  0  0
   48.4373   29.1865   44.9631 H   0  0  0  0  0  0  0  0  0  0  0  0
   46.8569   29.5669   44.2389 H   0  0  0  0  0  0  0  0  0  0  0  0
   49.1173   31.6011   44.5035 H   0  0  0  0  0  0  0  0  0  0  0  0
   48.8995   30.5800   43.0572 H   0  0  0  0  0  0  0  0  0  0  0  0
   46.6394   31.3874   42.7818 H   0  0  0  0  0  0  0  0  0  0  0  0
   48.6828   34.1277   44.1872 H   0  0  0  0  0  0  0  0  0  0  0  0
   49.6174   35.9541   42.8422 H   0  0  0  0  0  0  0  0  0  0  0  0
   49.3275   35.9375   40.3518 H   0  0  0  0  0  0  0  0  0  0  0  0
  1  6  2  0
  2  1  1  0
  3  4  1  0
  3  2  2  0
  4  5  2  0
  5  7  1  0
  5  6  1  0
  7  8  1  0
  8  9  1  0
 10  9  1  0
 11 10  1  0
 12 11  1  0
 12  7  1  0
 13 14  1  0
 14 15  2  0
 15 16  1  0
 15 12  1  0
 17 16  2  0
 18 17  1  0
 19 18  2  0
 19 14  1  0
 20 19  1  0
 21 20  1  0
 22 20  1  0
 23 20  1  0
  1 24  1  0
  2 25  1  0
  3 26  1  0
  8 27  1  0
  8 28  1  0
  9 29  1  0
  9 30  1  0
 10 31  1  0
 10 32  1  0
 11 33  1  0
 11 34  1  0
 12 35  1  6
 16 36  1  0
 17 37  1  0
 18 38  1  0
M  ISO  8  24  14  25  14  26  14  27  13  28  13  29  13  30  13  31  13
M  ISO  7  32  13  33  13  34  13  35  13  36  14  37  14  38  14
M  END
>  <minimizedAffinity>  (1) 
-6.03576517

>  <minimizedRMSD>  (1) 
0.763032913

$$$$
