
     RDKit          3D

 37 39  0  0  1  0  0  0  0  0999 V2000
   44.6730   35.3540   45.4190 C   0  0  0  0  0  0  0  0  0  0  0  0
   44.5180   36.0440   44.2040 C   0  0  0  0  0  0  0  0  0  0  0  0
   45.0730   35.4910   43.0410 C   0  0  0  0  0  0  0  0  0  0  0  0
   45.7340   34.3100   43.1600 N   0  0  0  0  0  0  0  0  0  0  0  0
   45.8670   33.6690   44.3440 C   0  0  0  0  0  0  0  0  0  0  0  0
   45.3360   34.1870   45.4880 N   0  0  0  0  0  0  0  0  0  0  0  0
   46.5790   32.4320   44.3650 N   0  0  0  0  0  0  0  0  0  0  0  0
   46.4410   31.6330   45.5770 C   0  0  0  0  0  0  0  0  0  0  0  0
   47.4590   30.5910   45.7670 C   0  0  0  0  0  0  0  0  0  0  0  0
   47.8550   30.0000   44.4440 C   0  0  0  0  0  0  0  0  0  0  0  0
   48.4700   31.1090   43.6370 C   0  0  0  0  0  0  0  0  0  0  0  0
   47.3770   32.0330   43.2330 C   0  0  2  0  0  0  0  0  0  0  0  0
   46.8120   32.3770   40.4380 F   0  0  0  0  0  0  0  0  0  0  0  0
   47.5930   33.3240   41.0470 C   0  0  0  0  0  0  0  0  0  0  0  0
   47.8660   33.1570   42.4030 C   0  0  0  0  0  0  0  0  0  0  0  0
   48.6600   34.1480   42.9620 C   0  0  0  0  0  0  0  0  0  0  0  0
   49.1570   35.2240   42.2630 C   0  0  0  0  0  0  0  0  0  0  0  0
   48.8650   35.3550   40.9210 C   0  0  0  0  0  0  0  0  0  0  0  0
   48.0790   34.3920   40.3310 C   0  0  0  0  0  0  0  0  0  0  0  0
   47.7910   34.5470   38.9450 N   0  0  0  0  0  0  0  0  0  0  0  0
   44.2407   35.7800   46.3364 H   0  0  0  0  0  0  0  0  0  0  0  0
   43.9724   36.9984   44.1664 H   0  0  0  0  0  0  0  0  0  0  0  0
   44.9767   35.9949   42.0680 H   0  0  0  0  0  0  0  0  0  0  0  0
   46.4884   32.3143   46.4393 H   0  0  0  0  0  0  0  0  0  0  0  0
   45.4813   31.1038   45.4822 H   0  0  0  0  0  0  0  0  0  0  0  0
   48.3449   31.0327   46.2466 H   0  0  0  0  0  0  0  0  0  0  0  0
   47.0423   29.7961   46.4031 H   0  0  0  0  0  0  0  0  0  0  0  0
   48.5856   29.1915   44.5943 H   0  0  0  0  0  0  0  0  0  0  0  0
   46.9831   29.5733   43.9266 H   0  0  0  0  0  0  0  0  0  0  0  0
   49.2112   31.6484   44.2450 H   0  0  0  0  0  0  0  0  0  0  0  0
   48.9797   30.7038   42.7505 H   0  0  0  0  0  0  0  0  0  0  0  0
   46.6946   31.4798   42.5710 H   0  0  0  0  0  0  0  0  0  0  0  0
   48.9077   34.0686   44.0308 H   0  0  0  0  0  0  0  0  0  0  0  0
   49.7821   35.9737   42.7701 H   0  0  0  0  0  0  0  0  0  0  0  0
   49.2497   36.2054   40.3390 H   0  0  0  0  0  0  0  0  0  0  0  0
   47.2067   33.8515   38.4595 H   0  0  0  0  0  0  0  0  0  0  0  0
   48.1670   35.3546   38.4280 H   0  0  0  0  0  0  0  0  0  0  0  0
  1  6  2  0
  2  1  1  0
  3  4  1  0
  3  2  2  0
  4  5  2  0
  5  7  1  0
  5  6  1  0
  7  8  1  0
  8  9  1  0
 10  9  1  0
 11 10  1  0
 12 11  1  0
 12  7  1  0
 13 14  1  0
 14 15  2  0
 15 16  1  0
 15 12  1  0
 17 16  2  0
 18 17  1  0
 19 18  2  0
 19 14  1  0
 20 19  1  0
  1 21  1  0
  2 22  1  0
  3 23  1  0
  8 24  1  0
  8 25  1  0
  9 26  1  0
  9 27  1  0
 10 28  1  0
 10 29  1  0
 11 30  1  0
 11 31  1  0
 12 32  1  6
 16 33  1  0
 17 34  1  0
 18 35  1  0
 20 36  1  0
 20 37  1  0
M  ISO  8  21  14  22  14  23  14  24  13  25  13  26  13  27  13  28  13
M  ISO  7  29  13  30  13  31  13  32  13  33  14  34  14  35  14
M  END
>  <minimizedAffinity>  (1) 
-5.87318277

>  <minimizedRMSD>  (1) 
0.311009198

$$$$
