
     RDKit          3D

 36 38  0  0  1  0  0  0  0  0999 V2000
   44.6300   35.4480   45.3720 C   0  0  0  0  0  0  0  0  0  0  0  0
   44.5120   36.0690   44.1110 C   0  0  0  0  0  0  0  0  0  0  0  0
   45.0770   35.4370   42.9930 C   0  0  0  0  0  0  0  0  0  0  0  0
   45.7080   34.2510   43.1950 N   0  0  0  0  0  0  0  0  0  0  0  0
   45.8050   33.6790   44.4170 C   0  0  0  0  0  0  0  0  0  0  0  0
   45.2650   34.2740   45.5190 N   0  0  0  0  0  0  0  0  0  0  0  0
   46.4900   32.4290   44.5200 N   0  0  0  0  0  0  0  0  0  0  0  0
   46.3130   31.7000   45.7760 C   0  0  0  0  0  0  0  0  0  0  0  0
   47.3050   30.6460   46.0350 C   0  0  0  0  0  0  0  0  0  0  0  0
   47.7150   29.9800   44.7700 C   0  0  0  0  0  0  0  0  0  0  0  0
   48.3620   31.0280   43.9110 C   0  0  0  0  0  0  0  0  0  0  0  0
   47.3000   31.9480   43.4290 C   0  0  2  0  0  0  0  0  0  0  0  0
   46.8990   32.0620   40.5910 F   0  0  0  0  0  0  0  0  0  0  0  0
   47.6380   33.0720   41.1580 C   0  0  0  0  0  0  0  0  0  0  0  0
   47.8230   33.0130   42.5400 C   0  0  0  0  0  0  0  0  0  0  0  0
   48.5760   34.0570   43.0820 C   0  0  0  0  0  0  0  0  0  0  0  0
   49.1050   35.0810   42.3280 C   0  0  0  0  0  0  0  0  0  0  0  0
   48.8920   35.0960   40.9580 C   0  0  0  0  0  0  0  0  0  0  0  0
   48.1590   34.0860   40.3980 C   0  0  0  0  0  0  0  0  0  0  0  0
   47.8730   34.0800   38.6540 S   0  0  0  0  0  0  0  0  0  0  0  0
   44.1919   35.9365   46.2549 H   0  0  0  0  0  0  0  0  0  0  0  0
   43.9872   37.0301   44.0062 H   0  0  0  0  0  0  0  0  0  0  0  0
   45.0115   35.8850   41.9905 H   0  0  0  0  0  0  0  0  0  0  0  0
   46.3651   32.4260   46.6007 H   0  0  0  0  0  0  0  0  0  0  0  0
   45.3410   31.1909   45.6983 H   0  0  0  0  0  0  0  0  0  0  0  0
   48.1906   31.0938   46.5096 H   0  0  0  0  0  0  0  0  0  0  0  0
   46.8529   29.8934   46.6977 H   0  0  0  0  0  0  0  0  0  0  0  0
   48.4304   29.1720   44.9832 H   0  0  0  0  0  0  0  0  0  0  0  0
   46.8466   29.5367   44.2608 H   0  0  0  0  0  0  0  0  0  0  0  0
   49.1021   31.5889   44.5006 H   0  0  0  0  0  0  0  0  0  0  0  0
   48.8762   30.5591   43.0591 H   0  0  0  0  0  0  0  0  0  0  0  0
   46.6229   31.3687   42.7841 H   0  0  0  0  0  0  0  0  0  0  0  0
   48.7559   34.0616   44.1672 H   0  0  0  0  0  0  0  0  0  0  0  0
   49.6906   35.8790   42.8079 H   0  0  0  0  0  0  0  0  0  0  0  0
   49.3039   35.9032   40.3345 H   0  0  0  0  0  0  0  0  0  0  0  0
   46.5248   34.0517   38.4124 H   0  0  0  0  0  0  0  0  0  0  0  0
  1  6  2  0
  2  1  1  0
  3  4  1  0
  3  2  2  0
  4  5  2  0
  5  7  1  0
  5  6  1  0
  7  8  1  0
  8  9  1  0
 10  9  1  0
 11 10  1  0
 12 11  1  0
 12  7  1  0
 13 14  1  0
 14 15  2  0
 15 16  1  0
 15 12  1  0
 17 16  2  0
 18 17  1  0
 19 18  2  0
 19 14  1  0
 20 19  1  0
  1 21  1  0
  2 22  1  0
  3 23  1  0
  8 24  1  0
  8 25  1  0
  9 26  1  0
  9 27  1  0
 10 28  1  0
 10 29  1  0
 11 30  1  0
 11 31  1  0
 12 32  1  6
 16 33  1  0
 17 34  1  0
 18 35  1  0
 20 36  1  0
M  ISO  8  21  14  22  14  23  14  24  13  25  13  26  13  27  13  28  13
M  ISO  8  29  13  30  13  31  13  32  13  33  14  34  14  35  14  36  11
M  END
>  <minimizedAffinity>  (1) 
-5.44573116

>  <minimizedRMSD>  (1) 
0.540803909

$$$$
