
     RDKit          3D

 11 11  0  0  0  0  0  0  0  0999 V2000
   45.5350   34.7070   44.2340 C   0  0  0  0  0  0  0  0  0  0  0  0
   46.5790   33.9110   43.7420 C   0  0  0  0  0  0  0  0  0  0  0  0
   47.1150   32.9280   44.5970 C   0  0  0  0  0  0  0  0  0  0  0  0
   46.5890   32.8130   45.8440 N   0  0  0  0  0  0  0  0  0  0  0  0
   45.5850   33.5970   46.2820 C   0  0  0  0  0  0  0  0  0  0  0  0
   45.0500   34.5480   45.4850 N   0  0  0  0  0  0  0  0  0  0  0  0
   44.9170   35.9340   43.0660 S   0  0  0  0  0  0  0  0  0  0  0  0
   46.9668   34.0495   42.7220 H   0  0  0  0  0  0  0  0  0  0  0  0
   47.9344   32.2736   44.2649 H   0  0  0  0  0  0  0  0  0  0  0  0
   45.1956   33.4613   47.3018 H   0  0  0  0  0  0  0  0  0  0  0  0
   44.3842   36.9919   43.7543 H   0  0  0  0  0  0  0  0  0  0  0  0
  1  6  2  0
  2  1  1  0
  2  3  2  0
  3  4  1  0
  4  5  2  0
  6  5  1  0
  7  1  1  0
  2  8  1  0
  3  9  1  0
  5 10  1  0
  7 11  1  0
M  ISO  4   8  14   9  14  10  14  11  11
M  END
>  <minimizedAffinity>  (1) 
-2.44550347

>  <minimizedRMSD>  (1) 
1.74087059

$$$$
