
     RDKit          3D

 25 26  0  0  1  0  0  0  0  0999 V2000
   44.6410   35.0930   45.5930 C   0  0  0  0  0  0  0  0  0  0  0  0
   45.1270   34.8700   44.2680 C   0  0  0  0  0  0  0  0  0  0  0  0
   46.0000   33.7930   44.0560 C   0  0  0  0  0  0  0  0  0  0  0  0
   46.3370   33.0160   45.1260 N   0  0  0  0  0  0  0  0  0  0  0  0
   45.8650   33.2480   46.3630 C   0  0  0  0  0  0  0  0  0  0  0  0
   45.0200   34.2860   46.5850 N   0  0  0  0  0  0  0  0  0  0  0  0
   46.2710   32.3960   47.3880 N   0  0  0  0  0  0  0  0  0  0  0  0
   47.6480   32.2640   47.7410 C   0  0  0  0  0  0  0  0  0  0  0  0
   47.9560   31.0430   48.5480 C   0  0  0  0  0  0  0  0  0  0  0  0
   46.9660   30.7040   49.5130 N   0  0  0  0  0  0  0  0  0  0  0  0
   45.8050   31.5550   49.5380 C   0  0  0  0  0  0  0  0  0  0  0  0
   45.2640   31.6120   48.1260 C   0  0  1  0  0  0  0  0  0  0  0  0
   44.0140   32.2230   48.0440 O   0  0  0  0  0  0  0  0  0  0  0  0
   43.9552   35.9291   45.7947 H   0  0  0  0  0  0  0  0  0  0  0  0
   44.8249   35.5248   43.4374 H   0  0  0  0  0  0  0  0  0  0  0  0
   46.4021   33.5804   43.0545 H   0  0  0  0  0  0  0  0  0  0  0  0
   48.2400   32.2246   46.8148 H   0  0  0  0  0  0  0  0  0  0  0  0
   47.8996   33.1315   48.3687 H   0  0  0  0  0  0  0  0  0  0  0  0
   48.0663   30.1942   47.8571 H   0  0  0  0  0  0  0  0  0  0  0  0
   48.8753   31.2650   49.1099 H   0  0  0  0  0  0  0  0  0  0  0  0
   46.6504   29.7429   49.3191 H   0  0  0  0  0  0  0  0  0  0  0  0
   45.0460   31.1378   50.2162 H   0  0  0  0  0  0  0  0  0  0  0  0
   46.0651   32.5612   49.8983 H   0  0  0  0  0  0  0  0  0  0  0  0
   45.1082   30.6012   47.7209 H   0  0  0  0  0  0  0  0  0  0  0  0
   43.6687   32.3918   48.9564 H   0  0  0  0  0  0  0  0  0  0  0  0
  1  6  2  0
  2  1  1  0
  3  2  2  0
  3  4  1  0
  4  5  2  0
  5  6  1  0
  5  7  1  0
  7  8  1  0
  7 12  1  0
  8  9  1  0
  9 10  1  0
 10 11  1  0
 12 11  1  0
 13 12  1  0
  1 14  1  0
  2 15  1  0
  3 16  1  0
  8 17  1  0
  8 18  1  0
  9 19  1  0
  9 20  1  0
 10 21  1  0
 11 22  1  0
 11 23  1  0
 12 24  1  6
 13 25  1  0
M  ISO  8  14  14  15  14  16  14  17  13  18  13  19  13  20  13  21   5
M  ISO  4  22  13  23  13  24  13  25   3
M  END
>  <minimizedAffinity>  (1) 
-4.78884125

>  <minimizedRMSD>  (1) 
0.458754897

$$$$
