
     RDKit          3D

 27 28  0  0  1  0  0  0  0  0999 V2000
   44.9100   34.9160   45.1110 C   0  0  0  0  0  0  0  0  0  0  0  0
   45.6950   34.7110   43.9330 C   0  0  0  0  0  0  0  0  0  0  0  0
   46.6830   33.6960   43.9680 C   0  0  0  0  0  0  0  0  0  0  0  0
   46.8130   32.9940   45.1160 N   0  0  0  0  0  0  0  0  0  0  0  0
   46.0720   33.1980   46.2110 C   0  0  0  0  0  0  0  0  0  0  0  0
   45.1260   34.1620   46.1910 N   0  0  0  0  0  0  0  0  0  0  0  0
   46.2870   32.4180   47.3430 N   0  0  0  0  0  0  0  0  0  0  0  0
   47.5740   32.3990   47.9740 C   0  0  0  0  0  0  0  0  0  0  0  0
   47.7890   31.2510   48.9090 C   0  0  0  0  0  0  0  0  0  0  0  0
   46.6310   30.7820   49.5990 N   0  0  0  0  0  0  0  0  0  0  0  0
   45.4580   31.5720   49.3680 C   0  0  0  0  0  0  0  0  0  0  0  0
   45.2020   31.6140   47.8950 C   0  0  2  0  0  0  0  0  0  0  0  0
   45.1220   30.2520   47.2640 C   0  0  0  0  0  0  0  0  0  0  0  0
   44.1309   35.6924   45.1268 H   0  0  0  0  0  0  0  0  0  0  0  0
   45.5371   35.3204   43.0309 H   0  0  0  0  0  0  0  0  0  0  0  0
   47.3193   33.4874   43.0953 H   0  0  0  0  0  0  0  0  0  0  0  0
   48.3416   32.3502   47.1876 H   0  0  0  0  0  0  0  0  0  0  0  0
   47.6385   33.3138   48.5814 H   0  0  0  0  0  0  0  0  0  0  0  0
   48.1955   30.4124   48.3247 H   0  0  0  0  0  0  0  0  0  0  0  0
   48.4678   31.6263   49.6890 H   0  0  0  0  0  0  0  0  0  0  0  0
   46.4385   29.8180   49.2916 H   0  0  0  0  0  0  0  0  0  0  0  0
   44.5975   31.1191   49.8822 H   0  0  0  0  0  0  0  0  0  0  0  0
   45.6050   32.5907   49.7561 H   0  0  0  0  0  0  0  0  0  0  0  0
   44.2160   32.0523   47.6814 H   0  0  0  0  0  0  0  0  0  0  0  0
   45.0770   29.4852   48.0514 H   0  0  0  0  0  0  0  0  0  0  0  0
   44.2186   30.1897   46.6394 H   0  0  0  0  0  0  0  0  0  0  0  0
   46.0118   30.0844   46.6394 H   0  0  0  0  0  0  0  0  0  0  0  0
  1  6  2  0
  2  3  2  0
  2  1  1  0
  3  4  1  0
  4  5  2  0
  5  7  1  0
  6  5  1  0
  7 12  1  0
  7  8  1  0
  8  9  1  0
  9 10  1  0
 11 10  1  0
 12 11  1  0
 13 12  1  0
  1 14  1  0
  2 15  1  0
  3 16  1  0
  8 17  1  0
  8 18  1  0
  9 19  1  0
  9 20  1  0
 10 21  1  0
 11 22  1  0
 11 23  1  0
 12 24  1  1
 13 25  1  0
 13 26  1  0
 13 27  1  0
M  ISO  8  14  14  15  14  16  14  17  13  18  13  19  13  20  13  21   5
M  ISO  6  22  13  23  13  24  13  25   8  26   8  27   8
M  END
>  <minimizedAffinity>  (1) 
-5.01071978

>  <minimizedRMSD>  (1) 
0.0692443997

$$$$
