
     RDKit          3D

 28 29  0  0  1  0  0  0  0  0999 V2000
   45.0270   34.7750   44.9780 C   0  0  0  0  0  0  0  0  0  0  0  0
   45.8810   34.6070   43.8410 C   0  0  0  0  0  0  0  0  0  0  0  0
   46.9050   33.6460   43.9480 C   0  0  0  0  0  0  0  0  0  0  0  0
   47.0050   32.9640   45.1000 N   0  0  0  0  0  0  0  0  0  0  0  0
   46.2010   33.1270   46.1590 C   0  0  0  0  0  0  0  0  0  0  0  0
   45.2080   34.0440   46.0860 N   0  0  0  0  0  0  0  0  0  0  0  0
   46.3970   32.3630   47.3030 N   0  0  0  0  0  0  0  0  0  0  0  0
   47.6430   32.4010   48.0050 C   0  0  0  0  0  0  0  0  0  0  0  0
   47.8480   31.2620   48.9480 C   0  0  0  0  0  0  0  0  0  0  0  0
   46.6850   30.7370   49.5630 N   0  0  0  0  0  0  0  0  0  0  0  0
   45.4950   31.4660   49.2760 C   0  0  0  0  0  0  0  0  0  0  0  0
   45.3050   31.5100   47.7890 C   0  0  2  0  0  0  0  0  0  0  0  0
   45.3220   30.1470   47.1610 C   0  0  0  0  0  0  0  0  0  0  0  0
   44.8850   29.1730   48.0510 O   0  0  0  0  0  0  0  0  0  0  0  0
   44.2124   35.5133   44.9413 H   0  0  0  0  0  0  0  0  0  0  0  0
   45.7435   35.2014   42.9257 H   0  0  0  0  0  0  0  0  0  0  0  0
   47.5996   33.4604   43.1155 H   0  0  0  0  0  0  0  0  0  0  0  0
   48.4567   32.3871   47.2649 H   0  0  0  0  0  0  0  0  0  0  0  0
   47.6360   33.3178   48.6128 H   0  0  0  0  0  0  0  0  0  0  0  0
   48.3280   30.4459   48.3879 H   0  0  0  0  0  0  0  0  0  0  0  0
   48.4553   31.6686   49.7701 H   0  0  0  0  0  0  0  0  0  0  0  0
   46.5569   29.7680   49.2382 H   0  0  0  0  0  0  0  0  0  0  0  0
   44.6335   30.9677   49.7447 H   0  0  0  0  0  0  0  0  0  0  0  0
   45.5765   32.4883   49.6739 H   0  0  0  0  0  0  0  0  0  0  0  0
   44.3168   31.9097   47.5176 H   0  0  0  0  0  0  0  0  0  0  0  0
   44.6617   30.1501   46.2812 H   0  0  0  0  0  0  0  0  0  0  0  0
   46.3569   29.9121   46.8715 H   0  0  0  0  0  0  0  0  0  0  0  0
   45.0259   29.4871   48.9792 H   0  0  0  0  0  0  0  0  0  0  0  0
  1  6  2  0
  2  3  2  0
  2  1  1  0
  3  4  1  0
  4  5  2  0
  5  7  1  0
  6  5  1  0
  7 12  1  0
  7  8  1  0
  8  9  1  0
  9 10  1  0
 11 10  1  0
 12 11  1  0
 13 12  1  0
 13 14  1  0
  1 15  1  0
  2 16  1  0
  3 17  1  0
  8 18  1  0
  8 19  1  0
  9 20  1  0
  9 21  1  0
 10 22  1  0
 11 23  1  0
 11 24  1  0
 12 25  1  1
 13 26  1  0
 13 27  1  0
 14 28  1  0
M  ISO  8  15  14  16  14  17  14  18  13  19  13  20  13  21  13  22   5
M  ISO  6  23  13  24  13  25  13  26   8  27   8  28   3
M  END
>  <minimizedAffinity>  (1) 
-4.88263321

>  <minimizedRMSD>  (1) 
0.299538821

$$$$
