
     RDKit          3D

 42 44  0  0  1  0  0  0  0  0999 V2000
   44.9850   34.6990   44.9790 C   0  0  0  0  0  0  0  0  0  0  0  0
   45.8780   34.6200   43.8620 C   0  0  0  0  0  0  0  0  0  0  0  0
   46.9700   33.7360   43.9540 C   0  0  0  0  0  0  0  0  0  0  0  0
   47.1140   33.0120   45.0950 N   0  0  0  0  0  0  0  0  0  0  0  0
   46.2710   33.0990   46.1270 C   0  0  0  0  0  0  0  0  0  0  0  0
   45.2210   33.9440   46.0450 N   0  0  0  0  0  0  0  0  0  0  0  0
   46.4890   32.3190   47.2640 N   0  0  0  0  0  0  0  0  0  0  0  0
   47.7170   32.4350   47.9930 C   0  0  0  0  0  0  0  0  0  0  0  0
   47.9760   31.2820   48.9230 C   0  0  0  0  0  0  0  0  0  0  0  0
   46.8370   30.6670   49.5090 N   0  0  0  0  0  0  0  0  0  0  0  0
   45.6050   31.3290   49.1920 C   0  0  0  0  0  0  0  0  0  0  0  0
   45.4440   31.3800   47.7030 C   0  0  2  0  0  0  0  0  0  0  0  0
   45.5880   30.0400   47.0700 C   0  0  0  0  0  0  0  0  0  0  0  0
   44.9170   29.0370   47.9700 C   0  0  0  0  0  0  0  0  0  0  0  0
   45.0930   27.7380   47.7980 C   0  0  0  0  0  0  0  0  0  0  0  0
   44.4630   26.6860   48.6480 C   0  0  0  0  0  0  0  0  0  0  0  0
   45.4270   25.6490   49.0710 C   0  0  0  0  0  0  0  0  0  0  0  0
   46.5870   25.2570   48.4380 C   0  0  0  0  0  0  0  0  0  0  0  0
   47.3710   24.2520   48.9970 C   0  0  0  0  0  0  0  0  0  0  0  0
   46.9490   23.7070   50.1440 N   0  0  0  0  0  0  0  0  0  0  0  0
   45.8340   24.0560   50.7880 C   0  0  0  0  0  0  0  0  0  0  0  0
   45.1140   25.0240   50.2150 N   0  0  0  0  0  0  0  0  0  0  0  0
   44.1173   35.3746   44.9539 H   0  0  0  0  0  0  0  0  0  0  0  0
   45.7159   35.2303   42.9613 H   0  0  0  0  0  0  0  0  0  0  0  0
   47.6865   33.6343   43.1256 H   0  0  0  0  0  0  0  0  0  0  0  0
   48.5455   32.4929   47.2717 H   0  0  0  0  0  0  0  0  0  0  0  0
   47.6392   33.3394   48.6142 H   0  0  0  0  0  0  0  0  0  0  0  0
   48.5163   30.5104   48.3550 H   0  0  0  0  0  0  0  0  0  0  0  0
   48.5388   31.7106   49.7654 H   0  0  0  0  0  0  0  0  0  0  0  0
   46.7813   29.6952   49.1722 H   0  0  0  0  0  0  0  0  0  0  0  0
   44.7645   30.7743   49.6345 H   0  0  0  0  0  0  0  0  0  0  0  0
   45.6187   32.3512   49.5982 H   0  0  0  0  0  0  0  0  0  0  0  0
   44.4366   31.7062   47.4052 H   0  0  0  0  0  0  0  0  0  0  0  0
   45.1058   30.0384   46.0813 H   0  0  0  0  0  0  0  0  0  0  0  0
   46.6504   29.7884   46.9355 H   0  0  0  0  0  0  0  0  0  0  0  0
   44.2688   29.3911   48.7851 H   0  0  0  0  0  0  0  0  0  0  0  0
   45.7460   27.4118   46.9751 H   0  0  0  0  0  0  0  0  0  0  0  0
   44.0413   27.1629   49.5451 H   0  0  0  0  0  0  0  0  0  0  0  0
   43.6836   26.1935   48.0480 H   0  0  0  0  0  0  0  0  0  0  0  0
   46.8916   25.7360   47.4958 H   0  0  0  0  0  0  0  0  0  0  0  0
   48.3016   23.9186   48.5145 H   0  0  0  0  0  0  0  0  0  0  0  0
   45.5275   23.5775   51.7299 H   0  0  0  0  0  0  0  0  0  0  0  0
  1  6  2  0
  2  3  2  0
  2  1  1  0
  3  4  1  0
  4  5  2  0
  5  7  1  0
  6  5  1  0
  7 12  1  0
  7  8  1  0
  8  9  1  0
  9 10  1  0
 11 10  1  0
 12 11  1  0
 13 12  1  0
 13 14  1  0
 15 14  2  0
 15 16  1  0
 16 17  1  0
 17 22  2  0
 18 19  2  0
 18 17  1  0
 19 20  1  0
 20 21  2  0
 22 21  1  0
  1 23  1  0
  2 24  1  0
  3 25  1  0
  8 26  1  0
  8 27  1  0
  9 28  1  0
  9 29  1  0
 10 30  1  0
 11 31  1  0
 11 32  1  0
 12 33  1  1
 13 34  1  0
 13 35  1  0
 14 36  1  0
 15 37  1  0
 16 38  1  0
 16 39  1  0
 18 40  1  0
 19 41  1  0
 21 42  1  0
M  ISO  8  23  14  24  14  25  14  26  13  27  13  28  13  29  13  30   5
M  ISO  8  31  13  32  13  33  13  34   8  35   8  38   8  39   8  40  14
M  ISO  2  41  14  42  14
M  END
>  <minimizedAffinity>  (1) 
-5.77657986

>  <minimizedRMSD>  (1) 
0.697184384

$$$$
