
     RDKit          3D

 47 49  0  0  1  0  0  0  0  0999 V2000
   44.9720   34.6200   44.8980 C   0  0  0  0  0  0  0  0  0  0  0  0
   45.9040   34.6120   43.8340 C   0  0  0  0  0  0  0  0  0  0  0  0
   47.0650   33.8070   43.9420 C   0  0  0  0  0  0  0  0  0  0  0  0
   47.2010   33.0880   45.0790 N   0  0  0  0  0  0  0  0  0  0  0  0
   46.3130   33.0980   46.0870 C   0  0  0  0  0  0  0  0  0  0  0  0
   45.2240   33.8660   45.9650 N   0  0  0  0  0  0  0  0  0  0  0  0
   46.5570   32.3120   47.2230 N   0  0  0  0  0  0  0  0  0  0  0  0
   47.7430   32.4860   47.9900 C   0  0  0  0  0  0  0  0  0  0  0  0
   48.0370   31.3440   48.9110 C   0  0  0  0  0  0  0  0  0  0  0  0
   46.9060   30.6470   49.4450 N   0  0  0  0  0  0  0  0  0  0  0  0
   45.6540   31.2250   49.0890 C   0  0  0  0  0  0  0  0  0  0  0  0
   45.5550   31.3030   47.6030 C   0  0  2  0  0  0  0  0  0  0  0  0
   45.8070   29.9780   46.9460 C   0  0  0  0  0  0  0  0  0  0  0  0
   44.9600   28.9510   47.6300 C   0  0  0  0  0  0  0  0  0  0  0  0
   44.7900   27.7420   47.1340 C   0  0  0  0  0  0  0  0  0  0  0  0
   43.9620   26.6690   47.7590 C   0  0  0  0  0  0  0  0  0  0  0  0
   43.0050   26.1780   46.6640 C   0  0  0  0  0  0  0  0  0  0  0  0
   41.7540   25.5770   47.2150 C   0  0  0  0  0  0  0  0  0  0  0  0
   40.6080   26.0710   46.3740 C   0  0  0  0  0  0  0  0  0  0  0  0
   41.1240   27.2120   45.5290 C   0  0  0  0  0  0  0  0  0  0  0  0
   42.5960   27.3200   45.7580 C   0  0  0  0  0  0  0  0  0  0  0  0
   44.0612   35.2345   44.8447 H   0  0  0  0  0  0  0  0  0  0  0  0
   45.7299   35.2221   42.9354 H   0  0  0  0  0  0  0  0  0  0  0  0
   47.8180   33.7689   43.1410 H   0  0  0  0  0  0  0  0  0  0  0  0
   48.5903   32.6010   47.2980 H   0  0  0  0  0  0  0  0  0  0  0  0
   47.5911   33.3754   48.6192 H   0  0  0  0  0  0  0  0  0  0  0  0
   48.6471   30.6158   48.3564 H   0  0  0  0  0  0  0  0  0  0  0  0
   48.5397   31.7929   49.7804 H   0  0  0  0  0  0  0  0  0  0  0  0
   46.9273   29.6781   49.0962 H   0  0  0  0  0  0  0  0  0  0  0  0
   44.8364   30.6015   49.4800 H   0  0  0  0  0  0  0  0  0  0  0  0
   45.5778   32.2350   49.5181 H   0  0  0  0  0  0  0  0  0  0  0  0
   44.5434   31.5793   47.2710 H   0  0  0  0  0  0  0  0  0  0  0  0
   45.5386   30.0331   45.8807 H   0  0  0  0  0  0  0  0  0  0  0  0
   46.8707   29.7093   47.0260 H   0  0  0  0  0  0  0  0  0  0  0  0
   44.4640   29.2135   48.5761 H   0  0  0  0  0  0  0  0  0  0  0  0
   45.2971   27.5056   46.1869 H   0  0  0  0  0  0  0  0  0  0  0  0
   44.6029   25.8442   48.1039 H   0  0  0  0  0  0  0  0  0  0  0  0
   43.4122   27.0442   48.6347 H   0  0  0  0  0  0  0  0  0  0  0  0
   43.5605   25.4077   46.1090 H   0  0  0  0  0  0  0  0  0  0  0  0
   41.8108   24.4796   47.1655 H   0  0  0  0  0  0  0  0  0  0  0  0
   41.6157   25.8657   48.2674 H   0  0  0  0  0  0  0  0  0  0  0  0
   40.2403   25.2609   45.7271 H   0  0  0  0  0  0  0  0  0  0  0  0
   39.7760   26.4059   47.0109 H   0  0  0  0  0  0  0  0  0  0  0  0
   40.6296   28.1494   45.8238 H   0  0  0  0  0  0  0  0  0  0  0  0
   40.9130   27.0285   44.4651 H   0  0  0  0  0  0  0  0  0  0  0  0
   43.1307   27.2479   44.7994 H   0  0  0  0  0  0  0  0  0  0  0  0
   42.8445   28.2868   46.2201 H   0  0  0  0  0  0  0  0  0  0  0  0
  1  6  2  0
  2  3  2  0
  2  1  1  0
  3  4  1  0
  4  5  2  0
  5  7  1  0
  6  5  1  0
  7 12  1  0
  7  8  1  0
  8  9  1  0
  9 10  1  0
 11 10  1  0
 12 11  1  0
 13 12  1  0
 13 14  1  0
 15 14  2  0
 15 16  1  0
 17 18  1  0
 17 16  1  0
 19 18  1  0
 20 21  1  0
 20 19  1  0
 21 17  1  0
  1 22  1  0
  2 23  1  0
  3 24  1  0
  8 25  1  0
  8 26  1  0
  9 27  1  0
  9 28  1  0
 10 29  1  0
 11 30  1  0
 11 31  1  0
 12 32  1  1
 13 33  1  0
 13 34  1  0
 14 35  1  0
 15 36  1  0
 16 37  1  0
 16 38  1  0
 17 39  1  0
 18 40  1  0
 18 41  1  0
 19 42  1  0
 19 43  1  0
 20 44  1  0
 20 45  1  0
 21 46  1  0
 21 47  1  0
M  ISO  8  22  14  23  14  24  14  25  13  26  13  27  13  28  13  29   5
M  ISO  8  30  13  31  13  32  13  33   8  34   8  37   8  38   8  39  13
M  ISO  8  40  13  41  13  42  13  43  13  44  13  45  13  46  13  47  13
M  END
>  <minimizedAffinity>  (1) 
-5.74860001

>  <minimizedRMSD>  (1) 
0.811160326

$$$$
