
     RDKit          3D

 28 29  0  0  0  0  0  0  0  0999 V2000
   47.4520   34.7860   41.9300 C   0  0  0  0  0  0  0  0  0  0  0  0
   47.5700   34.2700   43.2290 C   0  0  0  0  0  0  0  0  0  0  0  0
   46.4210   33.7720   43.8540 C   0  0  0  0  0  0  0  0  0  0  0  0
   45.2560   33.8200   43.1640 N   0  0  0  0  0  0  0  0  0  0  0  0
   45.1700   34.3250   41.9090 C   0  0  0  0  0  0  0  0  0  0  0  0
   46.2680   34.8020   41.3080 N   0  0  0  0  0  0  0  0  0  0  0  0
   43.9100   34.3320   41.2700 N   0  0  0  0  0  0  0  0  0  0  0  0
   43.1580   35.5410   41.1250 C   0  0  0  0  0  0  0  0  0  0  0  0
   41.7330   35.3280   41.5740 C   0  0  0  0  0  0  0  0  0  0  0  0
   41.1680   34.0980   40.8790 C   0  0  0  0  0  0  0  0  0  0  0  0
   41.9980   32.9170   41.4010 C   0  0  0  0  0  0  0  0  0  0  0  0
   43.3720   33.0890   40.7530 C   0  0  0  0  0  0  0  0  0  0  0  0
   48.7110   35.3110   41.2920 C   0  0  0  0  0  0  0  0  0  0  0  0
   48.5910   35.4080   39.9330 F   0  0  0  0  0  0  0  0  0  0  0  0
   48.9930   36.5450   41.8820 F   0  0  0  0  0  0  0  0  0  0  0  0
   49.7780   34.4840   41.6480 F   0  0  0  0  0  0  0  0  0  0  0  0
   48.5419   34.2571   43.7439 H   0  0  0  0  0  0  0  0  0  0  0  0
   46.4624   33.3556   44.8713 H   0  0  0  0  0  0  0  0  0  0  0  0
   43.6177   36.3301   41.7382 H   0  0  0  0  0  0  0  0  0  0  0  0
   43.1590   35.8384   40.0660 H   0  0  0  0  0  0  0  0  0  0  0  0
   41.7090   35.1785   42.6635 H   0  0  0  0  0  0  0  0  0  0  0  0
   41.1282   36.2095   41.3148 H   0  0  0  0  0  0  0  0  0  0  0  0
   41.2735   34.1900   39.7879 H   0  0  0  0  0  0  0  0  0  0  0  0
   40.0957   33.9675   41.0865 H   0  0  0  0  0  0  0  0  0  0  0  0
   42.0791   32.9549   42.4974 H   0  0  0  0  0  0  0  0  0  0  0  0
   41.5411   31.9472   41.1547 H   0  0  0  0  0  0  0  0  0  0  0  0
   43.2736   33.1419   39.6587 H   0  0  0  0  0  0  0  0  0  0  0  0
   44.0327   32.2400   40.9825 H   0  0  0  0  0  0  0  0  0  0  0  0
  1  2  2  0
  2  3  1  0
  4  3  2  0
  5  4  1  0
  6  5  2  0
  6  1  1  0
  7  5  1  0
  8  7  1  0
  8  9  1  0
 10 11  1  0
 10  9  1  0
 12  7  1  0
 12 11  1  0
 13 16  1  0
 13 15  1  0
 13  1  1  0
 14 13  1  0
  2 17  1  0
  3 18  1  0
  8 19  1  0
  8 20  1  0
  9 21  1  0
  9 22  1  0
 10 23  1  0
 10 24  1  0
 11 25  1  0
 11 26  1  0
 12 27  1  0
 12 28  1  0
M  ISO  8  17  14  18  14  19  13  20  13  21  13  22  13  23  13  24  13
M  ISO  4  25  13  26  13  27  13  28  13
M  END
>  <minimizedAffinity>  (1) 
-5.16030836

>  <minimizedRMSD>  (1) 
2.12415242

$$$$
