
     RDKit          3D

 50 52  0  0  1  0  0  0  0  0999 V2000
   45.0120   34.6410   44.9480 C   0  0  0  0  0  0  0  0  0  0  0  0
   45.9050   34.5680   43.8500 C   0  0  0  0  0  0  0  0  0  0  0  0
   47.0040   33.6870   43.9570 C   0  0  0  0  0  0  0  0  0  0  0  0
   47.1330   32.9740   45.0970 N   0  0  0  0  0  0  0  0  0  0  0  0
   46.2670   33.0590   46.1350 C   0  0  0  0  0  0  0  0  0  0  0  0
   45.2310   33.8910   46.0290 N   0  0  0  0  0  0  0  0  0  0  0  0
   46.4950   32.2740   47.2700 N   0  0  0  0  0  0  0  0  0  0  0  0
   47.7180   32.4000   48.0070 C   0  0  0  0  0  0  0  0  0  0  0  0
   47.9790   31.2450   48.9270 C   0  0  0  0  0  0  0  0  0  0  0  0
   46.8410   30.6350   49.5010 N   0  0  0  0  0  0  0  0  0  0  0  0
   45.6060   31.2780   49.1860 C   0  0  0  0  0  0  0  0  0  0  0  0
   45.4680   31.3260   47.6870 C   0  0  2  0  0  0  0  0  0  0  0  0
   45.6070   29.9850   47.0460 C   0  0  0  0  0  0  0  0  0  0  0  0
   44.8210   29.0070   47.8720 C   0  0  0  0  0  0  0  0  0  0  0  0
   45.0330   27.6960   47.7720 C   0  0  0  0  0  0  0  0  0  0  0  0
   44.3010   26.6590   48.5510 C   0  0  0  0  0  0  0  0  0  0  0  0
   43.6930   25.6680   47.5920 C   0  0  0  0  0  0  0  0  0  0  0  0
   44.6770   24.9850   46.6990 C   0  0  0  0  0  0  0  0  0  0  0  0
   43.9630   23.7220   46.2010 C   0  0  0  0  0  0  0  0  0  0  0  0
   42.7590   24.1210   45.4110 C   0  0  0  0  0  0  0  0  0  0  0  0
   41.8600   25.0760   46.1330 C   0  0  0  0  0  0  0  0  0  0  0  0
   42.6090   26.2480   46.7490 C   0  0  0  0  0  0  0  0  0  0  0  0
   44.1421   35.3132   44.9089 H   0  0  0  0  0  0  0  0  0  0  0  0
   45.7479   35.1757   42.9467 H   0  0  0  0  0  0  0  0  0  0  0  0
   47.7314   33.5849   43.1382 H   0  0  0  0  0  0  0  0  0  0  0  0
   48.5506   32.4714   47.2917 H   0  0  0  0  0  0  0  0  0  0  0  0
   47.6296   33.3006   48.6324 H   0  0  0  0  0  0  0  0  0  0  0  0
   48.5195   30.4761   48.3554 H   0  0  0  0  0  0  0  0  0  0  0  0
   48.5460   31.6637   49.7715 H   0  0  0  0  0  0  0  0  0  0  0  0
   46.7928   29.6625   49.1652 H   0  0  0  0  0  0  0  0  0  0  0  0
   44.7695   30.7096   49.6187 H   0  0  0  0  0  0  0  0  0  0  0  0
   45.5918   32.2965   49.6012 H   0  0  0  0  0  0  0  0  0  0  0  0
   44.4633   31.6427   47.3705 H   0  0  0  0  0  0  0  0  0  0  0  0
   45.2096   30.0156   46.0208 H   0  0  0  0  0  0  0  0  0  0  0  0
   46.6647   29.6874   46.9949 H   0  0  0  0  0  0  0  0  0  0  0  0
   44.0578   29.3798   48.5709 H   0  0  0  0  0  0  0  0  0  0  0  0
   45.8030   27.3551   47.0642 H   0  0  0  0  0  0  0  0  0  0  0  0
   44.9999   26.1407   49.2240 H   0  0  0  0  0  0  0  0  0  0  0  0
   43.5092   27.1323   49.1503 H   0  0  0  0  0  0  0  0  0  0  0  0
   43.2640   24.9128   48.2670 H   0  0  0  0  0  0  0  0  0  0  0  0
   44.9453   25.6348   45.8530 H   0  0  0  0  0  0  0  0  0  0  0  0
   45.6125   24.7463   47.2262 H   0  0  0  0  0  0  0  0  0  0  0  0
   44.6453   23.1399   45.5641 H   0  0  0  0  0  0  0  0  0  0  0  0
   43.6560   23.1067   47.0595 H   0  0  0  0  0  0  0  0  0  0  0  0
   42.1836   23.2145   45.1717 H   0  0  0  0  0  0  0  0  0  0  0  0
   43.1204   24.6363   44.5089 H   0  0  0  0  0  0  0  0  0  0  0  0
   41.1206   25.4687   45.4195 H   0  0  0  0  0  0  0  0  0  0  0  0
   41.3837   24.5216   46.9550 H   0  0  0  0  0  0  0  0  0  0  0  0
   43.0404   26.8798   45.9586 H   0  0  0  0  0  0  0  0  0  0  0  0
   41.9349   26.8771   47.3489 H   0  0  0  0  0  0  0  0  0  0  0  0
  1  6  2  0
  2  3  2  0
  2  1  1  0
  3  4  1  0
  4  5  2  0
  5  7  1  0
  6  5  1  0
  7 12  1  0
  7  8  1  0
  8  9  1  0
  9 10  1  0
 11 10  1  0
 12 11  1  0
 13 12  1  0
 13 14  1  0
 15 14  2  0
 15 16  1  0
 17 16  1  0
 18 17  1  0
 19 18  1  0
 20 21  1  0
 20 19  1  0
 21 22  1  0
 22 17  1  0
  1 23  1  0
  2 24  1  0
  3 25  1  0
  8 26  1  0
  8 27  1  0
  9 28  1  0
  9 29  1  0
 10 30  1  0
 11 31  1  0
 11 32  1  0
 12 33  1  1
 13 34  1  0
 13 35  1  0
 14 36  1  0
 15 37  1  0
 16 38  1  0
 16 39  1  0
 17 40  1  0
 18 41  1  0
 18 42  1  0
 19 43  1  0
 19 44  1  0
 20 45  1  0
 20 46  1  0
 21 47  1  0
 21 48  1  0
 22 49  1  0
 22 50  1  0
M  ISO  8  23  14  24  14  25  14  26  13  27  13  28  13  29  13  30   5
M  ISO  8  31  13  32  13  33  13  34   8  35   8  38   8  39   8  40  13
M  ISO  8  41  13  42  13  43  13  44  13  45  13  46  13  47  13  48  13
M  ISO  2  49  13  50  13
M  END
>  <minimizedAffinity>  (1) 
-5.67032671

>  <minimizedRMSD>  (1) 
0.183049068

$$$$
