
     RDKit          3D

 36 37  0  0  1  0  0  0  0  0999 V2000
   44.9920   34.6310   44.9350 C   0  0  0  0  0  0  0  0  0  0  0  0
   45.9080   34.5810   43.8450 C   0  0  0  0  0  0  0  0  0  0  0  0
   47.0280   33.7320   43.9600 C   0  0  0  0  0  0  0  0  0  0  0  0
   47.1550   33.0210   45.0980 N   0  0  0  0  0  0  0  0  0  0  0  0
   46.2950   33.0680   46.1200 C   0  0  0  0  0  0  0  0  0  0  0  0
   45.2230   33.8760   46.0210 N   0  0  0  0  0  0  0  0  0  0  0  0
   46.5200   32.2890   47.2570 N   0  0  0  0  0  0  0  0  0  0  0  0
   47.7270   32.4340   48.0050 C   0  0  0  0  0  0  0  0  0  0  0  0
   48.0050   31.2990   48.9270 C   0  0  0  0  0  0  0  0  0  0  0  0
   46.8820   30.6360   49.4880 N   0  0  0  0  0  0  0  0  0  0  0  0
   45.6350   31.2560   49.1520 C   0  0  0  0  0  0  0  0  0  0  0  0
   45.4940   31.3200   47.6680 C   0  0  2  0  0  0  0  0  0  0  0  0
   45.6780   29.9960   47.0230 C   0  0  0  0  0  0  0  0  0  0  0  0
   44.8520   28.9820   47.7420 C   0  0  0  0  0  0  0  0  0  0  0  0
   45.1340   27.6990   47.8050 C   0  0  0  0  0  0  0  0  0  0  0  0
   44.3190   26.6720   48.5190 C   0  0  0  0  0  0  0  0  0  0  0  0
   44.3920   26.9100   49.9480 N   0  0  0  0  0  0  0  0  0  0  0  0
   44.1056   35.2807   44.8874 H   0  0  0  0  0  0  0  0  0  0  0  0
   45.7464   35.1864   42.9409 H   0  0  0  0  0  0  0  0  0  0  0  0
   47.7699   33.6530   43.1517 H   0  0  0  0  0  0  0  0  0  0  0  0
   48.5649   32.5187   47.2974 H   0  0  0  0  0  0  0  0  0  0  0  0
   47.6096   33.3317   48.6298 H   0  0  0  0  0  0  0  0  0  0  0  0
   48.5867   30.5515   48.3676 H   0  0  0  0  0  0  0  0  0  0  0  0
   48.5297   31.7478   49.7833 H   0  0  0  0  0  0  0  0  0  0  0  0
   46.8686   29.6656   49.1429 H   0  0  0  0  0  0  0  0  0  0  0  0
   44.8074   30.6667   49.5737 H   0  0  0  0  0  0  0  0  0  0  0  0
   45.6090   32.2746   49.5666 H   0  0  0  0  0  0  0  0  0  0  0  0
   44.4831   31.6241   47.3587 H   0  0  0  0  0  0  0  0  0  0  0  0
   45.3598   30.0514   45.9715 H   0  0  0  0  0  0  0  0  0  0  0  0
   46.7386   29.7074   47.0664 H   0  0  0  0  0  0  0  0  0  0  0  0
   43.9441   29.3321   48.2550 H   0  0  0  0  0  0  0  0  0  0  0  0
   46.0433   27.3550   47.2903 H   0  0  0  0  0  0  0  0  0  0  0  0
   43.2720   26.7390   48.1884 H   0  0  0  0  0  0  0  0  0  0  0  0
   44.7096   25.6690   48.2923 H   0  0  0  0  0  0  0  0  0  0  0  0
   44.1287   26.0517   50.4529 H   0  0  0  0  0  0  0  0  0  0  0  0
   45.3536   27.1770   50.2029 H   0  0  0  0  0  0  0  0  0  0  0  0
  1  6  2  0
  2  3  2  0
  2  1  1  0
  3  4  1  0
  4  5  2  0
  5  7  1  0
  6  5  1  0
  7 12  1  0
  7  8  1  0
  8  9  1  0
  9 10  1  0
 11 10  1  0
 12 11  1  0
 13 12  1  0
 13 14  1  0
 14 15  2  0
 15 16  1  0
 16 17  1  0
  1 18  1  0
  2 19  1  0
  3 20  1  0
  8 21  1  0
  8 22  1  0
  9 23  1  0
  9 24  1  0
 10 25  1  0
 11 26  1  0
 11 27  1  0
 12 28  1  1
 13 29  1  0
 13 30  1  0
 14 31  1  0
 15 32  1  0
 16 33  1  0
 16 34  1  0
 17 35  1  0
 17 36  1  0
M  ISO  8  18  14  19  14  20  14  21  13  22  13  23  13  24  13  25   5
M  ISO  8  26  13  27  13  28  13  29   8  30   8  33   8  34   8  35   5
M  ISO  1  36   5
M  END
>  <minimizedAffinity>  (1) 
-5.11233568

>  <minimizedRMSD>  (1) 
0.348046213

$$$$
