
     RDKit          3D

 41 43  0  0  1  0  0  0  0  0999 V2000
   44.9980   34.7040   44.9900 C   0  0  0  0  0  0  0  0  0  0  0  0
   45.8810   34.5770   43.8690 C   0  0  0  0  0  0  0  0  0  0  0  0
   46.9440   33.6710   43.9540 C   0  0  0  0  0  0  0  0  0  0  0  0
   47.0750   32.9600   45.1050 N   0  0  0  0  0  0  0  0  0  0  0  0
   46.2470   33.0820   46.1480 C   0  0  0  0  0  0  0  0  0  0  0  0
   45.2340   33.9520   46.0560 N   0  0  0  0  0  0  0  0  0  0  0  0
   46.4640   32.3090   47.2860 N   0  0  0  0  0  0  0  0  0  0  0  0
   47.7080   32.3890   48.0010 C   0  0  0  0  0  0  0  0  0  0  0  0
   47.9490   31.2390   48.9260 C   0  0  0  0  0  0  0  0  0  0  0  0
   46.7960   30.6710   49.5390 N   0  0  0  0  0  0  0  0  0  0  0  0
   45.5720   31.3680   49.2370 C   0  0  0  0  0  0  0  0  0  0  0  0
   45.4000   31.4100   47.7460 C   0  0  2  0  0  0  0  0  0  0  0  0
   45.4840   30.0530   47.1150 C   0  0  0  0  0  0  0  0  0  0  0  0
   44.9040   29.0680   48.1000 C   0  0  0  0  0  0  0  0  0  0  0  0
   44.9580   27.7710   47.8900 C   0  0  0  0  0  0  0  0  0  0  0  0
   44.4190   26.7170   48.7970 C   0  0  0  0  0  0  0  0  0  0  0  0
   43.3710   25.9310   48.0280 C   0  0  0  0  0  0  0  0  0  0  0  0
   43.8550   24.9450   46.9950 C   0  0  0  0  0  0  0  0  0  0  0  0
   43.1310   26.2140   46.5950 C   0  0  0  0  0  0  0  0  0  0  0  0
   44.1500   35.4042   44.9669 H   0  0  0  0  0  0  0  0  0  0  0  0
   45.7267   35.1787   42.9611 H   0  0  0  0  0  0  0  0  0  0  0  0
   47.6483   33.5389   43.1194 H   0  0  0  0  0  0  0  0  0  0  0  0
   48.5275   32.4218   47.2680 H   0  0  0  0  0  0  0  0  0  0  0  0
   47.6618   33.2953   48.6227 H   0  0  0  0  0  0  0  0  0  0  0  0
   48.4485   30.4453   48.3511 H   0  0  0  0  0  0  0  0  0  0  0  0
   48.5496   31.6475   49.7521 H   0  0  0  0  0  0  0  0  0  0  0  0
   46.7031   29.6974   49.2159 H   0  0  0  0  0  0  0  0  0  0  0  0
   44.7222   30.8392   49.6933 H   0  0  0  0  0  0  0  0  0  0  0  0
   45.6129   32.3909   49.6395 H   0  0  0  0  0  0  0  0  0  0  0  0
   44.4005   31.7675   47.4576 H   0  0  0  0  0  0  0  0  0  0  0  0
   44.9058   30.0357   46.1794 H   0  0  0  0  0  0  0  0  0  0  0  0
   46.5264   29.7975   46.8741 H   0  0  0  0  0  0  0  0  0  0  0  0
   44.4245   29.4439   49.0158 H   0  0  0  0  0  0  0  0  0  0  0  0
   45.4440   27.4334   46.9627 H   0  0  0  0  0  0  0  0  0  0  0  0
   45.2309   26.0462   49.1146 H   0  0  0  0  0  0  0  0  0  0  0  0
   43.9743   27.1736   49.6935 H   0  0  0  0  0  0  0  0  0  0  0  0
   42.7171   25.8889   48.9116 H   0  0  0  0  0  0  0  0  0  0  0  0
   44.9312   24.8353   46.7958 H   0  0  0  0  0  0  0  0  0  0  0  0
   43.7164   23.8696   46.8097 H   0  0  0  0  0  0  0  0  0  0  0  0
   43.6810   27.0257   46.0963 H   0  0  0  0  0  0  0  0  0  0  0  0
   42.2422   26.4409   45.9879 H   0  0  0  0  0  0  0  0  0  0  0  0
  1  6  2  0
  2  3  2  0
  2  1  1  0
  3  4  1  0
  4  5  2  0
  5  7  1  0
  6  5  1  0
  7 12  1  0
  7  8  1  0
  8  9  1  0
  9 10  1  0
 11 10  1  0
 12 11  1  0
 13 12  1  0
 13 14  1  0
 15 14  2  0
 15 16  1  0
 17 16  1  0
 18 17  1  0
 19 18  1  0
 19 17  1  0
  1 20  1  0
  2 21  1  0
  3 22  1  0
  8 23  1  0
  8 24  1  0
  9 25  1  0
  9 26  1  0
 10 27  1  0
 11 28  1  0
 11 29  1  0
 12 30  1  1
 13 31  1  0
 13 32  1  0
 14 33  1  0
 15 34  1  0
 16 35  1  0
 16 36  1  0
 17 37  1  0
 18 38  1  0
 18 39  1  0
 19 40  1  0
 19 41  1  0
M  ISO  8  20  14  21  14  22  14  23  13  24  13  25  13  26  13  27   5
M  ISO  8  28  13  29  13  30  13  31   8  32   8  35   8  36   8  37  13
M  ISO  4  38  13  39  13  40  13  41  13
M  END
>  <minimizedAffinity>  (1) 
-5.44642973

>  <minimizedRMSD>  (1) 
0.572975755

$$$$
