
     RDKit          3D

 27 28  0  0  0  0  0  0  0  0999 V2000
   47.4810   34.7220   42.0830 C   0  0  0  0  0  0  0  0  0  0  0  0
   47.7840   34.1300   43.3330 C   0  0  0  0  0  0  0  0  0  0  0  0
   46.6990   33.6430   44.0920 C   0  0  0  0  0  0  0  0  0  0  0  0
   45.4500   33.7690   43.5910 N   0  0  0  0  0  0  0  0  0  0  0  0
   45.2070   34.3420   42.3900 C   0  0  0  0  0  0  0  0  0  0  0  0
   46.2110   34.8110   41.6490 N   0  0  0  0  0  0  0  0  0  0  0  0
   43.7820   34.3980   41.9900 C   0  0  0  0  0  0  0  0  0  0  0  0
   43.6470   35.3870   40.8630 C   0  0  0  0  0  0  0  0  0  0  0  0
   42.4120   35.1500   40.0280 C   0  0  0  0  0  0  0  0  0  0  0  0
   42.1960   33.7970   39.7820 O   0  0  0  0  0  0  0  0  0  0  0  0
   42.0310   33.0550   40.9360 C   0  0  0  0  0  0  0  0  0  0  0  0
   43.3340   33.0140   41.6670 C   0  0  0  0  0  0  0  0  0  0  0  0
   48.6460   35.2310   41.2950 C   0  0  0  0  0  0  0  0  0  0  0  0
   48.3750   35.2310   39.9390 F   0  0  0  0  0  0  0  0  0  0  0  0
   48.9670   36.4880   41.7590 F   0  0  0  0  0  0  0  0  0  0  0  0
   49.7630   34.4260   41.5500 F   0  0  0  0  0  0  0  0  0  0  0  0
   48.8195   34.0532   43.6962 H   0  0  0  0  0  0  0  0  0  0  0  0
   46.8661   33.1705   45.0712 H   0  0  0  0  0  0  0  0  0  0  0  0
   43.1213   34.7558   42.7934 H   0  0  0  0  0  0  0  0  0  0  0  0
   43.5961   36.4004   41.2877 H   0  0  0  0  0  0  0  0  0  0  0  0
   44.5214   35.2658   40.2067 H   0  0  0  0  0  0  0  0  0  0  0  0
   41.5402   35.5568   40.5614 H   0  0  0  0  0  0  0  0  0  0  0  0
   42.5577   35.6506   39.0594 H   0  0  0  0  0  0  0  0  0  0  0  0
   41.2644   33.5230   41.5710 H   0  0  0  0  0  0  0  0  0  0  0  0
   41.7096   32.0338   40.6834 H   0  0  0  0  0  0  0  0  0  0  0  0
   43.2104   32.4443   42.5998 H   0  0  0  0  0  0  0  0  0  0  0  0
   44.0894   32.5296   41.0308 H   0  0  0  0  0  0  0  0  0  0  0  0
  1  2  2  0
  2  3  1  0
  4  3  2  0
  5  4  1  0
  6  1  1  0
  6  5  2  0
  7  5  1  0
  8  7  1  0
  9  8  1  0
 10  9  1  0
 10 11  1  0
 11 12  1  0
 12  7  1  0
 13 16  1  0
 13 15  1  0
 13  1  1  0
 14 13  1  0
  2 17  1  0
  3 18  1  0
  7 19  1  0
  8 20  1  0
  8 21  1  0
  9 22  1  0
  9 23  1  0
 11 24  1  0
 11 25  1  0
 12 26  1  0
 12 27  1  0
M  ISO  8  17  14  18  14  19  13  20  13  21  13  22  13  23  13  24  13
M  ISO  3  25  13  26  13  27  13
M  END
>  <minimizedAffinity>  (1) 
-4.88525438

>  <minimizedRMSD>  (1) 
1.58492541

$$$$
