
     RDKit          3D

 56 60  0  0  1  0  0  0  0  0999 V2000
   45.3650   30.1390   47.1930 C   0  0  0  0  0  0  0  0  0  0  0  0
   45.0260   34.7500   44.9550 C   0  0  0  0  0  0  0  0  0  0  0  0
   45.8750   34.5610   43.8300 C   0  0  0  0  0  0  0  0  0  0  0  0
   46.8930   33.6190   43.9180 C   0  0  0  0  0  0  0  0  0  0  0  0
   47.0140   32.9340   45.0790 N   0  0  0  0  0  0  0  0  0  0  0  0
   46.2260   33.1060   46.1310 C   0  0  0  0  0  0  0  0  0  0  0  0
   45.2430   34.0240   46.0310 N   0  0  0  0  0  0  0  0  0  0  0  0
   46.4220   32.3570   47.2820 N   0  0  0  0  0  0  0  0  0  0  0  0
   47.6910   32.3950   47.9710 C   0  0  0  0  0  0  0  0  0  0  0  0
   47.8760   31.2770   48.9460 C   0  0  0  0  0  0  0  0  0  0  0  0
   46.7140   30.7730   49.5840 N   0  0  0  0  0  0  0  0  0  0  0  0
   45.5310   31.5100   49.2810 C   0  0  0  0  0  0  0  0  0  0  0  0
   45.3180   31.5210   47.7990 C   0  0  2  0  0  0  0  0  0  0  0  0
   44.8940   29.2000   48.2780 C   0  0  0  0  0  0  0  0  0  0  0  0
   44.9940   27.8850   48.1090 C   0  0  0  0  0  0  0  0  0  0  0  0
   44.5580   26.8670   49.1050 C   0  0  0  0  0  0  0  0  0  0  0  0
   43.8250   25.7590   48.3650 C   0  0  2  0  0  0  0  0  0  0  0  0
   44.5910   24.9720   47.3470 C   0  0  0  0  0  0  0  0  0  0  0  0
   43.4610   25.9190   46.9550 C   0  0  1  0  0  0  0  0  0  0  0  0
   42.2570   25.2680   46.3760 C   0  0  0  0  0  0  0  0  0  0  0  0
   41.0150   25.8490   46.6380 C   0  0  0  0  0  0  0  0  0  0  0  0
   39.9100   25.2500   46.1060 C   0  0  0  0  0  0  0  0  0  0  0  0
   40.0310   24.1090   45.3350 C   0  0  0  0  0  0  0  0  0  0  0  0
   38.9320   23.5210   44.8110 N   0  0  0  0  0  0  0  0  0  0  0  0
   38.9560   22.4230   44.0600 C   0  0  0  0  0  0  0  0  0  0  0  0
   40.1800   21.8260   43.7850 C   0  0  0  0  0  0  0  0  0  0  0  0
   41.3510   22.3800   44.2940 C   0  0  0  0  0  0  0  0  0  0  0  0
   41.2380   23.5140   45.0600 C   0  0  0  0  0  0  0  0  0  0  0  0
   42.3690   24.1290   45.6050 C   0  0  0  0  0  0  0  0  0  0  0  0
   44.6989   30.0805   46.3196 H   0  0  0  0  0  0  0  0  0  0  0  0
   46.3767   29.8826   46.8455 H   0  0  0  0  0  0  0  0  0  0  0  0
   44.2080   35.4849   44.9266 H   0  0  0  0  0  0  0  0  0  0  0  0
   45.7293   35.1472   42.9107 H   0  0  0  0  0  0  0  0  0  0  0  0
   47.5755   33.4368   43.0748 H   0  0  0  0  0  0  0  0  0  0  0  0
   48.4950   32.3402   47.2223 H   0  0  0  0  0  0  0  0  0  0  0  0
   47.7181   33.3324   48.5459 H   0  0  0  0  0  0  0  0  0  0  0  0
   48.3454   30.4415   48.4060 H   0  0  0  0  0  0  0  0  0  0  0  0
   48.4808   31.7069   49.7581 H   0  0  0  0  0  0  0  0  0  0  0  0
   46.5754   29.7973   49.2846 H   0  0  0  0  0  0  0  0  0  0  0  0
   44.6680   31.0370   49.7723 H   0  0  0  0  0  0  0  0  0  0  0  0
   45.6381   32.5426   49.6445 H   0  0  0  0  0  0  0  0  0  0  0  0
   44.3212   31.9079   47.5405 H   0  0  0  0  0  0  0  0  0  0  0  0
   44.4681   29.6041   49.2083 H   0  0  0  0  0  0  0  0  0  0  0  0
   45.4299   27.5230   47.1662 H   0  0  0  0  0  0  0  0  0  0  0  0
   45.4361   26.4518   49.6214 H   0  0  0  0  0  0  0  0  0  0  0  0
   43.8947   27.3273   49.8521 H   0  0  0  0  0  0  0  0  0  0  0  0
   43.2438   25.5154   49.2666 H   0  0  0  0  0  0  0  0  0  0  0  0
   45.6357   25.2286   47.1175 H   0  0  0  0  0  0  0  0  0  0  0  0
   44.8239   23.9097   47.1821 H   0  0  0  0  0  0  0  0  0  0  0  0
   43.3246   26.8088   46.3228 H   0  0  0  0  0  0  0  0  0  0  0  0
   40.9299   26.7579   47.2518 H   0  0  0  0  0  0  0  0  0  0  0  0
   38.9144   25.6789   46.2924 H   0  0  0  0  0  0  0  0  0  0  0  0
   38.0232   21.9954   43.6638 H   0  0  0  0  0  0  0  0  0  0  0  0
   40.2236   20.9175   43.1664 H   0  0  0  0  0  0  0  0  0  0  0  0
   42.3318   21.9257   44.0900 H   0  0  0  0  0  0  0  0  0  0  0  0
   43.3635   23.6984   45.4163 H   0  0  0  0  0  0  0  0  0  0  0  0
  1 13  1  0
  1 14  1  0
  2  7  2  0
  3  4  2  0
  3  2  1  0
  4  5  1  0
  5  6  2  0
  6  8  1  0
  7  6  1  0
  8 13  1  0
  8  9  1  0
  9 10  1  0
 10 11  1  0
 12 11  1  0
 13 12  1  0
 15 14  2  0
 15 16  1  0
 17 16  1  0
 18 17  1  0
 19 18  1  0
 19 17  1  0
 20 21  2  0
 20 19  1  0
 22 21  1  0
 23 22  2  0
 24 23  1  0
 25 24  2  0
 26 25  1  0
 26 27  2  0
 27 28  1  0
 28 23  1  0
 28 29  2  0
 29 20  1  0
  1 30  1  0
  1 31  1  0
  2 32  1  0
  3 33  1  0
  4 34  1  0
  9 35  1  0
  9 36  1  0
 10 37  1  0
 10 38  1  0
 11 39  1  0
 12 40  1  0
 12 41  1  0
 13 42  1  1
 14 43  1  0
 15 44  1  0
 16 45  1  0
 16 46  1  0
 17 47  1  1
 18 48  1  0
 18 49  1  0
 19 50  1  6
 21 51  1  0
 22 52  1  0
 25 53  1  0
 26 54  1  0
 27 55  1  0
 29 56  1  0
M  ISO  8  30   8  31   8  32  14  33  14  34  14  35  13  36  13  37  13
M  ISO  8  38  13  39   5  40  13  41  13  42  13  45   8  46   8  47  13
M  ISO  8  48  13  49  13  50  13  51  14  52  14  53  14  54  14  55  14
M  ISO  1  56  14
M  END
>  <minimizedAffinity>  (1) 
-6.79758644

>  <minimizedRMSD>  (1) 
1.04154158

$$$$
