
     RDKit          3D

 48 51  0  0  1  0  0  0  0  0999 V2000
   45.0110   34.7260   44.9890 C   0  0  0  0  0  0  0  0  0  0  0  0
   45.8700   34.5730   43.8660 C   0  0  0  0  0  0  0  0  0  0  0  0
   46.9040   33.6510   43.9490 C   0  0  0  0  0  0  0  0  0  0  0  0
   47.0420   32.9410   45.1000 N   0  0  0  0  0  0  0  0  0  0  0  0
   46.2380   33.0860   46.1470 C   0  0  0  0  0  0  0  0  0  0  0  0
   45.2440   33.9770   46.0580 N   0  0  0  0  0  0  0  0  0  0  0  0
   46.4420   32.3250   47.2860 N   0  0  0  0  0  0  0  0  0  0  0  0
   47.7030   32.3810   47.9940 C   0  0  0  0  0  0  0  0  0  0  0  0
   47.9050   31.2520   48.9480 C   0  0  0  0  0  0  0  0  0  0  0  0
   46.7560   30.6990   49.5640 N   0  0  0  0  0  0  0  0  0  0  0  0
   45.5500   31.4280   49.2660 C   0  0  0  0  0  0  0  0  0  0  0  0
   45.3630   31.4500   47.7870 C   0  0  2  0  0  0  0  0  0  0  0  0
   45.4460   30.0780   47.1580 C   0  0  0  0  0  0  0  0  0  0  0  0
   44.8710   29.1280   48.1890 C   0  0  0  0  0  0  0  0  0  0  0  0
   44.9700   27.8130   47.9930 C   0  0  0  0  0  0  0  0  0  0  0  0
   44.4430   26.7760   48.9250 C   0  0  0  0  0  0  0  0  0  0  0  0
   43.5340   25.8420   48.1470 C   0  0  2  0  0  0  0  0  0  0  0  0
   44.1850   24.9050   47.1760 C   0  0  0  0  0  0  0  0  0  0  0  0
   43.3170   26.0620   46.7110 C   0  0  1  0  0  0  0  0  0  0  0  0
   42.0240   25.6720   46.0720 C   0  0  0  0  0  0  0  0  0  0  0  0
   40.7500   25.7900   46.6290 C   0  0  0  0  0  0  0  0  0  0  0  0
   39.8490   25.3240   45.7240 N   0  0  0  0  0  0  0  0  0  0  0  0
   40.5240   24.9250   44.6310 C   0  0  0  0  0  0  0  0  0  0  0  0
   41.8220   25.1360   44.8490 N   0  0  0  0  0  0  0  0  0  0  0  0
   44.1781   35.4443   44.9713 H   0  0  0  0  0  0  0  0  0  0  0  0
   45.7187   35.1703   42.9547 H   0  0  0  0  0  0  0  0  0  0  0  0
   47.5937   33.4988   43.1057 H   0  0  0  0  0  0  0  0  0  0  0  0
   48.5175   32.3613   47.2550 H   0  0  0  0  0  0  0  0  0  0  0  0
   47.6978   33.3070   48.5878 H   0  0  0  0  0  0  0  0  0  0  0  0
   48.4051   30.4416   48.3973 H   0  0  0  0  0  0  0  0  0  0  0  0
   48.4832   31.6872   49.7764 H   0  0  0  0  0  0  0  0  0  0  0  0
   46.6426   29.7293   49.2359 H   0  0  0  0  0  0  0  0  0  0  0  0
   44.6903   30.9330   49.7413 H   0  0  0  0  0  0  0  0  0  0  0  0
   45.6261   32.4555   49.6513 H   0  0  0  0  0  0  0  0  0  0  0  0
   44.3583   31.8139   47.5260 H   0  0  0  0  0  0  0  0  0  0  0  0
   44.8553   30.0432   46.2307 H   0  0  0  0  0  0  0  0  0  0  0  0
   46.4790   29.8131   46.8884 H   0  0  0  0  0  0  0  0  0  0  0  0
   44.3767   29.5195   49.0903 H   0  0  0  0  0  0  0  0  0  0  0  0
   45.4763   27.4691   47.0790 H   0  0  0  0  0  0  0  0  0  0  0  0
   45.2792   26.2056   49.3557 H   0  0  0  0  0  0  0  0  0  0  0  0
   43.8806   27.2546   49.7402 H   0  0  0  0  0  0  0  0  0  0  0  0
   42.8524   25.7345   49.0037 H   0  0  0  0  0  0  0  0  0  0  0  0
   45.2741   24.9324   47.0238 H   0  0  0  0  0  0  0  0  0  0  0  0
   44.1972   23.8163   47.0190 H   0  0  0  0  0  0  0  0  0  0  0  0
   43.4274   26.9459   46.0656 H   0  0  0  0  0  0  0  0  0  0  0  0
   40.5157   26.1903   47.6264 H   0  0  0  0  0  0  0  0  0  0  0  0
   38.8279   25.2835   45.8527 H   0  0  0  0  0  0  0  0  0  0  0  0
   40.0825   24.4994   43.7178 H   0  0  0  0  0  0  0  0  0  0  0  0
  1  6  2  0
  2  3  2  0
  2  1  1  0
  3  4  1  0
  4  5  2  0
  5  7  1  0
  6  5  1  0
  7 12  1  0
  7  8  1  0
  8  9  1  0
  9 10  1  0
 11 10  1  0
 12 11  1  0
 13 12  1  0
 13 14  1  0
 15 14  2  0
 15 16  1  0
 17 16  1  0
 18 17  1  0
 19 18  1  0
 19 17  1  0
 20 21  2  0
 20 19  1  0
 22 21  1  0
 23 24  2  0
 23 22  1  0
 24 20  1  0
  1 25  1  0
  2 26  1  0
  3 27  1  0
  8 28  1  0
  8 29  1  0
  9 30  1  0
  9 31  1  0
 10 32  1  0
 11 33  1  0
 11 34  1  0
 12 35  1  1
 13 36  1  0
 13 37  1  0
 14 38  1  0
 15 39  1  0
 16 40  1  0
 16 41  1  0
 17 42  1  1
 18 43  1  0
 18 44  1  0
 19 45  1  6
 21 46  1  0
 22 47  1  0
 23 48  1  0
M  ISO  8  25  14  26  14  27  14  28  13  29  13  30  13  31  13  32   5
M  ISO  8  33  13  34  13  35  13  36   8  37   8  40   8  41   8  42  13
M  ISO  6  43  13  44  13  45  13  46  14  47   9  48  14
M  END
>  <minimizedAffinity>  (1) 
-6.15945673

>  <minimizedRMSD>  (1) 
0.281772912

$$$$
