
     RDKit          3D

 48 51  0  0  1  0  0  0  0  0999 V2000
   45.0030   34.6910   44.9890 C   0  0  0  0  0  0  0  0  0  0  0  0
   45.8780   34.5590   43.8750 C   0  0  0  0  0  0  0  0  0  0  0  0
   46.9310   33.6570   43.9640 C   0  0  0  0  0  0  0  0  0  0  0  0
   47.0670   32.9450   45.1140 N   0  0  0  0  0  0  0  0  0  0  0  0
   46.2500   33.0690   46.1520 C   0  0  0  0  0  0  0  0  0  0  0  0
   45.2350   33.9450   46.0570 N   0  0  0  0  0  0  0  0  0  0  0  0
   46.4590   32.3050   47.2900 N   0  0  0  0  0  0  0  0  0  0  0  0
   47.7150   32.3800   48.0050 C   0  0  0  0  0  0  0  0  0  0  0  0
   47.9320   31.2460   48.9590 C   0  0  0  0  0  0  0  0  0  0  0  0
   46.7900   30.6700   49.5590 N   0  0  0  0  0  0  0  0  0  0  0  0
   45.5730   31.3790   49.2570 C   0  0  0  0  0  0  0  0  0  0  0  0
   45.3880   31.4090   47.7740 C   0  0  2  0  0  0  0  0  0  0  0  0
   45.5030   30.0440   47.1410 C   0  0  0  0  0  0  0  0  0  0  0  0
   44.8490   29.0870   48.1110 C   0  0  0  0  0  0  0  0  0  0  0  0
   44.9550   27.7740   47.9200 C   0  0  0  0  0  0  0  0  0  0  0  0
   44.3560   26.7330   48.8020 C   0  0  0  0  0  0  0  0  0  0  0  0
   43.4060   25.8880   47.9830 C   0  0  2  0  0  0  0  0  0  0  0  0
   43.9930   24.9350   46.9870 C   0  0  0  0  0  0  0  0  0  0  0  0
   43.2100   26.1630   46.5560 C   0  0  1  0  0  0  0  0  0  0  0  0
   41.8780   25.9630   45.8770 C   0  0  0  0  0  0  0  0  0  0  0  0
   41.0320   27.1540   45.6480 C   0  0  0  0  0  0  0  0  0  0  0  0
   40.5960   26.0720   46.5990 C   0  0  0  0  0  0  0  0  0  0  0  0
   44.1571   35.3937   44.9632 H   0  0  0  0  0  0  0  0  0  0  0  0
   45.7245   35.1570   42.9646 H   0  0  0  0  0  0  0  0  0  0  0  0
   47.6339   33.5230   43.1286 H   0  0  0  0  0  0  0  0  0  0  0  0
   48.5337   32.3776   47.2704 H   0  0  0  0  0  0  0  0  0  0  0  0
   47.6907   33.3033   48.6025 H   0  0  0  0  0  0  0  0  0  0  0  0
   48.4530   30.4483   48.4093 H   0  0  0  0  0  0  0  0  0  0  0  0
   48.4950   31.6871   49.7948 H   0  0  0  0  0  0  0  0  0  0  0  0
   46.6967   29.7010   49.2225 H   0  0  0  0  0  0  0  0  0  0  0  0
   44.7203   30.8659   49.7256 H   0  0  0  0  0  0  0  0  0  0  0  0
   45.6322   32.4058   49.6470 H   0  0  0  0  0  0  0  0  0  0  0  0
   44.3791   31.7563   47.5065 H   0  0  0  0  0  0  0  0  0  0  0  0
   44.9812   30.0250   46.1728 H   0  0  0  0  0  0  0  0  0  0  0  0
   46.5515   29.7730   46.9479 H   0  0  0  0  0  0  0  0  0  0  0  0
   44.2865   29.4748   48.9731 H   0  0  0  0  0  0  0  0  0  0  0  0
   45.5277   27.4317   47.0455 H   0  0  0  0  0  0  0  0  0  0  0  0
   45.1521   26.0974   49.2170 H   0  0  0  0  0  0  0  0  0  0  0  0
   43.8117   27.2121   49.6292 H   0  0  0  0  0  0  0  0  0  0  0  0
   42.7166   25.8023   48.8358 H   0  0  0  0  0  0  0  0  0  0  0  0
   45.0818   24.8900   46.8368 H   0  0  0  0  0  0  0  0  0  0  0  0
   43.9294   23.8531   46.7986 H   0  0  0  0  0  0  0  0  0  0  0  0
   43.3929   27.0454   45.9252 H   0  0  0  0  0  0  0  0  0  0  0  0
   42.3174   25.1661   45.2591 H   0  0  0  0  0  0  0  0  0  0  0  0
   41.3443   28.1355   46.0342 H   0  0  0  0  0  0  0  0  0  0  0  0
   40.5931   27.6438   44.7663 H   0  0  0  0  0  0  0  0  0  0  0  0
   39.7568   25.4115   46.3355 H   0  0  0  0  0  0  0  0  0  0  0  0
   40.2890   26.0374   47.6547 H   0  0  0  0  0  0  0  0  0  0  0  0
  1  6  2  0
  2  3  2  0
  2  1  1  0
  3  4  1  0
  4  5  2  0
  5  7  1  0
  6  5  1  0
  7 12  1  0
  7  8  1  0
  8  9  1  0
  9 10  1  0
 11 10  1  0
 12 11  1  0
 13 12  1  0
 13 14  1  0
 15 14  2  0
 15 16  1  0
 17 16  1  0
 18 17  1  0
 19 18  1  0
 19 17  1  0
 20 19  1  0
 20 22  1  0
 21 20  1  0
 21 22  1  0
  1 23  1  0
  2 24  1  0
  3 25  1  0
  8 26  1  0
  8 27  1  0
  9 28  1  0
  9 29  1  0
 10 30  1  0
 11 31  1  0
 11 32  1  0
 12 33  1  1
 13 34  1  0
 13 35  1  0
 14 36  1  0
 15 37  1  0
 16 38  1  0
 16 39  1  0
 17 40  1  1
 18 41  1  0
 18 42  1  0
 19 43  1  6
 20 44  1  0
 21 45  1  0
 21 46  1  0
 22 47  1  0
 22 48  1  0
M  ISO  8  23  14  24  14  25  14  26  13  27  13  28  13  29  13  30   5
M  ISO  8  31  13  32  13  33  13  34   8  35   8  38   8  39   8  40  13
M  ISO  8  41  13  42  13  43  13  44  13  45  13  46  13  47  13  48  13
M  END
>  <minimizedAffinity>  (1) 
-6.0598073

>  <minimizedRMSD>  (1) 
0.101211779

$$$$
