
     RDKit          3D

 56 59  0  0  1  0  0  0  0  0999 V2000
   44.9200   34.8590   45.0460 C   0  0  0  0  0  0  0  0  0  0  0  0
   45.7620   34.7280   43.9050 C   0  0  0  0  0  0  0  0  0  0  0  0
   46.8160   33.7940   43.9450 C   0  0  0  0  0  0  0  0  0  0  0  0
   46.9710   33.0640   45.0870 N   0  0  0  0  0  0  0  0  0  0  0  0
   46.1800   33.1960   46.1430 C   0  0  0  0  0  0  0  0  0  0  0  0
   45.1780   34.0890   46.0900 N   0  0  0  0  0  0  0  0  0  0  0  0
   46.4020   32.4150   47.2670 N   0  0  0  0  0  0  0  0  0  0  0  0
   47.6790   32.4600   47.9460 C   0  0  0  0  0  0  0  0  0  0  0  0
   47.8980   31.3120   48.8880 C   0  0  0  0  0  0  0  0  0  0  0  0
   46.7590   30.7670   49.5170 N   0  0  0  0  0  0  0  0  0  0  0  0
   45.5500   31.4910   49.2470 C   0  0  0  0  0  0  0  0  0  0  0  0
   45.3300   31.5330   47.7740 C   0  0  2  0  0  0  0  0  0  0  0  0
   45.4010   30.1740   47.1210 C   0  0  0  0  0  0  0  0  0  0  0  0
   44.8820   29.1990   48.1520 C   0  0  0  0  0  0  0  0  0  0  0  0
   45.0190   27.8880   47.9620 C   0  0  0  0  0  0  0  0  0  0  0  0
   44.5450   26.8460   48.9160 C   0  0  0  0  0  0  0  0  0  0  0  0
   43.7580   25.8030   48.1680 C   0  0  2  0  0  0  0  0  0  0  0  0
   44.5200   24.6720   47.5100 C   0  0  0  0  0  0  0  0  0  0  0  0
   43.8480   25.7320   46.6830 C   0  0  1  0  0  0  0  0  0  0  0  0
   42.6550   25.3850   45.9450 N   0  0  0  0  0  0  0  0  0  0  0  0
   41.4850   25.5980   46.7210 C   0  0  0  0  0  0  0  0  0  0  0  0
   40.2030   25.3100   45.9700 C   0  0  0  0  0  0  0  0  0  0  0  0
   40.5280   24.5050   44.7430 C   0  0  0  0  0  0  0  0  0  0  0  0
   41.4640   23.3840   45.1860 C   0  0  0  0  0  0  0  0  0  0  0  0
   42.8060   24.0260   45.4750 C   0  0  0  0  0  0  0  0  0  0  0  0
   44.0850   35.5749   45.0586 H   0  0  0  0  0  0  0  0  0  0  0  0
   45.5927   35.3442   43.0097 H   0  0  0  0  0  0  0  0  0  0  0  0
   47.4898   33.6582   43.0862 H   0  0  0  0  0  0  0  0  0  0  0  0
   48.4766   32.4457   47.1886 H   0  0  0  0  0  0  0  0  0  0  0  0
   47.6921   33.3799   48.5490 H   0  0  0  0  0  0  0  0  0  0  0  0
   48.3797   30.5038   48.3181 H   0  0  0  0  0  0  0  0  0  0  0  0
   48.5016   31.7293   49.7075 H   0  0  0  0  0  0  0  0  0  0  0  0
   46.6383   29.7982   49.1886 H   0  0  0  0  0  0  0  0  0  0  0  0
   44.7016   30.9867   49.7326 H   0  0  0  0  0  0  0  0  0  0  0  0
   45.6336   32.5149   49.6402 H   0  0  0  0  0  0  0  0  0  0  0  0
   44.3189   31.8976   47.5400 H   0  0  0  0  0  0  0  0  0  0  0  0
   44.7728   30.1486   46.2184 H   0  0  0  0  0  0  0  0  0  0  0  0
   46.4259   29.9267   46.8072 H   0  0  0  0  0  0  0  0  0  0  0  0
   44.3897   29.5730   49.0618 H   0  0  0  0  0  0  0  0  0  0  0  0
   45.5150   27.5520   47.0395 H   0  0  0  0  0  0  0  0  0  0  0  0
   45.4107   26.3732   49.4028 H   0  0  0  0  0  0  0  0  0  0  0  0
   43.9046   27.3115   49.6797 H   0  0  0  0  0  0  0  0  0  0  0  0
   42.9263   25.8810   48.8836 H   0  0  0  0  0  0  0  0  0  0  0  0
   45.6175   24.6347   47.5742 H   0  0  0  0  0  0  0  0  0  0  0  0
   44.4833   23.5735   47.5544 H   0  0  0  0  0  0  0  0  0  0  0  0
   44.1833   26.4178   45.8911 H   0  0  0  0  0  0  0  0  0  0  0  0
   41.5273   24.9414   47.6025 H   0  0  0  0  0  0  0  0  0  0  0  0
   41.4676   26.6631   46.9952 H   0  0  0  0  0  0  0  0  0  0  0  0
   39.5175   24.7403   46.6146 H   0  0  0  0  0  0  0  0  0  0  0  0
   39.7212   26.2551   45.6789 H   0  0  0  0  0  0  0  0  0  0  0  0
   41.0249   25.1396   43.9944 H   0  0  0  0  0  0  0  0  0  0  0  0
   39.6146   24.0983   44.2845 H   0  0  0  0  0  0  0  0  0  0  0  0
   41.0725   22.8993   46.0925 H   0  0  0  0  0  0  0  0  0  0  0  0
   41.5539   22.6126   44.4070 H   0  0  0  0  0  0  0  0  0  0  0  0
   43.3250   23.4372   46.2457 H   0  0  0  0  0  0  0  0  0  0  0  0
   43.3859   24.0473   44.5405 H   0  0  0  0  0  0  0  0  0  0  0  0
  1  6  2  0
  2  3  2  0
  2  1  1  0
  3  4  1  0
  4  5  2  0
  5  7  1  0
  6  5  1  0
  7 12  1  0
  7  8  1  0
  8  9  1  0
  9 10  1  0
 11 10  1  0
 12 11  1  0
 13 12  1  0
 13 14  1  0
 15 14  2  0
 15 16  1  0
 17 16  1  0
 18 17  1  0
 19 18  1  0
 19 17  1  0
 20 19  1  0
 20 21  1  0
 22 21  1  0
 23 24  1  0
 23 22  1  0
 24 25  1  0
 25 20  1  0
  1 26  1  0
  2 27  1  0
  3 28  1  0
  8 29  1  0
  8 30  1  0
  9 31  1  0
  9 32  1  0
 10 33  1  0
 11 34  1  0
 11 35  1  0
 12 36  1  1
 13 37  1  0
 13 38  1  0
 14 39  1  0
 15 40  1  0
 16 41  1  0
 16 42  1  0
 17 43  1  6
 18 44  1  0
 18 45  1  0
 19 46  1  6
 21 47  1  0
 21 48  1  0
 22 49  1  0
 22 50  1  0
 23 51  1  0
 23 52  1  0
 24 53  1  0
 24 54  1  0
 25 55  1  0
 25 56  1  0
M  ISO  8  26  14  27  14  28  14  29  13  30  13  31  13  32  13  33   5
M  ISO  8  34  13  35  13  36  13  37   8  38   8  41   8  42   8  43  13
M  ISO  8  44  13  45  13  46  13  47  13  48  13  49  13  50  13  51  13
M  ISO  5  52  13  53  13  54  13  55  13  56  13
M  END
>  <minimizedAffinity>  (1) 
-6.03756237

>  <minimizedRMSD>  (1) 
0.715241075

$$$$
