
     RDKit          3D

 48 51  0  0  1  0  0  0  0  0999 V2000
   45.0200   34.7310   44.9580 C   0  0  0  0  0  0  0  0  0  0  0  0
   45.8860   34.5760   43.8390 C   0  0  0  0  0  0  0  0  0  0  0  0
   46.9250   33.6600   43.9350 C   0  0  0  0  0  0  0  0  0  0  0  0
   47.0470   32.9700   45.0940 N   0  0  0  0  0  0  0  0  0  0  0  0
   46.2430   33.1100   46.1410 C   0  0  0  0  0  0  0  0  0  0  0  0
   45.2550   33.9910   46.0300 N   0  0  0  0  0  0  0  0  0  0  0  0
   46.4480   32.3560   47.2880 N   0  0  0  0  0  0  0  0  0  0  0  0
   47.7060   32.4310   47.9970 C   0  0  0  0  0  0  0  0  0  0  0  0
   47.9460   31.2800   48.9230 C   0  0  0  0  0  0  0  0  0  0  0  0
   46.7940   30.7320   49.5590 N   0  0  0  0  0  0  0  0  0  0  0  0
   45.5840   31.4600   49.2580 C   0  0  0  0  0  0  0  0  0  0  0  0
   45.3690   31.4750   47.7800 C   0  0  2  0  0  0  0  0  0  0  0  0
   45.4670   30.1030   47.1610 C   0  0  0  0  0  0  0  0  0  0  0  0
   44.8380   29.1560   48.1530 C   0  0  0  0  0  0  0  0  0  0  0  0
   44.9970   27.8400   48.0080 C   0  0  0  0  0  0  0  0  0  0  0  0
   44.4270   26.8200   48.9230 C   0  0  0  0  0  0  0  0  0  0  0  0
   43.7310   25.7530   48.1030 C   0  0  2  0  0  0  0  0  0  0  0  0
   44.5210   25.0550   47.0400 C   0  0  0  0  0  0  0  0  0  0  0  0
   43.3890   26.0090   46.6970 C   0  0  1  0  0  0  0  0  0  0  0  0
   42.1550   25.5270   46.1380 C   0  0  0  0  0  0  0  0  0  0  0  0
   40.8830   25.2900   46.5320 C   0  0  0  0  0  0  0  0  0  0  0  0
   39.9450   24.8110   45.6830 C   0  0  0  0  0  0  0  0  0  0  0  0
   40.3570   24.5620   44.3400 C   0  0  0  0  0  0  0  0  0  0  0  0
   42.1880   25.0550   44.3410 S   0  0  0  0  0  0  0  0  0  0  0  0
   44.1820   35.4432   44.9327 H   0  0  0  0  0  0  0  0  0  0  0  0
   45.7361   35.1661   42.9228 H   0  0  0  0  0  0  0  0  0  0  0  0
   47.6235   33.5006   43.1003 H   0  0  0  0  0  0  0  0  0  0  0  0
   48.5200   32.4570   47.2576 H   0  0  0  0  0  0  0  0  0  0  0  0
   47.6714   33.3393   48.6165 H   0  0  0  0  0  0  0  0  0  0  0  0
   48.4229   30.4764   48.3427 H   0  0  0  0  0  0  0  0  0  0  0  0
   48.5677   31.6820   49.7366 H   0  0  0  0  0  0  0  0  0  0  0  0
   46.6778   29.7579   49.2450 H   0  0  0  0  0  0  0  0  0  0  0  0
   44.7296   30.9705   49.7482 H   0  0  0  0  0  0  0  0  0  0  0  0
   45.6749   32.4924   49.6267 H   0  0  0  0  0  0  0  0  0  0  0  0
   44.3594   31.8225   47.5155 H   0  0  0  0  0  0  0  0  0  0  0  0
   44.9219   30.0743   46.2060 H   0  0  0  0  0  0  0  0  0  0  0  0
   46.5110   29.8297   46.9478 H   0  0  0  0  0  0  0  0  0  0  0  0
   44.2493   29.5505   48.9943 H   0  0  0  0  0  0  0  0  0  0  0  0
   45.5909   27.4865   47.1522 H   0  0  0  0  0  0  0  0  0  0  0  0
   45.2344   26.3626   49.5137 H   0  0  0  0  0  0  0  0  0  0  0  0
   43.7048   27.2946   49.6037 H   0  0  0  0  0  0  0  0  0  0  0  0
   43.1451   25.4328   48.9772 H   0  0  0  0  0  0  0  0  0  0  0  0
   45.5654   25.3413   46.8470 H   0  0  0  0  0  0  0  0  0  0  0  0
   44.7703   24.0104   46.8018 H   0  0  0  0  0  0  0  0  0  0  0  0
   43.2946   26.9077   46.0697 H   0  0  0  0  0  0  0  0  0  0  0  0
   40.6023   25.4932   47.5760 H   0  0  0  0  0  0  0  0  0  0  0  0
   38.9127   24.6223   46.0128 H   0  0  0  0  0  0  0  0  0  0  0  0
   39.7559   24.1761   43.5035 H   0  0  0  0  0  0  0  0  0  0  0  0
  1  6  2  0
  2  3  2  0
  2  1  1  0
  3  4  1  0
  4  5  2  0
  5  7  1  0
  6  5  1  0
  7 12  1  0
  7  8  1  0
  8  9  1  0
  9 10  1  0
 11 10  1  0
 12 11  1  0
 13 12  1  0
 13 14  1  0
 15 14  2  0
 15 16  1  0
 17 16  1  0
 18 17  1  0
 19 18  1  0
 19 17  1  0
 20 21  2  0
 20 19  1  0
 22 21  1  0
 23 24  1  0
 23 22  2  0
 24 20  1  0
  1 25  1  0
  2 26  1  0
  3 27  1  0
  8 28  1  0
  8 29  1  0
  9 30  1  0
  9 31  1  0
 10 32  1  0
 11 33  1  0
 11 34  1  0
 12 35  1  1
 13 36  1  0
 13 37  1  0
 14 38  1  0
 15 39  1  0
 16 40  1  0
 16 41  1  0
 17 42  1  1
 18 43  1  0
 18 44  1  0
 19 45  1  6
 21 46  1  0
 22 47  1  0
 23 48  1  0
M  ISO  8  25  14  26  14  27  14  28  13  29  13  30  13  31  13  32   5
M  ISO  8  33  13  34  13  35  13  36   8  37   8  40   8  41   8  42  13
M  ISO  6  43  13  44  13  45  13  46  14  47  14  48  14
M  END
>  <minimizedAffinity>  (1) 
-5.8573575

>  <minimizedRMSD>  (1) 
0.705313981

$$$$
