
     RDKit          3D

 43 45  0  0  1  0  0  0  0  0999 V2000
   45.0020   34.6980   45.0060 C   0  0  0  0  0  0  0  0  0  0  0  0
   45.8780   34.5710   43.8840 C   0  0  0  0  0  0  0  0  0  0  0  0
   46.9240   33.6610   43.9650 C   0  0  0  0  0  0  0  0  0  0  0  0
   47.0460   32.9500   45.1130 N   0  0  0  0  0  0  0  0  0  0  0  0
   46.2350   33.0660   46.1580 C   0  0  0  0  0  0  0  0  0  0  0  0
   45.2330   33.9430   46.0700 N   0  0  0  0  0  0  0  0  0  0  0  0
   46.4430   32.2920   47.2920 N   0  0  0  0  0  0  0  0  0  0  0  0
   47.6970   32.3650   48.0030 C   0  0  0  0  0  0  0  0  0  0  0  0
   47.9260   31.2170   48.9380 C   0  0  0  0  0  0  0  0  0  0  0  0
   46.7790   30.6510   49.5510 N   0  0  0  0  0  0  0  0  0  0  0  0
   45.5650   31.3570   49.2400 C   0  0  0  0  0  0  0  0  0  0  0  0
   45.3670   31.3950   47.7600 C   0  0  2  0  0  0  0  0  0  0  0  0
   45.4880   30.0340   47.1170 C   0  0  0  0  0  0  0  0  0  0  0  0
   44.9120   29.0550   48.1140 C   0  0  0  0  0  0  0  0  0  0  0  0
   44.9350   27.7480   47.8710 C   0  0  0  0  0  0  0  0  0  0  0  0
   44.4060   26.6980   48.7730 C   0  0  0  0  0  0  0  0  0  0  0  0
   43.3550   25.8990   48.0360 C   0  0  2  0  0  0  0  0  0  0  0  0
   43.7950   24.9920   46.9340 C   0  0  0  0  0  0  0  0  0  0  0  0
   43.0100   26.2390   46.6450 C   0  0  1  0  0  0  0  0  0  0  0  0
   41.5600   26.1450   46.3290 C   0  0  0  0  0  0  0  0  0  0  0  0
   40.8690   27.0790   45.9030 O   0  0  0  0  0  0  0  0  0  0  0  0
   44.1585   35.4037   44.9868 H   0  0  0  0  0  0  0  0  0  0  0  0
   45.7276   35.1785   42.9794 H   0  0  0  0  0  0  0  0  0  0  0  0
   47.6265   33.5224   43.1299 H   0  0  0  0  0  0  0  0  0  0  0  0
   48.5137   32.3813   47.2663 H   0  0  0  0  0  0  0  0  0  0  0  0
   47.6668   33.2780   48.6158 H   0  0  0  0  0  0  0  0  0  0  0  0
   48.4266   30.4196   48.3691 H   0  0  0  0  0  0  0  0  0  0  0  0
   48.5175   31.6347   49.7661 H   0  0  0  0  0  0  0  0  0  0  0  0
   46.6830   29.6771   49.2299 H   0  0  0  0  0  0  0  0  0  0  0  0
   44.7132   30.8431   49.7094 H   0  0  0  0  0  0  0  0  0  0  0  0
   45.6344   32.3855   49.6238 H   0  0  0  0  0  0  0  0  0  0  0  0
   44.3564   31.7379   47.4935 H   0  0  0  0  0  0  0  0  0  0  0  0
   44.9184   30.0027   46.1765 H   0  0  0  0  0  0  0  0  0  0  0  0
   46.5329   29.7938   46.8711 H   0  0  0  0  0  0  0  0  0  0  0  0
   44.4695   29.4274   49.0497 H   0  0  0  0  0  0  0  0  0  0  0  0
   45.3837   27.4190   46.9221 H   0  0  0  0  0  0  0  0  0  0  0  0
   45.2246   26.0322   49.0838 H   0  0  0  0  0  0  0  0  0  0  0  0
   43.9610   27.1639   49.6646 H   0  0  0  0  0  0  0  0  0  0  0  0
   42.7705   25.7814   48.9604 H   0  0  0  0  0  0  0  0  0  0  0  0
   44.8583   24.9317   46.6587 H   0  0  0  0  0  0  0  0  0  0  0  0
   43.6795   23.9222   46.7057 H   0  0  0  0  0  0  0  0  0  0  0  0
   43.1730   27.0794   45.9542 H   0  0  0  0  0  0  0  0  0  0  0  0
   41.0657   25.1748   46.4853 H   0  0  0  0  0  0  0  0  0  0  0  0
  1  6  2  0
  2  3  2  0
  2  1  1  0
  3  4  1  0
  4  5  2  0
  5  7  1  0
  6  5  1  0
  7 12  1  0
  7  8  1  0
  8  9  1  0
  9 10  1  0
 11 10  1  0
 12 11  1  0
 13 12  1  0
 13 14  1  0
 15 14  2  0
 15 16  1  0
 17 16  1  0
 18 17  1  0
 19 18  1  0
 19 17  1  0
 20 19  1  0
 21 20  2  0
  1 22  1  0
  2 23  1  0
  3 24  1  0
  8 25  1  0
  8 26  1  0
  9 27  1  0
  9 28  1  0
 10 29  1  0
 11 30  1  0
 11 31  1  0
 12 32  1  1
 13 33  1  0
 13 34  1  0
 14 35  1  0
 15 36  1  0
 16 37  1  0
 16 38  1  0
 17 39  1  1
 18 40  1  0
 18 41  1  0
 19 42  1  6
 20 43  1  0
M  ISO  8  22  14  23  14  24  14  25  13  26  13  27  13  28  13  29   5
M  ISO  8  30  13  31  13  32  13  33   8  34   8  37   8  38   8  39  13
M  ISO  4  40  13  41  13  42  13  43   6
M  END
>  <minimizedAffinity>  (1) 
-5.63512897

>  <minimizedRMSD>  (1) 
0.0745363906

$$$$
