
     RDKit          3D

 42 44  0  0  1  0  0  0  0  0999 V2000
   44.9810   34.7230   44.9990 C   0  0  0  0  0  0  0  0  0  0  0  0
   45.8640   34.6160   43.8880 C   0  0  0  0  0  0  0  0  0  0  0  0
   46.9310   33.7150   43.9710 C   0  0  0  0  0  0  0  0  0  0  0  0
   47.0680   32.9870   45.1160 N   0  0  0  0  0  0  0  0  0  0  0  0
   46.2410   33.0920   46.1480 C   0  0  0  0  0  0  0  0  0  0  0  0
   45.2180   33.9600   46.0590 N   0  0  0  0  0  0  0  0  0  0  0  0
   46.4480   32.3160   47.2780 N   0  0  0  0  0  0  0  0  0  0  0  0
   47.7020   32.3920   47.9960 C   0  0  0  0  0  0  0  0  0  0  0  0
   47.9280   31.2550   48.9320 C   0  0  0  0  0  0  0  0  0  0  0  0
   46.7850   30.6580   49.5300 N   0  0  0  0  0  0  0  0  0  0  0  0
   45.5690   31.3590   49.2350 C   0  0  0  0  0  0  0  0  0  0  0  0
   45.3780   31.4100   47.7460 C   0  0  2  0  0  0  0  0  0  0  0  0
   45.4730   30.0660   47.1020 C   0  0  0  0  0  0  0  0  0  0  0  0
   44.9210   29.0660   48.0730 C   0  0  0  0  0  0  0  0  0  0  0  0
   44.9920   27.7610   47.8320 C   0  0  0  0  0  0  0  0  0  0  0  0
   44.4840   26.6840   48.7160 C   0  0  0  0  0  0  0  0  0  0  0  0
   43.3630   25.9490   48.0280 C   0  0  2  0  0  0  0  0  0  0  0  0
   43.7310   24.8650   47.0400 C   0  0  0  0  0  0  0  0  0  0  0  0
   43.1310   26.1640   46.5750 C   0  0  1  0  0  0  0  0  0  0  0  0
   41.3550   26.2050   46.1330 S   0  0  0  0  0  0  0  0  0  0  0  0
   44.1278   35.4171   44.9799 H   0  0  0  0  0  0  0  0  0  0  0  0
   45.7112   35.2268   42.9860 H   0  0  0  0  0  0  0  0  0  0  0  0
   47.6387   33.5972   43.1372 H   0  0  0  0  0  0  0  0  0  0  0  0
   48.5216   32.4057   47.2624 H   0  0  0  0  0  0  0  0  0  0  0  0
   47.6677   33.3071   48.6054 H   0  0  0  0  0  0  0  0  0  0  0  0
   48.4557   30.4683   48.3729 H   0  0  0  0  0  0  0  0  0  0  0  0
   48.4871   31.6919   49.7726 H   0  0  0  0  0  0  0  0  0  0  0  0
   46.6996   29.6919   49.1831 H   0  0  0  0  0  0  0  0  0  0  0  0
   44.7201   30.8339   49.6972 H   0  0  0  0  0  0  0  0  0  0  0  0
   45.6251   32.3818   49.6360 H   0  0  0  0  0  0  0  0  0  0  0  0
   44.3713   31.7633   47.4781 H   0  0  0  0  0  0  0  0  0  0  0  0
   44.8854   30.0518   46.1722 H   0  0  0  0  0  0  0  0  0  0  0  0
   46.5169   29.8282   46.8495 H   0  0  0  0  0  0  0  0  0  0  0  0
   44.4487   29.4188   49.0017 H   0  0  0  0  0  0  0  0  0  0  0  0
   45.4711   27.4515   46.8914 H   0  0  0  0  0  0  0  0  0  0  0  0
   45.2991   25.9803   48.9405 H   0  0  0  0  0  0  0  0  0  0  0  0
   44.1098   27.1263   49.6511 H   0  0  0  0  0  0  0  0  0  0  0  0
   42.7283   26.0135   48.9241 H   0  0  0  0  0  0  0  0  0  0  0  0
   44.7880   24.6399   46.8350 H   0  0  0  0  0  0  0  0  0  0  0  0
   43.4842   23.8000   46.9177 H   0  0  0  0  0  0  0  0  0  0  0  0
   43.4366   26.8891   45.8064 H   0  0  0  0  0  0  0  0  0  0  0  0
   40.6002   26.2224   47.2762 H   0  0  0  0  0  0  0  0  0  0  0  0
  1  6  2  0
  2  3  2  0
  2  1  1  0
  3  4  1  0
  4  5  2  0
  5  7  1  0
  6  5  1  0
  7 12  1  0
  7  8  1  0
  8  9  1  0
  9 10  1  0
 11 10  1  0
 12 11  1  0
 13 12  1  0
 13 14  1  0
 15 14  2  0
 15 16  1  0
 17 16  1  0
 18 17  1  0
 19 18  1  0
 19 17  1  0
 20 19  1  0
  1 21  1  0
  2 22  1  0
  3 23  1  0
  8 24  1  0
  8 25  1  0
  9 26  1  0
  9 27  1  0
 10 28  1  0
 11 29  1  0
 11 30  1  0
 12 31  1  1
 13 32  1  0
 13 33  1  0
 14 34  1  0
 15 35  1  0
 16 36  1  0
 16 37  1  0
 17 38  1  1
 18 39  1  0
 18 40  1  0
 19 41  1  6
 20 42  1  0
M  ISO  8  21  14  22  14  23  14  24  13  25  13  26  13  27  13  28   5
M  ISO  8  29  13  30  13  31  13  32   8  33   8  36   8  37   8  38  13
M  ISO  4  39  13  40  13  41  13  42  11
M  END
>  <minimizedAffinity>  (1) 
-5.58614969

>  <minimizedRMSD>  (1) 
0.0601455867

$$$$
