
     RDKit          3D

 27 29  0  0  0  0  0  0  0  0999 V2000
   44.8660   33.2270   41.0380 Br  0  0  0  0  0  0  0  0  0  0  0  0
   46.5400   34.1240   40.9030 C   0  0  0  0  0  0  0  0  0  0  0  0
   47.0140   34.8620   41.9760 C   0  0  0  0  0  0  0  0  0  0  0  0
   48.2340   35.5310   41.9050 C   0  0  0  0  0  0  0  0  0  0  0  0
   48.9470   35.4400   40.7470 C   0  0  0  0  0  0  0  0  0  0  0  0
   48.4470   34.7010   39.7070 C   0  0  0  0  0  0  0  0  0  0  0  0
   47.2500   34.0300   39.7420 C   0  0  0  0  0  0  0  0  0  0  0  0
   45.6340   34.0250   45.2560 C   0  0  0  0  0  0  0  0  0  0  0  0
   44.6830   35.0260   45.4950 C   0  0  0  0  0  0  0  0  0  0  0  0
   44.5300   35.9940   44.5030 C   0  0  0  0  0  0  0  0  0  0  0  0
   45.2930   35.9130   43.3850 N   0  0  0  0  0  0  0  0  0  0  0  0
   46.2110   34.9220   43.1860 C   0  0  0  0  0  0  0  0  0  0  0  0
   46.3730   33.9710   44.1420 N   0  0  0  0  0  0  0  0  0  0  0  0
   46.8830   33.2990   38.5420 C   0  0  0  0  0  0  0  0  0  0  0  0
   46.4810   32.0170   38.2650 C   0  0  0  0  0  0  0  0  0  0  0  0
   46.2450   31.8070   36.9310 C   0  0  0  0  0  0  0  0  0  0  0  0
   46.5160   33.0080   36.3970 N   0  0  0  0  0  0  0  0  0  0  0  0
   46.8840   33.8630   37.3240 N   0  0  0  0  0  0  0  0  0  0  0  0
   48.6104   36.1150   42.7578 H   0  0  0  0  0  0  0  0  0  0  0  0
   49.9142   35.9546   40.6482 H   0  0  0  0  0  0  0  0  0  0  0  0
   49.0433   34.6416   38.7846 H   0  0  0  0  0  0  0  0  0  0  0  0
   45.7798   33.2472   46.0200 H   0  0  0  0  0  0  0  0  0  0  0  0
   44.0868   35.0471   46.4192 H   0  0  0  0  0  0  0  0  0  0  0  0
   43.8024   36.8098   44.6254 H   0  0  0  0  0  0  0  0  0  0  0  0
   46.3606   31.2388   39.0331 H   0  0  0  0  0  0  0  0  0  0  0  0
   45.9165   30.8867   36.4259 H   0  0  0  0  0  0  0  0  0  0  0  0
   46.4449   33.2299   35.3937 H   0  0  0  0  0  0  0  0  0  0  0  0
  2  1  1  0
  2  3  2  0
  3 12  1  0
  4  3  1  0
  5  4  2  0
  6  7  2  0
  6  5  1  0
  7  2  1  0
  8  9  2  0
 10  9  1  0
 11 10  2  0
 12 11  1  0
 12 13  2  0
 13  8  1  0
 14  7  1  0
 15 14  1  0
 16 15  2  0
 17 16  1  0
 17 18  1  0
 18 14  2  0
  4 19  1  0
  5 20  1  0
  6 21  1  0
  8 22  1  0
  9 23  1  0
 10 24  1  0
 15 25  1  0
 16 26  1  0
 17 27  1  0
M  ISO  8  19  14  20  14  21  14  22  14  23  14  24  14  25  14  26  14
M  ISO  1  27   9
M  END
>  <minimizedAffinity>  (1) 
-5.52435637

>  <minimizedRMSD>  (1) 
0.502575219

$$$$
