
     RDKit          3D

 47 49  0  0  1  0  0  0  0  0999 V2000
   44.9300   34.7300   45.1110 C   0  0  0  0  0  0  0  0  0  0  0  0
   45.7860   34.6400   43.9780 C   0  0  0  0  0  0  0  0  0  0  0  0
   46.8420   33.7410   44.0280 C   0  0  0  0  0  0  0  0  0  0  0  0
   46.9940   33.0020   45.1580 N   0  0  0  0  0  0  0  0  0  0  0  0
   46.1930   33.0890   46.2120 C   0  0  0  0  0  0  0  0  0  0  0  0
   45.1860   33.9530   46.1490 N   0  0  0  0  0  0  0  0  0  0  0  0
   46.4250   32.2890   47.3280 N   0  0  0  0  0  0  0  0  0  0  0  0
   47.6930   32.3520   48.0220 C   0  0  0  0  0  0  0  0  0  0  0  0
   47.9500   31.1700   48.9060 C   0  0  0  0  0  0  0  0  0  0  0  0
   46.8110   30.5940   49.5350 N   0  0  0  0  0  0  0  0  0  0  0  0
   45.5890   31.2940   49.2640 C   0  0  0  0  0  0  0  0  0  0  0  0
   45.3630   31.3760   47.7960 C   0  0  2  0  0  0  0  0  0  0  0  0
   45.4760   30.0270   47.1280 C   0  0  0  0  0  0  0  0  0  0  0  0
   44.9430   29.0170   48.0910 C   0  0  0  0  0  0  0  0  0  0  0  0
   45.0250   27.7120   47.8450 C   0  0  0  0  0  0  0  0  0  0  0  0
   44.5260   26.6440   48.7450 C   0  0  0  0  0  0  0  0  0  0  0  0
   43.3440   25.9890   48.0310 C   0  0  2  0  0  0  0  0  0  0  0  0
   43.6920   24.9410   46.9930 C   0  0  0  0  0  0  0  0  0  0  0  0
   43.0020   26.2120   46.6740 C   0  0  2  0  0  0  0  0  0  0  0  0
   43.1930   26.9230   45.4730 C   0  0  0  0  0  0  0  0  0  0  0  0
   42.4480   28.2220   45.2510 C   0  0  0  0  0  0  0  0  0  0  0  0
   44.0789   35.4268   45.1227 H   0  0  0  0  0  0  0  0  0  0  0  0
   45.6157   35.2646   43.0887 H   0  0  0  0  0  0  0  0  0  0  0  0
   47.5338   33.6302   43.1800 H   0  0  0  0  0  0  0  0  0  0  0  0
   48.4971   32.4083   47.2735 H   0  0  0  0  0  0  0  0  0  0  0  0
   47.6632   33.2403   48.6701 H   0  0  0  0  0  0  0  0  0  0  0  0
   48.4247   30.3898   48.2929 H   0  0  0  0  0  0  0  0  0  0  0  0
   48.5783   31.5480   49.7260 H   0  0  0  0  0  0  0  0  0  0  0  0
   46.7112   29.6243   49.2025 H   0  0  0  0  0  0  0  0  0  0  0  0
   44.7506   30.7573   49.7320 H   0  0  0  0  0  0  0  0  0  0  0  0
   45.6576   32.3118   49.6756 H   0  0  0  0  0  0  0  0  0  0  0  0
   44.3503   31.7298   47.5526 H   0  0  0  0  0  0  0  0  0  0  0  0
   44.8844   30.0138   46.2007 H   0  0  0  0  0  0  0  0  0  0  0  0
   46.5208   29.8055   46.8648 H   0  0  0  0  0  0  0  0  0  0  0  0
   44.4723   29.3598   49.0242 H   0  0  0  0  0  0  0  0  0  0  0  0
   45.4991   27.4015   46.9022 H   0  0  0  0  0  0  0  0  0  0  0  0
   45.3170   25.9021   48.9288 H   0  0  0  0  0  0  0  0  0  0  0  0
   44.2229   27.0553   49.7191 H   0  0  0  0  0  0  0  0  0  0  0  0
   42.7475   26.0717   48.9515 H   0  0  0  0  0  0  0  0  0  0  0  0
   44.7368   24.7798   46.6889 H   0  0  0  0  0  0  0  0  0  0  0  0
   43.4976   23.8684   46.8454 H   0  0  0  0  0  0  0  0  0  0  0  0
   42.1074   26.7542   46.3339 H   0  0  0  0  0  0  0  0  0  0  0  0
   44.2664   27.1537   45.4046 H   0  0  0  0  0  0  0  0  0  0  0  0
   42.7783   26.2522   44.7061 H   0  0  0  0  0  0  0  0  0  0  0  0
   42.1919   28.6686   46.2231 H   0  0  0  0  0  0  0  0  0  0  0  0
   43.0845   28.9175   44.6843 H   0  0  0  0  0  0  0  0  0  0  0  0
   41.5263   28.0238   44.6843 H   0  0  0  0  0  0  0  0  0  0  0  0
  1  6  2  0
  2  3  2  0
  2  1  1  0
  3  4  1  0
  4  5  2  0
  5  7  1  0
  6  5  1  0
  7 12  1  0
  7  8  1  0
  8  9  1  0
  9 10  1  0
 11 10  1  0
 12 11  1  0
 13 12  1  0
 13 14  1  0
 15 14  2  0
 15 16  1  0
 17 16  1  0
 18 17  1  0
 19 18  1  0
 19 17  1  0
 20 19  1  0
 21 20  1  0
  1 22  1  0
  2 23  1  0
  3 24  1  0
  8 25  1  0
  8 26  1  0
  9 27  1  0
  9 28  1  0
 10 29  1  0
 11 30  1  0
 11 31  1  0
 12 32  1  1
 13 33  1  0
 13 34  1  0
 14 35  1  0
 15 36  1  0
 16 37  1  0
 16 38  1  0
 17 39  1  1
 18 40  1  0
 18 41  1  0
 19 42  1  1
 20 43  1  0
 20 44  1  0
 21 45  1  0
 21 46  1  0
 21 47  1  0
M  ISO  8  22  14  23  14  24  14  25  13  26  13  27  13  28  13  29   5
M  ISO  8  30  13  31  13  32  13  33   8  34   8  37   8  38   8  39  13
M  ISO  8  40  13  41  13  42  13  43   8  44   8  45   8  46   8  47   8
M  END
>  <minimizedAffinity>  (1) 
-5.56770277

>  <minimizedRMSD>  (1) 
0.163124025

$$$$
