
     RDKit          3D

 42 44  0  0  1  0  0  0  0  0999 V2000
   45.0370   34.6250   44.8850 C   0  0  0  0  0  0  0  0  0  0  0  0
   45.9690   34.5610   43.8120 C   0  0  0  0  0  0  0  0  0  0  0  0
   47.0630   33.7150   43.9380 C   0  0  0  0  0  0  0  0  0  0  0  0
   47.1740   32.9960   45.0860 N   0  0  0  0  0  0  0  0  0  0  0  0
   46.3040   33.0560   46.0870 C   0  0  0  0  0  0  0  0  0  0  0  0
   45.2650   33.8710   45.9470 N   0  0  0  0  0  0  0  0  0  0  0  0
   46.4960   32.2820   47.2260 N   0  0  0  0  0  0  0  0  0  0  0  0
   47.7050   32.4200   48.0090 C   0  0  0  0  0  0  0  0  0  0  0  0
   47.9520   31.2790   48.9420 C   0  0  0  0  0  0  0  0  0  0  0  0
   46.8010   30.6350   49.4850 N   0  0  0  0  0  0  0  0  0  0  0  0
   45.5690   31.2810   49.1160 C   0  0  0  0  0  0  0  0  0  0  0  0
   45.4530   31.3190   47.6310 C   0  0  2  0  0  0  0  0  0  0  0  0
   45.6900   29.9710   46.9890 C   0  0  0  0  0  0  0  0  0  0  0  0
   44.3300   29.3200   46.8940 C   0  0  0  0  0  0  0  0  0  0  0  0
   43.9800   28.6880   45.7590 C   0  0  0  0  0  0  0  0  0  0  0  0
   42.6730   28.0130   45.5590 C   0  0  0  0  0  0  0  0  0  0  0  0
   41.7060   28.9810   44.9170 C   0  0  2  0  0  0  0  0  0  0  0  0
   40.3130   29.0760   45.4510 C   0  0  0  0  0  0  0  0  0  0  0  0
   40.6110   28.5040   44.0680 C   0  0  2  0  0  0  0  0  0  0  0  0
   40.3010   27.1820   43.8920 O   0  0  0  0  0  0  0  0  0  0  0  0
   44.1552   35.2806   44.8328 H   0  0  0  0  0  0  0  0  0  0  0  0
   45.8265   35.1667   42.9049 H   0  0  0  0  0  0  0  0  0  0  0  0
   47.8127   33.6299   43.1376 H   0  0  0  0  0  0  0  0  0  0  0  0
   48.5585   32.4951   47.3191 H   0  0  0  0  0  0  0  0  0  0  0  0
   47.5846   33.3208   48.6288 H   0  0  0  0  0  0  0  0  0  0  0  0
   48.5314   30.5206   48.3951 H   0  0  0  0  0  0  0  0  0  0  0  0
   48.4716   31.7192   49.8059 H   0  0  0  0  0  0  0  0  0  0  0  0
   46.7771   29.6633   49.1442 H   0  0  0  0  0  0  0  0  0  0  0  0
   44.7209   30.7201   49.5357 H   0  0  0  0  0  0  0  0  0  0  0  0
   45.5611   32.3078   49.5106 H   0  0  0  0  0  0  0  0  0  0  0  0
   44.4400   31.6040   47.3107 H   0  0  0  0  0  0  0  0  0  0  0  0
   46.1271   30.0946   45.9872 H   0  0  0  0  0  0  0  0  0  0  0  0
   46.3931   29.3601   47.5742 H   0  0  0  0  0  0  0  0  0  0  0  0
   43.6331   29.3623   47.7440 H   0  0  0  0  0  0  0  0  0  0  0  0
   44.7043   28.6704   44.9313 H   0  0  0  0  0  0  0  0  0  0  0  0
   42.8069   27.1387   44.9050 H   0  0  0  0  0  0  0  0  0  0  0  0
   42.2753   27.6833   46.5301 H   0  0  0  0  0  0  0  0  0  0  0  0
   42.5277   29.6945   44.7568 H   0  0  0  0  0  0  0  0  0  0  0  0
   39.9845   28.4149   46.2665 H   0  0  0  0  0  0  0  0  0  0  0  0
   39.6748   29.8766   45.8532 H   0  0  0  0  0  0  0  0  0  0  0  0
   40.3589   28.7093   43.0171 H   0  0  0  0  0  0  0  0  0  0  0  0
   40.1989   26.7466   44.7752 H   0  0  0  0  0  0  0  0  0  0  0  0
  1  6  2  0
  2  3  2  0
  2  1  1  0
  3  4  1  0
  4  5  2  0
  5  7  1  0
  6  5  1  0
  7 12  1  0
  7  8  1  0
  8  9  1  0
  9 10  1  0
 11 10  1  0
 12 11  1  0
 13 12  1  0
 14 13  1  0
 15 14  2  0
 16 15  1  0
 17 18  1  0
 17 16  1  0
 19 17  1  0
 19 18  1  0
 20 19  1  0
  1 21  1  0
  2 22  1  0
  3 23  1  0
  8 24  1  0
  8 25  1  0
  9 26  1  0
  9 27  1  0
 10 28  1  0
 11 29  1  0
 11 30  1  0
 12 31  1  1
 13 32  1  0
 13 33  1  0
 14 34  1  0
 15 35  1  0
 16 36  1  0
 16 37  1  0
 17 38  1  6
 18 39  1  0
 18 40  1  0
 19 41  1  6
 20 42  1  0
M  ISO  8  21  14  22  14  23  14  24  13  25  13  26  13  27  13  28   5
M  ISO  8  29  13  30  13  31  13  32   8  33   8  36   8  37   8  38  13
M  ISO  4  39  13  40  13  41  13  42   3
M  END
>  <minimizedAffinity>  (1) 
-5.50869608

>  <minimizedRMSD>  (1) 
2.36068559

$$$$
