
     RDKit          3D

 33 34  0  0  0  0  0  0  0  0999 V2000
   43.6010   35.4030   41.3950 C   0  0  0  0  0  0  0  0  0  0  0  0
   42.5090   34.9390   40.8380 C   0  0  0  0  0  0  0  0  0  0  0  0
   44.2710   35.8820   43.7460 C   0  0  0  0  0  0  0  0  0  0  0  0
   44.1860   35.0180   42.6620 C   0  0  0  0  0  0  0  0  0  0  0  0
   44.6820   33.7340   42.7920 C   0  0  0  0  0  0  0  0  0  0  0  0
   45.2390   33.3660   43.9880 N   0  0  0  0  0  0  0  0  0  0  0  0
   45.3110   34.2250   45.0270 C   0  0  0  0  0  0  0  0  0  0  0  0
   44.8270   35.4750   44.9010 N   0  0  0  0  0  0  0  0  0  0  0  0
   41.9980   35.4110   39.5220 C   0  0  0  0  0  0  0  0  0  0  0  0
   40.5520   35.0430   39.2930 C   0  0  0  0  0  0  0  0  0  0  0  0
   40.3360   34.5720   37.8810 C   0  0  0  0  0  0  0  0  0  0  0  0
   38.9040   34.2360   37.6330 C   0  0  0  0  0  0  0  0  0  0  0  0
   38.3050   33.3600   38.7060 C   0  0  0  0  0  0  0  0  0  0  0  0
   38.5100   34.0190   40.0620 C   0  0  0  0  0  0  0  0  0  0  0  0
   40.0100   34.0660   40.3040 C   0  0  0  0  0  0  0  0  0  0  0  0
   44.1384   36.1796   40.8310 H   0  0  0  0  0  0  0  0  0  0  0  0
   41.9414   34.1613   41.3700 H   0  0  0  0  0  0  0  0  0  0  0  0
   43.8807   36.9068   43.6593 H   0  0  0  0  0  0  0  0  0  0  0  0
   44.6304   33.0238   41.9536 H   0  0  0  0  0  0  0  0  0  0  0  0
   45.7649   33.9038   45.9761 H   0  0  0  0  0  0  0  0  0  0  0  0
   42.0935   36.5060   39.4795 H   0  0  0  0  0  0  0  0  0  0  0  0
   42.5940   34.9202   38.7385 H   0  0  0  0  0  0  0  0  0  0  0  0
   39.9689   35.9637   39.4420 H   0  0  0  0  0  0  0  0  0  0  0  0
   40.6422   35.3687   37.1871 H   0  0  0  0  0  0  0  0  0  0  0  0
   40.9372   33.6645   37.7227 H   0  0  0  0  0  0  0  0  0  0  0  0
   38.3285   35.1722   37.5842 H   0  0  0  0  0  0  0  0  0  0  0  0
   38.8587   33.6738   36.6886 H   0  0  0  0  0  0  0  0  0  0  0  0
   37.2288   33.2319   38.5181 H   0  0  0  0  0  0  0  0  0  0  0  0
   38.7953   32.3754   38.6957 H   0  0  0  0  0  0  0  0  0  0  0  0
   38.0953   35.0378   40.0547 H   0  0  0  0  0  0  0  0  0  0  0  0
   37.9990   33.4554   40.8565 H   0  0  0  0  0  0  0  0  0  0  0  0
   40.4547   33.0712   40.1537 H   0  0  0  0  0  0  0  0  0  0  0  0
   40.2472   34.3715   41.3337 H   0  0  0  0  0  0  0  0  0  0  0  0
  1  4  1  0
  2  1  2  0
  3  8  2  0
  4  5  2  0
  4  3  1  0
  5  6  1  0
  6  7  2  0
  8  7  1  0
  9  2  1  0
 10  9  1  0
 10 15  1  0
 11 10  1  0
 12 11  1  0
 12 13  1  0
 13 14  1  0
 14 15  1  0
  1 16  1  0
  2 17  1  0
  3 18  1  0
  5 19  1  0
  7 20  1  0
  9 21  1  0
  9 22  1  0
 10 23  1  0
 11 24  1  0
 11 25  1  0
 12 26  1  0
 12 27  1  0
 13 28  1  0
 13 29  1  0
 14 30  1  0
 14 31  1  0
 15 32  1  0
 15 33  1  0
M  ISO  8  18  14  19  14  20  14  21   8  22   8  23  13  24  13  25  13
M  ISO  8  26  13  27  13  28  13  29  13  30  13  31  13  32  13  33  13
M  END
>  <minimizedAffinity>  (1) 
-5.29157543

>  <minimizedRMSD>  (1) 
1.64034927

$$$$
