
     RDKit          3D

 27 28  0  0  0  0  0  0  0  0999 V2000
   42.2830   35.5820   40.2050 C   0  0  0  0  0  0  0  0  0  0  0  0
   41.3130   36.2430   37.2980 Br  0  0  0  0  0  0  0  0  0  0  0  0
   40.4010   35.1670   38.5690 C   0  0  0  0  0  0  0  0  0  0  0  0
   40.9900   34.9910   39.8000 C   0  0  0  0  0  0  0  0  0  0  0  0
   40.3210   34.2050   40.7260 C   0  0  0  0  0  0  0  0  0  0  0  0
   39.1170   33.5880   40.5080 C   0  0  0  0  0  0  0  0  0  0  0  0
   38.5920   33.8160   39.2420 C   0  0  0  0  0  0  0  0  0  0  0  0
   39.1770   34.5850   38.2430 C   0  0  0  0  0  0  0  0  0  0  0  0
   43.9170   35.2950   42.0230 C   0  0  0  0  0  0  0  0  0  0  0  0
   42.7020   35.0990   41.5670 C   0  0  0  0  0  0  0  0  0  0  0  0
   44.3020   35.6480   44.4610 C   0  0  0  0  0  0  0  0  0  0  0  0
   44.4360   34.8780   43.3090 C   0  0  0  0  0  0  0  0  0  0  0  0
   45.0950   33.6660   43.4130 C   0  0  0  0  0  0  0  0  0  0  0  0
   45.5900   33.2640   44.6240 N   0  0  0  0  0  0  0  0  0  0  0  0
   45.4390   34.0450   45.7280 C   0  0  0  0  0  0  0  0  0  0  0  0
   44.7990   35.2260   45.6320 N   0  0  0  0  0  0  0  0  0  0  0  0
   42.1849   36.6774   40.2278 H   0  0  0  0  0  0  0  0  0  0  0  0
   43.0484   35.2749   39.4770 H   0  0  0  0  0  0  0  0  0  0  0  0
   40.7925   34.0663   41.7101 H   0  0  0  0  0  0  0  0  0  0  0  0
   38.6129   32.9695   41.2652 H   0  0  0  0  0  0  0  0  0  0  0  0
   37.6255   33.3451   39.0092 H   0  0  0  0  0  0  0  0  0  0  0  0
   38.7050   34.7252   37.2594 H   0  0  0  0  0  0  0  0  0  0  0  0
   44.6124   35.8310   41.3604 H   0  0  0  0  0  0  0  0  0  0  0  0
   41.9720   34.5685   42.1961 H   0  0  0  0  0  0  0  0  0  0  0  0
   43.7813   36.6156   44.4095 H   0  0  0  0  0  0  0  0  0  0  0  0
   45.2206   33.0279   42.5258 H   0  0  0  0  0  0  0  0  0  0  0  0
   45.8390   33.7123   46.6972 H   0  0  0  0  0  0  0  0  0  0  0  0
  1 10  1  0
  2  3  1  0
  3  4  2  0
  4  1  1  0
  4  5  1  0
  6  5  2  0
  7  6  1  0
  8  3  1  0
  8  7  2  0
  9 12  1  0
 10  9  2  0
 11 16  2  0
 12 13  2  0
 12 11  1  0
 13 14  1  0
 14 15  2  0
 16 15  1  0
  1 17  1  0
  1 18  1  0
  5 19  1  0
  6 20  1  0
  7 21  1  0
  8 22  1  0
  9 23  1  0
 10 24  1  0
 11 25  1  0
 13 26  1  0
 15 27  1  0
M  ISO  8  17   8  18   8  19  14  20  14  21  14  22  14  25  14  26  14
M  ISO  1  27  14
M  END
>  <minimizedAffinity>  (1) 
-5.23888493

>  <minimizedRMSD>  (1) 
1.24478126

$$$$
