
     RDKit          3D

 20 21  0  0  0  0  0  0  0  0999 V2000
   48.0080   33.8050   40.6450 C   0  0  0  0  0  0  0  0  0  0  0  0
   49.0160   33.0230   41.2210 C   0  0  0  0  0  0  0  0  0  0  0  0
   49.0100   32.8720   42.6230 C   0  0  0  0  0  0  0  0  0  0  0  0
   48.0350   33.4870   43.3230 N   0  0  0  0  0  0  0  0  0  0  0  0
   47.0750   34.2350   42.7440 C   0  0  0  0  0  0  0  0  0  0  0  0
   47.0660   34.3900   41.4170 N   0  0  0  0  0  0  0  0  0  0  0  0
   46.0110   34.9090   43.4830 C   0  0  0  0  0  0  0  0  0  0  0  0
   45.3420   34.5800   44.6530 C   0  0  0  0  0  0  0  0  0  0  0  0
   44.4470   35.6170   44.8370 C   0  0  0  0  0  0  0  0  0  0  0  0
   44.5680   36.5160   43.8400 N   0  0  0  0  0  0  0  0  0  0  0  0
   45.5170   36.0910   43.0140 N   0  0  0  0  0  0  0  0  0  0  0  0
   48.0480   33.9430   39.1590 C   0  0  0  0  0  0  0  0  0  0  0  0
   46.7950   33.7880   38.6010 F   0  0  0  0  0  0  0  0  0  0  0  0
   48.5570   35.2060   38.8640 F   0  0  0  0  0  0  0  0  0  0  0  0
   48.9440   33.0270   38.6200 F   0  0  0  0  0  0  0  0  0  0  0  0
   49.7869   32.5424   40.6008 H   0  0  0  0  0  0  0  0  0  0  0  0
   49.7781   32.2702   43.1309 H   0  0  0  0  0  0  0  0  0  0  0  0
   45.4902   33.6951   45.2894 H   0  0  0  0  0  0  0  0  0  0  0  0
   43.7390   35.6970   45.6751 H   0  0  0  0  0  0  0  0  0  0  0  0
   44.0198   37.3819   43.7368 H   0  0  0  0  0  0  0  0  0  0  0  0
  1  2  2  0
  1  6  1  0
  2  3  1  0
  3  4  2  0
  5  4  1  0
  5  7  1  0
  6  5  2  0
  7  8  1  0
  8  9  2  0
 10  9  1  0
 11  7  2  0
 11 10  1  0
 12  1  1  0
 13 12  1  0
 14 12  1  0
 15 12  1  0
  2 16  1  0
  3 17  1  0
  8 18  1  0
  9 19  1  0
 10 20  1  0
M  ISO  5  16  14  17  14  18  14  19  14  20   9
M  END
>  <minimizedAffinity>  (1) 
-4.55941248

>  <minimizedRMSD>  (1) 
2.55737782

$$$$
