
     RDKit          3D

 18 18  0  0  0  0  0  0  0  0999 V2000
   44.2970   35.7820   44.1850 C   0  0  0  0  0  0  0  0  0  0  0  0
   44.4490   34.9460   43.0890 C   0  0  0  0  0  0  0  0  0  0  0  0
   45.0670   33.7070   43.2950 C   0  0  0  0  0  0  0  0  0  0  0  0
   45.4940   33.3640   44.5430 N   0  0  0  0  0  0  0  0  0  0  0  0
   45.3240   34.2180   45.5910 C   0  0  0  0  0  0  0  0  0  0  0  0
   44.7380   35.3960   45.3980 N   0  0  0  0  0  0  0  0  0  0  0  0
   44.0150   35.2730   41.7490 C   0  0  0  0  0  0  0  0  0  0  0  0
   42.9510   34.8180   41.1320 C   0  0  0  0  0  0  0  0  0  0  0  0
   42.6100   35.2080   39.7350 C   0  0  0  0  0  0  0  0  0  0  0  0
   42.9810   33.7570   38.6990 S   0  0  0  0  0  0  0  0  0  0  0  0
   43.8149   36.7632   44.0635 H   0  0  0  0  0  0  0  0  0  0  0  0
   45.2074   33.0131   42.4531 H   0  0  0  0  0  0  0  0  0  0  0  0
   45.6710   33.9334   46.5953 H   0  0  0  0  0  0  0  0  0  0  0  0
   44.6445   35.9787   41.1872 H   0  0  0  0  0  0  0  0  0  0  0  0
   42.2859   34.1229   41.6654 H   0  0  0  0  0  0  0  0  0  0  0  0
   41.5435   35.4672   39.6608 H   0  0  0  0  0  0  0  0  0  0  0  0
   43.1847   36.0888   39.4126 H   0  0  0  0  0  0  0  0  0  0  0  0
   43.2561   32.6812   39.5015 H   0  0  0  0  0  0  0  0  0  0  0  0
  1  6  2  0
  2  3  2  0
  2  1  1  0
  3  4  1  0
  4  5  2  0
  6  5  1  0
  7  2  1  0
  8  7  2  0
  9  8  1  0
 10  9  1  0
  1 11  1  0
  3 12  1  0
  5 13  1  0
  7 14  1  0
  8 15  1  0
  9 16  1  0
  9 17  1  0
 10 18  1  0
M  ISO  6  11  14  12  14  13  14  16   8  17   8  18  11
M  END
>  <minimizedAffinity>  (1) 
-3.14733315

>  <minimizedRMSD>  (1) 
0.0867188349

$$$$
