
     RDKit          3D

 20 21  0  0  0  0  0  0  0  0999 V2000
   47.6100   34.9860   42.1520 C   0  0  0  0  0  0  0  0  0  0  0  0
   47.8290   34.1370   43.2510 C   0  0  0  0  0  0  0  0  0  0  0  0
   46.7260   33.6990   43.9950 C   0  0  0  0  0  0  0  0  0  0  0  0
   45.4930   34.1340   43.5960 N   0  0  0  0  0  0  0  0  0  0  0  0
   45.3100   34.9470   42.5380 C   0  0  0  0  0  0  0  0  0  0  0  0
   46.3630   35.3670   41.8270 N   0  0  0  0  0  0  0  0  0  0  0  0
   48.8160   35.4210   41.3980 C   0  0  0  0  0  0  0  0  0  0  0  0
   48.6110   35.4140   40.0460 F   0  0  0  0  0  0  0  0  0  0  0  0
   49.1610   36.6970   41.8420 F   0  0  0  0  0  0  0  0  0  0  0  0
   49.9090   34.6090   41.7450 F   0  0  0  0  0  0  0  0  0  0  0  0
   43.9100   35.3400   42.2200 C   0  0  0  0  0  0  0  0  0  0  0  0
   43.5530   35.3070   40.7430 C   0  0  0  0  0  0  0  0  0  0  0  0
   42.9650   34.3210   41.6870 C   0  0  0  0  0  0  0  0  0  0  0  0
   48.8478   33.8225   43.5216 H   0  0  0  0  0  0  0  0  0  0  0  0
   46.8467   33.0338   44.8627 H   0  0  0  0  0  0  0  0  0  0  0  0
   43.8574   36.0608   43.0492 H   0  0  0  0  0  0  0  0  0  0  0  0
   44.2992   34.9844   40.0020 H   0  0  0  0  0  0  0  0  0  0  0  0
   43.1517   36.0319   40.0195 H   0  0  0  0  0  0  0  0  0  0  0  0
   41.8969   34.3802   41.9431 H   0  0  0  0  0  0  0  0  0  0  0  0
   42.9184   33.2225   41.7217 H   0  0  0  0  0  0  0  0  0  0  0  0
  1  2  2  0
  2  3  1  0
  4  3  2  0
  5  4  1  0
  6  1  1  0
  6  5  2  0
  7 10  1  0
  7  9  1  0
  7  1  1  0
  8  7  1  0
 11  5  1  0
 12 13  1  0
 12 11  1  0
 13 11  1  0
  2 14  1  0
  3 15  1  0
 11 16  1  0
 12 17  1  0
 12 18  1  0
 13 19  1  0
 13 20  1  0
M  ISO  7  14  14  15  14  16  13  17  13  18  13  19  13  20  13
M  END
>  <minimizedAffinity>  (1) 
-4.40397739

>  <minimizedRMSD>  (1) 
0.876356959

$$$$
