
     RDKit          3D

 42 44  0  0  0  0  0  0  0  0999 V2000
   43.8900   35.4230   41.9020 C   0  0  0  0  0  0  0  0  0  0  0  0
   42.9230   34.9510   41.1480 C   0  0  0  0  0  0  0  0  0  0  0  0
   44.4420   35.5020   44.3310 C   0  0  0  0  0  0  0  0  0  0  0  0
   44.4130   34.8230   43.1040 C   0  0  0  0  0  0  0  0  0  0  0  0
   44.9070   33.5370   43.0740 C   0  0  0  0  0  0  0  0  0  0  0  0
   45.4070   32.9650   44.2260 N   0  0  0  0  0  0  0  0  0  0  0  0
   45.4120   33.6620   45.3800 C   0  0  0  0  0  0  0  0  0  0  0  0
   44.9380   34.9080   45.4340 N   0  0  0  0  0  0  0  0  0  0  0  0
   45.9330   33.0460   46.5520 N   0  0  0  0  0  0  0  0  0  0  0  0
   47.1800   32.3040   46.5210 C   0  0  0  0  0  0  0  0  0  0  0  0
   46.8610   30.8810   46.9080 C   0  0  0  0  0  0  0  0  0  0  0  0
   45.9380   30.7370   48.0660 C   0  0  0  0  0  0  0  0  0  0  0  0
   44.8210   31.7170   48.1470 C   0  0  0  0  0  0  0  0  0  0  0  0
   45.2250   33.1450   47.8160 C   0  0  0  0  0  0  0  0  0  0  0  0
   42.4360   35.6330   39.9130 C   0  0  0  0  0  0  0  0  0  0  0  0
   41.1020   35.0910   39.5060 C   0  0  0  0  0  0  0  0  0  0  0  0
   40.8400   34.9380   38.1420 C   0  0  0  0  0  0  0  0  0  0  0  0
   39.6110   34.4370   37.7510 C   0  0  0  0  0  0  0  0  0  0  0  0
   38.6370   34.0870   38.6840 C   0  0  0  0  0  0  0  0  0  0  0  0
   38.9010   34.2410   40.0340 C   0  0  0  0  0  0  0  0  0  0  0  0
   40.1330   34.7420   40.4270 C   0  0  0  0  0  0  0  0  0  0  0  0
   44.3466   36.3719   41.5840 H   0  0  0  0  0  0  0  0  0  0  0  0
   42.4475   34.0037   41.4424 H   0  0  0  0  0  0  0  0  0  0  0  0
   44.0558   36.5301   44.3934 H   0  0  0  0  0  0  0  0  0  0  0  0
   44.9028   32.9672   42.1331 H   0  0  0  0  0  0  0  0  0  0  0  0
   47.6104   32.3321   45.5091 H   0  0  0  0  0  0  0  0  0  0  0  0
   47.9131   32.7426   47.2139 H   0  0  0  0  0  0  0  0  0  0  0  0
   46.3999   30.3864   46.0404 H   0  0  0  0  0  0  0  0  0  0  0  0
   47.8136   30.4246   47.2151 H   0  0  0  0  0  0  0  0  0  0  0  0
   45.4973   29.7302   48.0197 H   0  0  0  0  0  0  0  0  0  0  0  0
   46.5555   30.9231   48.9571 H   0  0  0  0  0  0  0  0  0  0  0  0
   44.0370   31.4069   47.4405 H   0  0  0  0  0  0  0  0  0  0  0  0
   44.4744   31.7185   49.1910 H   0  0  0  0  0  0  0  0  0  0  0  0
   45.8827   33.5529   48.5977 H   0  0  0  0  0  0  0  0  0  0  0  0
   44.3575   33.8186   47.7547 H   0  0  0  0  0  0  0  0  0  0  0  0
   42.3443   36.7118   40.1075 H   0  0  0  0  0  0  0  0  0  0  0  0
   43.1556   35.4538   39.1005 H   0  0  0  0  0  0  0  0  0  0  0  0
   41.5974   35.2110   37.3924 H   0  0  0  0  0  0  0  0  0  0  0  0
   39.3979   34.3121   36.6791 H   0  0  0  0  0  0  0  0  0  0  0  0
   37.6663   33.6916   38.3504 H   0  0  0  0  0  0  0  0  0  0  0  0
   38.1441   33.9698   40.7847 H   0  0  0  0  0  0  0  0  0  0  0  0
   40.3442   34.8647   41.4995 H   0  0  0  0  0  0  0  0  0  0  0  0
  1  4  1  0
  2  1  2  0
  3  8  2  0
  4  3  1  0
  5  4  2  0
  5  6  1  0
  6  7  2  0
  7  8  1  0
  7  9  1  0
  9 14  1  0
 10  9  1  0
 10 11  1  0
 11 12  1  0
 12 13  1  0
 14 13  1  0
 15  2  1  0
 16 15  1  0
 16 21  1  0
 17 16  2  0
 18 17  1  0
 18 19  2  0
 19 20  1  0
 20 21  2  0
  1 22  1  0
  2 23  1  0
  3 24  1  0
  5 25  1  0
 10 26  1  0
 10 27  1  0
 11 28  1  0
 11 29  1  0
 12 30  1  0
 12 31  1  0
 13 32  1  0
 13 33  1  0
 14 34  1  0
 14 35  1  0
 15 36  1  0
 15 37  1  0
 17 38  1  0
 18 39  1  0
 19 40  1  0
 20 41  1  0
 21 42  1  0
M  ISO  8  24  14  25  14  26  13  27  13  28  13  29  13  30  13  31  13
M  ISO  8  32  13  33  13  34  13  35  13  36   8  37   8  38  14  39  14
M  ISO  3  40  14  41  14  42  14
M  END
>  <minimizedAffinity>  (1) 
-6.49198008

>  <minimizedRMSD>  (1) 
0.701726735

$$$$
