
     RDKit          3D

 37 39  0  0  0  0  0  0  0  0999 V2000
   44.7620   35.1850   44.1100 C   0  0  0  0  0  0  0  0  0  0  0  0
   44.5060   34.4930   42.9420 C   0  0  0  0  0  0  0  0  0  0  0  0
   44.7500   33.1330   42.9410 C   0  0  0  0  0  0  0  0  0  0  0  0
   45.2270   32.5380   44.0780 N   0  0  0  0  0  0  0  0  0  0  0  0
   45.4650   33.2480   45.2000 C   0  0  0  0  0  0  0  0  0  0  0  0
   45.2320   34.5660   45.2090 N   0  0  0  0  0  0  0  0  0  0  0  0
   47.8190   31.3270   44.8880 Cl  0  0  0  0  0  0  0  0  0  0  0  0
   47.0340   31.7430   46.4090 C   0  0  0  0  0  0  0  0  0  0  0  0
   45.9760   32.6280   46.4220 C   0  0  0  0  0  0  0  0  0  0  0  0
   45.4070   32.9050   47.6680 C   0  0  0  0  0  0  0  0  0  0  0  0
   45.8960   32.3140   48.8150 C   0  0  0  0  0  0  0  0  0  0  0  0
   46.9580   31.4320   48.7630 C   0  0  0  0  0  0  0  0  0  0  0  0
   47.5440   31.1370   47.5400 C   0  0  0  0  0  0  0  0  0  0  0  0
   44.0050   35.1260   41.7520 C   0  0  0  0  0  0  0  0  0  0  0  0
   42.9110   34.8070   41.0950 C   0  0  0  0  0  0  0  0  0  0  0  0
   42.4510   35.5080   39.8640 C   0  0  0  0  0  0  0  0  0  0  0  0
   41.1050   35.0250   39.4480 C   0  0  0  0  0  0  0  0  0  0  0  0
   40.8200   34.9240   38.0940 C   0  0  0  0  0  0  0  0  0  0  0  0
   39.5760   34.4760   37.6880 C   0  0  0  0  0  0  0  0  0  0  0  0
   38.6010   34.1240   38.6050 C   0  0  0  0  0  0  0  0  0  0  0  0
   38.8700   34.2190   39.9670 C   0  0  0  0  0  0  0  0  0  0  0  0
   40.1200   34.6690   40.3580 C   0  0  0  0  0  0  0  0  0  0  0  0
   44.5771   36.2689   44.1427 H   0  0  0  0  0  0  0  0  0  0  0  0
   44.5631   32.5351   42.0368 H   0  0  0  0  0  0  0  0  0  0  0  0
   44.5591   33.6026   47.7352 H   0  0  0  0  0  0  0  0  0  0  0  0
   45.4334   32.5486   49.7850 H   0  0  0  0  0  0  0  0  0  0  0  0
   47.3367   30.9666   49.6849 H   0  0  0  0  0  0  0  0  0  0  0  0
   48.3918   30.4393   47.4735 H   0  0  0  0  0  0  0  0  0  0  0  0
   44.5967   35.9618   41.3503 H   0  0  0  0  0  0  0  0  0  0  0  0
   42.3010   33.9749   41.4765 H   0  0  0  0  0  0  0  0  0  0  0  0
   42.4001   36.5887   40.0628 H   0  0  0  0  0  0  0  0  0  0  0  0
   43.1649   35.2993   39.0536 H   0  0  0  0  0  0  0  0  0  0  0  0
   41.5794   35.1988   37.3472 H   0  0  0  0  0  0  0  0  0  0  0  0
   39.3568   34.3978   36.6129 H   0  0  0  0  0  0  0  0  0  0  0  0
   37.6184   33.7709   38.2589 H   0  0  0  0  0  0  0  0  0  0  0  0
   38.1100   33.9440   40.7132 H   0  0  0  0  0  0  0  0  0  0  0  0
   40.3407   34.7473   41.4328 H   0  0  0  0  0  0  0  0  0  0  0  0
  1  6  2  0
  2  1  1  0
  3  2  2  0
  3  4  1  0
  4  5  2  0
  5  6  1  0
  5  9  1  0
  7  8  1  0
  8  9  2  0
  8 13  1  0
  9 10  1  0
 10 11  2  0
 12 11  1  0
 13 12  2  0
 14  2  1  0
 15 14  2  0
 16 15  1  0
 17 16  1  0
 17 22  1  0
 18 17  2  0
 19 18  1  0
 19 20  2  0
 20 21  1  0
 21 22  2  0
  1 23  1  0
  3 24  1  0
 10 25  1  0
 11 26  1  0
 12 27  1  0
 13 28  1  0
 14 29  1  0
 15 30  1  0
 16 31  1  0
 16 32  1  0
 18 33  1  0
 19 34  1  0
 20 35  1  0
 21 36  1  0
 22 37  1  0
M  ISO  8  23  14  24  14  25  14  26  14  27  14  28  14  31   8  32   8
M  ISO  5  33  14  34  14  35  14  36  14  37  14
M  END
>  <minimizedAffinity>  (1) 
-6.3528161

>  <minimizedRMSD>  (1) 
0.970933378

$$$$
