
     RDKit          3D

 30 31  0  0  0  0  0  0  0  0999 V2000
   41.8180   35.5700   39.5740 C   0  0  0  0  0  0  0  0  0  0  0  0
   40.5250   34.8820   39.2540 C   0  0  0  0  0  0  0  0  0  0  0  0
   40.2140   34.6800   37.9060 C   0  0  0  0  0  0  0  0  0  0  0  0
   39.0150   34.0440   37.6110 C   0  0  0  0  0  0  0  0  0  0  0  0
   38.1400   33.6130   38.6010 C   0  0  0  0  0  0  0  0  0  0  0  0
   38.4700   33.8250   39.9330 C   0  0  0  0  0  0  0  0  0  0  0  0
   39.6630   34.4580   40.2430 C   0  0  0  0  0  0  0  0  0  0  0  0
   43.4800   35.5230   41.4010 C   0  0  0  0  0  0  0  0  0  0  0  0
   42.4430   34.9860   40.7960 C   0  0  0  0  0  0  0  0  0  0  0  0
   44.3350   35.7730   43.7280 C   0  0  0  0  0  0  0  0  0  0  0  0
   44.1340   35.0070   42.5890 C   0  0  0  0  0  0  0  0  0  0  0  0
   44.5840   33.7100   42.6170 C   0  0  0  0  0  0  0  0  0  0  0  0
   45.2000   33.2230   43.7340 N   0  0  0  0  0  0  0  0  0  0  0  0
   45.3780   33.9990   44.8250 C   0  0  0  0  0  0  0  0  0  0  0  0
   44.9440   35.2610   44.8060 N   0  0  0  0  0  0  0  0  0  0  0  0
   46.0550   33.4260   46.0210 C   0  0  0  0  0  0  0  0  0  0  0  0
   41.6245   36.6394   39.7443 H   0  0  0  0  0  0  0  0  0  0  0  0
   42.5073   35.4345   38.7275 H   0  0  0  0  0  0  0  0  0  0  0  0
   40.8942   35.0127   37.1081 H   0  0  0  0  0  0  0  0  0  0  0  0
   38.7487   33.8756   36.5571 H   0  0  0  0  0  0  0  0  0  0  0  0
   37.1988   33.1107   38.3330 H   0  0  0  0  0  0  0  0  0  0  0  0
   37.7918   33.4941   40.7333 H   0  0  0  0  0  0  0  0  0  0  0  0
   39.9272   34.6253   41.2976 H   0  0  0  0  0  0  0  0  0  0  0  0
   43.8887   36.4474   40.9669 H   0  0  0  0  0  0  0  0  0  0  0  0
   42.0159   34.0613   41.2113 H   0  0  0  0  0  0  0  0  0  0  0  0
   43.9890   36.8170   43.7464 H   0  0  0  0  0  0  0  0  0  0  0  0
   44.4480   33.0624   41.7383 H   0  0  0  0  0  0  0  0  0  0  0  0
   45.5859   33.8231   46.9333 H   0  0  0  0  0  0  0  0  0  0  0  0
   45.9594   32.3303   46.0066 H   0  0  0  0  0  0  0  0  0  0  0  0
   47.1199   33.7014   46.0066 H   0  0  0  0  0  0  0  0  0  0  0  0
  1  9  1  0
  2  1  1  0
  2  7  1  0
  3  2  2  0
  4  3  1  0
  4  5  2  0
  5  6  1  0
  6  7  2  0
  8 11  1  0
  9  8  2  0
 10 15  2  0
 11 12  2  0
 11 10  1  0
 12 13  1  0
 13 14  2  0
 14 16  1  0
 15 14  1  0
  1 17  1  0
  1 18  1  0
  3 19  1  0
  4 20  1  0
  5 21  1  0
  6 22  1  0
  7 23  1  0
  8 24  1  0
  9 25  1  0
 10 26  1  0
 12 27  1  0
 16 28  1  0
 16 29  1  0
 16 30  1  0
M  ISO  8  17   8  18   8  19  14  20  14  21  14  22  14  23  14  26  14
M  ISO  4  27  14  28   8  29   8  30   8
M  END
>  <minimizedAffinity>  (1) 
-5.65662527

>  <minimizedRMSD>  (1) 
0.205593318

$$$$
