
     RDKit          3D

 33 34  0  0  0  0  0  0  0  0999 V2000
   41.8210   35.5740   39.5680 C   0  0  0  0  0  0  0  0  0  0  0  0
   40.5340   34.8900   39.2520 C   0  0  0  0  0  0  0  0  0  0  0  0
   40.1980   34.6730   37.9220 C   0  0  0  0  0  0  0  0  0  0  0  0
   39.0120   34.0410   37.6060 C   0  0  0  0  0  0  0  0  0  0  0  0
   38.1390   33.6140   38.5950 C   0  0  0  0  0  0  0  0  0  0  0  0
   38.4710   33.8290   39.9300 C   0  0  0  0  0  0  0  0  0  0  0  0
   39.6620   34.4630   40.2340 C   0  0  0  0  0  0  0  0  0  0  0  0
   43.4940   35.5300   41.3880 C   0  0  0  0  0  0  0  0  0  0  0  0
   42.4360   35.0150   40.8050 C   0  0  0  0  0  0  0  0  0  0  0  0
   44.3120   35.8050   43.7260 C   0  0  0  0  0  0  0  0  0  0  0  0
   44.1330   35.0310   42.5870 C   0  0  0  0  0  0  0  0  0  0  0  0
   44.5950   33.7310   42.6270 C   0  0  0  0  0  0  0  0  0  0  0  0
   45.2030   33.2480   43.7570 N   0  0  0  0  0  0  0  0  0  0  0  0
   45.3530   34.0450   44.8430 C   0  0  0  0  0  0  0  0  0  0  0  0
   44.9110   35.3050   44.8210 N   0  0  0  0  0  0  0  0  0  0  0  0
   46.0190   33.4420   46.0210 C   0  0  0  0  0  0  0  0  0  0  0  0
   46.9260   32.2880   45.6410 C   0  0  0  0  0  0  0  0  0  0  0  0
   41.6308   36.6474   39.7148 H   0  0  0  0  0  0  0  0  0  0  0  0
   42.5158   35.4156   38.7301 H   0  0  0  0  0  0  0  0  0  0  0  0
   40.8759   35.0042   37.1215 H   0  0  0  0  0  0  0  0  0  0  0  0
   38.7547   33.8730   36.5498 H   0  0  0  0  0  0  0  0  0  0  0  0
   37.1970   33.1123   38.3286 H   0  0  0  0  0  0  0  0  0  0  0  0
   37.7949   33.4989   40.7324 H   0  0  0  0  0  0  0  0  0  0  0  0
   39.9224   34.6321   41.2893 H   0  0  0  0  0  0  0  0  0  0  0  0
   43.9355   36.4233   40.9220 H   0  0  0  0  0  0  0  0  0  0  0  0
   41.9783   34.1215   41.2546 H   0  0  0  0  0  0  0  0  0  0  0  0
   43.9572   36.8462   43.7325 H   0  0  0  0  0  0  0  0  0  0  0  0
   44.4749   33.0798   41.7487 H   0  0  0  0  0  0  0  0  0  0  0  0
   46.6208   34.2150   46.5214 H   0  0  0  0  0  0  0  0  0  0  0  0
   45.2358   33.0495   46.6862 H   0  0  0  0  0  0  0  0  0  0  0  0
   47.3060   31.8046   46.5531 H   0  0  0  0  0  0  0  0  0  0  0  0
   46.3589   31.5561   45.0471 H   0  0  0  0  0  0  0  0  0  0  0  0
   47.7712   32.6661   45.0471 H   0  0  0  0  0  0  0  0  0  0  0  0
  1  9  1  0
  2  1  1  0
  2  7  1  0
  3  2  2  0
  4  3  1  0
  4  5  2  0
  5  6  1  0
  6  7  2  0
  8 11  1  0
  9  8  2  0
 10 15  2  0
 11 12  2  0
 11 10  1  0
 12 13  1  0
 13 14  2  0
 14 16  1  0
 15 14  1  0
 17 16  1  0
  1 18  1  0
  1 19  1  0
  3 20  1  0
  4 21  1  0
  5 22  1  0
  6 23  1  0
  7 24  1  0
  8 25  1  0
  9 26  1  0
 10 27  1  0
 12 28  1  0
 16 29  1  0
 16 30  1  0
 17 31  1  0
 17 32  1  0
 17 33  1  0
M  ISO  8  18   8  19   8  20  14  21  14  22  14  23  14  24  14  27  14
M  ISO  6  28  14  29   8  30   8  31   8  32   8  33   8
M  END
>  <minimizedAffinity>  (1) 
-5.64337015

>  <minimizedRMSD>  (1) 
0.481185377

$$$$
