
     RDKit          3D

 29 30  0  0  0  0  0  0  0  0999 V2000
   41.8530   35.5570   39.5690 C   0  0  0  0  0  0  0  0  0  0  0  0
   40.5650   34.8880   39.2590 C   0  0  0  0  0  0  0  0  0  0  0  0
   40.2280   34.6690   37.9330 C   0  0  0  0  0  0  0  0  0  0  0  0
   39.0270   34.0440   37.6190 C   0  0  0  0  0  0  0  0  0  0  0  0
   38.1450   33.6280   38.6250 C   0  0  0  0  0  0  0  0  0  0  0  0
   38.4860   33.8490   39.9430 C   0  0  0  0  0  0  0  0  0  0  0  0
   39.6870   34.4730   40.2440 C   0  0  0  0  0  0  0  0  0  0  0  0
   43.5010   35.5250   41.4270 C   0  0  0  0  0  0  0  0  0  0  0  0
   42.4870   34.9800   40.7880 C   0  0  0  0  0  0  0  0  0  0  0  0
   44.3450   35.7690   43.7470 C   0  0  0  0  0  0  0  0  0  0  0  0
   44.1500   35.0040   42.6140 C   0  0  0  0  0  0  0  0  0  0  0  0
   44.5930   33.7020   42.6190 C   0  0  0  0  0  0  0  0  0  0  0  0
   45.2060   33.2190   43.7450 N   0  0  0  0  0  0  0  0  0  0  0  0
   45.3860   33.9870   44.8470 C   0  0  0  0  0  0  0  0  0  0  0  0
   44.9490   35.2670   44.8340 N   0  0  0  0  0  0  0  0  0  0  0  0
   46.0500   33.4220   46.0280 C   0  0  0  0  0  0  0  0  0  0  0  0
   45.2710   33.2590   47.0270 O   0  0  0  0  0  0  0  0  0  0  0  0
   41.6686   36.6287   39.7349 H   0  0  0  0  0  0  0  0  0  0  0  0
   42.5350   35.4046   38.7195 H   0  0  0  0  0  0  0  0  0  0  0  0
   40.9093   34.9890   37.1308 H   0  0  0  0  0  0  0  0  0  0  0  0
   38.7649   33.8733   36.5644 H   0  0  0  0  0  0  0  0  0  0  0  0
   37.1966   33.1335   38.3680 H   0  0  0  0  0  0  0  0  0  0  0  0
   37.8094   33.5322   40.7503 H   0  0  0  0  0  0  0  0  0  0  0  0
   39.9497   34.6433   41.2985 H   0  0  0  0  0  0  0  0  0  0  0  0
   43.8943   36.4683   41.0202 H   0  0  0  0  0  0  0  0  0  0  0  0
   42.0808   34.0359   41.1800 H   0  0  0  0  0  0  0  0  0  0  0  0
   43.9974   36.8126   43.7581 H   0  0  0  0  0  0  0  0  0  0  0  0
   44.4577   33.0606   41.7357 H   0  0  0  0  0  0  0  0  0  0  0  0
   47.1189   33.1631   46.0505 H   0  0  0  0  0  0  0  0  0  0  0  0
  1  9  1  0
  2  1  1  0
  2  7  1  0
  3  2  2  0
  4  3  1  0
  4  5  2  0
  5  6  1  0
  6  7  2  0
  8 11  1  0
  9  8  2  0
 10 15  2  0
 11 12  2  0
 11 10  1  0
 12 13  1  0
 13 14  2  0
 14 16  1  0
 15 14  1  0
 16 17  2  0
  1 18  1  0
  1 19  1  0
  3 20  1  0
  4 21  1  0
  5 22  1  0
  6 23  1  0
  7 24  1  0
  8 25  1  0
  9 26  1  0
 10 27  1  0
 12 28  1  0
 16 29  1  0
M  ISO  8  18   8  19   8  20  14  21  14  22  14  23  14  24  14  27  14
M  ISO  2  28  14  29   6
M  END
>  <minimizedAffinity>  (1) 
-5.61983204

>  <minimizedRMSD>  (1) 
0.454171866

$$$$
