
     RDKit          3D

 15 15  0  0  0  0  0  0  0  0999 V2000
   47.8650   34.8020   42.3970 C   0  0  0  0  0  0  0  0  0  0  0  0
   48.1780   33.6270   43.1020 C   0  0  0  0  0  0  0  0  0  0  0  0
   47.2560   33.1340   44.0260 C   0  0  0  0  0  0  0  0  0  0  0  0
   46.1030   33.8300   44.1840 N   0  0  0  0  0  0  0  0  0  0  0  0
   45.8250   34.9480   43.5010 C   0  0  0  0  0  0  0  0  0  0  0  0
   46.6910   35.4490   42.6050 N   0  0  0  0  0  0  0  0  0  0  0  0
   48.8830   35.2960   41.4180 C   0  0  0  0  0  0  0  0  0  0  0  0
   48.4330   35.2110   40.1330 F   0  0  0  0  0  0  0  0  0  0  0  0
   49.2080   36.6080   41.7750 F   0  0  0  0  0  0  0  0  0  0  0  0
   50.0600   34.5530   41.5730 F   0  0  0  0  0  0  0  0  0  0  0  0
   44.5550   35.6310   43.7390 C   0  0  0  0  0  0  0  0  0  0  0  0
   44.2850   36.0290   44.9060 O   0  0  0  0  0  0  0  0  0  0  0  0
   49.1313   33.1062   42.9287 H   0  0  0  0  0  0  0  0  0  0  0  0
   47.4561   32.2187   44.6024 H   0  0  0  0  0  0  0  0  0  0  0  0
   43.8458   35.7956   42.9144 H   0  0  0  0  0  0  0  0  0  0  0  0
  1  6  2  0
  1  2  1  0
  2  3  2  0
  3  4  1  0
  5 11  1  0
  5  4  2  0
  6  5  1  0
  7 10  1  0
  7  9  1  0
  7  1  1  0
  8  7  1  0
 11 12  2  0
  2 13  1  0
  3 14  1  0
 11 15  1  0
M  ISO  3  13  14  14  14  15   6
M  END
>  <minimizedAffinity>  (1) 
-4.22566366

>  <minimizedRMSD>  (1) 
0.540710926

$$$$
