
     RDKit          3D

 41 44  0  0  0  0  0  0  0  0999 V2000
   39.8470   35.0840   39.9890 C   0  0  0  0  0  0  0  0  0  0  0  0
   39.3010   34.0110   39.1300 C   0  0  0  0  0  0  0  0  0  0  0  0
   38.5550   34.3230   38.0210 C   0  0  0  0  0  0  0  0  0  0  0  0
   38.0630   33.3650   37.1450 C   0  0  0  0  0  0  0  0  0  0  0  0
   38.3300   32.0320   37.3880 C   0  0  0  0  0  0  0  0  0  0  0  0
   39.0890   31.7070   38.5160 C   0  0  0  0  0  0  0  0  0  0  0  0
   39.5640   32.7040   39.3750 C   0  0  0  0  0  0  0  0  0  0  0  0
   40.2010   32.0930   40.5430 C   0  0  0  0  0  0  0  0  0  0  0  0
   39.7040   31.9250   41.9200 C   0  0  0  0  0  0  0  0  0  0  0  0
   40.5530   31.2230   42.7080 C   0  0  0  0  0  0  0  0  0  0  0  0
   41.7580   30.6890   42.3550 C   0  0  0  0  0  0  0  0  0  0  0  0
   41.7500   31.2590   40.5520 S   0  0  0  0  0  0  0  0  0  0  0  0
   41.9500   35.0750   41.2940 C   0  0  0  0  0  0  0  0  0  0  0  0
   41.3390   34.9930   40.1240 C   0  0  0  0  0  0  0  0  0  0  0  0
   44.0310   35.5710   42.5800 C   0  0  0  0  0  0  0  0  0  0  0  0
   43.3760   34.9790   41.4760 C   0  0  0  0  0  0  0  0  0  0  0  0
   44.1560   34.2960   40.5680 C   0  0  0  0  0  0  0  0  0  0  0  0
   45.5130   34.2160   40.7590 N   0  0  0  0  0  0  0  0  0  0  0  0
   46.0930   34.8060   41.8400 C   0  0  0  0  0  0  0  0  0  0  0  0
   45.3660   35.4730   42.7380 N   0  0  0  0  0  0  0  0  0  0  0  0
   47.5230   34.7240   42.0570 C   0  0  0  0  0  0  0  0  0  0  0  0
   48.4860   35.6290   41.8760 C   0  0  0  0  0  0  0  0  0  0  0  0
   49.7910   35.3420   42.1550 C   0  0  0  0  0  0  0  0  0  0  0  0
   50.0200   34.0210   42.6450 C   0  0  0  0  0  0  0  0  0  0  0  0
   48.3300   33.2620   42.6730 S   0  0  0  0  0  0  0  0  0  0  0  0
   39.3946   35.0034   40.9884 H   0  0  0  0  0  0  0  0  0  0  0  0
   39.6070   36.0495   39.5198 H   0  0  0  0  0  0  0  0  0  0  0  0
   38.3368   35.3816   37.8168 H   0  0  0  0  0  0  0  0  0  0  0  0
   37.4684   33.6637   36.2690 H   0  0  0  0  0  0  0  0  0  0  0  0
   37.9560   31.2481   36.7130 H   0  0  0  0  0  0  0  0  0  0  0  0
   39.3160   30.6524   38.7313 H   0  0  0  0  0  0  0  0  0  0  0  0
   38.7428   32.3281   42.2716 H   0  0  0  0  0  0  0  0  0  0  0  0
   40.2354   31.0657   43.7494 H   0  0  0  0  0  0  0  0  0  0  0  0
   42.4958   30.1129   42.9327 H   0  0  0  0  0  0  0  0  0  0  0  0
   41.3277   35.2267   42.1883 H   0  0  0  0  0  0  0  0  0  0  0  0
   41.9460   34.8531   39.2174 H   0  0  0  0  0  0  0  0  0  0  0  0
   43.4392   36.1228   43.3252 H   0  0  0  0  0  0  0  0  0  0  0  0
   43.6927   33.8165   39.6931 H   0  0  0  0  0  0  0  0  0  0  0  0
   48.2233   36.6266   41.4942 H   0  0  0  0  0  0  0  0  0  0  0  0
   50.6023   36.0712   42.0134 H   0  0  0  0  0  0  0  0  0  0  0  0
   50.9757   33.5614   42.9374 H   0  0  0  0  0  0  0  0  0  0  0  0
  1 14  1  0
  2  7  1  0
  2  1  1  0
  3  2  2  0
  4  5  2  0
  4  3  1  0
  5  6  1  0
  6  7  2  0
  7  8  1  0
  8 12  1  0
  8  9  2  0
  9 10  1  0
 11 10  2  0
 12 11  1  0
 13 16  1  0
 14 13  2  0
 15 20  2  0
 16 15  1  0
 17 18  1  0
 17 16  2  0
 18 19  2  0
 19 21  1  0
 19 20  1  0
 21 25  1  0
 22 21  2  0
 22 23  1  0
 23 24  2  0
 24 25  1  0
  1 26  1  0
  1 27  1  0
  3 28  1  0
  4 29  1  0
  5 30  1  0
  6 31  1  0
  9 32  1  0
 10 33  1  0
 11 34  1  0
 13 35  1  0
 14 36  1  0
 15 37  1  0
 17 38  1  0
 22 39  1  0
 23 40  1  0
 24 41  1  0
M  ISO  8  26   8  27   8  28  14  29  14  30  14  31  14  32  14  33  14
M  ISO  6  34  14  37  14  38  14  39  14  40  14  41  14
M  END
>  <minimizedAffinity>  (1) 
-6.63194799

>  <minimizedRMSD>  (1) 
4.49518681

$$$$
