
     RDKit          3D

 35 37  0  0  0  0  0  0  0  0999 V2000
   44.3910   35.2350   42.3110 C   0  0  0  0  0  0  0  0  0  0  0  0
   43.4520   34.8540   41.4810 C   0  0  0  0  0  0  0  0  0  0  0  0
   44.7360   35.1480   44.7810 C   0  0  0  0  0  0  0  0  0  0  0  0
   44.7940   34.5410   43.5060 C   0  0  0  0  0  0  0  0  0  0  0  0
   45.2610   33.2240   43.4350 C   0  0  0  0  0  0  0  0  0  0  0  0
   45.6420   32.5730   44.5820 N   0  0  0  0  0  0  0  0  0  0  0  0
   45.5640   33.2080   45.7760 C   0  0  0  0  0  0  0  0  0  0  0  0
   45.1190   34.4750   45.8840 N   0  0  0  0  0  0  0  0  0  0  0  0
   45.9560   32.5490   47.0020 C   0  0  0  0  0  0  0  0  0  0  0  0
   45.4100   32.5330   48.2160 C   0  0  0  0  0  0  0  0  0  0  0  0
   45.9340   31.8460   49.2380 C   0  0  0  0  0  0  0  0  0  0  0  0
   47.1450   31.1190   48.9270 C   0  0  0  0  0  0  0  0  0  0  0  0
   47.3990   31.5250   47.1160 S   0  0  0  0  0  0  0  0  0  0  0  0
   43.0680   35.6080   40.2500 C   0  0  0  0  0  0  0  0  0  0  0  0
   41.7120   35.2020   39.7650 C   0  0  0  0  0  0  0  0  0  0  0  0
   41.4970   35.0120   38.4150 C   0  0  0  0  0  0  0  0  0  0  0  0
   40.2610   34.6370   37.9350 C   0  0  0  0  0  0  0  0  0  0  0  0
   39.2060   34.4440   38.8090 C   0  0  0  0  0  0  0  0  0  0  0  0
   39.4140   34.6340   40.1640 C   0  0  0  0  0  0  0  0  0  0  0  0
   40.6490   35.0070   40.6360 C   0  0  0  0  0  0  0  0  0  0  0  0
   40.8670   35.1960   41.9780 O   0  0  0  0  0  0  0  0  0  0  0  0
   44.9195   36.1700   42.0733 H   0  0  0  0  0  0  0  0  0  0  0  0
   42.9131   33.9214   41.7042 H   0  0  0  0  0  0  0  0  0  0  0  0
   44.3738   36.1825   44.8742 H   0  0  0  0  0  0  0  0  0  0  0  0
   45.3227   32.7120   42.4634 H   0  0  0  0  0  0  0  0  0  0  0  0
   44.4886   33.1092   48.3864 H   0  0  0  0  0  0  0  0  0  0  0  0
   45.4781   31.8351   50.2390 H   0  0  0  0  0  0  0  0  0  0  0  0
   47.7600   30.4885   49.5859 H   0  0  0  0  0  0  0  0  0  0  0  0
   43.0600   36.6843   40.4769 H   0  0  0  0  0  0  0  0  0  0  0  0
   43.8009   35.3820   39.4615 H   0  0  0  0  0  0  0  0  0  0  0  0
   42.3274   35.1627   37.7094 H   0  0  0  0  0  0  0  0  0  0  0  0
   40.1128   34.4908   36.8549 H   0  0  0  0  0  0  0  0  0  0  0  0
   38.2169   34.1441   38.4326 H   0  0  0  0  0  0  0  0  0  0  0  0
   38.5831   34.4850   40.8692 H   0  0  0  0  0  0  0  0  0  0  0  0
   40.1276   35.0642   42.6230 H   0  0  0  0  0  0  0  0  0  0  0  0
  1  4  1  0
  2  1  2  0
  3  8  2  0
  4  3  1  0
  5  4  2  0
  5  6  1  0
  6  7  2  0
  7  8  1  0
  7  9  1  0
  9 13  1  0
  9 10  2  0
 10 11  1  0
 12 11  2  0
 13 12  1  0
 14  2  1  0
 15 14  1  0
 15 20  1  0
 16 15  2  0
 17 16  1  0
 17 18  2  0
 18 19  1  0
 19 20  2  0
 20 21  1  0
  1 22  1  0
  2 23  1  0
  3 24  1  0
  5 25  1  0
 10 26  1  0
 11 27  1  0
 12 28  1  0
 14 29  1  0
 14 30  1  0
 16 31  1  0
 17 32  1  0
 18 33  1  0
 19 34  1  0
 21 35  1  0
M  ISO  8  24  14  25  14  26  14  27  14  28  14  29   8  30   8  31  14
M  ISO  4  32  14  33  14  34  14  35   3
M  END
>  <minimizedAffinity>  (1) 
-6.26998901

>  <minimizedRMSD>  (1) 
0.144775286

$$$$
