
     RDKit          3D

 38 40  0  0  0  0  0  0  0  0999 V2000
   44.2720   35.4090   42.2700 C   0  0  0  0  0  0  0  0  0  0  0  0
   43.3060   35.0280   41.4480 C   0  0  0  0  0  0  0  0  0  0  0  0
   44.6480   35.2630   44.7130 C   0  0  0  0  0  0  0  0  0  0  0  0
   44.6930   34.6690   43.4330 C   0  0  0  0  0  0  0  0  0  0  0  0
   45.1480   33.3680   43.3610 C   0  0  0  0  0  0  0  0  0  0  0  0
   45.5310   32.7100   44.4990 N   0  0  0  0  0  0  0  0  0  0  0  0
   45.4720   33.3100   45.6910 C   0  0  0  0  0  0  0  0  0  0  0  0
   45.0330   34.5850   45.8130 N   0  0  0  0  0  0  0  0  0  0  0  0
   45.8690   32.6370   46.9100 C   0  0  0  0  0  0  0  0  0  0  0  0
   45.3090   32.6150   48.1210 C   0  0  0  0  0  0  0  0  0  0  0  0
   45.8690   31.8970   49.1370 C   0  0  0  0  0  0  0  0  0  0  0  0
   47.0700   31.1950   48.7980 C   0  0  0  0  0  0  0  0  0  0  0  0
   47.3230   31.6200   47.0110 S   0  0  0  0  0  0  0  0  0  0  0  0
   42.8970   35.8220   40.2530 C   0  0  0  0  0  0  0  0  0  0  0  0
   41.6180   35.3260   39.6720 C   0  0  0  0  0  0  0  0  0  0  0  0
   41.4880   35.1880   38.2990 C   0  0  0  0  0  0  0  0  0  0  0  0
   40.2970   34.7260   37.7550 C   0  0  0  0  0  0  0  0  0  0  0  0
   39.2210   34.3930   38.5580 C   0  0  0  0  0  0  0  0  0  0  0  0
   39.3560   34.5320   39.9330 C   0  0  0  0  0  0  0  0  0  0  0  0
   40.5490   34.9950   40.4720 C   0  0  0  0  0  0  0  0  0  0  0  0
   40.1560   33.8900   42.4780 C   0  0  0  0  0  0  0  0  0  0  0  0
   39.7840   32.8520   41.8640 O   0  0  0  0  0  0  0  0  0  0  0  0
   40.5890   35.1030   41.8750 N   0  0  0  0  0  0  0  0  0  0  0  0
   44.7884   36.3550   42.0501 H   0  0  0  0  0  0  0  0  0  0  0  0
   42.7816   34.0836   41.6557 H   0  0  0  0  0  0  0  0  0  0  0  0
   44.2920   36.2988   44.8148 H   0  0  0  0  0  0  0  0  0  0  0  0
   45.2030   32.8588   42.3875 H   0  0  0  0  0  0  0  0  0  0  0  0
   44.3845   33.1828   48.3024 H   0  0  0  0  0  0  0  0  0  0  0  0
   45.4293   31.8601   50.1446 H   0  0  0  0  0  0  0  0  0  0  0  0
   47.6927   30.5571   49.4425 H   0  0  0  0  0  0  0  0  0  0  0  0
   42.7692   36.8733   40.5504 H   0  0  0  0  0  0  0  0  0  0  0  0
   43.6822   35.7205   39.4893 H   0  0  0  0  0  0  0  0  0  0  0  0
   42.3298   35.4449   37.6392 H   0  0  0  0  0  0  0  0  0  0  0  0
   40.2073   34.6227   36.6635 H   0  0  0  0  0  0  0  0  0  0  0  0
   38.2815   34.0271   38.1181 H   0  0  0  0  0  0  0  0  0  0  0  0
   38.5168   34.2750   40.5961 H   0  0  0  0  0  0  0  0  0  0  0  0
   40.1443   33.8532   43.5773 H   0  0  0  0  0  0  0  0  0  0  0  0
   40.8894   35.9419   42.3917 H   0  0  0  0  0  0  0  0  0  0  0  0
  1  4  1  0
  2  1  2  0
  3  8  2  0
  4  3  1  0
  5  4  2  0
  5  6  1  0
  6  7  2  0
  7  8  1  0
  7  9  1  0
  9 13  1  0
  9 10  2  0
 10 11  1  0
 12 11  2  0
 13 12  1  0
 14  2  1  0
 15 14  1  0
 15 20  1  0
 16 15  2  0
 17 16  1  0
 17 18  2  0
 18 19  1  0
 19 20  2  0
 20 23  1  0
 22 21  2  0
 23 21  1  0
  1 24  1  0
  2 25  1  0
  3 26  1  0
  5 27  1  0
 10 28  1  0
 11 29  1  0
 12 30  1  0
 14 31  1  0
 14 32  1  0
 16 33  1  0
 17 34  1  0
 18 35  1  0
 19 36  1  0
 21 37  1  0
 23 38  1  0
M  ISO  8  26  14  27  14  28  14  29  14  30  14  31   8  32   8  33  14
M  ISO  4  34  14  35  14  36  14  37   6
M  END
>  <minimizedAffinity>  (1) 
-6.03229046

>  <minimizedRMSD>  (1) 
0.528096437

$$$$
