
     RDKit          3D

 31 33  0  0  1  0  0  0  0  0999 V2000
   42.5170   33.1910   40.6660 C   0  0  0  0  0  0  0  0  0  0  0  0
   41.5160   33.5560   39.8840 C   0  0  0  0  0  0  0  0  0  0  0  0
   40.2300   32.9810   40.1040 N   0  0  0  0  0  0  0  0  0  0  0  0
   38.8360   33.2260   40.2530 C   0  0  0  0  0  0  0  0  0  0  0  0
   37.9960   34.1300   39.9200 O   0  0  0  0  0  0  0  0  0  0  0  0
   38.7100   31.9450   40.9960 C   0  0  0  0  0  0  0  0  0  0  0  0
   39.9640   31.5520   40.2750 C   0  0  2  0  0  0  0  0  0  0  0  0
   41.2660   30.8440   41.2780 S   0  0  0  0  0  0  0  0  0  0  0  0
   42.3550   32.2380   41.7700 C   0  0  0  0  0  0  0  0  0  0  0  0
   41.6510   34.5220   38.7710 C   0  0  0  0  0  0  0  0  0  0  0  0
   42.2980   35.5520   38.4670 O   0  0  0  0  0  0  0  0  0  0  0  0
   40.9840   34.5300   37.5940 O   0  0  0  0  0  0  0  0  0  0  0  0
   43.8940   33.6950   40.5360 C   0  0  0  0  0  0  0  0  0  0  0  0
   44.1440   35.2320   41.4770 S   0  0  0  0  0  0  0  0  0  0  0  0
   44.3250   35.6560   44.2060 C   0  0  0  0  0  0  0  0  0  0  0  0
   44.6280   34.7890   43.1460 C   0  0  0  0  0  0  0  0  0  0  0  0
   45.2970   33.6030   43.4090 C   0  0  0  0  0  0  0  0  0  0  0  0
   45.6310   33.3380   44.7000 N   0  0  0  0  0  0  0  0  0  0  0  0
   45.3320   34.1820   45.7030 C   0  0  0  0  0  0  0  0  0  0  0  0
   44.6860   35.3380   45.4850 N   0  0  0  0  0  0  0  0  0  0  0  0
   38.8047   32.0267   42.0889 H   0  0  0  0  0  0  0  0  0  0  0  0
   37.7958   31.3334   40.9846 H   0  0  0  0  0  0  0  0  0  0  0  0
   39.9002   30.8122   39.4635 H   0  0  0  0  0  0  0  0  0  0  0  0
   43.3418   31.8420   42.0516 H   0  0  0  0  0  0  0  0  0  0  0  0
   41.8937   32.7609   42.6207 H   0  0  0  0  0  0  0  0  0  0  0  0
   41.1671   35.2374   36.9261 H   0  0  0  0  0  0  0  0  0  0  0  0
   44.5898   32.9304   40.9119 H   0  0  0  0  0  0  0  0  0  0  0  0
   44.0796   33.9111   39.4735 H   0  0  0  0  0  0  0  0  0  0  0  0
   43.7933   36.5981   44.0065 H   0  0  0  0  0  0  0  0  0  0  0  0
   45.5488   32.9007   42.6007 H   0  0  0  0  0  0  0  0  0  0  0  0
   45.6247   33.9179   46.7299 H   0  0  0  0  0  0  0  0  0  0  0  0
  1  9  1  0
  2  3  1  0
  2  1  2  0
  3  4  1  0
  3  7  1  0
  4  6  1  0
  5  4  2  0
  7  6  1  0
  7  8  1  0
  8  9  1  0
 10  2  1  0
 11 10  2  0
 12 10  1  0
 13  1  1  0
 13 14  1  0
 14 16  1  0
 15 20  2  0
 16 17  2  0
 16 15  1  0
 17 18  1  0
 18 19  2  0
 20 19  1  0
  6 21  1  0
  6 22  1  0
  7 23  1  6
  9 24  1  0
  9 25  1  0
 12 26  1  0
 13 27  1  0
 13 28  1  0
 15 29  1  0
 17 30  1  0
 19 31  1  0
M  ISO  8  21  13  22  13  23  13  24  13  25  13  26   3  27   8  28   8
M  ISO  3  29  14  30  14  31  14
M  END
>  <minimizedAffinity>  (1) 
-4.88973808

>  <minimizedRMSD>  (1) 
1.46427417

$$$$
