
     RDKit          3D

 21 22  0  0  0  0  0  0  0  0999 V2000
   43.1390   33.6030   38.3480 Cl  0  0  0  0  0  0  0  0  0  0  0  0
   42.1550   34.5100   39.4850 C   0  0  0  0  0  0  0  0  0  0  0  0
   42.6450   34.9710   40.6930 C   0  0  0  0  0  0  0  0  0  0  0  0
   41.7930   35.6840   41.5370 C   0  0  0  0  0  0  0  0  0  0  0  0
   40.4830   35.9270   41.1750 C   0  0  0  0  0  0  0  0  0  0  0  0
   39.9820   35.4700   39.9670 C   0  0  0  0  0  0  0  0  0  0  0  0
   40.8360   34.7660   39.1410 C   0  0  0  0  0  0  0  0  0  0  0  0
   40.1170   34.2280   37.6370 Cl  0  0  0  0  0  0  0  0  0  0  0  0
   44.3530   34.5920   41.0470 S   0  0  0  0  0  0  0  0  0  0  0  0
   44.4430   35.7550   43.5730 C   0  0  0  0  0  0  0  0  0  0  0  0
   44.6630   34.5790   42.8080 C   0  0  0  0  0  0  0  0  0  0  0  0
   45.1170   33.4450   43.4670 C   0  0  0  0  0  0  0  0  0  0  0  0
   45.3350   33.4950   44.8070 N   0  0  0  0  0  0  0  0  0  0  0  0
   45.1150   34.6350   45.5050 C   0  0  0  0  0  0  0  0  0  0  0  0
   44.6790   35.7420   44.9020 N   0  0  0  0  0  0  0  0  0  0  0  0
   42.1690   36.0566   42.5013 H   0  0  0  0  0  0  0  0  0  0  0  0
   39.8281   36.4913   41.8552 H   0  0  0  0  0  0  0  0  0  0  0  0
   38.9388   35.6615   39.6754 H   0  0  0  0  0  0  0  0  0  0  0  0
   44.0820   36.6723   43.0848 H   0  0  0  0  0  0  0  0  0  0  0  0
   45.2986   32.5143   42.9094 H   0  0  0  0  0  0  0  0  0  0  0  0
   45.2994   34.6480   46.5894 H   0  0  0  0  0  0  0  0  0  0  0  0
  1  2  1  0
  2  3  2  0
  3  9  1  0
  3  4  1  0
  5  4  2  0
  6  5  1  0
  7  2  1  0
  7  6  2  0
  8  7  1  0
  9 11  1  0
 10 15  2  0
 11 12  2  0
 11 10  1  0
 12 13  1  0
 13 14  2  0
 15 14  1  0
  4 16  1  0
  5 17  1  0
  6 18  1  0
 10 19  1  0
 12 20  1  0
 14 21  1  0
M  ISO  6  16  14  17  14  18  14  19  14  20  14  21  14
M  END
>  <minimizedAffinity>  (1) 
-4.76339531

>  <minimizedRMSD>  (1) 
0.972769618

$$$$
