
     RDKit          3D

 28 29  0  0  0  0  0  0  0  0999 V2000
   44.8140   32.7420   41.4830 Br  0  0  0  0  0  0  0  0  0  0  0  0
   46.3950   33.7660   41.1760 C   0  0  0  0  0  0  0  0  0  0  0  0
   46.8490   34.6450   42.1140 C   0  0  0  0  0  0  0  0  0  0  0  0
   48.0040   35.4260   41.9200 C   0  0  0  0  0  0  0  0  0  0  0  0
   48.6670   35.2680   40.7350 C   0  0  0  0  0  0  0  0  0  0  0  0
   48.1810   34.3670   39.8030 C   0  0  0  0  0  0  0  0  0  0  0  0
   47.0750   33.6160   39.9800 C   0  0  0  0  0  0  0  0  0  0  0  0
   45.6250   33.9890   45.5080 C   0  0  0  0  0  0  0  0  0  0  0  0
   44.6880   35.0060   45.7330 C   0  0  0  0  0  0  0  0  0  0  0  0
   44.4900   35.9140   44.6950 C   0  0  0  0  0  0  0  0  0  0  0  0
   45.2030   35.7610   43.5530 N   0  0  0  0  0  0  0  0  0  0  0  0
   46.1010   34.7690   43.3650 C   0  0  0  0  0  0  0  0  0  0  0  0
   46.3100   33.8730   44.3630 N   0  0  0  0  0  0  0  0  0  0  0  0
   46.5850   32.7030   39.0320 N   0  0  0  0  0  0  0  0  0  0  0  0
   45.7190   32.9460   37.5970 S   0  0  0  0  0  0  0  0  0  0  0  0
   45.8130   31.6990   36.7270 O   0  0  0  0  0  0  0  0  0  0  0  0
   44.2810   33.2620   37.7640 O   0  0  0  0  0  0  0  0  0  0  0  0
   46.5110   34.1470   36.6900 O   0  0  0  0  0  0  0  0  0  0  0  0
   48.3569   36.1312   42.6869 H   0  0  0  0  0  0  0  0  0  0  0  0
   49.5763   35.8501   40.5244 H   0  0  0  0  0  0  0  0  0  0  0  0
   48.7323   34.2566   38.8576 H   0  0  0  0  0  0  0  0  0  0  0  0
   45.8059   33.2541   46.3062 H   0  0  0  0  0  0  0  0  0  0  0  0
   44.1364   35.0837   46.6815 H   0  0  0  0  0  0  0  0  0  0  0  0
   43.7694   36.7384   44.8004 H   0  0  0  0  0  0  0  0  0  0  0  0
   46.7870   31.7160   39.2463 H   0  0  0  0  0  0  0  0  0  0  0  0
   45.8734   30.8973   37.3047 H   0  0  0  0  0  0  0  0  0  0  0  0
   44.0635   33.3098   38.7286 H   0  0  0  0  0  0  0  0  0  0  0  0
   46.9387   34.7956   37.3036 H   0  0  0  0  0  0  0  0  0  0  0  0
  2  1  1  0
  2  3  2  0
  3 12  1  0
  4  3  1  0
  5  4  2  0
  6  7  2  0
  6  5  1  0
  7  2  1  0
  8  9  2  0
 10  9  1  0
 11 10  2  0
 12 11  1  0
 12 13  2  0
 13  8  1  0
 14  7  1  0
 15 17  1  0
 15 14  1  0
 16 15  1  0
 18 15  1  0
  4 19  1  0
  5 20  1  0
  6 21  1  0
  8 22  1  0
  9 23  1  0
 10 24  1  0
 14 25  1  0
 16 26  1  0
 17 27  1  0
 18 28  1  0
M  ISO  8  19  14  20  14  21  14  22  14  23  14  24  14  26   3  27   3
M  ISO  1  28   3
M  END
>  <minimizedAffinity>  (1) 
-5.4380126

>  <minimizedRMSD>  (1) 
0.815454662

$$$$
