
     RDKit          3D

 14 14  0  0  0  0  0  0  0  0999 V2000
   45.2620   35.8720   42.9270 C   0  0  0  0  0  0  0  0  0  0  0  0
   46.0690   34.7140   42.7960 C   0  0  0  0  0  0  0  0  0  0  0  0
   46.2200   33.8590   43.8780 C   0  0  0  0  0  0  0  0  0  0  0  0
   45.5770   34.1750   45.0340 N   0  0  0  0  0  0  0  0  0  0  0  0
   44.8120   35.2890   45.1240 C   0  0  0  0  0  0  0  0  0  0  0  0
   44.6520   36.1260   44.1010 N   0  0  0  0  0  0  0  0  0  0  0  0
   46.8820   34.3820   41.2270 S   0  0  0  0  0  0  0  0  0  0  0  0
   48.5140   35.2040   41.2260 C   0  0  0  0  0  0  0  0  0  0  0  0
   48.4770   36.2700   42.0950 F   0  0  0  0  0  0  0  0  0  0  0  0
   48.8000   35.7260   39.9820 F   0  0  0  0  0  0  0  0  0  0  0  0
   49.5170   34.3390   41.5750 F   0  0  0  0  0  0  0  0  0  0  0  0
   45.1348   36.5580   42.0766 H   0  0  0  0  0  0  0  0  0  0  0  0
   46.8404   32.9537   43.8033 H   0  0  0  0  0  0  0  0  0  0  0  0
   44.3054   35.5099   46.0751 H   0  0  0  0  0  0  0  0  0  0  0  0
  1  6  2  0
  2  1  1  0
  2  3  2  0
  3  4  1  0
  4  5  2  0
  6  5  1  0
  7  2  1  0
  8  7  1  0
  8 11  1  0
  8  9  1  0
 10  8  1  0
  1 12  1  0
  3 13  1  0
  5 14  1  0
M  ISO  3  12  14  13  14  14  14
M  END
>  <minimizedAffinity>  (1) 
-4.03172445

>  <minimizedRMSD>  (1) 
2.72716689

$$$$
