
     RDKit          3D

 28 29  0  0  0  0  0  0  0  0999 V2000
   41.2110   33.6140   40.4740 C   0  0  0  0  0  0  0  0  0  0  0  0
   40.1460   33.9240   39.6440 C   0  0  0  0  0  0  0  0  0  0  0  0
   39.6020   35.1980   39.6680 C   0  0  0  0  0  0  0  0  0  0  0  0
   40.0940   36.1660   40.4970 C   0  0  0  0  0  0  0  0  0  0  0  0
   41.1480   35.8500   41.3150 C   0  0  0  0  0  0  0  0  0  0  0  0
   41.7340   34.5830   41.3330 C   0  0  0  0  0  0  0  0  0  0  0  0
   43.9610   36.2620   42.3230 N   0  0  0  0  0  0  0  0  0  0  0  0
   44.0340   35.0000   42.2130 C   0  0  0  0  0  0  0  0  0  0  0  0
   42.8320   34.2820   42.1750 N   0  0  0  0  0  0  0  0  0  0  0  0
   45.3040   34.3290   42.1420 N   0  0  0  0  0  0  0  0  0  0  0  0
   43.1530   36.8740   42.3920 H   0  0  0  0  0  0  0  0  0  0  0  0
   41.9940   32.0240   40.5190 S   0  0  0  0  0  0  0  0  0  0  0  0
   41.1240   30.7450   42.8150 C   0  0  0  0  0  0  0  0  0  0  0  0
   40.9980   30.8680   41.4190 C   0  0  0  0  0  0  0  0  0  0  0  0
   40.0790   30.0660   40.7710 C   0  0  0  0  0  0  0  0  0  0  0  0
   39.3390   29.1970   41.5060 N   0  0  0  0  0  0  0  0  0  0  0  0
   39.4810   29.1010   42.8320 C   0  0  0  0  0  0  0  0  0  0  0  0
   40.3480   29.8480   43.4980 N   0  0  0  0  0  0  0  0  0  0  0  0
   39.7334   33.1608   38.9678 H   0  0  0  0  0  0  0  0  0  0  0  0
   38.7563   35.4350   39.0057 H   0  0  0  0  0  0  0  0  0  0  0  0
   39.6551   37.1746   40.5080 H   0  0  0  0  0  0  0  0  0  0  0  0
   41.5480   36.6261   41.9841 H   0  0  0  0  0  0  0  0  0  0  0  0
   42.7398   33.4741   42.8072 H   0  0  0  0  0  0  0  0  0  0  0  0
   45.3404   33.3035   42.0528 H   0  0  0  0  0  0  0  0  0  0  0  0
   46.1772   34.8739   42.1803 H   0  0  0  0  0  0  0  0  0  0  0  0
   41.8473   31.3708   43.3583 H   0  0  0  0  0  0  0  0  0  0  0  0
   39.9492   30.1302   39.6806 H   0  0  0  0  0  0  0  0  0  0  0  0
   38.8600   28.3811   43.3853 H   0  0  0  0  0  0  0  0  0  0  0  0
  1 12  1  0
  1  6  2  0
  2  3  2  0
  2  1  1  0
  3  4  1  0
  4  5  2  0
  5  6  1  0
  6  9  1  0
  7 11  1  0
  8  7  2  0
  9  8  1  0
 10  8  1  0
 12 14  1  0
 13 18  2  0
 14 13  1  0
 15 14  2  0
 15 16  1  0
 16 17  2  0
 17 18  1  0
  2 19  1  0
  3 20  1  0
  4 21  1  0
  5 22  1  0
  9 23  1  0
 10 24  1  0
 10 25  1  0
 13 26  1  0
 15 27  1  0
 17 28  1  0
M  ISO  7  19  14  20  14  21  14  22  14  26  14  27  14  28  14
M  END
>  <minimizedAffinity>  (1) 
-4.64089823

>  <minimizedRMSD>  (1) 
5.12843418

$$$$
