
     RDKit          3D

 14 14  0  0  0  0  0  0  0  0999 V2000
   47.6010   34.9910   42.3890 C   0  0  0  0  0  0  0  0  0  0  0  0
   47.7960   33.8970   43.2520 C   0  0  0  0  0  0  0  0  0  0  0  0
   46.7680   33.5860   44.1510 C   0  0  0  0  0  0  0  0  0  0  0  0
   45.6490   34.3580   44.1380 N   0  0  0  0  0  0  0  0  0  0  0  0
   45.4880   35.3970   43.3040 C   0  0  0  0  0  0  0  0  0  0  0  0
   46.4670   35.7100   42.4310 N   0  0  0  0  0  0  0  0  0  0  0  0
   48.7200   35.3020   41.4310 C   0  0  0  0  0  0  0  0  0  0  0  0
   48.3130   35.2020   40.1360 F   0  0  0  0  0  0  0  0  0  0  0  0
   49.1770   36.5780   41.7290 F   0  0  0  0  0  0  0  0  0  0  0  0
   49.7950   34.4370   41.6970 F   0  0  0  0  0  0  0  0  0  0  0  0
   44.3460   36.1890   43.2870 O   0  0  0  0  0  0  0  0  0  0  0  0
   48.7236   33.3065   43.2217 H   0  0  0  0  0  0  0  0  0  0  0  0
   46.8634   32.7406   44.8482 H   0  0  0  0  0  0  0  0  0  0  0  0
   44.2771   36.9447   42.6512 H   0  0  0  0  0  0  0  0  0  0  0  0
  1  6  2  0
  1  2  1  0
  2  3  2  0
  4  3  1  0
  5  4  2  0
  6  5  1  0
  7 10  1  0
  7  9  1  0
  7  1  1  0
  8  7  1  0
 11  5  1  0
  2 12  1  0
  3 13  1  0
 11 14  1  0
M  ISO  3  12  14  13  14  14   3
M  END
>  <minimizedAffinity>  (1) 
-4.32559919

>  <minimizedRMSD>  (1) 
0.17009294

$$$$
