
     RDKit          3D

 22 23  0  0  0  0  0  0  0  0999 V2000
   42.2460   34.3730   41.2270 C   0  0  0  0  0  0  0  0  0  0  0  0
   42.1420   33.0230   40.9940 C   0  0  0  0  0  0  0  0  0  0  0  0
   40.8830   32.4830   40.7840 C   0  0  0  0  0  0  0  0  0  0  0  0
   39.7340   33.2500   40.8010 C   0  0  0  0  0  0  0  0  0  0  0  0
   39.8570   34.5990   41.0360 C   0  0  0  0  0  0  0  0  0  0  0  0
   41.1040   35.1800   41.2520 C   0  0  0  0  0  0  0  0  0  0  0  0
   41.0790   36.5390   41.4740 O   0  0  0  0  0  0  0  0  0  0  0  0
   43.7610   35.2690   41.5210 S   0  0  0  0  0  0  0  0  0  0  0  0
   44.2320   35.6930   44.2250 C   0  0  0  0  0  0  0  0  0  0  0  0
   44.4040   34.8090   43.1220 C   0  0  0  0  0  0  0  0  0  0  0  0
   45.0700   33.6220   43.3530 C   0  0  0  0  0  0  0  0  0  0  0  0
   45.5290   33.3470   44.6020 N   0  0  0  0  0  0  0  0  0  0  0  0
   45.3470   34.2080   45.6170 C   0  0  0  0  0  0  0  0  0  0  0  0
   44.7100   35.3680   45.4470 N   0  0  0  0  0  0  0  0  0  0  0  0
   43.0379   32.3850   40.9746 H   0  0  0  0  0  0  0  0  0  0  0  0
   40.7952   31.4026   40.5967 H   0  0  0  0  0  0  0  0  0  0  0  0
   38.7476   32.7938   40.6311 H   0  0  0  0  0  0  0  0  0  0  0  0
   38.9559   35.2296   41.0537 H   0  0  0  0  0  0  0  0  0  0  0  0
   40.2165   37.0250   41.4725 H   0  0  0  0  0  0  0  0  0  0  0  0
   43.7058   36.6483   44.0815 H   0  0  0  0  0  0  0  0  0  0  0  0
   45.2276   32.9054   42.5335 H   0  0  0  0  0  0  0  0  0  0  0  0
   45.7332   33.9500   46.6142 H   0  0  0  0  0  0  0  0  0  0  0  0
  1  6  1  0
  1  8  1  0
  2  1  2  0
  3  4  2  0
  3  2  1  0
  4  5  1  0
  5  6  2  0
  6  7  1  0
  8 10  1  0
  9 14  2  0
 10 11  2  0
 10  9  1  0
 11 12  1  0
 12 13  2  0
 14 13  1  0
  2 15  1  0
  3 16  1  0
  4 17  1  0
  5 18  1  0
  7 19  1  0
  9 20  1  0
 11 21  1  0
 13 22  1  0
M  ISO  8  15  14  16  14  17  14  18  14  19   3  20  14  21  14  22  14
M  END
>  <minimizedAffinity>  (1) 
-4.3319993

>  <minimizedRMSD>  (1) 
0.54738605

$$$$
