
     RDKit          3D

 28 30  0  0  0  0  0  0  0  0999 V2000
   41.5140   33.5020   40.5380 C   0  0  0  0  0  0  0  0  0  0  0  0
   40.2080   33.6100   40.0990 C   0  0  0  0  0  0  0  0  0  0  0  0
   39.5480   34.8140   40.1370 C   0  0  0  0  0  0  0  0  0  0  0  0
   40.1680   35.9410   40.6100 C   0  0  0  0  0  0  0  0  0  0  0  0
   41.4640   35.8430   41.0470 C   0  0  0  0  0  0  0  0  0  0  0  0
   42.1530   34.6320   41.0180 C   0  0  0  0  0  0  0  0  0  0  0  0
   43.5300   34.5820   41.4940 C   0  0  0  0  0  0  0  0  0  0  0  0
   44.6580   34.5300   40.7120 C   0  0  0  0  0  0  0  0  0  0  0  0
   45.6990   34.4970   41.5670 N   0  0  0  0  0  0  0  0  0  0  0  0
   45.2650   34.5260   42.8430 C   0  0  0  0  0  0  0  0  0  0  0  0
   43.9190   34.5790   42.7770 N   0  0  0  0  0  0  0  0  0  0  0  0
   42.4690   32.0070   40.5370 S   0  0  0  0  0  0  0  0  0  0  0  0
   42.8650   30.0010   42.4090 C   0  0  0  0  0  0  0  0  0  0  0  0
   41.9800   30.9700   41.9020 C   0  0  0  0  0  0  0  0  0  0  0  0
   40.7310   31.0910   42.4900 C   0  0  0  0  0  0  0  0  0  0  0  0
   40.4130   30.2750   43.5260 N   0  0  0  0  0  0  0  0  0  0  0  0
   41.2910   29.3570   43.9830 C   0  0  0  0  0  0  0  0  0  0  0  0
   42.4940   29.2120   43.4470 N   0  0  0  0  0  0  0  0  0  0  0  0
   39.6899   32.7194   39.7138 H   0  0  0  0  0  0  0  0  0  0  0  0
   38.5082   34.8744   39.7832 H   0  0  0  0  0  0  0  0  0  0  0  0
   39.6371   36.9040   40.6385 H   0  0  0  0  0  0  0  0  0  0  0  0
   41.9715   36.7409   41.4293 H   0  0  0  0  0  0  0  0  0  0  0  0
   44.7025   34.5178   39.6130 H   0  0  0  0  0  0  0  0  0  0  0  0
   46.6887   34.4554   41.2848 H   0  0  0  0  0  0  0  0  0  0  0  0
   45.8830   34.5097   43.7529 H   0  0  0  0  0  0  0  0  0  0  0  0
   43.8627   29.8830   41.9610 H   0  0  0  0  0  0  0  0  0  0  0  0
   40.0097   31.8360   42.1229 H   0  0  0  0  0  0  0  0  0  0  0  0
   40.9994   28.7110   44.8242 H   0  0  0  0  0  0  0  0  0  0  0  0
  1  6  2  0
  2  3  2  0
  2  1  1  0
  3  4  1  0
  4  5  2  0
  6  5  1  0
  6  7  1  0
  7 11  1  0
  8  7  2  0
  8  9  1  0
  9 10  1  0
 11 10  2  0
 12  1  1  0
 12 14  1  0
 13 18  2  0
 14 13  1  0
 14 15  2  0
 15 16  1  0
 16 17  2  0
 18 17  1  0
  2 19  1  0
  3 20  1  0
  4 21  1  0
  5 22  1  0
  8 23  1  0
  9 24  1  0
 10 25  1  0
 13 26  1  0
 15 27  1  0
 17 28  1  0
M  ISO  8  19  14  20  14  21  14  22  14  23  14  24   9  25  14  26  14
M  ISO  2  27  14  28  14
M  END
>  <minimizedAffinity>  (1) 
-4.09681988

>  <minimizedRMSD>  (1) 
4.56365967

$$$$
