
     RDKit          3D

 27 28  0  0  0  0  0  0  0  0999 V2000
   47.6480   34.9520   42.2120 C   0  0  0  0  0  0  0  0  0  0  0  0
   47.9240   34.0960   43.2900 C   0  0  0  0  0  0  0  0  0  0  0  0
   46.8470   33.6420   44.0550 C   0  0  0  0  0  0  0  0  0  0  0  0
   45.6050   34.0520   43.7160 N   0  0  0  0  0  0  0  0  0  0  0  0
   45.3580   34.8710   42.6820 C   0  0  0  0  0  0  0  0  0  0  0  0
   46.3900   35.3190   41.9320 N   0  0  0  0  0  0  0  0  0  0  0  0
   48.8320   35.4290   41.4000 C   0  0  0  0  0  0  0  0  0  0  0  0
   48.5780   35.3970   40.0740 F   0  0  0  0  0  0  0  0  0  0  0  0
   49.1250   36.7160   41.8540 F   0  0  0  0  0  0  0  0  0  0  0  0
   49.9480   34.6410   41.7250 F   0  0  0  0  0  0  0  0  0  0  0  0
   44.0830   35.2990   42.3240 O   0  0  0  0  0  0  0  0  0  0  0  0
   43.5890   35.2990   41.0150 C   0  0  0  0  0  0  0  0  0  0  0  0
   42.1150   35.6500   41.0700 C   0  0  0  0  0  0  0  0  0  0  0  0
   41.3720   34.3600   41.3520 C   0  0  0  0  0  0  0  0  0  0  0  0
   42.3800   33.2460   41.1680 C   0  0  0  0  0  0  0  0  0  0  0  0
   43.5940   33.8540   40.5170 C   0  0  0  0  0  0  0  0  0  0  0  0
   48.9550   33.7926   43.5246 H   0  0  0  0  0  0  0  0  0  0  0  0
   47.0058   32.9688   44.9104 H   0  0  0  0  0  0  0  0  0  0  0  0
   44.1817   35.9861   40.3932 H   0  0  0  0  0  0  0  0  0  0  0  0
   41.9282   36.3786   41.8726 H   0  0  0  0  0  0  0  0  0  0  0  0
   41.7797   36.1019   40.1248 H   0  0  0  0  0  0  0  0  0  0  0  0
   40.9859   34.3592   42.3820 H   0  0  0  0  0  0  0  0  0  0  0  0
   40.5103   34.2373   40.6793 H   0  0  0  0  0  0  0  0  0  0  0  0
   42.6501   32.8159   42.1438 H   0  0  0  0  0  0  0  0  0  0  0  0
   41.9642   32.4389   40.5469 H   0  0  0  0  0  0  0  0  0  0  0  0
   43.5109   33.8169   39.4208 H   0  0  0  0  0  0  0  0  0  0  0  0
   44.5230   33.3208   40.7672 H   0  0  0  0  0  0  0  0  0  0  0  0
  1  2  2  0
  2  3  1  0
  4  3  2  0
  5  4  1  0
  6  1  1  0
  6  5  2  0
  7 10  1  0
  7  9  1  0
  7  1  1  0
  8  7  1  0
 11  5  1  0
 12 13  1  0
 12 11  1  0
 13 14  1  0
 15 14  1  0
 16 12  1  0
 16 15  1  0
  2 17  1  0
  3 18  1  0
 12 19  1  0
 13 20  1  0
 13 21  1  0
 14 22  1  0
 14 23  1  0
 15 24  1  0
 15 25  1  0
 16 26  1  0
 16 27  1  0
M  ISO  8  17  14  18  14  19  13  20  13  21  13  22  13  23  13  24  13
M  ISO  3  25  13  26  13  27  13
M  END
>  <minimizedAffinity>  (1) 
-4.80310106

>  <minimizedRMSD>  (1) 
1.60483181

$$$$
