
     RDKit          3D

 17 17  0  0  0  0  0  0  0  0999 V2000
   47.6640   34.9440   42.3100 C   0  0  0  0  0  0  0  0  0  0  0  0
   47.9430   33.9730   43.2760 C   0  0  0  0  0  0  0  0  0  0  0  0
   46.9010   33.5600   44.1070 C   0  0  0  0  0  0  0  0  0  0  0  0
   45.6830   34.1170   43.9310 N   0  0  0  0  0  0  0  0  0  0  0  0
   45.4270   35.0540   42.9930 C   0  0  0  0  0  0  0  0  0  0  0  0
   46.4260   35.4660   42.1800 N   0  0  0  0  0  0  0  0  0  0  0  0
   48.8120   35.3770   41.4200 C   0  0  0  0  0  0  0  0  0  0  0  0
   48.4730   35.3220   40.1040 F   0  0  0  0  0  0  0  0  0  0  0  0
   49.1670   36.6630   41.8170 F   0  0  0  0  0  0  0  0  0  0  0  0
   49.9230   34.5650   41.7110 F   0  0  0  0  0  0  0  0  0  0  0  0
   44.1910   35.6320   42.8020 O   0  0  0  0  0  0  0  0  0  0  0  0
   43.2860   35.2240   41.7980 C   0  0  0  0  0  0  0  0  0  0  0  0
   43.5880   35.7080   40.5470 F   0  0  0  0  0  0  0  0  0  0  0  0
   41.9870   35.5140   42.1640 F   0  0  0  0  0  0  0  0  0  0  0  0
   43.3650   33.8340   41.6930 F   0  0  0  0  0  0  0  0  0  0  0  0
   48.9524   33.5478   43.3779 H   0  0  0  0  0  0  0  0  0  0  0  0
   47.0671   32.8005   44.8852 H   0  0  0  0  0  0  0  0  0  0  0  0
  1  2  2  0
  2  3  1  0
  4  3  2  0
  5  4  1  0
  6  1  1  0
  6  5  2  0
  7 10  1  0
  7  9  1  0
  7  1  1  0
  8  7  1  0
 11  5  1  0
 12 14  1  0
 12 11  1  0
 13 12  1  0
 15 12  1  0
  2 16  1  0
  3 17  1  0
M  ISO  2  16  14  17  14
M  END
>  <minimizedAffinity>  (1) 
-4.78883266

>  <minimizedRMSD>  (1) 
1.6942246

$$$$
