
     RDKit          3D

 32 34  0  0  0  0  0  0  0  0999 V2000
   40.9670   34.0840   39.6070 C   0  0  0  0  0  0  0  0  0  0  0  0
   39.9040   34.1530   38.7380 C   0  0  0  0  0  0  0  0  0  0  0  0
   39.9490   35.0240   37.6490 C   0  0  0  0  0  0  0  0  0  0  0  0
   41.0300   35.8120   37.4290 C   0  0  0  0  0  0  0  0  0  0  0  0
   42.0880   35.7450   38.2940 C   0  0  0  0  0  0  0  0  0  0  0  0
   42.0780   34.8840   39.3940 C   0  0  0  0  0  0  0  0  0  0  0  0
   43.2160   34.8240   40.3070 C   0  0  0  0  0  0  0  0  0  0  0  0
   44.2840   34.0120   40.1630 C   0  0  0  0  0  0  0  0  0  0  0  0
   45.3630   33.9760   41.0540 C   0  0  0  0  0  0  0  0  0  0  0  0
   45.3350   34.7910   42.1120 N   0  0  0  0  0  0  0  0  0  0  0  0
   44.2720   35.6080   42.2670 C   0  0  0  0  0  0  0  0  0  0  0  0
   43.2370   35.6350   41.4020 N   0  0  0  0  0  0  0  0  0  0  0  0
   41.0140   33.0140   41.0200 S   0  0  0  0  0  0  0  0  0  0  0  0
   38.5310   31.8310   41.2070 C   0  0  0  0  0  0  0  0  0  0  0  0
   39.8660   31.6740   40.8240 C   0  0  0  0  0  0  0  0  0  0  0  0
   40.2660   30.4520   40.2910 C   0  0  0  0  0  0  0  0  0  0  0  0
   39.3250   29.4830   40.1760 N   0  0  0  0  0  0  0  0  0  0  0  0
   38.0480   29.6700   40.5560 C   0  0  0  0  0  0  0  0  0  0  0  0
   37.6160   30.8130   41.0690 N   0  0  0  0  0  0  0  0  0  0  0  0
   37.0760   28.5380   40.3910 C   0  0  0  0  0  0  0  0  0  0  0  0
   37.4010   27.8030   39.2610 F   0  0  0  0  0  0  0  0  0  0  0  0
   35.8520   29.1440   40.0790 F   0  0  0  0  0  0  0  0  0  0  0  0
   36.9850   27.7380   41.4860 F   0  0  0  0  0  0  0  0  0  0  0  0
   39.0181   33.5216   38.9012 H   0  0  0  0  0  0  0  0  0  0  0  0
   39.0942   35.0721   36.9583 H   0  0  0  0  0  0  0  0  0  0  0  0
   41.0562   36.4954   36.5675 H   0  0  0  0  0  0  0  0  0  0  0  0
   42.9664   36.3836   38.1193 H   0  0  0  0  0  0  0  0  0  0  0  0
   44.3082   33.3383   39.2938 H   0  0  0  0  0  0  0  0  0  0  0  0
   46.2108   33.2952   40.8875 H   0  0  0  0  0  0  0  0  0  0  0  0
   44.2485   36.2813   43.1366 H   0  0  0  0  0  0  0  0  0  0  0  0
   38.2038   32.7926   41.6293 H   0  0  0  0  0  0  0  0  0  0  0  0
   41.3055   30.2792   39.9753 H   0  0  0  0  0  0  0  0  0  0  0  0
  1 13  1  0
  2  1  2  0
  3  2  1  0
  4  3  2  0
  4  5  1  0
  5  6  2  0
  6  1  1  0
  6  7  1  0
  7 12  1  0
  8  7  2  0
  8  9  1  0
  9 10  2  0
 10 11  1  0
 12 11  2  0
 15 13  1  0
 15 14  2  0
 16 15  1  0
 17 16  2  0
 17 18  1  0
 18 19  2  0
 19 14  1  0
 20 18  1  0
 20 23  1  0
 21 20  1  0
 22 20  1  0
  2 24  1  0
  3 25  1  0
  4 26  1  0
  5 27  1  0
  8 28  1  0
  9 29  1  0
 11 30  1  0
 14 31  1  0
 16 32  1  0
M  ISO  8  24  14  25  14  26  14  27  14  28  14  29  14  30  14  31  14
M  ISO  1  32  14
M  END
>  <minimizedAffinity>  (1) 
-5.46396494

>  <minimizedRMSD>  (1) 
2.26662302

$$$$
