
     RDKit          3D

 30 32  0  0  0  0  0  0  0  0999 V2000
   41.8180   33.1830   39.2670 C   0  0  0  0  0  0  0  0  0  0  0  0
   40.7790   33.0630   38.3590 C   0  0  0  0  0  0  0  0  0  0  0  0
   40.2210   34.2000   37.7810 C   0  0  0  0  0  0  0  0  0  0  0  0
   40.6840   35.4430   38.0960 C   0  0  0  0  0  0  0  0  0  0  0  0
   41.7140   35.5590   38.9970 C   0  0  0  0  0  0  0  0  0  0  0  0
   42.2970   34.4350   39.5960 C   0  0  0  0  0  0  0  0  0  0  0  0
   43.3900   34.5770   40.5510 C   0  0  0  0  0  0  0  0  0  0  0  0
   44.6680   34.2410   40.2980 C   0  0  0  0  0  0  0  0  0  0  0  0
   45.7090   34.3830   41.2240 C   0  0  0  0  0  0  0  0  0  0  0  0
   45.4080   34.8840   42.4300 N   0  0  0  0  0  0  0  0  0  0  0  0
   44.1270   35.2200   42.6840 C   0  0  0  0  0  0  0  0  0  0  0  0
   43.1570   35.0730   41.7780 N   0  0  0  0  0  0  0  0  0  0  0  0
   42.5860   31.7900   40.0510 S   0  0  0  0  0  0  0  0  0  0  0  0
   41.4020   31.0610   42.4410 C   0  0  0  0  0  0  0  0  0  0  0  0
   41.4090   30.9000   41.0430 C   0  0  0  0  0  0  0  0  0  0  0  0
   40.4910   30.0460   40.4670 C   0  0  0  0  0  0  0  0  0  0  0  0
   39.6130   29.3910   41.2850 N   0  0  0  0  0  0  0  0  0  0  0  0
   39.6360   29.5710   42.6270 C   0  0  0  0  0  0  0  0  0  0  0  0
   40.5040   30.3850   43.2180 N   0  0  0  0  0  0  0  0  0  0  0  0
   38.6580   28.8080   43.2530 O   0  0  0  0  0  0  0  0  0  0  0  0
   40.3939   32.0673   38.0940 H   0  0  0  0  0  0  0  0  0  0  0  0
   39.3961   34.0941   37.0610 H   0  0  0  0  0  0  0  0  0  0  0  0
   40.2400   36.3382   37.6361 H   0  0  0  0  0  0  0  0  0  0  0  0
   42.0907   36.5598   39.2548 H   0  0  0  0  0  0  0  0  0  0  0  0
   44.9092   33.8309   39.3062 H   0  0  0  0  0  0  0  0  0  0  0  0
   46.7392   34.0930   40.9700 H   0  0  0  0  0  0  0  0  0  0  0  0
   43.8720   35.6297   43.6725 H   0  0  0  0  0  0  0  0  0  0  0  0
   42.1279   31.7389   42.9138 H   0  0  0  0  0  0  0  0  0  0  0  0
   40.4662   29.8960   39.3776 H   0  0  0  0  0  0  0  0  0  0  0  0
   38.5592   28.8410   44.2375 H   0  0  0  0  0  0  0  0  0  0  0  0
  1  6  1  0
  1 13  1  0
  2  1  2  0
  3  4  2  0
  3  2  1  0
  4  5  1  0
  5  6  2  0
  6  7  1  0
  7 12  1  0
  8  7  2  0
  8  9  1  0
  9 10  2  0
 10 11  1  0
 12 11  2  0
 13 15  1  0
 14 19  2  0
 15 14  1  0
 16 15  2  0
 16 17  1  0
 17 18  2  0
 18 19  1  0
 18 20  1  0
  2 21  1  0
  3 22  1  0
  4 23  1  0
  5 24  1  0
  8 25  1  0
  9 26  1  0
 11 27  1  0
 14 28  1  0
 16 29  1  0
 20 30  1  0
M  ISO  8  21  14  22  14  23  14  24  14  25  14  26  14  27  14  28  14
M  ISO  2  29  14  30   3
M  END
>  <minimizedAffinity>  (1) 
-4.78542328

>  <minimizedRMSD>  (1) 
0.178677768

$$$$
