
     RDKit          3D

 31 33  0  0  0  0  0  0  0  0999 V2000
   41.8360   33.1880   39.2050 C   0  0  0  0  0  0  0  0  0  0  0  0
   40.7890   33.0870   38.3010 C   0  0  0  0  0  0  0  0  0  0  0  0
   40.2170   34.2250   37.7720 C   0  0  0  0  0  0  0  0  0  0  0  0
   40.6600   35.4740   38.1200 C   0  0  0  0  0  0  0  0  0  0  0  0
   41.6990   35.5700   39.0180 C   0  0  0  0  0  0  0  0  0  0  0  0
   42.3030   34.4330   39.5740 C   0  0  0  0  0  0  0  0  0  0  0  0
   43.4020   34.5590   40.5230 C   0  0  0  0  0  0  0  0  0  0  0  0
   44.6800   34.2330   40.2690 C   0  0  0  0  0  0  0  0  0  0  0  0
   45.7220   34.3600   41.1890 C   0  0  0  0  0  0  0  0  0  0  0  0
   45.4250   34.8390   42.4070 N   0  0  0  0  0  0  0  0  0  0  0  0
   44.1290   35.1730   42.6710 C   0  0  0  0  0  0  0  0  0  0  0  0
   43.1480   35.0410   41.7700 N   0  0  0  0  0  0  0  0  0  0  0  0
   42.6360   31.7840   39.9390 S   0  0  0  0  0  0  0  0  0  0  0  0
   41.6810   31.0620   42.4320 C   0  0  0  0  0  0  0  0  0  0  0  0
   41.5180   30.9380   41.0410 C   0  0  0  0  0  0  0  0  0  0  0  0
   40.4850   30.1540   40.5580 C   0  0  0  0  0  0  0  0  0  0  0  0
   39.6710   29.5380   41.4620 N   0  0  0  0  0  0  0  0  0  0  0  0
   39.8600   29.6810   42.7970 C   0  0  0  0  0  0  0  0  0  0  0  0
   40.8340   30.4210   43.3070 N   0  0  0  0  0  0  0  0  0  0  0  0
   38.9320   28.9800   43.6110 N   0  0  0  0  0  0  0  0  0  0  0  0
   40.4137   32.0963   38.0051 H   0  0  0  0  0  0  0  0  0  0  0  0
   39.3878   34.1279   37.0557 H   0  0  0  0  0  0  0  0  0  0  0  0
   40.1976   36.3762   37.6931 H   0  0  0  0  0  0  0  0  0  0  0  0
   42.0655   36.5659   39.3074 H   0  0  0  0  0  0  0  0  0  0  0  0
   44.9213   33.8401   39.2703 H   0  0  0  0  0  0  0  0  0  0  0  0
   46.7516   34.0771   40.9247 H   0  0  0  0  0  0  0  0  0  0  0  0
   43.8795   35.5677   43.6670 H   0  0  0  0  0  0  0  0  0  0  0  0
   42.4992   31.6817   42.8275 H   0  0  0  0  0  0  0  0  0  0  0  0
   40.3252   30.0314   39.4766 H   0  0  0  0  0  0  0  0  0  0  0  0
   39.0034   29.0341   44.6371 H   0  0  0  0  0  0  0  0  0  0  0  0
   38.1873   28.4173   43.1755 H   0  0  0  0  0  0  0  0  0  0  0  0
  1  6  1  0
  1 13  1  0
  2  1  2  0
  3  4  2  0
  3  2  1  0
  4  5  1  0
  5  6  2  0
  6  7  1  0
  7 12  1  0
  8  7  2  0
  8  9  1  0
  9 10  2  0
 10 11  1  0
 12 11  2  0
 13 15  1  0
 14 19  2  0
 15 14  1  0
 16 15  2  0
 16 17  1  0
 17 18  2  0
 18 19  1  0
 18 20  1  0
  2 21  1  0
  3 22  1  0
  4 23  1  0
  5 24  1  0
  8 25  1  0
  9 26  1  0
 11 27  1  0
 14 28  1  0
 16 29  1  0
 20 30  1  0
 20 31  1  0
M  ISO  8  21  14  22  14  23  14  24  14  25  14  26  14  27  14  28  14
M  ISO  1  29  14
M  END
>  <minimizedAffinity>  (1) 
-4.71066046

>  <minimizedRMSD>  (1) 
0.264302462

$$$$
