
     RDKit          3D

 30 32  0  0  0  0  0  0  0  0999 V2000
   41.7870   32.8590   39.0930 C   0  0  0  0  0  0  0  0  0  0  0  0
   40.6640   32.9660   38.2850 C   0  0  0  0  0  0  0  0  0  0  0  0
   40.1420   34.2030   37.9670 C   0  0  0  0  0  0  0  0  0  0  0  0
   40.7140   35.3510   38.4350 C   0  0  0  0  0  0  0  0  0  0  0  0
   41.8240   35.2440   39.2320 C   0  0  0  0  0  0  0  0  0  0  0  0
   42.3740   34.0150   39.5710 C   0  0  0  0  0  0  0  0  0  0  0  0
   43.5570   33.9270   40.4220 C   0  0  0  0  0  0  0  0  0  0  0  0
   44.8230   33.8120   39.9860 C   0  0  0  0  0  0  0  0  0  0  0  0
   45.9370   33.7310   40.8250 C   0  0  0  0  0  0  0  0  0  0  0  0
   45.7450   33.7660   42.1490 N   0  0  0  0  0  0  0  0  0  0  0  0
   44.4670   33.8820   42.5970 C   0  0  0  0  0  0  0  0  0  0  0  0
   43.3990   33.9600   41.7750 N   0  0  0  0  0  0  0  0  0  0  0  0
   42.5180   31.3170   39.5480 S   0  0  0  0  0  0  0  0  0  0  0  0
   42.7040   30.0950   42.0210 C   0  0  0  0  0  0  0  0  0  0  0  0
   41.8770   30.7500   41.0920 C   0  0  0  0  0  0  0  0  0  0  0  0
   40.5440   30.9360   41.4300 C   0  0  0  0  0  0  0  0  0  0  0  0
   40.0990   30.4800   42.6350 N   0  0  0  0  0  0  0  0  0  0  0  0
   40.9470   29.8510   43.4950 C   0  0  0  0  0  0  0  0  0  0  0  0
   42.2330   29.6450   43.2260 N   0  0  0  0  0  0  0  0  0  0  0  0
   40.2890   29.2820   45.0560 S   0  0  0  0  0  0  0  0  0  0  0  0
   40.1853   32.0559   37.8943 H   0  0  0  0  0  0  0  0  0  0  0  0
   39.2503   34.2653   37.3259 H   0  0  0  0  0  0  0  0  0  0  0  0
   40.2952   36.3355   38.1793 H   0  0  0  0  0  0  0  0  0  0  0  0
   42.2943   36.1615   39.6155 H   0  0  0  0  0  0  0  0  0  0  0  0
   44.9928   33.7796   38.8997 H   0  0  0  0  0  0  0  0  0  0  0  0
   46.9502   33.6404   40.4064 H   0  0  0  0  0  0  0  0  0  0  0  0
   44.2945   33.9139   43.6829 H   0  0  0  0  0  0  0  0  0  0  0  0
   43.7640   29.9387   41.7722 H   0  0  0  0  0  0  0  0  0  0  0  0
   39.8573   31.4434   40.7365 H   0  0  0  0  0  0  0  0  0  0  0  0
   40.9743   29.8746   46.0837 H   0  0  0  0  0  0  0  0  0  0  0  0
  1 13  1  0
  1  6  1  0
  2  1  2  0
  3  2  1  0
  3  4  2  0
  4  5  1  0
  5  6  2  0
  6  7  1  0
  7 12  1  0
  8  7  2  0
  8  9  1  0
  9 10  2  0
 10 11  1  0
 12 11  2  0
 13 15  1  0
 14 19  2  0
 15 16  2  0
 15 14  1  0
 16 17  1  0
 17 18  2  0
 18 20  1  0
 19 18  1  0
  2 21  1  0
  3 22  1  0
  4 23  1  0
  5 24  1  0
  8 25  1  0
  9 26  1  0
 11 27  1  0
 14 28  1  0
 16 29  1  0
 20 30  1  0
M  ISO  8  21  14  22  14  23  14  24  14  25  14  26  14  27  14  28  14
M  ISO  2  29  14  30  11
M  END
>  <minimizedAffinity>  (1) 
-4.23639488

>  <minimizedRMSD>  (1) 
1.18488216

$$$$
