
     RDKit          3D

 23 23  0  0  0  0  0  0  0  0999 V2000
   47.7120   34.9770   42.3120 C   0  0  0  0  0  0  0  0  0  0  0  0
   47.9730   34.0000   43.2770 C   0  0  0  0  0  0  0  0  0  0  0  0
   46.9190   33.5650   44.0840 C   0  0  0  0  0  0  0  0  0  0  0  0
   45.7010   34.1150   43.8890 N   0  0  0  0  0  0  0  0  0  0  0  0
   45.4570   35.0610   42.9540 C   0  0  0  0  0  0  0  0  0  0  0  0
   46.4690   35.4730   42.1820 N   0  0  0  0  0  0  0  0  0  0  0  0
   48.8670   35.4230   41.4480 C   0  0  0  0  0  0  0  0  0  0  0  0
   48.5320   35.3470   40.1210 F   0  0  0  0  0  0  0  0  0  0  0  0
   49.1870   36.7070   41.8280 F   0  0  0  0  0  0  0  0  0  0  0  0
   49.9760   34.6220   41.7400 F   0  0  0  0  0  0  0  0  0  0  0  0
   44.2100   35.6210   42.7600 O   0  0  0  0  0  0  0  0  0  0  0  0
   43.4690   35.4460   41.6210 C   0  0  0  0  0  0  0  0  0  0  0  0
   42.2040   35.3700   41.2400 C   0  0  0  0  0  0  0  0  0  0  0  0
   42.1200   35.1590   39.7710 C   0  0  0  0  0  0  0  0  0  0  0  0
   48.9840   33.5837   43.3980 H   0  0  0  0  0  0  0  0  0  0  0  0
   47.0764   32.7970   44.8557 H   0  0  0  0  0  0  0  0  0  0  0  0
   43.8372   36.2701   40.9923 H   0  0  0  0  0  0  0  0  0  0  0  0
   43.5763   34.3519   41.6586 H   0  0  0  0  0  0  0  0  0  0  0  0
   41.7195   34.5279   41.7559 H   0  0  0  0  0  0  0  0  0  0  0  0
   41.6957   36.3113   41.4962 H   0  0  0  0  0  0  0  0  0  0  0  0
   41.7202   34.1547   39.5671 H   0  0  0  0  0  0  0  0  0  0  0  0
   41.4544   35.9153   39.3294 H   0  0  0  0  0  0  0  0  0  0  0  0
   43.1233   35.2509   39.3294 H   0  0  0  0  0  0  0  0  0  0  0  0
  1  2  2  0
  2  3  1  0
  4  3  2  0
  5  4  1  0
  6  1  1  0
  6  5  2  0
  7 10  1  0
  7  9  1  0
  7  1  1  0
  8  7  1  0
 11  5  1  0
 12 11  1  0
 13 12  1  0
 14 13  1  0
  2 15  1  0
  3 16  1  0
 12 17  1  0
 12 18  1  0
 13 19  1  0
 13 20  1  0
 14 21  1  0
 14 22  1  0
 14 23  1  0
M  ISO  8  15  14  16  14  17   8  18   8  19   8  20   8  21   8  22   8
M  ISO  1  23   8
M  END
>  <minimizedAffinity>  (1) 
-4.61256933

>  <minimizedRMSD>  (1) 
1.56388676

$$$$
