
     RDKit          3D

 37 39  0  0  0  0  0  0  0  0999 V2000
   40.8880   34.0580   39.7940 C   0  0  0  0  0  0  0  0  0  0  0  0
   39.7910   34.0780   38.9560 C   0  0  0  0  0  0  0  0  0  0  0  0
   39.7850   34.8700   37.8020 C   0  0  0  0  0  0  0  0  0  0  0  0
   40.8720   35.6370   37.4880 C   0  0  0  0  0  0  0  0  0  0  0  0
   41.9660   35.6150   38.3260 C   0  0  0  0  0  0  0  0  0  0  0  0
   41.9910   34.8380   39.4720 C   0  0  0  0  0  0  0  0  0  0  0  0
   43.1510   34.8270   40.3430 C   0  0  0  0  0  0  0  0  0  0  0  0
   44.2410   34.0380   40.1700 C   0  0  0  0  0  0  0  0  0  0  0  0
   45.3590   34.0320   41.0150 C   0  0  0  0  0  0  0  0  0  0  0  0
   45.3470   34.8650   42.0660 N   0  0  0  0  0  0  0  0  0  0  0  0
   44.2690   35.6550   42.2490 C   0  0  0  0  0  0  0  0  0  0  0  0
   43.2030   35.6400   41.4170 N   0  0  0  0  0  0  0  0  0  0  0  0
   40.9730   33.0900   41.2610 S   0  0  0  0  0  0  0  0  0  0  0  0
   38.4970   31.8560   41.2030 C   0  0  0  0  0  0  0  0  0  0  0  0
   39.8970   31.6950   41.1510 C   0  0  0  0  0  0  0  0  0  0  0  0
   40.3840   30.4070   41.0130 C   0  0  0  0  0  0  0  0  0  0  0  0
   39.5100   29.3850   40.9340 N   0  0  0  0  0  0  0  0  0  0  0  0
   38.1580   29.5820   40.9870 C   0  0  0  0  0  0  0  0  0  0  0  0
   37.6240   30.7940   41.1210 N   0  0  0  0  0  0  0  0  0  0  0  0
   37.2810   28.3960   40.8930 C   0  0  0  0  0  0  0  0  0  0  0  0
   36.6380   28.3030   39.5040 C   0  0  0  0  0  0  0  0  0  0  0  0
   37.5550   28.9180   38.5790 N   0  0  0  0  0  0  0  0  0  0  0  0
   38.9110   33.4640   39.1982 H   0  0  0  0  0  0  0  0  0  0  0  0
   38.9024   34.8752   37.1454 H   0  0  0  0  0  0  0  0  0  0  0  0
   40.8736   36.2610   36.5821 H   0  0  0  0  0  0  0  0  0  0  0  0
   42.8428   36.2312   38.0779 H   0  0  0  0  0  0  0  0  0  0  0  0
   44.2477   33.3560   39.3070 H   0  0  0  0  0  0  0  0  0  0  0  0
   46.2150   33.3684   40.8232 H   0  0  0  0  0  0  0  0  0  0  0  0
   44.2565   36.3393   43.1101 H   0  0  0  0  0  0  0  0  0  0  0  0
   38.0858   32.8703   41.3135 H   0  0  0  0  0  0  0  0  0  0  0  0
   41.4672   30.2208   40.9685 H   0  0  0  0  0  0  0  0  0  0  0  0
   37.8783   27.4904   41.0753 H   0  0  0  0  0  0  0  0  0  0  0  0
   36.4836   28.4866   41.6453 H   0  0  0  0  0  0  0  0  0  0  0  0
   36.4750   27.2497   39.2319 H   0  0  0  0  0  0  0  0  0  0  0  0
   35.6612   28.8086   39.4865 H   0  0  0  0  0  0  0  0  0  0  0  0
   38.2915   29.4119   39.1029 H   0  0  0  0  0  0  0  0  0  0  0  0
   37.9830   28.1925   37.9863 H   0  0  0  0  0  0  0  0  0  0  0  0
  1 13  1  0
  2  1  2  0
  3  2  1  0
  4  3  2  0
  4  5  1  0
  5  6  2  0
  6  1  1  0
  6  7  1  0
  7 12  1  0
  8  7  2  0
  8  9  1  0
  9 10  2  0
 10 11  1  0
 12 11  2  0
 15 14  2  0
 15 13  1  0
 16 15  1  0
 17 18  1  0
 17 16  2  0
 18 19  2  0
 19 14  1  0
 20 18  1  0
 21 20  1  0
 22 21  1  0
  2 23  1  0
  3 24  1  0
  4 25  1  0
  5 26  1  0
  8 27  1  0
  9 28  1  0
 11 29  1  0
 14 30  1  0
 16 31  1  0
 20 32  1  0
 20 33  1  0
 21 34  1  0
 21 35  1  0
 22 36  1  0
 22 37  1  0
M  ISO  8  23  14  24  14  25  14  26  14  27  14  28  14  29  14  30  14
M  ISO  7  31  14  32   8  33   8  34   8  35   8  36   5  37   5
M  END
>  <minimizedAffinity>  (1) 
-4.99972105

>  <minimizedRMSD>  (1) 
0.256702781

$$$$
