
     RDKit          3D

 17 17  0  0  0  0  0  0  0  0999 V2000
   47.7070   34.9790   42.2980 C   0  0  0  0  0  0  0  0  0  0  0  0
   47.9860   34.0020   43.2720 C   0  0  0  0  0  0  0  0  0  0  0  0
   46.9330   33.5650   44.0820 C   0  0  0  0  0  0  0  0  0  0  0  0
   45.7000   34.1180   43.8770 N   0  0  0  0  0  0  0  0  0  0  0  0
   45.4670   35.0450   42.9470 C   0  0  0  0  0  0  0  0  0  0  0  0
   46.4740   35.4690   42.1620 N   0  0  0  0  0  0  0  0  0  0  0  0
   48.8710   35.4260   41.4410 C   0  0  0  0  0  0  0  0  0  0  0  0
   48.5450   35.3480   40.1120 F   0  0  0  0  0  0  0  0  0  0  0  0
   49.1920   36.7060   41.8330 F   0  0  0  0  0  0  0  0  0  0  0  0
   49.9780   34.6150   41.7430 F   0  0  0  0  0  0  0  0  0  0  0  0
   44.2080   35.5930   42.7560 O   0  0  0  0  0  0  0  0  0  0  0  0
   43.5580   35.5900   41.5270 C   0  0  0  0  0  0  0  0  0  0  0  0
   49.0007   33.5948   43.3924 H   0  0  0  0  0  0  0  0  0  0  0  0
   47.0918   32.8018   44.8581 H   0  0  0  0  0  0  0  0  0  0  0  0
   42.4698   35.5850   41.6877 H   0  0  0  0  0  0  0  0  0  0  0  0
   43.8408   36.4895   40.9604 H   0  0  0  0  0  0  0  0  0  0  0  0
   43.8491   34.6932   40.9604 H   0  0  0  0  0  0  0  0  0  0  0  0
  1  2  2  0
  2  3  1  0
  4  3  2  0
  5  4  1  0
  6  1  1  0
  6  5  2  0
  7 10  1  0
  7  9  1  0
  7  1  1  0
  8  7  1  0
 11  5  1  0
 12 11  1  0
  2 13  1  0
  3 14  1  0
 12 15  1  0
 12 16  1  0
 12 17  1  0
M  ISO  5  13  14  14  14  15   8  16   8  17   8
M  END
>  <minimizedAffinity>  (1) 
-4.19235086

>  <minimizedRMSD>  (1) 
0.670133591

$$$$
