
     RDKit          3D

 27 29  0  0  0  0  0  0  0  0999 V2000
   46.1410   32.1150   47.0960 C   0  0  0  0  0  0  0  0  0  0  0  0
   45.8970   32.4780   48.3840 C   0  0  0  0  0  0  0  0  0  0  0  0
   45.3860   31.6520   49.3460 C   0  0  0  0  0  0  0  0  0  0  0  0
   45.0810   30.3450   49.0320 C   0  0  0  0  0  0  0  0  0  0  0  0
   45.3120   29.9280   47.7300 C   0  0  0  0  0  0  0  0  0  0  0  0
   44.9870   28.6120   47.4760 C   0  0  0  0  0  0  0  0  0  0  0  0
   45.1790   28.1100   46.2260 C   0  0  0  0  0  0  0  0  0  0  0  0
   45.6890   28.9220   45.2520 C   0  0  0  0  0  0  0  0  0  0  0  0
   46.0110   30.2370   45.5120 C   0  0  0  0  0  0  0  0  0  0  0  0
   45.8370   30.7940   46.7610 C   0  0  0  0  0  0  0  0  0  0  0  0
   46.6380   32.8050   46.0360 O   0  0  0  0  0  0  0  0  0  0  0  0
   46.0260   34.8880   43.2370 C   0  0  0  0  0  0  0  0  0  0  0  0
   45.0000   35.7390   43.6670 C   0  0  0  0  0  0  0  0  0  0  0  0
   44.5210   35.5690   44.9690 C   0  0  0  0  0  0  0  0  0  0  0  0
   45.0690   34.6030   45.7300 N   0  0  0  0  0  0  0  0  0  0  0  0
   46.0480   33.8020   45.3010 C   0  0  0  0  0  0  0  0  0  0  0  0
   46.5040   33.9630   44.0630 N   0  0  0  0  0  0  0  0  0  0  0  0
   46.1282   33.5138   48.6732 H   0  0  0  0  0  0  0  0  0  0  0  0
   45.2190   32.0287   50.3659 H   0  0  0  0  0  0  0  0  0  0  0  0
   44.6696   29.6582   49.7864 H   0  0  0  0  0  0  0  0  0  0  0  0
   44.5774   27.9758   48.2744 H   0  0  0  0  0  0  0  0  0  0  0  0
   44.9267   27.0630   46.0020 H   0  0  0  0  0  0  0  0  0  0  0  0
   45.8456   28.5183   44.2408 H   0  0  0  0  0  0  0  0  0  0  0  0
   46.4178   30.8587   44.7008 H   0  0  0  0  0  0  0  0  0  0  0  0
   46.4343   34.9848   42.2202 H   0  0  0  0  0  0  0  0  0  0  0  0
   44.5862   36.5131   43.0040 H   0  0  0  0  0  0  0  0  0  0  0  0
   43.7167   36.2083   45.3620 H   0  0  0  0  0  0  0  0  0  0  0  0
  1  2  2  0
  2  3  1  0
  4  3  2  0
  5  4  1  0
  6  5  2  0
  7  6  1  0
  8  9  1  0
  8  7  2  0
  9 10  2  0
 10  1  1  0
 10  5  1  0
 11  1  1  0
 12 13  2  0
 12 17  1  0
 13 14  1  0
 14 15  2  0
 16 15  1  0
 16 11  1  0
 17 16  2  0
  2 18  1  0
  3 19  1  0
  4 20  1  0
  6 21  1  0
  7 22  1  0
  8 23  1  0
  9 24  1  0
 12 25  1  0
 13 26  1  0
 14 27  1  0
M  ISO  8  18  14  19  14  20  14  21  14  22  14  23  14  24  14  25  14
M  ISO  2  26  14  27  14
M  END
>  <minimizedAffinity>  (1) 
-5.38608027

>  <minimizedRMSD>  (1) 
2.77104378

$$$$
