
     RDKit          3D

 27 28  0  0  0  0  0  0  0  0999 V2000
   44.5570   36.0360   44.5630 C   0  0  0  0  0  0  0  0  0  0  0  0
   45.2310   35.7230   43.3760 C   0  0  0  0  0  0  0  0  0  0  0  0
   45.9950   34.5290   43.3720 C   0  0  0  0  0  0  0  0  0  0  0  0
   46.0120   33.7880   44.5140 N   0  0  0  0  0  0  0  0  0  0  0  0
   45.3490   34.1330   45.6230 C   0  0  0  0  0  0  0  0  0  0  0  0
   44.6240   35.2520   45.6510 N   0  0  0  0  0  0  0  0  0  0  0  0
   45.3670   33.3730   46.7900 O   0  0  0  0  0  0  0  0  0  0  0  0
   45.9020   32.0420   46.7770 C   0  0  0  0  0  0  0  0  0  0  0  0
   45.1180   31.1740   47.6960 C   0  0  0  0  0  0  0  0  0  0  0  0
   45.4820   31.5880   49.1250 C   0  0  0  0  0  0  0  0  0  0  0  0
   46.8840   31.0970   49.3260 C   0  0  0  0  0  0  0  0  0  0  0  0
   47.8110   31.8430   48.4280 C   0  0  0  0  0  0  0  0  0  0  0  0
   47.3640   32.0940   47.0450 C   0  0  0  0  0  0  0  0  0  0  0  0
   43.9529   36.9543   44.6054 H   0  0  0  0  0  0  0  0  0  0  0  0
   45.1705   36.3720   42.4900 H   0  0  0  0  0  0  0  0  0  0  0  0
   46.5537   34.2127   42.4788 H   0  0  0  0  0  0  0  0  0  0  0  0
   45.8000   31.5762   45.7857 H   0  0  0  0  0  0  0  0  0  0  0  0
   44.0411   31.3178   47.5241 H   0  0  0  0  0  0  0  0  0  0  0  0
   45.3491   30.1123   47.5247 H   0  0  0  0  0  0  0  0  0  0  0  0
   45.4360   32.6816   49.2343 H   0  0  0  0  0  0  0  0  0  0  0  0
   44.7868   31.1678   49.8667 H   0  0  0  0  0  0  0  0  0  0  0  0
   47.1811   31.2574   50.3729 H   0  0  0  0  0  0  0  0  0  0  0  0
   46.9318   30.0239   49.0888 H   0  0  0  0  0  0  0  0  0  0  0  0
   48.0058   32.8203   48.8939 H   0  0  0  0  0  0  0  0  0  0  0  0
   48.6886   31.1880   48.3244 H   0  0  0  0  0  0  0  0  0  0  0  0
   47.8441   31.3419   46.4017 H   0  0  0  0  0  0  0  0  0  0  0  0
   47.6497   33.1368   46.8425 H   0  0  0  0  0  0  0  0  0  0  0  0
  1  6  2  0
  2  1  1  0
  3  2  2  0
  3  4  1  0
  4  5  2  0
  5  6  1  0
  5  7  1  0
  8  7  1  0
  8 13  1  0
  8  9  1  0
  9 10  1  0
 10 11  1  0
 12 11  1  0
 13 12  1  0
  1 14  1  0
  2 15  1  0
  3 16  1  0
  8 17  1  0
  9 18  1  0
  9 19  1  0
 10 20  1  0
 10 21  1  0
 11 22  1  0
 11 23  1  0
 12 24  1  0
 12 25  1  0
 13 26  1  0
 13 27  1  0
M  ISO  8  14  14  15  14  16  14  17  13  18  13  19  13  20  13  21  13
M  ISO  6  22  13  23  13  24  13  25  13  26  13  27  13
M  END
>  <minimizedAffinity>  (1) 
-4.61643219

>  <minimizedRMSD>  (1) 
2.19317102

$$$$
