
     RDKit          3D

 26 27  0  0  0  0  0  0  0  0999 V2000
   45.6550   30.4190   46.9830 C   0  0  0  0  0  0  0  0  0  0  0  0
   46.4680   31.4970   46.8150 C   0  0  0  0  0  0  0  0  0  0  0  0
   46.5810   32.3990   47.8770 C   0  0  0  0  0  0  0  0  0  0  0  0
   45.9040   32.2240   49.0610 C   0  0  0  0  0  0  0  0  0  0  0  0
   45.0840   31.1220   49.2120 C   0  0  0  0  0  0  0  0  0  0  0  0
   44.9650   30.2240   48.1690 C   0  0  0  0  0  0  0  0  0  0  0  0
   45.5730   29.3490   45.6140 S   0  0  0  0  0  0  0  0  0  0  0  0
   44.8400   29.9870   44.4620 O   0  0  0  0  0  0  0  0  0  0  0  0
   44.7620   28.1370   46.0350 O   0  0  0  0  0  0  0  0  0  0  0  0
   47.2320   31.8620   45.7190 O   0  0  0  0  0  0  0  0  0  0  0  0
   47.5350   33.8960   42.8360 C   0  0  0  0  0  0  0  0  0  0  0  0
   46.4900   34.8070   42.9710 C   0  0  0  0  0  0  0  0  0  0  0  0
   45.6630   34.7070   44.0950 C   0  0  0  0  0  0  0  0  0  0  0  0
   45.9400   33.7260   44.9740 N   0  0  0  0  0  0  0  0  0  0  0  0
   46.9440   32.8640   44.8260 C   0  0  0  0  0  0  0  0  0  0  0  0
   47.7260   32.9700   43.7520 N   0  0  0  0  0  0  0  0  0  0  0  0
   44.5600   35.6470   44.2650 C   0  0  0  0  0  0  0  0  0  0  0  0
   44.8010   36.8710   44.4280 O   0  0  0  0  0  0  0  0  0  0  0  0
   47.2328   33.2775   47.7617 H   0  0  0  0  0  0  0  0  0  0  0  0
   46.0138   32.9523   49.8780 H   0  0  0  0  0  0  0  0  0  0  0  0
   44.5331   30.9619   50.1506 H   0  0  0  0  0  0  0  0  0  0  0  0
   44.3149   29.3438   48.2812 H   0  0  0  0  0  0  0  0  0  0  0  0
   46.8474   29.0349   45.2213 H   0  0  0  0  0  0  0  0  0  0  0  0
   48.2016   33.9504   41.9627 H   0  0  0  0  0  0  0  0  0  0  0  0
   46.3193   35.5855   42.2129 H   0  0  0  0  0  0  0  0  0  0  0  0
   43.5208   35.2865   44.2507 H   0  0  0  0  0  0  0  0  0  0  0  0
  1  6  2  0
  2  1  1  0
  2  3  2  0
  3  4  1  0
  4  5  2  0
  6  5  1  0
  7  9  2  0
  7  1  1  0
  8  7  2  0
 10  2  1  0
 11 12  2  0
 11 16  1  0
 12 13  1  0
 13 17  1  0
 13 14  2  0
 15 14  1  0
 15 10  1  0
 16 15  2  0
 17 18  2  0
  3 19  1  0
  4 20  1  0
  5 21  1  0
  6 22  1  0
  7 23  1  0
 11 24  1  0
 12 25  1  0
 17 26  1  0
M  ISO  8  19  14  20  14  21  14  22  14  23  11  24  14  25  14  26   6
M  END
>  <minimizedAffinity>  (1) 
-4.70863152

>  <minimizedRMSD>  (1) 
1.31434333

$$$$
