
     RDKit          3D

 25 26  0  0  0  0  0  0  0  0999 V2000
   45.6370   30.4040   47.0060 C   0  0  0  0  0  0  0  0  0  0  0  0
   46.5090   31.4310   46.7720 C   0  0  0  0  0  0  0  0  0  0  0  0
   46.6960   32.3510   47.7990 C   0  0  0  0  0  0  0  0  0  0  0  0
   46.0460   32.2550   49.0010 C   0  0  0  0  0  0  0  0  0  0  0  0
   45.1740   31.2150   49.2150 C   0  0  0  0  0  0  0  0  0  0  0  0
   44.9660   30.2780   48.2090 C   0  0  0  0  0  0  0  0  0  0  0  0
   45.4440   29.2830   45.6850 S   0  0  0  0  0  0  0  0  0  0  0  0
   44.8200   29.9410   44.4820 O   0  0  0  0  0  0  0  0  0  0  0  0
   44.4790   28.1950   46.1350 O   0  0  0  0  0  0  0  0  0  0  0  0
   47.2510   31.6950   45.6370 O   0  0  0  0  0  0  0  0  0  0  0  0
   47.7300   33.7490   42.7920 C   0  0  0  0  0  0  0  0  0  0  0  0
   46.7180   34.6970   42.8990 C   0  0  0  0  0  0  0  0  0  0  0  0
   45.8510   34.6180   43.9890 C   0  0  0  0  0  0  0  0  0  0  0  0
   46.0520   33.6210   44.8700 N   0  0  0  0  0  0  0  0  0  0  0  0
   47.0340   32.7180   44.7470 C   0  0  0  0  0  0  0  0  0  0  0  0
   47.8640   32.7950   43.7030 N   0  0  0  0  0  0  0  0  0  0  0  0
   44.5200   35.7940   44.2090 S   0  0  0  0  0  0  0  0  0  0  0  0
   47.3924   33.1874   47.6396 H   0  0  0  0  0  0  0  0  0  0  0  0
   46.2206   33.0037   49.7877 H   0  0  0  0  0  0  0  0  0  0  0  0
   44.6445   31.1244   50.1749 H   0  0  0  0  0  0  0  0  0  0  0  0
   44.2711   29.4404   48.3690 H   0  0  0  0  0  0  0  0  0  0  0  0
   46.6815   28.8010   45.3486 H   0  0  0  0  0  0  0  0  0  0  0  0
   48.4270   33.7911   41.9421 H   0  0  0  0  0  0  0  0  0  0  0  0
   46.6042   35.4886   42.1437 H   0  0  0  0  0  0  0  0  0  0  0  0
   44.2994   35.9889   45.5470 H   0  0  0  0  0  0  0  0  0  0  0  0
  1  6  2  0
  2  1  1  0
  2  3  2  0
  3  4  1  0
  4  5  2  0
  6  5  1  0
  7  9  2  0
  7  1  1  0
  8  7  2  0
 10  2  1  0
 11 12  2  0
 11 16  1  0
 12 13  1  0
 13 17  1  0
 13 14  2  0
 15 14  1  0
 15 10  1  0
 16 15  2  0
  3 18  1  0
  4 19  1  0
  5 20  1  0
  6 21  1  0
  7 22  1  0
 11 23  1  0
 12 24  1  0
 17 25  1  0
M  ISO  8  18  14  19  14  20  14  21  14  22  11  23  14  24  14  25  11
M  END
>  <minimizedAffinity>  (1) 
-4.54159975

>  <minimizedRMSD>  (1) 
1.45966911

$$$$
