
     RDKit          3D

 36 37  0  0  0  0  0  0  0  0999 V2000
   45.5120   34.4740   44.0780 C   0  0  0  0  0  0  0  0  0  0  0  0
   46.3320   34.7580   42.9570 C   0  0  0  0  0  0  0  0  0  0  0  0
   47.4900   34.0270   42.7710 C   0  0  0  0  0  0  0  0  0  0  0  0
   47.7480   33.0880   43.6880 N   0  0  0  0  0  0  0  0  0  0  0  0
   46.9890   32.8190   44.7340 C   0  0  0  0  0  0  0  0  0  0  0  0
   45.8570   33.5210   44.9290 N   0  0  0  0  0  0  0  0  0  0  0  0
   48.4000   34.2560   41.6340 C   0  0  0  0  0  0  0  0  0  0  0  0
   47.6390   34.5180   40.3340 C   0  0  0  0  0  0  0  0  0  0  0  0
   47.8440   33.4100   39.5120 O   0  0  0  0  0  0  0  0  0  0  0  0
   48.9760   32.8000   37.1960 O   0  0  0  0  0  0  0  0  0  0  0  0
   48.2370   33.8710   37.9380 P   0  0  0  0  0  0  0  0  0  0  0  0
   46.7940   34.1750   37.1110 O   0  0  0  0  0  0  0  0  0  0  0  0
   49.1600   35.2840   37.8990 O   0  0  0  0  0  0  0  0  0  0  0  0
   47.2790   31.8460   45.6610 O   0  0  0  0  0  0  0  0  0  0  0  0
   45.6700   30.4650   46.9530 C   0  0  0  0  0  0  0  0  0  0  0  0
   46.5130   31.5250   46.7640 C   0  0  0  0  0  0  0  0  0  0  0  0
   46.6400   32.4260   47.8150 C   0  0  0  0  0  0  0  0  0  0  0  0
   45.9420   32.2620   49.0070 C   0  0  0  0  0  0  0  0  0  0  0  0
   45.1040   31.1890   49.1650 C   0  0  0  0  0  0  0  0  0  0  0  0
   44.9730   30.2840   48.1160 C   0  0  0  0  0  0  0  0  0  0  0  0
   45.5650   29.3800   45.5900 S   0  0  0  0  0  0  0  0  0  0  0  0
   44.8250   29.9880   44.4340 O   0  0  0  0  0  0  0  0  0  0  0  0
   44.7430   28.1790   46.0230 O   0  0  0  0  0  0  0  0  0  0  0  0
   44.5872   35.0469   44.2408 H   0  0  0  0  0  0  0  0  0  0  0  0
   46.0507   35.5485   42.2457 H   0  0  0  0  0  0  0  0  0  0  0  0
   49.0335   35.1274   41.8563 H   0  0  0  0  0  0  0  0  0  0  0  0
   49.0056   33.3482   41.4957 H   0  0  0  0  0  0  0  0  0  0  0  0
   46.5659   34.6406   40.5424 H   0  0  0  0  0  0  0  0  0  0  0  0
   47.9955   35.4386   39.8487 H   0  0  0  0  0  0  0  0  0  0  0  0
   46.0656   34.3285   37.7637 H   0  0  0  0  0  0  0  0  0  0  0  0
   49.3522   35.5783   38.8245 H   0  0  0  0  0  0  0  0  0  0  0  0
   47.3098   33.2911   47.7011 H   0  0  0  0  0  0  0  0  0  0  0  0
   46.0623   32.9919   49.8211 H   0  0  0  0  0  0  0  0  0  0  0  0
   44.5462   31.0461   50.1022 H   0  0  0  0  0  0  0  0  0  0  0  0
   44.3043   29.4171   48.2228 H   0  0  0  0  0  0  0  0  0  0  0  0
   46.8420   29.0710   45.2019 H   0  0  0  0  0  0  0  0  0  0  0  0
  1  6  2  0
  2  1  1  0
  3  2  2  0
  3  4  1  0
  4  5  2  0
  5  6  1  0
  5 14  1  0
  7  3  1  0
  8  7  1  0
  9  8  1  0
 10 11  2  0
 11  9  1  0
 12 11  1  0
 13 11  1  0
 14 16  1  0
 15 20  2  0
 16 15  1  0
 16 17  2  0
 17 18  1  0
 18 19  2  0
 20 19  1  0
 21 23  2  0
 21 15  1  0
 22 21  2  0
  1 24  1  0
  2 25  1  0
  7 26  1  0
  7 27  1  0
  8 28  1  0
  8 29  1  0
 12 30  1  0
 13 31  1  0
 17 32  1  0
 18 33  1  0
 19 34  1  0
 20 35  1  0
 21 36  1  0
M  ISO  8  24  14  25  14  26   8  27   8  28   8  29   8  30   3  31   3
M  ISO  5  32  14  33  14  34  14  35  14  36  11
M  END
>  <minimizedAffinity>  (1) 
-5.5063014

>  <minimizedRMSD>  (1) 
2.15692973

$$$$
