
     RDKit          3D

 31 32  0  0  0  0  0  0  0  0999 V2000
   45.2050   34.2810   43.8830 C   0  0  0  0  0  0  0  0  0  0  0  0
   46.1570   34.8710   43.0210 C   0  0  0  0  0  0  0  0  0  0  0  0
   47.4580   34.4010   43.0370 C   0  0  0  0  0  0  0  0  0  0  0  0
   47.7260   33.4000   43.8880 N   0  0  0  0  0  0  0  0  0  0  0  0
   46.8320   32.8550   44.6890 C   0  0  0  0  0  0  0  0  0  0  0  0
   45.5700   33.2970   44.6850 N   0  0  0  0  0  0  0  0  0  0  0  0
   48.5310   34.9530   42.1760 C   0  0  0  0  0  0  0  0  0  0  0  0
   48.2080   34.8230   40.7090 C   0  0  0  0  0  0  0  0  0  0  0  0
   49.0270   35.7340   40.0450 O   0  0  0  0  0  0  0  0  0  0  0  0
   47.1260   31.8200   45.5610 O   0  0  0  0  0  0  0  0  0  0  0  0
   45.6370   30.4080   46.9620 C   0  0  0  0  0  0  0  0  0  0  0  0
   46.4280   31.5020   46.7090 C   0  0  0  0  0  0  0  0  0  0  0  0
   46.5720   32.4430   47.7230 C   0  0  0  0  0  0  0  0  0  0  0  0
   45.9430   32.2950   48.9570 C   0  0  0  0  0  0  0  0  0  0  0  0
   45.1580   31.1930   49.1840 C   0  0  0  0  0  0  0  0  0  0  0  0
   45.0100   30.2470   48.1720 C   0  0  0  0  0  0  0  0  0  0  0  0
   45.5150   29.2890   45.6450 S   0  0  0  0  0  0  0  0  0  0  0  0
   44.7130   29.8720   44.4960 O   0  0  0  0  0  0  0  0  0  0  0  0
   44.6950   28.1030   46.1370 O   0  0  0  0  0  0  0  0  0  0  0  0
   44.1651   34.6395   43.8860 H   0  0  0  0  0  0  0  0  0  0  0  0
   45.8679   35.6914   42.3477 H   0  0  0  0  0  0  0  0  0  0  0  0
   48.6651   36.0181   42.4161 H   0  0  0  0  0  0  0  0  0  0  0  0
   49.4492   34.3797   42.3716 H   0  0  0  0  0  0  0  0  0  0  0  0
   48.4170   33.8002   40.3624 H   0  0  0  0  0  0  0  0  0  0  0  0
   47.1446   35.0265   40.5146 H   0  0  0  0  0  0  0  0  0  0  0  0
   49.5183   36.2805   40.7083 H   0  0  0  0  0  0  0  0  0  0  0  0
   47.1999   33.3286   47.5456 H   0  0  0  0  0  0  0  0  0  0  0  0
   46.0744   33.0544   49.7419 H   0  0  0  0  0  0  0  0  0  0  0  0
   44.6525   31.0582   50.1516 H   0  0  0  0  0  0  0  0  0  0  0  0
   44.3828   29.3601   48.3450 H   0  0  0  0  0  0  0  0  0  0  0  0
   46.7811   28.9693   45.2307 H   0  0  0  0  0  0  0  0  0  0  0  0
  1  6  2  0
  2  3  2  0
  2  1  1  0
  3  4  1  0
  4  5  2  0
  5 10  1  0
  6  5  1  0
  7  3  1  0
  8  7  1  0
  9  8  1  0
 10 12  1  0
 11 16  2  0
 12 11  1  0
 12 13  2  0
 13 14  1  0
 14 15  2  0
 16 15  1  0
 17 19  2  0
 17 11  1  0
 18 17  2  0
  1 20  1  0
  2 21  1  0
  7 22  1  0
  7 23  1  0
  8 24  1  0
  8 25  1  0
  9 26  1  0
 13 27  1  0
 14 28  1  0
 15 29  1  0
 16 30  1  0
 17 31  1  0
M  ISO  8  20  14  21  14  22   8  23   8  24   8  25   8  26   3  27  14
M  ISO  4  28  14  29  14  30  14  31  11
M  END
>  <minimizedAffinity>  (1) 
-5.08405066

>  <minimizedRMSD>  (1) 
0.11466103

$$$$
