
     RDKit          3D

 49 51  0  0  1  0  0  0  0  0999 V2000
   45.3330   34.2450   43.7780 C   0  0  0  0  0  0  0  0  0  0  0  0
   46.4850   34.7470   43.1440 C   0  0  0  0  0  0  0  0  0  0  0  0
   47.6700   34.0770   43.2830 C   0  0  0  0  0  0  0  0  0  0  0  0
   47.6450   32.9650   44.0310 N   0  0  0  0  0  0  0  0  0  0  0  0
   46.5740   32.4920   44.6240 C   0  0  0  0  0  0  0  0  0  0  0  0
   45.4030   33.1340   44.5010 N   0  0  0  0  0  0  0  0  0  0  0  0
   48.9150   34.5240   42.6590 C   0  0  0  0  0  0  0  0  0  0  0  0
   48.7450   35.6740   41.7130 C   0  0  0  0  0  0  0  0  0  0  0  0
   48.6030   35.2720   40.3150 C   0  0  0  0  0  0  0  0  0  0  0  0
   48.0430   34.3510   39.5460 C   0  0  0  0  0  0  0  0  0  0  0  0
   48.2350   34.1920   38.0500 C   0  0  0  0  0  0  0  0  0  0  0  0
   46.5430   31.3530   45.3900 O   0  0  0  0  0  0  0  0  0  0  0  0
   45.4820   30.1550   47.2550 C   0  0  0  0  0  0  0  0  0  0  0  0
   46.0770   31.2340   46.6880 C   0  0  0  0  0  0  0  0  0  0  0  0
   46.2700   32.3710   47.4530 C   0  0  0  0  0  0  0  0  0  0  0  0
   45.8840   32.4530   48.7700 C   0  0  0  0  0  0  0  0  0  0  0  0
   45.2810   31.3580   49.3480 C   0  0  0  0  0  0  0  0  0  0  0  0
   45.0850   30.2150   48.5850 C   0  0  0  0  0  0  0  0  0  0  0  0
   45.1540   28.8090   46.2380 S   0  0  0  0  0  0  0  0  0  0  0  0
   44.5130   29.1570   44.9440 O   0  0  0  0  0  0  0  0  0  0  0  0
   44.1180   27.9480   46.9880 O   0  0  0  0  0  0  0  0  0  0  0  0
   47.5610   28.1930   46.8830 N   0  0  0  0  0  0  0  0  0  0  0  0
   48.1930   26.9860   47.3700 C   0  0  0  0  0  0  0  0  0  0  0  0
   46.9530   26.1960   47.7830 C   0  0  0  0  0  0  0  0  0  0  0  0
   46.1220   26.3460   46.5000 C   0  0  0  0  0  0  0  0  0  0  0  0
   46.4770   27.6840   45.9690 C   0  0  1  0  0  0  0  0  0  0  0  0
   44.3740   34.7737   43.6743 H   0  0  0  0  0  0  0  0  0  0  0  0
   46.4333   35.6673   42.5437 H   0  0  0  0  0  0  0  0  0  0  0  0
   49.6099   34.8306   43.4547 H   0  0  0  0  0  0  0  0  0  0  0  0
   49.2951   33.6786   42.0667 H   0  0  0  0  0  0  0  0  0  0  0  0
   47.8446   36.2339   42.0060 H   0  0  0  0  0  0  0  0  0  0  0  0
   49.6593   36.2819   41.7802 H   0  0  0  0  0  0  0  0  0  0  0  0
   49.1532   35.9823   39.6804 H   0  0  0  0  0  0  0  0  0  0  0  0
   47.3736   33.6314   40.0401 H   0  0  0  0  0  0  0  0  0  0  0  0
   49.0693   33.5011   37.8588 H   0  0  0  0  0  0  0  0  0  0  0  0
   47.3146   33.7881   37.6031 H   0  0  0  0  0  0  0  0  0  0  0  0
   48.4603   35.1715   37.6031 H   0  0  0  0  0  0  0  0  0  0  0  0
   46.7516   33.2442   46.9887 H   0  0  0  0  0  0  0  0  0  0  0  0
   46.0530   33.3728   49.3492 H   0  0  0  0  0  0  0  0  0  0  0  0
   44.9592   31.3887   50.3994 H   0  0  0  0  0  0  0  0  0  0  0  0
   44.6050   29.3378   49.0434 H   0  0  0  0  0  0  0  0  0  0  0  0
   47.1606   28.7374   47.6603 H   0  0  0  0  0  0  0  0  0  0  0  0
   48.7609   26.4734   46.5796 H   0  0  0  0  0  0  0  0  0  0  0  0
   48.9365   27.1373   48.1664 H   0  0  0  0  0  0  0  0  0  0  0  0
   47.1893   25.1436   47.9988 H   0  0  0  0  0  0  0  0  0  0  0  0
   46.4611   26.5421   48.7040 H   0  0  0  0  0  0  0  0  0  0  0  0
   46.3834   25.5605   45.7757 H   0  0  0  0  0  0  0  0  0  0  0  0
   45.0432   26.2499   46.6921 H   0  0  0  0  0  0  0  0  0  0  0  0
   46.7371   27.6119   44.9026 H   0  0  0  0  0  0  0  0  0  0  0  0
  1  6  2  0
  2  3  2  0
  2  1  1  0
  3  4  1  0
  4  5  2  0
  5 12  1  0
  6  5  1  0
  7  3  1  0
  8  7  1  0
  9  8  1  0
 10  9  2  0
 11 10  1  0
 12 14  1  0
 13 18  2  0
 14 13  1  0
 14 15  2  0
 15 16  1  0
 16 17  2  0
 18 17  1  0
 19 21  2  0
 19 13  1  0
 20 19  2  0
 22 23  1  0
 23 24  1  0
 25 24  1  0
 26 19  1  0
 26 25  1  0
 26 22  1  0
  1 27  1  0
  2 28  1  0
  7 29  1  0
  7 30  1  0
  8 31  1  0
  8 32  1  0
  9 33  1  0
 10 34  1  0
 11 35  1  0
 11 36  1  0
 11 37  1  0
 15 38  1  0
 16 39  1  0
 17 40  1  0
 18 41  1  0
 22 42  1  0
 23 43  1  0
 23 44  1  0
 24 45  1  0
 24 46  1  0
 25 47  1  0
 25 48  1  0
 26 49  1  6
M  ISO  8  27  14  28  14  29   8  30   8  31   8  32   8  35   8  36   8
M  ISO  8  37   8  38  14  39  14  40  14  41  14  42   5  43  13  44  13
M  ISO  5  45  13  46  13  47  13  48  13  49  13
M  END
>  <minimizedAffinity>  (1) 
-5.70819855

>  <minimizedRMSD>  (1) 
1.99139106

$$$$
