
     RDKit          3D

 53 55  0  0  0  0  0  0  0  0999 V2000
   45.4320   34.2290   43.8160 C   0  0  0  0  0  0  0  0  0  0  0  0
   46.5460   34.7320   43.1210 C   0  0  0  0  0  0  0  0  0  0  0  0
   47.7560   34.1010   43.2400 C   0  0  0  0  0  0  0  0  0  0  0  0
   47.7890   33.0200   44.0340 N   0  0  0  0  0  0  0  0  0  0  0  0
   46.7370   32.5480   44.6890 C   0  0  0  0  0  0  0  0  0  0  0  0
   45.5590   33.1530   44.5780 N   0  0  0  0  0  0  0  0  0  0  0  0
   48.9770   34.5300   42.5460 C   0  0  0  0  0  0  0  0  0  0  0  0
   48.7430   35.6880   41.6180 C   0  0  0  0  0  0  0  0  0  0  0  0
   48.6060   35.3000   40.2150 C   0  0  0  0  0  0  0  0  0  0  0  0
   48.0850   34.3540   39.4430 C   0  0  0  0  0  0  0  0  0  0  0  0
   48.2460   34.2270   37.9370 C   0  0  0  0  0  0  0  0  0  0  0  0
   46.7930   31.4390   45.4970 O   0  0  0  0  0  0  0  0  0  0  0  0
   45.4580   30.2620   47.1900 C   0  0  0  0  0  0  0  0  0  0  0  0
   46.2130   31.2950   46.7440 C   0  0  0  0  0  0  0  0  0  0  0  0
   46.4700   32.3520   47.5900 C   0  0  0  0  0  0  0  0  0  0  0  0
   45.9900   32.4030   48.8810 C   0  0  0  0  0  0  0  0  0  0  0  0
   45.2220   31.3510   49.3410 C   0  0  0  0  0  0  0  0  0  0  0  0
   44.9660   30.2910   48.4880 C   0  0  0  0  0  0  0  0  0  0  0  0
   45.0810   29.0090   46.0540 S   0  0  0  0  0  0  0  0  0  0  0  0
   45.0630   29.4670   44.6420 O   0  0  0  0  0  0  0  0  0  0  0  0
   43.6190   28.6240   46.3590 O   0  0  0  0  0  0  0  0  0  0  0  0
   45.9050   27.4820   46.2790 C   0  0  0  0  0  0  0  0  0  0  0  0
   45.3360   26.5770   47.3320 C   0  0  0  0  0  0  0  0  0  0  0  0
   45.9000   25.1960   47.0230 C   0  0  0  0  0  0  0  0  0  0  0  0
   47.3630   25.3430   46.6220 C   0  0  0  0  0  0  0  0  0  0  0  0
   47.9900   26.5620   47.2390 C   0  0  0  0  0  0  0  0  0  0  0  0
   47.2960   27.8520   46.9480 C   0  0  0  0  0  0  0  0  0  0  0  0
   44.4560   34.7285   43.7270 H   0  0  0  0  0  0  0  0  0  0  0  0
   46.4466   35.6252   42.4867 H   0  0  0  0  0  0  0  0  0  0  0  0
   49.7226   34.8274   43.2981 H   0  0  0  0  0  0  0  0  0  0  0  0
   49.3267   33.6832   41.9372 H   0  0  0  0  0  0  0  0  0  0  0  0
   47.8203   36.2003   41.9281 H   0  0  0  0  0  0  0  0  0  0  0  0
   49.6279   36.3379   41.6863 H   0  0  0  0  0  0  0  0  0  0  0  0
   49.1059   36.0483   39.5824 H   0  0  0  0  0  0  0  0  0  0  0  0
   47.4765   33.5859   39.9428 H   0  0  0  0  0  0  0  0  0  0  0  0
   49.0916   33.5599   37.7136 H   0  0  0  0  0  0  0  0  0  0  0  0
   47.3252   33.8094   37.5037 H   0  0  0  0  0  0  0  0  0  0  0  0
   48.4377   35.2197   37.5037 H   0  0  0  0  0  0  0  0  0  0  0  0
   47.0823   33.1878   47.2205 H   0  0  0  0  0  0  0  0  0  0  0  0
   46.2135   33.2622   49.5305 H   0  0  0  0  0  0  0  0  0  0  0  0
   44.8215   31.3554   50.3655 H   0  0  0  0  0  0  0  0  0  0  0  0
   44.3565   29.4492   48.8483 H   0  0  0  0  0  0  0  0  0  0  0  0
   45.8791   26.9859   45.2975 H   0  0  0  0  0  0  0  0  0  0  0  0
   45.6500   26.9061   48.3335 H   0  0  0  0  0  0  0  0  0  0  0  0
   44.2360   26.5815   47.3257 H   0  0  0  0  0  0  0  0  0  0  0  0
   45.8233   24.5570   47.9151 H   0  0  0  0  0  0  0  0  0  0  0  0
   45.3314   24.7345   46.2022 H   0  0  0  0  0  0  0  0  0  0  0  0
   47.9149   24.4515   46.9546 H   0  0  0  0  0  0  0  0  0  0  0  0
   47.4091   25.4506   45.5282 H   0  0  0  0  0  0  0  0  0  0  0  0
   48.0040   26.4220   48.3300 H   0  0  0  0  0  0  0  0  0  0  0  0
   48.9920   26.6478   46.7934 H   0  0  0  0  0  0  0  0  0  0  0  0
   47.8991   28.4593   46.2571 H   0  0  0  0  0  0  0  0  0  0  0  0
   47.1490   28.4379   47.8673 H   0  0  0  0  0  0  0  0  0  0  0  0
  1  6  2  0
  2  3  2  0
  2  1  1  0
  3  4  1  0
  4  5  2  0
  5 12  1  0
  6  5  1  0
  7  3  1  0
  8  7  1  0
  9  8  1  0
 10  9  2  0
 11 10  1  0
 12 14  1  0
 13 18  2  0
 14 13  1  0
 14 15  2  0
 15 16  1  0
 16 17  2  0
 18 17  1  0
 19 22  1  0
 19 21  2  0
 19 13  1  0
 20 19  2  0
 22 27  1  0
 22 23  1  0
 24 23  1  0
 25 24  1  0
 25 26  1  0
 27 26  1  0
  1 28  1  0
  2 29  1  0
  7 30  1  0
  7 31  1  0
  8 32  1  0
  8 33  1  0
  9 34  1  0
 10 35  1  0
 11 36  1  0
 11 37  1  0
 11 38  1  0
 15 39  1  0
 16 40  1  0
 17 41  1  0
 18 42  1  0
 22 43  1  0
 23 44  1  0
 23 45  1  0
 24 46  1  0
 24 47  1  0
 25 48  1  0
 25 49  1  0
 26 50  1  0
 26 51  1  0
 27 52  1  0
 27 53  1  0
M  ISO  8  28  14  29  14  30   8  31   8  32   8  33   8  36   8  37   8
M  ISO  8  38   8  39  14  40  14  41  14  42  14  43  13  44  13  45  13
M  ISO  8  46  13  47  13  48  13  49  13  50  13  51  13  52  13  53  13
M  END
>  <minimizedAffinity>  (1) 
-5.70582771

>  <minimizedRMSD>  (1) 
2.0079205

$$$$
