
     RDKit          3D

 40 41  0  0  0  0  0  0  0  0999 V2000
   45.2960   34.2550   43.7850 C   0  0  0  0  0  0  0  0  0  0  0  0
   46.4640   34.7580   43.1490 C   0  0  0  0  0  0  0  0  0  0  0  0
   47.6470   34.0780   43.2840 C   0  0  0  0  0  0  0  0  0  0  0  0
   47.6030   32.9650   44.0210 N   0  0  0  0  0  0  0  0  0  0  0  0
   46.5360   32.4870   44.6110 C   0  0  0  0  0  0  0  0  0  0  0  0
   45.3700   33.1360   44.4950 N   0  0  0  0  0  0  0  0  0  0  0  0
   48.8890   34.5310   42.6820 C   0  0  0  0  0  0  0  0  0  0  0  0
   48.7110   35.6730   41.7330 C   0  0  0  0  0  0  0  0  0  0  0  0
   48.6550   35.2540   40.3310 C   0  0  0  0  0  0  0  0  0  0  0  0
   48.0590   34.3770   39.5400 C   0  0  0  0  0  0  0  0  0  0  0  0
   48.1960   34.1910   38.0590 C   0  0  0  0  0  0  0  0  0  0  0  0
   46.5090   31.3380   45.3620 O   0  0  0  0  0  0  0  0  0  0  0  0
   45.4590   30.1600   47.2570 C   0  0  0  0  0  0  0  0  0  0  0  0
   46.0630   31.2200   46.6710 C   0  0  0  0  0  0  0  0  0  0  0  0
   46.2870   32.3440   47.4370 C   0  0  0  0  0  0  0  0  0  0  0  0
   45.9240   32.4320   48.7660 C   0  0  0  0  0  0  0  0  0  0  0  0
   45.3120   31.3450   49.3480 C   0  0  0  0  0  0  0  0  0  0  0  0
   45.0840   30.2110   48.5820 C   0  0  0  0  0  0  0  0  0  0  0  0
   45.1050   28.8110   46.2110 S   0  0  0  0  0  0  0  0  0  0  0  0
   44.1780   29.1090   45.1120 O   0  0  0  0  0  0  0  0  0  0  0  0
   44.3640   27.7860   47.1010 O   0  0  0  0  0  0  0  0  0  0  0  0
   46.5410   27.9030   45.7320 C   0  0  0  0  0  0  0  0  0  0  0  0
   44.3390   34.7888   43.6894 H   0  0  0  0  0  0  0  0  0  0  0  0
   46.4190   35.6828   42.5550 H   0  0  0  0  0  0  0  0  0  0  0  0
   49.5695   34.8491   43.4856 H   0  0  0  0  0  0  0  0  0  0  0  0
   49.2931   33.6884   42.1017 H   0  0  0  0  0  0  0  0  0  0  0  0
   47.7727   36.1908   41.9810 H   0  0  0  0  0  0  0  0  0  0  0  0
   49.5866   36.3296   41.8434 H   0  0  0  0  0  0  0  0  0  0  0  0
   49.3378   35.8780   39.7357 H   0  0  0  0  0  0  0  0  0  0  0  0
   47.3643   33.6862   40.0401 H   0  0  0  0  0  0  0  0  0  0  0  0
   48.8372   33.3204   37.8566 H   0  0  0  0  0  0  0  0  0  0  0  0
   47.2025   34.0254   37.6168 H   0  0  0  0  0  0  0  0  0  0  0  0
   48.6488   35.0907   37.6168 H   0  0  0  0  0  0  0  0  0  0  0  0
   46.7771   33.2099   46.9681 H   0  0  0  0  0  0  0  0  0  0  0  0
   46.1187   33.3469   49.3448 H   0  0  0  0  0  0  0  0  0  0  0  0
   45.0082   31.3751   50.4048 H   0  0  0  0  0  0  0  0  0  0  0  0
   44.5958   29.3381   49.0399 H   0  0  0  0  0  0  0  0  0  0  0  0
   47.0771   27.5640   46.6307 H   0  0  0  0  0  0  0  0  0  0  0  0
   46.2404   27.0305   45.1334 H   0  0  0  0  0  0  0  0  0  0  0  0
   47.2004   28.5487   45.1334 H   0  0  0  0  0  0  0  0  0  0  0  0
  1  6  2  0
  2  3  2  0
  2  1  1  0
  3  4  1  0
  4  5  2  0
  5 12  1  0
  6  5  1  0
  7  3  1  0
  8  7  1  0
  9  8  1  0
 10  9  2  0
 11 10  1  0
 12 14  1  0
 13 18  2  0
 14 13  1  0
 14 15  2  0
 15 16  1  0
 16 17  2  0
 18 17  1  0
 19 21  2  0
 19 13  1  0
 20 19  2  0
 22 19  1  0
  1 23  1  0
  2 24  1  0
  7 25  1  0
  7 26  1  0
  8 27  1  0
  8 28  1  0
  9 29  1  0
 10 30  1  0
 11 31  1  0
 11 32  1  0
 11 33  1  0
 15 34  1  0
 16 35  1  0
 17 36  1  0
 18 37  1  0
 22 38  1  0
 22 39  1  0
 22 40  1  0
M  ISO  8  23  14  24  14  25   8  26   8  27   8  28   8  31   8  32   8
M  ISO  8  33   8  34  14  35  14  36  14  37  14  38   8  39   8  40   8
M  END
>  <minimizedAffinity>  (1) 
-5.59470463

>  <minimizedRMSD>  (1) 
0.430874169

$$$$
