
     RDKit          3D

 43 45  0  0  0  0  0  0  0  0999 V2000
   46.4980   31.3290   45.3730 O   0  0  0  0  0  0  0  0  0  0  0  0
   45.4620   30.1660   47.2870 C   0  0  0  0  0  0  0  0  0  0  0  0
   46.0540   31.2270   46.6910 C   0  0  0  0  0  0  0  0  0  0  0  0
   46.2650   32.3660   47.4480 C   0  0  0  0  0  0  0  0  0  0  0  0
   45.9010   32.4610   48.7700 C   0  0  0  0  0  0  0  0  0  0  0  0
   45.3000   31.3730   49.3620 C   0  0  0  0  0  0  0  0  0  0  0  0
   45.0860   30.2280   48.6100 C   0  0  0  0  0  0  0  0  0  0  0  0
   45.1270   28.8000   46.2570 S   0  0  0  0  0  0  0  0  0  0  0  0
   44.2030   29.0720   45.1490 O   0  0  0  0  0  0  0  0  0  0  0  0
   44.3720   27.7930   47.1540 O   0  0  0  0  0  0  0  0  0  0  0  0
   46.5770   27.9020   45.8410 C   0  0  0  0  0  0  0  0  0  0  0  0
   47.3030   27.3540   46.9090 C   0  0  0  0  0  0  0  0  0  0  0  0
   48.7180   26.5030   46.1060 S   0  0  0  0  0  0  0  0  0  0  0  0
   48.0510   27.0610   44.3910 C   0  0  0  0  0  0  0  0  0  0  0  0
   47.1070   27.6490   44.6700 N   0  0  0  0  0  0  0  0  0  0  0  0
   45.3000   34.2400   43.7700 C   0  0  0  0  0  0  0  0  0  0  0  0
   46.4620   34.7440   43.1530 C   0  0  0  0  0  0  0  0  0  0  0  0
   47.6420   34.0710   43.2990 C   0  0  0  0  0  0  0  0  0  0  0  0
   47.6080   32.9540   44.0370 N   0  0  0  0  0  0  0  0  0  0  0  0
   46.5170   32.4780   44.6190 C   0  0  0  0  0  0  0  0  0  0  0  0
   45.3610   33.1230   44.4840 N   0  0  0  0  0  0  0  0  0  0  0  0
   48.8990   34.4990   42.6740 C   0  0  0  0  0  0  0  0  0  0  0  0
   48.7440   35.6510   41.7340 C   0  0  0  0  0  0  0  0  0  0  0  0
   48.6120   35.2610   40.3280 C   0  0  0  0  0  0  0  0  0  0  0  0
   48.0430   34.3490   39.5510 C   0  0  0  0  0  0  0  0  0  0  0  0
   48.2230   34.1970   38.0510 C   0  0  0  0  0  0  0  0  0  0  0  0
   46.7450   33.2332   46.9709 H   0  0  0  0  0  0  0  0  0  0  0  0
   46.0853   33.3832   49.3407 H   0  0  0  0  0  0  0  0  0  0  0  0
   44.9936   31.4116   50.4178 H   0  0  0  0  0  0  0  0  0  0  0  0
   44.6080   29.3548   49.0781 H   0  0  0  0  0  0  0  0  0  0  0  0
   47.0761   27.4193   47.9834 H   0  0  0  0  0  0  0  0  0  0  0  0
   48.4699   26.8653   43.3929 H   0  0  0  0  0  0  0  0  0  0  0  0
   44.3433   34.7717   43.6600 H   0  0  0  0  0  0  0  0  0  0  0  0
   46.4196   35.6695   42.5600 H   0  0  0  0  0  0  0  0  0  0  0  0
   49.5996   34.7925   43.4697 H   0  0  0  0  0  0  0  0  0  0  0  0
   49.2675   33.6490   42.0809 H   0  0  0  0  0  0  0  0  0  0  0  0
   47.8440   36.2138   42.0225 H   0  0  0  0  0  0  0  0  0  0  0  0
   49.6628   36.2507   41.8123 H   0  0  0  0  0  0  0  0  0  0  0  0
   49.1790   35.9661   39.7024 H   0  0  0  0  0  0  0  0  0  0  0  0
   47.3724   33.6294   40.0435 H   0  0  0  0  0  0  0  0  0  0  0  0
   49.0492   33.4993   37.8497 H   0  0  0  0  0  0  0  0  0  0  0  0
   47.2956   33.8046   37.6083 H   0  0  0  0  0  0  0  0  0  0  0  0
   48.4545   35.1770   37.6083 H   0  0  0  0  0  0  0  0  0  0  0  0
  1  3  1  0
  2  7  2  0
  3  2  1  0
  3  4  2  0
  4  5  1  0
  5  6  2  0
  7  6  1  0
  8 10  2  0
  8  2  1  0
  9  8  2  0
 11  8  1  0
 11 12  2  0
 13 12  1  0
 14 15  2  0
 14 13  1  0
 15 11  1  0
 16 21  2  0
 17 18  2  0
 17 16  1  0
 18 19  1  0
 19 20  2  0
 20  1  1  0
 21 20  1  0
 22 18  1  0
 23 22  1  0
 24 23  1  0
 25 24  2  0
 26 25  1  0
  4 27  1  0
  5 28  1  0
  6 29  1  0
  7 30  1  0
 12 31  1  0
 14 32  1  0
 16 33  1  0
 17 34  1  0
 22 35  1  0
 22 36  1  0
 23 37  1  0
 23 38  1  0
 24 39  1  0
 25 40  1  0
 26 41  1  0
 26 42  1  0
 26 43  1  0
M  ISO  8  27  14  28  14  29  14  30  14  31  14  32  14  33  14  34  14
M  ISO  7  35   8  36   8  37   8  38   8  41   8  42   8  43   8
M  END
>  <minimizedAffinity>  (1) 
-5.52990055

>  <minimizedRMSD>  (1) 
1.12314773

$$$$
