
     RDKit          3D

 26 27  0  0  0  0  0  0  0  0999 V2000
   46.4820   34.8140   41.7470 C   0  0  0  0  0  0  0  0  0  0  0  0
   45.0800   36.0090   43.4100 C   0  0  0  0  0  0  0  0  0  0  0  0
   45.8890   34.8990   43.0750 C   0  0  0  0  0  0  0  0  0  0  0  0
   46.0780   33.9180   44.0670 C   0  0  0  0  0  0  0  0  0  0  0  0
   45.4740   34.1070   45.2660 N   0  0  0  0  0  0  0  0  0  0  0  0
   44.7170   35.1770   45.5360 C   0  0  0  0  0  0  0  0  0  0  0  0
   44.5150   36.1330   44.6130 N   0  0  0  0  0  0  0  0  0  0  0  0
   47.9090   35.3590   41.8450 C   0  0  0  0  0  0  0  0  0  0  0  0
   48.9160   34.2750   41.6970 C   0  0  0  0  0  0  0  0  0  0  0  0
   48.7870   33.2230   40.8170 C   0  0  0  0  0  0  0  0  0  0  0  0
   49.7240   32.2180   40.6830 C   0  0  0  0  0  0  0  0  0  0  0  0
   50.8630   32.2600   41.4760 C   0  0  0  0  0  0  0  0  0  0  0  0
   51.0150   33.2980   42.3630 C   0  0  0  0  0  0  0  0  0  0  0  0
   50.0590   34.2860   42.4720 C   0  0  0  0  0  0  0  0  0  0  0  0
   45.8979   35.4163   41.0356 H   0  0  0  0  0  0  0  0  0  0  0  0
   46.4882   33.7731   41.3912 H   0  0  0  0  0  0  0  0  0  0  0  0
   44.9112   36.7933   42.6574 H   0  0  0  0  0  0  0  0  0  0  0  0
   46.6952   33.0278   43.8756 H   0  0  0  0  0  0  0  0  0  0  0  0
   44.2530   35.2757   46.5285 H   0  0  0  0  0  0  0  0  0  0  0  0
   48.0636   36.1021   41.0488 H   0  0  0  0  0  0  0  0  0  0  0  0
   48.0370   35.8168   42.8370 H   0  0  0  0  0  0  0  0  0  0  0  0
   47.8871   33.1814   40.1858 H   0  0  0  0  0  0  0  0  0  0  0  0
   49.5714   31.4007   39.9628 H   0  0  0  0  0  0  0  0  0  0  0  0
   51.6302   31.4759   41.3954 H   0  0  0  0  0  0  0  0  0  0  0  0
   51.9134   33.3418   42.9963 H   0  0  0  0  0  0  0  0  0  0  0  0
   50.2105   35.1024   43.1935 H   0  0  0  0  0  0  0  0  0  0  0  0
  1  8  1  0
  1  3  1  0
  2  7  2  0
  3  2  1  0
  3  4  2  0
  4  5  1  0
  5  6  2  0
  7  6  1  0
  9  8  1  0
  9 14  1  0
 10  9  2  0
 11 10  1  0
 11 12  2  0
 12 13  1  0
 13 14  2  0
  1 15  1  0
  1 16  1  0
  2 17  1  0
  4 18  1  0
  6 19  1  0
  8 20  1  0
  8 21  1  0
 10 22  1  0
 11 23  1  0
 12 24  1  0
 13 25  1  0
 14 26  1  0
M  ISO  8  15   8  16   8  17  14  18  14  19  14  20   8  21   8  22  14
M  ISO  4  23  14  24  14  25  14  26  14
M  END
>  <minimizedAffinity>  (1) 
-4.8478961

>  <minimizedRMSD>  (1) 
2.74720192

$$$$
