
     RDKit          3D

 22 22  0  0  0  0  0  0  0  0999 V2000
   45.6930   35.1290   43.3800 C   0  0  0  0  0  0  0  0  0  0  0  0
   45.9440   34.1730   41.1420 C   0  0  0  0  0  0  0  0  0  0  0  0
   46.4990   34.8700   42.2130 C   0  0  0  0  0  0  0  0  0  0  0  0
   47.8220   35.2860   42.0810 C   0  0  0  0  0  0  0  0  0  0  0  0
   48.4930   34.9920   40.9260 N   0  0  0  0  0  0  0  0  0  0  0  0
   47.9070   34.3110   39.9140 C   0  0  0  0  0  0  0  0  0  0  0  0
   46.6190   33.8940   40.0170 N   0  0  0  0  0  0  0  0  0  0  0  0
   45.6490   33.8780   44.2350 C   0  0  0  0  0  0  0  0  0  0  0  0
   45.3900   34.3270   45.5480 O   0  0  0  0  0  0  0  0  0  0  0  0
   44.8240   33.0310   47.7790 O   0  0  0  0  0  0  0  0  0  0  0  0
   45.7320   33.0140   46.5510 P   0  0  0  0  0  0  0  0  0  0  0  0
   45.5640   31.5780   45.6930 O   0  0  0  0  0  0  0  0  0  0  0  0
   47.3270   33.2130   47.0800 O   0  0  0  0  0  0  0  0  0  0  0  0
   44.6729   35.4010   43.0711 H   0  0  0  0  0  0  0  0  0  0  0  0
   46.1281   35.9587   43.9563 H   0  0  0  0  0  0  0  0  0  0  0  0
   44.9005   33.8347   41.2230 H   0  0  0  0  0  0  0  0  0  0  0  0
   48.3180   35.8409   42.8910 H   0  0  0  0  0  0  0  0  0  0  0  0
   48.4791   34.0934   39.0000 H   0  0  0  0  0  0  0  0  0  0  0  0
   44.8473   33.2068   43.8932 H   0  0  0  0  0  0  0  0  0  0  0  0
   46.5894   33.3103   44.1761 H   0  0  0  0  0  0  0  0  0  0  0  0
   45.4757   30.8230   46.3273 H   0  0  0  0  0  0  0  0  0  0  0  0
   47.3485   33.2157   48.0698 H   0  0  0  0  0  0  0  0  0  0  0  0
  1  8  1  0
  2  3  2  0
  3  1  1  0
  4  3  1  0
  5  4  2  0
  6  7  2  0
  6  5  1  0
  7  2  1  0
  8  9  1  0
  9 11  1  0
 11 13  1  0
 11 10  2  0
 12 11  1  0
  1 14  1  0
  1 15  1  0
  2 16  1  0
  4 17  1  0
  6 18  1  0
  8 19  1  0
  8 20  1  0
 12 21  1  0
 13 22  1  0
M  ISO  8  14   8  15   8  16  14  17  14  18  14  19   8  20   8  21   3
M  ISO  1  22   3
M  END
>  <minimizedAffinity>  (1) 
-4.03362513

>  <minimizedRMSD>  (1) 
4.9304285

$$$$
