
     RDKit          3D

 23 24  0  0  0  0  0  0  0  0999 V2000
   45.2100   36.0010   43.3250 C   0  0  0  0  0  0  0  0  0  0  0  0
   46.0670   34.9110   43.1010 C   0  0  0  0  0  0  0  0  0  0  0  0
   46.2020   33.9730   44.1290 C   0  0  0  0  0  0  0  0  0  0  0  0
   45.4940   34.1840   45.2670 N   0  0  0  0  0  0  0  0  0  0  0  0
   44.6800   35.2440   45.4450 C   0  0  0  0  0  0  0  0  0  0  0  0
   44.5360   36.1640   44.4590 N   0  0  0  0  0  0  0  0  0  0  0  0
   46.7750   34.8000   41.8230 C   0  0  0  0  0  0  0  0  0  0  0  0
   47.7570   33.6520   41.9230 C   0  0  0  0  0  0  0  0  0  0  0  0
   49.1500   34.1170   41.5660 C   0  0  0  0  0  0  0  0  0  0  0  0
   50.3150   33.7550   42.3900 C   0  0  0  0  0  0  0  0  0  0  0  0
   49.7440   35.1490   42.4830 C   0  0  0  0  0  0  0  0  0  0  0  0
   45.0917   36.7509   42.5290 H   0  0  0  0  0  0  0  0  0  0  0  0
   46.8577   33.0967   44.0192 H   0  0  0  0  0  0  0  0  0  0  0  0
   44.1319   35.3628   46.3913 H   0  0  0  0  0  0  0  0  0  0  0  0
   47.3156   35.7351   41.6146 H   0  0  0  0  0  0  0  0  0  0  0  0
   46.0597   34.6175   41.0075 H   0  0  0  0  0  0  0  0  0  0  0  0
   47.7572   33.2639   42.9523 H   0  0  0  0  0  0  0  0  0  0  0  0
   47.4540   32.8614   41.2208 H   0  0  0  0  0  0  0  0  0  0  0  0
   48.9472   34.0151   40.4897 H   0  0  0  0  0  0  0  0  0  0  0  0
   50.1961   33.0563   43.2312 H   0  0  0  0  0  0  0  0  0  0  0  0
   51.3116   33.3383   42.1821 H   0  0  0  0  0  0  0  0  0  0  0  0
   50.2991   36.0039   42.0694 H   0  0  0  0  0  0  0  0  0  0  0  0
   49.3674   35.7923   43.2920 H   0  0  0  0  0  0  0  0  0  0  0  0
  1  6  2  0
  2  1  1  0
  2  3  2  0
  3  4  1  0
  4  5  2  0
  6  5  1  0
  7  8  1  0
  7  2  1  0
  9  8  1  0
  9 10  1  0
  9 11  1  0
 10 11  1  0
  1 12  1  0
  3 13  1  0
  5 14  1  0
  7 15  1  0
  7 16  1  0
  8 17  1  0
  8 18  1  0
  9 19  1  0
 10 20  1  0
 10 21  1  0
 11 22  1  0
 11 23  1  0
M  ISO  8  12  14  13  14  14  14  15   8  16   8  17   8  18   8  19  13
M  ISO  4  20  13  21  13  22  13  23  13
M  END
>  <minimizedAffinity>  (1) 
-4.03206921

>  <minimizedRMSD>  (1) 
1.81356072

$$$$
