
     RDKit          3D

 29 30  0  0  0  0  0  0  0  0999 V2000
   47.0810   32.6590   44.7780 C   0  0  0  0  0  0  0  0  0  0  0  0
   46.4880   34.5290   43.2900 C   0  0  0  0  0  0  0  0  0  0  0  0
   46.2760   33.8560   44.4860 C   0  0  0  0  0  0  0  0  0  0  0  0
   45.3430   34.2560   45.4190 C   0  0  0  0  0  0  0  0  0  0  0  0
   44.5930   35.3780   45.1360 C   0  0  0  0  0  0  0  0  0  0  0  0
   44.7330   36.0980   43.9930 C   0  0  0  0  0  0  0  0  0  0  0  0
   45.6890   35.6380   43.1000 C   0  0  0  0  0  0  0  0  0  0  0  0
   47.6640   34.0510   42.0860 S   0  0  0  0  0  0  0  0  0  0  0  0
   48.9990   34.7120   42.2890 O   0  0  0  0  0  0  0  0  0  0  0  0
   47.1810   34.5450   40.7350 O   0  0  0  0  0  0  0  0  0  0  0  0
   46.3320   31.6140   45.5980 C   0  0  0  0  0  0  0  0  0  0  0  0
   47.3780   32.1400   47.7760 C   0  0  0  0  0  0  0  0  0  0  0  0
   47.1700   31.2310   46.7120 C   0  0  0  0  0  0  0  0  0  0  0  0
   47.8070   29.9940   46.8140 C   0  0  0  0  0  0  0  0  0  0  0  0
   48.5730   29.7360   47.9050 N   0  0  0  0  0  0  0  0  0  0  0  0
   48.7510   30.6210   48.8980 C   0  0  0  0  0  0  0  0  0  0  0  0
   48.1550   31.8140   48.8290 N   0  0  0  0  0  0  0  0  0  0  0  0
   47.9752   32.9679   45.3391 H   0  0  0  0  0  0  0  0  0  0  0  0
   47.3366   32.1950   43.8140 H   0  0  0  0  0  0  0  0  0  0  0  0
   45.2017   33.6991   46.3571 H   0  0  0  0  0  0  0  0  0  0  0  0
   43.8445   35.7060   45.8723 H   0  0  0  0  0  0  0  0  0  0  0  0
   44.1251   36.9916   43.7881 H   0  0  0  0  0  0  0  0  0  0  0  0
   45.8211   36.2024   42.1651 H   0  0  0  0  0  0  0  0  0  0  0  0
   47.7983   32.6904   42.1740 H   0  0  0  0  0  0  0  0  0  0  0  0
   45.3882   32.0388   45.9704 H   0  0  0  0  0  0  0  0  0  0  0  0
   46.1005   30.7365   44.9764 H   0  0  0  0  0  0  0  0  0  0  0  0
   46.8979   33.1292   47.7439 H   0  0  0  0  0  0  0  0  0  0  0  0
   47.6904   29.2391   46.0225 H   0  0  0  0  0  0  0  0  0  0  0  0
   49.3826   30.3658   49.7617 H   0  0  0  0  0  0  0  0  0  0  0  0
  1 11  1  0
  2  3  2  0
  3  1  1  0
  3  4  1  0
  5  4  2  0
  6  5  1  0
  7  2  1  0
  7  6  2  0
  8  9  2  0
  8  2  1  0
 10  8  2  0
 11 13  1  0
 12 17  2  0
 13 14  2  0
 13 12  1  0
 14 15  1  0
 15 16  2  0
 17 16  1  0
  1 18  1  0
  1 19  1  0
  4 20  1  0
  5 21  1  0
  6 22  1  0
  7 23  1  0
  8 24  1  0
 11 25  1  0
 11 26  1  0
 12 27  1  0
 14 28  1  0
 16 29  1  0
M  ISO  8  18   8  19   8  20  14  21  14  22  14  23  14  24  11  25   8
M  ISO  4  26   8  27  14  28  14  29  14
M  END
>  <minimizedAffinity>  (1) 
-4.66508675

>  <minimizedRMSD>  (1) 
5.32518148

$$$$
