
     RDKit          3D

 38 40  0  0  0  0  0  0  0  0999 V2000
   46.2970   31.6960   45.6730 C   0  0  0  0  0  0  0  0  0  0  0  0
   47.4190   32.4020   47.7770 C   0  0  0  0  0  0  0  0  0  0  0  0
   47.1930   31.4140   46.7850 C   0  0  0  0  0  0  0  0  0  0  0  0
   47.8640   30.1970   46.9240 C   0  0  0  0  0  0  0  0  0  0  0  0
   48.6900   30.0320   47.9960 N   0  0  0  0  0  0  0  0  0  0  0  0
   48.8770   30.9870   48.9090 C   0  0  0  0  0  0  0  0  0  0  0  0
   48.2490   32.1630   48.8060 N   0  0  0  0  0  0  0  0  0  0  0  0
   49.7730   30.7740   50.0500 C   0  0  0  0  0  0  0  0  0  0  0  0
   50.5270   31.8460   50.5230 C   0  0  0  0  0  0  0  0  0  0  0  0
   51.3530   31.5980   51.5950 C   0  0  0  0  0  0  0  0  0  0  0  0
   51.4440   30.3490   52.1910 C   0  0  0  0  0  0  0  0  0  0  0  0
   50.6790   29.3230   51.6870 C   0  0  0  0  0  0  0  0  0  0  0  0
   49.8860   29.5770   50.6510 N   0  0  0  0  0  0  0  0  0  0  0  0
   47.0160   32.6410   44.7220 C   0  0  0  0  0  0  0  0  0  0  0  0
   46.5150   34.5140   43.2210 C   0  0  0  0  0  0  0  0  0  0  0  0
   46.2470   33.8570   44.4100 C   0  0  0  0  0  0  0  0  0  0  0  0
   45.3080   34.2760   45.3110 C   0  0  0  0  0  0  0  0  0  0  0  0
   44.5930   35.4130   45.0160 C   0  0  0  0  0  0  0  0  0  0  0  0
   44.7790   36.1300   43.8770 C   0  0  0  0  0  0  0  0  0  0  0  0
   45.7520   35.6440   43.0070 C   0  0  0  0  0  0  0  0  0  0  0  0
   47.6990   34.0180   42.0510 S   0  0  0  0  0  0  0  0  0  0  0  0
   49.0680   34.6060   42.3160 O   0  0  0  0  0  0  0  0  0  0  0  0
   47.3060   34.5860   40.6950 O   0  0  0  0  0  0  0  0  0  0  0  0
   46.0435   30.7616   45.1509 H   0  0  0  0  0  0  0  0  0  0  0  0
   45.3658   32.1542   46.0376 H   0  0  0  0  0  0  0  0  0  0  0  0
   46.9094   33.3741   47.7031 H   0  0  0  0  0  0  0  0  0  0  0  0
   47.7294   29.3917   46.1869 H   0  0  0  0  0  0  0  0  0  0  0  0
   50.4649   32.8426   50.0616 H   0  0  0  0  0  0  0  0  0  0  0  0
   51.9640   32.4210   51.9942 H   0  0  0  0  0  0  0  0  0  0  0  0
   52.1133   30.1825   53.0480 H   0  0  0  0  0  0  0  0  0  0  0  0
   50.7224   28.3172   52.1303 H   0  0  0  0  0  0  0  0  0  0  0  0
   47.9689   32.9403   45.1828 H   0  0  0  0  0  0  0  0  0  0  0  0
   47.1622   32.0989   43.7761 H   0  0  0  0  0  0  0  0  0  0  0  0
   45.1298   33.7205   46.2436 H   0  0  0  0  0  0  0  0  0  0  0  0
   43.8356   35.7579   45.7353 H   0  0  0  0  0  0  0  0  0  0  0  0
   44.1977   37.0373   43.6559 H   0  0  0  0  0  0  0  0  0  0  0  0
   45.9259   36.2046   42.0767 H   0  0  0  0  0  0  0  0  0  0  0  0
   47.7451   32.6499   42.1063 H   0  0  0  0  0  0  0  0  0  0  0  0
  1  3  1  0
  2  7  2  0
  3  4  2  0
  3  2  1  0
  4  5  1  0
  5  6  2  0
  6  8  1  0
  7  6  1  0
  8  9  2  0
  8 13  1  0
  9 10  1  0
 10 11  2  0
 12 11  1  0
 13 12  2  0
 14  1  1  0
 15 16  2  0
 16 14  1  0
 16 17  1  0
 18 17  2  0
 19 18  1  0
 20 15  1  0
 20 19  2  0
 21 22  2  0
 21 15  1  0
 23 21  2  0
  1 24  1  0
  1 25  1  0
  2 26  1  0
  4 27  1  0
  9 28  1  0
 10 29  1  0
 11 30  1  0
 12 31  1  0
 14 32  1  0
 14 33  1  0
 17 34  1  0
 18 35  1  0
 19 36  1  0
 20 37  1  0
 21 38  1  0
M  ISO  8  24   8  25   8  26  14  27  14  28  14  29  14  30  14  31  14
M  ISO  7  32   8  33   8  34  14  35  14  36  14  37  14  38  11
M  END
>  <minimizedAffinity>  (1) 
-5.96362209

>  <minimizedRMSD>  (1) 
0.368271202

$$$$
