
     RDKit          3D

 43 45  0  0  0  0  0  0  0  0999 V2000
   46.1300   31.8430   45.8970 C   0  0  0  0  0  0  0  0  0  0  0  0
   47.5610   32.3650   47.8500 C   0  0  0  0  0  0  0  0  0  0  0  0
   46.9910   31.4120   46.9890 C   0  0  0  0  0  0  0  0  0  0  0  0
   47.2930   30.0710   47.2300 C   0  0  0  0  0  0  0  0  0  0  0  0
   48.1130   29.7700   48.2730 N   0  0  0  0  0  0  0  0  0  0  0  0
   48.6460   30.7120   49.0840 C   0  0  0  0  0  0  0  0  0  0  0  0
   48.3620   31.9850   48.8600 N   0  0  0  0  0  0  0  0  0  0  0  0
   49.5200   30.2600   50.1860 C   0  0  0  0  0  0  0  0  0  0  0  0
   50.3950   31.3460   50.7560 C   0  0  0  0  0  0  0  0  0  0  0  0
   51.7630   31.2530   50.0920 C   0  0  0  0  0  0  0  0  0  0  0  0
   51.6400   30.9380   48.7430 O   0  0  0  0  0  0  0  0  0  0  0  0
   51.2640   29.6240   48.5880 C   0  0  0  0  0  0  0  0  0  0  0  0
   50.4010   29.1270   49.7190 C   0  0  0  0  0  0  0  0  0  0  0  0
   46.9580   32.7220   44.9780 C   0  0  0  0  0  0  0  0  0  0  0  0
   46.6110   34.4970   43.3040 C   0  0  0  0  0  0  0  0  0  0  0  0
   46.2280   33.9220   44.5050 C   0  0  0  0  0  0  0  0  0  0  0  0
   45.2100   34.4120   45.2830 C   0  0  0  0  0  0  0  0  0  0  0  0
   44.5400   35.5340   44.8410 C   0  0  0  0  0  0  0  0  0  0  0  0
   44.8460   36.1610   43.6820 C   0  0  0  0  0  0  0  0  0  0  0  0
   45.8890   35.6120   42.9410 C   0  0  0  0  0  0  0  0  0  0  0  0
   47.8920   33.9090   42.2900 S   0  0  0  0  0  0  0  0  0  0  0  0
   49.2510   34.3000   42.7730 O   0  0  0  0  0  0  0  0  0  0  0  0
   47.7680   34.5770   40.9230 O   0  0  0  0  0  0  0  0  0  0  0  0
   45.7589   30.9674   45.3442 H   0  0  0  0  0  0  0  0  0  0  0  0
   45.2636   32.3986   46.2850 H   0  0  0  0  0  0  0  0  0  0  0  0
   47.3494   33.4334   47.6957 H   0  0  0  0  0  0  0  0  0  0  0  0
   46.8781   29.2767   46.5921 H   0  0  0  0  0  0  0  0  0  0  0  0
   48.8416   29.9331   50.9878 H   0  0  0  0  0  0  0  0  0  0  0  0
   49.9480   32.3300   50.5515 H   0  0  0  0  0  0  0  0  0  0  0  0
   50.4921   31.2233   51.8448 H   0  0  0  0  0  0  0  0  0  0  0  0
   52.2775   32.2203   50.1904 H   0  0  0  0  0  0  0  0  0  0  0  0
   52.3404   30.4583   50.5870 H   0  0  0  0  0  0  0  0  0  0  0  0
   50.7011   29.5279   47.6478 H   0  0  0  0  0  0  0  0  0  0  0  0
   52.1805   29.0158   48.5784 H   0  0  0  0  0  0  0  0  0  0  0  0
   49.7764   28.2918   49.3692 H   0  0  0  0  0  0  0  0  0  0  0  0
   51.0332   28.7762   50.5480 H   0  0  0  0  0  0  0  0  0  0  0  0
   47.8551   33.0507   45.5232 H   0  0  0  0  0  0  0  0  0  0  0  0
   47.2104   32.1220   44.0913 H   0  0  0  0  0  0  0  0  0  0  0  0
   44.9362   33.9250   46.2306 H   0  0  0  0  0  0  0  0  0  0  0  0
   43.7222   35.9359   45.4572 H   0  0  0  0  0  0  0  0  0  0  0  0
   44.3011   37.0548   43.3439 H   0  0  0  0  0  0  0  0  0  0  0  0
   46.1563   36.1057   41.9951 H   0  0  0  0  0  0  0  0  0  0  0  0
   47.7731   32.5443   42.2746 H   0  0  0  0  0  0  0  0  0  0  0  0
  1  3  1  0
  2  7  2  0
  3  4  2  0
  3  2  1  0
  4  5  1  0
  5  6  2  0
  6  8  1  0
  7  6  1  0
  8  9  1  0
 10  9  1  0
 11 10  1  0
 12 11  1  0
 12 13  1  0
 13  8  1  0
 14  1  1  0
 15 16  2  0
 16 14  1  0
 16 17  1  0
 18 17  2  0
 19 18  1  0
 20 15  1  0
 20 19  2  0
 21 22  2  0
 21 15  1  0
 23 21  2  0
  1 24  1  0
  1 25  1  0
  2 26  1  0
  4 27  1  0
  8 28  1  0
  9 29  1  0
  9 30  1  0
 10 31  1  0
 10 32  1  0
 12 33  1  0
 12 34  1  0
 13 35  1  0
 13 36  1  0
 14 37  1  0
 14 38  1  0
 17 39  1  0
 18 40  1  0
 19 41  1  0
 20 42  1  0
 21 43  1  0
M  ISO  8  24   8  25   8  26  14  27  14  28  13  29  13  30  13  31  13
M  ISO  8  32  13  33  13  34  13  35  13  36  13  37   8  38   8  39  14
M  ISO  4  40  14  41  14  42  14  43  11
M  END
>  <minimizedAffinity>  (1) 
-5.63222933

>  <minimizedRMSD>  (1) 
1.20180595

$$$$
