
     RDKit          3D

 35 37  0  0  0  0  0  0  0  0999 V2000
   46.3810   31.6040   45.6230 C   0  0  0  0  0  0  0  0  0  0  0  0
   47.3900   32.2450   47.8020 C   0  0  0  0  0  0  0  0  0  0  0  0
   47.2610   31.3160   46.7430 C   0  0  0  0  0  0  0  0  0  0  0  0
   48.0110   30.1460   46.8440 C   0  0  0  0  0  0  0  0  0  0  0  0
   48.8030   29.9580   47.9170 N   0  0  0  0  0  0  0  0  0  0  0  0
   48.9010   30.8670   48.9070 C   0  0  0  0  0  0  0  0  0  0  0  0
   48.1990   32.0010   48.8480 N   0  0  0  0  0  0  0  0  0  0  0  0
   49.8120   30.5250   50.0270 C   0  0  0  0  0  0  0  0  0  0  0  0
   50.1630   29.2180   50.5040 C   0  0  0  0  0  0  0  0  0  0  0  0
   51.3150   29.7090   51.8830 S   0  0  0  0  0  0  0  0  0  0  0  0
   51.0910   31.5660   51.5390 C   0  0  0  0  0  0  0  0  0  0  0  0
   50.2560   31.6800   50.5210 N   0  0  0  0  0  0  0  0  0  0  0  0
   47.0810   32.6230   44.7390 C   0  0  0  0  0  0  0  0  0  0  0  0
   46.4990   34.5040   43.2740 C   0  0  0  0  0  0  0  0  0  0  0  0
   46.2840   33.8250   44.4590 C   0  0  0  0  0  0  0  0  0  0  0  0
   45.3630   34.2120   45.3900 C   0  0  0  0  0  0  0  0  0  0  0  0
   44.6110   35.3400   45.1320 C   0  0  0  0  0  0  0  0  0  0  0  0
   44.7500   36.0730   43.9970 C   0  0  0  0  0  0  0  0  0  0  0  0
   45.7050   35.6230   43.0920 C   0  0  0  0  0  0  0  0  0  0  0  0
   47.6600   34.0530   42.0570 S   0  0  0  0  0  0  0  0  0  0  0  0
   48.9930   34.7420   42.2560 O   0  0  0  0  0  0  0  0  0  0  0  0
   47.1850   34.5560   40.7160 O   0  0  0  0  0  0  0  0  0  0  0  0
   46.1861   30.6837   45.0528 H   0  0  0  0  0  0  0  0  0  0  0  0
   45.4181   31.9986   45.9797 H   0  0  0  0  0  0  0  0  0  0  0  0
   46.8181   33.1841   47.7692 H   0  0  0  0  0  0  0  0  0  0  0  0
   47.9567   29.3824   46.0541 H   0  0  0  0  0  0  0  0  0  0  0  0
   49.8463   28.2229   50.1584 H   0  0  0  0  0  0  0  0  0  0  0  0
   51.5682   32.3924   52.0862 H   0  0  0  0  0  0  0  0  0  0  0  0
   48.0099   32.9338   45.2395 H   0  0  0  0  0  0  0  0  0  0  0  0
   47.2623   32.1313   43.7719 H   0  0  0  0  0  0  0  0  0  0  0  0
   45.2244   33.6406   46.3197 H   0  0  0  0  0  0  0  0  0  0  0  0
   43.8674   35.6590   45.8772 H   0  0  0  0  0  0  0  0  0  0  0  0
   44.1428   36.9699   43.8050 H   0  0  0  0  0  0  0  0  0  0  0  0
   45.8392   36.1981   42.1640 H   0  0  0  0  0  0  0  0  0  0  0  0
   47.7911   32.6914   42.1329 H   0  0  0  0  0  0  0  0  0  0  0  0
  1  3  1  0
  2  7  2  0
  3  4  2  0
  3  2  1  0
  4  5  1  0
  5  6  2  0
  6  8  1  0
  7  6  1  0
  8  9  2  0
  8 12  1  0
  9 10  1  0
 11 10  1  0
 12 11  2  0
 13  1  1  0
 14 15  2  0
 15 13  1  0
 15 16  1  0
 17 16  2  0
 18 17  1  0
 19 14  1  0
 19 18  2  0
 20 21  2  0
 20 14  1  0
 22 20  2  0
  1 23  1  0
  1 24  1  0
  2 25  1  0
  4 26  1  0
  9 27  1  0
 11 28  1  0
 13 29  1  0
 13 30  1  0
 16 31  1  0
 17 32  1  0
 18 33  1  0
 19 34  1  0
 20 35  1  0
M  ISO  8  23   8  24   8  25  14  26  14  27  14  28  14  29   8  30   8
M  ISO  5  31  14  32  14  33  14  34  14  35  11
M  END
>  <minimizedAffinity>  (1) 
-5.63030338

>  <minimizedRMSD>  (1) 
0.306643218

$$$$
