
     RDKit          3D

 36 37  0  0  0  0  0  0  0  0999 V2000
   47.0700   32.7530   44.6190 C   0  0  0  0  0  0  0  0  0  0  0  0
   46.4950   34.6340   43.1450 C   0  0  0  0  0  0  0  0  0  0  0  0
   46.2640   33.9520   44.3230 C   0  0  0  0  0  0  0  0  0  0  0  0
   45.3170   34.3360   45.2410 C   0  0  0  0  0  0  0  0  0  0  0  0
   44.5620   35.4530   44.9730 C   0  0  0  0  0  0  0  0  0  0  0  0
   44.7210   36.1880   43.8330 C   0  0  0  0  0  0  0  0  0  0  0  0
   45.6990   35.7410   42.9490 C   0  0  0  0  0  0  0  0  0  0  0  0
   47.6850   34.1860   41.9570 S   0  0  0  0  0  0  0  0  0  0  0  0
   48.9540   35.0070   42.0600 O   0  0  0  0  0  0  0  0  0  0  0  0
   47.1470   34.5150   40.5800 O   0  0  0  0  0  0  0  0  0  0  0  0
   46.3220   31.6980   45.4160 C   0  0  0  0  0  0  0  0  0  0  0  0
   47.1730   32.2790   47.6790 C   0  0  0  0  0  0  0  0  0  0  0  0
   47.1270   31.3720   46.5840 C   0  0  0  0  0  0  0  0  0  0  0  0
   47.8840   30.2040   46.6960 C   0  0  0  0  0  0  0  0  0  0  0  0
   48.6120   29.9870   47.8140 N   0  0  0  0  0  0  0  0  0  0  0  0
   48.6290   30.8760   48.8340 C   0  0  0  0  0  0  0  0  0  0  0  0
   47.9200   31.9910   48.7520 N   0  0  0  0  0  0  0  0  0  0  0  0
   49.4240   30.6180   50.0270 C   0  0  0  0  0  0  0  0  0  0  0  0
   50.4070   31.3770   50.4800 C   0  0  0  0  0  0  0  0  0  0  0  0
   51.0750   32.6360   50.0830 C   0  0  0  0  0  0  0  0  0  0  0  0
   47.9542   33.0622   45.1956 H   0  0  0  0  0  0  0  0  0  0  0  0
   47.3375   32.2982   43.6538 H   0  0  0  0  0  0  0  0  0  0  0  0
   45.1665   33.7635   46.1681 H   0  0  0  0  0  0  0  0  0  0  0  0
   43.8018   35.7664   45.7037 H   0  0  0  0  0  0  0  0  0  0  0  0
   44.1123   37.0804   43.6256 H   0  0  0  0  0  0  0  0  0  0  0  0
   45.8476   36.3158   42.0230 H   0  0  0  0  0  0  0  0  0  0  0  0
   47.9482   32.8576   42.1641 H   0  0  0  0  0  0  0  0  0  0  0  0
   45.3445   32.0908   45.7325 H   0  0  0  0  0  0  0  0  0  0  0  0
   46.1520   30.8007   44.8028 H   0  0  0  0  0  0  0  0  0  0  0  0
   46.5961   33.2149   47.6441 H   0  0  0  0  0  0  0  0  0  0  0  0
   47.8879   29.4659   45.8804 H   0  0  0  0  0  0  0  0  0  0  0  0
   49.1852   29.7111   50.6020 H   0  0  0  0  0  0  0  0  0  0  0  0
   50.8462   30.9608   51.3987 H   0  0  0  0  0  0  0  0  0  0  0  0
   51.3710   33.1938   50.9837 H   0  0  0  0  0  0  0  0  0  0  0  0
   51.9687   32.4042   49.4851 H   0  0  0  0  0  0  0  0  0  0  0  0
   50.3820   33.2461   49.4851 H   0  0  0  0  0  0  0  0  0  0  0  0
  1 11  1  0
  2  3  2  0
  3  1  1  0
  3  4  1  0
  5  4  2  0
  6  5  1  0
  7  2  1  0
  7  6  2  0
  8  9  2  0
  8  2  1  0
 10  8  2  0
 11 13  1  0
 12 17  2  0
 13 14  2  0
 13 12  1  0
 14 15  1  0
 15 16  2  0
 16 18  1  0
 17 16  1  0
 18 19  2  0
 20 19  1  0
  1 21  1  0
  1 22  1  0
  4 23  1  0
  5 24  1  0
  6 25  1  0
  7 26  1  0
  8 27  1  0
 11 28  1  0
 11 29  1  0
 12 30  1  0
 14 31  1  0
 18 32  1  0
 19 33  1  0
 20 34  1  0
 20 35  1  0
 20 36  1  0
M  ISO  8  21   8  22   8  23  14  24  14  25  14  26  14  27  11  28   8
M  ISO  6  29   8  30  14  31  14  34   8  35   8  36   8
M  END
>  <minimizedAffinity>  (1) 
-5.4689908

>  <minimizedRMSD>  (1) 
0.39707607

$$$$
