
     RDKit          3D

 31 32  0  0  0  0  0  0  0  0999 V2000
   47.0770   32.7470   44.6530 C   0  0  0  0  0  0  0  0  0  0  0  0
   46.7080   34.6120   43.0850 C   0  0  0  0  0  0  0  0  0  0  0  0
   46.3160   33.9490   44.2380 C   0  0  0  0  0  0  0  0  0  0  0  0
   45.2640   34.3630   45.0220 C   0  0  0  0  0  0  0  0  0  0  0  0
   44.5730   35.4860   44.6410 C   0  0  0  0  0  0  0  0  0  0  0  0
   44.8890   36.1970   43.5260 C   0  0  0  0  0  0  0  0  0  0  0  0
   45.9520   35.7350   42.7800 C   0  0  0  0  0  0  0  0  0  0  0  0
   48.0290   34.1280   42.0650 S   0  0  0  0  0  0  0  0  0  0  0  0
   49.3660   34.5700   42.6120 O   0  0  0  0  0  0  0  0  0  0  0  0
   47.9070   34.8460   40.7320 O   0  0  0  0  0  0  0  0  0  0  0  0
   46.2220   31.7240   45.3740 C   0  0  0  0  0  0  0  0  0  0  0  0
   47.2180   32.3410   47.5610 C   0  0  0  0  0  0  0  0  0  0  0  0
   46.9130   31.3540   46.6000 C   0  0  0  0  0  0  0  0  0  0  0  0
   47.3070   30.0480   46.8870 C   0  0  0  0  0  0  0  0  0  0  0  0
   47.9510   29.7980   48.0530 N   0  0  0  0  0  0  0  0  0  0  0  0
   48.2260   30.7590   48.9430 C   0  0  0  0  0  0  0  0  0  0  0  0
   47.8600   32.0070   48.6890 N   0  0  0  0  0  0  0  0  0  0  0  0
   48.9060   30.4400   50.1510 N   0  0  0  0  0  0  0  0  0  0  0  0
   47.8892   33.0612   45.3251 H   0  0  0  0  0  0  0  0  0  0  0  0
   47.4612   32.2694   43.7396 H   0  0  0  0  0  0  0  0  0  0  0  0
   44.9841   33.8087   45.9300 H   0  0  0  0  0  0  0  0  0  0  0  0
   43.7304   35.8241   45.2621 H   0  0  0  0  0  0  0  0  0  0  0  0
   44.3250   37.0952   43.2341 H   0  0  0  0  0  0  0  0  0  0  0  0
   46.2213   36.2989   41.8748 H   0  0  0  0  0  0  0  0  0  0  0  0
   47.9707   32.7624   41.9715 H   0  0  0  0  0  0  0  0  0  0  0  0
   45.2404   32.1586   45.6139 H   0  0  0  0  0  0  0  0  0  0  0  0
   46.0631   30.8394   44.7397 H   0  0  0  0  0  0  0  0  0  0  0  0
   46.9281   33.3872   47.3839 H   0  0  0  0  0  0  0  0  0  0  0  0
   47.0985   29.2331   46.1782 H   0  0  0  0  0  0  0  0  0  0  0  0
   49.1166   31.1811   50.8346 H   0  0  0  0  0  0  0  0  0  0  0  0
   49.1877   29.4679   50.3421 H   0  0  0  0  0  0  0  0  0  0  0  0
  1 11  1  0
  2  3  2  0
  3  1  1  0
  3  4  1  0
  5  4  2  0
  6  5  1  0
  7  2  1  0
  7  6  2  0
  8  9  2  0
  8  2  1  0
 10  8  2  0
 11 13  1  0
 12 17  2  0
 13 14  2  0
 13 12  1  0
 14 15  1  0
 15 16  2  0
 16 18  1  0
 17 16  1  0
  1 19  1  0
  1 20  1  0
  4 21  1  0
  5 22  1  0
  6 23  1  0
  7 24  1  0
  8 25  1  0
 11 26  1  0
 11 27  1  0
 12 28  1  0
 14 29  1  0
 18 30  1  0
 18 31  1  0
M  ISO  8  19   8  20   8  21  14  22  14  23  14  24  14  25  11  26   8
M  ISO  3  27   8  28  14  29  14
M  END
>  <minimizedAffinity>  (1) 
-5.26728106

>  <minimizedRMSD>  (1) 
0.466972888

$$$$
