
     RDKit          3D

 35 36  0  0  0  0  0  0  0  0999 V2000
   47.0080   32.7900   44.6380 C   0  0  0  0  0  0  0  0  0  0  0  0
   46.4270   34.6760   43.1680 C   0  0  0  0  0  0  0  0  0  0  0  0
   46.2120   33.9920   44.3520 C   0  0  0  0  0  0  0  0  0  0  0  0
   45.2880   34.3800   45.2820 C   0  0  0  0  0  0  0  0  0  0  0  0
   44.5360   35.5050   45.0220 C   0  0  0  0  0  0  0  0  0  0  0  0
   44.6780   36.2400   43.8830 C   0  0  0  0  0  0  0  0  0  0  0  0
   45.6380   35.7860   42.9860 C   0  0  0  0  0  0  0  0  0  0  0  0
   47.5960   34.2160   41.9560 S   0  0  0  0  0  0  0  0  0  0  0  0
   48.8150   35.0770   41.9630 O   0  0  0  0  0  0  0  0  0  0  0  0
   46.9710   34.4270   40.5840 O   0  0  0  0  0  0  0  0  0  0  0  0
   46.2660   31.7110   45.3970 C   0  0  0  0  0  0  0  0  0  0  0  0
   47.2860   32.2960   47.5880 C   0  0  0  0  0  0  0  0  0  0  0  0
   47.0630   31.3650   46.5600 C   0  0  0  0  0  0  0  0  0  0  0  0
   47.6560   30.1060   46.7320 C   0  0  0  0  0  0  0  0  0  0  0  0
   48.3870   29.8570   47.8410 N   0  0  0  0  0  0  0  0  0  0  0  0
   48.5770   30.7730   48.8020 C   0  0  0  0  0  0  0  0  0  0  0  0
   48.0280   31.9750   48.6690 N   0  0  0  0  0  0  0  0  0  0  0  0
   49.3870   30.4720   50.0120 C   0  0  0  0  0  0  0  0  0  0  0  0
   50.3500   31.5890   50.3390 C   0  0  0  0  0  0  0  0  0  0  0  0
   47.8818   33.0907   45.2347 H   0  0  0  0  0  0  0  0  0  0  0  0
   47.2802   32.3564   43.6644 H   0  0  0  0  0  0  0  0  0  0  0  0
   45.1487   33.8097   46.2123 H   0  0  0  0  0  0  0  0  0  0  0  0
   43.7898   35.8232   45.7649 H   0  0  0  0  0  0  0  0  0  0  0  0
   44.0711   37.1360   43.6860 H   0  0  0  0  0  0  0  0  0  0  0  0
   45.7768   36.3602   42.0581 H   0  0  0  0  0  0  0  0  0  0  0  0
   47.9451   32.9186   42.2240 H   0  0  0  0  0  0  0  0  0  0  0  0
   45.2817   32.0853   45.7148 H   0  0  0  0  0  0  0  0  0  0  0  0
   46.1096   30.8283   44.7595 H   0  0  0  0  0  0  0  0  0  0  0  0
   46.8491   33.3025   47.5109 H   0  0  0  0  0  0  0  0  0  0  0  0
   47.5268   29.3251   45.9682 H   0  0  0  0  0  0  0  0  0  0  0  0
   48.7093   30.3257   50.8660 H   0  0  0  0  0  0  0  0  0  0  0  0
   49.9745   29.5640   49.8110 H   0  0  0  0  0  0  0  0  0  0  0  0
   50.4372   31.6901   51.4309 H   0  0  0  0  0  0  0  0  0  0  0  0
   51.3373   31.3587   49.9121 H   0  0  0  0  0  0  0  0  0  0  0  0
   49.9768   32.5316   49.9121 H   0  0  0  0  0  0  0  0  0  0  0  0
  1 11  1  0
  2  3  2  0
  3  1  1  0
  3  4  1  0
  5  4  2  0
  6  5  1  0
  7  2  1  0
  7  6  2  0
  8  9  2  0
  8  2  1  0
 10  8  2  0
 11 13  1  0
 12 17  2  0
 13 14  2  0
 13 12  1  0
 14 15  1  0
 15 16  2  0
 16 18  1  0
 17 16  1  0
 18 19  1  0
  1 20  1  0
  1 21  1  0
  4 22  1  0
  5 23  1  0
  6 24  1  0
  7 25  1  0
  8 26  1  0
 11 27  1  0
 11 28  1  0
 12 29  1  0
 14 30  1  0
 18 31  1  0
 18 32  1  0
 19 33  1  0
 19 34  1  0
 19 35  1  0
M  ISO  8  20   8  21   8  22  14  23  14  24  14  25  14  26  11  27   8
M  ISO  8  28   8  29  14  30  14  31   8  32   8  33   8  34   8  35   8
M  END
>  <minimizedAffinity>  (1) 
-5.16180086

>  <minimizedRMSD>  (1) 
0.427003801

$$$$
