
     RDKit          3D

 18 18  0  0  0  0  0  0  0  0999 V2000
   45.4290   35.3520   43.8760 C   0  0  0  0  0  0  0  0  0  0  0  0
   46.5310   34.7180   43.2730 C   0  0  0  0  0  0  0  0  0  0  0  0
   47.1070   33.6060   43.9500 C   0  0  0  0  0  0  0  0  0  0  0  0
   46.5540   33.2370   45.1290 N   0  0  0  0  0  0  0  0  0  0  0  0
   45.5050   33.8710   45.6640 C   0  0  0  0  0  0  0  0  0  0  0  0
   44.9480   34.9180   45.0450 N   0  0  0  0  0  0  0  0  0  0  0  0
   44.8440   36.4590   43.2150 N   0  0  0  0  0  0  0  0  0  0  0  0
   47.0660   35.1210   42.0740 O   0  0  0  0  0  0  0  0  0  0  0  0
   49.0030   33.4790   41.3130 O   0  0  0  0  0  0  0  0  0  0  0  0
   48.7280   34.9250   41.7130 P   0  0  0  0  0  0  0  0  0  0  0  0
   49.6130   35.3120   43.1020 O   0  0  0  0  0  0  0  0  0  0  0  0
   49.1610   35.9240   40.4250 O   0  0  0  0  0  0  0  0  0  0  0  0
   47.9692   33.0668   43.5306 H   0  0  0  0  0  0  0  0  0  0  0  0
   45.0950   33.5272   46.6251 H   0  0  0  0  0  0  0  0  0  0  0  0
   45.2259   36.7818   42.3145 H   0  0  0  0  0  0  0  0  0  0  0  0
   44.0365   36.9415   43.6346 H   0  0  0  0  0  0  0  0  0  0  0  0
   49.0835   35.0805   43.9058 H   0  0  0  0  0  0  0  0  0  0  0  0
   49.5292   36.7735   40.7756 H   0  0  0  0  0  0  0  0  0  0  0  0
  1  6  2  0
  2  1  1  0
  2  3  2  0
  3  4  1  0
  4  5  2  0
  6  5  1  0
  7  1  1  0
  8  2  1  0
  9 10  2  0
 10  8  1  0
 10 11  1  0
 12 10  1  0
  3 13  1  0
  5 14  1  0
  7 15  1  0
  7 16  1  0
 11 17  1  0
 12 18  1  0
M  ISO  4  13  14  14  14  17   3  18   3
M  END
>  <minimizedAffinity>  (1) 
-4.57617426

>  <minimizedRMSD>  (1) 
0.935609937

$$$$
