
     RDKit          3D

 19 20  0  0  0  0  0  0  0  0999 V2000
   45.5000   31.5320   47.5890 C   0  0  0  0  0  0  0  0  0  0  0  0
   46.0400   32.2770   46.5270 C   0  0  0  0  0  0  0  0  0  0  0  0
   47.1530   31.7790   45.8330 C   0  0  0  0  0  0  0  0  0  0  0  0
   47.6340   30.5840   46.2510 N   0  0  0  0  0  0  0  0  0  0  0  0
   47.1190   29.8750   47.2610 C   0  0  0  0  0  0  0  0  0  0  0  0
   46.0470   30.3630   47.9240 N   0  0  0  0  0  0  0  0  0  0  0  0
   44.3800   32.0250   48.2950 N   0  0  0  0  0  0  0  0  0  0  0  0
   45.4420   33.5400   46.1720 C   0  0  0  0  0  0  0  0  0  0  0  0
   45.4730   34.1010   44.9100 C   0  0  0  0  0  0  0  0  0  0  0  0
   44.7840   35.3030   45.0110 C   0  0  0  0  0  0  0  0  0  0  0  0
   44.3830   35.4020   46.3000 N   0  0  0  0  0  0  0  0  0  0  0  0
   44.7800   34.3340   47.0080 N   0  0  0  0  0  0  0  0  0  0  0  0
   47.6093   32.3283   44.9963 H   0  0  0  0  0  0  0  0  0  0  0  0
   47.5610   28.9094   47.5479 H   0  0  0  0  0  0  0  0  0  0  0  0
   43.9620   32.9287   48.0314 H   0  0  0  0  0  0  0  0  0  0  0  0
   43.9814   31.4807   49.0733 H   0  0  0  0  0  0  0  0  0  0  0  0
   45.9462   33.6819   44.0098 H   0  0  0  0  0  0  0  0  0  0  0  0
   44.6010   36.0289   44.2050 H   0  0  0  0  0  0  0  0  0  0  0  0
   43.8452   36.1914   46.6855 H   0  0  0  0  0  0  0  0  0  0  0  0
  1  6  2  0
  1  7  1  0
  2  1  1  0
  3  4  1  0
  3  2  2  0
  4  5  2  0
  5  6  1  0
  8  2  1  0
  8 12  2  0
  9 10  2  0
  9  8  1  0
 10 11  1  0
 11 12  1  0
  3 13  1  0
  5 14  1  0
  7 15  1  0
  7 16  1  0
  9 17  1  0
 10 18  1  0
 11 19  1  0
M  ISO  5  13  14  14  14  17  14  18  14  19   9
M  END
>  <minimizedAffinity>  (1) 
-4.38813829

>  <minimizedRMSD>  (1) 
4.96262026

$$$$
