
     RDKit          3D

 15 15  0  0  0  0  0  0  0  0999 V2000
   45.1690   34.5880   45.0630 C   0  0  0  0  0  0  0  0  0  0  0  0
   45.8890   34.5070   43.8570 C   0  0  0  0  0  0  0  0  0  0  0  0
   46.9410   33.5610   43.7590 C   0  0  0  0  0  0  0  0  0  0  0  0
   47.1700   32.7970   44.8570 N   0  0  0  0  0  0  0  0  0  0  0  0
   46.4740   32.8890   45.9930 C   0  0  0  0  0  0  0  0  0  0  0  0
   45.4750   33.7880   46.0880 N   0  0  0  0  0  0  0  0  0  0  0  0
   44.1190   35.5370   45.1520 N   0  0  0  0  0  0  0  0  0  0  0  0
   45.6040   35.3680   42.6730 C   0  0  0  0  0  0  0  0  0  0  0  0
   44.4100   35.0550   42.0630 F   0  0  0  0  0  0  0  0  0  0  0  0
   46.5790   35.1730   41.6940 F   0  0  0  0  0  0  0  0  0  0  0  0
   45.6810   36.7030   43.0300 F   0  0  0  0  0  0  0  0  0  0  0  0
   47.5392   33.4523   42.8423 H   0  0  0  0  0  0  0  0  0  0  0  0
   46.7145   32.2357   46.8447 H   0  0  0  0  0  0  0  0  0  0  0  0
   43.9025   36.1425   44.3474 H   0  0  0  0  0  0  0  0  0  0  0  0
   43.5728   35.6208   46.0212 H   0  0  0  0  0  0  0  0  0  0  0  0
  1  7  1  0
  1  6  2  0
  2  1  1  0
  3  2  2  0
  3  4  1  0
  4  5  2  0
  5  6  1  0
  8 11  1  0
  8  2  1  0
  9  8  1  0
 10  8  1  0
  3 12  1  0
  5 13  1  0
  7 14  1  0
  7 15  1  0
M  ISO  2  12  14  13  14
M  END
>  <minimizedAffinity>  (1) 
-4.19312048

>  <minimizedRMSD>  (1) 
1.42598879

$$$$
