
     RDKit          3D

 16 16  0  0  0  0  0  0  0  0999 V2000
   44.9690   34.9090   44.7460 C   0  0  0  0  0  0  0  0  0  0  0  0
   45.8910   34.6400   43.7120 C   0  0  0  0  0  0  0  0  0  0  0  0
   46.9000   33.6830   43.9390 C   0  0  0  0  0  0  0  0  0  0  0  0
   46.9030   33.0810   45.1680 N   0  0  0  0  0  0  0  0  0  0  0  0
   46.0120   33.3610   46.1240 C   0  0  0  0  0  0  0  0  0  0  0  0
   45.0560   34.2680   45.9060 N   0  0  0  0  0  0  0  0  0  0  0  0
   43.9600   35.8700   44.5100 N   0  0  0  0  0  0  0  0  0  0  0  0
   45.0840   34.6470   41.4310 C   0  0  0  0  0  0  0  0  0  0  0  0
   44.4360   33.5720   41.5380 O   0  0  0  0  0  0  0  0  0  0  0  0
   45.8540   35.2890   42.4460 N   0  0  0  0  0  0  0  0  0  0  0  0
   47.6454   33.4332   43.1696 H   0  0  0  0  0  0  0  0  0  0  0  0
   46.0661   32.8431   47.0930 H   0  0  0  0  0  0  0  0  0  0  0  0
   43.9124   36.3544   43.6023 H   0  0  0  0  0  0  0  0  0  0  0  0
   43.2723   36.0859   45.2457 H   0  0  0  0  0  0  0  0  0  0  0  0
   45.0528   35.1438   40.4501 H   0  0  0  0  0  0  0  0  0  0  0  0
   46.3548   36.1722   42.2724 H   0  0  0  0  0  0  0  0  0  0  0  0
  1  6  2  0
  2  3  2  0
  2  1  1  0
  3  4  1  0
  4  5  2  0
  6  5  1  0
  7  1  1  0
  8  9  2  0
  8 10  1  0
 10  2  1  0
  3 11  1  0
  5 12  1  0
  7 13  1  0
  7 14  1  0
  8 15  1  0
 10 16  1  0
M  ISO  3  11  14  12  14  15   6
M  END
>  <minimizedAffinity>  (1) 
-3.59586668

>  <minimizedRMSD>  (1) 
1.37636316

$$$$
