
     RDKit          3D

 13 13  0  0  0  0  0  0  0  0999 V2000
   45.0950   35.3570   44.1900 C   0  0  0  0  0  0  0  0  0  0  0  0
   46.1270   34.7550   43.4250 C   0  0  0  0  0  0  0  0  0  0  0  0
   46.8420   33.6820   43.9760 C   0  0  0  0  0  0  0  0  0  0  0  0
   46.5080   33.2710   45.2230 N   0  0  0  0  0  0  0  0  0  0  0  0
   45.5210   33.8610   45.9310 C   0  0  0  0  0  0  0  0  0  0  0  0
   44.8390   34.8810   45.4110 N   0  0  0  0  0  0  0  0  0  0  0  0
   44.3720   36.4380   43.6380 N   0  0  0  0  0  0  0  0  0  0  0  0
   46.4480   35.1940   42.1530 O   0  0  0  0  0  0  0  0  0  0  0  0
   47.6488   33.1894   43.4134 H   0  0  0  0  0  0  0  0  0  0  0  0
   45.2790   33.4983   46.9409 H   0  0  0  0  0  0  0  0  0  0  0  0
   44.5972   36.7788   42.6925 H   0  0  0  0  0  0  0  0  0  0  0  0
   43.6197   36.8853   44.1811 H   0  0  0  0  0  0  0  0  0  0  0  0
   45.9521   35.9505   41.7506 H   0  0  0  0  0  0  0  0  0  0  0  0
  1  6  2  0
  2  3  2  0
  2  1  1  0
  3  4  1  0
  4  5  2  0
  6  5  1  0
  7  1  1  0
  8  2  1  0
  3  9  1  0
  5 10  1  0
  7 11  1  0
  7 12  1  0
  8 13  1  0
M  ISO  3   9  14  10  14  13   3
M  END
>  <minimizedAffinity>  (1) 
-3.19403529

>  <minimizedRMSD>  (1) 
0.0478371009

$$$$
