
     RDKit          3D

 27 28  0  0  0  0  0  0  0  0999 V2000
   45.0150   35.7360   43.9450 C   0  0  0  0  0  0  0  0  0  0  0  0
   45.9060   34.7410   43.4830 C   0  0  0  0  0  0  0  0  0  0  0  0
   46.2360   33.6870   44.3590 C   0  0  0  0  0  0  0  0  0  0  0  0
   45.6720   33.6970   45.5920 N   0  0  0  0  0  0  0  0  0  0  0  0
   44.8280   34.6570   46.0030 C   0  0  0  0  0  0  0  0  0  0  0  0
   44.4970   35.6760   45.1860 N   0  0  0  0  0  0  0  0  0  0  0  0
   44.6720   36.8050   43.0770 N   0  0  0  0  0  0  0  0  0  0  0  0
   46.4270   34.8440   42.1710 N   0  0  0  0  0  0  0  0  0  0  0  0
   47.7220   35.4110   41.9600 C   0  0  0  0  0  0  0  0  0  0  0  0
   48.5830   34.4770   41.2020 C   0  0  0  0  0  0  0  0  0  0  0  0
   47.9160   33.4420   40.3920 C   0  0  0  0  0  0  0  0  0  0  0  0
   46.4820   33.6220   40.0580 C   0  0  0  0  0  0  0  0  0  0  0  0
   45.6590   34.3820   41.0440 C   0  0  0  0  0  0  0  0  0  0  0  0
   46.9255   32.8861   44.0536 H   0  0  0  0  0  0  0  0  0  0  0  0
   44.4027   34.6111   47.0164 H   0  0  0  0  0  0  0  0  0  0  0  0
   45.0710   36.8464   42.1283 H   0  0  0  0  0  0  0  0  0  0  0  0
   44.0240   37.5395   43.3957 H   0  0  0  0  0  0  0  0  0  0  0  0
   47.6183   36.3479   41.3930 H   0  0  0  0  0  0  0  0  0  0  0  0
   48.1865   35.6069   42.9377 H   0  0  0  0  0  0  0  0  0  0  0  0
   49.2032   35.0790   40.5216 H   0  0  0  0  0  0  0  0  0  0  0  0
   49.1355   33.9179   41.9715 H   0  0  0  0  0  0  0  0  0  0  0  0
   48.4646   33.3696   39.4413 H   0  0  0  0  0  0  0  0  0  0  0  0
   47.9343   32.5462   41.0302 H   0  0  0  0  0  0  0  0  0  0  0  0
   46.4270   34.1535   39.0965 H   0  0  0  0  0  0  0  0  0  0  0  0
   46.0567   32.6076   40.0443 H   0  0  0  0  0  0  0  0  0  0  0  0
   45.2188   35.2535   40.5373 H   0  0  0  0  0  0  0  0  0  0  0  0
   44.8855   33.6998   41.4266 H   0  0  0  0  0  0  0  0  0  0  0  0
  1  6  2  0
  2  1  1  0
  2  3  2  0
  3  4  1  0
  4  5  2  0
  6  5  1  0
  7  1  1  0
  8  2  1  0
  9  8  1  0
 10  9  1  0
 11 10  1  0
 12 11  1  0
 12 13  1  0
 13  8  1  0
  3 14  1  0
  5 15  1  0
  7 16  1  0
  7 17  1  0
  9 18  1  0
  9 19  1  0
 10 20  1  0
 10 21  1  0
 11 22  1  0
 11 23  1  0
 12 24  1  0
 12 25  1  0
 13 26  1  0
 13 27  1  0
M  ISO  8  14  14  15  14  18  13  19  13  20  13  21  13  22  13  23  13
M  ISO  4  24  13  25  13  26  13  27  13
M  END
>  <minimizedAffinity>  (1) 
-4.46199512

>  <minimizedRMSD>  (1) 
1.37881327

$$$$
