
     RDKit          3D

 37 39  0  0  1  0  0  0  0  0999 V2000
   46.3790   34.2540   42.6360 N   0  0  0  0  0  0  0  0  0  0  0  0
   47.1210   35.4580   42.3810 C   0  0  0  0  0  0  0  0  0  0  0  0
   48.1050   35.2350   41.3120 C   0  0  0  0  0  0  0  0  0  0  0  0
   47.9240   34.0660   40.4200 C   0  0  0  0  0  0  0  0  0  0  0  0
   46.5680   33.4880   40.3420 C   0  0  0  0  0  0  0  0  0  0  0  0
   45.7310   33.5500   41.5880 C   0  0  2  0  0  0  0  0  0  0  0  0
   45.3830   34.2960   44.8730 C   0  0  0  0  0  0  0  0  0  0  0  0
   46.3150   33.7610   43.9750 C   0  0  0  0  0  0  0  0  0  0  0  0
   47.1710   32.7260   44.4460 C   0  0  0  0  0  0  0  0  0  0  0  0
   47.0250   32.3290   45.7260 N   0  0  0  0  0  0  0  0  0  0  0  0
   46.1190   32.8660   46.5570 C   0  0  0  0  0  0  0  0  0  0  0  0
   45.2950   33.8520   46.1300 N   0  0  0  0  0  0  0  0  0  0  0  0
   44.5300   35.3200   44.4150 N   0  0  0  0  0  0  0  0  0  0  0  0
   43.6280   31.7540   42.0960 F   0  0  0  0  0  0  0  0  0  0  0  0
   43.2790   32.9660   41.5610 C   0  0  0  0  0  0  0  0  0  0  0  0
   44.3220   33.8760   41.3150 C   0  0  0  0  0  0  0  0  0  0  0  0
   43.8270   35.0480   40.7800 C   0  0  0  0  0  0  0  0  0  0  0  0
   42.5020   35.3140   40.5140 C   0  0  0  0  0  0  0  0  0  0  0  0
   41.5620   34.3490   40.7960 C   0  0  0  0  0  0  0  0  0  0  0  0
   41.9550   33.1440   41.3330 C   0  0  0  0  0  0  0  0  0  0  0  0
   46.4265   36.2540   42.0744 H   0  0  0  0  0  0  0  0  0  0  0  0
   47.6509   35.7525   43.2989 H   0  0  0  0  0  0  0  0  0  0  0  0
   48.1033   36.1326   40.6761 H   0  0  0  0  0  0  0  0  0  0  0  0
   49.0425   35.0239   41.8473 H   0  0  0  0  0  0  0  0  0  0  0  0
   48.2121   34.3754   39.4045 H   0  0  0  0  0  0  0  0  0  0  0  0
   48.5486   33.2730   40.8570 H   0  0  0  0  0  0  0  0  0  0  0  0
   46.0240   34.0222   39.5491 H   0  0  0  0  0  0  0  0  0  0  0  0
   46.7234   32.4155   40.1535 H   0  0  0  0  0  0  0  0  0  0  0  0
   45.6463   32.5348   42.0029 H   0  0  0  0  0  0  0  0  0  0  0  0
   47.9245   32.2666   43.7893 H   0  0  0  0  0  0  0  0  0  0  0  0
   46.0450   32.5027   47.5926 H   0  0  0  0  0  0  0  0  0  0  0  0
   44.6044   35.6566   43.4444 H   0  0  0  0  0  0  0  0  0  0  0  0
   43.8322   35.7319   45.0509 H   0  0  0  0  0  0  0  0  0  0  0  0
   44.5545   35.8391   40.5455 H   0  0  0  0  0  0  0  0  0  0  0  0
   42.2005   36.2805   40.0839 H   0  0  0  0  0  0  0  0  0  0  0  0
   40.4981   34.5404   40.5925 H   0  0  0  0  0  0  0  0  0  0  0  0
   41.2234   32.3568   41.5677 H   0  0  0  0  0  0  0  0  0  0  0  0
  1  8  1  0
  2  1  1  0
  3  2  1  0
  4  3  1  0
  5  4  1  0
  5  6  1  0
  6  1  1  0
  7 12  2  0
  8  9  2  0
  8  7  1  0
  9 10  1  0
 10 11  2  0
 12 11  1  0
 13  7  1  0
 15 14  1  0
 16 15  2  0
 16  6  1  0
 17 16  1  0
 18 17  2  0
 18 19  1  0
 19 20  2  0
 20 15  1  0
  2 21  1  0
  2 22  1  0
  3 23  1  0
  3 24  1  0
  4 25  1  0
  4 26  1  0
  5 27  1  0
  5 28  1  0
  6 29  1  1
  9 30  1  0
 11 31  1  0
 13 32  1  0
 13 33  1  0
 17 34  1  0
 18 35  1  0
 19 36  1  0
 20 37  1  0
M  ISO  8  21  13  22  13  23  13  24  13  25  13  26  13  27  13  28  13
M  ISO  7  29  13  30  14  31  14  34  14  35  14  36  14  37  14
M  END
>  <minimizedAffinity>  (1) 
-5.40047979

>  <minimizedRMSD>  (1) 
2.07745838

$$$$
