
     RDKit          3D

 34 36  0  0  1  0  0  0  0  0999 V2000
   46.4630   34.8540   42.1710 N   0  0  0  0  0  0  0  0  0  0  0  0
   47.7870   35.3600   41.9800 C   0  0  0  0  0  0  0  0  0  0  0  0
   48.6100   34.3760   41.2320 C   0  0  0  0  0  0  0  0  0  0  0  0
   47.9020   33.3930   40.3930 C   0  0  0  0  0  0  0  0  0  0  0  0
   46.4920   33.6860   40.0340 C   0  0  0  0  0  0  0  0  0  0  0  0
   45.6770   34.4420   41.0320 C   0  0  1  0  0  0  0  0  0  0  0  0
   45.0080   35.7570   43.9060 C   0  0  0  0  0  0  0  0  0  0  0  0
   45.9190   34.7590   43.4830 C   0  0  0  0  0  0  0  0  0  0  0  0
   46.2410   33.7280   44.3730 C   0  0  0  0  0  0  0  0  0  0  0  0
   45.6590   33.7460   45.5910 N   0  0  0  0  0  0  0  0  0  0  0  0
   44.7990   34.7010   45.9700 C   0  0  0  0  0  0  0  0  0  0  0  0
   44.4640   35.7150   45.1330 N   0  0  0  0  0  0  0  0  0  0  0  0
   44.6720   36.8020   43.0200 N   0  0  0  0  0  0  0  0  0  0  0  0
   44.5290   33.5750   41.4780 C   0  0  0  0  0  0  0  0  0  0  0  0
   44.5550   32.2020   41.7400 C   0  0  0  0  0  0  0  0  0  0  0  0
   43.2830   31.8320   42.1200 C   0  0  0  0  0  0  0  0  0  0  0  0
   42.5240   32.9180   42.0890 N   0  0  0  0  0  0  0  0  0  0  0  0
   43.2580   33.9430   41.7120 N   0  0  0  0  0  0  0  0  0  0  0  0
   47.7380   36.2999   41.4106 H   0  0  0  0  0  0  0  0  0  0  0  0
   48.2476   35.5393   42.9627 H   0  0  0  0  0  0  0  0  0  0  0  0
   49.2856   34.9435   40.5752 H   0  0  0  0  0  0  0  0  0  0  0  0
   49.1037   33.7754   42.0102 H   0  0  0  0  0  0  0  0  0  0  0  0
   48.4669   33.2937   39.4544 H   0  0  0  0  0  0  0  0  0  0  0  0
   47.8503   32.4840   41.0103 H   0  0  0  0  0  0  0  0  0  0  0  0
   46.5023   34.2719   39.1031 H   0  0  0  0  0  0  0  0  0  0  0  0
   46.0076   32.7012   39.9595 H   0  0  0  0  0  0  0  0  0  0  0  0
   45.3002   35.3576   40.5527 H   0  0  0  0  0  0  0  0  0  0  0  0
   46.9439   32.9307   44.0899 H   0  0  0  0  0  0  0  0  0  0  0  0
   44.3571   34.6623   46.9766 H   0  0  0  0  0  0  0  0  0  0  0  0
   45.0896   36.8336   42.0790 H   0  0  0  0  0  0  0  0  0  0  0  0
   44.0091   37.5334   43.3141 H   0  0  0  0  0  0  0  0  0  0  0  0
   45.4292   31.5394   41.6580 H   0  0  0  0  0  0  0  0  0  0  0  0
   42.9569   30.8191   42.3985 H   0  0  0  0  0  0  0  0  0  0  0  0
   41.5214   32.9539   42.3223 H   0  0  0  0  0  0  0  0  0  0  0  0
  1  8  1  0
  2  1  1  0
  3  2  1  0
  4  3  1  0
  5  4  1  0
  5  6  1  0
  6 14  1  0
  6  1  1  0
  7 12  2  0
  8  7  1  0
  8  9  2  0
  9 10  1  0
 10 11  2  0
 12 11  1  0
 13  7  1  0
 14 18  2  0
 14 15  1  0
 15 16  2  0
 17 16  1  0
 18 17  1  0
  2 19  1  0
  2 20  1  0
  3 21  1  0
  3 22  1  0
  4 23  1  0
  4 24  1  0
  5 25  1  0
  5 26  1  0
  6 27  1  6
  9 28  1  0
 11 29  1  0
 13 30  1  0
 13 31  1  0
 15 32  1  0
 16 33  1  0
 17 34  1  0
M  ISO  8  19  13  20  13  21  13  22  13  23  13  24  13  25  13  26  13
M  ISO  6  27  13  28  14  29  14  32  14  33  14  34   9
M  END
>  <minimizedAffinity>  (1) 
-5.29781437

>  <minimizedRMSD>  (1) 
0.283931553

$$$$
