
     RDKit          3D

 41 43  0  0  1  0  0  0  0  0999 V2000
   46.3810   34.8770   42.2290 N   0  0  0  0  0  0  0  0  0  0  0  0
   47.7570   35.2500   42.0520 C   0  0  0  0  0  0  0  0  0  0  0  0
   48.4910   34.2300   41.2870 C   0  0  0  0  0  0  0  0  0  0  0  0
   47.7000   33.2850   40.4740 C   0  0  0  0  0  0  0  0  0  0  0  0
   46.3280   33.7110   40.0780 C   0  0  0  0  0  0  0  0  0  0  0  0
   45.6030   34.5700   41.0580 C   0  0  1  0  0  0  0  0  0  0  0  0
   45.0340   35.9120   43.9590 C   0  0  0  0  0  0  0  0  0  0  0  0
   45.8280   34.8180   43.5190 C   0  0  0  0  0  0  0  0  0  0  0  0
   46.0190   33.7400   44.3880 C   0  0  0  0  0  0  0  0  0  0  0  0
   45.4300   33.8060   45.6080 N   0  0  0  0  0  0  0  0  0  0  0  0
   44.6800   34.8540   46.0060 C   0  0  0  0  0  0  0  0  0  0  0  0
   44.4780   35.9110   45.1850 N   0  0  0  0  0  0  0  0  0  0  0  0
   44.8290   37.0180   43.0870 N   0  0  0  0  0  0  0  0  0  0  0  0
   44.2730   34.1580   41.3510 N   0  0  0  0  0  0  0  0  0  0  0  0
   44.0160   32.7630   41.4020 C   0  0  0  0  0  0  0  0  0  0  0  0
   42.8750   32.3420   40.4730 C   0  0  0  0  0  0  0  0  0  0  0  0
   41.6950   33.1100   40.7150 N   0  0  0  0  0  0  0  0  0  0  0  0
   41.9180   34.3900   41.3440 C   0  0  0  0  0  0  0  0  0  0  0  0
   43.2250   34.9680   40.8180 C   0  0  0  0  0  0  0  0  0  0  0  0
   47.8026   36.2064   41.5105 H   0  0  0  0  0  0  0  0  0  0  0  0
   48.2228   35.3432   43.0441 H   0  0  0  0  0  0  0  0  0  0  0  0
   49.1746   34.7580   40.6059 H   0  0  0  0  0  0  0  0  0  0  0  0
   48.9763   33.6038   42.0501 H   0  0  0  0  0  0  0  0  0  0  0  0
   48.2651   33.0890   39.5509 H   0  0  0  0  0  0  0  0  0  0  0  0
   47.5492   32.4097   41.1229 H   0  0  0  0  0  0  0  0  0  0  0  0
   46.4083   34.2707   39.1344 H   0  0  0  0  0  0  0  0  0  0  0  0
   45.7395   32.7847   40.0025 H   0  0  0  0  0  0  0  0  0  0  0  0
   45.4683   35.5242   40.5276 H   0  0  0  0  0  0  0  0  0  0  0  0
   46.6246   32.8703   44.0934 H   0  0  0  0  0  0  0  0  0  0  0  0
   44.2276   34.8496   47.0087 H   0  0  0  0  0  0  0  0  0  0  0  0
   45.2540   37.0198   42.1488 H   0  0  0  0  0  0  0  0  0  0  0  0
   44.2557   37.8167   43.3942 H   0  0  0  0  0  0  0  0  0  0  0  0
   44.9287   32.2253   41.1056 H   0  0  0  0  0  0  0  0  0  0  0  0
   43.7168   32.5161   42.4313 H   0  0  0  0  0  0  0  0  0  0  0  0
   42.6505   31.2784   40.6413 H   0  0  0  0  0  0  0  0  0  0  0  0
   43.1931   32.5144   39.4342 H   0  0  0  0  0  0  0  0  0  0  0  0
   41.2303   33.2751   39.8107 H   0  0  0  0  0  0  0  0  0  0  0  0
   41.0882   35.0708   41.1034 H   0  0  0  0  0  0  0  0  0  0  0  0
   41.9732   34.2679   42.4358 H   0  0  0  0  0  0  0  0  0  0  0  0
   43.3419   36.0090   41.1536 H   0  0  0  0  0  0  0  0  0  0  0  0
   43.2443   34.9685   39.7182 H   0  0  0  0  0  0  0  0  0  0  0  0
  1  8  1  0
  2  1  1  0
  3  2  1  0
  4  3  1  0
  5  4  1  0
  5  6  1  0
  6 14  1  0
  6  1  1  0
  7 12  2  0
  8  7  1  0
  8  9  2  0
  9 10  1  0
 10 11  2  0
 12 11  1  0
 13  7  1  0
 14 19  1  0
 14 15  1  0
 16 17  1  0
 16 15  1  0
 17 18  1  0
 19 18  1  0
  2 20  1  0
  2 21  1  0
  3 22  1  0
  3 23  1  0
  4 24  1  0
  4 25  1  0
  5 26  1  0
  5 27  1  0
  6 28  1  6
  9 29  1  0
 11 30  1  0
 13 31  1  0
 13 32  1  0
 15 33  1  0
 15 34  1  0
 16 35  1  0
 16 36  1  0
 17 37  1  0
 18 38  1  0
 18 39  1  0
 19 40  1  0
 19 41  1  0
M  ISO  8  20  13  21  13  22  13  23  13  24  13  25  13  26  13  27  13
M  ISO  8  28  13  29  14  30  14  33  13  34  13  35  13  36  13  37   5
M  ISO  4  38  13  39  13  40  13  41  13
M  END
>  <minimizedAffinity>  (1) 
-5.2373929

>  <minimizedRMSD>  (1) 
0.728873432

$$$$
