
     RDKit          3D

 35 37  0  0  1  0  0  0  0  0999 V2000
   46.4100   34.4080   42.3810 N   0  0  0  0  0  0  0  0  0  0  0  0
   47.2930   35.4500   41.9520 C   0  0  0  0  0  0  0  0  0  0  0  0
   48.5450   34.8850   41.4230 C   0  0  0  0  0  0  0  0  0  0  0  0
   48.5220   33.4860   40.9720 C   0  0  0  0  0  0  0  0  0  0  0  0
   47.2110   32.8490   40.6960 C   0  0  0  0  0  0  0  0  0  0  0  0
   46.0360   33.3550   41.4890 C   0  0  2  0  0  0  0  0  0  0  0  0
   45.0240   35.4560   44.1000 C   0  0  0  0  0  0  0  0  0  0  0  0
   45.9010   34.4270   43.7130 C   0  0  0  0  0  0  0  0  0  0  0  0
   46.2360   33.4470   44.6760 C   0  0  0  0  0  0  0  0  0  0  0  0
   45.6960   33.5630   45.9040 N   0  0  0  0  0  0  0  0  0  0  0  0
   44.8620   34.5570   46.2440 C   0  0  0  0  0  0  0  0  0  0  0  0
   44.5210   35.5060   45.3460 N   0  0  0  0  0  0  0  0  0  0  0  0
   44.6740   36.4420   43.1540 N   0  0  0  0  0  0  0  0  0  0  0  0
   44.9040   33.7470   40.5690 C   0  0  0  0  0  0  0  0  0  0  0  0
   44.7730   33.1820   39.3120 C   0  0  0  0  0  0  0  0  0  0  0  0
   43.7600   33.5100   38.4340 C   0  0  0  0  0  0  0  0  0  0  0  0
   42.8780   34.4280   38.8540 N   0  0  0  0  0  0  0  0  0  0  0  0
   42.9730   35.0070   40.0810 C   0  0  0  0  0  0  0  0  0  0  0  0
   43.9650   34.6740   40.9210 N   0  0  0  0  0  0  0  0  0  0  0  0
   46.8010   36.0387   41.1638 H   0  0  0  0  0  0  0  0  0  0  0  0
   47.5302   36.0904   42.8143 H   0  0  0  0  0  0  0  0  0  0  0  0
   48.8483   35.5027   40.5648 H   0  0  0  0  0  0  0  0  0  0  0  0
   49.2382   34.8923   42.2771 H   0  0  0  0  0  0  0  0  0  0  0  0
   49.1088   33.4354   40.0429 H   0  0  0  0  0  0  0  0  0  0  0  0
   48.9183   32.9220   41.8292 H   0  0  0  0  0  0  0  0  0  0  0  0
   46.9843   32.9999   39.6302 H   0  0  0  0  0  0  0  0  0  0  0  0
   47.3310   31.7970   40.9943 H   0  0  0  0  0  0  0  0  0  0  0  0
   45.6721   32.5349   42.1255 H   0  0  0  0  0  0  0  0  0  0  0  0
   46.9152   32.6175   44.4300 H   0  0  0  0  0  0  0  0  0  0  0  0
   44.4520   34.5995   47.2639 H   0  0  0  0  0  0  0  0  0  0  0  0
   45.0609   36.4011   42.2003 H   0  0  0  0  0  0  0  0  0  0  0  0
   44.0315   37.2029   43.4169 H   0  0  0  0  0  0  0  0  0  0  0  0
   45.5145   32.4331   38.9968 H   0  0  0  0  0  0  0  0  0  0  0  0
   43.6805   33.0426   37.4414 H   0  0  0  0  0  0  0  0  0  0  0  0
   42.2286   35.7564   40.3881 H   0  0  0  0  0  0  0  0  0  0  0  0
  1  8  1  0
  2  1  1  0
  3  2  1  0
  4  3  1  0
  5  4  1  0
  5  6  1  0
  6  1  1  0
  7 12  2  0
  8  7  1  0
  8  9  2  0
  9 10  1  0
 10 11  2  0
 12 11  1  0
 13  7  1  0
 14 19  1  0
 14  6  1  0
 15 14  2  0
 16 17  2  0
 16 15  1  0
 17 18  1  0
 18 19  2  0
  2 20  1  0
  2 21  1  0
  3 22  1  0
  3 23  1  0
  4 24  1  0
  4 25  1  0
  5 26  1  0
  5 27  1  0
  6 28  1  1
  9 29  1  0
 11 30  1  0
 13 31  1  0
 13 32  1  0
 15 33  1  0
 16 34  1  0
 18 35  1  0
M  ISO  8  20  13  21  13  22  13  23  13  24  13  25  13  26  13  27  13
M  ISO  6  28  13  29  14  30  14  33  14  34  14  35  14
M  END
>  <minimizedAffinity>  (1) 
-5.10650826

>  <minimizedRMSD>  (1) 
1.5323602

$$$$
