
     RDKit          3D

 34 36  0  0  1  0  0  0  0  0999 V2000
   46.4040   34.8760   42.1830 N   0  0  0  0  0  0  0  0  0  0  0  0
   47.7130   35.4170   41.9890 C   0  0  0  0  0  0  0  0  0  0  0  0
   48.5600   34.4810   41.2270 C   0  0  0  0  0  0  0  0  0  0  0  0
   47.8920   33.4190   40.4420 C   0  0  0  0  0  0  0  0  0  0  0  0
   46.4570   33.6480   40.0860 C   0  0  0  0  0  0  0  0  0  0  0  0
   45.6360   34.4420   41.0340 C   0  0  1  0  0  0  0  0  0  0  0  0
   45.0660   35.8360   43.9800 C   0  0  0  0  0  0  0  0  0  0  0  0
   45.8690   34.7680   43.4920 C   0  0  0  0  0  0  0  0  0  0  0  0
   46.0990   33.6630   44.3180 C   0  0  0  0  0  0  0  0  0  0  0  0
   45.5300   33.6800   45.5560 N   0  0  0  0  0  0  0  0  0  0  0  0
   44.7710   34.7020   46.0010 C   0  0  0  0  0  0  0  0  0  0  0  0
   44.5360   35.7840   45.2160 N   0  0  0  0  0  0  0  0  0  0  0  0
   44.8340   36.9560   43.1410 N   0  0  0  0  0  0  0  0  0  0  0  0
   44.2990   33.8840   41.3670 C   0  0  0  0  0  0  0  0  0  0  0  0
   43.0770   34.7330   40.8800 C   0  0  0  0  0  0  0  0  0  0  0  0
   43.3380   33.3440   40.4020 C   0  0  0  0  0  0  0  0  0  0  0  0
   47.6332   36.3638   41.4347 H   0  0  0  0  0  0  0  0  0  0  0  0
   48.1733   35.5867   42.9735 H   0  0  0  0  0  0  0  0  0  0  0  0
   49.1582   35.0796   40.5243 H   0  0  0  0  0  0  0  0  0  0  0  0
   49.1281   33.9372   41.9961 H   0  0  0  0  0  0  0  0  0  0  0  0
   48.4526   33.2956   39.5036 H   0  0  0  0  0  0  0  0  0  0  0  0
   47.8899   32.5344   41.0958 H   0  0  0  0  0  0  0  0  0  0  0  0
   46.4365   34.1675   39.1166 H   0  0  0  0  0  0  0  0  0  0  0  0
   46.0027   32.6462   40.0914 H   0  0  0  0  0  0  0  0  0  0  0  0
   45.3633   35.3478   40.4726 H   0  0  0  0  0  0  0  0  0  0  0  0
   46.7139   32.8151   43.9820 H   0  0  0  0  0  0  0  0  0  0  0  0
   44.3377   34.6583   47.0111 H   0  0  0  0  0  0  0  0  0  0  0  0
   45.2443   36.9859   42.1967 H   0  0  0  0  0  0  0  0  0  0  0  0
   44.2553   37.7394   43.4761 H   0  0  0  0  0  0  0  0  0  0  0  0
   44.7152   33.4585   42.2921 H   0  0  0  0  0  0  0  0  0  0  0  0
   42.2364   34.9405   41.5584 H   0  0  0  0  0  0  0  0  0  0  0  0
   42.9303   35.7185   40.4140 H   0  0  0  0  0  0  0  0  0  0  0  0
   42.6629   32.5322   40.7106 H   0  0  0  0  0  0  0  0  0  0  0  0
   43.4434   32.8981   39.4020 H   0  0  0  0  0  0  0  0  0  0  0  0
  1  8  1  0
  2  1  1  0
  3  2  1  0
  4  3  1  0
  5  4  1  0
  5  6  1  0
  6 14  1  0
  6  1  1  0
  7 12  2  0
  8  7  1  0
  8  9  2  0
  9 10  1  0
 10 11  2  0
 12 11  1  0
 13  7  1  0
 15 14  1  0
 16 15  1  0
 16 14  1  0
  2 17  1  0
  2 18  1  0
  3 19  1  0
  3 20  1  0
  4 21  1  0
  4 22  1  0
  5 23  1  0
  5 24  1  0
  6 25  1  6
  9 26  1  0
 11 27  1  0
 13 28  1  0
 13 29  1  0
 14 30  1  0
 15 31  1  0
 15 32  1  0
 16 33  1  0
 16 34  1  0
M  ISO  8  17  13  18  13  19  13  20  13  21  13  22  13  23  13  24  13
M  ISO  8  25  13  26  14  27  14  30  13  31  13  32  13  33  13  34  13
M  END
>  <minimizedAffinity>  (1) 
-4.83025026

>  <minimizedRMSD>  (1) 
0.734183013

$$$$
