
     RDKit          3D

 33 34  0  0  1  0  0  0  0  0999 V2000
   46.4130   34.8650   42.1940 N   0  0  0  0  0  0  0  0  0  0  0  0
   47.7050   35.4280   41.9760 C   0  0  0  0  0  0  0  0  0  0  0  0
   48.5590   34.4890   41.2100 C   0  0  0  0  0  0  0  0  0  0  0  0
   47.8920   33.4510   40.4070 C   0  0  0  0  0  0  0  0  0  0  0  0
   46.4550   33.6420   40.0730 C   0  0  0  0  0  0  0  0  0  0  0  0
   45.6500   34.4010   41.0600 C   0  0  1  0  0  0  0  0  0  0  0  0
   45.0250   35.7730   43.9740 C   0  0  0  0  0  0  0  0  0  0  0  0
   45.8850   34.7630   43.5030 C   0  0  0  0  0  0  0  0  0  0  0  0
   46.1890   33.6770   44.3630 C   0  0  0  0  0  0  0  0  0  0  0  0
   45.6260   33.6890   45.5900 N   0  0  0  0  0  0  0  0  0  0  0  0
   44.8120   34.6610   46.0130 C   0  0  0  0  0  0  0  0  0  0  0  0
   44.5080   35.6970   45.2230 N   0  0  0  0  0  0  0  0  0  0  0  0
   44.7180   36.8640   43.1150 N   0  0  0  0  0  0  0  0  0  0  0  0
   44.4270   33.6360   41.5540 C   0  0  0  0  0  0  0  0  0  0  0  0
   43.1490   34.2200   41.0120 C   0  0  0  0  0  0  0  0  0  0  0  0
   47.6004   36.3656   41.4103 H   0  0  0  0  0  0  0  0  0  0  0  0
   48.1766   35.6231   42.9504 H   0  0  0  0  0  0  0  0  0  0  0  0
   49.1732   35.0902   40.5235 H   0  0  0  0  0  0  0  0  0  0  0  0
   49.1131   33.9301   41.9785 H   0  0  0  0  0  0  0  0  0  0  0  0
   48.4406   33.3696   39.4570 H   0  0  0  0  0  0  0  0  0  0  0  0
   47.9087   32.5561   41.0464 H   0  0  0  0  0  0  0  0  0  0  0  0
   46.4015   34.1771   39.1134 H   0  0  0  0  0  0  0  0  0  0  0  0
   46.0202   32.6318   40.0523 H   0  0  0  0  0  0  0  0  0  0  0  0
   45.3074   35.2809   40.4957 H   0  0  0  0  0  0  0  0  0  0  0  0
   46.8542   32.8609   44.0443 H   0  0  0  0  0  0  0  0  0  0  0  0
   44.3857   34.6084   47.0257 H   0  0  0  0  0  0  0  0  0  0  0  0
   45.1216   36.9034   42.1682 H   0  0  0  0  0  0  0  0  0  0  0  0
   44.0921   37.6148   43.4397 H   0  0  0  0  0  0  0  0  0  0  0  0
   44.5064   32.5882   41.2286 H   0  0  0  0  0  0  0  0  0  0  0  0
   44.3983   33.7066   42.6514 H   0  0  0  0  0  0  0  0  0  0  0  0
   42.4984   34.5173   41.8476 H   0  0  0  0  0  0  0  0  0  0  0  0
   43.3809   35.1015   40.3962 H   0  0  0  0  0  0  0  0  0  0  0  0
   42.6343   33.4677   40.3962 H   0  0  0  0  0  0  0  0  0  0  0  0
  1  8  1  0
  2  1  1  0
  3  2  1  0
  4  3  1  0
  5  4  1  0
  5  6  1  0
  6 14  1  0
  6  1  1  0
  7 12  2  0
  8  7  1  0
  8  9  2  0
  9 10  1  0
 10 11  2  0
 12 11  1  0
 13  7  1  0
 15 14  1  0
  2 16  1  0
  2 17  1  0
  3 18  1  0
  3 19  1  0
  4 20  1  0
  4 21  1  0
  5 22  1  0
  5 23  1  0
  6 24  1  6
  9 25  1  0
 11 26  1  0
 13 27  1  0
 13 28  1  0
 14 29  1  0
 14 30  1  0
 15 31  1  0
 15 32  1  0
 15 33  1  0
M  ISO  8  16  13  17  13  18  13  19  13  20  13  21  13  22  13  23  13
M  ISO  8  24  13  25  14  26  14  29   8  30   8  31   8  32   8  33   8
M  END
>  <minimizedAffinity>  (1) 
-4.66006899

>  <minimizedRMSD>  (1) 
0.378387719

$$$$
