
     RDKit          3D

 38 39  0  0  1  0  0  0  0  0999 V2000
   46.1800   34.4050   42.4680 C   0  0  1  0  0  0  0  0  0  0  0  0
   46.9930   34.0660   43.6520 C   0  0  2  0  0  0  0  0  0  0  0  0
   48.3950   34.1040   43.3560 O   0  0  0  0  0  0  0  0  0  0  0  0
   48.6180   32.9950   42.5300 C   0  0  0  0  0  0  0  0  0  0  0  0
   48.0160   33.2420   41.1600 C   0  0  1  0  0  0  0  0  0  0  0  0
   46.9980   34.3520   41.1830 C   0  0  1  0  0  0  0  0  0  0  0  0
   45.0440   33.5750   42.3730 O   0  0  0  0  0  0  0  0  0  0  0  0
   49.0860   33.6630   40.3480 O   0  0  0  0  0  0  0  0  0  0  0  0
   46.7520   32.7900   44.2310 O   0  0  0  0  0  0  0  0  0  0  0  0
   45.7430   31.5230   47.4300 C   0  0  0  0  0  0  0  0  0  0  0  0
   45.0590   32.5970   48.0060 C   0  0  0  0  0  0  0  0  0  0  0  0
   44.9440   33.7800   47.2720 C   0  0  0  0  0  0  0  0  0  0  0  0
   45.5060   33.8240   46.0330 N   0  0  0  0  0  0  0  0  0  0  0  0
   46.1540   32.7940   45.5000 C   0  0  0  0  0  0  0  0  0  0  0  0
   46.2780   31.6320   46.1930 N   0  0  0  0  0  0  0  0  0  0  0  0
   45.8550   30.2630   48.2320 C   0  0  0  0  0  0  0  0  0  0  0  0
   44.9320   29.3310   47.8260 F   0  0  0  0  0  0  0  0  0  0  0  0
   47.1530   29.7900   48.1120 F   0  0  0  0  0  0  0  0  0  0  0  0
   45.6860   30.5790   49.5940 F   0  0  0  0  0  0  0  0  0  0  0  0
   46.0800   34.0840   40.1330 O   0  0  0  0  0  0  0  0  0  0  0  0
   46.4000   32.9920   39.3020 C   0  0  0  0  0  0  0  0  0  0  0  0
   46.1340   32.9630   38.0080 C   0  0  0  0  0  0  0  0  0  0  0  0
   46.5360   31.7360   37.2680 C   0  0  0  0  0  0  0  0  0  0  0  0
   45.8372   35.4419   42.5994 H   0  0  0  0  0  0  0  0  0  0  0  0
   46.6837   34.8358   44.3743 H   0  0  0  0  0  0  0  0  0  0  0  0
   49.7005   32.8281   42.4280 H   0  0  0  0  0  0  0  0  0  0  0  0
   48.1456   32.1087   42.9786 H   0  0  0  0  0  0  0  0  0  0  0  0
   47.5137   32.3307   40.8033 H   0  0  0  0  0  0  0  0  0  0  0  0
   47.5403   35.3044   41.0884 H   0  0  0  0  0  0  0  0  0  0  0  0
   44.7274   33.3437   43.2820 H   0  0  0  0  0  0  0  0  0  0  0  0
   49.8379   33.9588   40.9201 H   0  0  0  0  0  0  0  0  0  0  0  0
   44.6222   32.5129   49.0120 H   0  0  0  0  0  0  0  0  0  0  0  0
   44.4141   34.6516   47.6838 H   0  0  0  0  0  0  0  0  0  0  0  0
   46.8961   32.1200   39.7531 H   0  0  0  0  0  0  0  0  0  0  0  0
   45.6393   33.8052   37.5021 H   0  0  0  0  0  0  0  0  0  0  0  0
   46.7956   30.9436   37.9855 H   0  0  0  0  0  0  0  0  0  0  0  0
   45.7013   31.3991   36.6358 H   0  0  0  0  0  0  0  0  0  0  0  0
   47.4083   31.9583   36.6358 H   0  0  0  0  0  0  0  0  0  0  0  0
  1  2  1  0
  2  9  1  0
  3  2  1  0
  4  3  1  0
  5  6  1  0
  5  4  1  0
  6  1  1  0
  7  1  1  0
  8  5  1  0
  9 14  1  0
 10 11  2  0
 10 16  1  0
 12 11  1  0
 13 12  2  0
 14 13  1  0
 14 15  2  0
 15 10  1  0
 16 19  1  0
 17 16  1  0
 18 16  1  0
 20  6  1  0
 21 20  1  0
 22 21  2  0
 23 22  1  0
  1 24  1  1
  2 25  1  1
  4 26  1  0
  4 27  1  0
  5 28  1  6
  6 29  1  6
  7 30  1  0
  8 31  1  0
 11 32  1  0
 12 33  1  0
 21 34  1  0
 22 35  1  0
 23 36  1  0
 23 37  1  0
 23 38  1  0
M  ISO  8  24  13  25  13  26  13  27  13  28  13  29  13  30   3  31   3
M  ISO  5  32  14  33  14  36   8  37   8  38   8
M  END
>  <minimizedAffinity>  (1) 
-4.69293547

>  <minimizedRMSD>  (1) 
7.86400032

$$$$
