
     RDKit          3D

 28 29  0  0  1  0  0  0  0  0999 V2000
   46.4250   34.8510   42.1730 N   0  0  0  0  0  0  0  0  0  0  0  0
   47.7100   35.4170   41.9610 C   0  0  0  0  0  0  0  0  0  0  0  0
   48.5760   34.4730   41.2030 C   0  0  0  0  0  0  0  0  0  0  0  0
   47.9050   33.4310   40.3980 C   0  0  0  0  0  0  0  0  0  0  0  0
   46.4620   33.6190   40.0590 C   0  0  0  0  0  0  0  0  0  0  0  0
   45.6480   34.3820   41.0470 C   0  0  1  0  0  0  0  0  0  0  0  0
   45.0190   35.7370   43.9520 C   0  0  0  0  0  0  0  0  0  0  0  0
   45.9030   34.7440   43.4860 C   0  0  0  0  0  0  0  0  0  0  0  0
   46.2220   33.6900   44.3610 C   0  0  0  0  0  0  0  0  0  0  0  0
   45.6550   33.7040   45.5970 N   0  0  0  0  0  0  0  0  0  0  0  0
   44.8170   34.6650   46.0090 C   0  0  0  0  0  0  0  0  0  0  0  0
   44.4970   35.6790   45.1970 N   0  0  0  0  0  0  0  0  0  0  0  0
   44.6800   36.8130   43.0880 N   0  0  0  0  0  0  0  0  0  0  0  0
   44.2580   33.3630   41.6350 S   0  0  0  0  0  0  0  0  0  0  0  0
   47.6046   36.3506   41.3890 H   0  0  0  0  0  0  0  0  0  0  0  0
   48.1746   35.6211   42.9369 H   0  0  0  0  0  0  0  0  0  0  0  0
   49.1955   35.0709   40.5183 H   0  0  0  0  0  0  0  0  0  0  0  0
   49.1304   33.9187   41.9746 H   0  0  0  0  0  0  0  0  0  0  0  0
   48.4547   33.3482   39.4488 H   0  0  0  0  0  0  0  0  0  0  0  0
   47.9192   32.5390   41.0415 H   0  0  0  0  0  0  0  0  0  0  0  0
   46.4097   34.1519   39.0981 H   0  0  0  0  0  0  0  0  0  0  0  0
   46.0299   32.6076   40.0400 H   0  0  0  0  0  0  0  0  0  0  0  0
   45.2667   35.2719   40.5248 H   0  0  0  0  0  0  0  0  0  0  0  0
   46.9054   32.8836   44.0566 H   0  0  0  0  0  0  0  0  0  0  0  0
   44.3894   34.6199   47.0215 H   0  0  0  0  0  0  0  0  0  0  0  0
   45.0782   36.8566   42.1391 H   0  0  0  0  0  0  0  0  0  0  0  0
   44.0360   37.5493   43.4106 H   0  0  0  0  0  0  0  0  0  0  0  0
   44.2458   33.3540   43.0049 H   0  0  0  0  0  0  0  0  0  0  0  0
  1  8  1  0
  2  1  1  0
  3  2  1  0
  4  3  1  0
  5  4  1  0
  5  6  1  0
  6 14  1  0
  6  1  1  0
  7 12  2  0
  8  7  1  0
  8  9  2  0
  9 10  1  0
 10 11  2  0
 12 11  1  0
 13  7  1  0
  2 15  1  0
  2 16  1  0
  3 17  1  0
  3 18  1  0
  4 19  1  0
  4 20  1  0
  5 21  1  0
  5 22  1  0
  6 23  1  6
  9 24  1  0
 11 25  1  0
 13 26  1  0
 13 27  1  0
 14 28  1  0
M  ISO  8  15  13  16  13  17  13  18  13  19  13  20  13  21  13  22  13
M  ISO  4  23  13  24  14  25  14  28  11
M  END
>  <minimizedAffinity>  (1) 
-4.64678001

>  <minimizedRMSD>  (1) 
0.0121709835

$$$$
