
     RDKit          3D

 29 30  0  0  1  0  0  0  0  0999 V2000
   46.2410   34.5690   42.4810 N   0  0  0  0  0  0  0  0  0  0  0  0
   47.2280   35.5620   42.1930 C   0  0  0  0  0  0  0  0  0  0  0  0
   48.1880   35.0700   41.1890 C   0  0  0  0  0  0  0  0  0  0  0  0
   47.7850   33.9050   40.3770 C   0  0  0  0  0  0  0  0  0  0  0  0
   46.3320   33.6430   40.2390 C   0  0  0  0  0  0  0  0  0  0  0  0
   45.4740   33.9780   41.4270 C   0  0  2  0  0  0  0  0  0  0  0  0
   45.1490   34.9390   44.6340 C   0  0  0  0  0  0  0  0  0  0  0  0
   46.0280   34.1720   43.8330 C   0  0  0  0  0  0  0  0  0  0  0  0
   46.6470   33.0570   44.4220 C   0  0  0  0  0  0  0  0  0  0  0  0
   46.3630   32.7860   45.7130 N   0  0  0  0  0  0  0  0  0  0  0  0
   45.5260   33.5280   46.4470 C   0  0  0  0  0  0  0  0  0  0  0  0
   44.9180   34.6010   45.9180 N   0  0  0  0  0  0  0  0  0  0  0  0
   44.5110   36.0670   44.0690 N   0  0  0  0  0  0  0  0  0  0  0  0
   44.3010   34.8270   41.0340 C   0  0  0  0  0  0  0  0  0  0  0  0
   43.6590   35.3630   40.1330 O   0  0  0  0  0  0  0  0  0  0  0  0
   46.7305   36.4631   41.8050 H   0  0  0  0  0  0  0  0  0  0  0  0
   47.7744   35.7949   43.1188 H   0  0  0  0  0  0  0  0  0  0  0  0
   48.3950   35.8991   40.4964 H   0  0  0  0  0  0  0  0  0  0  0  0
   49.0516   34.7200   41.7736 H   0  0  0  0  0  0  0  0  0  0  0  0
   48.1922   34.0503   39.3655 H   0  0  0  0  0  0  0  0  0  0  0  0
   48.1794   33.0327   40.9188 H   0  0  0  0  0  0  0  0  0  0  0  0
   45.9658   34.2324   39.3855 H   0  0  0  0  0  0  0  0  0  0  0  0
   46.2433   32.5537   40.1139 H   0  0  0  0  0  0  0  0  0  0  0  0
   45.0685   33.0345   41.8212 H   0  0  0  0  0  0  0  0  0  0  0  0
   47.3412   32.4248   43.8489 H   0  0  0  0  0  0  0  0  0  0  0  0
   45.3341   33.2556   47.4953 H   0  0  0  0  0  0  0  0  0  0  0  0
   44.6902   36.3221   43.0873 H   0  0  0  0  0  0  0  0  0  0  0  0
   43.8670   36.6338   44.6391 H   0  0  0  0  0  0  0  0  0  0  0  0
   43.7849   35.0852   41.9705 H   0  0  0  0  0  0  0  0  0  0  0  0
  1  8  1  0
  2  1  1  0
  3  2  1  0
  4  3  1  0
  5  4  1  0
  5  6  1  0
  6  1  1  0
  7 12  2  0
  8  9  2  0
  8  7  1  0
  9 10  1  0
 10 11  2  0
 12 11  1  0
 13  7  1  0
 14  6  1  0
 15 14  2  0
  2 16  1  0
  2 17  1  0
  3 18  1  0
  3 19  1  0
  4 20  1  0
  4 21  1  0
  5 22  1  0
  5 23  1  0
  6 24  1  1
  9 25  1  0
 11 26  1  0
 13 27  1  0
 13 28  1  0
 14 29  1  0
M  ISO  8  16  13  17  13  18  13  19  13  20  13  21  13  22  13  23  13
M  ISO  4  24  13  25  14  26  14  29   6
M  END
>  <minimizedAffinity>  (1) 
-4.63703632

>  <minimizedRMSD>  (1) 
0.910962343

$$$$
