
     RDKit          3D

 29 30  0  0  1  0  0  0  0  0999 V2000
   46.3170   34.6270   42.3480 N   0  0  0  0  0  0  0  0  0  0  0  0
   47.3520   35.5370   42.0140 C   0  0  0  0  0  0  0  0  0  0  0  0
   48.2830   34.9410   41.0360 C   0  0  0  0  0  0  0  0  0  0  0  0
   47.8150   33.7760   40.2520 C   0  0  0  0  0  0  0  0  0  0  0  0
   46.3580   33.5560   40.1490 C   0  0  0  0  0  0  0  0  0  0  0  0
   45.5270   34.0150   41.3030 C   0  0  2  0  0  0  0  0  0  0  0  0
   45.0950   35.0640   44.4090 C   0  0  0  0  0  0  0  0  0  0  0  0
   46.0530   34.3150   43.7020 C   0  0  0  0  0  0  0  0  0  0  0  0
   46.7140   33.2750   44.3900 C   0  0  0  0  0  0  0  0  0  0  0  0
   46.3890   33.0590   45.6820 N   0  0  0  0  0  0  0  0  0  0  0  0
   45.4640   33.7950   46.3270 C   0  0  0  0  0  0  0  0  0  0  0  0
   44.8220   34.7880   45.7000 N   0  0  0  0  0  0  0  0  0  0  0  0
   44.4170   36.1130   43.7440 N   0  0  0  0  0  0  0  0  0  0  0  0
   44.5830   35.0240   40.8320 N   0  0  0  0  0  0  0  0  0  0  0  0
   46.9071   36.4449   41.5806 H   0  0  0  0  0  0  0  0  0  0  0  0
   47.9126   35.7821   42.9282 H   0  0  0  0  0  0  0  0  0  0  0  0
   48.5539   35.7302   40.3192 H   0  0  0  0  0  0  0  0  0  0  0  0
   49.1086   34.5473   41.6471 H   0  0  0  0  0  0  0  0  0  0  0  0
   48.2025   33.8918   39.2291 H   0  0  0  0  0  0  0  0  0  0  0  0
   48.1889   32.9016   40.8048 H   0  0  0  0  0  0  0  0  0  0  0  0
   46.0036   34.0847   39.2518 H   0  0  0  0  0  0  0  0  0  0  0  0
   46.2319   32.4637   40.1182 H   0  0  0  0  0  0  0  0  0  0  0  0
   45.0251   33.1261   41.7128 H   0  0  0  0  0  0  0  0  0  0  0  0
   47.4730   32.6576   43.8872 H   0  0  0  0  0  0  0  0  0  0  0  0
   45.2336   33.5778   47.3804 H   0  0  0  0  0  0  0  0  0  0  0  0
   44.6294   36.3197   42.7576 H   0  0  0  0  0  0  0  0  0  0  0  0
   43.7111   36.6699   44.2464 H   0  0  0  0  0  0  0  0  0  0  0  0
   44.1469   35.4901   41.6404 H   0  0  0  0  0  0  0  0  0  0  0  0
   45.0821   35.7215   40.2616 H   0  0  0  0  0  0  0  0  0  0  0  0
  1  8  1  0
  2  1  1  0
  3  2  1  0
  4  3  1  0
  5  4  1  0
  5  6  1  0
  6  1  1  0
  7 12  2  0
  8  9  2  0
  8  7  1  0
  9 10  1  0
 10 11  2  0
 12 11  1  0
 13  7  1  0
 14  6  1  0
  2 15  1  0
  2 16  1  0
  3 17  1  0
  3 18  1  0
  4 19  1  0
  4 20  1  0
  5 21  1  0
  5 22  1  0
  6 23  1  1
  9 24  1  0
 11 25  1  0
 13 26  1  0
 13 27  1  0
 14 28  1  0
 14 29  1  0
M  ISO  8  15  13  16  13  17  13  18  13  19  13  20  13  21  13  22  13
M  ISO  5  23  13  24  14  25  14  28   5  29   5
M  END
>  <minimizedAffinity>  (1) 
-4.58810616

>  <minimizedRMSD>  (1) 
0.727242649

$$$$
