
     RDKit          3D

 30 32  0  0  0  0  0  0  0  0999 V2000
   44.8000   32.9450   41.1890 Br  0  0  0  0  0  0  0  0  0  0  0  0
   46.4410   33.9190   40.9340 C   0  0  0  0  0  0  0  0  0  0  0  0
   46.9140   34.7550   41.9260 C   0  0  0  0  0  0  0  0  0  0  0  0
   48.1010   35.4620   41.7440 C   0  0  0  0  0  0  0  0  0  0  0  0
   48.7770   35.3080   40.5720 C   0  0  0  0  0  0  0  0  0  0  0  0
   48.2660   34.4610   39.6040 C   0  0  0  0  0  0  0  0  0  0  0  0
   47.1120   33.7540   39.7430 C   0  0  0  0  0  0  0  0  0  0  0  0
   45.6370   34.0510   45.2730 C   0  0  0  0  0  0  0  0  0  0  0  0
   44.7090   35.0790   45.4990 C   0  0  0  0  0  0  0  0  0  0  0  0
   44.5360   36.0200   44.4670 C   0  0  0  0  0  0  0  0  0  0  0  0
   45.2630   35.8810   43.3370 N   0  0  0  0  0  0  0  0  0  0  0  0
   46.1500   34.8770   43.1520 C   0  0  0  0  0  0  0  0  0  0  0  0
   46.3280   33.9630   44.1360 N   0  0  0  0  0  0  0  0  0  0  0  0
   47.9580   30.7510   40.0320 Br  0  0  0  0  0  0  0  0  0  0  0  0
   46.8230   31.4910   38.6790 C   0  0  0  0  0  0  0  0  0  0  0  0
   46.5680   32.8570   38.7280 C   0  0  0  0  0  0  0  0  0  0  0  0
   45.7510   33.4140   37.7620 C   0  0  0  0  0  0  0  0  0  0  0  0
   45.2030   32.6250   36.7720 C   0  0  0  0  0  0  0  0  0  0  0  0
   45.4730   31.2720   36.7480 C   0  0  0  0  0  0  0  0  0  0  0  0
   46.2930   30.6720   37.7050 C   0  0  0  0  0  0  0  0  0  0  0  0
   48.4835   36.1299   42.5299 H   0  0  0  0  0  0  0  0  0  0  0  0
   49.7179   35.8502   40.3967 H   0  0  0  0  0  0  0  0  0  0  0  0
   48.8275   34.3528   38.6643 H   0  0  0  0  0  0  0  0  0  0  0  0
   45.7991   33.2960   46.0564 H   0  0  0  0  0  0  0  0  0  0  0  0
   44.1427   35.1462   46.4397 H   0  0  0  0  0  0  0  0  0  0  0  0
   43.8239   36.8510   44.5781 H   0  0  0  0  0  0  0  0  0  0  0  0
   45.5366   34.4927   37.7829 H   0  0  0  0  0  0  0  0  0  0  0  0
   44.5537   33.0724   36.0051 H   0  0  0  0  0  0  0  0  0  0  0  0
   45.0310   30.6509   35.9550 H   0  0  0  0  0  0  0  0  0  0  0  0
   46.5069   29.5932   37.6830 H   0  0  0  0  0  0  0  0  0  0  0  0
  2  1  1  0
  2  3  2  0
  3 12  1  0
  4  3  1  0
  5  4  2  0
  6  7  2  0
  6  5  1  0
  7  2  1  0
  8  9  2  0
 10  9  1  0
 11 10  2  0
 12 11  1  0
 12 13  2  0
 13  8  1  0
 15 16  2  0
 15 14  1  0
 16  7  1  0
 17 16  1  0
 18 17  2  0
 19 18  1  0
 19 20  2  0
 20 15  1  0
  4 21  1  0
  5 22  1  0
  6 23  1  0
  8 24  1  0
  9 25  1  0
 10 26  1  0
 17 27  1  0
 18 28  1  0
 19 29  1  0
 20 30  1  0
M  ISO  8  21  14  22  14  23  14  24  14  25  14  26  14  27  14  28  14
M  ISO  2  29  14  30  14
M  END
>  <minimizedAffinity>  (1) 
-5.3981328

>  <minimizedRMSD>  (1) 
0.280103534

$$$$
