
     RDKit          3D

 32 33  0  0  0  0  0  0  0  0999 V2000
   47.0670   34.4530   42.3340 C   0  0  0  0  0  0  0  0  0  0  0  0
   46.1810   34.7240   43.4680 C   0  0  0  0  0  0  0  0  0  0  0  0
   45.2950   35.7920   43.4590 C   0  0  0  0  0  0  0  0  0  0  0  0
   44.4750   35.9780   44.5980 C   0  0  0  0  0  0  0  0  0  0  0  0
   44.6080   35.0920   45.6350 N   0  0  0  0  0  0  0  0  0  0  0  0
   45.4910   34.0630   45.5900 C   0  0  0  0  0  0  0  0  0  0  0  0
   46.2720   33.8900   44.5020 N   0  0  0  0  0  0  0  0  0  0  0  0
   48.4960   34.5240   42.8080 C   0  0  0  0  0  0  0  0  0  0  0  0
   49.4610   34.0490   41.7130 C   0  0  0  0  0  0  0  0  0  0  0  0
   50.6580   33.4300   42.2890 C   0  0  0  0  0  0  0  0  0  0  0  0
   51.0880   32.1100   41.7430 C   0  0  0  0  0  0  0  0  0  0  0  0
   50.5090   31.7760   40.4000 C   0  0  0  0  0  0  0  0  0  0  0  0
   48.9930   31.8240   40.6170 C   0  0  0  0  0  0  0  0  0  0  0  0
   48.6630   33.2770   40.7340 C   0  0  0  0  0  0  0  0  0  0  0  0
   46.9006   35.2033   41.5470 H   0  0  0  0  0  0  0  0  0  0  0  0
   46.8573   33.4533   41.9257 H   0  0  0  0  0  0  0  0  0  0  0  0
   45.2319   36.4712   42.5960 H   0  0  0  0  0  0  0  0  0  0  0  0
   43.7541   36.8073   44.6490 H   0  0  0  0  0  0  0  0  0  0  0  0
   45.5708   33.3694   46.4400 H   0  0  0  0  0  0  0  0  0  0  0  0
   48.7362   35.5642   43.0731 H   0  0  0  0  0  0  0  0  0  0  0  0
   48.6085   33.8682   43.6840 H   0  0  0  0  0  0  0  0  0  0  0  0
   49.9149   34.8693   41.1375 H   0  0  0  0  0  0  0  0  0  0  0  0
   51.4923   34.1323   42.1454 H   0  0  0  0  0  0  0  0  0  0  0  0
   50.3876   33.2231   43.3350 H   0  0  0  0  0  0  0  0  0  0  0  0
   52.1843   32.1156   41.6531 H   0  0  0  0  0  0  0  0  0  0  0  0
   50.7187   31.3458   42.4427 H   0  0  0  0  0  0  0  0  0  0  0  0
   50.8248   30.7726   40.0785 H   0  0  0  0  0  0  0  0  0  0  0  0
   50.8427   32.4702   39.6147 H   0  0  0  0  0  0  0  0  0  0  0  0
   48.4660   31.3758   39.7618 H   0  0  0  0  0  0  0  0  0  0  0  0
   48.6859   31.2582   41.5089 H   0  0  0  0  0  0  0  0  0  0  0  0
   48.8092   33.7356   39.7449 H   0  0  0  0  0  0  0  0  0  0  0  0
   47.6267   33.3162   41.1009 H   0  0  0  0  0  0  0  0  0  0  0  0
  1  8  1  0
  1  2  1  0
  2  7  1  0
  3  2  2  0
  3  4  1  0
  4  5  2  0
  6  5  1  0
  7  6  2  0
  9 10  1  0
  9  8  1  0
 11 10  1  0
 12 13  1  0
 12 11  1  0
 13 14  1  0
 14  9  1  0
  1 15  1  0
  1 16  1  0
  3 17  1  0
  4 18  1  0
  6 19  1  0
  8 20  1  0
  8 21  1  0
  9 22  1  0
 10 23  1  0
 10 24  1  0
 11 25  1  0
 11 26  1  0
 12 27  1  0
 12 28  1  0
 13 29  1  0
 13 30  1  0
 14 31  1  0
 14 32  1  0
M  ISO  8  15   8  16   8  17  14  18  14  19  14  20   8  21   8  22  13
M  ISO  8  23  13  24  13  25  13  26  13  27  13  28  13  29  13  30  13
M  ISO  2  31  13  32  13
M  END
>  <minimizedAffinity>  (1) 
-4.34822035

>  <minimizedRMSD>  (1) 
1.75077784

$$$$
