
     RDKit          3D

 29 30  0  0  0  0  0  0  0  0999 V2000
   46.1090   33.5160   42.2340 C   0  0  0  0  0  0  0  0  0  0  0  0
   45.5680   34.2670   43.3860 C   0  0  0  0  0  0  0  0  0  0  0  0
   45.0660   35.5480   43.2530 C   0  0  0  0  0  0  0  0  0  0  0  0
   44.5720   36.1840   44.4140 C   0  0  0  0  0  0  0  0  0  0  0  0
   44.6240   35.4870   45.5920 N   0  0  0  0  0  0  0  0  0  0  0  0
   45.1230   34.2470   45.6610 C   0  0  0  0  0  0  0  0  0  0  0  0
   45.5870   33.6500   44.5690 N   0  0  0  0  0  0  0  0  0  0  0  0
   47.4330   34.1220   41.8440 C   0  0  0  0  0  0  0  0  0  0  0  0
   48.4440   33.6280   42.7090 N   0  0  0  0  0  0  0  0  0  0  0  0
   48.5290   32.2390   42.9240 C   0  0  0  0  0  0  0  0  0  0  0  0
   49.4190   31.6670   41.8450 C   0  0  0  0  0  0  0  0  0  0  0  0
   50.7190   32.3630   41.6830 C   0  0  0  0  0  0  0  0  0  0  0  0
   50.8830   33.6830   42.3420 C   0  0  0  0  0  0  0  0  0  0  0  0
   49.6390   34.3830   42.7640 C   0  0  0  0  0  0  0  0  0  0  0  0
   46.2518   32.4616   42.5130 H   0  0  0  0  0  0  0  0  0  0  0  0
   45.4078   33.5688   41.3881 H   0  0  0  0  0  0  0  0  0  0  0  0
   45.0516   36.0549   42.2768 H   0  0  0  0  0  0  0  0  0  0  0  0
   44.1601   37.2032   44.3733 H   0  0  0  0  0  0  0  0  0  0  0  0
   45.1489   33.7200   46.6262 H   0  0  0  0  0  0  0  0  0  0  0  0
   47.6713   33.8488   40.8055 H   0  0  0  0  0  0  0  0  0  0  0  0
   47.3775   35.2174   41.9273 H   0  0  0  0  0  0  0  0  0  0  0  0
   48.9628   32.0380   43.9146 H   0  0  0  0  0  0  0  0  0  0  0  0
   47.5305   31.7790   42.8874 H   0  0  0  0  0  0  0  0  0  0  0  0
   49.6219   30.6140   42.0901 H   0  0  0  0  0  0  0  0  0  0  0  0
   48.8778   31.7927   40.8956 H   0  0  0  0  0  0  0  0  0  0  0  0
   51.4994   31.6979   42.0814 H   0  0  0  0  0  0  0  0  0  0  0  0
   50.7854   32.5800   40.6067 H   0  0  0  0  0  0  0  0  0  0  0  0
   51.8769   34.1231   42.5105 H   0  0  0  0  0  0  0  0  0  0  0  0
   49.6484   35.4303   43.1003 H   0  0  0  0  0  0  0  0  0  0  0  0
  1  2  1  0
  2  7  1  0
  3  2  2  0
  3  4  1  0
  4  5  2  0
  5  6  1  0
  7  6  2  0
  8  1  1  0
  8  9  1  0
  9 14  1  0
  9 10  1  0
 11 10  1  0
 12 11  1  0
 12 13  1  0
 13 14  2  0
  1 15  1  0
  1 16  1  0
  3 17  1  0
  4 18  1  0
  6 19  1  0
  8 20  1  0
  8 21  1  0
 10 22  1  0
 10 23  1  0
 11 24  1  0
 11 25  1  0
 12 26  1  0
 12 27  1  0
 13 28  1  0
 14 29  1  0
M  ISO  8  15   8  16   8  17  14  18  14  19  14  20   8  21   8  22  13
M  ISO  7  23  13  24  13  25  13  26  13  27  13  28  13  29  13
M  END
>  <minimizedAffinity>  (1) 
-3.90161109

>  <minimizedRMSD>  (1) 
2.40108871

$$$$
