
     RDKit          3D

 17 17  0  0  0  0  0  0  0  0999 V2000
   47.0390   34.2640   43.3710 C   0  0  0  0  0  0  0  0  0  0  0  0
   46.3970   35.2570   42.6500 C   0  0  0  0  0  0  0  0  0  0  0  0
   45.1800   35.7770   43.1170 C   0  0  0  0  0  0  0  0  0  0  0  0
   44.7010   35.2550   44.2800 N   0  0  0  0  0  0  0  0  0  0  0  0
   45.3420   34.2920   44.9600 C   0  0  0  0  0  0  0  0  0  0  0  0
   46.5010   33.8040   44.5070 N   0  0  0  0  0  0  0  0  0  0  0  0
   48.3100   33.6810   42.9350 C   0  0  0  0  0  0  0  0  0  0  0  0
   49.1680   34.7920   42.3470 C   0  0  0  0  0  0  0  0  0  0  0  0
   50.2060   35.1430   43.1990 O   0  0  0  0  0  0  0  0  0  0  0  0
   46.8385   35.6360   41.7165 H   0  0  0  0  0  0  0  0  0  0  0  0
   44.6408   36.5656   42.5717 H   0  0  0  0  0  0  0  0  0  0  0  0
   44.9117   33.9024   45.8944 H   0  0  0  0  0  0  0  0  0  0  0  0
   48.8258   33.2279   43.7945 H   0  0  0  0  0  0  0  0  0  0  0  0
   48.1304   32.9009   42.1805 H   0  0  0  0  0  0  0  0  0  0  0  0
   49.5914   34.4481   41.3918 H   0  0  0  0  0  0  0  0  0  0  0  0
   48.5308   35.6764   42.1994 H   0  0  0  0  0  0  0  0  0  0  0  0
   49.9100   35.0429   44.1384 H   0  0  0  0  0  0  0  0  0  0  0  0
  1  6  2  0
  2  3  2  0
  2  1  1  0
  3  4  1  0
  4  5  2  0
  6  5  1  0
  7  1  1  0
  8  7  1  0
  8  9  1  0
  2 10  1  0
  3 11  1  0
  5 12  1  0
  7 13  1  0
  7 14  1  0
  8 15  1  0
  8 16  1  0
  9 17  1  0
M  ISO  8  10  14  11  14  12  14  13   8  14   8  15   8  16   8  17   3
M  END
>  <minimizedAffinity>  (1) 
-3.72720909

>  <minimizedRMSD>  (1) 
0.396069109

$$$$
