
     RDKit          3D

 23 24  0  0  0  0  0  0  0  0999 V2000
   48.1020   35.3530   41.7870 C   0  0  0  0  0  0  0  0  0  0  0  0
   46.7680   34.8520   42.1180 C   0  0  0  0  0  0  0  0  0  0  0  0
   46.3240   34.6590   43.4220 C   0  0  0  0  0  0  0  0  0  0  0  0
   45.0290   34.1880   43.6270 C   0  0  0  0  0  0  0  0  0  0  0  0
   44.2630   33.9410   42.5400 N   0  0  0  0  0  0  0  0  0  0  0  0
   44.7100   34.1340   41.2880 C   0  0  0  0  0  0  0  0  0  0  0  0
   45.9430   34.5820   41.0990 N   0  0  0  0  0  0  0  0  0  0  0  0
   49.1230   34.3950   42.3280 C   0  0  0  0  0  0  0  0  0  0  0  0
   49.4920   33.3180   41.4740 C   0  0  0  0  0  0  0  0  0  0  0  0
   48.9630   32.6880   40.2750 C   0  0  0  0  0  0  0  0  0  0  0  0
   49.6520   31.6430   39.7490 C   0  0  0  0  0  0  0  0  0  0  0  0
   50.8970   31.1930   40.4070 C   0  0  0  0  0  0  0  0  0  0  0  0
   51.0670   32.3200   41.8280 S   0  0  0  0  0  0  0  0  0  0  0  0
   48.2083   35.4296   40.6948 H   0  0  0  0  0  0  0  0  0  0  0  0
   48.2496   36.3486   42.2309 H   0  0  0  0  0  0  0  0  0  0  0  0
   46.9833   34.8743   44.2758 H   0  0  0  0  0  0  0  0  0  0  0  0
   44.6410   34.0219   44.6428 H   0  0  0  0  0  0  0  0  0  0  0  0
   44.0585   33.9221   40.4273 H   0  0  0  0  0  0  0  0  0  0  0  0
   50.0333   34.9689   42.5561 H   0  0  0  0  0  0  0  0  0  0  0  0
   48.6503   33.9262   43.2037 H   0  0  0  0  0  0  0  0  0  0  0  0
   48.0336   33.0468   39.8087 H   0  0  0  0  0  0  0  0  0  0  0  0
   49.2877   31.1366   38.8430 H   0  0  0  0  0  0  0  0  0  0  0  0
   51.5640   30.3708   40.1086 H   0  0  0  0  0  0  0  0  0  0  0  0
  1  2  1  0
  1  8  1  0
  2  3  2  0
  3  4  1  0
  5  4  2  0
  6  5  1  0
  7  6  2  0
  7  2  1  0
  9 13  1  0
  9  8  1  0
 10  9  2  0
 11 10  1  0
 11 12  2  0
 12 13  1  0
  1 14  1  0
  1 15  1  0
  3 16  1  0
  4 17  1  0
  6 18  1  0
  8 19  1  0
  8 20  1  0
 10 21  1  0
 11 22  1  0
 12 23  1  0
M  ISO  8  14   8  15   8  16  14  17  14  18  14  19   8  20   8  21  14
M  ISO  2  22  14  23  14
M  END
>  <minimizedAffinity>  (1) 
-3.25267148

>  <minimizedRMSD>  (1) 
4.35595894

$$$$
