
     RDKit          3D

 39 42  0  0  0  0  0  0  0  0999 V2000
   48.4480   32.0440   38.3860 C   0  0  0  0  0  0  0  0  0  0  0  0
   48.5240   33.4690   38.3900 C   0  0  0  0  0  0  0  0  0  0  0  0
   47.7780   34.2080   39.2640 C   0  0  0  0  0  0  0  0  0  0  0  0
   46.9220   33.4890   40.1720 C   0  0  0  0  0  0  0  0  0  0  0  0
   47.1950   31.7680   39.7610 S   0  0  0  0  0  0  0  0  0  0  0  0
   46.1370   34.2750   41.0960 C   0  0  0  0  0  0  0  0  0  0  0  0
   46.6420   34.9000   42.2020 C   0  0  0  0  0  0  0  0  0  0  0  0
   45.8730   35.6300   43.0460 C   0  0  0  0  0  0  0  0  0  0  0  0
   44.5210   35.8040   42.8660 C   0  0  0  0  0  0  0  0  0  0  0  0
   44.0120   35.1750   41.7520 C   0  0  0  0  0  0  0  0  0  0  0  0
   42.6580   35.3430   41.5620 C   0  0  0  0  0  0  0  0  0  0  0  0
   41.9980   34.7770   40.4950 C   0  0  0  0  0  0  0  0  0  0  0  0
   42.7680   34.0310   39.6250 C   0  0  0  0  0  0  0  0  0  0  0  0
   44.1030   33.8950   39.8570 C   0  0  0  0  0  0  0  0  0  0  0  0
   44.8100   34.4310   40.8960 C   0  0  0  0  0  0  0  0  0  0  0  0
   49.0290   30.9650   37.6740 C   0  0  0  0  0  0  0  0  0  0  0  0
   50.4990   31.0430   37.4300 C   0  0  0  0  0  0  0  0  0  0  0  0
   51.2310   30.7260   38.6490 C   0  0  0  0  0  0  0  0  0  0  0  0
   50.9020   29.6280   39.4460 C   0  0  0  0  0  0  0  0  0  0  0  0
   51.6490   29.3940   40.5910 C   0  0  0  0  0  0  0  0  0  0  0  0
   52.6630   30.2450   40.8800 N   0  0  0  0  0  0  0  0  0  0  0  0
   52.9670   31.3050   40.0930 C   0  0  0  0  0  0  0  0  0  0  0  0
   52.2510   31.5280   38.9970 N   0  0  0  0  0  0  0  0  0  0  0  0
   49.1919   33.9790   37.6802 H   0  0  0  0  0  0  0  0  0  0  0  0
   47.8290   35.3068   39.2738 H   0  0  0  0  0  0  0  0  0  0  0  0
   47.7170   34.8065   42.4157 H   0  0  0  0  0  0  0  0  0  0  0  0
   46.3523   36.1050   43.9147 H   0  0  0  0  0  0  0  0  0  0  0  0
   43.8988   36.3956   43.5537 H   0  0  0  0  0  0  0  0  0  0  0  0
   42.0880   35.9467   42.2836 H   0  0  0  0  0  0  0  0  0  0  0  0
   40.9168   34.9116   40.3437 H   0  0  0  0  0  0  0  0  0  0  0  0
   42.3062   33.5497   38.7503 H   0  0  0  0  0  0  0  0  0  0  0  0
   44.6706   33.2915   39.1334 H   0  0  0  0  0  0  0  0  0  0  0  0
   48.8332   30.0446   38.2437 H   0  0  0  0  0  0  0  0  0  0  0  0
   48.5665   30.9919   36.6763 H   0  0  0  0  0  0  0  0  0  0  0  0
   50.7750   30.3249   36.6438 H   0  0  0  0  0  0  0  0  0  0  0  0
   50.7557   32.0648   37.1138 H   0  0  0  0  0  0  0  0  0  0  0  0
   50.0693   28.9635   39.1721 H   0  0  0  0  0  0  0  0  0  0  0  0
   51.4242   28.5402   41.2471 H   0  0  0  0  0  0  0  0  0  0  0  0
   53.7985   31.9742   40.3591 H   0  0  0  0  0  0  0  0  0  0  0  0
  1  2  2  0
  1  5  1  0
  2  3  1  0
  3  4  2  0
  4  6  1  0
  5  4  1  0
  6  7  2  0
  7  8  1  0
  9  8  2  0
 10  9  1  0
 11 10  2  0
 12 11  1  0
 13 14  1  0
 13 12  2  0
 14 15  2  0
 15  6  1  0
 15 10  1  0
 16  1  1  0
 17 16  1  0
 17 18  1  0
 18 23  1  0
 18 19  2  0
 19 20  1  0
 20 21  2  0
 22 21  1  0
 23 22  2  0
  2 24  1  0
  3 25  1  0
  7 26  1  0
  8 27  1  0
  9 28  1  0
 11 29  1  0
 12 30  1  0
 13 31  1  0
 14 32  1  0
 16 33  1  0
 16 34  1  0
 17 35  1  0
 17 36  1  0
 19 37  1  0
 20 38  1  0
 22 39  1  0
M  ISO  8  24  14  25  14  26  14  27  14  28  14  29  14  30  14  31  14
M  ISO  8  32  14  33   8  34   8  35   8  36   8  37  14  38  14  39  14
M  END
>  <minimizedAffinity>  (1) 
-4.7518239

>  <minimizedRMSD>  (1) 
8.9049387

$$$$
