
     RDKit          3D

 37 40  0  0  0  0  0  0  0  0999 V2000
   49.2070   33.1000   41.6920 C   0  0  0  0  0  0  0  0  0  0  0  0
   49.0560   32.4160   40.4410 C   0  0  0  0  0  0  0  0  0  0  0  0
   50.1020   31.7310   39.9190 C   0  0  0  0  0  0  0  0  0  0  0  0
   51.3460   31.7260   40.6700 C   0  0  0  0  0  0  0  0  0  0  0  0
   50.9980   32.7170   42.1380 S   0  0  0  0  0  0  0  0  0  0  0  0
   53.2170   30.1060   40.9930 C   0  0  0  0  0  0  0  0  0  0  0  0
   52.5410   31.0410   40.2380 C   0  0  0  0  0  0  0  0  0  0  0  0
   52.9480   31.4200   38.9740 C   0  0  0  0  0  0  0  0  0  0  0  0
   54.0810   30.8680   38.3910 C   0  0  0  0  0  0  0  0  0  0  0  0
   54.7230   31.0160   37.2190 N   0  0  0  0  0  0  0  0  0  0  0  0
   55.8040   30.2010   37.1840 C   0  0  0  0  0  0  0  0  0  0  0  0
   55.8390   29.5120   38.3890 C   0  0  0  0  0  0  0  0  0  0  0  0
   54.7660   29.9250   39.1420 C   0  0  0  0  0  0  0  0  0  0  0  0
   54.3370   29.5670   40.4000 C   0  0  0  0  0  0  0  0  0  0  0  0
   48.4050   33.9010   42.5580 C   0  0  0  0  0  0  0  0  0  0  0  0
   47.7890   35.1310   41.9540 C   0  0  0  0  0  0  0  0  0  0  0  0
   46.3420   35.0430   42.0190 C   0  0  0  0  0  0  0  0  0  0  0  0
   45.6260   35.6010   43.0780 C   0  0  0  0  0  0  0  0  0  0  0  0
   44.2390   35.4900   43.0940 C   0  0  0  0  0  0  0  0  0  0  0  0
   43.6490   34.8310   42.0580 N   0  0  0  0  0  0  0  0  0  0  0  0
   44.3640   34.3030   41.0510 C   0  0  0  0  0  0  0  0  0  0  0  0
   45.6900   34.4100   41.0370 N   0  0  0  0  0  0  0  0  0  0  0  0
   48.0948   32.4472   39.9071 H   0  0  0  0  0  0  0  0  0  0  0  0
   50.0127   31.1978   38.9610 H   0  0  0  0  0  0  0  0  0  0  0  0
   52.8847   29.8110   41.9993 H   0  0  0  0  0  0  0  0  0  0  0  0
   52.3655   32.1710   38.4202 H   0  0  0  0  0  0  0  0  0  0  0  0
   54.4360   31.6530   36.4622 H   0  0  0  0  0  0  0  0  0  0  0  0
   56.5208   30.1031   36.3554 H   0  0  0  0  0  0  0  0  0  0  0  0
   56.5918   28.7678   38.6879 H   0  0  0  0  0  0  0  0  0  0  0  0
   54.9155   28.8156   40.9574 H   0  0  0  0  0  0  0  0  0  0  0  0
   47.5878   33.2692   42.9361 H   0  0  0  0  0  0  0  0  0  0  0  0
   49.0928   34.2704   43.3329 H   0  0  0  0  0  0  0  0  0  0  0  0
   48.1021   35.2169   40.9030 H   0  0  0  0  0  0  0  0  0  0  0  0
   48.1231   36.0158   42.5157 H   0  0  0  0  0  0  0  0  0  0  0  0
   46.1517   36.1228   43.8912 H   0  0  0  0  0  0  0  0  0  0  0  0
   43.6415   35.9182   43.9123 H   0  0  0  0  0  0  0  0  0  0  0  0
   43.8497   33.7785   40.2322 H   0  0  0  0  0  0  0  0  0  0  0  0
  1  5  1  0
  1 15  1  0
  2  1  2  0
  3  2  1  0
  3  4  2  0
  4  5  1  0
  7  4  1  0
  7  6  2  0
  8  7  1  0
  9  8  2  0
  9 13  1  0
 10  9  1  0
 11 10  1  0
 11 12  2  0
 12 13  1  0
 13 14  2  0
 14  6  1  0
 16 17  1  0
 16 15  1  0
 17 18  2  0
 18 19  1  0
 20 19  2  0
 21 20  1  0
 22 21  2  0
 22 17  1  0
  2 23  1  0
  3 24  1  0
  6 25  1  0
  8 26  1  0
 10 27  1  0
 11 28  1  0
 12 29  1  0
 14 30  1  0
 15 31  1  0
 15 32  1  0
 16 33  1  0
 16 34  1  0
 18 35  1  0
 19 36  1  0
 21 37  1  0
M  ISO  8  23  14  24  14  25  14  26  14  27   9  28  14  29  14  30  14
M  ISO  7  31   8  32   8  33   8  34   8  35  14  36  14  37  14
M  END
>  <minimizedAffinity>  (1) 
-4.65060425

>  <minimizedRMSD>  (1) 
1.36403573

$$$$
