
     RDKit          3D

 33 35  0  0  0  0  0  0  0  0999 V2000
   49.1430   32.9110   41.6860 C   0  0  0  0  0  0  0  0  0  0  0  0
   48.9260   32.3360   40.3890 C   0  0  0  0  0  0  0  0  0  0  0  0
   49.9650   31.7430   39.7280 C   0  0  0  0  0  0  0  0  0  0  0  0
   51.2540   31.7340   40.4030 C   0  0  0  0  0  0  0  0  0  0  0  0
   50.9830   32.5700   41.9740 S   0  0  0  0  0  0  0  0  0  0  0  0
   52.4190   31.1720   39.8800 C   0  0  0  0  0  0  0  0  0  0  0  0
   53.2550   30.3140   40.5650 C   0  0  0  0  0  0  0  0  0  0  0  0
   54.3710   29.8450   39.9020 C   0  0  0  0  0  0  0  0  0  0  0  0
   54.6880   30.1900   38.6040 C   0  0  0  0  0  0  0  0  0  0  0  0
   53.8470   31.0600   37.9020 C   0  0  0  0  0  0  0  0  0  0  0  0
   52.7260   31.5250   38.5810 C   0  0  0  0  0  0  0  0  0  0  0  0
   48.3580   33.5900   42.6570 C   0  0  0  0  0  0  0  0  0  0  0  0
   47.8850   34.9670   42.3050 C   0  0  0  0  0  0  0  0  0  0  0  0
   46.4380   34.9690   42.1990 C   0  0  0  0  0  0  0  0  0  0  0  0
   45.6240   35.4970   43.2050 C   0  0  0  0  0  0  0  0  0  0  0  0
   44.2480   35.4680   43.0450 C   0  0  0  0  0  0  0  0  0  0  0  0
   43.7580   34.9210   41.9050 N   0  0  0  0  0  0  0  0  0  0  0  0
   44.5590   34.4180   40.9530 C   0  0  0  0  0  0  0  0  0  0  0  0
   45.8690   34.4440   41.1000 N   0  0  0  0  0  0  0  0  0  0  0  0
   47.9276   32.3724   39.9288 H   0  0  0  0  0  0  0  0  0  0  0  0
   49.8330   31.2937   38.7327 H   0  0  0  0  0  0  0  0  0  0  0  0
   53.0399   30.0148   41.6014 H   0  0  0  0  0  0  0  0  0  0  0  0
   55.0441   29.1591   40.4372 H   0  0  0  0  0  0  0  0  0  0  0  0
   55.5924   29.7852   38.1264 H   0  0  0  0  0  0  0  0  0  0  0  0
   54.0614   31.3609   36.8659 H   0  0  0  0  0  0  0  0  0  0  0  0
   52.0468   32.2116   38.0544 H   0  0  0  0  0  0  0  0  0  0  0  0
   47.4686   32.9738   42.8550 H   0  0  0  0  0  0  0  0  0  0  0  0
   49.0264   33.7286   43.5196 H   0  0  0  0  0  0  0  0  0  0  0  0
   48.1962   35.6731   43.0889 H   0  0  0  0  0  0  0  0  0  0  0  0
   48.3235   35.2705   41.3429 H   0  0  0  0  0  0  0  0  0  0  0  0
   46.0701   35.9301   44.1124 H   0  0  0  0  0  0  0  0  0  0  0  0
   43.5766   35.8745   43.8157 H   0  0  0  0  0  0  0  0  0  0  0  0
   44.1198   33.9811   40.0440 H   0  0  0  0  0  0  0  0  0  0  0  0
  1  5  1  0
  1 12  1  0
  2  1  2  0
  3  2  1  0
  3  4  2  0
  4  5  1  0
  6  4  1  0
  6  7  2  0
  8  7  1  0
  9  8  2  0
 10 11  2  0
 10  9  1  0
 11  6  1  0
 13 12  1  0
 14 13  1  0
 14 15  2  0
 16 15  1  0
 17 16  2  0
 18 19  2  0
 18 17  1  0
 19 14  1  0
  2 20  1  0
  3 21  1  0
  7 22  1  0
  8 23  1  0
  9 24  1  0
 10 25  1  0
 11 26  1  0
 12 27  1  0
 12 28  1  0
 13 29  1  0
 13 30  1  0
 15 31  1  0
 16 32  1  0
 18 33  1  0
M  ISO  8  20  14  21  14  22  14  23  14  24  14  25  14  26  14  27   8
M  ISO  6  28   8  29   8  30   8  31  14  32  14  33  14
M  END
>  <minimizedAffinity>  (1) 
-4.2205019

>  <minimizedRMSD>  (1) 
1.28536749

$$$$
