
     RDKit          3D

 33 35  0  0  0  0  0  0  0  0999 V2000
   49.0640   33.1770   41.9500 C   0  0  0  0  0  0  0  0  0  0  0  0
   48.7210   32.2730   40.8850 C   0  0  0  0  0  0  0  0  0  0  0  0
   49.7200   31.5410   40.2970 C   0  0  0  0  0  0  0  0  0  0  0  0
   51.0760   31.7260   40.7930 C   0  0  0  0  0  0  0  0  0  0  0  0
   50.9310   32.9460   42.1000 S   0  0  0  0  0  0  0  0  0  0  0  0
   52.0700   29.7240   42.7150 Cl  0  0  0  0  0  0  0  0  0  0  0  0
   52.7950   30.1490   41.1710 C   0  0  0  0  0  0  0  0  0  0  0  0
   52.2230   31.1090   40.3640 C   0  0  0  0  0  0  0  0  0  0  0  0
   52.7940   31.4390   39.1570 C   0  0  0  0  0  0  0  0  0  0  0  0
   53.9660   30.7720   38.7740 C   0  0  0  0  0  0  0  0  0  0  0  0
   54.5340   29.8000   39.6070 C   0  0  0  0  0  0  0  0  0  0  0  0
   53.9480   29.4750   40.8240 C   0  0  0  0  0  0  0  0  0  0  0  0
   48.3720   34.0900   42.7910 C   0  0  0  0  0  0  0  0  0  0  0  0
   47.7530   35.2880   42.1090 C   0  0  0  0  0  0  0  0  0  0  0  0
   46.3050   35.1380   42.1270 C   0  0  0  0  0  0  0  0  0  0  0  0
   45.5120   35.6680   43.1320 C   0  0  0  0  0  0  0  0  0  0  0  0
   44.1330   35.4760   43.0700 C   0  0  0  0  0  0  0  0  0  0  0  0
   43.6390   34.7780   42.0240 N   0  0  0  0  0  0  0  0  0  0  0  0
   44.4160   34.2750   41.0650 C   0  0  0  0  0  0  0  0  0  0  0  0
   45.7170   34.4570   41.1250 N   0  0  0  0  0  0  0  0  0  0  0  0
   47.6785   32.1711   40.5492 H   0  0  0  0  0  0  0  0  0  0  0  0
   49.5043   30.8382   39.4787 H   0  0  0  0  0  0  0  0  0  0  0  0
   52.3432   32.2056   38.5097 H   0  0  0  0  0  0  0  0  0  0  0  0
   54.4428   31.0137   37.8126 H   0  0  0  0  0  0  0  0  0  0  0  0
   55.4556   29.2875   39.2938 H   0  0  0  0  0  0  0  0  0  0  0  0
   54.3853   28.7115   41.4841 H   0  0  0  0  0  0  0  0  0  0  0  0
   47.5656   33.5370   43.2949 H   0  0  0  0  0  0  0  0  0  0  0  0
   49.1339   34.4994   43.4706 H   0  0  0  0  0  0  0  0  0  0  0  0
   48.1064   35.3455   41.0689 H   0  0  0  0  0  0  0  0  0  0  0  0
   48.0412   36.2098   42.6356 H   0  0  0  0  0  0  0  0  0  0  0  0
   45.9625   36.2299   43.9634 H   0  0  0  0  0  0  0  0  0  0  0  0
   43.4681   35.8798   43.8477 H   0  0  0  0  0  0  0  0  0  0  0  0
   43.9727   33.7123   40.2302 H   0  0  0  0  0  0  0  0  0  0  0  0
  1  5  1  0
  1 13  1  0
  2  1  2  0
  3  4  2  0
  3  2  1  0
  4  5  1  0
  7  6  1  0
  8  4  1  0
  8  7  2  0
  9  8  1  0
 10  9  2  0
 10 11  1  0
 11 12  2  0
 12  7  1  0
 14 15  1  0
 14 13  1  0
 15 16  2  0
 17 16  1  0
 18 17  2  0
 19 20  2  0
 19 18  1  0
 20 15  1  0
  2 21  1  0
  3 22  1  0
  9 23  1  0
 10 24  1  0
 11 25  1  0
 12 26  1  0
 13 27  1  0
 13 28  1  0
 14 29  1  0
 14 30  1  0
 16 31  1  0
 17 32  1  0
 19 33  1  0
M  ISO  8  21  14  22  14  23  14  24  14  25  14  26  14  27   8  28   8
M  ISO  5  29   8  30   8  31  14  32  14  33  14
M  END
>  <minimizedAffinity>  (1) 
-4.17966843

>  <minimizedRMSD>  (1) 
1.27004981

$$$$
