
     RDKit          3D

 31 32  0  0  0  0  0  0  0  0999 V2000
   48.0460   33.4630   42.6630 C   0  0  0  0  0  0  0  0  0  0  0  0
   49.0530   32.8470   41.8640 C   0  0  0  0  0  0  0  0  0  0  0  0
   49.1130   32.0190   40.6950 C   0  0  0  0  0  0  0  0  0  0  0  0
   50.3150   31.6170   40.2130 C   0  0  0  0  0  0  0  0  0  0  0  0
   51.5000   32.0580   40.9250 C   0  0  0  0  0  0  0  0  0  0  0  0
   50.8790   33.0570   42.2950 S   0  0  0  0  0  0  0  0  0  0  0  0
   52.7830   31.7090   40.5260 N   0  0  0  0  0  0  0  0  0  0  0  0
   53.5750   30.1850   40.6740 S   0  0  0  0  0  0  0  0  0  0  0  0
   52.6200   29.0580   40.9590 O   0  0  0  0  0  0  0  0  0  0  0  0
   54.4340   29.9200   39.4660 O   0  0  0  0  0  0  0  0  0  0  0  0
   54.6430   30.2970   41.9920 O   0  0  0  0  0  0  0  0  0  0  0  0
   47.6670   34.8740   42.2930 C   0  0  0  0  0  0  0  0  0  0  0  0
   46.2240   34.9690   42.1670 C   0  0  0  0  0  0  0  0  0  0  0  0
   45.4430   35.5810   43.1370 C   0  0  0  0  0  0  0  0  0  0  0  0
   44.0600   35.6410   42.9600 C   0  0  0  0  0  0  0  0  0  0  0  0
   43.5510   35.0880   41.8310 N   0  0  0  0  0  0  0  0  0  0  0  0
   44.3350   34.4960   40.9030 C   0  0  0  0  0  0  0  0  0  0  0  0
   45.6450   34.4510   41.0910 N   0  0  0  0  0  0  0  0  0  0  0  0
   47.1393   32.8440   42.5945 H   0  0  0  0  0  0  0  0  0  0  0  0
   48.4757   33.5312   43.6733 H   0  0  0  0  0  0  0  0  0  0  0  0
   48.1857   31.7104   40.1901 H   0  0  0  0  0  0  0  0  0  0  0  0
   50.3888   30.9819   39.3179 H   0  0  0  0  0  0  0  0  0  0  0  0
   53.3337   32.4586   40.0837 H   0  0  0  0  0  0  0  0  0  0  0  0
   52.5248   28.9457   41.9380 H   0  0  0  0  0  0  0  0  0  0  0  0
   55.3378   29.6412   39.7585 H   0  0  0  0  0  0  0  0  0  0  0  0
   54.1306   30.2433   42.8374 H   0  0  0  0  0  0  0  0  0  0  0  0
   48.0131   35.5643   43.0764 H   0  0  0  0  0  0  0  0  0  0  0  0
   48.1376   35.1415   41.3354 H   0  0  0  0  0  0  0  0  0  0  0  0
   45.9084   36.0137   44.0348 H   0  0  0  0  0  0  0  0  0  0  0  0
   43.4083   36.1181   43.7068 H   0  0  0  0  0  0  0  0  0  0  0  0
   43.8888   34.0553   39.9993 H   0  0  0  0  0  0  0  0  0  0  0  0
  2  6  1  0
  2  1  1  0
  3  2  2  0
  4  3  1  0
  4  5  2  0
  5  6  1  0
  7  8  1  0
  7  5  1  0
  8  9  1  0
  8 11  1  0
 10  8  1  0
 12  1  1  0
 13 12  1  0
 13 14  2  0
 15 14  1  0
 16 15  2  0
 17 18  2  0
 17 16  1  0
 18 13  1  0
  1 19  1  0
  1 20  1  0
  3 21  1  0
  4 22  1  0
  7 23  1  0
  9 24  1  0
 10 25  1  0
 11 26  1  0
 12 27  1  0
 12 28  1  0
 14 29  1  0
 15 30  1  0
 17 31  1  0
M  ISO  8  19   8  20   8  21  14  22  14  24   3  25   3  26   3  27   8
M  ISO  4  28   8  29  14  30  14  31  14
M  END
>  <minimizedAffinity>  (1) 
-4.11095572

>  <minimizedRMSD>  (1) 
1.45825601

$$$$
