
     RDKit          3D

 30 32  0  0  0  0  0  0  0  0999 V2000
   48.3450   33.9080   42.6650 C   0  0  0  0  0  0  0  0  0  0  0  0
   49.0870   33.1150   41.7480 C   0  0  0  0  0  0  0  0  0  0  0  0
   48.8550   32.4530   40.4960 C   0  0  0  0  0  0  0  0  0  0  0  0
   49.8510   31.7650   39.8860 C   0  0  0  0  0  0  0  0  0  0  0  0
   51.1360   31.7360   40.5600 C   0  0  0  0  0  0  0  0  0  0  0  0
   50.9080   32.6970   42.0630 S   0  0  0  0  0  0  0  0  0  0  0  0
   52.2970   31.1200   40.1680 C   0  0  0  0  0  0  0  0  0  0  0  0
   53.0620   31.2520   39.0340 C   0  0  0  0  0  0  0  0  0  0  0  0
   54.1990   30.5190   38.8620 C   0  0  0  0  0  0  0  0  0  0  0  0
   54.5350   29.5930   39.9640 C   0  0  0  0  0  0  0  0  0  0  0  0
   53.1290   29.8760   41.1930 S   0  0  0  0  0  0  0  0  0  0  0  0
   47.7570   35.1880   42.1280 C   0  0  0  0  0  0  0  0  0  0  0  0
   46.3110   35.0850   42.1270 C   0  0  0  0  0  0  0  0  0  0  0  0
   45.5290   35.6310   43.1450 C   0  0  0  0  0  0  0  0  0  0  0  0
   44.1470   35.4940   43.0780 C   0  0  0  0  0  0  0  0  0  0  0  0
   43.6260   34.8360   42.0280 N   0  0  0  0  0  0  0  0  0  0  0  0
   44.3980   34.3170   41.0570 C   0  0  0  0  0  0  0  0  0  0  0  0
   45.7250   34.4370   41.1020 N   0  0  0  0  0  0  0  0  0  0  0  0
   47.5155   33.2926   43.0434 H   0  0  0  0  0  0  0  0  0  0  0  0
   49.0699   34.2206   43.4310 H   0  0  0  0  0  0  0  0  0  0  0  0
   47.8610   32.5043   40.0276 H   0  0  0  0  0  0  0  0  0  0  0  0
   49.6928   31.2528   38.9255 H   0  0  0  0  0  0  0  0  0  0  0  0
   52.7520   31.9608   38.2520 H   0  0  0  0  0  0  0  0  0  0  0  0
   54.8250   30.6108   37.9622 H   0  0  0  0  0  0  0  0  0  0  0  0
   55.3919   28.9084   40.0477 H   0  0  0  0  0  0  0  0  0  0  0  0
   48.0654   36.0301   42.7650 H   0  0  0  0  0  0  0  0  0  0  0  0
   48.1160   35.3577   41.1022 H   0  0  0  0  0  0  0  0  0  0  0  0
   45.9980   36.1612   43.9869 H   0  0  0  0  0  0  0  0  0  0  0  0
   43.4984   35.9122   43.8619 H   0  0  0  0  0  0  0  0  0  0  0  0
   43.9288   33.7868   40.2151 H   0  0  0  0  0  0  0  0  0  0  0  0
  2  6  1  0
  2  1  1  0
  3  2  2  0
  4  3  1  0
  4  5  2  0
  5  6  1  0
  7  5  1  0
  7 11  1  0
  8  7  2  0
  9  8  1  0
  9 10  2  0
 10 11  1  0
 12  1  1  0
 13 12  1  0
 13 14  2  0
 15 14  1  0
 16 15  2  0
 17 18  2  0
 17 16  1  0
 18 13  1  0
  1 19  1  0
  1 20  1  0
  3 21  1  0
  4 22  1  0
  8 23  1  0
  9 24  1  0
 10 25  1  0
 12 26  1  0
 12 27  1  0
 14 28  1  0
 15 29  1  0
 17 30  1  0
M  ISO  8  19   8  20   8  21  14  22  14  23  14  24  14  25  14  26   8
M  ISO  4  27   8  28  14  29  14  30  14
M  END
>  <minimizedAffinity>  (1) 
-3.99712515

>  <minimizedRMSD>  (1) 
1.15079796

$$$$
