
     RDKit          3D

 29 30  0  0  0  0  0  0  0  0999 V2000
   48.2740   33.8850   42.7080 C   0  0  0  0  0  0  0  0  0  0  0  0
   49.1030   33.1070   41.8450 C   0  0  0  0  0  0  0  0  0  0  0  0
   48.9420   32.3490   40.6330 C   0  0  0  0  0  0  0  0  0  0  0  0
   50.0420   31.7330   40.0960 C   0  0  0  0  0  0  0  0  0  0  0  0
   51.3180   31.8770   40.7850 C   0  0  0  0  0  0  0  0  0  0  0  0
   50.9380   32.9120   42.2210 S   0  0  0  0  0  0  0  0  0  0  0  0
   52.5340   31.3180   40.3810 C   0  0  0  0  0  0  0  0  0  0  0  0
   52.7450   31.3250   38.8900 C   0  0  0  0  0  0  0  0  0  0  0  0
   47.7210   35.1570   42.1020 C   0  0  0  0  0  0  0  0  0  0  0  0
   46.2690   35.0810   42.1060 C   0  0  0  0  0  0  0  0  0  0  0  0
   45.4950   35.6390   43.1020 C   0  0  0  0  0  0  0  0  0  0  0  0
   44.1100   35.5160   43.0260 C   0  0  0  0  0  0  0  0  0  0  0  0
   43.5880   34.8570   41.9790 N   0  0  0  0  0  0  0  0  0  0  0  0
   44.3520   34.3170   41.0120 C   0  0  0  0  0  0  0  0  0  0  0  0
   45.6570   34.4420   41.0990 N   0  0  0  0  0  0  0  0  0  0  0  0
   47.4242   33.2590   43.0177 H   0  0  0  0  0  0  0  0  0  0  0  0
   48.9169   34.2009   43.5428 H   0  0  0  0  0  0  0  0  0  0  0  0
   47.9581   32.2657   40.1482 H   0  0  0  0  0  0  0  0  0  0  0  0
   49.9639   31.1454   39.1694 H   0  0  0  0  0  0  0  0  0  0  0  0
   53.3497   31.8889   40.8486 H   0  0  0  0  0  0  0  0  0  0  0  0
   52.5205   30.2641   40.6960 H   0  0  0  0  0  0  0  0  0  0  0  0
   53.8227   31.3608   38.6724 H   0  0  0  0  0  0  0  0  0  0  0  0
   52.3130   30.4120   38.4543 H   0  0  0  0  0  0  0  0  0  0  0  0
   52.2535   32.2073   38.4543 H   0  0  0  0  0  0  0  0  0  0  0  0
   48.0835   35.2631   41.0689 H   0  0  0  0  0  0  0  0  0  0  0  0
   48.0529   36.0269   42.6877 H   0  0  0  0  0  0  0  0  0  0  0  0
   45.9639   36.1722   43.9422 H   0  0  0  0  0  0  0  0  0  0  0  0
   43.4611   35.9470   43.8027 H   0  0  0  0  0  0  0  0  0  0  0  0
   43.8939   33.7824   40.1668 H   0  0  0  0  0  0  0  0  0  0  0  0
  2  6  1  0
  2  1  1  0
  3  2  2  0
  4  3  1  0
  4  5  2  0
  5  6  1  0
  7  5  1  0
  8  7  1  0
  9 10  1  0
  9  1  1  0
 10 11  2  0
 12 11  1  0
 13 12  2  0
 14 15  2  0
 14 13  1  0
 15 10  1  0
  1 16  1  0
  1 17  1  0
  3 18  1  0
  4 19  1  0
  7 20  1  0
  7 21  1  0
  8 22  1  0
  8 23  1  0
  8 24  1  0
  9 25  1  0
  9 26  1  0
 11 27  1  0
 12 28  1  0
 14 29  1  0
M  ISO  8  16   8  17   8  18  14  19  14  20   8  21   8  22   8  23   8
M  ISO  6  24   8  25   8  26   8  27  14  28  14  29  14
M  END
>  <minimizedAffinity>  (1) 
-3.6640358

>  <minimizedRMSD>  (1) 
0.939511061

$$$$
