
     RDKit          3D

 25 26  0  0  0  0  0  0  0  0999 V2000
   49.0710   34.3540   42.4010 C   0  0  0  0  0  0  0  0  0  0  0  0
   49.4950   33.3140   41.5170 C   0  0  0  0  0  0  0  0  0  0  0  0
   49.0140   32.7080   40.3080 C   0  0  0  0  0  0  0  0  0  0  0  0
   49.7320   31.6980   39.7380 C   0  0  0  0  0  0  0  0  0  0  0  0
   50.9600   31.2890   40.4000 C   0  0  0  0  0  0  0  0  0  0  0  0
   51.0870   32.3570   41.8470 S   0  0  0  0  0  0  0  0  0  0  0  0
   51.7890   30.3220   39.9900 N   0  0  0  0  0  0  0  0  0  0  0  0
   48.0780   35.3330   41.8510 C   0  0  0  0  0  0  0  0  0  0  0  0
   46.7290   34.8600   42.1280 C   0  0  0  0  0  0  0  0  0  0  0  0
   46.2460   34.7130   43.4170 C   0  0  0  0  0  0  0  0  0  0  0  0
   44.9470   34.2560   43.6010 C   0  0  0  0  0  0  0  0  0  0  0  0
   44.2130   33.9750   42.5030 N   0  0  0  0  0  0  0  0  0  0  0  0
   44.7020   34.1270   41.2620 C   0  0  0  0  0  0  0  0  0  0  0  0
   45.9340   34.5590   41.0840 N   0  0  0  0  0  0  0  0  0  0  0  0
   48.6187   33.8789   43.2840 H   0  0  0  0  0  0  0  0  0  0  0  0
   49.9752   34.9433   42.6136 H   0  0  0  0  0  0  0  0  0  0  0  0
   48.0773   33.0540   39.8466 H   0  0  0  0  0  0  0  0  0  0  0  0
   49.3943   31.2108   38.8114 H   0  0  0  0  0  0  0  0  0  0  0  0
   52.6380   30.1074   40.5322 H   0  0  0  0  0  0  0  0  0  0  0  0
   51.5781   29.7923   39.1322 H   0  0  0  0  0  0  0  0  0  0  0  0
   48.2182   35.4266   40.7640 H   0  0  0  0  0  0  0  0  0  0  0  0
   48.2281   36.3143   42.3248 H   0  0  0  0  0  0  0  0  0  0  0  0
   46.8809   34.9543   44.2822 H   0  0  0  0  0  0  0  0  0  0  0  0
   44.5292   34.1270   44.6103 H   0  0  0  0  0  0  0  0  0  0  0  0
   44.0725   33.8903   40.3915 H   0  0  0  0  0  0  0  0  0  0  0  0
  2  6  1  0
  2  1  1  0
  3  2  2  0
  4  3  1  0
  4  5  2  0
  5  6  1  0
  7  5  1  0
  8  9  1  0
  8  1  1  0
  9 10  2  0
 10 11  1  0
 12 11  2  0
 13 12  1  0
 14 13  2  0
 14  9  1  0
  1 15  1  0
  1 16  1  0
  3 17  1  0
  4 18  1  0
  7 19  1  0
  7 20  1  0
  8 21  1  0
  8 22  1  0
 10 23  1  0
 11 24  1  0
 13 25  1  0
M  ISO  8  15   8  16   8  17  14  18  14  21   8  22   8  23  14  24  14
M  ISO  1  25  14
M  END
>  <minimizedAffinity>  (1) 
-3.33823109

>  <minimizedRMSD>  (1) 
0.0905004889

$$$$
