
     RDKit          3D

 26 27  0  0  0  0  0  0  0  0999 V2000
   48.0740   35.3390   41.8890 C   0  0  0  0  0  0  0  0  0  0  0  0
   46.7230   34.8400   42.1530 C   0  0  0  0  0  0  0  0  0  0  0  0
   46.2560   34.6420   43.4540 C   0  0  0  0  0  0  0  0  0  0  0  0
   44.9590   34.1660   43.6070 C   0  0  0  0  0  0  0  0  0  0  0  0
   44.2080   33.9180   42.5000 N   0  0  0  0  0  0  0  0  0  0  0  0
   44.7040   34.1230   41.2580 C   0  0  0  0  0  0  0  0  0  0  0  0
   45.9380   34.5770   41.0910 N   0  0  0  0  0  0  0  0  0  0  0  0
   49.0770   34.3670   42.4110 C   0  0  0  0  0  0  0  0  0  0  0  0
   49.5020   33.3380   41.5370 C   0  0  0  0  0  0  0  0  0  0  0  0
   49.0420   32.7200   40.3300 C   0  0  0  0  0  0  0  0  0  0  0  0
   49.7330   31.7310   39.7610 C   0  0  0  0  0  0  0  0  0  0  0  0
   50.9740   31.3020   40.4130 C   0  0  0  0  0  0  0  0  0  0  0  0
   51.0930   32.3850   41.8720 S   0  0  0  0  0  0  0  0  0  0  0  0
   51.8550   30.2560   39.9550 C   0  0  0  0  0  0  0  0  0  0  0  0
   48.2134   35.4622   40.8049 H   0  0  0  0  0  0  0  0  0  0  0  0
   48.2097   36.3087   42.3902 H   0  0  0  0  0  0  0  0  0  0  0  0
   46.8915   34.8550   44.3262 H   0  0  0  0  0  0  0  0  0  0  0  0
   44.5448   33.9919   44.6111 H   0  0  0  0  0  0  0  0  0  0  0  0
   44.0776   33.9110   40.3790 H   0  0  0  0  0  0  0  0  0  0  0  0
   49.9690   34.9393   42.7055 H   0  0  0  0  0  0  0  0  0  0  0  0
   48.5628   33.8451   43.2315 H   0  0  0  0  0  0  0  0  0  0  0  0
   48.1064   33.0654   39.8659 H   0  0  0  0  0  0  0  0  0  0  0  0
   49.3834   31.2534   38.8338 H   0  0  0  0  0  0  0  0  0  0  0  0
   52.2911   29.7382   40.8220 H   0  0  0  0  0  0  0  0  0  0  0  0
   51.2860   29.5374   39.3469 H   0  0  0  0  0  0  0  0  0  0  0  0
   52.6599   30.6946   39.3469 H   0  0  0  0  0  0  0  0  0  0  0  0
  1  2  1  0
  1  8  1  0
  2  3  2  0
  3  4  1  0
  5  4  2  0
  6  5  1  0
  7  6  2  0
  7  2  1  0
  9 13  1  0
  9  8  1  0
 10  9  2  0
 11 10  1  0
 11 12  2  0
 12 13  1  0
 14 12  1  0
  1 15  1  0
  1 16  1  0
  3 17  1  0
  4 18  1  0
  6 19  1  0
  8 20  1  0
  8 21  1  0
 10 22  1  0
 11 23  1  0
 14 24  1  0
 14 25  1  0
 14 26  1  0
M  ISO  8  15   8  16   8  17  14  18  14  19  14  20   8  21   8  22  14
M  ISO  4  23  14  24   8  25   8  26   8
M  END
>  <minimizedAffinity>  (1) 
-3.31547213

>  <minimizedRMSD>  (1) 
0.0989866033

$$$$
