
     RDKit          3D

 24 25  0  0  0  0  0  0  0  0999 V2000
   47.6850   35.1100   42.1170 C   0  0  0  0  0  0  0  0  0  0  0  0
   46.2330   35.0620   42.0790 C   0  0  0  0  0  0  0  0  0  0  0  0
   45.4530   35.6410   43.0680 C   0  0  0  0  0  0  0  0  0  0  0  0
   44.0640   35.5560   42.9680 C   0  0  0  0  0  0  0  0  0  0  0  0
   43.5470   34.9060   41.8990 N   0  0  0  0  0  0  0  0  0  0  0  0
   44.3310   34.3530   40.9550 C   0  0  0  0  0  0  0  0  0  0  0  0
   45.6420   34.4310   41.0460 N   0  0  0  0  0  0  0  0  0  0  0  0
   48.2230   33.8360   42.6620 C   0  0  0  0  0  0  0  0  0  0  0  0
   49.0850   33.0820   41.8160 C   0  0  0  0  0  0  0  0  0  0  0  0
   48.9640   32.3120   40.6120 C   0  0  0  0  0  0  0  0  0  0  0  0
   50.0660   31.7110   40.0790 C   0  0  0  0  0  0  0  0  0  0  0  0
   51.3300   31.8850   40.7790 C   0  0  0  0  0  0  0  0  0  0  0  0
   50.9420   32.9220   42.2110 S   0  0  0  0  0  0  0  0  0  0  0  0
   52.4610   31.3890   40.4150 O   0  0  0  0  0  0  0  0  0  0  0  0
   48.0050   35.9443   42.7585 H   0  0  0  0  0  0  0  0  0  0  0  0
   48.0677   35.2555   41.0961 H   0  0  0  0  0  0  0  0  0  0  0  0
   45.9216   36.1590   43.9178 H   0  0  0  0  0  0  0  0  0  0  0  0
   43.4108   36.0023   43.7323 H   0  0  0  0  0  0  0  0  0  0  0  0
   43.8730   33.8321   40.1013 H   0  0  0  0  0  0  0  0  0  0  0  0
   48.7844   34.0776   43.5766 H   0  0  0  0  0  0  0  0  0  0  0  0
   47.3412   33.1960   42.8133 H   0  0  0  0  0  0  0  0  0  0  0  0
   47.9857   32.2066   40.1202 H   0  0  0  0  0  0  0  0  0  0  0  0
   50.0020   31.1173   39.1552 H   0  0  0  0  0  0  0  0  0  0  0  0
   53.2732   31.5600   40.9547 H   0  0  0  0  0  0  0  0  0  0  0  0
  1  8  1  0
  2  1  1  0
  2  3  2  0
  4  3  1  0
  5  4  2  0
  6  7  2  0
  6  5  1  0
  7  2  1  0
  9 13  1  0
  9  8  1  0
 10  9  2  0
 11 10  1  0
 11 12  2  0
 12 13  1  0
 14 12  1  0
  1 15  1  0
  1 16  1  0
  3 17  1  0
  4 18  1  0
  6 19  1  0
  8 20  1  0
  8 21  1  0
 10 22  1  0
 11 23  1  0
 14 24  1  0
M  ISO  8  15   8  16   8  17  14  18  14  19  14  20   8  21   8  22  14
M  ISO  2  23  14  24   3
M  END
>  <minimizedAffinity>  (1) 
-3.58547521

>  <minimizedRMSD>  (1) 
0.992678761

$$$$
