
     RDKit          3D

 27 28  0  0  0  0  0  0  0  0999 V2000
   45.8410   34.1640   41.2790 C   0  0  0  0  0  0  0  0  0  0  0  0
   44.5410   34.4040   40.7490 C   0  0  0  0  0  0  0  0  0  0  0  0
   43.4840   35.3160   40.9680 C   0  0  0  0  0  0  0  0  0  0  0  0
   42.3410   35.2400   40.2530 C   0  0  0  0  0  0  0  0  0  0  0  0
   42.2410   34.2000   39.2650 C   0  0  0  0  0  0  0  0  0  0  0  0
   43.8150   33.3290   39.3760 S   0  0  0  0  0  0  0  0  0  0  0  0
   41.2540   33.9440   38.4780 O   0  0  0  0  0  0  0  0  0  0  0  0
   40.3120   34.9810   38.1670 C   0  0  0  0  0  0  0  0  0  0  0  0
   39.5530   35.2530   39.2890 F   0  0  0  0  0  0  0  0  0  0  0  0
   40.9490   36.0860   37.6580 F   0  0  0  0  0  0  0  0  0  0  0  0
   39.4380   34.4470   37.2300 F   0  0  0  0  0  0  0  0  0  0  0  0
   46.3670   35.1400   42.2520 C   0  0  0  0  0  0  0  0  0  0  0  0
   45.9710   34.7910   43.6090 C   0  0  0  0  0  0  0  0  0  0  0  0
   45.0200   35.5180   44.2970 C   0  0  0  0  0  0  0  0  0  0  0  0
   44.6880   35.1320   45.5880 C   0  0  0  0  0  0  0  0  0  0  0  0
   45.3190   34.0590   46.1070 N   0  0  0  0  0  0  0  0  0  0  0  0
   46.2450   33.3690   45.4090 C   0  0  0  0  0  0  0  0  0  0  0  0
   46.5530   33.7360   44.1920 N   0  0  0  0  0  0  0  0  0  0  0  0
   46.5421   34.1316   40.4320 H   0  0  0  0  0  0  0  0  0  0  0  0
   45.7459   33.2254   41.8447 H   0  0  0  0  0  0  0  0  0  0  0  0
   43.5939   36.0995   41.7323 H   0  0  0  0  0  0  0  0  0  0  0  0
   41.5161   35.9482   40.4203 H   0  0  0  0  0  0  0  0  0  0  0  0
   47.4652   35.1532   42.1901 H   0  0  0  0  0  0  0  0  0  0  0  0
   45.9549   36.1311   42.0112 H   0  0  0  0  0  0  0  0  0  0  0  0
   44.5342   36.3876   43.8302 H   0  0  0  0  0  0  0  0  0  0  0  0
   43.9344   35.6835   46.1693 H   0  0  0  0  0  0  0  0  0  0  0  0
   46.7406   32.4983   45.8633 H   0  0  0  0  0  0  0  0  0  0  0  0
  1 12  1  0
  2  3  2  0
  2  1  1  0
  4  3  1  0
  5  6  1  0
  5  4  2  0
  6  2  1  0
  7  5  1  0
  8  7  1  0
  8  9  1  0
 10  8  1  0
 11  8  1  0
 12 13  1  0
 13 18  1  0
 13 14  2  0
 14 15  1  0
 15 16  2  0
 17 16  1  0
 18 17  2  0
  1 19  1  0
  1 20  1  0
  3 21  1  0
  4 22  1  0
 12 23  1  0
 12 24  1  0
 14 25  1  0
 15 26  1  0
 17 27  1  0
M  ISO  8  19   8  20   8  21  14  22  14  23   8  24   8  25  14  26  14
M  ISO  1  27  14
M  END
>  <minimizedAffinity>  (1) 
-5.10958672

>  <minimizedRMSD>  (1) 
8.7235384

$$$$
