
     RDKit          3D

 37 40  0  0  0  0  0  0  0  0999 V2000
   50.3660   32.0600   42.4010 C   0  0  0  0  0  0  0  0  0  0  0  0
   50.5150   33.4620   42.3280 C   0  0  0  0  0  0  0  0  0  0  0  0
   49.5070   34.2840   42.7050 C   0  0  0  0  0  0  0  0  0  0  0  0
   48.3030   33.6610   43.1750 C   0  0  0  0  0  0  0  0  0  0  0  0
   48.6220   31.8800   43.0700 S   0  0  0  0  0  0  0  0  0  0  0  0
   51.1610   30.9210   42.1390 C   0  0  0  0  0  0  0  0  0  0  0  0
   50.9110   30.1520   40.9080 C   0  0  0  0  0  0  0  0  0  0  0  0
   51.6600   30.7110   39.7840 C   0  0  0  0  0  0  0  0  0  0  0  0
   53.0350   30.7820   39.8020 C   0  0  0  0  0  0  0  0  0  0  0  0
   53.6690   31.3330   38.6850 C   0  0  0  0  0  0  0  0  0  0  0  0
   52.9280   31.7650   37.6510 N   0  0  0  0  0  0  0  0  0  0  0  0
   51.5770   31.6770   37.6720 C   0  0  0  0  0  0  0  0  0  0  0  0
   50.9830   31.1630   38.7140 N   0  0  0  0  0  0  0  0  0  0  0  0
   47.2510   34.2800   43.5760 O   0  0  0  0  0  0  0  0  0  0  0  0
   45.6470   35.6470   42.8330 C   0  0  0  0  0  0  0  0  0  0  0  0
   45.9850   34.3030   43.0330 C   0  0  0  0  0  0  0  0  0  0  0  0
   45.0800   33.3420   42.6880 C   0  0  0  0  0  0  0  0  0  0  0  0
   43.8590   33.6450   42.1530 C   0  0  0  0  0  0  0  0  0  0  0  0
   42.8690   32.8270   41.7660 N   0  0  0  0  0  0  0  0  0  0  0  0
   41.8930   33.5970   41.3150 N   0  0  0  0  0  0  0  0  0  0  0  0
   42.2370   34.8960   41.4070 C   0  0  0  0  0  0  0  0  0  0  0  0
   43.5180   34.9650   41.9520 C   0  0  0  0  0  0  0  0  0  0  0  0
   44.4020   35.9870   42.2860 C   0  0  0  0  0  0  0  0  0  0  0  0
   51.4592   33.8909   41.9613 H   0  0  0  0  0  0  0  0  0  0  0  0
   49.6066   35.3783   42.6533 H   0  0  0  0  0  0  0  0  0  0  0  0
   52.2075   31.2579   42.1034 H   0  0  0  0  0  0  0  0  0  0  0  0
   50.9013   30.2222   42.9478 H   0  0  0  0  0  0  0  0  0  0  0  0
   51.2223   29.1088   41.0653 H   0  0  0  0  0  0  0  0  0  0  0  0
   49.8372   30.2008   40.6745 H   0  0  0  0  0  0  0  0  0  0  0  0
   53.6134   30.4183   40.6641 H   0  0  0  0  0  0  0  0  0  0  0  0
   54.7657   31.4123   38.6527 H   0  0  0  0  0  0  0  0  0  0  0  0
   50.9848   32.0360   36.8174 H   0  0  0  0  0  0  0  0  0  0  0  0
   46.3606   36.4384   43.1059 H   0  0  0  0  0  0  0  0  0  0  0  0
   45.3423   32.2855   42.8460 H   0  0  0  0  0  0  0  0  0  0  0  0
   42.8689   31.7980   41.8113 H   0  0  0  0  0  0  0  0  0  0  0  0
   41.6159   35.7522   41.1050 H   0  0  0  0  0  0  0  0  0  0  0  0
   44.1291   37.0402   42.1240 H   0  0  0  0  0  0  0  0  0  0  0  0
  1  5  1  0
  2  1  2  0
  2  3  1  0
  3  4  2  0
  4 14  1  0
  5  4  1  0
  6  1  1  0
  7  6  1  0
  8  9  2  0
  8  7  1  0
 10  9  1  0
 11 12  1  0
 11 10  2  0
 12 13  2  0
 13  8  1  0
 15 16  2  0
 16 14  1  0
 17 16  1  0
 18 17  2  0
 19 18  1  0
 20 21  2  0
 20 19  1  0
 21 22  1  0
 22 18  1  0
 22 23  2  0
 23 15  1  0
  2 24  1  0
  3 25  1  0
  6 26  1  0
  6 27  1  0
  7 28  1  0
  7 29  1  0
  9 30  1  0
 10 31  1  0
 12 32  1  0
 15 33  1  0
 17 34  1  0
 19 35  1  0
 21 36  1  0
 23 37  1  0
M  ISO  8  24  14  25  14  26   8  27   8  28   8  29   8  30  14  31  14
M  ISO  6  32  14  33  14  34  14  35   9  36  14  37  14
M  END
>  <minimizedAffinity>  (1) 
-4.78816223

>  <minimizedRMSD>  (1) 
9.41194057

$$$$
