
     RDKit          3D

 34 36  0  0  0  0  0  0  0  0999 V2000
   49.8420   33.0860   42.3710 C   0  0  0  0  0  0  0  0  0  0  0  0
   49.0480   34.2280   42.6440 C   0  0  0  0  0  0  0  0  0  0  0  0
   47.8160   34.1260   43.1890 C   0  0  0  0  0  0  0  0  0  0  0  0
   47.3590   32.8070   43.4750 C   0  0  0  0  0  0  0  0  0  0  0  0
   48.6830   31.6990   42.9670 S   0  0  0  0  0  0  0  0  0  0  0  0
   51.1270   32.8130   41.8370 C   0  0  0  0  0  0  0  0  0  0  0  0
   51.4090   31.4280   41.4140 C   0  0  0  0  0  0  0  0  0  0  0  0
   51.9220   31.4100   40.0440 C   0  0  0  0  0  0  0  0  0  0  0  0
   53.2570   31.2120   39.7730 C   0  0  0  0  0  0  0  0  0  0  0  0
   53.6590   31.2090   38.4410 C   0  0  0  0  0  0  0  0  0  0  0  0
   52.7180   31.4030   37.4740 N   0  0  0  0  0  0  0  0  0  0  0  0
   51.4310   31.5920   37.7780 C   0  0  0  0  0  0  0  0  0  0  0  0
   51.0420   31.5950   39.0290 N   0  0  0  0  0  0  0  0  0  0  0  0
   46.2230   32.4410   43.9950 O   0  0  0  0  0  0  0  0  0  0  0  0
   45.9480   32.0310   45.2760 C   0  0  0  0  0  0  0  0  0  0  0  0
   45.8090   32.9740   46.2690 C   0  0  0  0  0  0  0  0  0  0  0  0
   45.5300   32.6380   47.5910 C   0  0  0  0  0  0  0  0  0  0  0  0
   45.3890   31.3060   47.9170 C   0  0  0  0  0  0  0  0  0  0  0  0
   45.5220   30.3320   46.9470 C   0  0  0  0  0  0  0  0  0  0  0  0
   45.8000   30.7040   45.6390 C   0  0  0  0  0  0  0  0  0  0  0  0
   49.4461   35.2253   42.4054 H   0  0  0  0  0  0  0  0  0  0  0  0
   47.1997   35.0123   43.4003 H   0  0  0  0  0  0  0  0  0  0  0  0
   51.2626   33.4600   40.9578 H   0  0  0  0  0  0  0  0  0  0  0  0
   51.8215   32.9985   42.6696 H   0  0  0  0  0  0  0  0  0  0  0  0
   52.1588   30.9883   42.0881 H   0  0  0  0  0  0  0  0  0  0  0  0
   50.4773   30.8446   41.4549 H   0  0  0  0  0  0  0  0  0  0  0  0
   53.9838   31.0608   40.5847 H   0  0  0  0  0  0  0  0  0  0  0  0
   54.7146   31.0533   38.1737 H   0  0  0  0  0  0  0  0  0  0  0  0
   50.6951   31.7457   36.9750 H   0  0  0  0  0  0  0  0  0  0  0  0
   45.9230   34.0363   46.0074 H   0  0  0  0  0  0  0  0  0  0  0  0
   45.4244   33.4186   48.3588 H   0  0  0  0  0  0  0  0  0  0  0  0
   45.1693   31.0173   48.9555 H   0  0  0  0  0  0  0  0  0  0  0  0
   45.4085   29.2697   47.2089 H   0  0  0  0  0  0  0  0  0  0  0  0
   45.9054   29.9236   44.8710 H   0  0  0  0  0  0  0  0  0  0  0  0
  1  2  2  0
  1  5  1  0
  2  3  1  0
  3  4  2  0
  4 14  1  0
  5  4  1  0
  6  1  1  0
  7  6  1  0
  8  7  1  0
  9  8  2  0
 10  9  1  0
 11 12  1  0
 11 10  2  0
 12 13  2  0
 13  8  1  0
 14 15  1  0
 15 20  1  0
 15 16  2  0
 16 17  1  0
 17 18  2  0
 19 18  1  0
 20 19  2  0
  2 21  1  0
  3 22  1  0
  6 23  1  0
  6 24  1  0
  7 25  1  0
  7 26  1  0
  9 27  1  0
 10 28  1  0
 12 29  1  0
 16 30  1  0
 17 31  1  0
 18 32  1  0
 19 33  1  0
 20 34  1  0
M  ISO  8  21  14  22  14  23   8  24   8  25   8  26   8  27  14  28  14
M  ISO  6  29  14  30  14  31  14  32  14  33  14  34  14
M  END
>  <minimizedAffinity>  (1) 
-4.26585007

>  <minimizedRMSD>  (1) 
8.17390728

$$$$
