
     RDKit          3D

 31 33  0  0  0  0  0  0  0  0999 V2000
   46.4400   32.5620   40.5400 C   0  0  0  0  0  0  0  0  0  0  0  0
   45.0530   32.5980   40.8560 C   0  0  0  0  0  0  0  0  0  0  0  0
   44.1160   31.7630   41.5070 C   0  0  0  0  0  0  0  0  0  0  0  0
   42.8270   32.1250   41.6240 C   0  0  0  0  0  0  0  0  0  0  0  0
   42.4420   33.3900   41.0600 C   0  0  0  0  0  0  0  0  0  0  0  0
   43.9540   34.0660   40.3560 S   0  0  0  0  0  0  0  0  0  0  0  0
   41.2530   33.9140   41.0670 O   0  0  0  0  0  0  0  0  0  0  0  0
   40.8730   34.8670   40.1070 C   0  0  0  0  0  0  0  0  0  0  0  0
   40.1970   36.1250   40.4680 C   0  0  0  0  0  0  0  0  0  0  0  0
   39.3430   35.0060   39.9700 C   0  0  0  0  0  0  0  0  0  0  0  0
   47.1350   33.8580   40.3970 C   0  0  0  0  0  0  0  0  0  0  0  0
   48.3880   33.8590   41.1300 C   0  0  0  0  0  0  0  0  0  0  0  0
   49.2180   32.7530   41.1610 C   0  0  0  0  0  0  0  0  0  0  0  0
   50.4090   32.8270   41.8890 C   0  0  0  0  0  0  0  0  0  0  0  0
   50.6830   33.9840   42.5230 N   0  0  0  0  0  0  0  0  0  0  0  0
   49.8600   35.0350   42.4740 C   0  0  0  0  0  0  0  0  0  0  0  0
   48.7410   34.9800   41.7950 N   0  0  0  0  0  0  0  0  0  0  0  0
   46.9468   32.0014   41.3393 H   0  0  0  0  0  0  0  0  0  0  0  0
   46.4910   32.1019   39.5422 H   0  0  0  0  0  0  0  0  0  0  0  0
   44.4476   30.8009   41.9247 H   0  0  0  0  0  0  0  0  0  0  0  0
   42.0955   31.4788   42.1313 H   0  0  0  0  0  0  0  0  0  0  0  0
   41.7547   34.6684   39.4800 H   0  0  0  0  0  0  0  0  0  0  0  0
   40.1367   36.4246   41.5247 H   0  0  0  0  0  0  0  0  0  0  0  0
   40.3293   37.1746   40.1667 H   0  0  0  0  0  0  0  0  0  0  0  0
   38.8774   35.0631   38.9750 H   0  0  0  0  0  0  0  0  0  0  0  0
   38.4644   34.4582   40.3414 H   0  0  0  0  0  0  0  0  0  0  0  0
   47.3410   34.0403   39.3319 H   0  0  0  0  0  0  0  0  0  0  0  0
   46.4891   34.6494   40.8051 H   0  0  0  0  0  0  0  0  0  0  0  0
   48.9461   31.8328   40.6231 H   0  0  0  0  0  0  0  0  0  0  0  0
   51.0980   31.9712   41.9424 H   0  0  0  0  0  0  0  0  0  0  0  0
   50.1251   35.9580   43.0104 H   0  0  0  0  0  0  0  0  0  0  0  0
  1  2  1  0
  2  3  2  0
  3  4  1  0
  5  7  1  0
  5  4  2  0
  6  2  1  0
  6  5  1  0
  8  9  1  0
  8  7  1  0
 10  8  1  0
 10  9  1  0
 11  1  1  0
 11 12  1  0
 12 13  2  0
 12 17  1  0
 13 14  1  0
 14 15  2  0
 16 15  1  0
 17 16  2  0
  1 18  1  0
  1 19  1  0
  3 20  1  0
  4 21  1  0
  8 22  1  0
  9 23  1  0
  9 24  1  0
 10 25  1  0
 10 26  1  0
 11 27  1  0
 11 28  1  0
 13 29  1  0
 14 30  1  0
 16 31  1  0
M  ISO  8  18   8  19   8  20  14  21  14  22  13  23  13  24  13  25  13
M  ISO  6  26  13  27   8  28   8  29  14  30  14  31  14
M  END
>  <minimizedAffinity>  (1) 
-3.93364787

>  <minimizedRMSD>  (1) 
8.3506403

$$$$
