
     RDKit          3D

 26 27  0  0  0  0  0  0  0  0999 V2000
   48.2000   33.7840   42.6210 C   0  0  0  0  0  0  0  0  0  0  0  0
   49.1010   33.0640   41.8030 C   0  0  0  0  0  0  0  0  0  0  0  0
   49.0090   32.2970   40.6250 C   0  0  0  0  0  0  0  0  0  0  0  0
   50.1110   31.7030   40.0800 C   0  0  0  0  0  0  0  0  0  0  0  0
   51.3570   31.9030   40.7750 C   0  0  0  0  0  0  0  0  0  0  0  0
   50.9440   32.9360   42.1940 S   0  0  0  0  0  0  0  0  0  0  0  0
   52.5180   31.4430   40.4530 O   0  0  0  0  0  0  0  0  0  0  0  0
   53.0040   30.2140   40.9410 C   0  0  0  0  0  0  0  0  0  0  0  0
   54.2610   30.1350   40.9690 O   0  0  0  0  0  0  0  0  0  0  0  0
   47.6850   35.0750   42.1270 C   0  0  0  0  0  0  0  0  0  0  0  0
   46.2230   35.0460   42.0780 C   0  0  0  0  0  0  0  0  0  0  0  0
   45.4470   35.6280   43.0610 C   0  0  0  0  0  0  0  0  0  0  0  0
   44.0650   35.5610   42.9490 C   0  0  0  0  0  0  0  0  0  0  0  0
   43.5580   34.9250   41.8770 N   0  0  0  0  0  0  0  0  0  0  0  0
   44.3220   34.3650   40.9350 C   0  0  0  0  0  0  0  0  0  0  0  0
   45.6390   34.4320   41.0440 N   0  0  0  0  0  0  0  0  0  0  0  0
   47.3310   33.1335   42.7992 H   0  0  0  0  0  0  0  0  0  0  0  0
   48.7928   34.0502   43.5085 H   0  0  0  0  0  0  0  0  0  0  0  0
   48.0317   32.1744   40.1353 H   0  0  0  0  0  0  0  0  0  0  0  0
   50.0507   31.1038   39.1595 H   0  0  0  0  0  0  0  0  0  0  0  0
   52.3448   29.3965   41.2683 H   0  0  0  0  0  0  0  0  0  0  0  0
   48.0107   35.8795   42.8028 H   0  0  0  0  0  0  0  0  0  0  0  0
   48.0762   35.2558   41.1150 H   0  0  0  0  0  0  0  0  0  0  0  0
   45.9155   36.1354   43.9172 H   0  0  0  0  0  0  0  0  0  0  0  0
   43.4087   36.0111   43.7084 H   0  0  0  0  0  0  0  0  0  0  0  0
   43.8609   33.8533   40.0774 H   0  0  0  0  0  0  0  0  0  0  0  0
  2  6  1  0
  2  1  1  0
  3  2  2  0
  4  3  1  0
  4  5  2  0
  5  6  1  0
  7  5  1  0
  7  8  1  0
  8  9  2  0
 10  1  1  0
 11 10  1  0
 11 12  2  0
 13 12  1  0
 14 13  2  0
 15 16  2  0
 15 14  1  0
 16 11  1  0
  1 17  1  0
  1 18  1  0
  3 19  1  0
  4 20  1  0
  8 21  1  0
 10 22  1  0
 10 23  1  0
 12 24  1  0
 13 25  1  0
 15 26  1  0
M  ISO  8  17   8  18   8  19  14  20  14  21   6  22   8  23   8  24  14
M  ISO  2  25  14  26  14
M  END
>  <minimizedAffinity>  (1) 
-3.52250528

>  <minimizedRMSD>  (1) 
0.160536647

$$$$
