
     RDKit          3D

 15 15  0  0  0  0  0  0  0  0999 V2000
   44.4230   35.8010   44.6980 C   0  0  0  0  0  0  0  0  0  0  0  0
   44.6740   35.4850   43.3460 C   0  0  0  0  0  0  0  0  0  0  0  0
   45.3710   34.3170   43.0970 C   0  0  0  0  0  0  0  0  0  0  0  0
   45.7690   33.5540   44.1320 N   0  0  0  0  0  0  0  0  0  0  0  0
   45.5110   33.8860   45.4140 C   0  0  0  0  0  0  0  0  0  0  0  0
   44.8320   35.0200   45.7070 N   0  0  0  0  0  0  0  0  0  0  0  0
   44.1720   36.4200   42.3990 N   0  0  0  0  0  0  0  0  0  0  0  0
   45.9490   33.0430   46.5660 C   0  0  0  0  0  0  0  0  0  0  0  0
   43.8709   36.7230   44.9325 H   0  0  0  0  0  0  0  0  0  0  0  0
   45.5978   34.0146   42.0640 H   0  0  0  0  0  0  0  0  0  0  0  0
   44.3149   36.2598   41.3916 H   0  0  0  0  0  0  0  0  0  0  0  0
   43.6656   37.2573   42.7206 H   0  0  0  0  0  0  0  0  0  0  0  0
   45.6877   33.5460   47.5087 H   0  0  0  0  0  0  0  0  0  0  0  0
   45.4440   32.0669   46.5190 H   0  0  0  0  0  0  0  0  0  0  0  0
   47.0380   32.8951   46.5190 H   0  0  0  0  0  0  0  0  0  0  0  0
  1  6  2  0
  2  1  1  0
  3  2  2  0
  3  4  1  0
  4  5  2  0
  5  6  1  0
  5  8  1  0
  7  2  1  0
  1  9  1  0
  3 10  1  0
  7 11  1  0
  7 12  1  0
  8 13  1  0
  8 14  1  0
  8 15  1  0
M  ISO  5   9  14  10  14  13   8  14   8  15   8
M  END
>  <minimizedAffinity>  (1) 
-3.16447115

>  <minimizedRMSD>  (1) 
0.232417986

$$$$
