
     RDKit          3D

 29 30  0  0  0  0  0  0  0  0999 V2000
   46.9360   32.7890   46.4800 C   0  0  0  0  0  0  0  0  0  0  0  0
   45.8610   31.9700   47.1240 C   0  0  0  0  0  0  0  0  0  0  0  0
   45.9180   32.1140   48.6220 C   0  0  0  0  0  0  0  0  0  0  0  0
   45.0040   31.1460   49.3250 C   0  0  0  0  0  0  0  0  0  0  0  0
   45.0490   29.8720   48.7920 O   0  0  0  0  0  0  0  0  0  0  0  0
   44.7730   29.8350   47.4380 C   0  0  0  0  0  0  0  0  0  0  0  0
   45.9580   30.5040   46.7330 C   0  0  0  0  0  0  0  0  0  0  0  0
   44.5840   35.2420   45.1360 C   0  0  0  0  0  0  0  0  0  0  0  0
   44.9540   35.3670   43.7910 C   0  0  0  0  0  0  0  0  0  0  0  0
   46.0120   34.6060   43.3480 C   0  0  0  0  0  0  0  0  0  0  0  0
   46.6480   33.7770   44.2140 N   0  0  0  0  0  0  0  0  0  0  0  0
   46.2710   33.6800   45.4960 C   0  0  0  0  0  0  0  0  0  0  0  0
   45.2400   34.4100   45.9620 N   0  0  0  0  0  0  0  0  0  0  0  0
   44.1880   36.2720   43.0250 N   0  0  0  0  0  0  0  0  0  0  0  0
   47.4601   33.3885   47.2389 H   0  0  0  0  0  0  0  0  0  0  0  0
   47.6789   32.1446   45.9873 H   0  0  0  0  0  0  0  0  0  0  0  0
   44.8942   32.3493   46.7615 H   0  0  0  0  0  0  0  0  0  0  0  0
   46.9502   31.9317   48.9557 H   0  0  0  0  0  0  0  0  0  0  0  0
   45.5876   33.1323   48.8747 H   0  0  0  0  0  0  0  0  0  0  0  0
   45.2981   31.0930   50.3836 H   0  0  0  0  0  0  0  0  0  0  0  0
   43.9759   31.5170   49.2007 H   0  0  0  0  0  0  0  0  0  0  0  0
   44.6686   28.7935   47.0999 H   0  0  0  0  0  0  0  0  0  0  0  0
   43.8304   30.3542   47.2102 H   0  0  0  0  0  0  0  0  0  0  0  0
   45.8769   30.3871   45.6422 H   0  0  0  0  0  0  0  0  0  0  0  0
   46.9209   30.0584   47.0232 H   0  0  0  0  0  0  0  0  0  0  0  0
   43.7421   35.8351   45.5226 H   0  0  0  0  0  0  0  0  0  0  0  0
   46.3395   34.6693   42.2998 H   0  0  0  0  0  0  0  0  0  0  0  0
   44.4041   36.4143   42.0280 H   0  0  0  0  0  0  0  0  0  0  0  0
   43.4130   36.7900   43.4630 H   0  0  0  0  0  0  0  0  0  0  0  0
  1  2  1  0
  2  3  1  0
  3  4  1  0
  5  4  1  0
  6  5  1  0
  7  2  1  0
  7  6  1  0
  8 13  2  0
  9  8  1  0
 10  9  2  0
 10 11  1  0
 11 12  2  0
 12 13  1  0
 12  1  1  0
 14  9  1  0
  1 15  1  0
  1 16  1  0
  2 17  1  0
  3 18  1  0
  3 19  1  0
  4 20  1  0
  4 21  1  0
  6 22  1  0
  6 23  1  0
  7 24  1  0
  7 25  1  0
  8 26  1  0
 10 27  1  0
 14 28  1  0
 14 29  1  0
M  ISO  8  15   8  16   8  17  13  18  13  19  13  20  13  21  13  22  13
M  ISO  5  23  13  24  13  25  13  26  14  27  14
M  END
>  <minimizedAffinity>  (1) 
-4.59537363

>  <minimizedRMSD>  (1) 
1.29654431

$$$$
