
     RDKit          3D

 32 34  0  0  0  0  0  0  0  0999 V2000
   45.5910   32.8770   39.4790 C   0  0  0  0  0  0  0  0  0  0  0  0
   44.9410   31.7660   39.9580 C   0  0  0  0  0  0  0  0  0  0  0  0
   43.6350   32.1490   40.2670 C   0  0  0  0  0  0  0  0  0  0  0  0
   43.5660   33.4920   39.9520 C   0  0  0  0  0  0  0  0  0  0  0  0
   44.7220   33.8370   39.5070 O   0  0  0  0  0  0  0  0  0  0  0  0
   42.3920   34.3450   40.1020 C   0  0  0  0  0  0  0  0  0  0  0  0
   41.5370   34.5830   39.0640 C   0  0  0  0  0  0  0  0  0  0  0  0
   40.4370   35.3870   39.2180 C   0  0  0  0  0  0  0  0  0  0  0  0
   40.1890   35.9630   40.4350 C   0  0  0  0  0  0  0  0  0  0  0  0
   41.0300   35.7410   41.4930 C   0  0  0  0  0  0  0  0  0  0  0  0
   42.1280   34.9340   41.3220 C   0  0  0  0  0  0  0  0  0  0  0  0
   47.0200   32.9100   39.0270 C   0  0  0  0  0  0  0  0  0  0  0  0
   48.7100   35.2990   41.2360 C   0  0  0  0  0  0  0  0  0  0  0  0
   49.4680   34.4960   42.0890 C   0  0  0  0  0  0  0  0  0  0  0  0
   49.4010   33.1320   41.9060 C   0  0  0  0  0  0  0  0  0  0  0  0
   48.6110   32.6330   40.9200 N   0  0  0  0  0  0  0  0  0  0  0  0
   47.8890   33.4580   40.1120 C   0  0  0  0  0  0  0  0  0  0  0  0
   47.9400   34.8110   40.2750 N   0  0  0  0  0  0  0  0  0  0  0  0
   50.2430   35.1650   43.0700 N   0  0  0  0  0  0  0  0  0  0  0  0
   45.3704   30.7602   40.0762 H   0  0  0  0  0  0  0  0  0  0  0  0
   42.8324   31.5166   40.6743 H   0  0  0  0  0  0  0  0  0  0  0  0
   41.7346   34.1208   38.0856 H   0  0  0  0  0  0  0  0  0  0  0  0
   39.7593   35.5677   38.3706 H   0  0  0  0  0  0  0  0  0  0  0  0
   39.3079   36.6088   40.5640 H   0  0  0  0  0  0  0  0  0  0  0  0
   40.8280   36.2045   42.4699 H   0  0  0  0  0  0  0  0  0  0  0  0
   42.8064   34.7546   42.1691 H   0  0  0  0  0  0  0  0  0  0  0  0
   47.3470   31.8893   38.7795 H   0  0  0  0  0  0  0  0  0  0  0  0
   47.1022   33.5548   38.1396 H   0  0  0  0  0  0  0  0  0  0  0  0
   48.7540   36.3902   41.3680 H   0  0  0  0  0  0  0  0  0  0  0  0
   49.9805   32.4550   42.5508 H   0  0  0  0  0  0  0  0  0  0  0  0
   50.8221   34.6226   43.7268 H   0  0  0  0  0  0  0  0  0  0  0  0
   50.2269   36.1934   43.1258 H   0  0  0  0  0  0  0  0  0  0  0  0
  1  5  1  0
  1  2  2  0
  2  3  1  0
  4  6  1  0
  4  3  2  0
  5  4  1  0
  6 11  2  0
  7  8  2  0
  7  6  1  0
  8  9  1  0
  9 10  2  0
 11 10  1  0
 12  1  1  0
 12 17  1  0
 13 14  2  0
 14 19  1  0
 15 14  1  0
 16 15  2  0
 17 18  2  0
 17 16  1  0
 18 13  1  0
  2 20  1  0
  3 21  1  0
  7 22  1  0
  8 23  1  0
  9 24  1  0
 10 25  1  0
 11 26  1  0
 12 27  1  0
 12 28  1  0
 13 29  1  0
 15 30  1  0
 19 31  1  0
 19 32  1  0
M  ISO  8  20  14  21  14  22  14  23  14  24  14  25  14  26  14  27   8
M  ISO  3  28   8  29  14  30  14
M  END
>  <minimizedAffinity>  (1) 
-5.33436632

>  <minimizedRMSD>  (1) 
8.64310455

$$$$
