
     RDKit          3D

 24 25  0  0  0  0  0  0  0  0999 V2000
   45.8870   32.0690   45.0220 C   0  0  0  0  0  0  0  0  0  0  0  0
   44.7790   35.5660   44.9420 C   0  0  0  0  0  0  0  0  0  0  0  0
   45.2110   36.0220   43.6880 C   0  0  0  0  0  0  0  0  0  0  0  0
   45.8800   35.1190   42.8820 C   0  0  0  0  0  0  0  0  0  0  0  0
   46.0890   33.8650   43.3170 N   0  0  0  0  0  0  0  0  0  0  0  0
   45.6580   33.4530   44.5390 C   0  0  0  0  0  0  0  0  0  0  0  0
   44.9940   34.3220   45.3590 N   0  0  0  0  0  0  0  0  0  0  0  0
   44.9130   37.3660   43.3820 N   0  0  0  0  0  0  0  0  0  0  0  0
   46.1300   32.0680   46.5020 C   0  0  0  0  0  0  0  0  0  0  0  0
   47.3700   32.2870   47.0710 C   0  0  0  0  0  0  0  0  0  0  0  0
   47.2350   32.2170   48.4510 C   0  0  0  0  0  0  0  0  0  0  0  0
   45.8900   31.9540   48.6420 C   0  0  0  0  0  0  0  0  0  0  0  0
   45.3140   31.8810   47.4920 O   0  0  0  0  0  0  0  0  0  0  0  0
   45.2580   31.7930   49.9170 N   0  0  0  0  0  0  0  0  0  0  0  0
   46.7640   31.6464   44.5099 H   0  0  0  0  0  0  0  0  0  0  0  0
   44.9955   31.4621   44.8052 H   0  0  0  0  0  0  0  0  0  0  0  0
   44.2433   36.2623   45.6040 H   0  0  0  0  0  0  0  0  0  0  0  0
   46.2396   35.4261   41.8888 H   0  0  0  0  0  0  0  0  0  0  0  0
   45.2020   37.7645   42.4772 H   0  0  0  0  0  0  0  0  0  0  0  0
   44.4064   37.9492   44.0633 H   0  0  0  0  0  0  0  0  0  0  0  0
   48.3041   32.4832   46.5242 H   0  0  0  0  0  0  0  0  0  0  0  0
   48.0162   32.3417   49.2153 H   0  0  0  0  0  0  0  0  0  0  0  0
   44.2480   31.5983   49.9702 H   0  0  0  0  0  0  0  0  0  0  0  0
   45.8135   31.8719   50.7808 H   0  0  0  0  0  0  0  0  0  0  0  0
  1  9  1  0
  2  7  2  0
  3  2  1  0
  4  5  1  0
  4  3  2  0
  5  6  2  0
  6  1  1  0
  6  7  1  0
  8  3  1  0
  9 10  2  0
  9 13  1  0
 10 11  1  0
 11 12  2  0
 12 14  1  0
 13 12  1  0
  1 15  1  0
  1 16  1  0
  2 17  1  0
  4 18  1  0
  8 19  1  0
  8 20  1  0
 10 21  1  0
 11 22  1  0
 14 23  1  0
 14 24  1  0
M  ISO  6  15   8  16   8  17  14  18  14  21  14  22  14
M  END
>  <minimizedAffinity>  (1) 
-4.7838316

>  <minimizedRMSD>  (1) 
0.204055578

$$$$
