
     RDKit          3D

 36 38  0  0  0  0  0  0  0  0999 V2000
   46.0890   33.4910   45.1780 C   0  0  0  0  0  0  0  0  0  0  0  0
   47.0780   33.2040   44.2650 C   0  0  0  0  0  0  0  0  0  0  0  0
   46.5480   33.3690   42.9910 C   0  0  0  0  0  0  0  0  0  0  0  0
   45.2380   33.7560   43.2180 C   0  0  0  0  0  0  0  0  0  0  0  0
   45.0330   33.8070   44.4900 O   0  0  0  0  0  0  0  0  0  0  0  0
   44.3160   34.0370   42.1740 N   0  0  0  0  0  0  0  0  0  0  0  0
   43.8740   35.3940   41.9700 C   0  0  0  0  0  0  0  0  0  0  0  0
   42.3990   35.3240   41.5860 C   0  0  0  0  0  0  0  0  0  0  0  0
   42.2460   34.6810   40.3040 N   0  0  0  0  0  0  0  0  0  0  0  0
   43.2800   33.7110   40.0290 C   0  0  0  0  0  0  0  0  0  0  0  0
   43.7770   33.0310   41.2790 C   0  0  0  0  0  0  0  0  0  0  0  0
   46.2700   33.4260   46.6650 C   0  0  0  0  0  0  0  0  0  0  0  0
   45.6150   29.8190   46.7360 C   0  0  0  0  0  0  0  0  0  0  0  0
   45.2570   29.5740   48.0590 C   0  0  0  0  0  0  0  0  0  0  0  0
   45.2370   30.6460   48.9440 C   0  0  0  0  0  0  0  0  0  0  0  0
   45.5650   31.8680   48.4740 N   0  0  0  0  0  0  0  0  0  0  0  0
   45.9090   32.0810   47.1860 C   0  0  0  0  0  0  0  0  0  0  0  0
   45.9350   31.0490   46.3110 N   0  0  0  0  0  0  0  0  0  0  0  0
   44.9380   28.2380   48.3980 N   0  0  0  0  0  0  0  0  0  0  0  0
   48.1075   32.8977   44.5021 H   0  0  0  0  0  0  0  0  0  0  0  0
   47.0530   33.2252   42.0244 H   0  0  0  0  0  0  0  0  0  0  0  0
   43.9972   35.9756   42.8955 H   0  0  0  0  0  0  0  0  0  0  0  0
   44.4638   35.8872   41.1833 H   0  0  0  0  0  0  0  0  0  0  0  0
   41.8524   34.7490   42.3480 H   0  0  0  0  0  0  0  0  0  0  0  0
   41.9962   36.3457   41.5245 H   0  0  0  0  0  0  0  0  0  0  0  0
   41.3341   34.2025   40.2842 H   0  0  0  0  0  0  0  0  0  0  0  0
   42.8759   32.9473   39.3482 H   0  0  0  0  0  0  0  0  0  0  0  0
   44.1291   34.2448   39.5773 H   0  0  0  0  0  0  0  0  0  0  0  0
   42.9445   32.5063   41.7706 H   0  0  0  0  0  0  0  0  0  0  0  0
   44.5587   32.3009   41.0224 H   0  0  0  0  0  0  0  0  0  0  0  0
   47.3218   33.6362   46.9092 H   0  0  0  0  0  0  0  0  0  0  0  0
   45.6102   34.1721   47.1319 H   0  0  0  0  0  0  0  0  0  0  0  0
   45.6357   28.9824   46.0221 H   0  0  0  0  0  0  0  0  0  0  0  0
   44.9612   30.5021   49.9991 H   0  0  0  0  0  0  0  0  0  0  0  0
   44.6666   28.0024   49.3633 H   0  0  0  0  0  0  0  0  0  0  0  0
   44.9771   27.5010   47.6795 H   0  0  0  0  0  0  0  0  0  0  0  0
  1 12  1  0
  2  1  2  0
  3  4  2  0
  3  2  1  0
  4  5  1  0
  5  1  1  0
  6  4  1  0
  7  6  1  0
  8  7  1  0
  9  8  1  0
 10  9  1  0
 10 11  1  0
 11  6  1  0
 12 17  1  0
 13 14  2  0
 14 19  1  0
 14 15  1  0
 16 15  2  0
 17 16  1  0
 18 13  1  0
 18 17  2  0
  2 20  1  0
  3 21  1  0
  7 22  1  0
  7 23  1  0
  8 24  1  0
  8 25  1  0
  9 26  1  0
 10 27  1  0
 10 28  1  0
 11 29  1  0
 11 30  1  0
 12 31  1  0
 12 32  1  0
 13 33  1  0
 15 34  1  0
 19 35  1  0
 19 36  1  0
M  ISO  8  20  14  21  14  22  13  23  13  24  13  25  13  26   5  27  13
M  ISO  7  28  13  29  13  30  13  31   8  32   8  33  14  34  14
M  END
>  <minimizedAffinity>  (1) 
-4.59132719

>  <minimizedRMSD>  (1) 
7.54081678

$$$$
