
     RDKit          3D

 29 31  0  0  0  0  0  0  0  0999 V2000
   46.4140   32.7040   45.4590 C   0  0  0  0  0  0  0  0  0  0  0  0
   46.0330   33.3980   46.5820 C   0  0  0  0  0  0  0  0  0  0  0  0
   45.6250   32.4370   47.5130 C   0  0  0  0  0  0  0  0  0  0  0  0
   45.7900   31.2180   46.8820 C   0  0  0  0  0  0  0  0  0  0  0  0
   46.2460   31.4390   45.7010 O   0  0  0  0  0  0  0  0  0  0  0  0
   45.5100   29.8880   47.4150 C   0  0  0  0  0  0  0  0  0  0  0  0
   45.0770   29.6480   48.7000 C   0  0  0  0  0  0  0  0  0  0  0  0
   44.9210   28.3190   48.8470 N   0  0  0  0  0  0  0  0  0  0  0  0
   45.2450   27.7010   47.6790 C   0  0  0  0  0  0  0  0  0  0  0  0
   45.6010   28.6850   46.8210 N   0  0  0  0  0  0  0  0  0  0  0  0
   46.9280   33.3610   44.1950 C   0  0  0  0  0  0  0  0  0  0  0  0
   43.9420   33.9090   42.1510 C   0  0  0  0  0  0  0  0  0  0  0  0
   43.7740   35.3030   42.1590 C   0  0  0  0  0  0  0  0  0  0  0  0
   44.6940   36.0410   42.8710 C   0  0  0  0  0  0  0  0  0  0  0  0
   45.6980   35.4060   43.5160 N   0  0  0  0  0  0  0  0  0  0  0  0
   45.8300   34.0610   43.4880 C   0  0  0  0  0  0  0  0  0  0  0  0
   44.9350   33.3020   42.7930 N   0  0  0  0  0  0  0  0  0  0  0  0
   42.6800   35.8040   41.4380 N   0  0  0  0  0  0  0  0  0  0  0  0
   46.0462   34.4891   46.7209 H   0  0  0  0  0  0  0  0  0  0  0  0
   45.2515   32.6139   48.5324 H   0  0  0  0  0  0  0  0  0  0  0  0
   44.8910   30.4095   49.4717 H   0  0  0  0  0  0  0  0  0  0  0  0
   44.6067   27.8458   49.7062 H   0  0  0  0  0  0  0  0  0  0  0  0
   45.2222   26.6206   47.4738 H   0  0  0  0  0  0  0  0  0  0  0  0
   47.7103   34.0882   44.4579 H   0  0  0  0  0  0  0  0  0  0  0  0
   47.3379   32.5842   43.5328 H   0  0  0  0  0  0  0  0  0  0  0  0
   43.2224   33.2941   41.5905 H   0  0  0  0  0  0  0  0  0  0  0  0
   44.6123   37.1371   42.9142 H   0  0  0  0  0  0  0  0  0  0  0  0
   42.5048   36.8185   41.4068 H   0  0  0  0  0  0  0  0  0  0  0  0
   42.0519   35.1574   40.9398 H   0  0  0  0  0  0  0  0  0  0  0  0
  1  5  1  0
  1  2  2  0
  2  3  1  0
  4  6  1  0
  4  3  2  0
  5  4  1  0
  6  7  2  0
  7  8  1  0
  9  8  1  0
 10  6  1  0
 10  9  2  0
 11  1  1  0
 12 13  2  0
 12 17  1  0
 13 14  1  0
 14 15  2  0
 16 15  1  0
 16 11  1  0
 17 16  2  0
 18 13  1  0
  2 19  1  0
  3 20  1  0
  7 21  1  0
  8 22  1  0
  9 23  1  0
 11 24  1  0
 11 25  1  0
 12 26  1  0
 14 27  1  0
 18 28  1  0
 18 29  1  0
M  ISO  8  19  14  20  14  21  14  22   9  23  14  24   8  25   8  26  14
M  ISO  1  27  14
M  END
>  <minimizedAffinity>  (1) 
-4.4150486

>  <minimizedRMSD>  (1) 
3.09377241

$$$$
