
     RDKit          3D

 29 31  0  0  0  0  0  0  0  0999 V2000
   45.2210   32.5080   41.7920 C   0  0  0  0  0  0  0  0  0  0  0  0
   41.8890   33.9700   41.3600 C   0  0  0  0  0  0  0  0  0  0  0  0
   42.1290   35.3540   41.3190 C   0  0  0  0  0  0  0  0  0  0  0  0
   43.4310   35.7810   41.4400 C   0  0  0  0  0  0  0  0  0  0  0  0
   44.4170   34.8580   41.5910 N   0  0  0  0  0  0  0  0  0  0  0  0
   44.1550   33.5290   41.6280 C   0  0  0  0  0  0  0  0  0  0  0  0
   42.8750   33.0850   41.5100 N   0  0  0  0  0  0  0  0  0  0  0  0
   40.9940   36.1770   41.1560 N   0  0  0  0  0  0  0  0  0  0  0  0
   45.8080   32.5720   43.1820 C   0  0  0  0  0  0  0  0  0  0  0  0
   46.9450   33.2620   43.5170 C   0  0  0  0  0  0  0  0  0  0  0  0
   47.1640   33.0850   44.8670 C   0  0  0  0  0  0  0  0  0  0  0  0
   46.1100   32.2690   45.2880 C   0  0  0  0  0  0  0  0  0  0  0  0
   45.3720   32.0150   44.2620 O   0  0  0  0  0  0  0  0  0  0  0  0
   45.7980   31.7370   46.6170 C   0  0  0  0  0  0  0  0  0  0  0  0
   45.6960   32.3900   47.7740 C   0  0  0  0  0  0  0  0  0  0  0  0
   45.3930   31.7360   48.9380 C   0  0  0  0  0  0  0  0  0  0  0  0
   45.2080   30.3240   48.7740 C   0  0  0  0  0  0  0  0  0  0  0  0
   45.4650   30.0150   47.0340 S   0  0  0  0  0  0  0  0  0  0  0  0
   46.0160   32.6936   41.0548 H   0  0  0  0  0  0  0  0  0  0  0  0
   44.7840   31.5105   41.6368 H   0  0  0  0  0  0  0  0  0  0  0  0
   40.8555   33.6054   41.2654 H   0  0  0  0  0  0  0  0  0  0  0  0
   43.6707   36.8543   41.4149 H   0  0  0  0  0  0  0  0  0  0  0  0
   41.1013   37.2007   41.1181 H   0  0  0  0  0  0  0  0  0  0  0  0
   40.0584   35.7539   41.0750 H   0  0  0  0  0  0  0  0  0  0  0  0
   47.5708   33.8516   42.8310 H   0  0  0  0  0  0  0  0  0  0  0  0
   47.9838   33.4940   45.4757 H   0  0  0  0  0  0  0  0  0  0  0  0
   45.8587   33.4777   47.7944 H   0  0  0  0  0  0  0  0  0  0  0  0
   45.3002   32.2462   49.9081 H   0  0  0  0  0  0  0  0  0  0  0  0
   44.9606   29.5881   49.5533 H   0  0  0  0  0  0  0  0  0  0  0  0
  1  9  1  0
  2  7  2  0
  3  2  1  0
  3  4  2  0
  4  5  1  0
  5  6  2  0
  6  1  1  0
  7  6  1  0
  8  3  1  0
  9 10  2  0
  9 13  1  0
 10 11  1  0
 11 12  2  0
 12 14  1  0
 13 12  1  0
 14 18  1  0
 14 15  2  0
 15 16  1  0
 17 16  2  0
 18 17  1  0
  1 19  1  0
  1 20  1  0
  2 21  1  0
  4 22  1  0
  8 23  1  0
  8 24  1  0
 10 25  1  0
 11 26  1  0
 15 27  1  0
 16 28  1  0
 17 29  1  0
M  ISO  8  19   8  20   8  21  14  22  14  25  14  26  14  27  14  28  14
M  ISO  1  29  14
M  END
>  <minimizedAffinity>  (1) 
-4.32046032

>  <minimizedRMSD>  (1) 
3.78833222

$$$$
