
     RDKit          3D

 30 31  0  0  0  0  0  0  0  0999 V2000
   44.6880   36.5410   43.9300 C   0  0  0  0  0  0  0  0  0  0  0  0
   45.4890   36.2770   42.8080 C   0  0  0  0  0  0  0  0  0  0  0  0
   46.1850   35.0740   42.8070 C   0  0  0  0  0  0  0  0  0  0  0  0
   46.0470   34.2500   43.8680 N   0  0  0  0  0  0  0  0  0  0  0  0
   45.2670   34.5300   44.9380 C   0  0  0  0  0  0  0  0  0  0  0  0
   44.5760   35.6960   44.9680 N   0  0  0  0  0  0  0  0  0  0  0  0
   46.1650   32.5760   46.0370 C   0  0  0  0  0  0  0  0  0  0  0  0
   47.0820   32.4230   45.2090 O   0  0  0  0  0  0  0  0  0  0  0  0
   45.1810   33.6010   46.0150 N   0  0  0  0  0  0  0  0  0  0  0  0
   46.0890   31.5990   47.1550 C   0  0  0  0  0  0  0  0  0  0  0  0
   45.4950   30.2760   46.7280 C   0  0  0  0  0  0  0  0  0  0  0  0
   45.7860   29.2910   47.8500 C   0  0  0  0  0  0  0  0  0  0  0  0
   45.0620   29.7860   49.0820 C   0  0  0  0  0  0  0  0  0  0  0  0
   45.4870   31.1680   49.4840 C   0  0  0  0  0  0  0  0  0  0  0  0
   45.3950   32.1640   48.3570 C   0  0  0  0  0  0  0  0  0  0  0  0
   44.1249   37.4854   43.9607 H   0  0  0  0  0  0  0  0  0  0  0  0
   45.5622   36.9870   41.9710 H   0  0  0  0  0  0  0  0  0  0  0  0
   46.8331   34.7995   41.9617 H   0  0  0  0  0  0  0  0  0  0  0  0
   44.4482   33.6685   46.7357 H   0  0  0  0  0  0  0  0  0  0  0  0
   47.1273   31.3938   47.4547 H   0  0  0  0  0  0  0  0  0  0  0  0
   44.4093   30.3761   46.5820 H   0  0  0  0  0  0  0  0  0  0  0  0
   45.9271   29.9342   45.7759 H   0  0  0  0  0  0  0  0  0  0  0  0
   45.4216   28.2899   47.5760 H   0  0  0  0  0  0  0  0  0  0  0  0
   46.8679   29.2210   48.0359 H   0  0  0  0  0  0  0  0  0  0  0  0
   43.9815   29.7955   48.8758 H   0  0  0  0  0  0  0  0  0  0  0  0
   45.3106   29.1064   49.9105 H   0  0  0  0  0  0  0  0  0  0  0  0
   44.8402   31.5083   50.3061 H   0  0  0  0  0  0  0  0  0  0  0  0
   46.5427   31.1120   49.7880 H   0  0  0  0  0  0  0  0  0  0  0  0
   45.8796   33.1054   48.6552 H   0  0  0  0  0  0  0  0  0  0  0  0
   44.3395   32.3633   48.1197 H   0  0  0  0  0  0  0  0  0  0  0  0
  1  6  2  0
  2  1  1  0
  3  2  2  0
  3  4  1  0
  4  5  2  0
  5  6  1  0
  5  9  1  0
  7 10  1  0
  8  7  2  0
  9  7  1  0
 10 15  1  0
 11 10  1  0
 11 12  1  0
 12 13  1  0
 13 14  1  0
 15 14  1  0
  1 16  1  0
  2 17  1  0
  3 18  1  0
  9 19  1  0
 10 20  1  0
 11 21  1  0
 11 22  1  0
 12 23  1  0
 12 24  1  0
 13 25  1  0
 13 26  1  0
 14 27  1  0
 14 28  1  0
 15 29  1  0
 15 30  1  0
M  ISO  8  16  14  17  14  18  14  20  13  21  13  22  13  23  13  24  13
M  ISO  6  25  13  26  13  27  13  28  13  29  13  30  13
M  END
>  <minimizedAffinity>  (1) 
-5.10819197

>  <minimizedRMSD>  (1) 
1.16265965

$$$$
