
     RDKit          3D

 33 36  0  0  0  0  0  0  0  0999 V2000
   46.5340   31.7260   42.7370 C   0  0  0  0  0  0  0  0  0  0  0  0
   47.8970   31.9400   42.7340 C   0  0  0  0  0  0  0  0  0  0  0  0
   48.4620   30.9320   43.5210 C   0  0  0  0  0  0  0  0  0  0  0  0
   47.3930   30.1670   43.9520 C   0  0  0  0  0  0  0  0  0  0  0  0
   46.3160   30.6760   43.4660 O   0  0  0  0  0  0  0  0  0  0  0  0
   47.4560   29.0160   44.7870 N   0  0  0  0  0  0  0  0  0  0  0  0
   48.3200   27.9860   44.7430 C   0  0  0  0  0  0  0  0  0  0  0  0
   48.0670   27.0740   45.6990 N   0  0  0  0  0  0  0  0  0  0  0  0
   47.0120   27.5250   46.3770 C   0  0  0  0  0  0  0  0  0  0  0  0
   46.2400   27.1210   47.4450 C   0  0  0  0  0  0  0  0  0  0  0  0
   45.1940   27.8420   47.9060 N   0  0  0  0  0  0  0  0  0  0  0  0
   44.8620   29.0070   47.3230 C   0  0  0  0  0  0  0  0  0  0  0  0
   45.5780   29.4490   46.2810 N   0  0  0  0  0  0  0  0  0  0  0  0
   46.6350   28.7250   45.8130 C   0  0  0  0  0  0  0  0  0  0  0  0
   45.5380   32.5950   42.0010 C   0  0  0  0  0  0  0  0  0  0  0  0
   44.9390   34.8910   44.8040 C   0  0  0  0  0  0  0  0  0  0  0  0
   44.8570   36.1430   44.1990 C   0  0  0  0  0  0  0  0  0  0  0  0
   45.0060   36.1980   42.8320 C   0  0  0  0  0  0  0  0  0  0  0  0
   45.2230   35.0580   42.1340 N   0  0  0  0  0  0  0  0  0  0  0  0
   45.2990   33.8470   42.7590 C   0  0  0  0  0  0  0  0  0  0  0  0
   45.1540   33.7650   44.1170 N   0  0  0  0  0  0  0  0  0  0  0  0
   44.6270   37.2280   45.0550 N   0  0  0  0  0  0  0  0  0  0  0  0
   48.4344   32.7465   42.2138 H   0  0  0  0  0  0  0  0  0  0  0  0
   49.5274   30.7799   43.7485 H   0  0  0  0  0  0  0  0  0  0  0  0
   49.1370   27.8996   44.0116 H   0  0  0  0  0  0  0  0  0  0  0  0
   46.4857   26.1716   47.9432 H   0  0  0  0  0  0  0  0  0  0  0  0
   44.0096   29.5922   47.6985 H   0  0  0  0  0  0  0  0  0  0  0  0
   45.9359   32.8422   41.0057 H   0  0  0  0  0  0  0  0  0  0  0  0
   44.5889   32.0485   41.8984 H   0  0  0  0  0  0  0  0  0  0  0  0
   44.8216   34.8262   45.8958 H   0  0  0  0  0  0  0  0  0  0  0  0
   44.9491   37.1638   42.3086 H   0  0  0  0  0  0  0  0  0  0  0  0
   44.5558   38.1810   44.6708 H   0  0  0  0  0  0  0  0  0  0  0  0
   44.5291   37.0727   46.0685 H   0  0  0  0  0  0  0  0  0  0  0  0
  1  5  1  0
  2  1  2  0
  2  3  1  0
  3  4  2  0
  4  6  1  0
  5  4  1  0
  6 14  1  0
  7  6  1  0
  7  8  2  0
  8  9  1  0
  9 10  2  0
 10 11  1  0
 12 11  2  0
 13 12  1  0
 14 13  2  0
 14  9  1  0
 15  1  1  0
 15 20  1  0
 17 16  2  0
 17 22  1  0
 18 17  1  0
 19 20  1  0
 19 18  2  0
 20 21  2  0
 21 16  1  0
  2 23  1  0
  3 24  1  0
  7 25  1  0
 10 26  1  0
 12 27  1  0
 15 28  1  0
 15 29  1  0
 16 30  1  0
 18 31  1  0
 22 32  1  0
 22 33  1  0
M  ISO  8  23  14  24  14  25  14  26  14  27  14  28   8  29   8  30  14
M  ISO  1  31  14
M  END
>  <minimizedAffinity>  (1) 
-3.72476411

>  <minimizedRMSD>  (1) 
5.23245907

$$$$
