
     RDKit          3D

 35 37  0  0  0  0  0  0  0  0999 V2000
   46.0400   32.5680   43.9190 C   0  0  0  0  0  0  0  0  0  0  0  0
   45.1540   33.6610   43.3980 C   0  0  0  0  0  0  0  0  0  0  0  0
   45.1330   34.9420   43.8930 C   0  0  0  0  0  0  0  0  0  0  0  0
   44.2040   35.6670   43.1740 C   0  0  0  0  0  0  0  0  0  0  0  0
   43.6890   34.7600   42.2470 C   0  0  0  0  0  0  0  0  0  0  0  0
   44.2790   33.6320   42.4330 O   0  0  0  0  0  0  0  0  0  0  0  0
   42.6630   35.0940   41.2640 C   0  0  0  0  0  0  0  0  0  0  0  0
   42.9150   34.9410   39.9310 C   0  0  0  0  0  0  0  0  0  0  0  0
   42.0090   35.2300   38.9200 C   0  0  0  0  0  0  0  0  0  0  0  0
   40.7890   35.7010   39.4070 C   0  0  0  0  0  0  0  0  0  0  0  0
   40.4960   35.8690   40.7400 C   0  0  0  0  0  0  0  0  0  0  0  0
   41.4570   35.5550   41.6360 N   0  0  0  0  0  0  0  0  0  0  0  0
   49.3310   31.7480   42.5050 C   0  0  0  0  0  0  0  0  0  0  0  0
   49.9800   32.9890   42.4300 C   0  0  0  0  0  0  0  0  0  0  0  0
   49.2750   34.0840   42.8680 C   0  0  0  0  0  0  0  0  0  0  0  0
   48.0180   33.9220   43.3390 N   0  0  0  0  0  0  0  0  0  0  0  0
   47.4240   32.7130   43.3960 C   0  0  0  0  0  0  0  0  0  0  0  0
   48.0840   31.6100   42.9750 N   0  0  0  0  0  0  0  0  0  0  0  0
   49.4970   36.1410   41.6860 C   0  0  0  0  0  0  0  0  0  0  0  0
   48.6010   35.6320   40.9480 O   0  0  0  0  0  0  0  0  0  0  0  0
   49.9380   35.3430   42.7900 N   0  0  0  0  0  0  0  0  0  0  0  0
   51.2750   32.9680   41.9170 N   0  0  0  0  0  0  0  0  0  0  0  0
   46.0632   32.6161   45.0177 H   0  0  0  0  0  0  0  0  0  0  0  0
   45.6376   31.6001   43.5854 H   0  0  0  0  0  0  0  0  0  0  0  0
   45.7499   35.3242   44.7196 H   0  0  0  0  0  0  0  0  0  0  0  0
   43.9305   36.7246   43.3031 H   0  0  0  0  0  0  0  0  0  0  0  0
   43.9052   34.5622   39.6377 H   0  0  0  0  0  0  0  0  0  0  0  0
   42.2290   35.1016   37.8499 H   0  0  0  0  0  0  0  0  0  0  0  0
   40.0085   35.9552   38.6747 H   0  0  0  0  0  0  0  0  0  0  0  0
   39.5148   36.2454   41.0649 H   0  0  0  0  0  0  0  0  0  0  0  0
   49.8681   30.8507   42.1638 H   0  0  0  0  0  0  0  0  0  0  0  0
   49.9127   37.1402   41.4893 H   0  0  0  0  0  0  0  0  0  0  0  0
   50.6598   35.6475   43.4587 H   0  0  0  0  0  0  0  0  0  0  0  0
   51.8102   33.8441   41.8337 H   0  0  0  0  0  0  0  0  0  0  0  0
   51.6973   32.0764   41.6210 H   0  0  0  0  0  0  0  0  0  0  0  0
  2  3  2  0
  2  1  1  0
  4  3  1  0
  5  6  1  0
  5  4  2  0
  6  2  1  0
  7 12  1  0
  7  5  1  0
  8  7  2  0
  9 10  2  0
  9  8  1  0
 10 11  1  0
 11 12  2  0
 13 18  2  0
 14 13  1  0
 14 15  2  0
 15 16  1  0
 16 17  2  0
 17  1  1  0
 18 17  1  0
 19 21  1  0
 20 19  2  0
 21 15  1  0
 22 14  1  0
  1 23  1  0
  1 24  1  0
  3 25  1  0
  4 26  1  0
  8 27  1  0
  9 28  1  0
 10 29  1  0
 11 30  1  0
 13 31  1  0
 19 32  1  0
 21 33  1  0
 22 34  1  0
 22 35  1  0
M  ISO  8  23   8  24   8  25  14  26  14  27  14  28  14  29  14  30  14
M  ISO  2  31  14  32   6
M  END
>  <minimizedAffinity>  (1) 
-6.23274851

>  <minimizedRMSD>  (1) 
1.16778803

$$$$
