
     RDKit          3D

 33 35  0  0  0  0  0  0  0  0999 V2000
   45.1320   34.0630   43.3890 C   0  0  0  0  0  0  0  0  0  0  0  0
   45.1320   35.4110   43.7420 C   0  0  0  0  0  0  0  0  0  0  0  0
   44.1960   36.0580   42.9670 C   0  0  0  0  0  0  0  0  0  0  0  0
   43.6590   35.0750   42.1690 C   0  0  0  0  0  0  0  0  0  0  0  0
   44.2360   33.9500   42.4560 O   0  0  0  0  0  0  0  0  0  0  0  0
   42.6100   35.2720   41.1620 C   0  0  0  0  0  0  0  0  0  0  0  0
   42.8480   35.0560   39.8350 C   0  0  0  0  0  0  0  0  0  0  0  0
   41.8850   35.2270   38.8490 C   0  0  0  0  0  0  0  0  0  0  0  0
   40.6410   35.6420   39.3490 C   0  0  0  0  0  0  0  0  0  0  0  0
   40.3780   35.8630   40.6660 C   0  0  0  0  0  0  0  0  0  0  0  0
   41.3730   35.6720   41.5390 N   0  0  0  0  0  0  0  0  0  0  0  0
   46.0140   33.0180   44.0030 C   0  0  0  0  0  0  0  0  0  0  0  0
   48.8800   31.8540   42.0320 C   0  0  0  0  0  0  0  0  0  0  0  0
   49.7820   32.9120   42.1060 C   0  0  0  0  0  0  0  0  0  0  0  0
   49.3940   34.0290   42.8420 C   0  0  0  0  0  0  0  0  0  0  0  0
   48.1830   34.0300   43.4350 N   0  0  0  0  0  0  0  0  0  0  0  0
   47.3330   32.9880   43.3430 C   0  0  0  0  0  0  0  0  0  0  0  0
   47.6880   31.8950   42.6360 N   0  0  0  0  0  0  0  0  0  0  0  0
   51.0050   32.7590   41.4330 N   0  0  0  0  0  0  0  0  0  0  0  0
   50.3230   35.1040   42.9110 N   0  0  0  0  0  0  0  0  0  0  0  0
   45.7696   35.8775   44.5075 H   0  0  0  0  0  0  0  0  0  0  0  0
   43.9350   37.1265   42.9826 H   0  0  0  0  0  0  0  0  0  0  0  0
   43.8537   34.7299   39.5314 H   0  0  0  0  0  0  0  0  0  0  0  0
   42.0785   35.0540   37.7801 H   0  0  0  0  0  0  0  0  0  0  0  0
   39.8245   35.7990   38.6288 H   0  0  0  0  0  0  0  0  0  0  0  0
   39.3817   36.1874   41.0007 H   0  0  0  0  0  0  0  0  0  0  0  0
   46.1507   33.2442   45.0708 H   0  0  0  0  0  0  0  0  0  0  0  0
   45.5354   32.0357   43.8764 H   0  0  0  0  0  0  0  0  0  0  0  0
   49.1566   30.9567   41.4589 H   0  0  0  0  0  0  0  0  0  0  0  0
   51.7048   33.5143   41.4585 H   0  0  0  0  0  0  0  0  0  0  0  0
   51.2022   31.8915   40.9139 H   0  0  0  0  0  0  0  0  0  0  0  0
   50.0878   35.9547   43.4419 H   0  0  0  0  0  0  0  0  0  0  0  0
   51.2309   35.0317   42.4300 H   0  0  0  0  0  0  0  0  0  0  0  0
  1  2  2  0
  1 12  1  0
  3  2  1  0
  4  5  1  0
  4  3  2  0
  5  1  1  0
  6 11  1  0
  6  4  1  0
  7  6  2  0
  8  9  2  0
  8  7  1  0
  9 10  1  0
 10 11  2  0
 13 14  2  0
 13 18  1  0
 14 15  1  0
 15 20  1  0
 15 16  2  0
 17 16  1  0
 17 12  1  0
 18 17  2  0
 19 14  1  0
  2 21  1  0
  3 22  1  0
  7 23  1  0
  8 24  1  0
  9 25  1  0
 10 26  1  0
 12 27  1  0
 12 28  1  0
 13 29  1  0
 19 30  1  0
 19 31  1  0
 20 32  1  0
 20 33  1  0
M  ISO  8  21  14  22  14  23  14  24  14  25  14  26  14  27   8  28   8
M  ISO  1  29  14
M  END
>  <minimizedAffinity>  (1) 
-5.8744297

>  <minimizedRMSD>  (1) 
1.0967499

$$$$
