
     RDKit          3D

 34 36  0  0  0  0  0  0  0  0999 V2000
   43.8480   33.3680   41.3010 C   0  0  0  0  0  0  0  0  0  0  0  0
   44.0570   34.4840   42.1160 C   0  0  0  0  0  0  0  0  0  0  0  0
   43.1240   35.5010   42.0660 C   0  0  0  0  0  0  0  0  0  0  0  0
   42.0480   35.3850   41.2380 N   0  0  0  0  0  0  0  0  0  0  0  0
   41.8720   34.2980   40.4620 C   0  0  0  0  0  0  0  0  0  0  0  0
   42.7690   33.2930   40.4940 N   0  0  0  0  0  0  0  0  0  0  0  0
   45.2270   34.4400   42.9160 N   0  0  0  0  0  0  0  0  0  0  0  0
   45.2320   33.5310   44.0280 C   0  0  0  0  0  0  0  0  0  0  0  0
   46.4570   33.6140   44.8630 C   0  0  0  0  0  0  0  0  0  0  0  0
   47.6440   33.5590   44.0740 N   0  0  0  0  0  0  0  0  0  0  0  0
   47.6560   34.3160   42.8940 C   0  0  0  0  0  0  0  0  0  0  0  0
   46.4310   35.1980   42.7630 C   0  0  0  0  0  0  0  0  0  0  0  0
   42.1430   35.6790   37.8540 Cl  0  0  0  0  0  0  0  0  0  0  0  0
   40.7090   34.8260   38.3580 C   0  0  0  0  0  0  0  0  0  0  0  0
   40.6950   34.2230   39.5880 C   0  0  0  0  0  0  0  0  0  0  0  0
   39.5750   33.5340   40.0280 C   0  0  0  0  0  0  0  0  0  0  0  0
   38.4500   33.4470   39.2210 C   0  0  0  0  0  0  0  0  0  0  0  0
   38.4560   34.0540   37.9770 C   0  0  0  0  0  0  0  0  0  0  0  0
   39.5840   34.7350   37.5610 C   0  0  0  0  0  0  0  0  0  0  0  0
   44.5723   32.5402   41.3176 H   0  0  0  0  0  0  0  0  0  0  0  0
   43.2486   36.3982   42.6901 H   0  0  0  0  0  0  0  0  0  0  0  0
   44.3628   33.7556   44.6637 H   0  0  0  0  0  0  0  0  0  0  0  0
   45.1962   32.5137   43.6110 H   0  0  0  0  0  0  0  0  0  0  0  0
   46.4440   34.5625   45.4200 H   0  0  0  0  0  0  0  0  0  0  0  0
   46.4622   32.7523   45.5467 H   0  0  0  0  0  0  0  0  0  0  0  0
   48.4240   33.8863   44.6618 H   0  0  0  0  0  0  0  0  0  0  0  0
   48.5525   34.9534   42.8920 H   0  0  0  0  0  0  0  0  0  0  0  0
   47.6583   33.6159   42.0456 H   0  0  0  0  0  0  0  0  0  0  0  0
   46.4654   35.9769   43.5390 H   0  0  0  0  0  0  0  0  0  0  0  0
   46.4329   35.6488   41.7596 H   0  0  0  0  0  0  0  0  0  0  0  0
   39.5786   33.0556   41.0185 H   0  0  0  0  0  0  0  0  0  0  0  0
   37.5604   32.9001   39.5669 H   0  0  0  0  0  0  0  0  0  0  0  0
   37.5714   33.9948   37.3259 H   0  0  0  0  0  0  0  0  0  0  0  0
   39.5864   35.2161   36.5718 H   0  0  0  0  0  0  0  0  0  0  0  0
  1  2  2  0
  2  7  1  0
  3  2  1  0
  4  3  2  0
  5  6  2  0
  5  4  1  0
  6  1  1  0
  7  8  1  0
  8  9  1  0
 10  9  1  0
 11 10  1  0
 12 11  1  0
 12  7  1  0
 13 14  1  0
 14 15  2  0
 15 16  1  0
 15  5  1  0
 17 16  2  0
 18 17  1  0
 19 18  2  0
 19 14  1  0
  1 20  1  0
  3 21  1  0
  8 22  1  0
  8 23  1  0
  9 24  1  0
  9 25  1  0
 10 26  1  0
 11 27  1  0
 11 28  1  0
 12 29  1  0
 12 30  1  0
 16 31  1  0
 17 32  1  0
 18 33  1  0
 19 34  1  0
M  ISO  8  20  14  21  14  22  13  23  13  24  13  25  13  26   5  27  13
M  ISO  7  28  13  29  13  30  13  31  14  32  14  33  14  34  14
M  END
>  <minimizedAffinity>  (1) 
-5.72171402

>  <minimizedRMSD>  (1) 
8.20797825

$$$$
