
     RDKit          3D

 34 36  0  0  0  0  0  0  0  0999 V2000
   47.4160   31.4540   45.0640 C   0  0  0  0  0  0  0  0  0  0  0  0
   46.6440   32.1260   45.9900 C   0  0  0  0  0  0  0  0  0  0  0  0
   46.2330   33.4150   45.6600 C   0  0  0  0  0  0  0  0  0  0  0  0
   46.5870   33.9710   44.4720 N   0  0  0  0  0  0  0  0  0  0  0  0
   47.3440   33.2850   43.5900 C   0  0  0  0  0  0  0  0  0  0  0  0
   47.7500   32.0500   43.8830 N   0  0  0  0  0  0  0  0  0  0  0  0
   46.3340   31.4550   47.1900 N   0  0  0  0  0  0  0  0  0  0  0  0
   45.6830   32.2130   48.2240 C   0  0  0  0  0  0  0  0  0  0  0  0
   45.4420   31.4250   49.4710 C   0  0  0  0  0  0  0  0  0  0  0  0
   44.9190   30.1300   49.2490 N   0  0  0  0  0  0  0  0  0  0  0  0
   45.3930   29.4300   48.1270 C   0  0  0  0  0  0  0  0  0  0  0  0
   46.6010   30.0860   47.4980 C   0  0  0  0  0  0  0  0  0  0  0  0
   47.7000   33.9230   42.3290 C   0  0  0  0  0  0  0  0  0  0  0  0
   48.5830   35.0020   42.3530 C   0  0  0  0  0  0  0  0  0  0  0  0
   48.9840   35.6760   41.2220 C   0  0  0  0  0  0  0  0  0  0  0  0
   48.4570   35.2230   40.0330 C   0  0  0  0  0  0  0  0  0  0  0  0
   47.5720   34.1470   39.9770 C   0  0  0  0  0  0  0  0  0  0  0  0
   47.1990   33.5020   41.1360 C   0  0  0  0  0  0  0  0  0  0  0  0
   47.7637   30.4328   45.2792 H   0  0  0  0  0  0  0  0  0  0  0  0
   45.6161   33.9882   46.3677 H   0  0  0  0  0  0  0  0  0  0  0  0
   46.3153   33.0777   48.4740 H   0  0  0  0  0  0  0  0  0  0  0  0
   44.7000   32.5174   47.8355 H   0  0  0  0  0  0  0  0  0  0  0  0
   46.3985   31.3234   50.0046 H   0  0  0  0  0  0  0  0  0  0  0  0
   44.6858   31.9752   50.0501 H   0  0  0  0  0  0  0  0  0  0  0  0
   45.1330   29.5625   50.0815 H   0  0  0  0  0  0  0  0  0  0  0  0
   45.6677   28.4112   48.4379 H   0  0  0  0  0  0  0  0  0  0  0  0
   44.5896   29.4231   47.3757 H   0  0  0  0  0  0  0  0  0  0  0  0
   46.8595   29.5521   46.5717 H   0  0  0  0  0  0  0  0  0  0  0  0
   47.4367   30.0425   48.2120 H   0  0  0  0  0  0  0  0  0  0  0  0
   48.9791   35.3311   43.3250 H   0  0  0  0  0  0  0  0  0  0  0  0
   49.6826   36.5246   41.2651 H   0  0  0  0  0  0  0  0  0  0  0  0
   48.7434   35.7261   39.0977 H   0  0  0  0  0  0  0  0  0  0  0  0
   47.1719   33.8133   39.0082 H   0  0  0  0  0  0  0  0  0  0  0  0
   46.5011   32.6527   41.0971 H   0  0  0  0  0  0  0  0  0  0  0  0
  1  2  2  0
  2  7  1  0
  3  2  1  0
  4  3  2  0
  5  6  2  0
  5  4  1  0
  6  1  1  0
  7 12  1  0
  7  8  1  0
  8  9  1  0
 10  9  1  0
 11 10  1  0
 12 11  1  0
 13 14  2  0
 13  5  1  0
 15 14  1  0
 16 15  2  0
 17 16  1  0
 17 18  2  0
 18 13  1  0
  1 19  1  0
  3 20  1  0
  8 21  1  0
  8 22  1  0
  9 23  1  0
  9 24  1  0
 10 25  1  0
 11 26  1  0
 11 27  1  0
 12 28  1  0
 12 29  1  0
 14 30  1  0
 15 31  1  0
 16 32  1  0
 17 33  1  0
 18 34  1  0
M  ISO  8  19  14  20  14  21  13  22  13  23  13  24  13  25   5  26  13
M  ISO  8  27  13  28  13  29  13  30  14  31  14  32  14  33  14  34  14
M  END
>  <minimizedAffinity>  (1) 
-5.3703928

>  <minimizedRMSD>  (1) 
7.21096277

$$$$
