
     RDKit          3D

 38 40  0  0  0  0  0  0  0  0999 V2000
   45.1420   34.4570   45.0200 C   0  0  0  0  0  0  0  0  0  0  0  0
   45.3620   33.6180   43.9320 C   0  0  0  0  0  0  0  0  0  0  0  0
   45.8690   32.3340   44.1900 C   0  0  0  0  0  0  0  0  0  0  0  0
   46.1250   31.9540   45.4750 N   0  0  0  0  0  0  0  0  0  0  0  0
   45.8940   32.8090   46.4930 C   0  0  0  0  0  0  0  0  0  0  0  0
   45.4120   34.0350   46.2740 N   0  0  0  0  0  0  0  0  0  0  0  0
   46.1910   32.3320   47.8050 N   0  0  0  0  0  0  0  0  0  0  0  0
   47.5800   32.2430   48.2160 C   0  0  0  0  0  0  0  0  0  0  0  0
   47.7390   30.9400   48.9560 C   0  0  0  0  0  0  0  0  0  0  0  0
   46.6850   29.9980   48.6480 N   0  0  0  0  0  0  0  0  0  0  0  0
   45.3770   30.4550   48.9790 C   0  0  0  0  0  0  0  0  0  0  0  0
   45.1580   31.9320   48.7430 C   0  0  0  0  0  0  0  0  0  0  0  0
   45.0770   34.1220   42.6580 N   0  0  0  0  0  0  0  0  0  0  0  0
   45.1440   33.2200   41.5400 C   0  0  0  0  0  0  0  0  0  0  0  0
   44.9090   33.9080   40.2230 C   0  0  0  0  0  0  0  0  0  0  0  0
   43.8000   34.7720   40.2160 N   0  0  0  0  0  0  0  0  0  0  0  0
   43.5520   35.5290   41.3750 C   0  0  0  0  0  0  0  0  0  0  0  0
   44.7220   35.4710   42.3460 C   0  0  0  0  0  0  0  0  0  0  0  0
   44.7457   35.4702   44.8576 H   0  0  0  0  0  0  0  0  0  0  0  0
   46.0588   31.6378   43.3597 H   0  0  0  0  0  0  0  0  0  0  0  0
   48.2366   32.2586   47.3336 H   0  0  0  0  0  0  0  0  0  0  0  0
   47.8546   33.0939   48.8568 H   0  0  0  0  0  0  0  0  0  0  0  0
   48.7048   30.4922   48.6791 H   0  0  0  0  0  0  0  0  0  0  0  0
   47.6894   31.1580   50.0330 H   0  0  0  0  0  0  0  0  0  0  0  0
   46.7123   29.8021   47.6372 H   0  0  0  0  0  0  0  0  0  0  0  0
   44.6519   29.8969   48.3684 H   0  0  0  0  0  0  0  0  0  0  0  0
   45.2465   30.2847   50.0579 H   0  0  0  0  0  0  0  0  0  0  0  0
   45.2571   32.4908   49.6853 H   0  0  0  0  0  0  0  0  0  0  0  0
   44.1504   32.1380   48.3528 H   0  0  0  0  0  0  0  0  0  0  0  0
   46.1413   32.7562   41.5215 H   0  0  0  0  0  0  0  0  0  0  0  0
   44.3489   32.4710   41.6697 H   0  0  0  0  0  0  0  0  0  0  0  0
   45.8057   34.4950   39.9752 H   0  0  0  0  0  0  0  0  0  0  0  0
   44.7005   33.1186   39.4858 H   0  0  0  0  0  0  0  0  0  0  0  0
   43.9315   35.4346   39.4384 H   0  0  0  0  0  0  0  0  0  0  0  0
   43.3797   36.5764   41.0866 H   0  0  0  0  0  0  0  0  0  0  0  0
   42.6685   35.1080   41.8771 H   0  0  0  0  0  0  0  0  0  0  0  0
   45.5890   35.9728   41.8915 H   0  0  0  0  0  0  0  0  0  0  0  0
   44.4228   35.9736   43.2776 H   0  0  0  0  0  0  0  0  0  0  0  0
  1  6  2  0
  2  3  2  0
  2  1  1  0
  3  4  1  0
  4  5  2  0
  5  7  1  0
  6  5  1  0
  7  8  1  0
  7 12  1  0
  8  9  1  0
 10  9  1  0
 10 11  1  0
 12 11  1  0
 13  2  1  0
 14 13  1  0
 15 14  1  0
 16 15  1  0
 16 17  1  0
 17 18  1  0
 18 13  1  0
  1 19  1  0
  3 20  1  0
  8 21  1  0
  8 22  1  0
  9 23  1  0
  9 24  1  0
 10 25  1  0
 11 26  1  0
 11 27  1  0
 12 28  1  0
 12 29  1  0
 14 30  1  0
 14 31  1  0
 15 32  1  0
 15 33  1  0
 16 34  1  0
 17 35  1  0
 17 36  1  0
 18 37  1  0
 18 38  1  0
M  ISO  8  19  14  20  14  21  13  22  13  23  13  24  13  25   5  26  13
M  ISO  8  27  13  28  13  29  13  30  13  31  13  32  13  33  13  34   5
M  ISO  4  35  13  36  13  37  13  38  13
M  END
>  <minimizedAffinity>  (1) 
-5.36168385

>  <minimizedRMSD>  (1) 
1.30585265

$$$$
