
     RDKit          3D

 28 29  0  0  0  0  0  0  0  0999 V2000
   44.7120   36.6420   43.9640 C   0  0  0  0  0  0  0  0  0  0  0  0
   45.4660   36.2820   42.8220 C   0  0  0  0  0  0  0  0  0  0  0  0
   46.1200   35.0340   42.8500 C   0  0  0  0  0  0  0  0  0  0  0  0
   45.9930   34.2550   43.9590 N   0  0  0  0  0  0  0  0  0  0  0  0
   45.2710   34.6310   45.0190 C   0  0  0  0  0  0  0  0  0  0  0  0
   44.6240   35.8310   45.0290 N   0  0  0  0  0  0  0  0  0  0  0  0
   46.1520   32.7140   46.2010 C   0  0  0  0  0  0  0  0  0  0  0  0
   47.0560   32.5030   45.3640 O   0  0  0  0  0  0  0  0  0  0  0  0
   45.1950   33.7540   46.1330 N   0  0  0  0  0  0  0  0  0  0  0  0
   46.0760   31.7810   47.3780 C   0  0  0  0  0  0  0  0  0  0  0  0
   45.3750   30.4970   47.0620 C   0  0  0  0  0  0  0  0  0  0  0  0
   45.5550   29.6000   48.2700 C   0  0  0  0  0  0  0  0  0  0  0  0
   46.0370   30.2670   49.3870 O   0  0  0  0  0  0  0  0  0  0  0  0
   45.2580   31.4010   49.6350 C   0  0  0  0  0  0  0  0  0  0  0  0
   45.4920   32.4680   48.5860 C   0  0  0  0  0  0  0  0  0  0  0  0
   44.1864   37.6082   43.9788 H   0  0  0  0  0  0  0  0  0  0  0  0
   45.5386   36.9479   41.9495 H   0  0  0  0  0  0  0  0  0  0  0  0
   46.7210   34.6962   41.9929 H   0  0  0  0  0  0  0  0  0  0  0  0
   44.4746   33.8698   46.8600 H   0  0  0  0  0  0  0  0  0  0  0  0
   47.1105   31.5006   47.6252 H   0  0  0  0  0  0  0  0  0  0  0  0
   44.3057   30.6821   46.8821 H   0  0  0  0  0  0  0  0  0  0  0  0
   45.7881   30.0309   46.1553 H   0  0  0  0  0  0  0  0  0  0  0  0
   44.5806   29.1564   48.5227 H   0  0  0  0  0  0  0  0  0  0  0  0
   46.3020   28.8390   47.9999 H   0  0  0  0  0  0  0  0  0  0  0  0
   44.1958   31.1154   49.6252 H   0  0  0  0  0  0  0  0  0  0  0  0
   45.5414   31.8098   50.6161 H   0  0  0  0  0  0  0  0  0  0  0  0
   46.1947   33.2239   48.9667 H   0  0  0  0  0  0  0  0  0  0  0  0
   44.5518   32.9783   48.3299 H   0  0  0  0  0  0  0  0  0  0  0  0
  1  6  2  0
  2  3  2  0
  2  1  1  0
  3  4  1  0
  4  5  2  0
  5  6  1  0
  5  9  1  0
  7 10  1  0
  8  7  2  0
  9  7  1  0
 10 15  1  0
 11 10  1  0
 11 12  1  0
 12 13  1  0
 13 14  1  0
 15 14  1  0
  1 16  1  0
  2 17  1  0
  3 18  1  0
  9 19  1  0
 10 20  1  0
 11 21  1  0
 11 22  1  0
 12 23  1  0
 12 24  1  0
 14 25  1  0
 14 26  1  0
 15 27  1  0
 15 28  1  0
M  ISO  8  16  14  17  14  18  14  20  13  21  13  22  13  23  13  24  13
M  ISO  4  25  13  26  13  27  13  28  13
M  END
>  <minimizedAffinity>  (1) 
-4.79110765

>  <minimizedRMSD>  (1) 
0.994367301

$$$$
