
     RDKit          3D

 33 35  0  0  0  0  0  0  0  0999 V2000
   44.6240   32.6940   42.9240 C   0  0  0  0  0  0  0  0  0  0  0  0
   45.2130   33.5740   43.8250 C   0  0  0  0  0  0  0  0  0  0  0  0
   44.8740   34.9140   43.7360 C   0  0  0  0  0  0  0  0  0  0  0  0
   43.9870   35.3260   42.7860 N   0  0  0  0  0  0  0  0  0  0  0  0
   43.4320   34.4390   41.9240 C   0  0  0  0  0  0  0  0  0  0  0  0
   43.7460   33.1310   41.9910 N   0  0  0  0  0  0  0  0  0  0  0  0
   46.1130   33.0250   44.7560 N   0  0  0  0  0  0  0  0  0  0  0  0
   45.8870   33.2830   46.1510 C   0  0  0  0  0  0  0  0  0  0  0  0
   46.9080   32.6900   47.0550 C   0  0  0  0  0  0  0  0  0  0  0  0
   47.3100   31.3830   46.7340 N   0  0  0  0  0  0  0  0  0  0  0  0
   47.3060   30.9860   45.3790 C   0  0  0  0  0  0  0  0  0  0  0  0
   47.2650   32.2140   44.4830 C   0  0  0  0  0  0  0  0  0  0  0  0
   42.4950   34.9470   40.9360 C   0  0  0  0  0  0  0  0  0  0  0  0
   42.7390   34.8240   39.5840 C   0  0  0  0  0  0  0  0  0  0  0  0
   41.8490   35.3080   38.6300 C   0  0  0  0  0  0  0  0  0  0  0  0
   40.6990   35.9220   39.1170 C   0  0  0  0  0  0  0  0  0  0  0  0
   40.4660   36.0390   40.4720 C   0  0  0  0  0  0  0  0  0  0  0  0
   41.3720   35.5480   41.3600 N   0  0  0  0  0  0  0  0  0  0  0  0
   44.8758   31.6242   42.9701 H   0  0  0  0  0  0  0  0  0  0  0  0
   45.3188   35.6431   44.4292 H   0  0  0  0  0  0  0  0  0  0  0  0
   45.8823   34.3723   46.3038 H   0  0  0  0  0  0  0  0  0  0  0  0
   44.9267   32.8119   46.4075 H   0  0  0  0  0  0  0  0  0  0  0  0
   47.7988   33.3349   47.0303 H   0  0  0  0  0  0  0  0  0  0  0  0
   46.4354   32.6271   48.0463 H   0  0  0  0  0  0  0  0  0  0  0  0
   48.2731   31.2682   47.0807 H   0  0  0  0  0  0  0  0  0  0  0  0
   48.2171   30.4080   45.1650 H   0  0  0  0  0  0  0  0  0  0  0  0
   46.4191   30.3648   45.1850 H   0  0  0  0  0  0  0  0  0  0  0  0
   47.2329   31.8893   43.4325 H   0  0  0  0  0  0  0  0  0  0  0  0
   48.1651   32.8151   44.6793 H   0  0  0  0  0  0  0  0  0  0  0  0
   43.6632   34.3294   39.2505 H   0  0  0  0  0  0  0  0  0  0  0  0
   42.0435   35.2107   37.5517 H   0  0  0  0  0  0  0  0  0  0  0  0
   39.9604   36.3224   38.4070 H   0  0  0  0  0  0  0  0  0  0  0  0
   39.5495   36.5283   40.8334 H   0  0  0  0  0  0  0  0  0  0  0  0
  1  2  2  0
  2  7  1  0
  3  2  1  0
  4  3  2  0
  5  6  2  0
  5  4  1  0
  6  1  1  0
  7  8  1  0
  8  9  1  0
 10  9  1  0
 11 10  1  0
 12  7  1  0
 12 11  1  0
 13 18  1  0
 13  5  1  0
 14 13  2  0
 15 16  2  0
 15 14  1  0
 16 17  1  0
 17 18  2  0
  1 19  1  0
  3 20  1  0
  8 21  1  0
  8 22  1  0
  9 23  1  0
  9 24  1  0
 10 25  1  0
 11 26  1  0
 11 27  1  0
 12 28  1  0
 12 29  1  0
 14 30  1  0
 15 31  1  0
 16 32  1  0
 17 33  1  0
M  ISO  8  19  14  20  14  21  13  22  13  23  13  24  13  25   5  26  13
M  ISO  7  27  13  28  13  29  13  30  14  31  14  32  14  33  14
M  END
>  <minimizedAffinity>  (1) 
-4.92803049

>  <minimizedRMSD>  (1) 
7.37618589

$$$$
