
     RDKit          3D

 26 27  0  0  0  0  0  0  0  0999 V2000
   44.2740   34.3620   41.9940 N   0  0  0  0  0  0  0  0  0  0  0  0
   44.3170   33.3570   40.9680 C   0  0  0  0  0  0  0  0  0  0  0  0
   43.7050   33.7690   39.6810 C   0  0  0  0  0  0  0  0  0  0  0  0
   42.4940   34.5020   39.7860 N   0  0  0  0  0  0  0  0  0  0  0  0
   42.3600   35.3720   40.8840 C   0  0  0  0  0  0  0  0  0  0  0  0
   43.6860   35.6000   41.5900 C   0  0  0  0  0  0  0  0  0  0  0  0
   44.6940   34.9930   44.2540 C   0  0  0  0  0  0  0  0  0  0  0  0
   44.8090   34.0150   43.2630 C   0  0  0  0  0  0  0  0  0  0  0  0
   45.4180   32.8200   43.5990 C   0  0  0  0  0  0  0  0  0  0  0  0
   45.8800   32.6390   44.8680 N   0  0  0  0  0  0  0  0  0  0  0  0
   45.7540   33.6020   45.8030 C   0  0  0  0  0  0  0  0  0  0  0  0
   45.1620   34.7730   45.4930 N   0  0  0  0  0  0  0  0  0  0  0  0
   46.2680   33.3220   47.1060 N   0  0  0  0  0  0  0  0  0  0  0  0
   45.3703   33.1004   40.7816 H   0  0  0  0  0  0  0  0  0  0  0  0
   43.7273   32.5052   41.3378 H   0  0  0  0  0  0  0  0  0  0  0  0
   43.5009   32.8597   39.0966 H   0  0  0  0  0  0  0  0  0  0  0  0
   44.4286   34.4485   39.2069 H   0  0  0  0  0  0  0  0  0  0  0  0
   42.3990   35.0670   38.9300 H   0  0  0  0  0  0  0  0  0  0  0  0
   41.9761   36.3390   40.5270 H   0  0  0  0  0  0  0  0  0  0  0  0
   41.6658   34.9110   41.6020 H   0  0  0  0  0  0  0  0  0  0  0  0
   44.3735   36.1173   40.9046 H   0  0  0  0  0  0  0  0  0  0  0  0
   43.5033   36.2090   42.4876 H   0  0  0  0  0  0  0  0  0  0  0  0
   44.2146   35.9541   44.0165 H   0  0  0  0  0  0  0  0  0  0  0  0
   45.5285   32.0230   42.8490 H   0  0  0  0  0  0  0  0  0  0  0  0
   46.1936   34.0286   47.8517 H   0  0  0  0  0  0  0  0  0  0  0  0
   46.7130   32.4135   47.2998 H   0  0  0  0  0  0  0  0  0  0  0  0
  1  8  1  0
  2  1  1  0
  3  4  1  0
  3  2  1  0
  4  5  1  0
  5  6  1  0
  6  1  1  0
  7 12  2  0
  8  9  2  0
  8  7  1  0
  9 10  1  0
 10 11  2  0
 11 13  1  0
 12 11  1  0
  2 14  1  0
  2 15  1  0
  3 16  1  0
  3 17  1  0
  4 18  1  0
  5 19  1  0
  5 20  1  0
  6 21  1  0
  6 22  1  0
  7 23  1  0
  9 24  1  0
 13 25  1  0
 13 26  1  0
M  ISO  8  14  13  15  13  16  13  17  13  18   5  19  13  20  13  21  13
M  ISO  3  22  13  23  14  24  14
M  END
>  <minimizedAffinity>  (1) 
-3.76653767

>  <minimizedRMSD>  (1) 
0.164958358

$$$$
