
     RDKit          3D

 25 26  0  0  0  0  0  0  0  0999 V2000
   44.3630   34.2440   42.1510 N   0  0  0  0  0  0  0  0  0  0  0  0
   44.3070   33.3640   41.0170 C   0  0  0  0  0  0  0  0  0  0  0  0
   43.6470   33.9290   39.8170 C   0  0  0  0  0  0  0  0  0  0  0  0
   42.5870   34.8080   40.0340 N   0  0  0  0  0  0  0  0  0  0  0  0
   42.4600   35.4680   41.2690 C   0  0  0  0  0  0  0  0  0  0  0  0
   43.8300   35.5510   41.9250 C   0  0  0  0  0  0  0  0  0  0  0  0
   45.0190   34.6190   44.4190 C   0  0  0  0  0  0  0  0  0  0  0  0
   44.9330   33.7310   43.3510 C   0  0  0  0  0  0  0  0  0  0  0  0
   45.3990   32.4330   43.5300 C   0  0  0  0  0  0  0  0  0  0  0  0
   45.9200   32.0780   44.7370 N   0  0  0  0  0  0  0  0  0  0  0  0
   45.9880   32.9650   45.7490 C   0  0  0  0  0  0  0  0  0  0  0  0
   45.5430   34.2250   45.5970 N   0  0  0  0  0  0  0  0  0  0  0  0
   46.6940   32.3860   47.2920 S   0  0  0  0  0  0  0  0  0  0  0  0
   45.3377   33.0936   40.7439 H   0  0  0  0  0  0  0  0  0  0  0  0
   43.6965   32.5029   41.3264 H   0  0  0  0  0  0  0  0  0  0  0  0
   43.2638   33.0873   39.2214 H   0  0  0  0  0  0  0  0  0  0  0  0
   44.4220   34.5320   39.3213 H   0  0  0  0  0  0  0  0  0  0  0  0
   42.6553   35.5395   39.3121 H   0  0  0  0  0  0  0  0  0  0  0  0
   42.0658   36.4821   41.1072 H   0  0  0  0  0  0  0  0  0  0  0  0
   41.7678   34.9131   41.9193 H   0  0  0  0  0  0  0  0  0  0  0  0
   44.5118   36.1101   41.2673 H   0  0  0  0  0  0  0  0  0  0  0  0
   43.7276   36.0630   42.8932 H   0  0  0  0  0  0  0  0  0  0  0  0
   44.6565   35.6508   44.3011 H   0  0  0  0  0  0  0  0  0  0  0  0
   45.3475   31.7035   42.7083 H   0  0  0  0  0  0  0  0  0  0  0  0
   46.0143   32.9434   48.3428 H   0  0  0  0  0  0  0  0  0  0  0  0
  1  8  1  0
  2  1  1  0
  3  4  1  0
  3  2  1  0
  4  5  1  0
  5  6  1  0
  6  1  1  0
  7 12  2  0
  8  9  2  0
  8  7  1  0
  9 10  1  0
 10 11  2  0
 11 13  1  0
 12 11  1  0
  2 14  1  0
  2 15  1  0
  3 16  1  0
  3 17  1  0
  4 18  1  0
  5 19  1  0
  5 20  1  0
  6 21  1  0
  6 22  1  0
  7 23  1  0
  9 24  1  0
 13 25  1  0
M  ISO  8  14  13  15  13  16  13  17  13  18   5  19  13  20  13  21  13
M  ISO  4  22  13  23  14  24  14  25  11
M  END
>  <minimizedAffinity>  (1) 
-3.45861006

>  <minimizedRMSD>  (1) 
0.647590518

$$$$
