
     RDKit          3D

 28 30  0  0  0  0  0  0  0  0999 V2000
   44.7830   32.9870   41.1880 Br  0  0  0  0  0  0  0  0  0  0  0  0
   46.4320   33.9480   40.9330 C   0  0  0  0  0  0  0  0  0  0  0  0
   46.8970   34.7580   41.9380 C   0  0  0  0  0  0  0  0  0  0  0  0
   48.0960   35.4650   41.7690 C   0  0  0  0  0  0  0  0  0  0  0  0
   48.7780   35.3260   40.5940 C   0  0  0  0  0  0  0  0  0  0  0  0
   48.2690   34.5040   39.6260 C   0  0  0  0  0  0  0  0  0  0  0  0
   47.1200   33.8110   39.7540 C   0  0  0  0  0  0  0  0  0  0  0  0
   45.6410   34.0440   45.2880 C   0  0  0  0  0  0  0  0  0  0  0  0
   44.7100   35.0760   45.5260 C   0  0  0  0  0  0  0  0  0  0  0  0
   44.5290   36.0190   44.5020 C   0  0  0  0  0  0  0  0  0  0  0  0
   45.2520   35.8800   43.3640 N   0  0  0  0  0  0  0  0  0  0  0  0
   46.1410   34.8750   43.1690 C   0  0  0  0  0  0  0  0  0  0  0  0
   46.3280   33.9540   44.1490 N   0  0  0  0  0  0  0  0  0  0  0  0
   46.5560   32.9280   38.7360 C   0  0  0  0  0  0  0  0  0  0  0  0
   46.9180   31.6040   38.5980 C   0  0  0  0  0  0  0  0  0  0  0  0
   46.3660   30.8050   37.6290 C   0  0  0  0  0  0  0  0  0  0  0  0
   45.4590   31.2650   36.7790 N   0  0  0  0  0  0  0  0  0  0  0  0
   45.0930   32.5620   36.8990 C   0  0  0  0  0  0  0  0  0  0  0  0
   45.6300   33.3520   37.8490 N   0  0  0  0  0  0  0  0  0  0  0  0
   48.4795   36.1183   42.5666 H   0  0  0  0  0  0  0  0  0  0  0  0
   49.7217   35.8664   40.4285 H   0  0  0  0  0  0  0  0  0  0  0  0
   48.8316   34.4025   38.6862 H   0  0  0  0  0  0  0  0  0  0  0  0
   45.8061   33.2872   46.0690 H   0  0  0  0  0  0  0  0  0  0  0  0
   44.1509   35.1392   46.4712 H   0  0  0  0  0  0  0  0  0  0  0  0
   43.8181   36.8501   44.6202 H   0  0  0  0  0  0  0  0  0  0  0  0
   47.6675   31.1786   39.2816 H   0  0  0  0  0  0  0  0  0  0  0  0
   46.6846   29.7547   37.5555 H   0  0  0  0  0  0  0  0  0  0  0  0
   44.3442   32.9785   36.2092 H   0  0  0  0  0  0  0  0  0  0  0  0
  2  1  1  0
  2  3  2  0
  3 12  1  0
  4  3  1  0
  5  4  2  0
  6  7  2  0
  6  5  1  0
  7  2  1  0
  8  9  2  0
 10  9  1  0
 11 10  2  0
 12 11  1  0
 12 13  2  0
 13  8  1  0
 14  7  1  0
 15 14  2  0
 16 15  1  0
 17 18  1  0
 17 16  2  0
 18 19  2  0
 19 14  1  0
  4 20  1  0
  5 21  1  0
  6 22  1  0
  8 23  1  0
  9 24  1  0
 10 25  1  0
 15 26  1  0
 16 27  1  0
 18 28  1  0
M  ISO  8  20  14  21  14  22  14  23  14  24  14  25  14  26  14  27  14
M  ISO  1  28  14
M  END
>  <minimizedAffinity>  (1) 
-5.38735247

>  <minimizedRMSD>  (1) 
0.32200259

$$$$
