
     RDKit          3D

 37 40  0  0  0  0  0  0  0  0999 V2000
   44.1510   34.8530   42.6010 C   0  0  0  0  0  0  0  0  0  0  0  0
   43.3870   34.0850   41.7280 C   0  0  0  0  0  0  0  0  0  0  0  0
   43.4690   32.7000   41.8510 C   0  0  0  0  0  0  0  0  0  0  0  0
   44.2730   32.1510   42.7950 N   0  0  0  0  0  0  0  0  0  0  0  0
   45.0040   32.9320   43.6260 C   0  0  0  0  0  0  0  0  0  0  0  0
   44.9440   34.2740   43.5310 N   0  0  0  0  0  0  0  0  0  0  0  0
   42.5960   34.7930   40.7980 N   0  0  0  0  0  0  0  0  0  0  0  0
   42.8450   34.5540   39.4010 C   0  0  0  0  0  0  0  0  0  0  0  0
   42.0350   35.3990   38.4880 C   0  0  0  0  0  0  0  0  0  0  0  0
   40.6540   35.4360   38.8400 N   0  0  0  0  0  0  0  0  0  0  0  0
   40.3290   35.4480   40.2170 C   0  0  0  0  0  0  0  0  0  0  0  0
   41.5560   35.7370   41.0660 C   0  0  0  0  0  0  0  0  0  0  0  0
   46.3620   31.0460   44.4270 C   0  0  0  0  0  0  0  0  0  0  0  0
   45.8620   32.2920   44.6330 C   0  0  0  0  0  0  0  0  0  0  0  0
   46.1780   32.9410   45.8110 C   0  0  0  0  0  0  0  0  0  0  0  0
   46.9860   32.3270   46.7480 C   0  0  0  0  0  0  0  0  0  0  0  0
   47.4910   31.0510   46.5190 C   0  0  0  0  0  0  0  0  0  0  0  0
   47.1770   30.3880   45.3370 C   0  0  0  0  0  0  0  0  0  0  0  0
   48.2650   30.6930   47.6310 O   0  0  0  0  0  0  0  0  0  0  0  0
   47.9730   31.6110   48.6720 C   0  0  0  0  0  0  0  0  0  0  0  0
   47.4580   32.7400   47.9990 O   0  0  0  0  0  0  0  0  0  0  0  0
   44.1093   35.9501   42.5336 H   0  0  0  0  0  0  0  0  0  0  0  0
   42.8822   32.0522   41.1831 H   0  0  0  0  0  0  0  0  0  0  0  0
   43.9087   34.7506   39.2011 H   0  0  0  0  0  0  0  0  0  0  0  0
   42.5614   33.5099   39.2022 H   0  0  0  0  0  0  0  0  0  0  0  0
   42.1258   34.9987   37.4674 H   0  0  0  0  0  0  0  0  0  0  0  0
   42.4207   36.4265   38.5626 H   0  0  0  0  0  0  0  0  0  0  0  0
   40.2519   36.2867   38.4211 H   0  0  0  0  0  0  0  0  0  0  0  0
   39.5734   36.2259   40.4011 H   0  0  0  0  0  0  0  0  0  0  0  0
   39.9387   34.4572   40.4926 H   0  0  0  0  0  0  0  0  0  0  0  0
   41.2805   35.6771   42.1292 H   0  0  0  0  0  0  0  0  0  0  0  0
   41.9239   36.7442   40.8205 H   0  0  0  0  0  0  0  0  0  0  0  0
   46.1073   30.5312   43.4889 H   0  0  0  0  0  0  0  0  0  0  0  0
   45.7848   33.9501   46.0034 H   0  0  0  0  0  0  0  0  0  0  0  0
   47.5612   29.3780   45.1311 H   0  0  0  0  0  0  0  0  0  0  0  0
   47.2259   31.1935   49.3630 H   0  0  0  0  0  0  0  0  0  0  0  0
   48.8547   31.8498   49.2848 H   0  0  0  0  0  0  0  0  0  0  0  0
  1  6  2  0
  2  3  2  0
  2  1  1  0
  3  4  1  0
  4  5  2  0
  5 14  1  0
  6  5  1  0
  7 12  1  0
  7  2  1  0
  8  7  1  0
  9 10  1  0
  9  8  1  0
 10 11  1  0
 11 12  1  0
 13 14  2  0
 13 18  1  0
 14 15  1  0
 15 16  2  0
 16 21  1  0
 17 16  1  0
 17 19  1  0
 18 17  2  0
 19 20  1  0
 21 20  1  0
  1 22  1  0
  3 23  1  0
  8 24  1  0
  8 25  1  0
  9 26  1  0
  9 27  1  0
 10 28  1  0
 11 29  1  0
 11 30  1  0
 12 31  1  0
 12 32  1  0
 13 33  1  0
 15 34  1  0
 18 35  1  0
 20 36  1  0
 20 37  1  0
M  ISO  8  22  14  23  14  24  13  25  13  26  13  27  13  28   5  29  13
M  ISO  8  30  13  31  13  32  13  33  14  34  14  35  14  36  13  37  13
M  END
>  <minimizedAffinity>  (1) 
-5.1215682

>  <minimizedRMSD>  (1) 
3.02512193

$$$$
