
     RDKit          3D

 24 25  0  0  0  0  0  0  0  0999 V2000
   44.5580   36.2770   44.6420 C   0  0  0  0  0  0  0  0  0  0  0  0
   45.1590   36.3520   43.3540 C   0  0  0  0  0  0  0  0  0  0  0  0
   45.8960   35.2510   42.8990 C   0  0  0  0  0  0  0  0  0  0  0  0
   45.9830   34.1870   43.7280 N   0  0  0  0  0  0  0  0  0  0  0  0
   45.4130   34.1320   44.9350 C   0  0  0  0  0  0  0  0  0  0  0  0
   44.6930   35.1910   45.3940 N   0  0  0  0  0  0  0  0  0  0  0  0
   46.5880   32.0700   45.3460 C   0  0  0  0  0  0  0  0  0  0  0  0
   47.3740   32.2170   44.3670 O   0  0  0  0  0  0  0  0  0  0  0  0
   45.5690   32.9600   45.7260 N   0  0  0  0  0  0  0  0  0  0  0  0
   44.9000   30.8450   47.4040 F   0  0  0  0  0  0  0  0  0  0  0  0
   46.0550   30.2640   47.0340 C   0  0  0  0  0  0  0  0  0  0  0  0
   46.8560   30.8320   46.0690 C   0  0  0  0  0  0  0  0  0  0  0  0
   47.9840   30.0630   45.8570 C   0  0  0  0  0  0  0  0  0  0  0  0
   48.3150   28.8890   46.4890 C   0  0  0  0  0  0  0  0  0  0  0  0
   47.4540   28.3950   47.4400 C   0  0  0  0  0  0  0  0  0  0  0  0
   46.3030   29.0980   47.7170 C   0  0  0  0  0  0  0  0  0  0  0  0
   43.9742   37.1296   45.0193 H   0  0  0  0  0  0  0  0  0  0  0  0
   45.0476   37.2520   42.7314 H   0  0  0  0  0  0  0  0  0  0  0  0
   46.3818   35.2523   41.9121 H   0  0  0  0  0  0  0  0  0  0  0  0
   44.9641   32.7727   46.5383 H   0  0  0  0  0  0  0  0  0  0  0  0
   48.6934   30.4303   45.1008 H   0  0  0  0  0  0  0  0  0  0  0  0
   49.2455   28.3577   46.2404 H   0  0  0  0  0  0  0  0  0  0  0  0
   47.6800   27.4573   47.9688 H   0  0  0  0  0  0  0  0  0  0  0  0
   45.5931   28.7318   48.4733 H   0  0  0  0  0  0  0  0  0  0  0  0
  1  6  2  0
  2  1  1  0
  3  2  2  0
  3  4  1  0
  4  5  2  0
  5  6  1  0
  5  9  1  0
  7  9  1  0
  7 12  1  0
  8  7  2  0
 11 10  1  0
 11 16  2  0
 12 11  1  0
 13 12  2  0
 13 14  1  0
 14 15  2  0
 15 16  1  0
  1 17  1  0
  2 18  1  0
  3 19  1  0
  9 20  1  0
 13 21  1  0
 14 22  1  0
 15 23  1  0
 16 24  1  0
M  ISO  7  17  14  18  14  19  14  21  14  22  14  23  14  24  14
M  END
>  <minimizedAffinity>  (1) 
-4.66911983

>  <minimizedRMSD>  (1) 
2.36753845

$$$$
