
     RDKit          3D

 56 61  0  0  1  0  0  0  0  0999 V2000
   46.6180   30.9160   43.9610 C   0  0  0  0  0  0  0  0  0  0  0  0
   45.9600   32.0320   44.3350 C   0  0  0  0  0  0  0  0  0  0  0  0
   46.1480   32.5110   45.6280 C   0  0  0  0  0  0  0  0  0  0  0  0
   46.9870   31.8500   46.4920 C   0  0  0  0  0  0  0  0  0  0  0  0
   47.6590   30.6920   46.0810 C   0  0  0  0  0  0  0  0  0  0  0  0
   47.4750   30.2120   44.7950 C   0  0  0  0  0  0  0  0  0  0  0  0
   48.4280   30.2520   47.1630 O   0  0  0  0  0  0  0  0  0  0  0  0
   48.0060   30.9470   48.3150 C   0  0  2  0  0  0  0  0  0  0  0  0
   47.3630   32.0900   47.8180 O   0  0  0  0  0  0  0  0  0  0  0  0
   44.2130   34.7080   42.4730 C   0  0  0  0  0  0  0  0  0  0  0  0
   43.3290   34.0000   41.6810 C   0  0  0  0  0  0  0  0  0  0  0  0
   43.3490   32.6030   41.8010 C   0  0  0  0  0  0  0  0  0  0  0  0
   44.2060   32.0010   42.6620 N   0  0  0  0  0  0  0  0  0  0  0  0
   45.0590   32.7470   43.4220 C   0  0  0  0  0  0  0  0  0  0  0  0
   45.0550   34.0800   43.3220 N   0  0  0  0  0  0  0  0  0  0  0  0
   42.4870   34.7300   40.8250 N   0  0  0  0  0  0  0  0  0  0  0  0
   42.6320   34.5470   39.4150 C   0  0  0  0  0  0  0  0  0  0  0  0
   41.7570   35.4450   38.6060 C   0  0  0  0  0  0  0  0  0  0  0  0
   40.4060   35.4590   39.0500 N   0  0  0  0  0  0  0  0  0  0  0  0
   40.1720   35.4090   40.4530 C   0  0  0  0  0  0  0  0  0  0  0  0
   41.4660   35.6660   41.2160 C   0  0  0  0  0  0  0  0  0  0  0  0
   49.1070   31.3270   49.2420 C   0  0  0  0  0  0  0  0  0  0  0  0
   50.0800   30.2460   49.5580 C   0  0  2  0  0  0  0  0  0  0  0  0
   50.4370   30.3890   51.0420 C   0  0  0  0  0  0  0  0  0  0  0  0
   51.2330   31.6220   51.1010 N   0  0  0  0  0  0  0  0  0  0  0  0
   51.7730   32.9400   51.3400 C   0  0  0  0  0  0  0  0  0  0  0  0
   51.5580   33.7550   52.2790 O   0  0  0  0  0  0  0  0  0  0  0  0
   52.6090   32.8750   50.0880 C   0  0  0  0  0  0  0  0  0  0  0  0
   52.4500   31.3910   50.3210 C   0  0  2  0  0  0  0  0  0  0  0  0
   51.7340   30.5360   48.8730 S   0  0  0  0  0  0  0  0  0  0  0  0
   49.5900   28.8720   49.2610 C   0  0  0  0  0  0  0  0  0  0  0  0
   46.4669   30.5427   42.9374 H   0  0  0  0  0  0  0  0  0  0  0  0
   45.6242   33.4200   45.9586 H   0  0  0  0  0  0  0  0  0  0  0  0
   47.9901   29.3045   44.4469 H   0  0  0  0  0  0  0  0  0  0  0  0
   47.3582   30.3026   48.9274 H   0  0  0  0  0  0  0  0  0  0  0  0
   44.2312   35.8061   42.4106 H   0  0  0  0  0  0  0  0  0  0  0  0
   42.6655   31.9921   41.1931 H   0  0  0  0  0  0  0  0  0  0  0  0
   43.6796   34.7448   39.1440 H   0  0  0  0  0  0  0  0  0  0  0  0
   42.3314   33.5131   39.1899 H   0  0  0  0  0  0  0  0  0  0  0  0
   41.7779   35.1043   37.5603 H   0  0  0  0  0  0  0  0  0  0  0  0
   42.1477   36.4675   38.7152 H   0  0  0  0  0  0  0  0  0  0  0  0
   39.9746   36.3249   38.6965 H   0  0  0  0  0  0  0  0  0  0  0  0
   39.4322   36.1764   40.7248 H   0  0  0  0  0  0  0  0  0  0  0  0
   39.7942   34.4102   40.7167 H   0  0  0  0  0  0  0  0  0  0  0  0
   41.2752   35.5613   42.2943 H   0  0  0  0  0  0  0  0  0  0  0  0
   41.8145   36.6834   40.9846 H   0  0  0  0  0  0  0  0  0  0  0  0
   49.6621   32.1599   48.7856 H   0  0  0  0  0  0  0  0  0  0  0  0
   48.6233   31.5863   50.1953 H   0  0  0  0  0  0  0  0  0  0  0  0
   49.5284   30.4809   51.6552 H   0  0  0  0  0  0  0  0  0  0  0  0
   50.9809   29.5159   51.4317 H   0  0  0  0  0  0  0  0  0  0  0  0
   53.6330   33.2676   50.1732 H   0  0  0  0  0  0  0  0  0  0  0  0
   52.3690   33.3909   49.1466 H   0  0  0  0  0  0  0  0  0  0  0  0
   53.3485   30.8505   50.6535 H   0  0  0  0  0  0  0  0  0  0  0  0
   49.3998   28.3387   50.2041 H   0  0  0  0  0  0  0  0  0  0  0  0
   48.6581   28.9327   48.6797 H   0  0  0  0  0  0  0  0  0  0  0  0
   50.3500   28.3293   48.6797 H   0  0  0  0  0  0  0  0  0  0  0  0
  1  2  2  0
  1  6  1  0
  2  3  1  0
  3  4  2  0
  4  9  1  0
  5  4  1  0
  5  7  1  0
  6  5  2  0
  7  8  1  0
  8 22  1  0
  9  8  1  0
 10 15  2  0
 11 12  2  0
 11 10  1  0
 12 13  1  0
 13 14  2  0
 14  2  1  0
 15 14  1  0
 16 21  1  0
 16 11  1  0
 17 16  1  0
 18 19  1  0
 18 17  1  0
 19 20  1  0
 20 21  1  0
 23 22  1  6
 23 24  1  0
 24 25  1  0
 25 26  1  0
 26 27  2  0
 28 29  1  0
 28 26  1  0
 29 30  1  0
 29 25  1  0
 30 23  1  0
 31 23  1  0
  1 32  1  0
  3 33  1  0
  6 34  1  0
  8 35  1  1
 10 36  1  0
 12 37  1  0
 17 38  1  0
 17 39  1  0
 18 40  1  0
 18 41  1  0
 19 42  1  0
 20 43  1  0
 20 44  1  0
 21 45  1  0
 21 46  1  0
 22 47  1  0
 22 48  1  0
 24 49  1  0
 24 50  1  0
 28 51  1  0
 28 52  1  0
 29 53  1  1
 31 54  1  0
 31 55  1  0
 31 56  1  0
M  ISO  8  32  14  33  14  34  14  35  13  36  14  37  14  38  13  39  13
M  ISO  8  40  13  41  13  42   5  43  13  44  13  45  13  46  13  47   8
M  ISO  8  48   8  49  13  50  13  51  13  52  13  53  13  54   8  55   8
M  ISO  1  56   8
M  END
>  <minimizedAffinity>  (1) 
-6.27766943

>  <minimizedRMSD>  (1) 
1.18489218

$$$$
