
     RDKit          3D

 40 43  0  0  1  0  0  0  0  0999 V2000
   43.5200   34.8390   41.3530 C   0  0  0  0  0  0  0  0  0  0  0  0
   42.5750   34.0450   40.7020 C   0  0  0  0  0  0  0  0  0  0  0  0
   42.5160   32.7150   41.0750 C   0  0  0  0  0  0  0  0  0  0  0  0
   43.3420   32.2240   42.0290 N   0  0  0  0  0  0  0  0  0  0  0  0
   44.2400   33.0190   42.6370 C   0  0  0  0  0  0  0  0  0  0  0  0
   44.3370   34.3320   42.3060 N   0  0  0  0  0  0  0  0  0  0  0  0
   41.7830   34.6790   39.7310 N   0  0  0  0  0  0  0  0  0  0  0  0
   42.4670   35.2580   38.6020 C   0  0  0  0  0  0  0  0  0  0  0  0
   41.5900   36.0140   37.6750 C   0  0  0  0  0  0  0  0  0  0  0  0
   40.3990   35.2890   37.3390 N   0  0  0  0  0  0  0  0  0  0  0  0
   39.8060   34.5010   38.3450 C   0  0  0  0  0  0  0  0  0  0  0  0
   40.3650   34.8320   39.7090 C   0  0  0  0  0  0  0  0  0  0  0  0
   45.6240   31.2090   43.5380 C   0  0  0  0  0  0  0  0  0  0  0  0
   45.1310   32.4780   43.6700 C   0  0  0  0  0  0  0  0  0  0  0  0
   45.4930   33.2070   44.7740 C   0  0  0  0  0  0  0  0  0  0  0  0
   46.3360   32.6640   45.7260 C   0  0  0  0  0  0  0  0  0  0  0  0
   46.8310   31.3740   45.5820 C   0  0  0  0  0  0  0  0  0  0  0  0
   46.4740   30.6280   44.4740 C   0  0  0  0  0  0  0  0  0  0  0  0
   47.6420   31.1090   46.6850 O   0  0  0  0  0  0  0  0  0  0  0  0
   47.4200   32.1120   47.6480 C   0  0  1  0  0  0  0  0  0  0  0  0
   46.8540   33.1730   46.9220 O   0  0  0  0  0  0  0  0  0  0  0  0
   46.4410   31.5410   48.6650 C   0  0  0  0  0  0  0  0  0  0  0  0
   45.7480   32.5890   49.2450 F   0  0  0  0  0  0  0  0  0  0  0  0
   45.5570   30.7120   48.0410 F   0  0  0  0  0  0  0  0  0  0  0  0
   47.1960   30.8530   49.5840 F   0  0  0  0  0  0  0  0  0  0  0  0
   43.6031   35.9027   41.0853 H   0  0  0  0  0  0  0  0  0  0  0  0
   41.7886   32.0471   40.5905 H   0  0  0  0  0  0  0  0  0  0  0  0
   43.2382   35.9441   38.9821 H   0  0  0  0  0  0  0  0  0  0  0  0
   42.8847   34.4198   38.0249 H   0  0  0  0  0  0  0  0  0  0  0  0
   41.3037   36.9623   38.1533 H   0  0  0  0  0  0  0  0  0  0  0  0
   42.1523   36.1864   36.7454 H   0  0  0  0  0  0  0  0  0  0  0  0
   39.6962   35.9770   37.0329 H   0  0  0  0  0  0  0  0  0  0  0  0
   38.7213   34.6837   38.3493 H   0  0  0  0  0  0  0  0  0  0  0  0
   40.0243   33.4446   38.1296 H   0  0  0  0  0  0  0  0  0  0  0  0
   40.1115   35.8729   39.9588 H   0  0  0  0  0  0  0  0  0  0  0  0
   39.9265   34.1416   40.4445 H   0  0  0  0  0  0  0  0  0  0  0  0
   45.3360   30.6222   42.6533 H   0  0  0  0  0  0  0  0  0  0  0  0
   45.1102   34.2302   44.9028 H   0  0  0  0  0  0  0  0  0  0  0  0
   46.8513   29.6040   44.3363 H   0  0  0  0  0  0  0  0  0  0  0  0
   48.3182   32.4477   48.1869 H   0  0  0  0  0  0  0  0  0  0  0  0
  1  6  2  0
  2  3  2  0
  2  1  1  0
  3  4  1  0
  4  5  2  0
  5 14  1  0
  6  5  1  0
  7  2  1  0
  8  7  1  0
  9  8  1  0
 10  9  1  0
 10 11  1  0
 11 12  1  0
 12  7  1  0
 13 14  2  0
 13 18  1  0
 14 15  1  0
 15 16  2  0
 16 21  1  0
 17 16  1  0
 17 19  1  0
 18 17  2  0
 19 20  1  0
 20 22  1  0
 21 20  1  0
 22 23  1  0
 22 25  1  0
 24 22  1  0
  1 26  1  0
  3 27  1  0
  8 28  1  0
  8 29  1  0
  9 30  1  0
  9 31  1  0
 10 32  1  0
 11 33  1  0
 11 34  1  0
 12 35  1  0
 12 36  1  0
 13 37  1  0
 15 38  1  0
 18 39  1  0
 20 40  1  1
M  ISO  8  26  14  27  14  28  13  29  13  30  13  31  13  32   5  33  13
M  ISO  7  34  13  35  13  36  13  37  14  38  14  39  14  40  13
M  END
>  <minimizedAffinity>  (1) 
-5.90178108

>  <minimizedRMSD>  (1) 
1.38688922

$$$$
