
     RDKit          3D

 44 48  0  0  1  0  0  0  0  0999 V2000
   44.2120   34.7010   42.6210 C   0  0  0  0  0  0  0  0  0  0  0  0
   43.3960   33.9750   41.7590 C   0  0  0  0  0  0  0  0  0  0  0  0
   43.4260   32.5860   41.8600 C   0  0  0  0  0  0  0  0  0  0  0  0
   44.2320   31.9790   42.7750 N   0  0  0  0  0  0  0  0  0  0  0  0
   45.0110   32.7310   43.5950 C   0  0  0  0  0  0  0  0  0  0  0  0
   45.0080   34.0850   43.5260 N   0  0  0  0  0  0  0  0  0  0  0  0
   42.6040   34.7110   40.8530 N   0  0  0  0  0  0  0  0  0  0  0  0
   42.8050   34.4820   39.4500 C   0  0  0  0  0  0  0  0  0  0  0  0
   42.0130   35.3830   38.5700 C   0  0  0  0  0  0  0  0  0  0  0  0
   40.6450   35.4630   38.9550 N   0  0  0  0  0  0  0  0  0  0  0  0
   40.3540   35.4610   40.3310 C   0  0  0  0  0  0  0  0  0  0  0  0
   41.6010   35.6850   41.1640 C   0  0  0  0  0  0  0  0  0  0  0  0
   46.2140   30.7440   44.3980 C   0  0  0  0  0  0  0  0  0  0  0  0
   45.8700   32.0530   44.5730 C   0  0  0  0  0  0  0  0  0  0  0  0
   46.3510   32.7120   45.6880 C   0  0  0  0  0  0  0  0  0  0  0  0
   47.1590   32.0490   46.5920 C   0  0  0  0  0  0  0  0  0  0  0  0
   47.5000   30.7210   46.4040 C   0  0  0  0  0  0  0  0  0  0  0  0
   47.0230   30.0480   45.2880 C   0  0  0  0  0  0  0  0  0  0  0  0
   48.3120   30.3360   47.4660 O   0  0  0  0  0  0  0  0  0  0  0  0
   48.1420   31.3060   48.5060 C   0  0  2  0  0  0  0  0  0  0  0  0
   47.7690   32.4740   47.7820 O   0  0  0  0  0  0  0  0  0  0  0  0
   49.2520   31.4530   49.3670 C   0  0  0  0  0  0  0  0  0  0  0  0
   50.1500   32.4030   49.7490 C   0  0  0  0  0  0  0  0  0  0  0  0
   51.1470   32.1790   50.6530 C   0  0  0  0  0  0  0  0  0  0  0  0
   51.1320   30.7190   51.1880 C   0  0  0  0  0  0  0  0  0  0  0  0
   49.6600   29.9950   50.2490 S   0  0  0  0  0  0  0  0  0  0  0  0
   44.2102   35.7996   42.5658 H   0  0  0  0  0  0  0  0  0  0  0  0
   42.7951   31.9758   41.1970 H   0  0  0  0  0  0  0  0  0  0  0  0
   43.8717   34.6288   39.2250 H   0  0  0  0  0  0  0  0  0  0  0  0
   42.4655   33.4563   39.2432 H   0  0  0  0  0  0  0  0  0  0  0  0
   42.0668   35.0042   37.5387 H   0  0  0  0  0  0  0  0  0  0  0  0
   42.4419   36.3923   38.6554 H   0  0  0  0  0  0  0  0  0  0  0  0
   40.2646   36.3353   38.5610 H   0  0  0  0  0  0  0  0  0  0  0  0
   39.6326   36.2635   40.5448 H   0  0  0  0  0  0  0  0  0  0  0  0
   39.9361   34.4779   40.5935 H   0  0  0  0  0  0  0  0  0  0  0  0
   41.3411   35.6069   42.2300 H   0  0  0  0  0  0  0  0  0  0  0  0
   41.9998   36.6851   40.9386 H   0  0  0  0  0  0  0  0  0  0  0  0
   45.8333   30.2155   43.5116 H   0  0  0  0  0  0  0  0  0  0  0  0
   46.0901   33.7672   45.8566 H   0  0  0  0  0  0  0  0  0  0  0  0
   47.2783   28.9925   45.1127 H   0  0  0  0  0  0  0  0  0  0  0  0
   47.3818   31.0137   49.2454 H   0  0  0  0  0  0  0  0  0  0  0  0
   50.0669   33.4057   49.3044 H   0  0  0  0  0  0  0  0  0  0  0  0
   51.8755   32.9413   50.9664 H   0  0  0  0  0  0  0  0  0  0  0  0
   51.7993   30.2367   51.9175 H   0  0  0  0  0  0  0  0  0  0  0  0
  1  6  2  0
  2  3  2  0
  2  1  1  0
  3  4  1  0
  4  5  2  0
  5 14  1  0
  6  5  1  0
  7 12  1  0
  7  2  1  0
  8  7  1  0
  9 10  1  0
  9  8  1  0
 10 11  1  0
 11 12  1  0
 13 14  2  0
 13 18  1  0
 14 15  1  0
 15 16  2  0
 16 21  1  0
 17 16  1  0
 17 19  1  0
 18 17  2  0
 19 20  1  0
 20 22  1  0
 21 20  1  0
 22 23  2  0
 22 26  1  0
 23 24  1  0
 24 25  2  0
 26 25  1  0
  1 27  1  0
  3 28  1  0
  8 29  1  0
  8 30  1  0
  9 31  1  0
  9 32  1  0
 10 33  1  0
 11 34  1  0
 11 35  1  0
 12 36  1  0
 12 37  1  0
 13 38  1  0
 15 39  1  0
 18 40  1  0
 20 41  1  1
 23 42  1  0
 24 43  1  0
 25 44  1  0
M  ISO  8  27  14  28  14  29  13  30  13  31  13  32  13  33   5  34  13
M  ISO  8  35  13  36  13  37  13  38  14  39  14  40  14  41  13  42  14
M  ISO  2  43  14  44  14
M  END
>  <minimizedAffinity>  (1) 
-5.88824177

>  <minimizedRMSD>  (1) 
0.402713925

$$$$
