
     RDKit          3D

 43 46  0  0  1  0  0  0  0  0999 V2000
   44.1630   34.7840   42.5680 C   0  0  0  0  0  0  0  0  0  0  0  0
   43.3610   34.0480   41.7070 C   0  0  0  0  0  0  0  0  0  0  0  0
   43.4090   32.6570   41.8210 C   0  0  0  0  0  0  0  0  0  0  0  0
   44.2150   32.0770   42.7440 N   0  0  0  0  0  0  0  0  0  0  0  0
   44.9840   32.8480   43.5660 C   0  0  0  0  0  0  0  0  0  0  0  0
   44.9620   34.1870   43.4830 N   0  0  0  0  0  0  0  0  0  0  0  0
   42.5720   34.7720   40.7980 N   0  0  0  0  0  0  0  0  0  0  0  0
   42.8010   34.5520   39.3940 C   0  0  0  0  0  0  0  0  0  0  0  0
   42.0030   35.4130   38.4950 C   0  0  0  0  0  0  0  0  0  0  0  0
   40.6310   35.4930   38.8620 N   0  0  0  0  0  0  0  0  0  0  0  0
   40.3010   35.4400   40.2340 C   0  0  0  0  0  0  0  0  0  0  0  0
   41.5480   35.7210   41.0740 C   0  0  0  0  0  0  0  0  0  0  0  0
   46.2710   30.9000   44.3570 C   0  0  0  0  0  0  0  0  0  0  0  0
   45.8430   32.1650   44.5520 C   0  0  0  0  0  0  0  0  0  0  0  0
   46.2310   32.8170   45.7080 C   0  0  0  0  0  0  0  0  0  0  0  0
   47.0350   32.1860   46.6360 C   0  0  0  0  0  0  0  0  0  0  0  0
   47.4630   30.8840   46.4150 C   0  0  0  0  0  0  0  0  0  0  0  0
   47.0780   30.2190   45.2550 C   0  0  0  0  0  0  0  0  0  0  0  0
   48.2540   30.4990   47.5050 O   0  0  0  0  0  0  0  0  0  0  0  0
   47.9860   31.4240   48.5580 C   0  0  2  0  0  0  0  0  0  0  0  0
   47.5730   32.5830   47.8650 O   0  0  0  0  0  0  0  0  0  0  0  0
   49.2300   31.6470   49.3640 C   0  0  0  0  0  0  0  0  0  0  0  0
   49.6110   30.4260   50.1800 C   0  0  0  0  0  0  0  0  0  0  0  0
   44.1489   35.8821   42.5051 H   0  0  0  0  0  0  0  0  0  0  0  0
   42.7915   32.0306   41.1605 H   0  0  0  0  0  0  0  0  0  0  0  0
   43.8658   34.7353   39.1878 H   0  0  0  0  0  0  0  0  0  0  0  0
   42.4919   33.5167   39.1875 H   0  0  0  0  0  0  0  0  0  0  0  0
   42.0681   35.0072   37.4747 H   0  0  0  0  0  0  0  0  0  0  0  0
   42.4181   36.4293   38.5649 H   0  0  0  0  0  0  0  0  0  0  0  0
   40.2687   36.3848   38.4954 H   0  0  0  0  0  0  0  0  0  0  0  0
   39.5330   36.1958   40.4551 H   0  0  0  0  0  0  0  0  0  0  0  0
   39.9146   34.4394   40.4779 H   0  0  0  0  0  0  0  0  0  0  0  0
   41.2837   35.6655   42.1403 H   0  0  0  0  0  0  0  0  0  0  0  0
   41.9221   36.7243   40.8220 H   0  0  0  0  0  0  0  0  0  0  0  0
   45.9631   30.3820   43.4367 H   0  0  0  0  0  0  0  0  0  0  0  0
   45.8957   33.8487   45.8900 H   0  0  0  0  0  0  0  0  0  0  0  0
   47.4033   29.1870   45.0571 H   0  0  0  0  0  0  0  0  0  0  0  0
   47.2276   31.0880   49.2805 H   0  0  0  0  0  0  0  0  0  0  0  0
   50.0569   31.8879   48.6798 H   0  0  0  0  0  0  0  0  0  0  0  0
   49.0354   32.4733   50.0636 H   0  0  0  0  0  0  0  0  0  0  0  0
   49.5369   30.6634   51.2515 H   0  0  0  0  0  0  0  0  0  0  0  0
   48.9288   29.5971   49.9400 H   0  0  0  0  0  0  0  0  0  0  0  0
   50.6435   30.1322   49.9400 H   0  0  0  0  0  0  0  0  0  0  0  0
  1  6  2  0
  2  3  2  0
  2  1  1  0
  3  4  1  0
  4  5  2  0
  5 14  1  0
  6  5  1  0
  7 12  1  0
  7  2  1  0
  8  7  1  0
  9 10  1  0
  9  8  1  0
 10 11  1  0
 11 12  1  0
 13 14  2  0
 13 18  1  0
 14 15  1  0
 15 16  2  0
 16 21  1  0
 17 16  1  0
 17 19  1  0
 18 17  2  0
 19 20  1  0
 20 22  1  0
 21 20  1  0
 22 23  1  0
  1 24  1  0
  3 25  1  0
  8 26  1  0
  8 27  1  0
  9 28  1  0
  9 29  1  0
 10 30  1  0
 11 31  1  0
 11 32  1  0
 12 33  1  0
 12 34  1  0
 13 35  1  0
 15 36  1  0
 18 37  1  0
 20 38  1  1
 22 39  1  0
 22 40  1  0
 23 41  1  0
 23 42  1  0
 23 43  1  0
M  ISO  8  24  14  25  14  26  13  27  13  28  13  29  13  30   5  31  13
M  ISO  8  32  13  33  13  34  13  35  14  36  14  37  14  38  13  39   8
M  ISO  4  40   8  41   8  42   8  43   8
M  END
>  <minimizedAffinity>  (1) 
-5.50908804

>  <minimizedRMSD>  (1) 
0.278308272

$$$$
