
     RDKit          3D

 23 24  0  0  0  0  0  0  0  0999 V2000
   47.3330   34.7790   42.0420 C   0  0  0  0  0  0  0  0  0  0  0  0
   48.1870   35.6270   41.7140 O   0  0  0  0  0  0  0  0  0  0  0  0
   46.4570   34.8190   43.1640 C   0  0  0  0  0  0  0  0  0  0  0  0
   45.5520   35.8890   43.1180 C   0  0  0  0  0  0  0  0  0  0  0  0
   44.6520   36.0060   44.1810 C   0  0  0  0  0  0  0  0  0  0  0  0
   44.6990   35.0920   45.1880 N   0  0  0  0  0  0  0  0  0  0  0  0
   45.6000   34.0690   45.1830 C   0  0  0  0  0  0  0  0  0  0  0  0
   46.4750   33.9440   44.1640 N   0  0  0  0  0  0  0  0  0  0  0  0
   47.2140   33.6580   41.2240 O   0  0  0  0  0  0  0  0  0  0  0  0
   45.1700   32.5050   39.8440 F   0  0  0  0  0  0  0  0  0  0  0  0
   46.1870   33.1050   39.1750 C   0  0  0  0  0  0  0  0  0  0  0  0
   47.2560   33.7100   39.8350 C   0  0  0  0  0  0  0  0  0  0  0  0
   48.2780   34.3120   39.1230 C   0  0  0  0  0  0  0  0  0  0  0  0
   48.2200   34.3050   37.7360 C   0  0  0  0  0  0  0  0  0  0  0  0
   47.1540   33.7010   37.1210 C   0  0  0  0  0  0  0  0  0  0  0  0
   46.1060   33.0840   37.7890 C   0  0  0  0  0  0  0  0  0  0  0  0
   45.5504   36.6045   42.2825 H   0  0  0  0  0  0  0  0  0  0  0  0
   43.9171   36.8242   44.2032 H   0  0  0  0  0  0  0  0  0  0  0  0
   45.6135   33.3447   46.0108 H   0  0  0  0  0  0  0  0  0  0  0  0
   49.1208   34.7873   39.6461 H   0  0  0  0  0  0  0  0  0  0  0  0
   49.0159   34.7761   37.1405 H   0  0  0  0  0  0  0  0  0  0  0  0
   47.1277   33.7058   36.0213 H   0  0  0  0  0  0  0  0  0  0  0  0
   45.2679   32.6104   37.2567 H   0  0  0  0  0  0  0  0  0  0  0  0
  1  3  1  0
  2  1  2  0
  3  8  1  0
  4  3  2  0
  4  5  1  0
  5  6  2  0
  7  6  1  0
  8  7  2  0
  9  1  1  0
 11 12  2  0
 11 10  1  0
 12  9  1  0
 13 12  1  0
 14 13  2  0
 15 14  1  0
 15 16  2  0
 16 11  1  0
  4 17  1  0
  5 18  1  0
  7 19  1  0
 13 20  1  0
 14 21  1  0
 15 22  1  0
 16 23  1  0
M  ISO  7  17  14  18  14  19  14  20  14  21  14  22  14  23  14
M  END
>  <minimizedAffinity>  (1) 
-4.49429321

>  <minimizedRMSD>  (1) 
0.62321496

$$$$
