
     RDKit          3D

 28 29  0  0  0  0  0  0  0  0999 V2000
   45.1160   33.6020   41.7890 C   0  0  0  0  0  0  0  0  0  0  0  0
   44.7300   33.2780   42.9290 O   0  0  0  0  0  0  0  0  0  0  0  0
   44.3310   33.8480   40.6260 C   0  0  0  0  0  0  0  0  0  0  0  0
   43.3820   34.8390   40.7990 C   0  0  0  0  0  0  0  0  0  0  0  0
   42.5630   35.1430   39.6920 C   0  0  0  0  0  0  0  0  0  0  0  0
   42.7450   34.4620   38.5430 N   0  0  0  0  0  0  0  0  0  0  0  0
   43.6940   33.4950   38.4250 C   0  0  0  0  0  0  0  0  0  0  0  0
   44.4830   33.1910   39.4660 N   0  0  0  0  0  0  0  0  0  0  0  0
   46.4940   33.7520   41.6020 O   0  0  0  0  0  0  0  0  0  0  0  0
   50.0710   34.9240   42.8450 N   0  0  0  0  0  0  0  0  0  0  0  0
   49.4180   33.6300   42.8260 C   0  0  0  0  0  0  0  0  0  0  0  0
   48.0240   33.8770   43.3660 C   0  0  0  0  0  0  0  0  0  0  0  0
   47.2540   34.6910   42.3510 C   0  0  0  0  0  0  0  0  0  0  0  0
   48.1190   35.4370   41.4060 C   0  0  0  0  0  0  0  0  0  0  0  0
   49.4680   35.8330   41.9210 C   0  0  0  0  0  0  0  0  0  0  0  0
   43.2709   35.3668   41.7577 H   0  0  0  0  0  0  0  0  0  0  0  0
   41.7896   35.9218   39.7648 H   0  0  0  0  0  0  0  0  0  0  0  0
   43.8150   32.9599   37.4716 H   0  0  0  0  0  0  0  0  0  0  0  0
   50.0031   35.3184   43.7941 H   0  0  0  0  0  0  0  0  0  0  0  0
   49.3695   33.2380   41.7993 H   0  0  0  0  0  0  0  0  0  0  0  0
   49.9639   32.8866   43.4254 H   0  0  0  0  0  0  0  0  0  0  0  0
   47.5155   32.9162   43.5340 H   0  0  0  0  0  0  0  0  0  0  0  0
   48.0803   34.4205   44.3207 H   0  0  0  0  0  0  0  0  0  0  0  0
   46.6516   35.4420   42.8831 H   0  0  0  0  0  0  0  0  0  0  0  0
   47.5869   36.3551   41.1163 H   0  0  0  0  0  0  0  0  0  0  0  0
   48.3119   34.7454   40.5727 H   0  0  0  0  0  0  0  0  0  0  0  0
   50.1426   35.9346   41.0581 H   0  0  0  0  0  0  0  0  0  0  0  0
   49.3128   36.7682   42.4790 H   0  0  0  0  0  0  0  0  0  0  0  0
  1  2  2  0
  3  4  2  0
  3  1  1  0
  5  4  1  0
  6  5  2  0
  7  6  1  0
  7  8  2  0
  8  3  1  0
  9  1  1  0
  9 13  1  0
 11 10  1  0
 11 12  1  0
 13 12  1  0
 14 15  1  0
 14 13  1  0
 15 10  1  0
  4 16  1  0
  5 17  1  0
  7 18  1  0
 10 19  1  0
 11 20  1  0
 11 21  1  0
 12 22  1  0
 12 23  1  0
 13 24  1  0
 14 25  1  0
 14 26  1  0
 15 27  1  0
 15 28  1  0
M  ISO  8  16  14  17  14  18  14  19   5  20  13  21  13  22  13  23  13
M  ISO  5  24  13  25  13  26  13  27  13  28  13
M  END
>  <minimizedAffinity>  (1) 
-4.10113525

>  <minimizedRMSD>  (1) 
4.36211824

$$$$
