
     RDKit          3D

 16 16  0  0  0  0  0  0  0  0999 V2000
   46.2810   34.8950   43.1360 C   0  0  0  0  0  0  0  0  0  0  0  0
   45.3420   35.9080   43.2540 C   0  0  0  0  0  0  0  0  0  0  0  0
   44.5690   35.9310   44.4210 C   0  0  0  0  0  0  0  0  0  0  0  0
   44.7650   34.9880   45.3650 N   0  0  0  0  0  0  0  0  0  0  0  0
   45.6970   34.0150   45.2050 C   0  0  0  0  0  0  0  0  0  0  0  0
   46.4410   33.9830   44.0930 N   0  0  0  0  0  0  0  0  0  0  0  0
   47.0330   34.9310   41.9210 C   0  0  0  0  0  0  0  0  0  0  0  0
   48.1740   35.4280   41.7460 O   0  0  0  0  0  0  0  0  0  0  0  0
   46.4070   34.3440   40.8320 O   0  0  0  0  0  0  0  0  0  0  0  0
   47.1310   33.7430   39.7690 C   0  0  0  0  0  0  0  0  0  0  0  0
   45.2099   36.6619   42.4640 H   0  0  0  0  0  0  0  0  0  0  0  0
   43.8080   36.7118   44.5668 H   0  0  0  0  0  0  0  0  0  0  0  0
   45.8406   33.2548   45.9869 H   0  0  0  0  0  0  0  0  0  0  0  0
   47.9155   33.0918   40.1818 H   0  0  0  0  0  0  0  0  0  0  0  0
   46.4456   33.1447   39.1507 H   0  0  0  0  0  0  0  0  0  0  0  0
   47.5929   34.5268   39.1507 H   0  0  0  0  0  0  0  0  0  0  0  0
  1  2  2  0
  1  6  1  0
  2  3  1  0
  3  4  2  0
  5  4  1  0
  6  5  2  0
  7  1  1  0
  8  7  2  0
  9  7  1  0
 10  9  1  0
  2 11  1  0
  3 12  1  0
  5 13  1  0
 10 14  1  0
 10 15  1  0
 10 16  1  0
M  ISO  6  11  14  12  14  13  14  14   8  15   8  16   8
M  END
>  <minimizedAffinity>  (1) 
-3.43435121

>  <minimizedRMSD>  (1) 
0.189943552

$$$$
