
     RDKit          3D

 33 35  0  0  1  0  0  0  0  0999 V2000
   47.2140   33.6190   39.9780 C   0  0  0  0  0  0  0  0  0  0  0  0
   48.3110   33.9600   39.2240 C   0  0  0  0  0  0  0  0  0  0  0  0
   47.9590   33.8530   37.8940 C   0  0  0  0  0  0  0  0  0  0  0  0
   46.6310   33.4420   37.9020 C   0  0  0  0  0  0  0  0  0  0  0  0
   46.2140   33.3120   39.1530 O   0  0  0  0  0  0  0  0  0  0  0  0
   46.6540   32.3340   35.6590 C   0  0  1  0  0  0  0  0  0  0  0  0
   45.9090   33.2210   36.6210 C   0  0  1  0  0  0  0  0  0  0  0  0
   44.6870   32.6270   36.8720 O   0  0  0  0  0  0  0  0  0  0  0  0
   44.4490   31.6370   35.9580 C   0  0  0  0  0  0  0  0  0  0  0  0
   45.4870   31.7550   34.8610 C   0  0  1  0  0  0  0  0  0  0  0  0
   47.5420   33.0410   34.8800 O   0  0  0  0  0  0  0  0  0  0  0  0
   44.9970   32.6720   33.9330 O   0  0  0  0  0  0  0  0  0  0  0  0
   47.0380   33.5620   41.3770 O   0  0  0  0  0  0  0  0  0  0  0  0
   47.1850   34.7020   42.1610 C   0  0  0  0  0  0  0  0  0  0  0  0
   48.0220   35.5430   41.7730 O   0  0  0  0  0  0  0  0  0  0  0  0
   46.3400   34.7540   43.3260 C   0  0  0  0  0  0  0  0  0  0  0  0
   45.4410   35.8030   43.2950 C   0  0  0  0  0  0  0  0  0  0  0  0
   44.5770   35.9260   44.3980 C   0  0  0  0  0  0  0  0  0  0  0  0
   44.6780   35.0290   45.3970 N   0  0  0  0  0  0  0  0  0  0  0  0
   45.5840   34.0170   45.3730 C   0  0  0  0  0  0  0  0  0  0  0  0
   46.4130   33.8880   44.3270 N   0  0  0  0  0  0  0  0  0  0  0  0
   49.2945   34.2641   39.6116 H   0  0  0  0  0  0  0  0  0  0  0  0
   48.5926   34.0504   37.0167 H   0  0  0  0  0  0  0  0  0  0  0  0
   47.2970   31.5758   36.1298 H   0  0  0  0  0  0  0  0  0  0  0  0
   45.7996   34.2137   36.1599 H   0  0  0  0  0  0  0  0  0  0  0  0
   44.5289   30.6532   36.4436 H   0  0  0  0  0  0  0  0  0  0  0  0
   43.4368   31.7379   35.5395 H   0  0  0  0  0  0  0  0  0  0  0  0
   45.7472   30.8407   34.3075 H   0  0  0  0  0  0  0  0  0  0  0  0
   48.1681   33.5394   35.4628 H   0  0  0  0  0  0  0  0  0  0  0  0
   44.5881   33.4373   34.4096 H   0  0  0  0  0  0  0  0  0  0  0  0
   45.4030   36.5064   42.4502 H   0  0  0  0  0  0  0  0  0  0  0  0
   43.8352   36.7370   44.4435 H   0  0  0  0  0  0  0  0  0  0  0  0
   45.6374   33.3050   46.2098 H   0  0  0  0  0  0  0  0  0  0  0  0
  1 13  1  0
  2  1  2  0
  3  4  2  0
  3  2  1  0
  4  5  1  0
  5  1  1  0
  6 11  1  0
  6  7  1  0
  7  8  1  0
  7  4  1  0
  9  8  1  0
 10 12  1  0
 10  6  1  0
 10  9  1  0
 13 14  1  0
 14 16  1  0
 15 14  2  0
 16 21  1  0
 17 16  2  0
 17 18  1  0
 18 19  2  0
 20 19  1  0
 21 20  2  0
  2 22  1  0
  3 23  1  0
  6 24  1  1
  7 25  1  6
  9 26  1  0
  9 27  1  0
 10 28  1  6
 11 29  1  0
 12 30  1  0
 17 31  1  0
 18 32  1  0
 20 33  1  0
M  ISO  8  22  14  23  14  24  13  25  13  26  13  27  13  28  13  29   3
M  ISO  4  30   3  31  14  32  14  33  14
M  END
>  <minimizedAffinity>  (1) 
-5.80900097

>  <minimizedRMSD>  (1) 
1.2990638

$$$$
