
     RDKit          3D

 32 34  0  0  0  0  0  0  0  0999 V2000
   47.3530   33.8360   39.7240 C   0  0  0  0  0  0  0  0  0  0  0  0
   48.3030   34.5900   39.0910 C   0  0  0  0  0  0  0  0  0  0  0  0
   48.2640   34.3170   37.7360 C   0  0  0  0  0  0  0  0  0  0  0  0
   47.2640   33.3840   37.6040 C   0  0  0  0  0  0  0  0  0  0  0  0
   46.7560   33.1290   38.7820 O   0  0  0  0  0  0  0  0  0  0  0  0
   46.8460   32.7910   36.3810 N   0  0  0  0  0  0  0  0  0  0  0  0
   45.4580   32.5110   36.0070 C   0  0  0  0  0  0  0  0  0  0  0  0
   45.4820   32.2850   34.5120 C   0  0  0  0  0  0  0  0  0  0  0  0
   46.8240   31.5900   34.3590 C   0  0  0  0  0  0  0  0  0  0  0  0
   47.7000   32.3580   35.2910 C   0  0  0  0  0  0  0  0  0  0  0  0
   46.9970   33.7480   41.0720 O   0  0  0  0  0  0  0  0  0  0  0  0
   47.2550   34.7730   41.9750 C   0  0  0  0  0  0  0  0  0  0  0  0
   48.1970   35.5380   41.6650 O   0  0  0  0  0  0  0  0  0  0  0  0
   46.4150   34.8120   43.1240 C   0  0  0  0  0  0  0  0  0  0  0  0
   45.5210   35.8820   43.1040 C   0  0  0  0  0  0  0  0  0  0  0  0
   44.6460   36.0100   44.1940 C   0  0  0  0  0  0  0  0  0  0  0  0
   44.7260   35.0950   45.1850 N   0  0  0  0  0  0  0  0  0  0  0  0
   45.6070   34.0810   45.1580 C   0  0  0  0  0  0  0  0  0  0  0  0
   46.4570   33.9360   44.1220 N   0  0  0  0  0  0  0  0  0  0  0  0
   48.9871   35.2987   39.5807 H   0  0  0  0  0  0  0  0  0  0  0  0
   48.8918   34.7492   36.9429 H   0  0  0  0  0  0  0  0  0  0  0  0
   45.0934   31.6123   36.5262 H   0  0  0  0  0  0  0  0  0  0  0  0
   44.7854   33.3358   36.2850 H   0  0  0  0  0  0  0  0  0  0  0  0
   44.6518   31.6416   34.1851 H   0  0  0  0  0  0  0  0  0  0  0  0
   45.3667   33.1974   33.9084 H   0  0  0  0  0  0  0  0  0  0  0  0
   46.7593   30.5329   34.6562 H   0  0  0  0  0  0  0  0  0  0  0  0
   47.1936   31.5782   33.3230 H   0  0  0  0  0  0  0  0  0  0  0  0
   48.5084   31.7162   35.6712 H   0  0  0  0  0  0  0  0  0  0  0  0
   48.1717   33.2137   34.7858 H   0  0  0  0  0  0  0  0  0  0  0  0
   45.5023   36.5967   42.2680 H   0  0  0  0  0  0  0  0  0  0  0  0
   43.9161   36.8316   44.2401 H   0  0  0  0  0  0  0  0  0  0  0  0
   45.6349   33.3618   45.9898 H   0  0  0  0  0  0  0  0  0  0  0  0
  1 11  1  0
  2  1  2  0
  3  2  1  0
  4  3  2  0
  4  5  1  0
  5  1  1  0
  6  4  1  0
  7  6  1  0
  8  7  1  0
  9  8  1  0
  9 10  1  0
 10  6  1  0
 11 12  1  0
 12 14  1  0
 13 12  2  0
 14 19  1  0
 15 14  2  0
 15 16  1  0
 16 17  2  0
 18 17  1  0
 19 18  2  0
  2 20  1  0
  3 21  1  0
  7 22  1  0
  7 23  1  0
  8 24  1  0
  8 25  1  0
  9 26  1  0
  9 27  1  0
 10 28  1  0
 10 29  1  0
 15 30  1  0
 16 31  1  0
 18 32  1  0
M  ISO  8  20  14  21  14  22  13  23  13  24  13  25  13  26  13  27  13
M  ISO  5  28  13  29  13  30  14  31  14  32  14
M  END
>  <minimizedAffinity>  (1) 
-4.98514271

>  <minimizedRMSD>  (1) 
0.697849452

$$$$
