
     RDKit          3D

 23 24  0  0  0  0  0  0  0  0999 V2000
   44.7670   36.6540   43.7620 C   0  0  0  0  0  0  0  0  0  0  0  0
   45.6470   36.3320   42.7170 C   0  0  0  0  0  0  0  0  0  0  0  0
   46.3010   35.0960   42.7770 C   0  0  0  0  0  0  0  0  0  0  0  0
   46.0520   34.2710   43.8410 N   0  0  0  0  0  0  0  0  0  0  0  0
   45.1940   34.6280   44.8230 C   0  0  0  0  0  0  0  0  0  0  0  0
   44.5430   35.8220   44.7960 N   0  0  0  0  0  0  0  0  0  0  0  0
   45.9180   32.6650   46.0540 C   0  0  0  0  0  0  0  0  0  0  0  0
   46.9150   32.4690   45.3060 O   0  0  0  0  0  0  0  0  0  0  0  0
   44.9760   33.7330   45.9010 N   0  0  0  0  0  0  0  0  0  0  0  0
   45.6840   31.7500   47.1670 C   0  0  0  0  0  0  0  0  0  0  0  0
   45.5630   32.2340   48.4710 C   0  0  0  0  0  0  0  0  0  0  0  0
   45.3420   31.4310   49.5710 C   0  0  0  0  0  0  0  0  0  0  0  0
   45.2350   30.0750   49.3450 C   0  0  0  0  0  0  0  0  0  0  0  0
   45.3530   29.5730   48.0460 C   0  0  0  0  0  0  0  0  0  0  0  0
   45.5700   30.4190   47.0220 N   0  0  0  0  0  0  0  0  0  0  0  0
   44.2420   37.6202   43.7350 H   0  0  0  0  0  0  0  0  0  0  0  0
   45.8166   37.0262   41.8808 H   0  0  0  0  0  0  0  0  0  0  0  0
   47.0015   34.7933   41.9847 H   0  0  0  0  0  0  0  0  0  0  0  0
   44.1786   33.8455   46.5431 H   0  0  0  0  0  0  0  0  0  0  0  0
   45.6489   33.3189   48.6307 H   0  0  0  0  0  0  0  0  0  0  0  0
   45.2551   31.8536   50.5829 H   0  0  0  0  0  0  0  0  0  0  0  0
   45.0569   29.3890   50.1863 H   0  0  0  0  0  0  0  0  0  0  0  0
   45.2689   28.4919   47.8615 H   0  0  0  0  0  0  0  0  0  0  0  0
  1  6  2  0
  2  3  2  0
  2  1  1  0
  3  4  1  0
  4  5  2  0
  5  9  1  0
  6  5  1  0
  7 10  1  0
  8  7  2  0
  9  7  1  0
 10 11  2  0
 11 12  1  0
 13 12  2  0
 14 13  1  0
 15 10  1  0
 15 14  2  0
  1 16  1  0
  2 17  1  0
  3 18  1  0
  9 19  1  0
 11 20  1  0
 12 21  1  0
 13 22  1  0
 14 23  1  0
M  ISO  7  16  14  17  14  18  14  20  14  21  14  22  14  23  14
M  END
>  <minimizedAffinity>  (1) 
-4.7385745

>  <minimizedRMSD>  (1) 
1.22179782

$$$$
