
     RDKit          3D

 21 22  0  0  0  0  0  0  0  0999 V2000
   47.3530   34.7220   42.0670 C   0  0  0  0  0  0  0  0  0  0  0  0
   48.1880   35.5650   41.6890 O   0  0  0  0  0  0  0  0  0  0  0  0
   46.4580   34.7890   43.1870 C   0  0  0  0  0  0  0  0  0  0  0  0
   45.5830   35.8570   43.1000 C   0  0  0  0  0  0  0  0  0  0  0  0
   44.6710   35.9880   44.1680 C   0  0  0  0  0  0  0  0  0  0  0  0
   44.7030   35.0950   45.1790 N   0  0  0  0  0  0  0  0  0  0  0  0
   45.5880   34.0740   45.1990 C   0  0  0  0  0  0  0  0  0  0  0  0
   46.4750   33.9160   44.1960 N   0  0  0  0  0  0  0  0  0  0  0  0
   47.2670   33.5520   41.3040 O   0  0  0  0  0  0  0  0  0  0  0  0
   47.2690   33.6030   39.8950 C   0  0  0  0  0  0  0  0  0  0  0  0
   48.1660   34.1590   39.0170 C   0  0  0  0  0  0  0  0  0  0  0  0
   47.7130   33.9400   37.7340 C   0  0  0  0  0  0  0  0  0  0  0  0
   46.5240   33.2390   37.8930 C   0  0  0  0  0  0  0  0  0  0  0  0
   46.2940   33.0580   39.1810 O   0  0  0  0  0  0  0  0  0  0  0  0
   45.5320   32.7080   36.4950 S   0  0  0  0  0  0  0  0  0  0  0  0
   45.5975   36.5585   42.2529 H   0  0  0  0  0  0  0  0  0  0  0  0
   43.9406   36.8104   44.1766 H   0  0  0  0  0  0  0  0  0  0  0  0
   45.5847   33.3658   46.0407 H   0  0  0  0  0  0  0  0  0  0  0  0
   49.0898   34.6895   39.2911 H   0  0  0  0  0  0  0  0  0  0  0  0
   48.1879   34.2515   36.7920 H   0  0  0  0  0  0  0  0  0  0  0  0
   44.3924   32.0980   36.9491 H   0  0  0  0  0  0  0  0  0  0  0  0
  1  3  1  0
  2  1  2  0
  3  8  1  0
  4  3  2  0
  4  5  1  0
  5  6  2  0
  6  7  1  0
  8  7  2  0
  9  1  1  0
 10  9  1  0
 11 10  2  0
 12 13  2  0
 12 11  1  0
 13 14  1  0
 14 10  1  0
 15 13  1  0
  4 16  1  0
  5 17  1  0
  7 18  1  0
 11 19  1  0
 12 20  1  0
 15 21  1  0
M  ISO  6  16  14  17  14  18  14  19  14  20  14  21  11
M  END
>  <minimizedAffinity>  (1) 
-4.20884228

>  <minimizedRMSD>  (1) 
0.247384578

$$$$
