
     RDKit          3D

 23 24  0  0  0  0  0  0  0  0999 V2000
   47.3400   34.7190   42.0010 C   0  0  0  0  0  0  0  0  0  0  0  0
   48.1740   35.5630   41.6170 O   0  0  0  0  0  0  0  0  0  0  0  0
   46.4600   34.7840   43.1330 C   0  0  0  0  0  0  0  0  0  0  0  0
   45.5820   35.8500   43.0700 C   0  0  0  0  0  0  0  0  0  0  0  0
   44.6770   35.9870   44.1500 C   0  0  0  0  0  0  0  0  0  0  0  0
   44.7270   35.0840   45.1570 N   0  0  0  0  0  0  0  0  0  0  0  0
   45.6080   34.0710   45.1520 C   0  0  0  0  0  0  0  0  0  0  0  0
   46.4720   33.9260   44.1400 N   0  0  0  0  0  0  0  0  0  0  0  0
   47.2370   33.5470   41.2370 O   0  0  0  0  0  0  0  0  0  0  0  0
   47.2280   33.6190   39.8300 C   0  0  0  0  0  0  0  0  0  0  0  0
   48.1640   34.0670   38.9330 C   0  0  0  0  0  0  0  0  0  0  0  0
   47.6440   33.9140   37.6500 C   0  0  0  0  0  0  0  0  0  0  0  0
   46.3970   33.3710   37.8410 C   0  0  0  0  0  0  0  0  0  0  0  0
   46.1740   33.2060   39.1250 O   0  0  0  0  0  0  0  0  0  0  0  0
   45.4540   33.0280   36.7240 C   0  0  0  0  0  0  0  0  0  0  0  0
   45.5864   36.5546   42.2253 H   0  0  0  0  0  0  0  0  0  0  0  0
   43.9480   36.8105   44.1704 H   0  0  0  0  0  0  0  0  0  0  0  0
   45.6199   33.3543   45.9864 H   0  0  0  0  0  0  0  0  0  0  0  0
   49.1538   34.4762   39.1835 H   0  0  0  0  0  0  0  0  0  0  0  0
   48.1255   34.1712   36.6950 H   0  0  0  0  0  0  0  0  0  0  0  0
   44.4987   32.6805   37.1443 H   0  0  0  0  0  0  0  0  0  0  0  0
   45.2792   33.9201   36.1047 H   0  0  0  0  0  0  0  0  0  0  0  0
   45.8932   32.2321   36.1047 H   0  0  0  0  0  0  0  0  0  0  0  0
  1  3  1  0
  2  1  2  0
  3  8  1  0
  4  3  2  0
  4  5  1  0
  5  6  2  0
  7  6  1  0
  8  7  2  0
  9  1  1  0
 10  9  1  0
 11 10  2  0
 12 13  2  0
 12 11  1  0
 13 14  1  0
 14 10  1  0
 15 13  1  0
  4 16  1  0
  5 17  1  0
  7 18  1  0
 11 19  1  0
 12 20  1  0
 15 21  1  0
 15 22  1  0
 15 23  1  0
M  ISO  8  16  14  17  14  18  14  19  14  20  14  21   8  22   8  23   8
M  END
>  <minimizedAffinity>  (1) 
-4.17360783

>  <minimizedRMSD>  (1) 
0.253111124

$$$$
