
     RDKit          3D

 35 37  0  0  0  0  0  0  0  0999 V2000
   44.6570   33.0050   41.1840 Br  0  0  0  0  0  0  0  0  0  0  0  0
   46.3180   33.9150   40.9170 C   0  0  0  0  0  0  0  0  0  0  0  0
   46.8350   34.7100   41.8990 C   0  0  0  0  0  0  0  0  0  0  0  0
   48.0550   35.3870   41.7190 C   0  0  0  0  0  0  0  0  0  0  0  0
   48.6990   35.2170   40.5240 C   0  0  0  0  0  0  0  0  0  0  0  0
   48.1440   34.4080   39.5610 C   0  0  0  0  0  0  0  0  0  0  0  0
   46.9600   33.7400   39.7150 C   0  0  0  0  0  0  0  0  0  0  0  0
   45.6180   34.0570   45.2890 C   0  0  0  0  0  0  0  0  0  0  0  0
   44.7100   35.1120   45.5300 C   0  0  0  0  0  0  0  0  0  0  0  0
   44.5410   36.0350   44.4990 C   0  0  0  0  0  0  0  0  0  0  0  0
   45.2370   35.8790   43.3450 N   0  0  0  0  0  0  0  0  0  0  0  0
   46.1050   34.8510   43.1450 C   0  0  0  0  0  0  0  0  0  0  0  0
   46.2820   33.9460   44.1330 N   0  0  0  0  0  0  0  0  0  0  0  0
   46.4830   32.9290   38.6470 N   0  0  0  0  0  0  0  0  0  0  0  0
   45.5350   33.2890   37.6090 C   0  0  0  0  0  0  0  0  0  0  0  0
   44.8740   32.0020   37.1600 C   0  0  0  0  0  0  0  0  0  0  0  0
   45.8780   31.1760   36.3730 C   0  0  0  0  0  0  0  0  0  0  0  0
   47.2080   31.2630   37.0750 C   0  0  0  0  0  0  0  0  0  0  0  0
   47.0000   31.5550   38.5650 C   0  0  0  0  0  0  0  0  0  0  0  0
   48.4747   36.0280   42.5083 H   0  0  0  0  0  0  0  0  0  0  0  0
   49.6561   35.7251   40.3347 H   0  0  0  0  0  0  0  0  0  0  0  0
   48.6841   34.2908   38.6099 H   0  0  0  0  0  0  0  0  0  0  0  0
   45.7838   33.3051   46.0746 H   0  0  0  0  0  0  0  0  0  0  0  0
   44.1649   35.2006   46.4813 H   0  0  0  0  0  0  0  0  0  0  0  0
   43.8497   36.8820   44.6201 H   0  0  0  0  0  0  0  0  0  0  0  0
   44.7811   33.9835   38.0080 H   0  0  0  0  0  0  0  0  0  0  0  0
   46.0384   33.7900   36.7690 H   0  0  0  0  0  0  0  0  0  0  0  0
   44.5385   31.4336   38.0400 H   0  0  0  0  0  0  0  0  0  0  0  0
   44.0056   32.2330   36.5256 H   0  0  0  0  0  0  0  0  0  0  0  0
   45.9688   31.5737   35.3514 H   0  0  0  0  0  0  0  0  0  0  0  0
   45.5464   30.1289   36.3130 H   0  0  0  0  0  0  0  0  0  0  0  0
   47.7417   30.3077   36.9627 H   0  0  0  0  0  0  0  0  0  0  0  0
   47.7980   32.0767   36.6280 H   0  0  0  0  0  0  0  0  0  0  0  0
   46.2742   30.8485   38.9941 H   0  0  0  0  0  0  0  0  0  0  0  0
   47.9381   31.4461   39.1289 H   0  0  0  0  0  0  0  0  0  0  0  0
  2  1  1  0
  2  3  2  0
  3 12  1  0
  4  3  1  0
  5  4  2  0
  6  7  2  0
  6  5  1  0
  7  2  1  0
  8  9  2  0
 10  9  1  0
 11 10  2  0
 12 11  1  0
 12 13  2  0
 13  8  1  0
 14  7  1  0
 15 14  1  0
 16 15  1  0
 17 18  1  0
 17 16  1  0
 18 19  1  0
 19 14  1  0
  4 20  1  0
  5 21  1  0
  6 22  1  0
  8 23  1  0
  9 24  1  0
 10 25  1  0
 15 26  1  0
 15 27  1  0
 16 28  1  0
 16 29  1  0
 17 30  1  0
 17 31  1  0
 18 32  1  0
 18 33  1  0
 19 34  1  0
 19 35  1  0
M  ISO  8  20  14  21  14  22  14  23  14  24  14  25  14  26  13  27  13
M  ISO  8  28  13  29  13  30  13  31  13  32  13  33  13  34  13  35  13
M  END
>  <minimizedAffinity>  (1) 
-5.36761379

>  <minimizedRMSD>  (1) 
0.873958111

$$$$
