
     RDKit          3D

 37 40  0  0  1  0  0  0  0  0999 V2000
   47.4000   33.8230   39.7250 C   0  0  0  0  0  0  0  0  0  0  0  0
   48.3750   34.5880   39.0970 C   0  0  0  0  0  0  0  0  0  0  0  0
   48.3020   34.3740   37.7280 C   0  0  0  0  0  0  0  0  0  0  0  0
   47.2750   33.4780   37.5940 C   0  0  0  0  0  0  0  0  0  0  0  0
   46.7570   33.1620   38.7630 O   0  0  0  0  0  0  0  0  0  0  0  0
   46.8060   32.9400   36.3060 C   0  0  2  0  0  0  0  0  0  0  0  0
   46.2700   31.5680   36.2350 C   0  0  0  0  0  0  0  0  0  0  0  0
   47.6730   31.7840   35.7650 C   0  0  1  0  0  0  0  0  0  0  0  0
   47.9560   31.8960   34.3560 N   0  0  0  0  0  0  0  0  0  0  0  0
   48.7690   32.9180   34.0280 C   0  0  0  0  0  0  0  0  0  0  0  0
   49.1320   33.1530   32.7020 C   0  0  0  0  0  0  0  0  0  0  0  0
   48.5860   32.2510   31.7990 C   0  0  0  0  0  0  0  0  0  0  0  0
   48.8660   32.3950   30.5820 O   0  0  0  0  0  0  0  0  0  0  0  0
   47.7710   31.2220   32.1150 N   0  0  0  0  0  0  0  0  0  0  0  0
   47.4680   31.0680   33.4360 C   0  0  0  0  0  0  0  0  0  0  0  0
   46.7160   30.1260   33.7730 O   0  0  0  0  0  0  0  0  0  0  0  0
   47.0560   33.6790   41.0820 O   0  0  0  0  0  0  0  0  0  0  0  0
   47.2720   34.7480   41.9750 C   0  0  0  0  0  0  0  0  0  0  0  0
   48.2110   35.5270   41.6680 O   0  0  0  0  0  0  0  0  0  0  0  0
   46.4140   34.8190   43.1040 C   0  0  0  0  0  0  0  0  0  0  0  0
   45.5300   35.8630   43.1000 C   0  0  0  0  0  0  0  0  0  0  0  0
   44.6610   35.9890   44.1760 C   0  0  0  0  0  0  0  0  0  0  0  0
   44.7320   35.0740   45.1760 N   0  0  0  0  0  0  0  0  0  0  0  0
   45.6060   34.0700   45.1460 C   0  0  0  0  0  0  0  0  0  0  0  0
   46.4410   33.9570   44.1010 N   0  0  0  0  0  0  0  0  0  0  0  0
   49.0887   35.2549   39.6028 H   0  0  0  0  0  0  0  0  0  0  0  0
   48.9229   34.8192   36.9366 H   0  0  0  0  0  0  0  0  0  0  0  0
   46.4244   33.9101   35.9547 H   0  0  0  0  0  0  0  0  0  0  0  0
   46.0891   31.0073   37.1639 H   0  0  0  0  0  0  0  0  0  0  0  0
   45.3735   31.1225   35.7791 H   0  0  0  0  0  0  0  0  0  0  0  0
   48.6263   31.2850   35.9935 H   0  0  0  0  0  0  0  0  0  0  0  0
   49.1533   33.5786   34.8191 H   0  0  0  0  0  0  0  0  0  0  0  0
   49.7919   33.9792   32.3988 H   0  0  0  0  0  0  0  0  0  0  0  0
   47.3974   30.5863   31.3959 H   0  0  0  0  0  0  0  0  0  0  0  0
   45.5081   36.5823   42.2681 H   0  0  0  0  0  0  0  0  0  0  0  0
   43.9318   36.8116   44.2169 H   0  0  0  0  0  0  0  0  0  0  0  0
   45.6434   33.3409   45.9688 H   0  0  0  0  0  0  0  0  0  0  0  0
  1 17  1  0
  2  1  2  0
  3  2  1  0
  4  3  2  0
  4  5  1  0
  5  1  1  0
  6  4  1  0
  7  6  1  0
  8  7  1  0
  8  6  1  0
  9  8  1  0
 10  9  1  0
 11 10  2  0
 12 14  1  0
 12 11  1  0
 13 12  2  0
 14 15  1  0
 15 16  2  0
 15  9  1  0
 17 18  1  0
 18 20  1  0
 19 18  2  0
 20 25  1  0
 21 20  2  0
 21 22  1  0
 22 23  2  0
 24 23  1  0
 25 24  2  0
  2 26  1  0
  3 27  1  0
  6 28  1  6
  7 29  1  0
  7 30  1  0
  8 31  1  1
 10 32  1  0
 11 33  1  0
 14 34  1  0
 21 35  1  0
 22 36  1  0
 24 37  1  0
M  ISO  8  26  14  27  14  28  13  29  13  30  13  31  13  32  14  33  14
M  ISO  4  34   9  35  14  36  14  37  14
M  END
>  <minimizedAffinity>  (1) 
-6.19579411

>  <minimizedRMSD>  (1) 
1.82031548

$$$$
