
     RDKit          3D

 37 40  0  0  1  0  0  0  0  0999 V2000
   45.8080   34.7950   42.3700 C   0  0  0  0  0  0  0  0  0  0  0  0
   47.1660   35.0200   42.1590 C   0  0  0  0  0  0  0  0  0  0  0  0
   47.8890   34.2540   43.0570 C   0  0  0  0  0  0  0  0  0  0  0  0
   46.9290   33.5930   43.7800 C   0  0  0  0  0  0  0  0  0  0  0  0
   45.7180   33.9180   43.3710 O   0  0  0  0  0  0  0  0  0  0  0  0
   47.2050   32.6460   44.8660 C   0  0  2  0  0  0  0  0  0  0  0  0
   47.2390   31.1980   44.5900 C   0  0  0  0  0  0  0  0  0  0  0  0
   46.0060   31.7560   45.2330 C   0  0  1  0  0  0  0  0  0  0  0  0
   45.7770   31.4650   46.6570 C   0  0  0  0  0  0  0  0  0  0  0  0
   45.9430   32.4370   47.6240 C   0  0  0  0  0  0  0  0  0  0  0  0
   45.7590   32.2870   48.9820 C   0  0  0  0  0  0  0  0  0  0  0  0
   45.3650   31.0150   49.4070 C   0  0  0  0  0  0  0  0  0  0  0  0
   45.1780   29.9880   48.5040 C   0  0  0  0  0  0  0  0  0  0  0  0
   45.3870   30.2360   47.1550 C   0  0  0  0  0  0  0  0  0  0  0  0
   44.6640   35.3170   41.7310 O   0  0  0  0  0  0  0  0  0  0  0  0
   43.9470   34.5000   40.8270 C   0  0  0  0  0  0  0  0  0  0  0  0
   44.6340   33.8560   39.9960 O   0  0  0  0  0  0  0  0  0  0  0  0
   42.5310   34.5060   40.9690 C   0  0  0  0  0  0  0  0  0  0  0  0
   41.9620   33.2800   41.1800 C   0  0  0  0  0  0  0  0  0  0  0  0
   40.5750   33.2120   41.3270 C   0  0  0  0  0  0  0  0  0  0  0  0
   39.8750   34.3570   41.2550 N   0  0  0  0  0  0  0  0  0  0  0  0
   40.4520   35.5400   41.0490 C   0  0  0  0  0  0  0  0  0  0  0  0
   41.7830   35.5900   40.9090 N   0  0  0  0  0  0  0  0  0  0  0  0
   47.5936   35.6952   41.4032 H   0  0  0  0  0  0  0  0  0  0  0  0
   48.9817   34.1901   43.1658 H   0  0  0  0  0  0  0  0  0  0  0  0
   47.9049   33.3241   45.3762 H   0  0  0  0  0  0  0  0  0  0  0  0
   47.1960   30.8417   43.5502 H   0  0  0  0  0  0  0  0  0  0  0  0
   47.9355   30.3869   44.8489 H   0  0  0  0  0  0  0  0  0  0  0  0
   44.9289   31.7496   45.0097 H   0  0  0  0  0  0  0  0  0  0  0  0
   46.2538   33.4327   47.2749 H   0  0  0  0  0  0  0  0  0  0  0  0
   45.9127   33.1169   49.6874 H   0  0  0  0  0  0  0  0  0  0  0  0
   45.2013   30.8294   50.4788 H   0  0  0  0  0  0  0  0  0  0  0  0
   44.8686   28.9900   48.8480 H   0  0  0  0  0  0  0  0  0  0  0  0
   45.2342   29.4107   46.4440 H   0  0  0  0  0  0  0  0  0  0  0  0
   42.5806   32.3719   41.2325 H   0  0  0  0  0  0  0  0  0  0  0  0
   40.0702   32.2495   41.4967 H   0  0  0  0  0  0  0  0  0  0  0  0
   39.8473   36.4573   40.9950 H   0  0  0  0  0  0  0  0  0  0  0  0
  1  5  1  0
  2  1  2  0
  2  3  1  0
  3  4  2  0
  4  6  1  0
  5  4  1  0
  6  8  1  0
  7  6  1  0
  7  8  1  0
  8  9  1  0
  9 14  1  0
  9 10  2  0
 10 11  1  0
 11 12  2  0
 13 12  1  0
 14 13  2  0
 15  1  1  0
 16 18  1  0
 16 15  1  0
 17 16  2  0
 18 19  2  0
 19 20  1  0
 21 20  2  0
 22 21  1  0
 23 18  1  0
 23 22  2  0
  2 24  1  0
  3 25  1  0
  6 26  1  1
  7 27  1  0
  7 28  1  0
  8 29  1  6
 10 30  1  0
 11 31  1  0
 12 32  1  0
 13 33  1  0
 14 34  1  0
 19 35  1  0
 20 36  1  0
 22 37  1  0
M  ISO  8  24  14  25  14  26  13  27  13  28  13  29  13  30  14  31  14
M  ISO  6  32  14  33  14  34  14  35  14  36  14  37  14
M  END
>  <minimizedAffinity>  (1) 
-5.81166649

>  <minimizedRMSD>  (1) 
9.10632706

$$$$
