
     RDKit          3D

 33 35  0  0  1  0  0  0  0  0999 V2000
   47.7040   32.9140   40.6830 C   0  0  0  0  0  0  0  0  0  0  0  0
   48.9380   32.4630   40.2250 C   0  0  0  0  0  0  0  0  0  0  0  0
   48.9200   32.4380   38.8460 C   0  0  0  0  0  0  0  0  0  0  0  0
   47.6640   32.8780   38.5220 C   0  0  0  0  0  0  0  0  0  0  0  0
   46.9610   33.1530   39.6020 O   0  0  0  0  0  0  0  0  0  0  0  0
   47.1590   33.0320   37.1440 C   0  0  2  0  0  0  0  0  0  0  0  0
   45.7340   33.3410   36.9170 C   0  0  0  0  0  0  0  0  0  0  0  0
   46.1700   31.9230   36.7260 C   0  0  1  0  0  0  0  0  0  0  0  0
   46.4090   31.4140   35.4790 O   0  0  0  0  0  0  0  0  0  0  0  0
   45.2880   30.3960   33.4210 O   0  0  0  0  0  0  0  0  0  0  0  0
   45.0890   31.4970   34.4360 P   0  0  0  0  0  0  0  0  0  0  0  0
   43.6270   31.2700   35.2570 O   0  0  0  0  0  0  0  0  0  0  0  0
   45.0080   32.9620   33.6260 O   0  0  0  0  0  0  0  0  0  0  0  0
   47.2110   33.1220   41.9880 O   0  0  0  0  0  0  0  0  0  0  0  0
   47.0830   34.4460   42.4720 C   0  0  0  0  0  0  0  0  0  0  0  0
   47.7230   35.3400   41.8500 O   0  0  0  0  0  0  0  0  0  0  0  0
   46.2470   34.6160   43.6070 C   0  0  0  0  0  0  0  0  0  0  0  0
   45.3700   35.6630   43.5250 C   0  0  0  0  0  0  0  0  0  0  0  0
   44.5130   35.8920   44.6080 C   0  0  0  0  0  0  0  0  0  0  0  0
   44.6020   35.0680   45.6680 N   0  0  0  0  0  0  0  0  0  0  0  0
   45.4720   34.0540   45.7120 C   0  0  0  0  0  0  0  0  0  0  0  0
   46.2840   33.8440   44.6750 N   0  0  0  0  0  0  0  0  0  0  0  0
   49.7890   32.1736   40.8591 H   0  0  0  0  0  0  0  0  0  0  0  0
   49.7279   32.1347   38.1639 H   0  0  0  0  0  0  0  0  0  0  0  0
   48.0894   33.4835   36.7692 H   0  0  0  0  0  0  0  0  0  0  0  0
   45.0922   33.6010   37.7717 H   0  0  0  0  0  0  0  0  0  0  0  0
   45.2029   34.0670   36.2839 H   0  0  0  0  0  0  0  0  0  0  0  0
   45.7826   30.9659   37.1054 H   0  0  0  0  0  0  0  0  0  0  0  0
   43.7894   31.2952   36.2333 H   0  0  0  0  0  0  0  0  0  0  0  0
   44.9671   33.7009   34.2836 H   0  0  0  0  0  0  0  0  0  0  0  0
   45.3392   36.3065   42.6334 H   0  0  0  0  0  0  0  0  0  0  0  0
   43.7891   36.7201   44.5929 H   0  0  0  0  0  0  0  0  0  0  0  0
   45.5177   33.3993   46.5948 H   0  0  0  0  0  0  0  0  0  0  0  0
  1 14  1  0
  2  1  2  0
  3  2  1  0
  4  3  2  0
  4  5  1  0
  5  1  1  0
  6  4  1  0
  7  6  1  0
  8  7  1  0
  8  6  1  0
  9  8  1  0
 10 11  2  0
 11 12  1  0
 11  9  1  0
 13 11  1  0
 14 15  1  0
 15 17  1  0
 16 15  2  0
 17 22  1  0
 18 17  2  0
 18 19  1  0
 19 20  2  0
 20 21  1  0
 22 21  2  0
  2 23  1  0
  3 24  1  0
  6 25  1  6
  7 26  1  0
  7 27  1  0
  8 28  1  1
 12 29  1  0
 13 30  1  0
 18 31  1  0
 19 32  1  0
 21 33  1  0
M  ISO  8  23  14  24  14  25  13  26  13  27  13  28  13  29   3  30   3
M  ISO  3  31  14  32  14  33  14
M  END
>  <minimizedAffinity>  (1) 
-5.50273228

>  <minimizedRMSD>  (1) 
1.39640939

$$$$
