
     RDKit          3D

 29 31  0  0  1  0  0  0  0  0999 V2000
   47.5100   33.6140   39.4600 C   0  0  0  0  0  0  0  0  0  0  0  0
   48.3200   34.0640   38.4190 C   0  0  0  0  0  0  0  0  0  0  0  0
   47.6150   33.9660   37.2350 C   0  0  0  0  0  0  0  0  0  0  0  0
   46.3990   33.4560   37.6100 C   0  0  0  0  0  0  0  0  0  0  0  0
   46.3550   33.2560   38.9140 O   0  0  0  0  0  0  0  0  0  0  0  0
   45.2900   33.1740   36.6850 C   0  0  2  0  0  0  0  0  0  0  0  0
   44.8900   31.7770   36.4290 C   0  0  0  0  0  0  0  0  0  0  0  0
   45.7370   32.4500   35.3940 C   0  0  1  0  0  0  0  0  0  0  0  0
   45.0780   32.7890   34.1670 N   0  0  0  0  0  0  0  0  0  0  0  0
   47.7500   33.5110   40.8480 O   0  0  0  0  0  0  0  0  0  0  0  0
   47.7180   34.6820   41.6430 C   0  0  0  0  0  0  0  0  0  0  0  0
   48.5070   35.6040   41.3080 O   0  0  0  0  0  0  0  0  0  0  0  0
   46.7950   34.6730   42.7260 C   0  0  0  0  0  0  0  0  0  0  0  0
   45.7890   35.5910   42.6340 C   0  0  0  0  0  0  0  0  0  0  0  0
   44.8450   35.6380   43.6660 C   0  0  0  0  0  0  0  0  0  0  0  0
   44.9870   34.7760   44.6880 N   0  0  0  0  0  0  0  0  0  0  0  0
   45.9790   33.8900   44.7530 C   0  0  0  0  0  0  0  0  0  0  0  0
   46.8750   33.8560   43.7580 N   0  0  0  0  0  0  0  0  0  0  0  0
   49.3501   34.4357   38.5229 H   0  0  0  0  0  0  0  0  0  0  0  0
   47.9521   34.2354   36.2232 H   0  0  0  0  0  0  0  0  0  0  0  0
   44.7224   34.0739   36.9644 H   0  0  0  0  0  0  0  0  0  0  0  0
   45.3194   30.9692   37.0398 H   0  0  0  0  0  0  0  0  0  0  0  0
   43.9222   31.2550   36.3994 H   0  0  0  0  0  0  0  0  0  0  0  0
   46.7026   32.2625   34.9016 H   0  0  0  0  0  0  0  0  0  0  0  0
   44.1810   33.2504   34.3752 H   0  0  0  0  0  0  0  0  0  0  0  0
   45.6744   33.4279   33.6221 H   0  0  0  0  0  0  0  0  0  0  0  0
   45.7223   36.2737   41.7741 H   0  0  0  0  0  0  0  0  0  0  0  0
   44.0132   36.3574   43.6418 H   0  0  0  0  0  0  0  0  0  0  0  0
   46.0609   33.2004   45.6061 H   0  0  0  0  0  0  0  0  0  0  0  0
  1 10  1  0
  2  1  2  0
  3  4  2  0
  3  2  1  0
  4  5  1  0
  5  1  1  0
  6  4  1  0
  7  6  1  0
  8  7  1  0
  8  6  1  0
  9  8  1  0
 10 11  1  0
 11 13  1  0
 12 11  2  0
 13 18  1  0
 14 13  2  0
 14 15  1  0
 15 16  2  0
 16 17  1  0
 18 17  2  0
  2 19  1  0
  3 20  1  0
  6 21  1  6
  7 22  1  0
  7 23  1  0
  8 24  1  6
  9 25  1  0
  9 26  1  0
 14 27  1  0
 15 28  1  0
 17 29  1  0
M  ISO  8  19  14  20  14  21  13  22  13  23  13  24  13  25   5  26   5
M  ISO  3  27  14  28  14  29  14
M  END
>  <minimizedAffinity>  (1) 
-5.15416527

>  <minimizedRMSD>  (1) 
0.715832114

$$$$
