
     RDKit          3D

 34 37  0  0  1  0  0  0  0  0999 V2000
   47.2750   33.6350   39.8150 C   0  0  0  0  0  0  0  0  0  0  0  0
   48.2120   34.1710   38.9300 C   0  0  0  0  0  0  0  0  0  0  0  0
   47.7490   34.0350   37.6470 C   0  0  0  0  0  0  0  0  0  0  0  0
   46.5360   33.4160   37.7910 C   0  0  0  0  0  0  0  0  0  0  0  0
   46.2720   33.1880   39.0620 O   0  0  0  0  0  0  0  0  0  0  0  0
   45.6320   33.0510   36.6830 C   0  0  2  0  0  0  0  0  0  0  0  0
   44.6390   31.9780   36.8800 C   0  0  0  0  0  0  0  0  0  0  0  0
   45.8800   31.6310   36.1300 C   0  0  2  0  0  0  0  0  0  0  0  0
   46.9520   30.7900   36.7690 C   0  0  0  0  0  0  0  0  0  0  0  0
   47.2310   29.4400   36.0550 C   0  0  0  0  0  0  0  0  0  0  0  0
   48.2230   30.5420   36.0540 C   0  0  0  0  0  0  0  0  0  0  0  0
   47.2570   33.5230   41.2230 O   0  0  0  0  0  0  0  0  0  0  0  0
   47.3490   34.7070   41.9960 C   0  0  0  0  0  0  0  0  0  0  0  0
   48.1950   35.5690   41.6280 O   0  0  0  0  0  0  0  0  0  0  0  0
   46.4680   34.7870   43.1110 C   0  0  0  0  0  0  0  0  0  0  0  0
   45.5880   35.8310   43.0800 C   0  0  0  0  0  0  0  0  0  0  0  0
   44.6870   35.9840   44.1310 C   0  0  0  0  0  0  0  0  0  0  0  0
   44.7290   35.0810   45.1420 N   0  0  0  0  0  0  0  0  0  0  0  0
   45.6100   34.0710   45.1290 C   0  0  0  0  0  0  0  0  0  0  0  0
   46.4670   33.9350   44.1190 N   0  0  0  0  0  0  0  0  0  0  0  0
   49.1698   34.6297   39.2167 H   0  0  0  0  0  0  0  0  0  0  0  0
   48.2398   34.3509   36.7146 H   0  0  0  0  0  0  0  0  0  0  0  0
   45.5586   34.0784   36.2968 H   0  0  0  0  0  0  0  0  0  0  0  0
   44.4802   31.5642   37.8868 H   0  0  0  0  0  0  0  0  0  0  0  0
   43.5653   31.8845   36.6602 H   0  0  0  0  0  0  0  0  0  0  0  0
   46.0938   31.1787   35.1503 H   0  0  0  0  0  0  0  0  0  0  0  0
   46.7101   31.1443   37.7819 H   0  0  0  0  0  0  0  0  0  0  0  0
   47.4146   28.5289   36.6433 H   0  0  0  0  0  0  0  0  0  0  0  0
   46.7249   28.8350   35.2883 H   0  0  0  0  0  0  0  0  0  0  0  0
   49.1544   30.4319   36.6288 H   0  0  0  0  0  0  0  0  0  0  0  0
   48.7621   31.0764   35.2579 H   0  0  0  0  0  0  0  0  0  0  0  0
   45.5908   36.5395   42.2386 H   0  0  0  0  0  0  0  0  0  0  0  0
   43.9632   36.8122   44.1408 H   0  0  0  0  0  0  0  0  0  0  0  0
   45.6252   33.3491   45.9588 H   0  0  0  0  0  0  0  0  0  0  0  0
  1 12  1  0
  2  1  2  0
  3  4  2  0
  3  2  1  0
  4  5  1  0
  5  1  1  0
  6  7  1  0
  6  4  1  0
  8  6  1  0
  8  9  1  0
  8  7  1  0
 10  9  1  0
 11 10  1  0
 11  9  1  0
 12 13  1  0
 13 15  1  0
 14 13  2  0
 15 20  1  0
 16 15  2  0
 16 17  1  0
 17 18  2  0
 19 18  1  0
 20 19  2  0
  2 21  1  0
  3 22  1  0
  6 23  1  6
  7 24  1  0
  7 25  1  0
  8 26  1  6
  9 27  1  0
 10 28  1  0
 10 29  1  0
 11 30  1  0
 11 31  1  0
 16 32  1  0
 17 33  1  0
 19 34  1  0
M  ISO  8  21  14  22  14  23  13  24  13  25  13  26  13  27  13  28  13
M  ISO  6  29  13  30  13  31  13  32  14  33  14  34  14
M  END
>  <minimizedAffinity>  (1) 
-4.33123732

>  <minimizedRMSD>  (1) 
0.105909646

$$$$
