
     RDKit          3D

 46 49  0  0  1  0  0  0  0  0999 V2000
   47.3090   33.6870   39.8460 C   0  0  0  0  0  0  0  0  0  0  0  0
   48.2950   34.3470   39.1010 C   0  0  0  0  0  0  0  0  0  0  0  0
   48.0060   34.2070   37.7590 C   0  0  0  0  0  0  0  0  0  0  0  0
   46.8650   33.4720   37.7390 C   0  0  0  0  0  0  0  0  0  0  0  0
   46.4550   33.1650   38.9620 O   0  0  0  0  0  0  0  0  0  0  0  0
   46.1560   33.0600   36.5120 C   0  0  2  0  0  0  0  0  0  0  0  0
   45.7750   31.6660   36.2990 C   0  0  0  0  0  0  0  0  0  0  0  0
   46.9980   32.1330   35.5940 C   0  0  1  0  0  0  0  0  0  0  0  0
   47.9910   32.6300   33.3740 C   0  0  0  0  0  0  0  0  0  0  0  0
   49.1720   32.6060   33.8280 O   0  0  0  0  0  0  0  0  0  0  0  0
   46.8370   32.4490   34.1780 N   0  0  0  0  0  0  0  0  0  0  0  0
   47.1240   33.5210   41.2420 O   0  0  0  0  0  0  0  0  0  0  0  0
   47.2250   34.6620   42.0720 C   0  0  0  0  0  0  0  0  0  0  0  0
   47.9880   35.5760   41.6750 O   0  0  0  0  0  0  0  0  0  0  0  0
   46.4520   34.6430   43.2570 C   0  0  0  0  0  0  0  0  0  0  0  0
   45.4840   35.6120   43.3680 C   0  0  0  0  0  0  0  0  0  0  0  0
   44.6880   35.6520   44.5060 C   0  0  0  0  0  0  0  0  0  0  0  0
   44.9030   34.7360   45.4500 N   0  0  0  0  0  0  0  0  0  0  0  0
   45.8440   33.7940   45.3420 C   0  0  0  0  0  0  0  0  0  0  0  0
   46.6000   33.7790   44.2290 N   0  0  0  0  0  0  0  0  0  0  0  0
   46.0180   32.8400   46.4000 N   0  0  0  0  0  0  0  0  0  0  0  0
   47.0570   31.8430   46.2230 C   0  0  0  0  0  0  0  0  0  0  0  0
   47.4060   31.1150   47.4760 C   0  0  0  0  0  0  0  0  0  0  0  0
   47.0220   31.9090   48.7010 C   0  0  0  0  0  0  0  0  0  0  0  0
   45.5210   32.0690   48.6740 C   0  0  0  0  0  0  0  0  0  0  0  0
   45.1390   32.9610   47.5530 C   0  0  0  0  0  0  0  0  0  0  0  0
   49.1576   34.8878   39.5174 H   0  0  0  0  0  0  0  0  0  0  0  0
   48.5711   34.6010   36.9014 H   0  0  0  0  0  0  0  0  0  0  0  0
   45.5920   34.0018   36.4421 H   0  0  0  0  0  0  0  0  0  0  0  0
   45.8701   30.9478   37.1268 H   0  0  0  0  0  0  0  0  0  0  0  0
   44.8481   31.1783   35.9629 H   0  0  0  0  0  0  0  0  0  0  0  0
   48.0380   31.7809   35.5268 H   0  0  0  0  0  0  0  0  0  0  0  0
   47.8519   32.8007   32.2963 H   0  0  0  0  0  0  0  0  0  0  0  0
   45.8965   32.5394   33.7678 H   0  0  0  0  0  0  0  0  0  0  0  0
   45.3408   36.3487   42.5638 H   0  0  0  0  0  0  0  0  0  0  0  0
   43.9050   36.4156   44.6242 H   0  0  0  0  0  0  0  0  0  0  0  0
   46.7119   31.1095   45.4794 H   0  0  0  0  0  0  0  0  0  0  0  0
   47.9625   32.3756   45.8968 H   0  0  0  0  0  0  0  0  0  0  0  0
   46.8723   30.1533   47.4913 H   0  0  0  0  0  0  0  0  0  0  0  0
   48.4947   30.9583   47.4929 H   0  0  0  0  0  0  0  0  0  0  0  0
   47.3278   31.3710   49.6104 H   0  0  0  0  0  0  0  0  0  0  0  0
   47.5202   32.8897   48.7039 H   0  0  0  0  0  0  0  0  0  0  0  0
   45.0498   31.0846   48.5362 H   0  0  0  0  0  0  0  0  0  0  0  0
   45.1820   32.5082   49.6238 H   0  0  0  0  0  0  0  0  0  0  0  0
   45.1693   34.0016   47.9082 H   0  0  0  0  0  0  0  0  0  0  0  0
   44.1306   32.6648   47.2282 H   0  0  0  0  0  0  0  0  0  0  0  0
  1 12  1  0
  2  1  2  0
  3  2  1  0
  4  3  2  0
  4  5  1  0
  5  1  1  0
  6  4  1  0
  7  6  1  0
  8  7  1  0
  8  6  1  0
  9 10  2  0
  9 11  1  0
 11  8  1  0
 12 13  1  0
 13 15  1  0
 14 13  2  0
 15 16  2  0
 15 20  1  0
 16 17  1  0
 17 18  2  0
 19 18  1  0
 19 21  1  0
 20 19  2  0
 21 26  1  0
 22 21  1  0
 22 23  1  0
 23 24  1  0
 25 24  1  0
 26 25  1  0
  2 27  1  0
  3 28  1  0
  6 29  1  6
  7 30  1  0
  7 31  1  0
  8 32  1  1
  9 33  1  0
 11 34  1  0
 16 35  1  0
 17 36  1  0
 22 37  1  0
 22 38  1  0
 23 39  1  0
 23 40  1  0
 24 41  1  0
 24 42  1  0
 25 43  1  0
 25 44  1  0
 26 45  1  0
 26 46  1  0
M  ISO  8  27  14  28  14  29  13  30  13  31  13  32  13  33   6  35  14
M  ISO  8  36  14  37  13  38  13  39  13  40  13  41  13  42  13  43  13
M  ISO  3  44  13  45  13  46  13
M  END
>  <minimizedAffinity>  (1) 
-6.4589572

>  <minimizedRMSD>  (1) 
0.407568872

$$$$
