
     RDKit          3D

 41 44  0  0  1  0  0  0  0  0999 V2000
   46.9350   33.5240   41.3660 O   0  0  0  0  0  0  0  0  0  0  0  0
   47.1990   33.6900   39.9840 C   0  0  0  0  0  0  0  0  0  0  0  0
   48.2300   34.2930   39.2920 C   0  0  0  0  0  0  0  0  0  0  0  0
   48.0070   34.1770   37.9320 C   0  0  0  0  0  0  0  0  0  0  0  0
   46.8120   33.4890   37.8640 C   0  0  0  0  0  0  0  0  0  0  0  0
   46.3500   33.2090   39.0730 O   0  0  0  0  0  0  0  0  0  0  0  0
   46.1390   33.1150   36.5980 C   0  0  2  0  0  0  0  0  0  0  0  0
   45.7170   31.7300   36.3850 C   0  0  0  0  0  0  0  0  0  0  0  0
   46.9840   32.1450   35.7290 C   0  0  1  0  0  0  0  0  0  0  0  0
   48.0530   32.4700   33.5050 C   0  0  0  0  0  0  0  0  0  0  0  0
   49.2150   32.3230   33.9780 O   0  0  0  0  0  0  0  0  0  0  0  0
   46.8870   32.4630   34.3100 N   0  0  0  0  0  0  0  0  0  0  0  0
   47.0910   34.6430   42.2190 C   0  0  0  0  0  0  0  0  0  0  0  0
   47.8830   35.5450   41.8200 O   0  0  0  0  0  0  0  0  0  0  0  0
   46.3400   34.6280   43.4310 C   0  0  0  0  0  0  0  0  0  0  0  0
   45.3540   35.5610   43.5240 C   0  0  0  0  0  0  0  0  0  0  0  0
   44.5860   35.6050   44.6770 C   0  0  0  0  0  0  0  0  0  0  0  0
   44.8460   34.7300   45.6490 N   0  0  0  0  0  0  0  0  0  0  0  0
   45.8320   33.8060   45.5400 C   0  0  0  0  0  0  0  0  0  0  0  0
   46.5550   33.7860   44.4200 N   0  0  0  0  0  0  0  0  0  0  0  0
   46.0440   32.8920   46.6530 C   0  0  0  0  0  0  0  0  0  0  0  0
   47.1470   32.0710   46.6770 C   0  0  0  0  0  0  0  0  0  0  0  0
   47.4620   31.1690   47.6650 C   0  0  0  0  0  0  0  0  0  0  0  0
   46.5550   31.1250   48.7010 C   0  0  0  0  0  0  0  0  0  0  0  0
   45.3920   31.9010   48.8080 C   0  0  0  0  0  0  0  0  0  0  0  0
   45.2100   32.7620   47.7380 C   0  0  0  0  0  0  0  0  0  0  0  0
   49.0968   34.7900   39.7521 H   0  0  0  0  0  0  0  0  0  0  0  0
   48.6312   34.5443   37.1041 H   0  0  0  0  0  0  0  0  0  0  0  0
   45.6200   34.0788   36.4890 H   0  0  0  0  0  0  0  0  0  0  0  0
   45.7509   31.0200   37.2245 H   0  0  0  0  0  0  0  0  0  0  0  0
   44.7887   31.2704   36.0149 H   0  0  0  0  0  0  0  0  0  0  0  0
   48.0103   31.7497   35.7096 H   0  0  0  0  0  0  0  0  0  0  0  0
   47.9413   32.6097   32.4196 H   0  0  0  0  0  0  0  0  0  0  0  0
   45.9713   32.6825   33.8926 H   0  0  0  0  0  0  0  0  0  0  0  0
   45.1700   36.2665   42.7003 H   0  0  0  0  0  0  0  0  0  0  0  0
   43.7799   36.3453   44.7877 H   0  0  0  0  0  0  0  0  0  0  0  0
   47.8413   32.1429   45.8269 H   0  0  0  0  0  0  0  0  0  0  0  0
   48.3613   30.5364   47.6314 H   0  0  0  0  0  0  0  0  0  0  0  0
   46.7617   30.4176   49.5176 H   0  0  0  0  0  0  0  0  0  0  0  0
   44.6946   31.8330   49.6559 H   0  0  0  0  0  0  0  0  0  0  0  0
   44.3149   33.4010   47.7586 H   0  0  0  0  0  0  0  0  0  0  0  0
  1 13  1  0
  2  1  1  0
  3  2  2  0
  4  3  1  0
  5  4  2  0
  5  6  1  0
  6  2  1  0
  7  5  1  0
  8  7  1  0
  9  8  1  0
  9  7  1  0
 10 11  2  0
 10 12  1  0
 12  9  1  0
 13 15  1  0
 14 13  2  0
 15 16  2  0
 15 20  1  0
 16 17  1  0
 17 18  2  0
 19 18  1  0
 19 21  1  0
 20 19  2  0
 21 22  2  0
 21 26  1  0
 22 23  1  0
 23 24  2  0
 24 25  1  0
 26 25  2  0
  3 27  1  0
  4 28  1  0
  7 29  1  6
  8 30  1  0
  8 31  1  0
  9 32  1  1
 10 33  1  0
 12 34  1  0
 16 35  1  0
 17 36  1  0
 22 37  1  0
 23 38  1  0
 24 39  1  0
 25 40  1  0
 26 41  1  0
M  ISO  8  27  14  28  14  29  13  30  13  31  13  32  13  33   6  35  14
M  ISO  6  36  14  37  14  38  14  39  14  40  14  41  14
M  END
>  <minimizedAffinity>  (1) 
-6.37462044

>  <minimizedRMSD>  (1) 
0.562278569

$$$$
