
     RDKit          3D

 45 48  0  0  1  0  0  0  0  0999 V2000
   47.2340   33.5550   40.9360 O   0  0  0  0  0  0  0  0  0  0  0  0
   47.3750   33.6980   39.5310 C   0  0  0  0  0  0  0  0  0  0  0  0
   48.3110   34.4070   38.7670 C   0  0  0  0  0  0  0  0  0  0  0  0
   48.0130   34.2290   37.4260 C   0  0  0  0  0  0  0  0  0  0  0  0
   46.9180   33.4270   37.4380 C   0  0  0  0  0  0  0  0  0  0  0  0
   46.5410   33.1140   38.6690 O   0  0  0  0  0  0  0  0  0  0  0  0
   46.2150   32.9520   36.2270 C   0  0  2  0  0  0  0  0  0  0  0  0
   45.9540   31.5280   36.0230 C   0  0  0  0  0  0  0  0  0  0  0  0
   47.1130   32.1020   35.2890 C   0  0  1  0  0  0  0  0  0  0  0  0
   48.0040   32.6620   33.0400 C   0  0  0  0  0  0  0  0  0  0  0  0
   49.1930   32.7420   33.4630 O   0  0  0  0  0  0  0  0  0  0  0  0
   46.8900   32.4050   33.8780 N   0  0  0  0  0  0  0  0  0  0  0  0
   47.3780   34.6900   41.7520 C   0  0  0  0  0  0  0  0  0  0  0  0
   48.2620   35.5230   41.3970 O   0  0  0  0  0  0  0  0  0  0  0  0
   46.5220   34.7800   42.8820 C   0  0  0  0  0  0  0  0  0  0  0  0
   45.6670   35.8310   42.9160 C   0  0  0  0  0  0  0  0  0  0  0  0
   44.8030   35.9790   43.9950 C   0  0  0  0  0  0  0  0  0  0  0  0
   44.8580   35.0630   44.9630 N   0  0  0  0  0  0  0  0  0  0  0  0
   45.7120   34.0120   44.9310 C   0  0  0  0  0  0  0  0  0  0  0  0
   46.5080   33.9320   43.8740 N   0  0  0  0  0  0  0  0  0  0  0  0
   45.7390   33.0420   46.0010 N   0  0  0  0  0  0  0  0  0  0  0  0
   46.4420   31.7860   45.7040 C   0  0  0  0  0  0  0  0  0  0  0  0
   46.2440   30.7640   46.7850 C   0  0  0  0  0  0  0  0  0  0  0  0
   45.0980   31.0790   47.6050 N   0  0  0  0  0  0  0  0  0  0  0  0
   45.3940   32.3540   48.2730 C   0  0  0  0  0  0  0  0  0  0  0  0
   45.0670   33.4240   47.2530 C   0  0  0  0  0  0  0  0  0  0  0  0
   49.1437   35.0052   39.1655 H   0  0  0  0  0  0  0  0  0  0  0  0
   48.5411   34.6418   36.5538 H   0  0  0  0  0  0  0  0  0  0  0  0
   45.5676   33.8396   36.1715 H   0  0  0  0  0  0  0  0  0  0  0  0
   46.1328   30.8226   36.8479 H   0  0  0  0  0  0  0  0  0  0  0  0
   45.0665   30.9587   35.7095 H   0  0  0  0  0  0  0  0  0  0  0  0
   48.1777   31.8418   35.1962 H   0  0  0  0  0  0  0  0  0  0  0  0
   47.8245   32.7993   31.9635 H   0  0  0  0  0  0  0  0  0  0  0  0
   45.9339   32.4317   33.4959 H   0  0  0  0  0  0  0  0  0  0  0  0
   45.6568   36.5626   42.0947 H   0  0  0  0  0  0  0  0  0  0  0  0
   44.0986   36.8221   44.0486 H   0  0  0  0  0  0  0  0  0  0  0  0
   46.0590   31.3798   44.7562 H   0  0  0  0  0  0  0  0  0  0  0  0
   47.5177   32.0056   45.6358 H   0  0  0  0  0  0  0  0  0  0  0  0
   46.0923   29.7779   46.3217 H   0  0  0  0  0  0  0  0  0  0  0  0
   47.1378   30.7610   47.4261 H   0  0  0  0  0  0  0  0  0  0  0  0
   44.2567   31.1727   47.0182 H   0  0  0  0  0  0  0  0  0  0  0  0
   44.7691   32.4731   49.1704 H   0  0  0  0  0  0  0  0  0  0  0  0
   46.4412   32.4099   48.6050 H   0  0  0  0  0  0  0  0  0  0  0  0
   45.4370   34.4008   47.5979 H   0  0  0  0  0  0  0  0  0  0  0  0
   43.9801   33.5084   47.1061 H   0  0  0  0  0  0  0  0  0  0  0  0
  1 13  1  0
  2  1  1  0
  3  2  2  0
  4  5  2  0
  4  3  1  0
  5  6  1  0
  6  2  1  0
  7  5  1  0
  8  7  1  0
  9  8  1  0
  9  7  1  0
 10 11  2  0
 10 12  1  0
 12  9  1  0
 13 15  1  0
 14 13  2  0
 15 16  2  0
 15 20  1  0
 16 17  1  0
 17 18  2  0
 19 18  1  0
 19 21  1  0
 20 19  2  0
 21 26  1  0
 22 21  1  0
 22 23  1  0
 23 24  1  0
 24 25  1  0
 26 25  1  0
  3 27  1  0
  4 28  1  0
  7 29  1  6
  8 30  1  0
  8 31  1  0
  9 32  1  1
 10 33  1  0
 12 34  1  0
 16 35  1  0
 17 36  1  0
 22 37  1  0
 22 38  1  0
 23 39  1  0
 23 40  1  0
 24 41  1  0
 25 42  1  0
 25 43  1  0
 26 44  1  0
 26 45  1  0
M  ISO  8  27  14  28  14  29  13  30  13  31  13  32  13  33   6  35  14
M  ISO  8  36  14  37  13  38  13  39  13  40  13  41   5  42  13  43  13
M  ISO  2  44  13  45  13
M  END
>  <minimizedAffinity>  (1) 
-6.30751276

>  <minimizedRMSD>  (1) 
0.243259117

$$$$
