
     RDKit          3D

 33 35  0  0  1  0  0  0  0  0999 V2000
   47.1980   33.6620   39.6380 C   0  0  0  0  0  0  0  0  0  0  0  0
   48.2140   34.2910   38.9030 C   0  0  0  0  0  0  0  0  0  0  0  0
   47.9440   34.1480   37.5590 C   0  0  0  0  0  0  0  0  0  0  0  0
   46.7860   33.4430   37.5280 C   0  0  0  0  0  0  0  0  0  0  0  0
   46.3580   33.1630   38.7460 O   0  0  0  0  0  0  0  0  0  0  0  0
   46.0890   33.0400   36.2880 C   0  0  2  0  0  0  0  0  0  0  0  0
   45.7230   31.6460   36.0500 C   0  0  0  0  0  0  0  0  0  0  0  0
   46.9480   32.1340   35.3650 C   0  0  1  0  0  0  0  0  0  0  0  0
   47.9300   32.6350   33.1350 C   0  0  0  0  0  0  0  0  0  0  0  0
   49.1130   32.5920   33.5800 O   0  0  0  0  0  0  0  0  0  0  0  0
   46.7860   32.4610   33.9520 N   0  0  0  0  0  0  0  0  0  0  0  0
   46.9860   33.5120   41.0320 O   0  0  0  0  0  0  0  0  0  0  0  0
   47.2250   34.6400   41.8670 C   0  0  0  0  0  0  0  0  0  0  0  0
   48.1450   35.4300   41.5040 O   0  0  0  0  0  0  0  0  0  0  0  0
   46.4000   34.7490   43.0170 C   0  0  0  0  0  0  0  0  0  0  0  0
   45.4960   35.7620   43.0090 C   0  0  0  0  0  0  0  0  0  0  0  0
   44.6540   35.9300   44.1040 C   0  0  0  0  0  0  0  0  0  0  0  0
   44.7720   35.0760   45.1270 N   0  0  0  0  0  0  0  0  0  0  0  0
   45.6670   34.0810   45.1210 C   0  0  0  0  0  0  0  0  0  0  0  0
   46.4520   33.9580   44.0560 N   0  0  0  0  0  0  0  0  0  0  0  0
   45.8450   33.1240   46.1970 C   0  0  0  0  0  0  0  0  0  0  0  0
   46.9470   32.8910   46.7500 O   0  0  0  0  0  0  0  0  0  0  0  0
   49.0835   34.8127   39.3294 H   0  0  0  0  0  0  0  0  0  0  0  0
   48.5325   34.5201   36.7074 H   0  0  0  0  0  0  0  0  0  0  0  0
   45.5158   33.9769   36.2278 H   0  0  0  0  0  0  0  0  0  0  0  0
   45.8162   30.9163   36.8678 H   0  0  0  0  0  0  0  0  0  0  0  0
   44.8040   31.1552   35.6971 H   0  0  0  0  0  0  0  0  0  0  0  0
   47.9935   31.7975   35.3037 H   0  0  0  0  0  0  0  0  0  0  0  0
   47.7821   32.8165   32.0602 H   0  0  0  0  0  0  0  0  0  0  0  0
   45.8433   32.5649   33.5503 H   0  0  0  0  0  0  0  0  0  0  0  0
   45.4300   36.4420   42.1469 H   0  0  0  0  0  0  0  0  0  0  0  0
   43.9123   36.7420   44.1278 H   0  0  0  0  0  0  0  0  0  0  0  0
   44.9620   32.5702   46.5486 H   0  0  0  0  0  0  0  0  0  0  0  0
  1 12  1  0
  2  1  2  0
  3  2  1  0
  4  3  2  0
  4  5  1  0
  5  1  1  0
  6  4  1  0
  7  6  1  0
  8  7  1  0
  8  6  1  0
  9 10  2  0
  9 11  1  0
 11  8  1  0
 12 13  1  0
 13 15  1  0
 14 13  2  0
 15 20  1  0
 16 15  2  0
 16 17  1  0
 17 18  2  0
 19 18  1  0
 19 21  1  0
 20 19  2  0
 21 22  2  0
  2 23  1  0
  3 24  1  0
  6 25  1  6
  7 26  1  0
  7 27  1  0
  8 28  1  1
  9 29  1  0
 11 30  1  0
 16 31  1  0
 17 32  1  0
 21 33  1  0
M  ISO  8  23  14  24  14  25  13  26  13  27  13  28  13  29   6  31  14
M  ISO  2  32  14  33   6
M  END
>  <minimizedAffinity>  (1) 
-5.31608963

>  <minimizedRMSD>  (1) 
0.288428247

$$$$
