
     RDKit          3D

 28 29  0  0  1  0  0  0  0  0999 V2000
   45.0200   32.7490   47.5120 C   0  0  1  0  0  0  0  0  0  0  0  0
   46.3110   32.7610   46.7220 C   0  0  1  0  0  0  0  0  0  0  0  0
   46.8590   31.5280   46.5490 O   0  0  0  0  0  0  0  0  0  0  0  0
   46.0500   30.4380   46.7130 C   0  0  0  0  0  0  0  0  0  0  0  0
   45.2420   30.3920   47.9610 C   0  0  2  0  0  0  0  0  0  0  0  0
   45.2430   31.7520   48.6350 C   0  0  1  0  0  0  0  0  0  0  0  0
   44.9270   35.0800   44.2140 C   0  0  0  0  0  0  0  0  0  0  0  0
   45.8950   35.0200   43.1710 C   0  0  0  0  0  0  0  0  0  0  0  0
   47.0000   34.1810   43.3610 C   0  0  0  0  0  0  0  0  0  0  0  0
   47.0880   33.4730   44.5240 N   0  0  0  0  0  0  0  0  0  0  0  0
   46.1460   33.5620   45.4810 C   0  0  0  0  0  0  0  0  0  0  0  0
   45.0700   34.3600   45.3340 N   0  0  0  0  0  0  0  0  0  0  0  0
   43.8590   35.9020   44.0120 O   0  0  0  0  0  0  0  0  0  0  0  0
   44.6940   33.9900   48.0110 O   0  0  0  0  0  0  0  0  0  0  0  0
   45.6540   29.4120   48.8640 O   0  0  0  0  0  0  0  0  0  0  0  0
   46.5300   31.9890   49.1420 O   0  0  0  0  0  0  0  0  0  0  0  0
   44.1733   32.4687   46.8682 H   0  0  0  0  0  0  0  0  0  0  0  0
   47.0768   33.2733   47.3228 H   0  0  0  0  0  0  0  0  0  0  0  0
   45.3530   30.4083   45.8625 H   0  0  0  0  0  0  0  0  0  0  0  0
   46.7316   29.5769   46.7760 H   0  0  0  0  0  0  0  0  0  0  0  0
   44.2215   30.1192   47.6541 H   0  0  0  0  0  0  0  0  0  0  0  0
   44.4930   31.8206   49.4367 H   0  0  0  0  0  0  0  0  0  0  0  0
   45.7790   35.6108   42.2504 H   0  0  0  0  0  0  0  0  0  0  0  0
   47.7796   34.0947   42.5898 H   0  0  0  0  0  0  0  0  0  0  0  0
   43.7851   36.4201   43.1716 H   0  0  0  0  0  0  0  0  0  0  0  0
   44.7018   33.9603   49.0005 H   0  0  0  0  0  0  0  0  0  0  0  0
   45.5173   29.7372   49.7890 H   0  0  0  0  0  0  0  0  0  0  0  0
   46.5010   31.9837   50.1316 H   0  0  0  0  0  0  0  0  0  0  0  0
  1 14  1  0
  1  6  1  0
  2 11  1  0
  2  1  1  0
  3  4  1  0
  3  2  1  0
  4  5  1  0
  5  6  1  0
  5 15  1  0
  6 16  1  0
  7 12  2  0
  8  9  2  0
  8  7  1  0
  9 10  1  0
 10 11  2  0
 12 11  1  0
 13  7  1  0
  1 17  1  6
  2 18  1  1
  4 19  1  0
  4 20  1  0
  5 21  1  6
  6 22  1  1
  8 23  1  0
  9 24  1  0
 13 25  1  0
 14 26  1  0
 15 27  1  0
 16 28  1  0
M  ISO  8  17  13  18  13  19  13  20  13  21  13  22  13  23  14  24  14
M  ISO  4  25   3  26   3  27   3  28   3
M  END
>  <minimizedAffinity>  (1) 
-6.21727324

>  <minimizedRMSD>  (1) 
1.38566148

$$$$
