
     RDKit          3D

 22 24  0  0  0  0  0  0  0  0999 V2000
   44.7870   35.0650   45.5540 C   0  0  0  0  0  0  0  0  0  0  0  0
   44.5000   36.1310   44.6810 C   0  0  0  0  0  0  0  0  0  0  0  0
   45.1180   36.1060   43.4110 C   0  0  0  0  0  0  0  0  0  0  0  0
   45.9400   35.0620   43.1250 N   0  0  0  0  0  0  0  0  0  0  0  0
   46.1870   34.0660   43.9860 C   0  0  0  0  0  0  0  0  0  0  0  0
   45.6090   34.0660   45.2050 N   0  0  0  0  0  0  0  0  0  0  0  0
   47.0590   32.9940   43.6320 N   0  0  0  0  0  0  0  0  0  0  0  0
   46.9330   31.6560   43.6770 C   0  0  0  0  0  0  0  0  0  0  0  0
   48.0840   31.1290   43.2130 N   0  0  0  0  0  0  0  0  0  0  0  0
   48.9240   32.1370   42.8810 C   0  0  0  0  0  0  0  0  0  0  0  0
   50.2200   32.0230   42.3630 C   0  0  0  0  0  0  0  0  0  0  0  0
   50.8240   33.1990   42.1250 N   0  0  0  0  0  0  0  0  0  0  0  0
   50.2280   34.3800   42.3690 C   0  0  0  0  0  0  0  0  0  0  0  0
   48.9790   34.4360   42.8690 N   0  0  0  0  0  0  0  0  0  0  0  0
   48.2690   33.3280   43.1490 C   0  0  0  0  0  0  0  0  0  0  0  0
   44.1900   35.0840   46.7880 O   0  0  0  0  0  0  0  0  0  0  0  0
   43.8242   36.9477   44.9747 H   0  0  0  0  0  0  0  0  0  0  0  0
   44.9397   36.9057   42.6771 H   0  0  0  0  0  0  0  0  0  0  0  0
   46.0539   31.0954   44.0274 H   0  0  0  0  0  0  0  0  0  0  0  0
   50.7020   31.0537   42.1678 H   0  0  0  0  0  0  0  0  0  0  0  0
   50.7690   35.3140   42.1569 H   0  0  0  0  0  0  0  0  0  0  0  0
   44.3641   34.3538   47.4334 H   0  0  0  0  0  0  0  0  0  0  0  0
  1 16  1  0
  2  1  2  0
  3  2  1  0
  4  3  2  0
  4  5  1  0
  5  6  2  0
  6  1  1  0
  7  8  1  0
  7  5  1  0
  9  8  2  0
 10 15  2  0
 10  9  1  0
 11 10  1  0
 12 11  2  0
 12 13  1  0
 13 14  2  0
 14 15  1  0
 15  7  1  0
  2 17  1  0
  3 18  1  0
  8 19  1  0
 11 20  1  0
 13 21  1  0
 16 22  1  0
M  ISO  6  17  14  18  14  19  14  20  14  21  14  22   3
M  END
>  <minimizedAffinity>  (1) 
-5.75203228

>  <minimizedRMSD>  (1) 
5.22452116

$$$$
