
     RDKit          3D

 20 21  0  0  0  0  0  0  0  0999 V2000
   44.8550   35.0840   44.5280 C   0  0  0  0  0  0  0  0  0  0  0  0
   45.7340   35.0470   43.4170 C   0  0  0  0  0  0  0  0  0  0  0  0
   46.8320   34.1660   43.5070 C   0  0  0  0  0  0  0  0  0  0  0  0
   46.9830   33.4180   44.6280 N   0  0  0  0  0  0  0  0  0  0  0  0
   46.1130   33.4960   45.6540 C   0  0  0  0  0  0  0  0  0  0  0  0
   45.0620   34.3210   45.6000 N   0  0  0  0  0  0  0  0  0  0  0  0
   46.2800   32.6830   46.8680 C   0  0  0  0  0  0  0  0  0  0  0  0
   45.2860   32.6100   47.8330 C   0  0  0  0  0  0  0  0  0  0  0  0
   45.4580   31.8500   48.9560 C   0  0  0  0  0  0  0  0  0  0  0  0
   46.6170   31.1290   49.1740 C   0  0  0  0  0  0  0  0  0  0  0  0
   47.6020   31.2170   48.1920 C   0  0  0  0  0  0  0  0  0  0  0  0
   47.3920   31.9760   47.1040 N   0  0  0  0  0  0  0  0  0  0  0  0
   43.7830   35.9330   44.4590 O   0  0  0  0  0  0  0  0  0  0  0  0
   45.5683   35.6741   42.5286 H   0  0  0  0  0  0  0  0  0  0  0  0
   47.5542   34.0870   42.6811 H   0  0  0  0  0  0  0  0  0  0  0  0
   44.3495   33.1697   47.6929 H   0  0  0  0  0  0  0  0  0  0  0  0
   44.6536   31.8112   49.7053 H   0  0  0  0  0  0  0  0  0  0  0  0
   46.7550   30.5165   50.0772 H   0  0  0  0  0  0  0  0  0  0  0  0
   48.5476   30.6671   48.3075 H   0  0  0  0  0  0  0  0  0  0  0  0
   43.6456   36.4924   43.6538 H   0  0  0  0  0  0  0  0  0  0  0  0
  1  6  2  0
  2  3  2  0
  2  1  1  0
  3  4  1  0
  4  5  2  0
  5  7  1  0
  6  5  1  0
  7 12  1  0
  7  8  2  0
  8  9  1  0
  9 10  2  0
 11 10  1  0
 12 11  2  0
 13  1  1  0
  2 14  1  0
  3 15  1  0
  8 16  1  0
  9 17  1  0
 10 18  1  0
 11 19  1  0
 13 20  1  0
M  ISO  7  14  14  15  14  16  14  17  14  18  14  19  14  20   3
M  END
>  <minimizedAffinity>  (1) 
-5.09562445

>  <minimizedRMSD>  (1) 
1.47335804

$$$$
