
     RDKit          3D

 23 24  0  0  0  0  0  0  0  0999 V2000
   44.8700   35.0030   44.6140 C   0  0  0  0  0  0  0  0  0  0  0  0
   45.7620   34.9080   43.5320 C   0  0  0  0  0  0  0  0  0  0  0  0
   46.8470   34.0170   43.6520 C   0  0  0  0  0  0  0  0  0  0  0  0
   46.9700   33.3030   44.8030 N   0  0  0  0  0  0  0  0  0  0  0  0
   46.0910   33.4310   45.8060 C   0  0  0  0  0  0  0  0  0  0  0  0
   45.0560   34.2640   45.7230 N   0  0  0  0  0  0  0  0  0  0  0  0
   46.2680   32.6590   46.9910 N   0  0  0  0  0  0  0  0  0  0  0  0
   45.4130   32.6710   48.1770 C   0  0  0  0  0  0  0  0  0  0  0  0
   45.6400   31.3590   48.8740 C   0  0  0  0  0  0  0  0  0  0  0  0
   46.4280   30.5660   47.8510 C   0  0  0  0  0  0  0  0  0  0  0  0
   47.3090   31.6970   47.3010 C   0  0  0  0  0  0  0  0  0  0  0  0
   43.8250   35.8680   44.4860 O   0  0  0  0  0  0  0  0  0  0  0  0
   45.6179   35.5090   42.6220 H   0  0  0  0  0  0  0  0  0  0  0  0
   47.5756   33.9019   42.8360 H   0  0  0  0  0  0  0  0  0  0  0  0
   45.6896   33.5060   48.8375 H   0  0  0  0  0  0  0  0  0  0  0  0
   44.3550   32.8018   47.9058 H   0  0  0  0  0  0  0  0  0  0  0  0
   46.2186   31.4970   49.7993 H   0  0  0  0  0  0  0  0  0  0  0  0
   44.7078   30.8641   49.1840 H   0  0  0  0  0  0  0  0  0  0  0  0
   47.0242   29.7678   48.3174 H   0  0  0  0  0  0  0  0  0  0  0  0
   45.8271   30.0271   47.1037 H   0  0  0  0  0  0  0  0  0  0  0  0
   47.8663   31.3879   46.4044 H   0  0  0  0  0  0  0  0  0  0  0  0
   48.0998   32.0544   47.9769 H   0  0  0  0  0  0  0  0  0  0  0  0
   43.7186   36.3963   43.6555 H   0  0  0  0  0  0  0  0  0  0  0  0
  1  6  2  0
  2  3  2  0
  2  1  1  0
  3  4  1  0
  4  5  2  0
  5  7  1  0
  6  5  1  0
  7 11  1  0
  7  8  1  0
  8  9  1  0
 10  9  1  0
 11 10  1  0
 12  1  1  0
  2 13  1  0
  3 14  1  0
  8 15  1  0
  8 16  1  0
  9 17  1  0
  9 18  1  0
 10 19  1  0
 10 20  1  0
 11 21  1  0
 11 22  1  0
 12 23  1  0
M  ISO  8  13  14  14  14  15  13  16  13  17  13  18  13  19  13  20  13
M  ISO  3  21  13  22  13  23   3
M  END
>  <minimizedAffinity>  (1) 
-4.72410727

>  <minimizedRMSD>  (1) 
1.29364753

$$$$
