
     RDKit          3D

 13 13  0  0  0  0  0  0  0  0999 V2000
   45.0000   35.5240   44.1990 C   0  0  0  0  0  0  0  0  0  0  0  0
   45.9660   34.9170   43.3820 C   0  0  0  0  0  0  0  0  0  0  0  0
   46.6500   33.7940   43.8990 C   0  0  0  0  0  0  0  0  0  0  0  0
   46.3260   33.3740   45.1570 N   0  0  0  0  0  0  0  0  0  0  0  0
   45.3900   33.9990   45.8910 C   0  0  0  0  0  0  0  0  0  0  0  0
   44.7320   35.0620   45.4210 N   0  0  0  0  0  0  0  0  0  0  0  0
   45.0340   33.5820   47.2000 N   0  0  0  0  0  0  0  0  0  0  0  0
   44.3390   36.6120   43.6990 O   0  0  0  0  0  0  0  0  0  0  0  0
   46.1831   35.3019   42.3746 H   0  0  0  0  0  0  0  0  0  0  0  0
   47.4185   33.2750   43.3073 H   0  0  0  0  0  0  0  0  0  0  0  0
   44.3098   34.0934   47.7243 H   0  0  0  0  0  0  0  0  0  0  0  0
   45.4999   32.7680   47.6257 H   0  0  0  0  0  0  0  0  0  0  0  0
   44.5485   36.9438   42.7901 H   0  0  0  0  0  0  0  0  0  0  0  0
  1  6  2  0
  2  3  2  0
  2  1  1  0
  3  4  1  0
  4  5  2  0
  5  7  1  0
  6  5  1  0
  8  1  1  0
  2  9  1  0
  3 10  1  0
  7 11  1  0
  7 12  1  0
  8 13  1  0
M  ISO  3   9  14  10  14  13   3
M  END
>  <minimizedAffinity>  (1) 
-3.74477696

>  <minimizedRMSD>  (1) 
0.106104843

$$$$
