
     RDKit          3D

 13 13  0  0  0  0  0  0  0  0999 V2000
   44.7560   35.2060   44.1350 C   0  0  0  0  0  0  0  0  0  0  0  0
   45.4960   35.5710   42.9880 C   0  0  0  0  0  0  0  0  0  0  0  0
   46.7230   34.8960   42.7860 C   0  0  0  0  0  0  0  0  0  0  0  0
   47.1120   33.9510   43.6910 N   0  0  0  0  0  0  0  0  0  0  0  0
   46.3600   33.6550   44.7600 C   0  0  0  0  0  0  0  0  0  0  0  0
   45.2000   34.2730   44.9780 N   0  0  0  0  0  0  0  0  0  0  0  0
   46.8170   32.6380   45.7000 C   0  0  0  0  0  0  0  0  0  0  0  0
   46.8870   32.8330   46.9350 O   0  0  0  0  0  0  0  0  0  0  0  0
   43.5690   35.8550   44.3370 O   0  0  0  0  0  0  0  0  0  0  0  0
   45.1368   36.3401   42.2884 H   0  0  0  0  0  0  0  0  0  0  0  0
   47.3527   35.1288   41.9146 H   0  0  0  0  0  0  0  0  0  0  0  0
   47.1138   31.6547   45.3062 H   0  0  0  0  0  0  0  0  0  0  0  0
   43.2654   36.5434   43.6935 H   0  0  0  0  0  0  0  0  0  0  0  0
  1  9  1  0
  1  6  2  0
  2  1  1  0
  3  2  2  0
  3  4  1  0
  4  5  2  0
  5  6  1  0
  5  7  1  0
  7  8  2  0
  2 10  1  0
  3 11  1  0
  7 12  1  0
  9 13  1  0
M  ISO  4  10  14  11  14  12   6  13   3
M  END
>  <minimizedAffinity>  (1) 
-3.64414406

>  <minimizedRMSD>  (1) 
1.53404093

$$$$
