
     RDKit          3D

 37 39  0  0  1  0  0  0  0  0999 V2000
   47.4060   33.0090   44.3930 C   0  0  2  0  0  0  0  0  0  0  0  0
   47.2410   33.2970   42.9570 C   0  0  1  0  0  0  0  0  0  0  0  0
   47.0300   31.9980   42.1370 C   0  0  0  0  0  0  0  0  0  0  0  0
   48.1570   31.2310   42.4610 O   0  0  0  0  0  0  0  0  0  0  0  0
   48.0900   30.7250   43.7430 C   0  0  0  0  0  0  0  0  0  0  0  0
   47.1980   31.5310   44.6670 C   0  0  1  0  0  0  0  0  0  0  0  0
   44.9730   36.1760   42.7780 C   0  0  0  0  0  0  0  0  0  0  0  0
   43.8920   35.7170   41.9810 C   0  0  0  0  0  0  0  0  0  0  0  0
   43.9910   34.3770   41.5230 C   0  0  0  0  0  0  0  0  0  0  0  0
   45.0690   33.6360   41.8580 N   0  0  0  0  0  0  0  0  0  0  0  0
   46.0590   34.1260   42.6160 C   0  0  0  0  0  0  0  0  0  0  0  0
   46.0050   35.4030   43.0750 N   0  0  0  0  0  0  0  0  0  0  0  0
   44.8890   37.4590   43.2220 O   0  0  0  0  0  0  0  0  0  0  0  0
   46.5470   33.7310   45.2330 O   0  0  0  0  0  0  0  0  0  0  0  0
   47.4450   31.2580   45.9750 O   0  0  0  0  0  0  0  0  0  0  0  0
   45.9140   29.0900   46.2790 F   0  0  0  0  0  0  0  0  0  0  0  0
   46.0030   30.1130   47.1800 C   0  0  0  0  0  0  0  0  0  0  0  0
   46.7650   31.2920   47.1290 C   0  0  0  0  0  0  0  0  0  0  0  0
   46.6170   32.1110   48.2120 C   0  0  0  0  0  0  0  0  0  0  0  0
   45.8170   31.8910   49.3060 C   0  0  0  0  0  0  0  0  0  0  0  0
   45.0920   30.7270   49.3090 C   0  0  0  0  0  0  0  0  0  0  0  0
   45.1610   29.8150   48.2610 C   0  0  0  0  0  0  0  0  0  0  0  0
   48.4343   33.3234   44.6250 H   0  0  0  0  0  0  0  0  0  0  0  0
   48.1697   33.8336   42.7131 H   0  0  0  0  0  0  0  0  0  0  0  0
   46.9953   32.2129   41.0588 H   0  0  0  0  0  0  0  0  0  0  0  0
   46.0813   31.4909   42.3668 H   0  0  0  0  0  0  0  0  0  0  0  0
   47.7000   29.6978   43.6916 H   0  0  0  0  0  0  0  0  0  0  0  0
   49.1072   30.7655   44.1597 H   0  0  0  0  0  0  0  0  0  0  0  0
   46.1526   31.2527   44.4680 H   0  0  0  0  0  0  0  0  0  0  0  0
   43.0330   36.3582   41.7341 H   0  0  0  0  0  0  0  0  0  0  0  0
   43.1946   33.9450   40.8992 H   0  0  0  0  0  0  0  0  0  0  0  0
   44.1050   38.0147   42.9843 H   0  0  0  0  0  0  0  0  0  0  0  0
   46.7730   33.5411   46.1780 H   0  0  0  0  0  0  0  0  0  0  0  0
   47.1994   33.0441   48.2073 H   0  0  0  0  0  0  0  0  0  0  0  0
   45.7606   32.6104   50.1362 H   0  0  0  0  0  0  0  0  0  0  0  0
   44.4368   30.5082   50.1651 H   0  0  0  0  0  0  0  0  0  0  0  0
   44.5718   28.8863   48.2797 H   0  0  0  0  0  0  0  0  0  0  0  0
  1  6  1  0
  1 14  1  0
  2  1  1  0
  3  4  1  0
  3  2  1  0
  4  5  1  0
  5  6  1  0
  6 15  1  0
  7 12  2  0
  7 13  1  0
  8  7  1  0
  9 10  1  0
  9  8  2  0
 10 11  2  0
 11  2  1  0
 11 12  1  0
 15 18  1  0
 16 17  1  0
 17 22  2  0
 18 17  1  0
 18 19  2  0
 19 20  1  0
 20 21  2  0
 22 21  1  0
  1 23  1  1
  2 24  1  6
  3 25  1  0
  3 26  1  0
  5 27  1  0
  5 28  1  0
  6 29  1  6
  8 30  1  0
  9 31  1  0
 13 32  1  0
 14 33  1  0
 19 34  1  0
 20 35  1  0
 21 36  1  0
 22 37  1  0
M  ISO  8  23  13  24  13  25  13  26  13  27  13  28  13  29  13  30  14
M  ISO  7  31  14  32   3  33   3  34  14  35  14  36  14  37  14
M  END
>  <minimizedAffinity>  (1) 
-5.44689655

>  <minimizedRMSD>  (1) 
4.00266266

$$$$
