
     RDKit          3D

 52 56  0  0  1  0  0  0  0  0999 V2000
   45.9120   34.4820   43.6720 C   0  0  2  0  0  0  0  0  0  0  0  0
   45.8240   34.6570   42.1980 C   0  0  1  0  0  0  0  0  0  0  0  0
   46.6650   33.6310   41.4370 C   0  0  0  0  0  0  0  0  0  0  0  0
   47.9430   33.7680   41.9840 O   0  0  0  0  0  0  0  0  0  0  0  0
   48.0140   33.2370   43.2550 C   0  0  0  0  0  0  0  0  0  0  0  0
   46.7020   33.1950   43.9760 C   0  0  1  0  0  0  0  0  0  0  0  0
   42.3190   35.3950   41.4320 C   0  0  0  0  0  0  0  0  0  0  0  0
   41.9160   34.3280   40.5760 C   0  0  0  0  0  0  0  0  0  0  0  0
   42.9190   33.3630   40.2910 C   0  0  0  0  0  0  0  0  0  0  0  0
   44.1510   33.5060   40.8280 N   0  0  0  0  0  0  0  0  0  0  0  0
   44.4650   34.5450   41.6330 C   0  0  0  0  0  0  0  0  0  0  0  0
   43.5480   35.4870   41.9330 N   0  0  0  0  0  0  0  0  0  0  0  0
   41.3710   36.3340   41.7210 O   0  0  0  0  0  0  0  0  0  0  0  0
   44.6730   34.3860   44.3040 O   0  0  0  0  0  0  0  0  0  0  0  0
   46.8310   33.1260   45.3450 O   0  0  0  0  0  0  0  0  0  0  0  0
   46.6110   30.4390   45.1430 F   0  0  0  0  0  0  0  0  0  0  0  0
   46.1110   31.1820   46.1510 C   0  0  0  0  0  0  0  0  0  0  0  0
   46.1760   32.5490   46.3370 C   0  0  0  0  0  0  0  0  0  0  0  0
   45.5630   33.0150   47.4880 C   0  0  0  0  0  0  0  0  0  0  0  0
   44.9160   32.2530   48.4300 C   0  0  0  0  0  0  0  0  0  0  0  0
   44.8810   30.9110   48.1970 C   0  0  0  0  0  0  0  0  0  0  0  0
   45.4630   30.3470   47.0770 C   0  0  0  0  0  0  0  0  0  0  0  0
   45.3360   28.8950   46.9800 C   0  0  0  0  0  0  0  0  0  0  0  0
   46.4570   28.1430   47.3480 C   0  0  0  0  0  0  0  0  0  0  0  0
   46.5190   26.7620   47.3200 C   0  0  0  0  0  0  0  0  0  0  0  0
   45.3920   26.0900   46.8970 C   0  0  0  0  0  0  0  0  0  0  0  0
   45.4110   24.7450   46.8550 N   0  0  0  0  0  0  0  0  0  0  0  0
   44.3650   24.0080   46.4600 C   0  0  0  0  0  0  0  0  0  0  0  0
   43.2350   24.7270   46.0880 C   0  0  0  0  0  0  0  0  0  0  0  0
   43.1550   26.1040   46.1090 C   0  0  0  0  0  0  0  0  0  0  0  0
   44.2670   26.8030   46.5260 C   0  0  0  0  0  0  0  0  0  0  0  0
   44.2460   28.1750   46.5690 C   0  0  0  0  0  0  0  0  0  0  0  0
   46.4098   35.3822   44.0618 H   0  0  0  0  0  0  0  0  0  0  0  0
   46.1944   35.6843   42.0662 H   0  0  0  0  0  0  0  0  0  0  0  0
   46.6747   33.8551   40.3601 H   0  0  0  0  0  0  0  0  0  0  0  0
   46.2718   32.6080   41.5315 H   0  0  0  0  0  0  0  0  0  0  0  0
   48.3990   32.2094   43.1787 H   0  0  0  0  0  0  0  0  0  0  0  0
   48.6741   33.8968   43.8372 H   0  0  0  0  0  0  0  0  0  0  0  0
   46.1917   32.2865   43.6235 H   0  0  0  0  0  0  0  0  0  0  0  0
   40.8983   34.2570   40.1646 H   0  0  0  0  0  0  0  0  0  0  0  0
   42.6947   32.5063   39.6385 H   0  0  0  0  0  0  0  0  0  0  0  0
   40.4607   36.2518   41.3405 H   0  0  0  0  0  0  0  0  0  0  0  0
   44.8016   34.3960   45.2856 H   0  0  0  0  0  0  0  0  0  0  0  0
   45.5976   34.1001   47.6649 H   0  0  0  0  0  0  0  0  0  0  0  0
   44.4526   32.7006   49.3216 H   0  0  0  0  0  0  0  0  0  0  0  0
   44.3745   30.2567   48.9218 H   0  0  0  0  0  0  0  0  0  0  0  0
   47.3515   28.6886   47.6830 H   0  0  0  0  0  0  0  0  0  0  0  0
   47.4287   26.2225   47.6223 H   0  0  0  0  0  0  0  0  0  0  0  0
   44.3978   22.9088   46.4318 H   0  0  0  0  0  0  0  0  0  0  0  0
   42.3504   24.1634   45.7566 H   0  0  0  0  0  0  0  0  0  0  0  0
   42.2360   26.6257   45.8036 H   0  0  0  0  0  0  0  0  0  0  0  0
   43.3327   28.7082   46.2664 H   0  0  0  0  0  0  0  0  0  0  0  0
  1  6  1  0
  1 14  1  0
  2  1  1  0
  3  4  1  0
  3  2  1  0
  4  5  1  0
  5  6  1  0
  6 15  1  0
  7 13  1  0
  7 12  2  0
  8  7  1  0
  9  8  2  0
  9 10  1  0
 10 11  2  0
 11 12  1  0
 11  2  1  0
 15 18  1  0
 16 17  1  0
 17 18  2  0
 17 22  1  0
 18 19  1  0
 19 20  2  0
 21 20  1  0
 22 21  2  0
 23 22  1  0
 23 24  2  0
 25 24  1  0
 26 25  2  0
 27 26  1  0
 28 27  2  0
 29 30  2  0
 29 28  1  0
 30 31  1  0
 31 32  2  0
 31 26  1  0
 32 23  1  0
  1 33  1  1
  2 34  1  1
  3 35  1  0
  3 36  1  0
  5 37  1  0
  5 38  1  0
  6 39  1  6
  8 40  1  0
  9 41  1  0
 13 42  1  0
 14 43  1  0
 19 44  1  0
 20 45  1  0
 21 46  1  0
 24 47  1  0
 25 48  1  0
 28 49  1  0
 29 50  1  0
 30 51  1  0
 32 52  1  0
M  ISO  8  33  13  34  13  35  13  36  13  37  13  38  13  39  13  40  14
M  ISO  8  41  14  42   3  43   3  44  14  45  14  46  14  47  14  48  14
M  ISO  4  49  14  50  14  51  14  52  14
M  END
>  <minimizedAffinity>  (1) 
-6.86030436

>  <minimizedRMSD>  (1) 
2.7108252

$$$$
