
     RDKit          3D

 44 47  0  0  1  0  0  0  0  0999 V2000
   47.4820   32.9950   44.4070 C   0  0  2  0  0  0  0  0  0  0  0  0
   47.3660   33.3630   42.9710 C   0  0  1  0  0  0  0  0  0  0  0  0
   47.2850   32.1330   42.0660 C   0  0  0  0  0  0  0  0  0  0  0  0
   48.4130   31.3810   42.4110 O   0  0  0  0  0  0  0  0  0  0  0  0
   48.2640   30.7780   43.6410 C   0  0  0  0  0  0  0  0  0  0  0  0
   47.3070   31.4730   44.5550 C   0  0  1  0  0  0  0  0  0  0  0  0
   45.0290   36.1820   42.8300 C   0  0  0  0  0  0  0  0  0  0  0  0
   43.9870   35.7190   41.9710 C   0  0  0  0  0  0  0  0  0  0  0  0
   44.1460   34.4060   41.4610 C   0  0  0  0  0  0  0  0  0  0  0  0
   45.2400   33.6910   41.8070 N   0  0  0  0  0  0  0  0  0  0  0  0
   46.1930   34.1830   42.6240 C   0  0  0  0  0  0  0  0  0  0  0  0
   46.0830   35.4280   43.1320 N   0  0  0  0  0  0  0  0  0  0  0  0
   44.8910   37.4370   43.3260 O   0  0  0  0  0  0  0  0  0  0  0  0
   46.5380   33.6200   45.2240 O   0  0  0  0  0  0  0  0  0  0  0  0
   47.4940   31.1780   45.8860 O   0  0  0  0  0  0  0  0  0  0  0  0
   46.2750   28.7750   45.7750 F   0  0  0  0  0  0  0  0  0  0  0  0
   46.1460   29.6590   46.7840 C   0  0  0  0  0  0  0  0  0  0  0  0
   46.7330   30.8990   46.9250 C   0  0  0  0  0  0  0  0  0  0  0  0
   46.4180   31.5790   48.0880 C   0  0  0  0  0  0  0  0  0  0  0  0
   45.5940   31.1410   49.0930 C   0  0  0  0  0  0  0  0  0  0  0  0
   45.0400   29.9110   48.9080 C   0  0  0  0  0  0  0  0  0  0  0  0
   45.2920   29.1540   47.7800 C   0  0  0  0  0  0  0  0  0  0  0  0
   44.6420   27.8290   47.6700 C   0  0  0  0  0  0  0  0  0  0  0  0
   44.7050   26.8330   48.5250 C   0  0  0  0  0  0  0  0  0  0  0  0
   44.0150   25.6990   48.2050 C   0  0  0  0  0  0  0  0  0  0  0  0
   43.2880   25.6470   47.0080 C   0  0  0  0  0  0  0  0  0  0  0  0
   43.6460   27.3530   46.3350 S   0  0  0  0  0  0  0  0  0  0  0  0
   48.4771   33.3318   44.7331 H   0  0  0  0  0  0  0  0  0  0  0  0
   48.2814   33.9504   42.8069 H   0  0  0  0  0  0  0  0  0  0  0  0
   47.3196   32.4251   41.0060 H   0  0  0  0  0  0  0  0  0  0  0  0
   46.3475   31.5728   42.1977 H   0  0  0  0  0  0  0  0  0  0  0  0
   47.9028   29.7516   43.4799 H   0  0  0  0  0  0  0  0  0  0  0  0
   49.2486   30.8130   44.1302 H   0  0  0  0  0  0  0  0  0  0  0  0
   46.3054   31.1246   44.2628 H   0  0  0  0  0  0  0  0  0  0  0  0
   43.1156   36.3419   41.7206 H   0  0  0  0  0  0  0  0  0  0  0  0
   43.3879   33.9738   40.7913 H   0  0  0  0  0  0  0  0  0  0  0  0
   44.0979   37.9792   43.0871 H   0  0  0  0  0  0  0  0  0  0  0  0
   46.7703   33.4662   46.1740 H   0  0  0  0  0  0  0  0  0  0  0  0
   46.8745   32.5711   48.2199 H   0  0  0  0  0  0  0  0  0  0  0  0
   45.3936   31.7444   49.9906 H   0  0  0  0  0  0  0  0  0  0  0  0
   44.3703   29.5070   49.6815 H   0  0  0  0  0  0  0  0  0  0  0  0
   45.2867   26.9093   49.4555 H   0  0  0  0  0  0  0  0  0  0  0  0
   44.0297   24.8322   48.8821 H   0  0  0  0  0  0  0  0  0  0  0  0
   42.6799   24.8337   46.5852 H   0  0  0  0  0  0  0  0  0  0  0  0
  1  6  1  0
  1 14  1  0
  2  1  1  0
  3  4  1  0
  3  2  1  0
  4  5  1  0
  5  6  1  0
  6 15  1  0
  7 12  2  0
  7 13  1  0
  8  7  1  0
  9 10  1  0
  9  8  2  0
 10 11  2  0
 11  2  1  0
 11 12  1  0
 15 18  1  0
 16 17  1  0
 17 18  2  0
 17 22  1  0
 18 19  1  0
 19 20  2  0
 21 20  1  0
 22 21  2  0
 23 22  1  0
 23 24  2  0
 25 24  1  0
 26 25  2  0
 27 26  1  0
 27 23  1  0
  1 28  1  1
  2 29  1  6
  3 30  1  0
  3 31  1  0
  5 32  1  0
  5 33  1  0
  6 34  1  6
  8 35  1  0
  9 36  1  0
 13 37  1  0
 14 38  1  0
 19 39  1  0
 20 40  1  0
 21 41  1  0
 24 42  1  0
 25 43  1  0
 26 44  1  0
M  ISO  8  28  13  29  13  30  13  31  13  32  13  33  13  34  13  35  14
M  ISO  8  36  14  37   3  38   3  39  14  40  14  41  14  42  14  43  14
M  ISO  1  44  14
M  END
>  <minimizedAffinity>  (1) 
-5.79021883

>  <minimizedRMSD>  (1) 
0.711277783

$$$$
