
     RDKit          3D

 43 45  0  0  1  0  0  0  0  0999 V2000
   47.5100   32.9770   44.3630 C   0  0  2  0  0  0  0  0  0  0  0  0
   47.3780   33.3600   42.9340 C   0  0  1  0  0  0  0  0  0  0  0  0
   47.2860   32.1390   42.0170 C   0  0  0  0  0  0  0  0  0  0  0  0
   48.4110   31.3750   42.3390 O   0  0  0  0  0  0  0  0  0  0  0  0
   48.2770   30.7600   43.5610 C   0  0  0  0  0  0  0  0  0  0  0  0
   47.3380   31.4520   44.4990 C   0  0  1  0  0  0  0  0  0  0  0  0
   45.0300   36.1670   42.8430 C   0  0  0  0  0  0  0  0  0  0  0  0
   43.9780   35.7160   41.9970 C   0  0  0  0  0  0  0  0  0  0  0  0
   44.1360   34.4120   41.4770 C   0  0  0  0  0  0  0  0  0  0  0  0
   45.2350   33.6960   41.8000 N   0  0  0  0  0  0  0  0  0  0  0  0
   46.1990   34.1810   42.6080 C   0  0  0  0  0  0  0  0  0  0  0  0
   46.0920   35.4210   43.1290 N   0  0  0  0  0  0  0  0  0  0  0  0
   44.8910   37.4220   43.3540 O   0  0  0  0  0  0  0  0  0  0  0  0
   46.5730   33.5910   45.1990 O   0  0  0  0  0  0  0  0  0  0  0  0
   47.5510   31.1440   45.8230 O   0  0  0  0  0  0  0  0  0  0  0  0
   46.0210   28.9350   45.5630 F   0  0  0  0  0  0  0  0  0  0  0  0
   46.0560   29.7270   46.6520 C   0  0  0  0  0  0  0  0  0  0  0  0
   46.8030   30.8650   46.8730 C   0  0  0  0  0  0  0  0  0  0  0  0
   46.6240   31.4600   48.1100 C   0  0  0  0  0  0  0  0  0  0  0  0
   45.7880   31.0240   49.1100 C   0  0  0  0  0  0  0  0  0  0  0  0
   45.0720   29.8910   48.8330 C   0  0  0  0  0  0  0  0  0  0  0  0
   45.1780   29.2090   47.6100 C   0  0  0  0  0  0  0  0  0  0  0  0
   44.3520   28.1030   47.5930 O   0  0  0  0  0  0  0  0  0  0  0  0
   44.1270   25.4970   47.8450 O   0  0  0  0  0  0  0  0  0  0  0  0
   44.8220   26.7170   48.4690 P   0  0  0  0  0  0  0  0  0  0  0  0
   44.2830   26.7480   50.0760 O   0  0  0  0  0  0  0  0  0  0  0  0
   46.4860   26.4310   48.3950 O   0  0  0  0  0  0  0  0  0  0  0  0
   48.5087   33.3127   44.6792 H   0  0  0  0  0  0  0  0  0  0  0  0
   48.2911   33.9502   42.7667 H   0  0  0  0  0  0  0  0  0  0  0  0
   47.3120   32.4434   40.9603 H   0  0  0  0  0  0  0  0  0  0  0  0
   46.3479   31.5815   42.1551 H   0  0  0  0  0  0  0  0  0  0  0  0
   47.9059   29.7381   43.3936 H   0  0  0  0  0  0  0  0  0  0  0  0
   49.2692   30.7820   44.0353 H   0  0  0  0  0  0  0  0  0  0  0  0
   46.3305   31.1097   44.2202 H   0  0  0  0  0  0  0  0  0  0  0  0
   43.1024   36.3397   41.7641 H   0  0  0  0  0  0  0  0  0  0  0  0
   43.3700   33.9830   40.8142 H   0  0  0  0  0  0  0  0  0  0  0  0
   44.0925   37.9623   43.1292 H   0  0  0  0  0  0  0  0  0  0  0  0
   46.8187   33.4300   46.1444 H   0  0  0  0  0  0  0  0  0  0  0  0
   47.2076   32.3702   48.3123 H   0  0  0  0  0  0  0  0  0  0  0  0
   45.7000   31.5517   50.0711 H   0  0  0  0  0  0  0  0  0  0  0  0
   44.3863   29.4991   49.5987 H   0  0  0  0  0  0  0  0  0  0  0  0
   45.0614   26.7032   50.6861 H   0  0  0  0  0  0  0  0  0  0  0  0
   46.8512   26.3682   49.3130 H   0  0  0  0  0  0  0  0  0  0  0  0
  1  6  1  0
  1 14  1  0
  2  1  1  0
  3  4  1  0
  3  2  1  0
  4  5  1  0
  5  6  1  0
  6 15  1  0
  7 12  2  0
  7 13  1  0
  8  7  1  0
  9 10  1  0
  9  8  2  0
 10 11  2  0
 11  2  1  0
 11 12  1  0
 15 18  1  0
 16 17  1  0
 17 18  2  0
 17 22  1  0
 18 19  1  0
 19 20  2  0
 21 20  1  0
 22 21  2  0
 23 22  1  0
 23 25  1  0
 24 25  2  0
 25 26  1  0
 27 25  1  0
  1 28  1  1
  2 29  1  6
  3 30  1  0
  3 31  1  0
  5 32  1  0
  5 33  1  0
  6 34  1  6
  8 35  1  0
  9 36  1  0
 13 37  1  0
 14 38  1  0
 19 39  1  0
 20 40  1  0
 21 41  1  0
 26 42  1  0
 27 43  1  0
M  ISO  8  28  13  29  13  30  13  31  13  32  13  33  13  34  13  35  14
M  ISO  8  36  14  37   3  38   3  39  14  40  14  41  14  42   3  43   3
M  END
>  <minimizedAffinity>  (1) 
-5.6301012

>  <minimizedRMSD>  (1) 
0.812543571

$$$$
