
     RDKit          3D

 40 42  0  0  1  0  0  0  0  0999 V2000
   47.4350   33.0950   44.3420 C   0  0  2  0  0  0  0  0  0  0  0  0
   47.2730   33.4190   42.8990 C   0  0  1  0  0  0  0  0  0  0  0  0
   47.1210   32.1570   42.0460 C   0  0  0  0  0  0  0  0  0  0  0  0
   48.2400   31.3870   42.3720 O   0  0  0  0  0  0  0  0  0  0  0  0
   48.1430   30.8420   43.6340 C   0  0  0  0  0  0  0  0  0  0  0  0
   47.2200   31.5850   44.5530 C   0  0  1  0  0  0  0  0  0  0  0  0
   44.9970   36.2830   42.7540 C   0  0  0  0  0  0  0  0  0  0  0  0
   43.9150   35.8210   41.9420 C   0  0  0  0  0  0  0  0  0  0  0  0
   44.0300   34.4930   41.4640 C   0  0  0  0  0  0  0  0  0  0  0  0
   45.1170   33.7620   41.7930 N   0  0  0  0  0  0  0  0  0  0  0  0
   46.1090   34.2560   42.5670 C   0  0  0  0  0  0  0  0  0  0  0  0
   46.0440   35.5170   43.0450 N   0  0  0  0  0  0  0  0  0  0  0  0
   44.8890   37.5530   43.2120 O   0  0  0  0  0  0  0  0  0  0  0  0
   46.5370   33.7770   45.1720 O   0  0  0  0  0  0  0  0  0  0  0  0
   47.4550   31.3340   45.8850 O   0  0  0  0  0  0  0  0  0  0  0  0
   46.4690   28.8230   45.9940 F   0  0  0  0  0  0  0  0  0  0  0  0
   46.2590   29.7760   46.9250 C   0  0  0  0  0  0  0  0  0  0  0  0
   46.7280   31.0810   46.9530 C   0  0  0  0  0  0  0  0  0  0  0  0
   46.3440   31.8100   48.0640 C   0  0  0  0  0  0  0  0  0  0  0  0
   45.5710   31.3780   49.1070 C   0  0  0  0  0  0  0  0  0  0  0  0
   45.1360   30.0900   49.0350 C   0  0  0  0  0  0  0  0  0  0  0  0
   45.4660   29.2800   47.9610 C   0  0  0  0  0  0  0  0  0  0  0  0
   44.9180   27.8760   48.0050 C   0  0  0  0  0  0  0  0  0  0  0  0
   44.0640   27.6360   46.9790 F   0  0  0  0  0  0  0  0  0  0  0  0
   44.3330   27.6890   49.2350 F   0  0  0  0  0  0  0  0  0  0  0  0
   45.9870   26.9910   47.8680 F   0  0  0  0  0  0  0  0  0  0  0  0
   48.4525   33.4104   44.6165 H   0  0  0  0  0  0  0  0  0  0  0  0
   48.1947   33.9774   42.6783 H   0  0  0  0  0  0  0  0  0  0  0  0
   47.1185   32.4078   40.9750 H   0  0  0  0  0  0  0  0  0  0  0  0
   46.1753   31.6292   42.2388 H   0  0  0  0  0  0  0  0  0  0  0  0
   47.7763   29.8095   43.5370 H   0  0  0  0  0  0  0  0  0  0  0  0
   49.1467   30.8965   44.0808 H   0  0  0  0  0  0  0  0  0  0  0  0
   46.1998   31.2515   44.3124 H   0  0  0  0  0  0  0  0  0  0  0  0
   43.0490   36.4561   41.7039 H   0  0  0  0  0  0  0  0  0  0  0  0
   43.2413   34.0608   40.8306 H   0  0  0  0  0  0  0  0  0  0  0  0
   44.0965   38.0981   42.9775 H   0  0  0  0  0  0  0  0  0  0  0  0
   46.7660   33.6031   46.1193 H   0  0  0  0  0  0  0  0  0  0  0  0
   46.6986   32.8500   48.1145 H   0  0  0  0  0  0  0  0  0  0  0  0
   45.3161   32.0326   49.9535 H   0  0  0  0  0  0  0  0  0  0  0  0
   44.5110   29.6852   49.8446 H   0  0  0  0  0  0  0  0  0  0  0  0
  1  6  1  0
  1 14  1  0
  2  1  1  0
  3  4  1  0
  3  2  1  0
  4  5  1  0
  5  6  1  0
  6 15  1  0
  7 12  2  0
  7 13  1  0
  8  7  1  0
  9 10  1  0
  9  8  2  0
 10 11  2  0
 11  2  1  0
 11 12  1  0
 15 18  1  0
 16 17  1  0
 17 18  2  0
 17 22  1  0
 18 19  1  0
 19 20  2  0
 21 20  1  0
 22 23  1  0
 22 21  2  0
 23 25  1  0
 24 23  1  0
 26 23  1  0
  1 27  1  1
  2 28  1  6
  3 29  1  0
  3 30  1  0
  5 31  1  0
  5 32  1  0
  6 33  1  6
  8 34  1  0
  9 35  1  0
 13 36  1  0
 14 37  1  0
 19 38  1  0
 20 39  1  0
 21 40  1  0
M  ISO  8  27  13  28  13  29  13  30  13  31  13  32  13  33  13  34  14
M  ISO  6  35  14  36   3  37   3  38  14  39  14  40  14
M  END
>  <minimizedAffinity>  (1) 
-5.62291765

>  <minimizedRMSD>  (1) 
0.542795241

$$$$
