
     RDKit          3D

 33 35  0  0  0  0  0  0  0  0999 V2000
   45.6870   31.7410   47.1750 C   0  0  0  0  0  0  0  0  0  0  0  0
   45.7870   32.2000   48.4790 C   0  0  0  0  0  0  0  0  0  0  0  0
   45.5340   31.4040   49.5790 C   0  0  0  0  0  0  0  0  0  0  0  0
   45.1650   30.0860   49.3330 C   0  0  0  0  0  0  0  0  0  0  0  0
   45.0640   29.6250   48.0290 C   0  0  0  0  0  0  0  0  0  0  0  0
   45.3220   30.4470   47.0080 N   0  0  0  0  0  0  0  0  0  0  0  0
   44.8340   36.4930   43.5450 C   0  0  0  0  0  0  0  0  0  0  0  0
   45.8050   36.1850   42.5840 C   0  0  0  0  0  0  0  0  0  0  0  0
   46.5070   34.9940   42.7370 C   0  0  0  0  0  0  0  0  0  0  0  0
   46.2220   34.1860   43.8040 N   0  0  0  0  0  0  0  0  0  0  0  0
   45.2660   34.5360   44.7080 C   0  0  0  0  0  0  0  0  0  0  0  0
   44.5600   35.6900   44.5940 N   0  0  0  0  0  0  0  0  0  0  0  0
   45.9700   32.6340   46.0530 C   0  0  0  0  0  0  0  0  0  0  0  0
   47.0340   32.4570   45.3810 O   0  0  0  0  0  0  0  0  0  0  0  0
   45.0190   33.6560   45.7890 N   0  0  0  0  0  0  0  0  0  0  0  0
   44.6810   28.2560   47.7100 C   0  0  0  0  0  0  0  0  0  0  0  0
   44.2390   27.9790   46.4330 C   0  0  0  0  0  0  0  0  0  0  0  0
   43.8490   26.7080   46.0210 C   0  0  0  0  0  0  0  0  0  0  0  0
   43.9150   25.6930   46.9480 C   0  0  0  0  0  0  0  0  0  0  0  0
   44.3490   25.9160   48.2390 C   0  0  0  0  0  0  0  0  0  0  0  0
   44.7240   27.1970   48.5890 C   0  0  0  0  0  0  0  0  0  0  0  0
   46.0815   33.2467   48.6455 H   0  0  0  0  0  0  0  0  0  0  0  0
   45.6205   31.7950   50.6035 H   0  0  0  0  0  0  0  0  0  0  0  0
   44.9531   29.4086   50.1734 H   0  0  0  0  0  0  0  0  0  0  0  0
   44.2696   37.4313   43.4399 H   0  0  0  0  0  0  0  0  0  0  0  0
   46.0052   36.8603   41.7391 H   0  0  0  0  0  0  0  0  0  0  0  0
   47.2807   34.7056   42.0102 H   0  0  0  0  0  0  0  0  0  0  0  0
   44.1730   33.7539   46.3683 H   0  0  0  0  0  0  0  0  0  0  0  0
   44.1925   28.8024   45.7051 H   0  0  0  0  0  0  0  0  0  0  0  0
   43.5014   26.5220   44.9941 H   0  0  0  0  0  0  0  0  0  0  0  0
   43.6139   24.6772   46.6522 H   0  0  0  0  0  0  0  0  0  0  0  0
   44.3947   25.0947   48.9693 H   0  0  0  0  0  0  0  0  0  0  0  0
   45.0728   27.3803   49.6160 H   0  0  0  0  0  0  0  0  0  0  0  0
  1  2  2  0
  2  3  1  0
  4  3  2  0
  5  4  1  0
  6  1  1  0
  6  5  2  0
  7 12  2  0
  8  9  2  0
  8  7  1  0
  9 10  1  0
 10 11  2  0
 11 15  1  0
 12 11  1  0
 13  1  1  0
 14 13  2  0
 15 13  1  0
 16  5  1  0
 16 21  1  0
 17 16  2  0
 18 17  1  0
 18 19  2  0
 19 20  1  0
 20 21  2  0
  2 22  1  0
  3 23  1  0
  4 24  1  0
  7 25  1  0
  8 26  1  0
  9 27  1  0
 15 28  1  0
 17 29  1  0
 18 30  1  0
 19 31  1  0
 20 32  1  0
 21 33  1  0
M  ISO  8  22  14  23  14  24  14  25  14  26  14  27  14  29  14  30  14
M  ISO  3  31  14  32  14  33  14
M  END
>  <minimizedAffinity>  (1) 
-5.67470694

>  <minimizedRMSD>  (1) 
1.0004431

$$$$
