
     RDKit          3D

 40 42  0  0  1  0  0  0  0  0999 V2000
   47.4410   33.0940   44.3590 C   0  0  2  0  0  0  0  0  0  0  0  0
   47.2970   33.4170   42.9170 C   0  0  1  0  0  0  0  0  0  0  0  0
   47.1610   32.1600   42.0550 C   0  0  0  0  0  0  0  0  0  0  0  0
   48.2760   31.3870   42.3890 O   0  0  0  0  0  0  0  0  0  0  0  0
   48.1600   30.8370   43.6440 C   0  0  0  0  0  0  0  0  0  0  0  0
   47.2430   31.5810   44.5640 C   0  0  1  0  0  0  0  0  0  0  0  0
   45.0030   36.2680   42.7570 C   0  0  0  0  0  0  0  0  0  0  0  0
   43.9290   35.8050   41.9360 C   0  0  0  0  0  0  0  0  0  0  0  0
   44.0530   34.4740   41.4530 C   0  0  0  0  0  0  0  0  0  0  0  0
   45.1410   33.7470   41.7880 N   0  0  0  0  0  0  0  0  0  0  0  0
   46.1230   34.2440   42.5700 C   0  0  0  0  0  0  0  0  0  0  0  0
   46.0530   35.5080   43.0560 N   0  0  0  0  0  0  0  0  0  0  0  0
   44.8920   37.5390   43.2230 O   0  0  0  0  0  0  0  0  0  0  0  0
   46.5280   33.7610   45.1820 O   0  0  0  0  0  0  0  0  0  0  0  0
   47.4760   31.3310   45.8970 O   0  0  0  0  0  0  0  0  0  0  0  0
   46.3940   28.8550   45.9950 F   0  0  0  0  0  0  0  0  0  0  0  0
   46.2250   29.8090   46.9320 C   0  0  0  0  0  0  0  0  0  0  0  0
   46.7370   31.0890   46.9650 C   0  0  0  0  0  0  0  0  0  0  0  0
   46.3870   31.8390   48.0760 C   0  0  0  0  0  0  0  0  0  0  0  0
   45.5940   31.4260   49.1190 C   0  0  0  0  0  0  0  0  0  0  0  0
   45.1150   30.1520   49.0360 C   0  0  0  0  0  0  0  0  0  0  0  0
   45.4060   29.3220   47.9680 C   0  0  0  0  0  0  0  0  0  0  0  0
   44.8040   27.9630   48.0320 C   0  0  0  0  0  0  0  0  0  0  0  0
   48.4501   33.4251   44.6457 H   0  0  0  0  0  0  0  0  0  0  0  0
   48.2202   33.9795   42.7139 H   0  0  0  0  0  0  0  0  0  0  0  0
   47.1725   32.4182   40.9858 H   0  0  0  0  0  0  0  0  0  0  0  0
   46.2142   31.6294   42.2340 H   0  0  0  0  0  0  0  0  0  0  0  0
   47.7798   29.8105   43.5357 H   0  0  0  0  0  0  0  0  0  0  0  0
   49.1610   30.8785   44.0982 H   0  0  0  0  0  0  0  0  0  0  0  0
   46.2262   31.2415   44.3173 H   0  0  0  0  0  0  0  0  0  0  0  0
   43.0624   36.4377   41.6935 H   0  0  0  0  0  0  0  0  0  0  0  0
   43.2707   34.0403   40.8128 H   0  0  0  0  0  0  0  0  0  0  0  0
   44.1010   38.0855   42.9869 H   0  0  0  0  0  0  0  0  0  0  0  0
   46.7561   33.5944   46.1308 H   0  0  0  0  0  0  0  0  0  0  0  0
   46.7822   32.8642   48.1280 H   0  0  0  0  0  0  0  0  0  0  0  0
   45.3597   32.0831   49.9695 H   0  0  0  0  0  0  0  0  0  0  0  0
   44.4754   29.7712   49.8458 H   0  0  0  0  0  0  0  0  0  0  0  0
   44.6737   27.6689   49.0839 H   0  0  0  0  0  0  0  0  0  0  0  0
   43.8254   27.9714   47.5297 H   0  0  0  0  0  0  0  0  0  0  0  0
   45.4678   27.2439   47.5297 H   0  0  0  0  0  0  0  0  0  0  0  0
  1  6  1  0
  1 14  1  0
  2  1  1  0
  3  4  1  0
  3  2  1  0
  4  5  1  0
  5  6  1  0
  6 15  1  0
  7 12  2  0
  7 13  1  0
  8  7  1  0
  9 10  1  0
  9  8  2  0
 10 11  2  0
 11  2  1  0
 11 12  1  0
 15 18  1  0
 16 17  1  0
 17 18  2  0
 17 22  1  0
 18 19  1  0
 19 20  2  0
 21 20  1  0
 22 23  1  0
 22 21  2  0
  1 24  1  1
  2 25  1  6
  3 26  1  0
  3 27  1  0
  5 28  1  0
  5 29  1  0
  6 30  1  6
  8 31  1  0
  9 32  1  0
 13 33  1  0
 14 34  1  0
 19 35  1  0
 20 36  1  0
 21 37  1  0
 23 38  1  0
 23 39  1  0
 23 40  1  0
M  ISO  8  24  13  25  13  26  13  27  13  28  13  29  13  30  13  31  14
M  ISO  8  32  14  33   3  34   3  35  14  36  14  37  14  38   8  39   8
M  ISO  1  40   8
M  END
>  <minimizedAffinity>  (1) 
-5.38633776

>  <minimizedRMSD>  (1) 
0.359972298

$$$$
