
     RDKit          3D

 39 41  0  0  1  0  0  0  0  0999 V2000
   47.4520   33.0810   44.4210 C   0  0  2  0  0  0  0  0  0  0  0  0
   47.3310   33.4200   42.9800 C   0  0  1  0  0  0  0  0  0  0  0  0
   47.2280   32.1730   42.1020 C   0  0  0  0  0  0  0  0  0  0  0  0
   48.3500   31.4160   42.4520 O   0  0  0  0  0  0  0  0  0  0  0  0
   48.2090   30.8420   43.6970 C   0  0  0  0  0  0  0  0  0  0  0  0
   47.2630   31.5640   44.6050 C   0  0  1  0  0  0  0  0  0  0  0  0
   45.0170   36.2540   42.8030 C   0  0  0  0  0  0  0  0  0  0  0  0
   43.9600   35.7850   41.9600 C   0  0  0  0  0  0  0  0  0  0  0  0
   44.1040   34.4600   41.4730 C   0  0  0  0  0  0  0  0  0  0  0  0
   45.1940   33.7410   41.8210 N   0  0  0  0  0  0  0  0  0  0  0  0
   46.1590   34.2420   42.6210 C   0  0  0  0  0  0  0  0  0  0  0  0
   46.0730   35.5010   43.1150 N   0  0  0  0  0  0  0  0  0  0  0  0
   44.8920   37.5220   43.2790 O   0  0  0  0  0  0  0  0  0  0  0  0
   46.5150   33.7300   45.2340 O   0  0  0  0  0  0  0  0  0  0  0  0
   47.4670   31.2990   45.9400 O   0  0  0  0  0  0  0  0  0  0  0  0
   46.3690   28.8330   45.8610 F   0  0  0  0  0  0  0  0  0  0  0  0
   46.1900   29.7240   46.8580 C   0  0  0  0  0  0  0  0  0  0  0  0
   46.7140   30.9960   46.9800 C   0  0  0  0  0  0  0  0  0  0  0  0
   46.3550   31.6720   48.1340 C   0  0  0  0  0  0  0  0  0  0  0  0
   45.5470   31.2040   49.1400 C   0  0  0  0  0  0  0  0  0  0  0  0
   45.0580   29.9460   48.9700 C   0  0  0  0  0  0  0  0  0  0  0  0
   45.3630   29.1870   47.8420 C   0  0  0  0  0  0  0  0  0  0  0  0
   44.7690   27.8330   47.7730 C   0  0  0  0  0  0  0  0  0  0  0  0
   44.6050   27.1560   48.7870 O   0  0  0  0  0  0  0  0  0  0  0  0
   48.4527   33.4171   44.7303 H   0  0  0  0  0  0  0  0  0  0  0  0
   48.2515   33.9948   42.8000 H   0  0  0  0  0  0  0  0  0  0  0  0
   47.2559   32.4426   41.0359 H   0  0  0  0  0  0  0  0  0  0  0  0
   46.2857   31.6263   42.2540 H   0  0  0  0  0  0  0  0  0  0  0  0
   47.8407   29.8142   43.5627 H   0  0  0  0  0  0  0  0  0  0  0  0
   49.1983   30.8826   44.1763 H   0  0  0  0  0  0  0  0  0  0  0  0
   46.2551   31.2176   44.3327 H   0  0  0  0  0  0  0  0  0  0  0  0
   43.0920   36.4111   41.7060 H   0  0  0  0  0  0  0  0  0  0  0  0
   43.3358   34.0224   40.8185 H   0  0  0  0  0  0  0  0  0  0  0  0
   44.1011   38.0660   43.0367 H   0  0  0  0  0  0  0  0  0  0  0  0
   46.7397   33.5744   46.1855 H   0  0  0  0  0  0  0  0  0  0  0  0
   46.7586   32.6879   48.2570 H   0  0  0  0  0  0  0  0  0  0  0  0
   45.3097   31.8083   50.0280 H   0  0  0  0  0  0  0  0  0  0  0  0
   44.4044   29.5166   49.7436 H   0  0  0  0  0  0  0  0  0  0  0  0
   44.4686   27.4245   46.7968 H   0  0  0  0  0  0  0  0  0  0  0  0
  1  6  1  0
  1 14  1  0
  2  1  1  0
  3  4  1  0
  3  2  1  0
  4  5  1  0
  5  6  1  0
  6 15  1  0
  7 12  2  0
  7 13  1  0
  8  7  1  0
  9 10  1  0
  9  8  2  0
 10 11  2  0
 11  2  1  0
 11 12  1  0
 15 18  1  0
 16 17  1  0
 17 18  2  0
 17 22  1  0
 18 19  1  0
 19 20  2  0
 21 20  1  0
 22 21  2  0
 23 22  1  0
 23 24  2  0
  1 25  1  1
  2 26  1  6
  3 27  1  0
  3 28  1  0
  5 29  1  0
  5 30  1  0
  6 31  1  6
  8 32  1  0
  9 33  1  0
 13 34  1  0
 14 35  1  0
 19 36  1  0
 20 37  1  0
 21 38  1  0
 23 39  1  0
M  ISO  8  25  13  26  13  27  13  28  13  29  13  30  13  31  13  32  14
M  ISO  7  33  14  34   3  35   3  36  14  37  14  38  14  39   6
M  END
>  <minimizedAffinity>  (1) 
-5.1882081

>  <minimizedRMSD>  (1) 
0.48905921

$$$$
