
     RDKit          3D

 28 29  0  0  0  0  0  0  0  0999 V2000
   44.5680   36.0300   44.4020 C   0  0  0  0  0  0  0  0  0  0  0  0
   45.3510   35.9100   43.2290 C   0  0  0  0  0  0  0  0  0  0  0  0
   46.2360   34.8270   43.2030 C   0  0  0  0  0  0  0  0  0  0  0  0
   46.2780   33.9930   44.2760 N   0  0  0  0  0  0  0  0  0  0  0  0
   45.5090   34.1520   45.3730 C   0  0  0  0  0  0  0  0  0  0  0  0
   44.6450   35.1770   45.4390 N   0  0  0  0  0  0  0  0  0  0  0  0
   45.5750   33.2470   46.5020 C   0  0  0  0  0  0  0  0  0  0  0  0
   44.9270   33.4230   47.5490 O   0  0  0  0  0  0  0  0  0  0  0  0
   46.3750   32.0770   46.5420 N   0  0  0  0  0  0  0  0  0  0  0  0
   46.1010   31.0670   45.5290 C   0  0  0  0  0  0  0  0  0  0  0  0
   45.4660   29.8960   46.2460 C   0  0  0  0  0  0  0  0  0  0  0  0
   45.9980   29.7200   47.5200 O   0  0  0  0  0  0  0  0  0  0  0  0
   47.3240   30.1390   47.5740 C   0  0  0  0  0  0  0  0  0  0  0  0
   47.4550   31.6500   47.4110 C   0  0  0  0  0  0  0  0  0  0  0  0
   47.0450   34.7020   41.9960 C   0  0  0  0  0  0  0  0  0  0  0  0
   47.9060   33.6070   42.1240 F   0  0  0  0  0  0  0  0  0  0  0  0
   47.8920   35.8210   41.9740 F   0  0  0  0  0  0  0  0  0  0  0  0
   46.3300   34.5630   40.8640 F   0  0  0  0  0  0  0  0  0  0  0  0
   43.8574   36.8670   44.4692 H   0  0  0  0  0  0  0  0  0  0  0  0
   45.2691   36.6209   42.3936 H   0  0  0  0  0  0  0  0  0  0  0  0
   47.0368   30.7526   45.0438 H   0  0  0  0  0  0  0  0  0  0  0  0
   45.4358   31.4607   44.7464 H   0  0  0  0  0  0  0  0  0  0  0  0
   44.3844   30.0761   46.3335 H   0  0  0  0  0  0  0  0  0  0  0  0
   45.6693   28.9863   45.6619 H   0  0  0  0  0  0  0  0  0  0  0  0
   47.7484   29.8490   48.5465 H   0  0  0  0  0  0  0  0  0  0  0  0
   47.8647   29.6605   46.7441 H   0  0  0  0  0  0  0  0  0  0  0  0
   48.4258   31.8984   46.9574 H   0  0  0  0  0  0  0  0  0  0  0  0
   47.3989   32.1567   48.3857 H   0  0  0  0  0  0  0  0  0  0  0  0
  1  6  2  0
  2  1  1  0
  3  2  2  0
  3  4  1  0
  4  5  2  0
  5  6  1  0
  5  7  1  0
  7  9  1  0
  7  8  2  0
  9 14  1  0
 10 11  1  0
 10  9  1  0
 11 12  1  0
 12 13  1  0
 14 13  1  0
 15 16  1  0
 15  3  1  0
 17 15  1  0
 18 15  1  0
  1 19  1  0
  2 20  1  0
 10 21  1  0
 10 22  1  0
 11 23  1  0
 11 24  1  0
 13 25  1  0
 13 26  1  0
 14 27  1  0
 14 28  1  0
M  ISO  8  19  14  20  14  21  13  22  13  23  13  24  13  25  13  26  13
M  ISO  2  27  13  28  13
M  END
>  <minimizedAffinity>  (1) 
-5.45114279

>  <minimizedRMSD>  (1) 
0.255278051

$$$$
