
     RDKit          3D

 25 26  0  0  0  0  0  0  0  0999 V2000
   44.6130   36.0980   44.2500 C   0  0  0  0  0  0  0  0  0  0  0  0
   45.4480   35.9340   43.1250 C   0  0  0  0  0  0  0  0  0  0  0  0
   46.3130   34.8430   43.1350 C   0  0  0  0  0  0  0  0  0  0  0  0
   46.2880   34.0330   44.2100 N   0  0  0  0  0  0  0  0  0  0  0  0
   45.4800   34.2160   45.2670 C   0  0  0  0  0  0  0  0  0  0  0  0
   44.6310   35.2650   45.2810 N   0  0  0  0  0  0  0  0  0  0  0  0
   47.1540   34.7070   41.9560 C   0  0  0  0  0  0  0  0  0  0  0  0
   47.9920   33.5920   42.1280 F   0  0  0  0  0  0  0  0  0  0  0  0
   48.0040   35.7960   41.9350 F   0  0  0  0  0  0  0  0  0  0  0  0
   46.4620   34.5440   40.7880 F   0  0  0  0  0  0  0  0  0  0  0  0
   45.5180   33.3060   46.4120 C   0  0  0  0  0  0  0  0  0  0  0  0
   44.8830   33.5630   47.4670 O   0  0  0  0  0  0  0  0  0  0  0  0
   47.7750   32.7590   48.0590 F   0  0  0  0  0  0  0  0  0  0  0  0
   47.3650   31.8130   47.1800 C   0  0  0  0  0  0  0  0  0  0  0  0
   46.2770   32.0830   46.3880 C   0  0  0  0  0  0  0  0  0  0  0  0
   45.9060   31.0690   45.5050 C   0  0  0  0  0  0  0  0  0  0  0  0
   46.6050   29.8750   45.4460 C   0  0  0  0  0  0  0  0  0  0  0  0
   47.7000   29.6330   46.2580 C   0  0  0  0  0  0  0  0  0  0  0  0
   48.0910   30.6320   47.1520 C   0  0  0  0  0  0  0  0  0  0  0  0
   43.9192   36.9513   44.2727 H   0  0  0  0  0  0  0  0  0  0  0  0
   45.4172   36.6359   42.2786 H   0  0  0  0  0  0  0  0  0  0  0  0
   45.0411   31.2207   44.8424 H   0  0  0  0  0  0  0  0  0  0  0  0
   46.2821   29.0993   44.7361 H   0  0  0  0  0  0  0  0  0  0  0  0
   48.2468   28.6803   46.2005 H   0  0  0  0  0  0  0  0  0  0  0  0
   48.9542   30.4855   47.8180 H   0  0  0  0  0  0  0  0  0  0  0  0
  1  6  2  0
  2  3  2  0
  2  1  1  0
  3  4  1  0
  4  5  2  0
  5  6  1  0
  5 11  1  0
  7  8  1  0
  7  3  1  0
  9  7  1  0
 10  7  1  0
 11 12  2  0
 14 13  1  0
 15 11  1  0
 15 14  2  0
 16 15  1  0
 17 16  2  0
 17 18  1  0
 18 19  2  0
 19 14  1  0
  1 20  1  0
  2 21  1  0
 16 22  1  0
 17 23  1  0
 18 24  1  0
 19 25  1  0
M  ISO  6  20  14  21  14  22  14  23  14  24  14  25  14
M  END
>  <minimizedAffinity>  (1) 
-5.40757704

>  <minimizedRMSD>  (1) 
0.994850039

$$$$
