
     RDKit          3D

 27 28  0  0  0  0  0  0  0  0999 V2000
   44.5320   36.0860   44.3280 C   0  0  0  0  0  0  0  0  0  0  0  0
   45.3160   35.9080   43.1620 C   0  0  0  0  0  0  0  0  0  0  0  0
   46.2170   34.8400   43.1750 C   0  0  0  0  0  0  0  0  0  0  0  0
   46.2830   34.0600   44.2800 N   0  0  0  0  0  0  0  0  0  0  0  0
   45.5080   34.2730   45.3750 C   0  0  0  0  0  0  0  0  0  0  0  0
   44.6310   35.2870   45.4010 N   0  0  0  0  0  0  0  0  0  0  0  0
   45.6090   33.4200   46.5480 C   0  0  0  0  0  0  0  0  0  0  0  0
   44.7810   33.4510   47.4790 O   0  0  0  0  0  0  0  0  0  0  0  0
   46.6600   32.4750   46.7400 N   0  0  0  0  0  0  0  0  0  0  0  0
   47.1130   31.5830   45.6960 C   0  0  0  0  0  0  0  0  0  0  0  0
   47.2890   30.2130   46.3370 C   0  0  0  0  0  0  0  0  0  0  0  0
   47.1570   30.5450   47.8100 C   0  0  0  0  0  0  0  0  0  0  0  0
   47.5780   32.0170   47.7650 C   0  0  0  0  0  0  0  0  0  0  0  0
   47.0070   34.6780   41.9700 C   0  0  0  0  0  0  0  0  0  0  0  0
   47.8160   33.5440   42.0990 F   0  0  0  0  0  0  0  0  0  0  0  0
   47.9080   35.7560   41.9290 F   0  0  0  0  0  0  0  0  0  0  0  0
   46.2980   34.5720   40.8300 F   0  0  0  0  0  0  0  0  0  0  0  0
   43.8103   36.9157   44.3549 H   0  0  0  0  0  0  0  0  0  0  0  0
   45.2207   36.5750   42.2925 H   0  0  0  0  0  0  0  0  0  0  0  0
   48.0708   31.9353   45.2855 H   0  0  0  0  0  0  0  0  0  0  0  0
   46.3895   31.5427   44.8684 H   0  0  0  0  0  0  0  0  0  0  0  0
   46.5045   29.5140   46.0114 H   0  0  0  0  0  0  0  0  0  0  0  0
   48.2337   29.7145   46.0741 H   0  0  0  0  0  0  0  0  0  0  0  0
   46.1245   30.4225   48.1691 H   0  0  0  0  0  0  0  0  0  0  0  0
   47.7396   29.9079   48.4917 H   0  0  0  0  0  0  0  0  0  0  0  0
   48.6289   32.1379   47.4635 H   0  0  0  0  0  0  0  0  0  0  0  0
   47.5302   32.5558   48.7228 H   0  0  0  0  0  0  0  0  0  0  0  0
  1  6  2  0
  2  3  2  0
  2  1  1  0
  3  4  1  0
  4  5  2  0
  5  6  1  0
  5  7  1  0
  7  9  1  0
  7  8  2  0
  9 13  1  0
 10 11  1  0
 10  9  1  0
 11 12  1  0
 13 12  1  0
 14 15  1  0
 14  3  1  0
 16 14  1  0
 17 14  1  0
  1 18  1  0
  2 19  1  0
 10 20  1  0
 10 21  1  0
 11 22  1  0
 11 23  1  0
 12 24  1  0
 12 25  1  0
 13 26  1  0
 13 27  1  0
M  ISO  8  18  14  19  14  20  13  21  13  22  13  23  13  24  13  25  13
M  ISO  2  26  13  27  13
M  END
>  <minimizedAffinity>  (1) 
-5.31782198

>  <minimizedRMSD>  (1) 
0.295562565

$$$$
