
     RDKit          3D

 41 43  0  0  1  0  0  0  0  0999 V2000
   46.5410   31.8940   47.2240 C   0  0  2  0  0  0  0  0  0  0  0  0
   47.7070   32.2820   48.1160 C   0  0  0  0  0  0  0  0  0  0  0  0
   48.2970   30.9790   48.5440 C   0  0  0  0  0  0  0  0  0  0  0  0
   47.9450   29.7560   47.7630 C   0  0  0  0  0  0  0  0  0  0  0  0
   48.0640   30.2030   46.3220 C   0  0  0  0  0  0  0  0  0  0  0  0
   46.9050   31.0470   46.0810 C   0  0  1  0  0  0  0  0  0  0  0  0
   45.0640   29.9270   48.0650 F   0  0  0  0  0  0  0  0  0  0  0  0
   44.9270   29.5910   46.7710 C   0  0  0  0  0  0  0  0  0  0  0  0
   45.7680   30.1260   45.8180 C   0  0  0  0  0  0  0  0  0  0  0  0
   45.4580   29.6660   44.5400 C   0  0  0  0  0  0  0  0  0  0  0  0
   44.4360   28.7840   44.2510 C   0  0  0  0  0  0  0  0  0  0  0  0
   43.6390   28.2960   45.2680 C   0  0  0  0  0  0  0  0  0  0  0  0
   43.9000   28.7140   46.5430 C   0  0  0  0  0  0  0  0  0  0  0  0
   45.6590   32.9980   46.8780 C   0  0  0  0  0  0  0  0  0  0  0  0
   44.7380   33.3970   47.6610 O   0  0  0  0  0  0  0  0  0  0  0  0
   45.1110   35.2590   44.0650 C   0  0  0  0  0  0  0  0  0  0  0  0
   46.1790   34.9830   43.1800 C   0  0  0  0  0  0  0  0  0  0  0  0
   47.0760   33.9930   43.5900 C   0  0  0  0  0  0  0  0  0  0  0  0
   46.8170   33.4200   44.7720 N   0  0  0  0  0  0  0  0  0  0  0  0
   45.8290   33.6800   45.5870 C   0  0  0  0  0  0  0  0  0  0  0  0
   44.9460   34.6350   45.2160 N   0  0  0  0  0  0  0  0  0  0  0  0
   48.2250   33.7460   42.7310 C   0  0  0  0  0  0  0  0  0  0  0  0
   48.8940   32.6080   43.1520 F   0  0  0  0  0  0  0  0  0  0  0  0
   49.1600   34.7390   43.0810 F   0  0  0  0  0  0  0  0  0  0  0  0
   47.9300   33.7180   41.4280 F   0  0  0  0  0  0  0  0  0  0  0  0
   45.9297   31.2408   47.8641 H   0  0  0  0  0  0  0  0  0  0  0  0
   48.4434   32.8777   47.5568 H   0  0  0  0  0  0  0  0  0  0  0  0
   47.3939   32.9010   48.9697 H   0  0  0  0  0  0  0  0  0  0  0  0
   49.3909   31.0875   48.5050 H   0  0  0  0  0  0  0  0  0  0  0  0
   47.8681   30.7993   49.5409 H   0  0  0  0  0  0  0  0  0  0  0  0
   48.6472   28.9373   47.9789 H   0  0  0  0  0  0  0  0  0  0  0  0
   46.9453   29.3676   48.0073 H   0  0  0  0  0  0  0  0  0  0  0  0
   48.9927   30.7729   46.1716 H   0  0  0  0  0  0  0  0  0  0  0  0
   48.0975   29.3481   45.6306 H   0  0  0  0  0  0  0  0  0  0  0  0
   47.1393   31.7246   45.2468 H   0  0  0  0  0  0  0  0  0  0  0  0
   46.0705   30.0312   43.7025 H   0  0  0  0  0  0  0  0  0  0  0  0
   44.2567   28.4703   43.2120 H   0  0  0  0  0  0  0  0  0  0  0  0
   42.8196   27.5927   45.0584 H   0  0  0  0  0  0  0  0  0  0  0  0
   43.2887   28.3481   47.3811 H   0  0  0  0  0  0  0  0  0  0  0  0
   44.3820   36.0318   43.7799 H   0  0  0  0  0  0  0  0  0  0  0  0
   46.2967   35.5162   42.2251 H   0  0  0  0  0  0  0  0  0  0  0  0
  1  2  1  0
  2  3  1  0
  4  3  1  0
  5  4  1  0
  6  5  1  0
  6  1  1  0
  8  7  1  0
  9  6  1  0
  9  8  2  0
 10  9  1  0
 11 10  2  0
 11 12  1  0
 12 13  2  0
 13  8  1  0
 14  1  1  0
 14 15  2  0
 16 21  2  0
 17 18  2  0
 17 16  1  0
 18 19  1  0
 19 20  2  0
 20 14  1  0
 21 20  1  0
 22 24  1  0
 22 23  1  0
 22 18  1  0
 25 22  1  0
  1 26  1  1
  2 27  1  0
  2 28  1  0
  3 29  1  0
  3 30  1  0
  4 31  1  0
  4 32  1  0
  5 33  1  0
  5 34  1  0
  6 35  1  6
 10 36  1  0
 11 37  1  0
 12 38  1  0
 13 39  1  0
 16 40  1  0
 17 41  1  0
M  ISO  8  26  13  27  13  28  13  29  13  30  13  31  13  32  13  33  13
M  ISO  8  34  13  35  13  36  14  37  14  38  14  39  14  40  14  41  14
M  END
>  <minimizedAffinity>  (1) 
-5.80611134

>  <minimizedRMSD>  (1) 
1.94828069

$$$$
