
     RDKit          3D

 38 39  0  0  1  0  0  0  0  0999 V2000
   46.0030   31.8850   46.0460 C   0  0  2  0  0  0  0  0  0  0  0  0
   45.3540   30.7560   46.7500 C   0  0  0  0  0  0  0  0  0  0  0  0
   45.8650   29.4810   46.1390 C   0  0  0  0  0  0  0  0  0  0  0  0
   46.5770   29.6230   44.8460 C   0  0  0  0  0  0  0  0  0  0  0  0
   47.6350   30.6790   44.8390 C   0  0  0  0  0  0  0  0  0  0  0  0
   47.4190   31.7270   45.9660 C   0  0  2  0  0  0  0  0  0  0  0  0
   48.1510   32.7620   48.5440 N   0  0  0  0  0  0  0  0  0  0  0  0
   47.9720   31.4870   48.4880 C   0  0  0  0  0  0  0  0  0  0  0  0
   47.8300   30.9050   47.1680 N   0  0  0  0  0  0  0  0  0  0  0  0
   47.9140   30.6760   49.6560 N   0  0  0  0  0  0  0  0  0  0  0  0
   48.2650   33.2720   49.4500 H   0  0  0  0  0  0  0  0  0  0  0  0
   45.4360   33.2080   46.3840 C   0  0  0  0  0  0  0  0  0  0  0  0
   45.0190   33.5490   47.5210 O   0  0  0  0  0  0  0  0  0  0  0  0
   44.6200   36.1560   44.4290 C   0  0  0  0  0  0  0  0  0  0  0  0
   45.3650   36.0020   43.2250 C   0  0  0  0  0  0  0  0  0  0  0  0
   46.1260   34.8320   43.1340 C   0  0  0  0  0  0  0  0  0  0  0  0
   46.0820   33.9710   44.1780 N   0  0  0  0  0  0  0  0  0  0  0  0
   45.3830   34.1440   45.2820 C   0  0  0  0  0  0  0  0  0  0  0  0
   44.6310   35.2650   45.4110 N   0  0  0  0  0  0  0  0  0  0  0  0
   46.9190   34.7030   41.9270 C   0  0  0  0  0  0  0  0  0  0  0  0
   47.7290   33.5670   42.0060 F   0  0  0  0  0  0  0  0  0  0  0  0
   47.8250   35.7750   41.9330 F   0  0  0  0  0  0  0  0  0  0  0  0
   46.1930   34.6330   40.7920 F   0  0  0  0  0  0  0  0  0  0  0  0
   45.7235   31.8498   44.9827 H   0  0  0  0  0  0  0  0  0  0  0  0
   45.6075   30.7864   47.8200 H   0  0  0  0  0  0  0  0  0  0  0  0
   44.2602   30.8187   46.6516 H   0  0  0  0  0  0  0  0  0  0  0  0
   46.5581   29.0175   46.8564 H   0  0  0  0  0  0  0  0  0  0  0  0
   44.9724   28.8756   45.9227 H   0  0  0  0  0  0  0  0  0  0  0  0
   47.0503   28.6595   44.6058 H   0  0  0  0  0  0  0  0  0  0  0  0
   45.8242   29.9264   44.1036 H   0  0  0  0  0  0  0  0  0  0  0  0
   48.6152   30.2006   44.9820 H   0  0  0  0  0  0  0  0  0  0  0  0
   47.5852   31.2034   43.8733 H   0  0  0  0  0  0  0  0  0  0  0  0
   47.9281   32.6959   45.8564 H   0  0  0  0  0  0  0  0  0  0  0  0
   48.0149   29.8993   47.0443 H   0  0  0  0  0  0  0  0  0  0  0  0
   47.7694   29.6598   49.5707 H   0  0  0  0  0  0  0  0  0  0  0  0
   48.0166   31.1053   50.5866 H   0  0  0  0  0  0  0  0  0  0  0  0
   44.0045   37.0595   44.5504 H   0  0  0  0  0  0  0  0  0  0  0  0
   45.3434   36.7524   42.4210 H   0  0  0  0  0  0  0  0  0  0  0  0
  1 12  1  0
  1  2  1  0
  3  2  1  0
  4  3  1  0
  5  4  1  0
  5  6  1  0
  6  1  1  0
  6  9  1  0
  7 11  1  0
  8  7  2  0
  8 10  1  0
  9  8  1  0
 12 13  2  0
 14 19  2  0
 15 14  1  0
 16 15  2  0
 16 17  1  0
 17 18  2  0
 18 19  1  0
 18 12  1  0
 20 22  1  0
 20 21  1  0
 20 16  1  0
 23 20  1  0
  1 24  1  6
  2 25  1  0
  2 26  1  0
  3 27  1  0
  3 28  1  0
  4 29  1  0
  4 30  1  0
  5 31  1  0
  5 32  1  0
  6 33  1  6
  9 34  1  0
 10 35  1  0
 10 36  1  0
 14 37  1  0
 15 38  1  0
M  ISO  8  24  13  25  13  26  13  27  13  28  13  29  13  30  13  31  13
M  ISO  4  32  13  33  13  37  14  38  14
M  END
>  <minimizedAffinity>  (1) 
-5.63596916

>  <minimizedRMSD>  (1) 
1.24258649

$$$$
