
     RDKit          3D

 34 35  0  0  1  0  0  0  0  0999 V2000
   45.9850   31.2490   46.2920 C   0  0  2  0  0  0  0  0  0  0  0  0
   45.3390   30.6500   47.5020 C   0  0  0  0  0  0  0  0  0  0  0  0
   44.6970   29.3810   47.0760 C   0  0  0  0  0  0  0  0  0  0  0  0
   44.7080   29.0450   45.6600 C   0  0  0  0  0  0  0  0  0  0  0  0
   45.8970   29.3640   44.8540 C   0  0  0  0  0  0  0  0  0  0  0  0
   46.8450   30.2960   45.6140 C   0  0  2  0  0  0  0  0  0  0  0  0
   47.7790   29.4000   46.3260 C   0  0  0  0  0  0  0  0  0  0  0  0
   49.1030   29.4230   45.9320 F   0  0  0  0  0  0  0  0  0  0  0  0
   47.4120   28.0780   46.4730 F   0  0  0  0  0  0  0  0  0  0  0  0
   47.9700   29.7740   47.6770 F   0  0  0  0  0  0  0  0  0  0  0  0
   46.4980   32.6050   46.5080 C   0  0  0  0  0  0  0  0  0  0  0  0
   47.2510   32.9580   47.4500 O   0  0  0  0  0  0  0  0  0  0  0  0
   44.6740   35.3530   44.9390 C   0  0  0  0  0  0  0  0  0  0  0  0
   45.2470   35.4660   43.6520 C   0  0  0  0  0  0  0  0  0  0  0  0
   46.2840   34.5800   43.3630 C   0  0  0  0  0  0  0  0  0  0  0  0
   46.6090   33.7300   44.3470 N   0  0  0  0  0  0  0  0  0  0  0  0
   46.0840   33.6180   45.5360 C   0  0  0  0  0  0  0  0  0  0  0  0
   45.0730   34.4720   45.8380 N   0  0  0  0  0  0  0  0  0  0  0  0
   46.8790   34.6690   42.0260 C   0  0  0  0  0  0  0  0  0  0  0  0
   47.7220   33.6050   41.8000 F   0  0  0  0  0  0  0  0  0  0  0  0
   47.6790   35.7850   42.0530 F   0  0  0  0  0  0  0  0  0  0  0  0
   45.9320   34.7130   41.0270 F   0  0  0  0  0  0  0  0  0  0  0  0
   45.2037   31.4503   45.5443 H   0  0  0  0  0  0  0  0  0  0  0  0
   46.0974   30.4481   48.2728 H   0  0  0  0  0  0  0  0  0  0  0  0
   44.5952   31.3392   47.9283 H   0  0  0  0  0  0  0  0  0  0  0  0
   45.2051   28.5638   47.6089 H   0  0  0  0  0  0  0  0  0  0  0  0
   43.6323   29.5215   47.3140 H   0  0  0  0  0  0  0  0  0  0  0  0
   44.5525   27.9585   45.5867 H   0  0  0  0  0  0  0  0  0  0  0  0
   43.9237   29.6876   45.2334 H   0  0  0  0  0  0  0  0  0  0  0  0
   45.5785   29.8566   43.9235 H   0  0  0  0  0  0  0  0  0  0  0  0
   46.4305   28.4278   44.6331 H   0  0  0  0  0  0  0  0  0  0  0  0
   47.5350   30.9616   45.0747 H   0  0  0  0  0  0  0  0  0  0  0  0
   43.8528   36.0345   45.2057 H   0  0  0  0  0  0  0  0  0  0  0  0
   44.8955   36.2093   42.9213 H   0  0  0  0  0  0  0  0  0  0  0  0
  1 11  1  0
  1  2  1  0
  3  2  1  0
  4  3  1  0
  5  6  1  0
  5  4  1  0
  6  1  1  0
  6  7  1  0
  7  9  1  0
  7 10  1  0
  8  7  1  0
 11 12  2  0
 13 18  2  0
 14 13  1  0
 15 14  2  0
 15 16  1  0
 16 17  2  0
 17 18  1  0
 17 11  1  0
 19 21  1  0
 19 15  1  0
 20 19  1  0
 22 19  1  0
  1 23  1  6
  2 24  1  0
  2 25  1  0
  3 26  1  0
  3 27  1  0
  4 28  1  0
  4 29  1  0
  5 30  1  0
  5 31  1  0
  6 32  1  6
 13 33  1  0
 14 34  1  0
M  ISO  8  23  13  24  13  25  13  26  13  27  13  28  13  29  13  30  13
M  ISO  4  31  13  32  13  33  14  34  14
M  END
>  <minimizedAffinity>  (1) 
-5.25856256

>  <minimizedRMSD>  (1) 
2.27752185

$$$$
