
     RDKit          3D

 33 34  0  0  1  0  0  0  0  0999 V2000
   42.7670   33.5670   41.4810 C   0  0  2  0  0  0  0  0  0  0  0  0
   43.2840   32.2430   40.9720 C   0  0  0  0  0  0  0  0  0  0  0  0
   42.1950   31.2400   41.1550 C   0  0  0  0  0  0  0  0  0  0  0  0
   40.9970   31.7250   41.8960 C   0  0  0  0  0  0  0  0  0  0  0  0
   40.4060   32.9600   41.2420 C   0  0  0  0  0  0  0  0  0  0  0  0
   41.4570   33.8760   40.8580 C   0  0  2  0  0  0  0  0  0  0  0  0
   41.4780   33.7720   39.3740 C   0  0  0  0  0  0  0  0  0  0  0  0
   41.4080   34.5120   38.4240 O   0  0  0  0  0  0  0  0  0  0  0  0
   43.7360   34.6740   41.4030 C   0  0  0  0  0  0  0  0  0  0  0  0
   43.4640   35.7640   40.8290 O   0  0  0  0  0  0  0  0  0  0  0  0
   46.3240   33.9260   43.8660 C   0  0  0  0  0  0  0  0  0  0  0  0
   47.5290   34.3000   43.2250 C   0  0  0  0  0  0  0  0  0  0  0  0
   47.4110   34.7840   41.9220 C   0  0  0  0  0  0  0  0  0  0  0  0
   46.1700   34.8380   41.4280 N   0  0  0  0  0  0  0  0  0  0  0  0
   45.0500   34.4980   42.0110 C   0  0  0  0  0  0  0  0  0  0  0  0
   45.1360   34.0230   43.2790 N   0  0  0  0  0  0  0  0  0  0  0  0
   48.6490   35.2180   41.2760 C   0  0  0  0  0  0  0  0  0  0  0  0
   48.4590   35.2930   39.9040 F   0  0  0  0  0  0  0  0  0  0  0  0
   49.5510   34.2160   41.5040 F   0  0  0  0  0  0  0  0  0  0  0  0
   49.0890   36.4460   41.7120 F   0  0  0  0  0  0  0  0  0  0  0  0
   42.6107   33.4563   42.5642 H   0  0  0  0  0  0  0  0  0  0  0  0
   44.1735   31.9412   41.5446 H   0  0  0  0  0  0  0  0  0  0  0  0
   43.5692   32.3183   39.9123 H   0  0  0  0  0  0  0  0  0  0  0  0
   41.8668   30.9098   40.1584 H   0  0  0  0  0  0  0  0  0  0  0  0
   42.6250   30.4345   41.7684 H   0  0  0  0  0  0  0  0  0  0  0  0
   40.2379   30.9290   41.9099 H   0  0  0  0  0  0  0  0  0  0  0  0
   41.3047   31.9877   42.9189 H   0  0  0  0  0  0  0  0  0  0  0  0
   39.8401   32.6613   40.3473 H   0  0  0  0  0  0  0  0  0  0  0  0
   39.7394   33.4607   41.9596 H   0  0  0  0  0  0  0  0  0  0  0  0
   41.2652   34.9009   41.2086 H   0  0  0  0  0  0  0  0  0  0  0  0
   41.5885   32.7258   39.0527 H   0  0  0  0  0  0  0  0  0  0  0  0
   46.3730   33.5384   44.8943 H   0  0  0  0  0  0  0  0  0  0  0  0
   48.5043   34.2138   43.7263 H   0  0  0  0  0  0  0  0  0  0  0  0
  2  3  1  0
  2  1  1  0
  3  4  1  0
  5  4  1  0
  6  5  1  0
  6  1  1  0
  7  6  1  0
  8  7  2  0
  9  1  1  0
  9 15  1  0
 10  9  2  0
 12 11  2  0
 13 12  1  0
 14 13  2  0
 14 15  1  0
 15 16  2  0
 16 11  1  0
 17 19  1  0
 17 20  1  0
 17 13  1  0
 18 17  1  0
  1 21  1  1
  2 22  1  0
  2 23  1  0
  3 24  1  0
  3 25  1  0
  4 26  1  0
  4 27  1  0
  5 28  1  0
  5 29  1  0
  6 30  1  6
  7 31  1  0
 11 32  1  0
 12 33  1  0
M  ISO  8  21  13  22  13  23  13  24  13  25  13  26  13  27  13  28  13
M  ISO  5  29  13  30  13  31   6  32  14  33  14
M  END
>  <minimizedAffinity>  (1) 
-5.09623289

>  <minimizedRMSD>  (1) 
5.88421106

$$$$
