
     RDKit          3D

 37 38  0  0  1  0  0  0  0  0999 V2000
   45.9320   31.2090   46.3030 C   0  0  2  0  0  0  0  0  0  0  0  0
   45.3810   30.6000   47.5160 C   0  0  0  0  0  0  0  0  0  0  0  0
   44.6910   29.3590   47.1050 C   0  0  0  0  0  0  0  0  0  0  0  0
   44.6850   29.0020   45.6810 C   0  0  0  0  0  0  0  0  0  0  0  0
   45.8820   29.2940   44.8520 C   0  0  0  0  0  0  0  0  0  0  0  0
   46.8220   30.2710   45.5750 C   0  0  2  0  0  0  0  0  0  0  0  0
   46.4670   32.5750   46.4880 C   0  0  0  0  0  0  0  0  0  0  0  0
   47.2610   32.9100   47.4170 O   0  0  0  0  0  0  0  0  0  0  0  0
   44.6650   35.3820   44.9960 C   0  0  0  0  0  0  0  0  0  0  0  0
   45.2180   35.4910   43.7000 C   0  0  0  0  0  0  0  0  0  0  0  0
   46.2190   34.5910   43.3750 C   0  0  0  0  0  0  0  0  0  0  0  0
   46.5470   33.7160   44.3390 N   0  0  0  0  0  0  0  0  0  0  0  0
   46.0490   33.5980   45.5350 C   0  0  0  0  0  0  0  0  0  0  0  0
   45.0680   34.4710   45.8720 N   0  0  0  0  0  0  0  0  0  0  0  0
   46.7620   34.6640   42.0190 C   0  0  0  0  0  0  0  0  0  0  0  0
   47.4960   33.5250   41.7340 F   0  0  0  0  0  0  0  0  0  0  0  0
   47.6220   35.7260   42.0220 F   0  0  0  0  0  0  0  0  0  0  0  0
   45.7840   34.7710   41.0550 F   0  0  0  0  0  0  0  0  0  0  0  0
   47.8620   29.4970   46.2460 C   0  0  0  0  0  0  0  0  0  0  0  0
   49.1820   29.1680   45.7080 C   0  0  0  0  0  0  0  0  0  0  0  0
   45.0806   31.3894   45.6303 H   0  0  0  0  0  0  0  0  0  0  0  0
   46.1914   30.3650   48.2217 H   0  0  0  0  0  0  0  0  0  0  0  0
   44.6839   31.2877   48.0172 H   0  0  0  0  0  0  0  0  0  0  0  0
   45.1665   28.5280   47.6466 H   0  0  0  0  0  0  0  0  0  0  0  0
   43.6332   29.5471   47.3409 H   0  0  0  0  0  0  0  0  0  0  0  0
   44.5118   27.9173   45.6232 H   0  0  0  0  0  0  0  0  0  0  0  0
   43.9078   29.6525   45.2534 H   0  0  0  0  0  0  0  0  0  0  0  0
   45.5607   29.7409   43.8996 H   0  0  0  0  0  0  0  0  0  0  0  0
   46.4230   28.3535   44.6707 H   0  0  0  0  0  0  0  0  0  0  0  0
   47.4500   30.9428   44.9714 H   0  0  0  0  0  0  0  0  0  0  0  0
   43.8681   36.0809   45.2902 H   0  0  0  0  0  0  0  0  0  0  0  0
   44.8709   36.2521   42.9857 H   0  0  0  0  0  0  0  0  0  0  0  0
   48.0612   30.0370   47.1834 H   0  0  0  0  0  0  0  0  0  0  0  0
   47.3977   28.5003   46.2150 H   0  0  0  0  0  0  0  0  0  0  0  0
   49.8829   28.9933   46.5376 H   0  0  0  0  0  0  0  0  0  0  0  0
   49.1106   28.2602   45.0909 H   0  0  0  0  0  0  0  0  0  0  0  0
   49.5450   30.0031   45.0909 H   0  0  0  0  0  0  0  0  0  0  0  0
  1  7  1  0
  1  2  1  0
  3  2  1  0
  4  3  1  0
  5  6  1  0
  5  4  1  0
  6 19  1  0
  6  1  1  0
  7  8  2  0
  9 14  2  0
 10  9  1  0
 11 10  2  0
 11 12  1  0
 12 13  2  0
 13 14  1  0
 13  7  1  0
 15 17  1  0
 15 11  1  0
 16 15  1  0
 18 15  1  0
 20 19  1  0
  1 21  1  6
  2 22  1  0
  2 23  1  0
  3 24  1  0
  3 25  1  0
  4 26  1  0
  4 27  1  0
  5 28  1  0
  5 29  1  0
  6 30  1  6
  9 31  1  0
 10 32  1  0
 19 33  1  0
 19 34  1  0
 20 35  1  0
 20 36  1  0
 20 37  1  0
M  ISO  8  21  13  22  13  23  13  24  13  25  13  26  13  27  13  28  13
M  ISO  8  29  13  30  13  31  14  32  14  33   8  34   8  35   8  36   8
M  ISO  1  37   8
M  END
>  <minimizedAffinity>  (1) 
-5.06469297

>  <minimizedRMSD>  (1) 
1.91498005

$$$$
