
     RDKit          3D

 50 53  0  0  1  0  0  0  0  0999 V2000
   46.0350   31.1200   46.4990 C   0  0  2  0  0  0  0  0  0  0  0  0
   45.1390   30.6970   47.6110 C   0  0  0  0  0  0  0  0  0  0  0  0
   44.6220   29.3450   47.2920 C   0  0  0  0  0  0  0  0  0  0  0  0
   45.0230   28.8030   45.9630 C   0  0  0  0  0  0  0  0  0  0  0  0
   46.5230   28.8220   45.7930 C   0  0  0  0  0  0  0  0  0  0  0  0
   47.1030   30.0630   46.2900 C   0  0  2  0  0  0  0  0  0  0  0  0
   47.7510   29.7360   47.5840 C   0  0  0  0  0  0  0  0  0  0  0  0
   49.2300   29.6660   47.5740 C   0  0  0  0  0  0  0  0  0  0  0  0
   49.9090   29.0360   46.5220 C   0  0  0  0  0  0  0  0  0  0  0  0
   51.2690   28.9330   46.4280 C   0  0  0  0  0  0  0  0  0  0  0  0
   52.0580   29.4700   47.4100 C   0  0  0  0  0  0  0  0  0  0  0  0
   51.4430   30.0950   48.4590 C   0  0  0  0  0  0  0  0  0  0  0  0
   52.2450   30.6340   49.4570 C   0  0  0  0  0  0  0  0  0  0  0  0
   51.6300   31.2610   50.5210 C   0  0  0  0  0  0  0  0  0  0  0  0
   50.2490   31.3710   50.6300 C   0  0  0  0  0  0  0  0  0  0  0  0
   49.4770   30.8280   49.6250 C   0  0  0  0  0  0  0  0  0  0  0  0
   50.0530   30.1950   48.5450 C   0  0  0  0  0  0  0  0  0  0  0  0
   46.5900   32.4850   46.6360 C   0  0  0  0  0  0  0  0  0  0  0  0
   47.3960   32.8040   47.5370 O   0  0  0  0  0  0  0  0  0  0  0  0
   44.7400   35.2140   45.0640 C   0  0  0  0  0  0  0  0  0  0  0  0
   45.3160   35.3320   43.7720 C   0  0  0  0  0  0  0  0  0  0  0  0
   46.3460   34.4540   43.4790 C   0  0  0  0  0  0  0  0  0  0  0  0
   46.6740   33.6010   44.4520 N   0  0  0  0  0  0  0  0  0  0  0  0
   46.1450   33.4870   45.6500 C   0  0  0  0  0  0  0  0  0  0  0  0
   45.1420   34.3250   45.9630 N   0  0  0  0  0  0  0  0  0  0  0  0
   46.9480   34.5580   42.1510 C   0  0  0  0  0  0  0  0  0  0  0  0
   47.6370   33.3940   41.8560 F   0  0  0  0  0  0  0  0  0  0  0  0
   47.8200   35.5980   42.1980 F   0  0  0  0  0  0  0  0  0  0  0  0
   45.9870   34.6980   41.1580 F   0  0  0  0  0  0  0  0  0  0  0  0
   45.4175   31.1955   45.5918 H   0  0  0  0  0  0  0  0  0  0  0  0
   45.7032   30.6680   48.5549 H   0  0  0  0  0  0  0  0  0  0  0  0
   44.3072   31.4080   47.7237 H   0  0  0  0  0  0  0  0  0  0  0  0
   44.9858   28.6518   48.0647 H   0  0  0  0  0  0  0  0  0  0  0  0
   43.5265   29.4394   47.2621 H   0  0  0  0  0  0  0  0  0  0  0  0
   44.6656   27.7663   45.8761 H   0  0  0  0  0  0  0  0  0  0  0  0
   44.5768   29.4352   45.1811 H   0  0  0  0  0  0  0  0  0  0  0  0
   46.9561   27.9776   46.3492 H   0  0  0  0  0  0  0  0  0  0  0  0
   46.7489   28.7421   44.7194 H   0  0  0  0  0  0  0  0  0  0  0  0
   47.8238   30.4696   45.5653 H   0  0  0  0  0  0  0  0  0  0  0  0
   47.4562   30.5067   48.3114 H   0  0  0  0  0  0  0  0  0  0  0  0
   47.4095   28.7214   47.8367 H   0  0  0  0  0  0  0  0  0  0  0  0
   49.3055   28.5936   45.7158 H   0  0  0  0  0  0  0  0  0  0  0  0
   51.7269   28.4217   45.5684 H   0  0  0  0  0  0  0  0  0  0  0  0
   53.1545   29.4005   47.3564 H   0  0  0  0  0  0  0  0  0  0  0  0
   53.3412   30.5628   49.4004 H   0  0  0  0  0  0  0  0  0  0  0  0
   52.2581   31.6912   51.3150 H   0  0  0  0  0  0  0  0  0  0  0  0
   49.7863   31.8755   51.4911 H   0  0  0  0  0  0  0  0  0  0  0  0
   48.3812   30.9014   49.6864 H   0  0  0  0  0  0  0  0  0  0  0  0
   43.9186   35.8942   45.3335 H   0  0  0  0  0  0  0  0  0  0  0  0
   44.9641   36.0785   43.0448 H   0  0  0  0  0  0  0  0  0  0  0  0
  1 18  1  0
  1  2  1  0
  3  2  1  0
  4  3  1  0
  5  4  1  0
  5  6  1  0
  6  1  1  0
  6  7  1  0
  8  7  1  0
  8 17  1  0
  9  8  2  0
 10  9  1  0
 10 11  2  0
 11 12  1  0
 12 17  2  0
 12 13  1  0
 13 14  2  0
 14 15  1  0
 16 15  2  0
 17 16  1  0
 18 19  2  0
 20 25  2  0
 21 20  1  0
 22 21  2  0
 22 23  1  0
 23 24  2  0
 24 25  1  0
 24 18  1  0
 26 28  1  0
 26 22  1  0
 27 26  1  0
 29 26  1  0
  1 30  1  6
  2 31  1  0
  2 32  1  0
  3 33  1  0
  3 34  1  0
  4 35  1  0
  4 36  1  0
  5 37  1  0
  5 38  1  0
  6 39  1  6
  7 40  1  0
  7 41  1  0
  9 42  1  0
 10 43  1  0
 11 44  1  0
 13 45  1  0
 14 46  1  0
 15 47  1  0
 16 48  1  0
 20 49  1  0
 21 50  1  0
M  ISO  8  30  13  31  13  32  13  33  13  34  13  35  13  36  13  37  13
M  ISO  8  38  13  39  13  40   8  41   8  42  14  43  14  44  14  45  14
M  ISO  5  46  14  47  14  48  14  49  14  50  14
M  END
>  <minimizedAffinity>  (1) 
-6.39014864

>  <minimizedRMSD>  (1) 
2.37922835

$$$$
