
     RDKit          3D

 49 52  0  0  1  0  0  0  0  0999 V2000
   45.7030   31.1210   46.6180 C   0  0  2  0  0  0  0  0  0  0  0  0
   45.7680   30.3390   47.8930 C   0  0  0  0  0  0  0  0  0  0  0  0
   44.9980   29.0860   47.6850 C   0  0  0  0  0  0  0  0  0  0  0  0
   44.2900   28.9730   46.3730 C   0  0  0  0  0  0  0  0  0  0  0  0
   45.2520   29.1600   45.2270 C   0  0  0  0  0  0  0  0  0  0  0  0
   46.1870   30.2470   45.4800 C   0  0  2  0  0  0  0  0  0  0  0  0
   47.4900   29.6230   45.8310 C   0  0  0  0  0  0  0  0  0  0  0  0
   48.5550   29.8900   44.8460 C   0  0  0  0  0  0  0  0  0  0  0  0
   49.7820   29.3040   44.7080 C   0  0  0  0  0  0  0  0  0  0  0  0
   50.6620   29.6500   43.7170 C   0  0  0  0  0  0  0  0  0  0  0  0
   50.3680   30.6220   42.7830 C   0  0  0  0  0  0  0  0  0  0  0  0
   51.2220   30.9600   41.8180 N   0  0  0  0  0  0  0  0  0  0  0  0
   50.8960   31.9070   40.9360 C   0  0  0  0  0  0  0  0  0  0  0  0
   49.6840   32.5710   40.9740 C   0  0  0  0  0  0  0  0  0  0  0  0
   48.8020   32.2210   41.9710 C   0  0  0  0  0  0  0  0  0  0  0  0
   49.1460   31.2540   42.8660 C   0  0  0  0  0  0  0  0  0  0  0  0
   48.2950   30.8710   43.8800 C   0  0  0  0  0  0  0  0  0  0  0  0
   46.3830   32.4350   46.6700 C   0  0  0  0  0  0  0  0  0  0  0  0
   47.3960   32.6490   47.3810 O   0  0  0  0  0  0  0  0  0  0  0  0
   44.4730   35.3690   45.6380 C   0  0  0  0  0  0  0  0  0  0  0  0
   44.7610   35.5090   44.2590 C   0  0  0  0  0  0  0  0  0  0  0  0
   45.6230   34.5750   43.7150 C   0  0  0  0  0  0  0  0  0  0  0  0
   46.0750   33.6550   44.5700 N   0  0  0  0  0  0  0  0  0  0  0  0
   45.8190   33.5130   45.8450 C   0  0  0  0  0  0  0  0  0  0  0  0
   44.9850   34.4080   46.3970 N   0  0  0  0  0  0  0  0  0  0  0  0
   45.9320   34.6900   42.2880 C   0  0  0  0  0  0  0  0  0  0  0  0
   45.9060   33.4530   41.6950 F   0  0  0  0  0  0  0  0  0  0  0  0
   47.1800   35.2180   42.2090 F   0  0  0  0  0  0  0  0  0  0  0  0
   44.9850   35.4640   41.6270 F   0  0  0  0  0  0  0  0  0  0  0  0
   44.6511   31.3921   46.4450 H   0  0  0  0  0  0  0  0  0  0  0  0
   46.8143   30.1015   48.1355 H   0  0  0  0  0  0  0  0  0  0  0  0
   45.3470   30.9198   48.7269 H   0  0  0  0  0  0  0  0  0  0  0  0
   45.6980   28.2413   47.7657 H   0  0  0  0  0  0  0  0  0  0  0  0
   44.2104   29.0859   48.4529 H   0  0  0  0  0  0  0  0  0  0  0  0
   43.8280   27.9776   46.2972 H   0  0  0  0  0  0  0  0  0  0  0  0
   43.5208   29.7575   46.3190 H   0  0  0  0  0  0  0  0  0  0  0  0
   44.6802   29.3868   44.3151 H   0  0  0  0  0  0  0  0  0  0  0  0
   45.8298   28.2314   45.1096 H   0  0  0  0  0  0  0  0  0  0  0  0
   46.2802   30.8897   44.5922 H   0  0  0  0  0  0  0  0  0  0  0  0
   47.8121   30.0152   46.8069 H   0  0  0  0  0  0  0  0  0  0  0  0
   47.3326   28.5345   45.8500 H   0  0  0  0  0  0  0  0  0  0  0  0
   50.0753   28.5213   45.4231 H   0  0  0  0  0  0  0  0  0  0  0  0
   51.6335   29.1368   43.6642 H   0  0  0  0  0  0  0  0  0  0  0  0
   51.6187   32.1691   40.1493 H   0  0  0  0  0  0  0  0  0  0  0  0
   49.4344   33.3482   40.2367 H   0  0  0  0  0  0  0  0  0  0  0  0
   47.8243   32.7198   42.0445 H   0  0  0  0  0  0  0  0  0  0  0  0
   47.3226   31.3822   43.9361 H   0  0  0  0  0  0  0  0  0  0  0  0
   43.7897   36.0940   46.1045 H   0  0  0  0  0  0  0  0  0  0  0  0
   44.3231   36.3164   43.6537 H   0  0  0  0  0  0  0  0  0  0  0  0
  1 18  1  0
  1  2  1  0
  3  2  1  0
  4  3  1  0
  5  6  1  0
  5  4  1  0
  6  7  1  0
  6  1  1  0
  8  7  1  0
  9  8  2  0
 10  9  1  0
 11 16  1  0
 11 10  2  0
 12 11  1  0
 13 14  1  0
 13 12  2  0
 14 15  2  0
 15 16  1  0
 16 17  2  0
 17  8  1  0
 18 19  2  0
 20 25  2  0
 21 20  1  0
 22 21  2  0
 22 23  1  0
 23 24  2  0
 24 25  1  0
 24 18  1  0
 26 22  1  0
 27 26  1  0
 28 26  1  0
 29 26  1  0
  1 30  1  6
  2 31  1  0
  2 32  1  0
  3 33  1  0
  3 34  1  0
  4 35  1  0
  4 36  1  0
  5 37  1  0
  5 38  1  0
  6 39  1  6
  7 40  1  0
  7 41  1  0
  9 42  1  0
 10 43  1  0
 13 44  1  0
 14 45  1  0
 15 46  1  0
 17 47  1  0
 20 48  1  0
 21 49  1  0
M  ISO  8  30  13  31  13  32  13  33  13  34  13  35  13  36  13  37  13
M  ISO  8  38  13  39  13  40   8  41   8  42  14  43  14  44  14  45  14
M  ISO  4  46  14  47  14  48  14  49  14
M  END
>  <minimizedAffinity>  (1) 
-5.85773706

>  <minimizedRMSD>  (1) 
2.26347017

$$$$
