
     RDKit          3D

 44 46  0  0  1  0  0  0  0  0999 V2000
   45.7830   31.2400   46.6130 C   0  0  2  0  0  0  0  0  0  0  0  0
   45.9060   30.4480   47.8770 C   0  0  0  0  0  0  0  0  0  0  0  0
   45.1060   29.2050   47.7020 C   0  0  0  0  0  0  0  0  0  0  0  0
   44.3450   29.1030   46.4230 C   0  0  0  0  0  0  0  0  0  0  0  0
   45.2680   29.2800   45.2430 C   0  0  0  0  0  0  0  0  0  0  0  0
   46.2150   30.3690   45.4490 C   0  0  2  0  0  0  0  0  0  0  0  0
   47.5250   29.7240   45.7470 C   0  0  0  0  0  0  0  0  0  0  0  0
   50.1210   28.3060   46.2530 Cl  0  0  0  0  0  0  0  0  0  0  0  0
   49.7610   29.3440   44.8740 C   0  0  0  0  0  0  0  0  0  0  0  0
   48.5520   29.9820   44.6780 C   0  0  0  0  0  0  0  0  0  0  0  0
   48.3470   30.7790   43.5710 C   0  0  0  0  0  0  0  0  0  0  0  0
   49.4030   30.9070   42.6800 C   0  0  0  0  0  0  0  0  0  0  0  0
   50.6120   30.2730   42.8710 C   0  0  0  0  0  0  0  0  0  0  0  0
   51.8870   30.4840   41.7060 Cl  0  0  0  0  0  0  0  0  0  0  0  0
   50.8200   29.4700   43.9840 C   0  0  0  0  0  0  0  0  0  0  0  0
   46.4740   32.5490   46.6430 C   0  0  0  0  0  0  0  0  0  0  0  0
   47.4080   32.8090   47.4320 O   0  0  0  0  0  0  0  0  0  0  0  0
   44.6150   35.3260   45.1650 C   0  0  0  0  0  0  0  0  0  0  0  0
   45.1440   35.4480   43.8570 C   0  0  0  0  0  0  0  0  0  0  0  0
   46.1500   34.5550   43.5150 C   0  0  0  0  0  0  0  0  0  0  0  0
   46.4960   33.6850   44.4680 N   0  0  0  0  0  0  0  0  0  0  0  0
   46.0090   33.5660   45.6860 C   0  0  0  0  0  0  0  0  0  0  0  0
   45.0340   34.4190   46.0430 N   0  0  0  0  0  0  0  0  0  0  0  0
   46.7000   34.6650   42.1700 C   0  0  0  0  0  0  0  0  0  0  0  0
   47.4050   33.5180   41.8570 F   0  0  0  0  0  0  0  0  0  0  0  0
   47.5450   35.7270   42.1800 F   0  0  0  0  0  0  0  0  0  0  0  0
   45.7020   34.7770   41.2090 F   0  0  0  0  0  0  0  0  0  0  0  0
   44.7259   31.5180   46.4896 H   0  0  0  0  0  0  0  0  0  0  0  0
   46.9604   30.1940   48.0606 H   0  0  0  0  0  0  0  0  0  0  0  0
   45.5396   31.0283   48.7366 H   0  0  0  0  0  0  0  0  0  0  0  0
   45.7947   28.3490   47.7552 H   0  0  0  0  0  0  0  0  0  0  0  0
   44.3505   29.2183   48.5014 H   0  0  0  0  0  0  0  0  0  0  0  0
   43.8676   28.1138   46.3638 H   0  0  0  0  0  0  0  0  0  0  0  0
   43.5817   29.8947   46.3993 H   0  0  0  0  0  0  0  0  0  0  0  0
   44.6645   29.4984   44.3497 H   0  0  0  0  0  0  0  0  0  0  0  0
   45.8418   28.3499   45.1179 H   0  0  0  0  0  0  0  0  0  0  0  0
   46.2744   31.0183   44.5631 H   0  0  0  0  0  0  0  0  0  0  0  0
   47.9031   30.1185   46.7017 H   0  0  0  0  0  0  0  0  0  0  0  0
   47.3589   28.6377   45.7950 H   0  0  0  0  0  0  0  0  0  0  0  0
   47.3881   31.2908   43.4019 H   0  0  0  0  0  0  0  0  0  0  0  0
   49.2705   31.5376   41.7885 H   0  0  0  0  0  0  0  0  0  0  0  0
   51.7785   28.9575   44.1533 H   0  0  0  0  0  0  0  0  0  0  0  0
   43.8159   36.0174   45.4708 H   0  0  0  0  0  0  0  0  0  0  0  0
   44.7779   36.2082   43.1513 H   0  0  0  0  0  0  0  0  0  0  0  0
  1 16  1  0
  1  2  1  0
  3  2  1  0
  4  3  1  0
  5  6  1  0
  5  4  1  0
  6  7  1  0
  6  1  1  0
  9  8  1  0
 10  9  2  0
 10  7  1  0
 11 10  1  0
 12 13  1  0
 12 11  2  0
 13 15  2  0
 14 13  1  0
 15  9  1  0
 16 17  2  0
 18 23  2  0
 19 18  1  0
 20 19  2  0
 20 21  1  0
 21 22  2  0
 22 23  1  0
 22 16  1  0
 24 26  1  0
 24 20  1  0
 25 24  1  0
 27 24  1  0
  1 28  1  6
  2 29  1  0
  2 30  1  0
  3 31  1  0
  3 32  1  0
  4 33  1  0
  4 34  1  0
  5 35  1  0
  5 36  1  0
  6 37  1  6
  7 38  1  0
  7 39  1  0
 11 40  1  0
 12 41  1  0
 15 42  1  0
 18 43  1  0
 19 44  1  0
M  ISO  8  28  13  29  13  30  13  31  13  32  13  33  13  34  13  35  13
M  ISO  8  36  13  37  13  38   8  39   8  40  14  41  14  42  14  43  14
M  ISO  1  44  14
M  END
>  <minimizedAffinity>  (1) 
-5.57882261

>  <minimizedRMSD>  (1) 
1.56956863

$$$$
