
     RDKit          3D

 44 46  0  0  1  0  0  0  0  0999 V2000
   45.7770   31.2470   46.6290 C   0  0  2  0  0  0  0  0  0  0  0  0
   45.8890   30.4660   47.9000 C   0  0  0  0  0  0  0  0  0  0  0  0
   45.0880   29.2210   47.7230 C   0  0  0  0  0  0  0  0  0  0  0  0
   44.3520   29.1050   46.4290 C   0  0  0  0  0  0  0  0  0  0  0  0
   45.2860   29.2780   45.2610 C   0  0  0  0  0  0  0  0  0  0  0  0
   46.2240   30.3720   45.4760 C   0  0  2  0  0  0  0  0  0  0  0  0
   47.5350   29.7310   45.7970 C   0  0  0  0  0  0  0  0  0  0  0  0
   49.9740   28.5000   46.0220 F   0  0  0  0  0  0  0  0  0  0  0  0
   49.7270   29.2860   44.9460 C   0  0  0  0  0  0  0  0  0  0  0  0
   48.5470   29.9670   44.7060 C   0  0  0  0  0  0  0  0  0  0  0  0
   48.3570   30.7510   43.5910 C   0  0  0  0  0  0  0  0  0  0  0  0
   49.4140   30.8280   42.7090 C   0  0  0  0  0  0  0  0  0  0  0  0
   50.5970   30.1590   42.9270 C   0  0  0  0  0  0  0  0  0  0  0  0
   50.7730   29.3750   44.0520 C   0  0  0  0  0  0  0  0  0  0  0  0
   46.4680   32.5590   46.6580 C   0  0  0  0  0  0  0  0  0  0  0  0
   47.3940   32.8250   47.4540 O   0  0  0  0  0  0  0  0  0  0  0  0
   44.6180   35.3220   45.1450 C   0  0  0  0  0  0  0  0  0  0  0  0
   45.1630   35.4370   43.8360 C   0  0  0  0  0  0  0  0  0  0  0  0
   46.1720   34.5460   43.5140 C   0  0  0  0  0  0  0  0  0  0  0  0
   46.5110   33.6840   44.4780 N   0  0  0  0  0  0  0  0  0  0  0  0
   46.0110   33.5710   45.6910 C   0  0  0  0  0  0  0  0  0  0  0  0
   45.0310   34.4240   46.0280 N   0  0  0  0  0  0  0  0  0  0  0  0
   46.7360   34.6470   42.1750 C   0  0  0  0  0  0  0  0  0  0  0  0
   47.4630   33.5050   41.8850 F   0  0  0  0  0  0  0  0  0  0  0  0
   47.5690   35.7180   42.1820 F   0  0  0  0  0  0  0  0  0  0  0  0
   45.7490   34.7280   41.2000 F   0  0  0  0  0  0  0  0  0  0  0  0
   44.7199   31.5190   46.4924 H   0  0  0  0  0  0  0  0  0  0  0  0
   46.9414   30.2127   48.0955 H   0  0  0  0  0  0  0  0  0  0  0  0
   45.5171   31.0522   48.7532 H   0  0  0  0  0  0  0  0  0  0  0  0
   45.7733   28.3640   47.8004 H   0  0  0  0  0  0  0  0  0  0  0  0
   44.3163   29.2461   48.5065 H   0  0  0  0  0  0  0  0  0  0  0  0
   43.8820   28.1122   46.3700 H   0  0  0  0  0  0  0  0  0  0  0  0
   43.5882   29.8955   46.3876 H   0  0  0  0  0  0  0  0  0  0  0  0
   44.6929   29.4895   44.3591 H   0  0  0  0  0  0  0  0  0  0  0  0
   45.8643   28.3495   45.1450 H   0  0  0  0  0  0  0  0  0  0  0  0
   46.2899   31.0177   44.5879 H   0  0  0  0  0  0  0  0  0  0  0  0
   47.9185   30.1532   46.7376 H   0  0  0  0  0  0  0  0  0  0  0  0
   47.3752   28.6467   45.8908 H   0  0  0  0  0  0  0  0  0  0  0  0
   47.4131   31.2871   43.4131 H   0  0  0  0  0  0  0  0  0  0  0  0
   49.3086   31.4431   41.8031 H   0  0  0  0  0  0  0  0  0  0  0  0
   51.4138   30.2494   42.1958 H   0  0  0  0  0  0  0  0  0  0  0  0
   51.7174   28.8393   44.2283 H   0  0  0  0  0  0  0  0  0  0  0  0
   43.8139   36.0127   45.4389 H   0  0  0  0  0  0  0  0  0  0  0  0
   44.8030   36.1910   43.1206 H   0  0  0  0  0  0  0  0  0  0  0  0
  1 15  1  0
  1  2  1  0
  3  2  1  0
  4  3  1  0
  5  6  1  0
  5  4  1  0
  6  7  1  0
  6  1  1  0
  9  8  1  0
 10  9  2  0
 10  7  1  0
 11 10  1  0
 12 13  1  0
 12 11  2  0
 13 14  2  0
 14  9  1  0
 15 16  2  0
 17 22  2  0
 18 17  1  0
 19 18  2  0
 19 20  1  0
 20 21  2  0
 21 22  1  0
 21 15  1  0
 23 25  1  0
 23 19  1  0
 24 23  1  0
 26 23  1  0
  1 27  1  6
  2 28  1  0
  2 29  1  0
  3 30  1  0
  3 31  1  0
  4 32  1  0
  4 33  1  0
  5 34  1  0
  5 35  1  0
  6 36  1  6
  7 37  1  0
  7 38  1  0
 11 39  1  0
 12 40  1  0
 13 41  1  0
 14 42  1  0
 17 43  1  0
 18 44  1  0
M  ISO  8  27  13  28  13  29  13  30  13  31  13  32  13  33  13  34  13
M  ISO  8  35  13  36  13  37   8  38   8  39  14  40  14  41  14  42  14
M  ISO  2  43  14  44  14
M  END
>  <minimizedAffinity>  (1) 
-5.50735807

>  <minimizedRMSD>  (1) 
1.33891952

$$$$
