
     RDKit          3D

 46 48  0  0  1  0  0  0  0  0999 V2000
   45.7960   31.2530   46.6290 C   0  0  2  0  0  0  0  0  0  0  0  0
   45.9500   30.4630   47.8900 C   0  0  0  0  0  0  0  0  0  0  0  0
   45.1620   29.2080   47.7100 C   0  0  0  0  0  0  0  0  0  0  0  0
   44.4040   29.1000   46.4320 C   0  0  0  0  0  0  0  0  0  0  0  0
   45.3190   29.3000   45.2550 C   0  0  0  0  0  0  0  0  0  0  0  0
   46.2520   30.4010   45.4590 C   0  0  2  0  0  0  0  0  0  0  0  0
   47.5750   29.7830   45.7520 C   0  0  0  0  0  0  0  0  0  0  0  0
   49.6400   30.4580   42.7850 C   0  0  1  0  0  0  0  0  0  0  0  0
   48.4180   30.7540   43.6310 C   0  0  0  0  0  0  0  0  0  0  0  0
   48.4030   29.5190   44.5180 C   0  0  1  0  0  0  0  0  0  0  0  0
   49.7590   29.4040   44.8590 O   0  0  0  0  0  0  0  0  0  0  0  0
   50.5180   29.7490   43.7760 C   0  0  0  0  0  0  0  0  0  0  0  0
   49.3130   29.6440   41.7130 O   0  0  0  0  0  0  0  0  0  0  0  0
   46.4740   32.5740   46.6640 C   0  0  0  0  0  0  0  0  0  0  0  0
   47.4000   32.8560   47.4670 O   0  0  0  0  0  0  0  0  0  0  0  0
   44.6110   35.3280   45.1470 C   0  0  0  0  0  0  0  0  0  0  0  0
   45.1500   35.4420   43.8420 C   0  0  0  0  0  0  0  0  0  0  0  0
   46.1610   34.5560   43.5180 C   0  0  0  0  0  0  0  0  0  0  0  0
   46.5040   33.7010   44.4820 N   0  0  0  0  0  0  0  0  0  0  0  0
   46.0120   33.5850   45.6940 C   0  0  0  0  0  0  0  0  0  0  0  0
   45.0300   34.4330   46.0350 N   0  0  0  0  0  0  0  0  0  0  0  0
   46.7160   34.6570   42.1780 C   0  0  0  0  0  0  0  0  0  0  0  0
   47.4380   33.5040   41.8790 F   0  0  0  0  0  0  0  0  0  0  0  0
   47.5630   35.7170   42.1780 F   0  0  0  0  0  0  0  0  0  0  0  0
   45.7300   34.7420   41.2030 F   0  0  0  0  0  0  0  0  0  0  0  0
   44.7308   31.5009   46.5107 H   0  0  0  0  0  0  0  0  0  0  0  0
   47.0101   30.2237   48.0602 H   0  0  0  0  0  0  0  0  0  0  0  0
   45.5920   31.0332   48.7599 H   0  0  0  0  0  0  0  0  0  0  0  0
   45.8605   28.3598   47.7616 H   0  0  0  0  0  0  0  0  0  0  0  0
   44.4054   29.2113   48.5085 H   0  0  0  0  0  0  0  0  0  0  0  0
   43.9446   28.1026   46.3674 H   0  0  0  0  0  0  0  0  0  0  0  0
   43.6273   29.8787   46.4136 H   0  0  0  0  0  0  0  0  0  0  0  0
   44.7087   29.5140   44.3652 H   0  0  0  0  0  0  0  0  0  0  0  0
   45.9080   28.3798   45.1271 H   0  0  0  0  0  0  0  0  0  0  0  0
   46.3079   31.0519   44.5740 H   0  0  0  0  0  0  0  0  0  0  0  0
   48.1378   30.4611   46.4104 H   0  0  0  0  0  0  0  0  0  0  0  0
   47.3795   28.8092   46.2248 H   0  0  0  0  0  0  0  0  0  0  0  0
   50.1088   31.3431   42.3302 H   0  0  0  0  0  0  0  0  0  0  0  0
   48.5417   31.6762   44.2178 H   0  0  0  0  0  0  0  0  0  0  0  0
   47.4923   30.9263   43.0622 H   0  0  0  0  0  0  0  0  0  0  0  0
   47.9787   28.6213   44.0446 H   0  0  0  0  0  0  0  0  0  0  0  0
   50.9411   28.8438   43.3159 H   0  0  0  0  0  0  0  0  0  0  0  0
   51.3423   30.4073   44.0878 H   0  0  0  0  0  0  0  0  0  0  0  0
   48.9658   28.7798   42.0487 H   0  0  0  0  0  0  0  0  0  0  0  0
   43.8041   36.0158   45.4402 H   0  0  0  0  0  0  0  0  0  0  0  0
   44.7847   36.1933   43.1264 H   0  0  0  0  0  0  0  0  0  0  0  0
  1 14  1  0
  1  2  1  0
  3  2  1  0
  4  3  1  0
  5  6  1  0
  5  4  1  0
  6  7  1  0
  6  1  1  0
  8 13  1  0
  8  9  1  0
  8 12  1  0
  9 10  1  0
 10 11  1  0
 10  7  1  0
 12 11  1  0
 14 15  2  0
 16 21  2  0
 17 16  1  0
 18 17  2  0
 18 19  1  0
 19 20  2  0
 20 21  1  0
 20 14  1  0
 22 18  1  0
 23 22  1  0
 24 22  1  0
 25 22  1  0
  1 26  1  6
  2 27  1  0
  2 28  1  0
  3 29  1  0
  3 30  1  0
  4 31  1  0
  4 32  1  0
  5 33  1  0
  5 34  1  0
  6 35  1  6
  7 36  1  0
  7 37  1  0
  8 38  1  6
  9 39  1  0
  9 40  1  0
 10 41  1  6
 12 42  1  0
 12 43  1  0
 13 44  1  0
 16 45  1  0
 17 46  1  0
M  ISO  8  26  13  27  13  28  13  29  13  30  13  31  13  32  13  33  13
M  ISO  8  34  13  35  13  36   8  37   8  38  13  39  13  40  13  41  13
M  ISO  5  42  13  43  13  44   3  45  14  46  14
M  END
>  <minimizedAffinity>  (1) 
-5.27510881

>  <minimizedRMSD>  (1) 
0.909646749

$$$$
