
     RDKit          3D

 30 32  0  0  0  0  0  0  0  0999 V2000
   44.7460   36.6240   43.8250 C   0  0  0  0  0  0  0  0  0  0  0  0
   45.6350   36.3340   42.7790 C   0  0  0  0  0  0  0  0  0  0  0  0
   46.3080   35.1040   42.8220 C   0  0  0  0  0  0  0  0  0  0  0  0
   46.0610   34.2680   43.8680 N   0  0  0  0  0  0  0  0  0  0  0  0
   45.2020   34.5840   44.8490 C   0  0  0  0  0  0  0  0  0  0  0  0
   44.5220   35.7720   44.8510 N   0  0  0  0  0  0  0  0  0  0  0  0
   45.9290   32.6030   46.0490 C   0  0  0  0  0  0  0  0  0  0  0  0
   46.9260   32.4330   45.2910 O   0  0  0  0  0  0  0  0  0  0  0  0
   44.9940   33.6660   45.9070 N   0  0  0  0  0  0  0  0  0  0  0  0
   45.6960   31.6750   47.1390 C   0  0  0  0  0  0  0  0  0  0  0  0
   45.4790   32.1190   48.4340 C   0  0  0  0  0  0  0  0  0  0  0  0
   45.2510   31.2740   49.5070 C   0  0  0  0  0  0  0  0  0  0  0  0
   45.2430   29.9260   49.2670 C   0  0  0  0  0  0  0  0  0  0  0  0
   45.4610   29.4590   47.9640 C   0  0  0  0  0  0  0  0  0  0  0  0
   45.6730   30.3330   46.9760 N   0  0  0  0  0  0  0  0  0  0  0  0
   45.4590   27.9930   47.6560 C   0  0  0  0  0  0  0  0  0  0  0  0
   44.5830   27.0970   48.4570 C   0  0  0  0  0  0  0  0  0  0  0  0
   44.2930   27.3800   46.9590 C   0  0  0  0  0  0  0  0  0  0  0  0
   44.2091   37.5840   43.8099 H   0  0  0  0  0  0  0  0  0  0  0  0
   45.7982   37.0449   41.9556 H   0  0  0  0  0  0  0  0  0  0  0  0
   47.0177   34.8218   42.0303 H   0  0  0  0  0  0  0  0  0  0  0  0
   44.1954   33.7642   46.5500 H   0  0  0  0  0  0  0  0  0  0  0  0
   45.4884   33.2032   48.6197 H   0  0  0  0  0  0  0  0  0  0  0  0
   45.0820   31.6723   50.5183 H   0  0  0  0  0  0  0  0  0  0  0  0
   45.0672   29.2166   50.0891 H   0  0  0  0  0  0  0  0  0  0  0  0
   46.5369   28.0207   47.4384 H   0  0  0  0  0  0  0  0  0  0  0  0
   44.9446   26.1076   48.7736 H   0  0  0  0  0  0  0  0  0  0  0  0
   44.0182   27.1856   49.3968 H   0  0  0  0  0  0  0  0  0  0  0  0
   43.4321   28.0002   46.6688 H   0  0  0  0  0  0  0  0  0  0  0  0
   44.1489   26.7680   46.0564 H   0  0  0  0  0  0  0  0  0  0  0  0
  1  6  2  0
  2  3  2  0
  2  1  1  0
  3  4  1  0
  4  5  2  0
  5  6  1  0
  5  9  1  0
  7 10  1  0
  8  7  2  0
  9  7  1  0
 10 11  2  0
 11 12  1  0
 13 12  2  0
 14 13  1  0
 15 10  1  0
 15 14  2  0
 16 14  1  0
 16 17  1  0
 18 16  1  0
 18 17  1  0
  1 19  1  0
  2 20  1  0
  3 21  1  0
  9 22  1  0
 11 23  1  0
 12 24  1  0
 13 25  1  0
 16 26  1  0
 17 27  1  0
 17 28  1  0
 18 29  1  0
 18 30  1  0
M  ISO  8  19  14  20  14  21  14  23  14  24  14  25  14  26  13  27  13
M  ISO  3  28  13  29  13  30  13
M  END
>  <minimizedAffinity>  (1) 
-5.19288445

>  <minimizedRMSD>  (1) 
0.16487065

$$$$
