
     RDKit          3D

 27 29  0  0  1  0  0  0  0  0999 V2000
   44.4400   34.8140   43.6470 C   0  0  1  0  0  0  0  0  0  0  0  0
   45.1480   36.1770   43.5580 C   0  0  0  0  0  0  0  0  0  0  0  0
   44.8530   35.3570   42.3660 C   0  0  1  0  0  0  0  0  0  0  0  0
   45.2260   33.7840   44.3760 C   0  0  0  0  0  0  0  0  0  0  0  0
   45.3660   32.5170   43.7280 C   0  0  0  0  0  0  0  0  0  0  0  0
   46.1100   31.5450   44.4020 C   0  0  0  0  0  0  0  0  0  0  0  0
   46.6470   31.8620   45.6110 N   0  0  0  0  0  0  0  0  0  0  0  0
   46.4880   33.0780   46.1850 C   0  0  0  0  0  0  0  0  0  0  0  0
   45.7770   34.0420   45.5700 N   0  0  0  0  0  0  0  0  0  0  0  0
   46.0810   34.9390   41.6320 C   0  0  0  0  0  0  0  0  0  0  0  0
   46.0440   34.1140   40.5190 C   0  0  0  0  0  0  0  0  0  0  0  0
   47.1570   33.7110   39.8150 C   0  0  0  0  0  0  0  0  0  0  0  0
   48.3920   34.1370   40.2140 C   0  0  0  0  0  0  0  0  0  0  0  0
   48.5020   34.9600   41.3130 C   0  0  0  0  0  0  0  0  0  0  0  0
   47.3560   35.3350   41.9860 C   0  0  0  0  0  0  0  0  0  0  0  0
   43.4838   34.3881   43.9850 H   0  0  0  0  0  0  0  0  0  0  0  0
   44.5913   37.1069   43.7458 H   0  0  0  0  0  0  0  0  0  0  0  0
   46.0439   36.6348   44.0026 H   0  0  0  0  0  0  0  0  0  0  0  0
   44.2767   35.4344   41.4323 H   0  0  0  0  0  0  0  0  0  0  0  0
   44.9103   32.3173   42.7469 H   0  0  0  0  0  0  0  0  0  0  0  0
   46.2580   30.5464   43.9650 H   0  0  0  0  0  0  0  0  0  0  0  0
   46.9449   33.2806   47.1649 H   0  0  0  0  0  0  0  0  0  0  0  0
   45.0616   33.7578   40.1755 H   0  0  0  0  0  0  0  0  0  0  0  0
   47.0525   33.0526   38.9400 H   0  0  0  0  0  0  0  0  0  0  0  0
   49.2912   33.8254   39.6623 H   0  0  0  0  0  0  0  0  0  0  0  0
   49.4879   35.3132   41.6495 H   0  0  0  0  0  0  0  0  0  0  0  0
   47.4657   35.9921   42.8613 H   0  0  0  0  0  0  0  0  0  0  0  0
  1  4  1  0
  2  1  1  0
  3  2  1  0
  3  1  1  0
  4  9  1  0
  5  4  2  0
  5  6  1  0
  6  7  2  0
  7  8  1  0
  9  8  2  0
 10 15  1  0
 10  3  1  0
 11 10  2  0
 12 13  2  0
 12 11  1  0
 13 14  1  0
 14 15  2  0
  1 16  1  6
  2 17  1  0
  2 18  1  0
  3 19  1  6
  5 20  1  0
  6 21  1  0
  8 22  1  0
 11 23  1  0
 12 24  1  0
 13 25  1  0
 14 26  1  0
 15 27  1  0
M  ISO  8  16  13  17  13  18  13  19  13  20  14  21  14  22  14  23  14
M  ISO  4  24  14  25  14  26  14  27  14
M  END
>  <minimizedAffinity>  (1) 
-4.42749071

>  <minimizedRMSD>  (1) 
1.99557304

$$$$
