
     RDKit          3D

 30 32  0  0  1  0  0  0  0  0999 V2000
   44.9590   35.5290   42.6910 C   0  0  1  0  0  0  0  0  0  0  0  0
   45.8450   34.6190   43.5410 C   0  0  0  0  0  0  0  0  0  0  0  0
   46.4050   35.2610   42.4620 C   0  0  1  0  0  0  0  0  0  0  0  0
   46.9480   34.5320   41.3220 C   0  0  0  0  0  0  0  0  0  0  0  0
   46.1470   33.9150   40.3460 C   0  0  0  0  0  0  0  0  0  0  0  0
   46.6000   33.1730   39.2740 C   0  0  0  0  0  0  0  0  0  0  0  0
   47.9410   33.0410   39.1810 C   0  0  0  0  0  0  0  0  0  0  0  0
   48.7740   33.6200   40.0980 C   0  0  0  0  0  0  0  0  0  0  0  0
   48.3010   34.3580   41.1540 C   0  0  0  0  0  0  0  0  0  0  0  0
   49.4330   34.8690   41.9770 C   0  0  0  0  0  0  0  0  0  0  0  0
   49.1420   34.7880   43.3860 F   0  0  0  0  0  0  0  0  0  0  0  0
   49.4940   36.2670   42.0010 F   0  0  0  0  0  0  0  0  0  0  0  0
   50.5700   34.1830   42.0260 F   0  0  0  0  0  0  0  0  0  0  0  0
   43.9050   34.8440   41.9190 C   0  0  0  0  0  0  0  0  0  0  0  0
   43.2950   35.6190   40.9210 C   0  0  0  0  0  0  0  0  0  0  0  0
   42.2880   34.9690   40.1670 C   0  0  0  0  0  0  0  0  0  0  0  0
   41.9930   33.6770   40.4530 N   0  0  0  0  0  0  0  0  0  0  0  0
   42.6230   32.9930   41.4290 C   0  0  0  0  0  0  0  0  0  0  0  0
   43.5900   33.5770   42.1740 N   0  0  0  0  0  0  0  0  0  0  0  0
   44.3456   36.4378   42.7797 H   0  0  0  0  0  0  0  0  0  0  0  0
   46.1210   34.9237   44.5613 H   0  0  0  0  0  0  0  0  0  0  0  0
   45.7835   33.5696   43.8650 H   0  0  0  0  0  0  0  0  0  0  0  0
   47.2651   35.9335   42.3280 H   0  0  0  0  0  0  0  0  0  0  0  0
   45.0581   34.0345   40.4456 H   0  0  0  0  0  0  0  0  0  0  0  0
   45.9142   32.7191   38.5435 H   0  0  0  0  0  0  0  0  0  0  0  0
   48.3705   32.4576   38.3532 H   0  0  0  0  0  0  0  0  0  0  0  0
   49.8604   33.4898   39.9854 H   0  0  0  0  0  0  0  0  0  0  0  0
   43.5809   36.6650   40.7361 H   0  0  0  0  0  0  0  0  0  0  0  0
   41.7557   35.5017   39.3652 H   0  0  0  0  0  0  0  0  0  0  0  0
   42.3472   31.9458   41.6224 H   0  0  0  0  0  0  0  0  0  0  0  0
  1  2  1  0
  3  1  1  0
  3  2  1  0
  4  3  1  0
  5  4  2  0
  6  5  1  0
  7  6  2  0
  7  8  1  0
  8  9  2  0
  9  4  1  0
  9 10  1  0
 10 12  1  0
 10 13  1  0
 10 11  1  0
 14 19  1  0
 14  1  1  0
 15 14  2  0
 16 17  2  0
 16 15  1  0
 17 18  1  0
 18 19  2  0
  1 20  1  1
  2 21  1  0
  2 22  1  0
  3 23  1  1
  5 24  1  0
  6 25  1  0
  7 26  1  0
  8 27  1  0
 15 28  1  0
 16 29  1  0
 18 30  1  0
M  ISO  8  20  13  21  13  22  13  23  13  24  14  25  14  26  14  27  14
M  ISO  3  28  14  29  14  30  14
M  END
>  <minimizedAffinity>  (1) 
-5.2088685

>  <minimizedRMSD>  (1) 
3.44733572

$$$$
