
     RDKit          3D

 25 26  0  0  0  0  0  0  0  0999 V2000
   44.7980   36.6200   43.7340 C   0  0  0  0  0  0  0  0  0  0  0  0
   45.6440   36.2680   42.6820 C   0  0  0  0  0  0  0  0  0  0  0  0
   46.2860   35.0390   42.7710 C   0  0  0  0  0  0  0  0  0  0  0  0
   46.0650   34.2510   43.8610 N   0  0  0  0  0  0  0  0  0  0  0  0
   45.2320   34.6390   44.8610 C   0  0  0  0  0  0  0  0  0  0  0  0
   44.5940   35.8270   44.8000 N   0  0  0  0  0  0  0  0  0  0  0  0
   45.9590   32.6780   46.1000 C   0  0  0  0  0  0  0  0  0  0  0  0
   46.9080   32.4370   45.3210 O   0  0  0  0  0  0  0  0  0  0  0  0
   45.0500   33.7700   45.9580 N   0  0  0  0  0  0  0  0  0  0  0  0
   45.7350   31.8090   47.2400 C   0  0  0  0  0  0  0  0  0  0  0  0
   45.6080   32.3080   48.5270 C   0  0  0  0  0  0  0  0  0  0  0  0
   45.3940   31.5640   49.6590 C   0  0  0  0  0  0  0  0  0  0  0  0
   45.3000   30.2030   49.4780 C   0  0  0  0  0  0  0  0  0  0  0  0
   45.4230   29.6510   48.1890 C   0  0  0  0  0  0  0  0  0  0  0  0
   45.6310   30.4640   47.1350 N   0  0  0  0  0  0  0  0  0  0  0  0
   45.3230   28.2550   48.0280 N   0  0  0  0  0  0  0  0  0  0  0  0
   44.2759   37.5872   43.6892 H   0  0  0  0  0  0  0  0  0  0  0  0
   45.7961   36.9342   41.8200 H   0  0  0  0  0  0  0  0  0  0  0  0
   46.9643   34.7060   41.9716 H   0  0  0  0  0  0  0  0  0  0  0  0
   44.2869   33.9185   46.6337 H   0  0  0  0  0  0  0  0  0  0  0  0
   45.6858   33.3982   48.6514 H   0  0  0  0  0  0  0  0  0  0  0  0
   45.3029   32.0275   50.6524 H   0  0  0  0  0  0  0  0  0  0  0  0
   45.1284   29.5450   50.3426 H   0  0  0  0  0  0  0  0  0  0  0  0
   45.4110   27.8371   47.0907 H   0  0  0  0  0  0  0  0  0  0  0  0
   45.1619   27.6523   48.8476 H   0  0  0  0  0  0  0  0  0  0  0  0
  1  6  2  0
  2  3  2  0
  2  1  1  0
  3  4  1  0
  4  5  2  0
  5  9  1  0
  6  5  1  0
  7 10  1  0
  8  7  2  0
  9  7  1  0
 10 11  2  0
 11 12  1  0
 13 12  2  0
 14 13  1  0
 15 10  1  0
 15 14  2  0
 16 14  1  0
  1 17  1  0
  2 18  1  0
  3 19  1  0
  9 20  1  0
 11 21  1  0
 12 22  1  0
 13 23  1  0
 16 24  1  0
 16 25  1  0
M  ISO  6  17  14  18  14  19  14  21  14  22  14  23  14
M  END
>  <minimizedAffinity>  (1) 
-5.09559917

>  <minimizedRMSD>  (1) 
0.117486089

$$$$
