
     RDKit          3D

 29 31  0  0  1  0  0  0  0  0999 V2000
   44.5570   34.8180   43.4720 C   0  0  1  0  0  0  0  0  0  0  0  0
   45.4000   36.0200   43.0730 C   0  0  0  0  0  0  0  0  0  0  0  0
   44.8600   35.2000   42.0720 C   0  0  1  0  0  0  0  0  0  0  0  0
   45.7880   34.4850   41.1810 C   0  0  0  0  0  0  0  0  0  0  0  0
   45.3680   33.5990   40.1950 C   0  0  0  0  0  0  0  0  0  0  0  0
   46.1920   32.9000   39.3580 C   0  0  0  0  0  0  0  0  0  0  0  0
   47.5460   33.0730   39.4870 C   0  0  0  0  0  0  0  0  0  0  0  0
   48.0330   33.9440   40.4530 C   0  0  0  0  0  0  0  0  0  0  0  0
   47.1430   34.6150   41.2610 C   0  0  0  0  0  0  0  0  0  0  0  0
   47.8540   35.4540   42.1630 N   0  0  0  0  0  0  0  0  0  0  0  0
   45.2540   33.7040   44.1450 C   0  0  0  0  0  0  0  0  0  0  0  0
   45.0860   32.4180   43.5510 C   0  0  0  0  0  0  0  0  0  0  0  0
   45.7650   31.3710   44.2070 C   0  0  0  0  0  0  0  0  0  0  0  0
   46.5060   31.6550   45.3210 N   0  0  0  0  0  0  0  0  0  0  0  0
   46.6170   32.9140   45.8290 C   0  0  0  0  0  0  0  0  0  0  0  0
   45.9850   33.9620   45.2400 N   0  0  0  0  0  0  0  0  0  0  0  0
   43.6368   34.5988   44.0334 H   0  0  0  0  0  0  0  0  0  0  0  0
   45.0074   37.0372   43.2189 H   0  0  0  0  0  0  0  0  0  0  0  0
   46.4121   36.3716   43.3221 H   0  0  0  0  0  0  0  0  0  0  0  0
   44.1934   35.3304   41.2068 H   0  0  0  0  0  0  0  0  0  0  0  0
   44.2845   33.4484   40.0792 H   0  0  0  0  0  0  0  0  0  0  0  0
   45.7798   32.2167   38.6009 H   0  0  0  0  0  0  0  0  0  0  0  0
   48.2403   32.5269   38.8314 H   0  0  0  0  0  0  0  0  0  0  0  0
   49.1161   34.0958   40.5710 H   0  0  0  0  0  0  0  0  0  0  0  0
   48.8835   35.4785   42.1409 H   0  0  0  0  0  0  0  0  0  0  0  0
   47.3394   36.0371   42.8383 H   0  0  0  0  0  0  0  0  0  0  0  0
   44.4743   32.2559   42.6512 H   0  0  0  0  0  0  0  0  0  0  0  0
   45.6998   30.3403   43.8283 H   0  0  0  0  0  0  0  0  0  0  0  0
   47.2268   33.0842   46.7285 H   0  0  0  0  0  0  0  0  0  0  0  0
  1 11  1  0
  2  1  1  0
  3  2  1  0
  3  1  1  0
  4  9  1  0
  4  3  1  0
  5  4  2  0
  6  7  2  0
  6  5  1  0
  7  8  1  0
  8  9  2  0
  9 10  1  0
 11 16  1  0
 12 11  2  0
 12 13  1  0
 13 14  2  0
 14 15  1  0
 16 15  2  0
  1 17  1  6
  2 18  1  0
  2 19  1  0
  3 20  1  6
  5 21  1  0
  6 22  1  0
  7 23  1  0
  8 24  1  0
 10 25  1  0
 10 26  1  0
 12 27  1  0
 13 28  1  0
 15 29  1  0
M  ISO  8  17  13  18  13  19  13  20  13  21  14  22  14  23  14  24  14
M  ISO  3  27  14  28  14  29  14
M  END
>  <minimizedAffinity>  (1) 
-4.10412931

>  <minimizedRMSD>  (1) 
0.838851631

$$$$
