
     RDKit          3D

 26 27  0  0  0  0  0  0  0  0999 V2000
   44.8180   36.5250   43.5700 C   0  0  0  0  0  0  0  0  0  0  0  0
   45.7740   36.2180   42.6020 C   0  0  0  0  0  0  0  0  0  0  0  0
   46.4780   35.0110   42.7390 C   0  0  0  0  0  0  0  0  0  0  0  0
   46.1920   34.2090   43.8010 N   0  0  0  0  0  0  0  0  0  0  0  0
   45.2560   34.5480   44.7150 C   0  0  0  0  0  0  0  0  0  0  0  0
   44.5480   35.7170   44.6190 N   0  0  0  0  0  0  0  0  0  0  0  0
   45.9500   32.6420   46.0300 C   0  0  0  0  0  0  0  0  0  0  0  0
   46.9930   32.4480   45.3410 O   0  0  0  0  0  0  0  0  0  0  0  0
   44.9970   33.6800   45.8010 N   0  0  0  0  0  0  0  0  0  0  0  0
   45.6870   31.7450   47.1480 C   0  0  0  0  0  0  0  0  0  0  0  0
   45.6090   32.2470   48.4520 C   0  0  0  0  0  0  0  0  0  0  0  0
   45.3630   31.4560   49.5580 C   0  0  0  0  0  0  0  0  0  0  0  0
   45.1880   30.0980   49.3370 C   0  0  0  0  0  0  0  0  0  0  0  0
   45.2630   29.5890   48.0470 C   0  0  0  0  0  0  0  0  0  0  0  0
   45.5050   30.4240   47.0240 N   0  0  0  0  0  0  0  0  0  0  0  0
   45.0800   28.1490   47.7810 C   0  0  0  0  0  0  0  0  0  0  0  0
   44.2585   37.4674   43.4753 H   0  0  0  0  0  0  0  0  0  0  0  0
   45.9697   36.8983   41.7600 H   0  0  0  0  0  0  0  0  0  0  0  0
   47.2435   34.7200   42.0046 H   0  0  0  0  0  0  0  0  0  0  0  0
   44.1637   33.7910   46.3961 H   0  0  0  0  0  0  0  0  0  0  0  0
   45.7509   33.3271   48.6044 H   0  0  0  0  0  0  0  0  0  0  0  0
   45.3084   31.8847   50.5696 H   0  0  0  0  0  0  0  0  0  0  0  0
   44.9898   29.4241   50.1835 H   0  0  0  0  0  0  0  0  0  0  0  0
   45.0110   27.6058   48.7350 H   0  0  0  0  0  0  0  0  0  0  0  0
   44.1553   27.9972   47.2049 H   0  0  0  0  0  0  0  0  0  0  0  0
   45.9373   27.7707   47.2049 H   0  0  0  0  0  0  0  0  0  0  0  0
  1  6  2  0
  2  3  2  0
  2  1  1  0
  3  4  1  0
  4  5  2  0
  5  9  1  0
  6  5  1  0
  7 10  1  0
  8  7  2  0
  9  7  1  0
 10 11  2  0
 11 12  1  0
 13 12  2  0
 14 13  1  0
 15 10  1  0
 15 14  2  0
 16 14  1  0
  1 17  1  0
  2 18  1  0
  3 19  1  0
  9 20  1  0
 11 21  1  0
 12 22  1  0
 13 23  1  0
 16 24  1  0
 16 25  1  0
 16 26  1  0
M  ISO  8  17  14  18  14  19  14  21  14  22  14  23  14  24   8  25   8
M  ISO  1  26   8
M  END
>  <minimizedAffinity>  (1) 
-5.02819109

>  <minimizedRMSD>  (1) 
0.136526123

$$$$
