
     RDKit          3D

 45 48  0  0  1  0  0  0  0  0999 V2000
   44.7760   34.3100   43.1060 C   0  0  1  0  0  0  0  0  0  0  0  0
   45.4490   35.6060   43.4540 C   0  0  0  0  0  0  0  0  0  0  0  0
   45.7650   35.0370   42.2300 C   0  0  1  0  0  0  0  0  0  0  0  0
   45.1190   33.0980   43.8440 C   0  0  0  0  0  0  0  0  0  0  0  0
   45.0130   31.8800   43.1510 C   0  0  0  0  0  0  0  0  0  0  0  0
   45.3540   30.7230   43.8680 C   0  0  0  0  0  0  0  0  0  0  0  0
   45.7540   30.8620   45.1590 N   0  0  0  0  0  0  0  0  0  0  0  0
   45.8380   32.0810   45.7930 C   0  0  0  0  0  0  0  0  0  0  0  0
   45.5160   33.2240   45.1270 N   0  0  0  0  0  0  0  0  0  0  0  0
   46.2600   32.1750   47.1500 N   0  0  0  0  0  0  0  0  0  0  0  0
   45.3000   32.4370   48.2090 C   0  0  0  0  0  0  0  0  0  0  0  0
   45.3850   31.2030   49.1070 C   0  0  0  0  0  0  0  0  0  0  0  0
   46.7350   31.0030   49.5360 N   0  0  0  0  0  0  0  0  0  0  0  0
   47.7010   30.8640   48.4890 C   0  0  0  0  0  0  0  0  0  0  0  0
   47.6650   32.0100   47.4880 C   0  0  0  0  0  0  0  0  0  0  0  0
   47.1460   34.5410   41.9760 C   0  0  0  0  0  0  0  0  0  0  0  0
   48.1260   34.5390   42.9400 C   0  0  0  0  0  0  0  0  0  0  0  0
   49.4210   34.1330   42.7440 C   0  0  0  0  0  0  0  0  0  0  0  0
   49.7680   33.6930   41.4870 C   0  0  0  0  0  0  0  0  0  0  0  0
   48.8020   33.6810   40.4850 C   0  0  0  0  0  0  0  0  0  0  0  0
   47.5290   34.1020   40.7510 C   0  0  0  0  0  0  0  0  0  0  0  0
   46.2790   32.6610   39.3030 C   0  0  0  0  0  0  0  0  0  0  0  0
   46.5960   31.9690   40.2720 O   0  0  0  0  0  0  0  0  0  0  0  0
   46.7900   33.9880   39.5200 N   0  0  0  0  0  0  0  0  0  0  0  0
   43.7554   33.9173   42.9868 H   0  0  0  0  0  0  0  0  0  0  0  0
   44.8575   36.5329   43.4843 H   0  0  0  0  0  0  0  0  0  0  0  0
   46.0473   35.9462   44.3120 H   0  0  0  0  0  0  0  0  0  0  0  0
   45.7297   35.3654   41.1807 H   0  0  0  0  0  0  0  0  0  0  0  0
   44.6807   31.8360   42.1033 H   0  0  0  0  0  0  0  0  0  0  0  0
   45.2990   29.7302   43.3975 H   0  0  0  0  0  0  0  0  0  0  0  0
   45.5729   33.3449   48.7669 H   0  0  0  0  0  0  0  0  0  0  0  0
   44.2841   32.6080   47.8235 H   0  0  0  0  0  0  0  0  0  0  0  0
   44.7407   31.3474   49.9868 H   0  0  0  0  0  0  0  0  0  0  0  0
   45.0511   30.3207   48.5413 H   0  0  0  0  0  0  0  0  0  0  0  0
   47.0073   31.8112   50.1135 H   0  0  0  0  0  0  0  0  0  0  0  0
   48.7034   30.8247   48.9403 H   0  0  0  0  0  0  0  0  0  0  0  0
   47.4600   29.9415   47.9405 H   0  0  0  0  0  0  0  0  0  0  0  0
   48.2507   31.7581   46.5916 H   0  0  0  0  0  0  0  0  0  0  0  0
   48.1001   32.9318   47.9015 H   0  0  0  0  0  0  0  0  0  0  0  0
   47.8503   34.8899   43.9454 H   0  0  0  0  0  0  0  0  0  0  0  0
   50.1560   34.1581   43.5620 H   0  0  0  0  0  0  0  0  0  0  0  0
   50.7938   33.3557   41.2773 H   0  0  0  0  0  0  0  0  0  0  0  0
   49.0639   33.3315   39.4754 H   0  0  0  0  0  0  0  0  0  0  0  0
   45.7063   32.3235   38.4266 H   0  0  0  0  0  0  0  0  0  0  0  0
   46.6435   34.7708   38.8668 H   0  0  0  0  0  0  0  0  0  0  0  0
  1  2  1  0
  1  4  1  0
  3  1  1  0
  3  2  1  0
  4  9  1  0
  5  4  2  0
  5  6  1  0
  6  7  2  0
  7  8  1  0
  8 10  1  0
  9  8  2  0
 10 15  1  0
 10 11  1  0
 11 12  1  0
 12 13  1  0
 14 13  1  0
 15 14  1  0
 16  3  1  0
 16 17  2  0
 18 17  1  0
 19 18  2  0
 20 21  2  0
 20 19  1  0
 21 16  1  0
 22 24  1  0
 22 23  2  0
 24 21  1  0
  1 25  1  6
  2 26  1  0
  2 27  1  0
  3 28  1  6
  5 29  1  0
  6 30  1  0
 11 31  1  0
 11 32  1  0
 12 33  1  0
 12 34  1  0
 13 35  1  0
 14 36  1  0
 14 37  1  0
 15 38  1  0
 15 39  1  0
 17 40  1  0
 18 41  1  0
 19 42  1  0
 20 43  1  0
 22 44  1  0
 24 45  1  0
M  ISO  8  25  13  26  13  27  13  28  13  29  14  30  14  31  13  32  13
M  ISO  8  33  13  34  13  35   5  36  13  37  13  38  13  39  13  40  14
M  ISO  4  41  14  42  14  43  14  44   6
M  END
>  <minimizedAffinity>  (1) 
-5.96066475

>  <minimizedRMSD>  (1) 
1.2750982

$$$$
