
     RDKit          3D

 32 34  0  0  1  0  0  0  0  0999 V2000
   44.5960   34.5110   43.6220 C   0  0  1  0  0  0  0  0  0  0  0  0
   45.0800   35.9330   43.6230 C   0  0  0  0  0  0  0  0  0  0  0  0
   45.2030   35.2230   42.4380 C   0  0  1  0  0  0  0  0  0  0  0  0
   46.5520   34.9050   41.8980 C   0  0  0  0  0  0  0  0  0  0  0  0
   47.7140   35.2100   42.5640 C   0  0  0  0  0  0  0  0  0  0  0  0
   48.9750   34.9760   42.0920 C   0  0  0  0  0  0  0  0  0  0  0  0
   49.0930   34.3900   40.8520 C   0  0  0  0  0  0  0  0  0  0  0  0
   47.9390   34.0650   40.1450 C   0  0  0  0  0  0  0  0  0  0  0  0
   46.7090   34.3290   40.6790 C   0  0  0  0  0  0  0  0  0  0  0  0
   45.4660   32.4870   39.7840 C   0  0  0  0  0  0  0  0  0  0  0  0
   46.1320   32.0200   40.7070 O   0  0  0  0  0  0  0  0  0  0  0  0
   45.7350   33.8980   39.7090 N   0  0  0  0  0  0  0  0  0  0  0  0
   45.3240   33.5040   44.3910 C   0  0  0  0  0  0  0  0  0  0  0  0
   45.3250   32.2000   43.8750 C   0  0  0  0  0  0  0  0  0  0  0  0
   46.0300   31.2330   44.6150 C   0  0  0  0  0  0  0  0  0  0  0  0
   46.6500   31.6390   45.7700 N   0  0  0  0  0  0  0  0  0  0  0  0
   46.6090   32.9300   46.2200 C   0  0  0  0  0  0  0  0  0  0  0  0
   45.9360   33.8860   45.5260 N   0  0  0  0  0  0  0  0  0  0  0  0
   47.2350   33.3090   47.3770 O   0  0  0  0  0  0  0  0  0  0  0  0
   43.6664   33.9565   43.8179 H   0  0  0  0  0  0  0  0  0  0  0  0
   44.3507   36.7537   43.6899 H   0  0  0  0  0  0  0  0  0  0  0  0
   45.7876   36.4954   44.2499 H   0  0  0  0  0  0  0  0  0  0  0  0
   44.8649   35.3642   41.4008 H   0  0  0  0  0  0  0  0  0  0  0  0
   47.6224   35.6793   43.5547 H   0  0  0  0  0  0  0  0  0  0  0  0
   49.8635   35.2461   42.6816 H   0  0  0  0  0  0  0  0  0  0  0  0
   50.0854   34.1815   40.4259 H   0  0  0  0  0  0  0  0  0  0  0  0
   48.0172   33.5944   39.1538 H   0  0  0  0  0  0  0  0  0  0  0  0
   44.7839   31.9238   39.1302 H   0  0  0  0  0  0  0  0  0  0  0  0
   45.2808   34.5311   39.0353 H   0  0  0  0  0  0  0  0  0  0  0  0
   44.8022   31.9465   42.9410 H   0  0  0  0  0  0  0  0  0  0  0  0
   46.0824   30.1869   44.2791 H   0  0  0  0  0  0  0  0  0  0  0  0
   47.1889   34.2506   47.6792 H   0  0  0  0  0  0  0  0  0  0  0  0
  1  2  1  0
  1 13  1  0
  3  1  1  0
  3  2  1  0
  4  3  1  0
  4  5  2  0
  6  5  1  0
  7  6  2  0
  8  9  2  0
  8  7  1  0
  9  4  1  0
 10 11  2  0
 12 10  1  0
 12  9  1  0
 13 18  1  0
 14 13  2  0
 14 15  1  0
 15 16  2  0
 16 17  1  0
 17 19  1  0
 18 17  2  0
  1 20  1  6
  2 21  1  0
  2 22  1  0
  3 23  1  6
  5 24  1  0
  6 25  1  0
  7 26  1  0
  8 27  1  0
 10 28  1  0
 12 29  1  0
 14 30  1  0
 15 31  1  0
 19 32  1  0
M  ISO  8  20  13  21  13  22  13  23  13  24  14  25  14  26  14  27  14
M  ISO  4  28   6  30  14  31  14  32   3
M  END
>  <minimizedAffinity>  (1) 
-5.14549685

>  <minimizedRMSD>  (1) 
0.2630817

$$$$
