
     RDKit          3D

 24 25  0  0  0  0  0  0  0  0999 V2000
   44.7640   36.6370   43.7790 C   0  0  0  0  0  0  0  0  0  0  0  0
   45.6370   36.3180   42.7350 C   0  0  0  0  0  0  0  0  0  0  0  0
   46.2910   35.0930   42.7990 C   0  0  0  0  0  0  0  0  0  0  0  0
   46.0500   34.2740   43.8640 N   0  0  0  0  0  0  0  0  0  0  0  0
   45.1960   34.6250   44.8530 C   0  0  0  0  0  0  0  0  0  0  0  0
   44.5440   35.8150   44.8170 N   0  0  0  0  0  0  0  0  0  0  0  0
   45.9200   32.6430   46.0550 C   0  0  0  0  0  0  0  0  0  0  0  0
   46.8960   32.4390   45.2980 O   0  0  0  0  0  0  0  0  0  0  0  0
   44.9970   33.7240   45.9200 N   0  0  0  0  0  0  0  0  0  0  0  0
   45.6700   31.7330   47.1730 C   0  0  0  0  0  0  0  0  0  0  0  0
   45.5800   32.1940   48.4770 C   0  0  0  0  0  0  0  0  0  0  0  0
   45.3460   31.3930   49.5740 C   0  0  0  0  0  0  0  0  0  0  0  0
   45.1940   30.0520   49.3460 C   0  0  0  0  0  0  0  0  0  0  0  0
   45.2820   29.5750   48.0460 C   0  0  0  0  0  0  0  0  0  0  0  0
   45.5130   30.4000   47.0050 N   0  0  0  0  0  0  0  0  0  0  0  0
   45.0950   27.8350   47.6630 S   0  0  0  0  0  0  0  0  0  0  0  0
   44.2356   37.6013   43.7486 H   0  0  0  0  0  0  0  0  0  0  0  0
   45.8002   37.0095   41.8953 H   0  0  0  0  0  0  0  0  0  0  0  0
   46.9900   34.7892   42.0058 H   0  0  0  0  0  0  0  0  0  0  0  0
   44.2137   33.8417   46.5783 H   0  0  0  0  0  0  0  0  0  0  0  0
   45.7039   33.2735   48.6482 H   0  0  0  0  0  0  0  0  0  0  0  0
   45.2841   31.8132   50.5887 H   0  0  0  0  0  0  0  0  0  0  0  0
   45.0047   29.3621   50.1816 H   0  0  0  0  0  0  0  0  0  0  0  0
   45.0178   27.1169   48.8272 H   0  0  0  0  0  0  0  0  0  0  0  0
  1  6  2  0
  2  3  2  0
  2  1  1  0
  3  4  1  0
  4  5  2  0
  5  9  1  0
  6  5  1  0
  7 10  1  0
  8  7  2  0
  9  7  1  0
 10 11  2  0
 11 12  1  0
 13 12  2  0
 14 13  1  0
 15 10  1  0
 15 14  2  0
 16 14  1  0
  1 17  1  0
  2 18  1  0
  3 19  1  0
  9 20  1  0
 11 21  1  0
 12 22  1  0
 13 23  1  0
 16 24  1  0
M  ISO  7  17  14  18  14  19  14  21  14  22  14  23  14  24  11
M  END
>  <minimizedAffinity>  (1) 
-4.99388695

>  <minimizedRMSD>  (1) 
0.0456132665

$$$$
