
     RDKit          3D

 34 36  0  0  1  0  0  0  0  0999 V2000
   44.6540   34.3890   43.4560 C   0  0  1  0  0  0  0  0  0  0  0  0
   45.2340   35.7620   43.6430 C   0  0  0  0  0  0  0  0  0  0  0  0
   45.4240   35.1590   42.4090 C   0  0  1  0  0  0  0  0  0  0  0  0
   46.7950   34.7860   41.9650 C   0  0  0  0  0  0  0  0  0  0  0  0
   47.9100   34.9700   42.7480 C   0  0  0  0  0  0  0  0  0  0  0  0
   49.1910   34.6830   42.3670 C   0  0  0  0  0  0  0  0  0  0  0  0
   49.3790   34.1690   41.1100 C   0  0  0  0  0  0  0  0  0  0  0  0
   48.2790   33.9660   40.2830 C   0  0  0  0  0  0  0  0  0  0  0  0
   47.0250   34.2790   40.7270 C   0  0  0  0  0  0  0  0  0  0  0  0
   45.7670   32.5870   39.6010 C   0  0  0  0  0  0  0  0  0  0  0  0
   46.3270   32.0110   40.5270 O   0  0  0  0  0  0  0  0  0  0  0  0
   46.1150   33.9790   39.6510 N   0  0  0  0  0  0  0  0  0  0  0  0
   45.2310   33.2600   44.1840 C   0  0  0  0  0  0  0  0  0  0  0  0
   45.1200   32.0000   43.5780 C   0  0  0  0  0  0  0  0  0  0  0  0
   45.6860   30.9220   44.2830 C   0  0  0  0  0  0  0  0  0  0  0  0
   46.2890   31.1820   45.4900 N   0  0  0  0  0  0  0  0  0  0  0  0
   46.3590   32.4390   46.0240 C   0  0  0  0  0  0  0  0  0  0  0  0
   45.8250   33.5070   45.3720 N   0  0  0  0  0  0  0  0  0  0  0  0
   47.0270   32.6440   47.3360 C   0  0  0  0  0  0  0  0  0  0  0  0
   43.6732   33.8938   43.5097 H   0  0  0  0  0  0  0  0  0  0  0  0
   44.5607   36.6280   43.7249 H   0  0  0  0  0  0  0  0  0  0  0  0
   45.9140   36.2055   44.3853 H   0  0  0  0  0  0  0  0  0  0  0  0
   45.2011   35.4235   41.3648 H   0  0  0  0  0  0  0  0  0  0  0  0
   47.7598   35.3793   43.7579 H   0  0  0  0  0  0  0  0  0  0  0  0
   50.0400   34.8581   43.0442 H   0  0  0  0  0  0  0  0  0  0  0  0
   50.3909   33.9193   40.7584 H   0  0  0  0  0  0  0  0  0  0  0  0
   48.4184   33.5539   39.2727 H   0  0  0  0  0  0  0  0  0  0  0  0
   45.1082   32.1162   38.8565 H   0  0  0  0  0  0  0  0  0  0  0  0
   45.7547   34.6838   38.9919 H   0  0  0  0  0  0  0  0  0  0  0  0
   44.6196   31.8626   42.6081 H   0  0  0  0  0  0  0  0  0  0  0  0
   45.6469   29.8995   43.8792 H   0  0  0  0  0  0  0  0  0  0  0  0
   46.3167   32.4260   48.1471 H   0  0  0  0  0  0  0  0  0  0  0  0
   47.8928   31.9702   47.4159 H   0  0  0  0  0  0  0  0  0  0  0  0
   47.3658   33.6875   47.4159 H   0  0  0  0  0  0  0  0  0  0  0  0
  1  2  1  0
  1 13  1  0
  3  1  1  0
  3  2  1  0
  4  3  1  0
  4  5  2  0
  6  5  1  0
  7  6  2  0
  8  9  2  0
  8  7  1  0
  9  4  1  0
 10 12  1  0
 10 11  2  0
 12  9  1  0
 13 18  1  0
 14 13  2  0
 14 15  1  0
 15 16  2  0
 16 17  1  0
 17 19  1  0
 18 17  2  0
  1 20  1  6
  2 21  1  0
  2 22  1  0
  3 23  1  6
  5 24  1  0
  6 25  1  0
  7 26  1  0
  8 27  1  0
 10 28  1  0
 12 29  1  0
 14 30  1  0
 15 31  1  0
 19 32  1  0
 19 33  1  0
 19 34  1  0
M  ISO  8  20  13  21  13  22  13  23  13  24  14  25  14  26  14  27  14
M  ISO  6  28   6  30  14  31  14  32   8  33   8  34   8
M  END
>  <minimizedAffinity>  (1) 
-4.5361228

>  <minimizedRMSD>  (1) 
0.553250074

$$$$
