
     RDKit          3D

 28 29  0  0  1  0  0  0  0  0999 V2000
   46.9470   34.0970   42.4030 N   0  0  0  0  0  0  0  0  0  0  0  0
   47.7880   34.8780   41.4980 C   0  0  0  0  0  0  0  0  0  0  0  0
   47.3690   34.2050   40.2020 C   0  0  2  0  0  0  0  0  0  0  0  0
   47.6070   32.7580   40.5690 C   0  0  0  0  0  0  0  0  0  0  0  0
   47.0760   32.7050   41.9860 C   0  0  0  0  0  0  0  0  0  0  0  0
   44.5570   35.9360   44.5760 C   0  0  0  0  0  0  0  0  0  0  0  0
   45.3090   35.6280   43.4450 C   0  0  0  0  0  0  0  0  0  0  0  0
   46.1460   34.5040   43.4770 C   0  0  0  0  0  0  0  0  0  0  0  0
   46.1640   33.7810   44.6250 N   0  0  0  0  0  0  0  0  0  0  0  0
   45.4370   34.0780   45.7140 C   0  0  0  0  0  0  0  0  0  0  0  0
   44.6220   35.1690   45.6910 N   0  0  0  0  0  0  0  0  0  0  0  0
   48.3570   34.5750   39.1350 C   0  0  0  0  0  0  0  0  0  0  0  0
   47.9730   34.1170   37.7590 C   0  0  0  0  0  0  0  0  0  0  0  0
   47.5369   35.9488   41.5133 H   0  0  0  0  0  0  0  0  0  0  0  0
   48.8659   34.8818   41.7176 H   0  0  0  0  0  0  0  0  0  0  0  0
   46.3582   34.4528   39.8458 H   0  0  0  0  0  0  0  0  0  0  0  0
   47.0487   32.0800   39.9067 H   0  0  0  0  0  0  0  0  0  0  0  0
   48.6564   32.4420   40.4750 H   0  0  0  0  0  0  0  0  0  0  0  0
   46.0975   32.2031   42.0119 H   0  0  0  0  0  0  0  0  0  0  0  0
   47.7431   32.1383   42.6522 H   0  0  0  0  0  0  0  0  0  0  0  0
   43.8988   36.8173   44.5639 H   0  0  0  0  0  0  0  0  0  0  0  0
   45.2473   36.2551   42.5434 H   0  0  0  0  0  0  0  0  0  0  0  0
   45.4988   33.4480   46.6136 H   0  0  0  0  0  0  0  0  0  0  0  0
   48.4547   35.6705   39.1197 H   0  0  0  0  0  0  0  0  0  0  0  0
   49.3001   34.0677   39.3864 H   0  0  0  0  0  0  0  0  0  0  0  0
   47.2680   33.2761   37.8359 H   0  0  0  0  0  0  0  0  0  0  0  0
   47.4965   34.9466   37.2161 H   0  0  0  0  0  0  0  0  0  0  0  0
   48.8730   33.7925   37.2161 H   0  0  0  0  0  0  0  0  0  0  0  0
  1  8  1  0
  2  1  1  0
  3  4  1  0
  3  2  1  0
  4  5  1  0
  5  1  1  0
  6 11  2  0
  7  8  2  0
  7  6  1  0
  8  9  1  0
  9 10  2  0
 11 10  1  0
 12  3  1  0
 13 12  1  0
  2 14  1  0
  2 15  1  0
  3 16  1  6
  4 17  1  0
  4 18  1  0
  5 19  1  0
  5 20  1  0
  6 21  1  0
  7 22  1  0
 10 23  1  0
 12 24  1  0
 12 25  1  0
 13 26  1  0
 13 27  1  0
 13 28  1  0
M  ISO  8  14  13  15  13  16  13  17  13  18  13  19  13  20  13  21  14
M  ISO  7  22  14  23  14  24   8  25   8  26   8  27   8  28   8
M  END
>  <minimizedAffinity>  (1) 
-4.20973539

>  <minimizedRMSD>  (1) 
1.78917885

$$$$
