
     RDKit          3D

 25 26  0  0  1  0  0  0  0  0999 V2000
   46.9480   33.7060   43.4410 N   0  0  0  0  0  0  0  0  0  0  0  0
   48.2690   34.1320   42.9740 C   0  0  0  0  0  0  0  0  0  0  0  0
   47.8310   35.2210   42.0270 C   0  0  2  0  0  0  0  0  0  0  0  0
   46.8110   34.4570   41.2010 C   0  0  0  0  0  0  0  0  0  0  0  0
   46.1370   33.6000   42.2540 C   0  0  0  0  0  0  0  0  0  0  0  0
   45.0870   33.8120   46.6590 C   0  0  0  0  0  0  0  0  0  0  0  0
   45.4730   34.1520   45.3640 C   0  0  0  0  0  0  0  0  0  0  0  0
   46.4940   33.4410   44.7330 C   0  0  0  0  0  0  0  0  0  0  0  0
   47.0510   32.4380   45.4540 N   0  0  0  0  0  0  0  0  0  0  0  0
   46.6920   32.1010   46.6990 C   0  0  0  0  0  0  0  0  0  0  0  0
   45.7060   32.7880   47.3080 N   0  0  0  0  0  0  0  0  0  0  0  0
   48.9490   35.7280   41.1590 C   0  0  0  0  0  0  0  0  0  0  0  0
   48.8925   34.5207   43.7926 H   0  0  0  0  0  0  0  0  0  0  0  0
   48.8982   33.3430   42.5363 H   0  0  0  0  0  0  0  0  0  0  0  0
   47.4614   36.1266   42.5302 H   0  0  0  0  0  0  0  0  0  0  0  0
   46.0938   35.1385   40.7203 H   0  0  0  0  0  0  0  0  0  0  0  0
   47.2501   33.8813   40.3729 H   0  0  0  0  0  0  0  0  0  0  0  0
   45.1204   33.9701   42.4529 H   0  0  0  0  0  0  0  0  0  0  0  0
   46.0480   32.5550   41.9223 H   0  0  0  0  0  0  0  0  0  0  0  0
   44.2815   34.3715   47.1572 H   0  0  0  0  0  0  0  0  0  0  0  0
   44.9733   34.9800   44.8399 H   0  0  0  0  0  0  0  0  0  0  0  0
   47.1962   31.2729   47.2186 H   0  0  0  0  0  0  0  0  0  0  0  0
   49.7670   36.0989   41.7941 H   0  0  0  0  0  0  0  0  0  0  0  0
   49.3200   34.9100   40.5239 H   0  0  0  0  0  0  0  0  0  0  0  0
   48.5781   36.5460   40.5239 H   0  0  0  0  0  0  0  0  0  0  0  0
  1  8  1  0
  2  1  1  0
  3  2  1  0
  4  3  1  0
  4  5  1  0
  5  1  1  0
  6 11  2  0
  7  6  1  0
  8  7  2  0
  8  9  1  0
  9 10  2  0
 10 11  1  0
 12  3  1  0
  2 13  1  0
  2 14  1  0
  3 15  1  1
  4 16  1  0
  4 17  1  0
  5 18  1  0
  5 19  1  0
  6 20  1  0
  7 21  1  0
 10 22  1  0
 12 23  1  0
 12 24  1  0
 12 25  1  0
M  ISO  8  13  13  14  13  15  13  16  13  17  13  18  13  19  13  20  14
M  ISO  5  21  14  22  14  23   8  24   8  25   8
M  END
>  <minimizedAffinity>  (1) 
-3.87881064

>  <minimizedRMSD>  (1) 
2.12847257

$$$$
