
     RDKit          3D

 27 28  0  0  1  0  0  0  0  0999 V2000
   47.2010   34.2640   42.2990 N   0  0  0  0  0  0  0  0  0  0  0  0
   48.0200   35.0540   41.4310 C   0  0  0  0  0  0  0  0  0  0  0  0
   47.6950   34.3890   40.1200 C   0  0  2  0  0  0  0  0  0  0  0  0
   47.9270   32.9320   40.4720 C   0  0  0  0  0  0  0  0  0  0  0  0
   47.4350   32.8790   41.9140 C   0  0  0  0  0  0  0  0  0  0  0  0
   44.6250   35.9600   44.3920 C   0  0  0  0  0  0  0  0  0  0  0  0
   45.4560   35.7050   43.3040 C   0  0  0  0  0  0  0  0  0  0  0  0
   46.3170   34.6190   43.3380 C   0  0  0  0  0  0  0  0  0  0  0  0
   46.3060   33.8340   44.4690 N   0  0  0  0  0  0  0  0  0  0  0  0
   45.4970   34.0890   45.5220 C   0  0  0  0  0  0  0  0  0  0  0  0
   44.6590   35.1500   45.4800 N   0  0  0  0  0  0  0  0  0  0  0  0
   48.6840   34.7210   39.1170 N   0  0  0  0  0  0  0  0  0  0  0  0
   48.2680   34.3640   37.7850 C   0  0  0  0  0  0  0  0  0  0  0  0
   47.7252   36.1137   41.4390 H   0  0  0  0  0  0  0  0  0  0  0  0
   49.0884   35.0847   41.6910 H   0  0  0  0  0  0  0  0  0  0  0  0
   46.7021   34.6622   39.7333 H   0  0  0  0  0  0  0  0  0  0  0  0
   47.3403   32.2647   39.8236 H   0  0  0  0  0  0  0  0  0  0  0  0
   48.9686   32.6025   40.3437 H   0  0  0  0  0  0  0  0  0  0  0  0
   46.5026   32.2992   41.9805 H   0  0  0  0  0  0  0  0  0  0  0  0
   48.1654   32.3904   42.5756 H   0  0  0  0  0  0  0  0  0  0  0  0
   43.9395   36.8200   44.3693 H   0  0  0  0  0  0  0  0  0  0  0  0
   45.4294   36.3619   42.4221 H   0  0  0  0  0  0  0  0  0  0  0  0
   45.5202   33.4373   46.4078 H   0  0  0  0  0  0  0  0  0  0  0  0
   48.8559   35.7361   39.1474 H   0  0  0  0  0  0  0  0  0  0  0  0
   47.4343   33.6486   37.8406 H   0  0  0  0  0  0  0  0  0  0  0  0
   47.9411   35.2670   37.2486 H   0  0  0  0  0  0  0  0  0  0  0  0
   49.1109   33.9038   37.2486 H   0  0  0  0  0  0  0  0  0  0  0  0
  1  8  1  0
  2  1  1  0
  3  4  1  0
  3  2  1  0
  4  5  1  0
  5  1  1  0
  6 11  2  0
  7  8  2  0
  7  6  1  0
  8  9  1  0
  9 10  2  0
 11 10  1  0
 12  3  1  0
 13 12  1  0
  2 14  1  0
  2 15  1  0
  3 16  1  6
  4 17  1  0
  4 18  1  0
  5 19  1  0
  5 20  1  0
  6 21  1  0
  7 22  1  0
 10 23  1  0
 12 24  1  0
 13 25  1  0
 13 26  1  0
 13 27  1  0
M  ISO  8  14  13  15  13  16  13  17  13  18  13  19  13  20  13  21  14
M  ISO  6  22  14  23  14  24   5  25   8  26   8  27   8
M  END
>  <minimizedAffinity>  (1) 
-4.36150312

>  <minimizedRMSD>  (1) 
0.615449607

$$$$
