
     RDKit          3D

 47 50  0  0  1  0  0  0  0  0999 V2000
   48.8570   32.3520   40.2110 N   0  0  0  0  0  0  0  0  0  0  0  0
   47.3210   33.4130   43.2480 N   0  0  0  0  0  0  0  0  0  0  0  0
   48.0350   33.7640   42.0410 C   0  0  0  0  0  0  0  0  0  0  0  0
   47.9350   32.4620   41.3090 C   0  0  2  0  0  0  0  0  0  0  0  0
   48.3870   31.4960   42.3790 C   0  0  0  0  0  0  0  0  0  0  0  0
   47.8010   32.1060   43.6250 C   0  0  0  0  0  0  0  0  0  0  0  0
   44.7290   35.8560   44.3220 C   0  0  0  0  0  0  0  0  0  0  0  0
   45.6700   35.2370   43.5040 C   0  0  0  0  0  0  0  0  0  0  0  0
   46.3540   34.1230   43.9710 C   0  0  0  0  0  0  0  0  0  0  0  0
   46.0570   33.6890   45.2410 N   0  0  0  0  0  0  0  0  0  0  0  0
   45.1450   34.2940   46.0230 C   0  0  0  0  0  0  0  0  0  0  0  0
   44.4750   35.3880   45.5610 N   0  0  0  0  0  0  0  0  0  0  0  0
   49.0170   31.7780   37.7900 C   0  0  0  0  0  0  0  0  0  0  0  0
   48.7390   32.6700   38.8440 C   0  0  0  0  0  0  0  0  0  0  0  0
   48.3350   33.9050   38.4130 C   0  0  0  0  0  0  0  0  0  0  0  0
   48.1930   34.3040   37.1070 C   0  0  0  0  0  0  0  0  0  0  0  0
   48.4740   33.4050   36.1150 C   0  0  0  0  0  0  0  0  0  0  0  0
   48.8860   32.1440   36.4670 C   0  0  0  0  0  0  0  0  0  0  0  0
   48.1840   30.3410   34.9660 C   0  0  0  0  0  0  0  0  0  0  0  0
   49.2090   31.1110   35.4830 C   0  0  0  0  0  0  0  0  0  0  0  0
   50.5310   30.9550   35.1170 C   0  0  0  0  0  0  0  0  0  0  0  0
   50.7970   29.9660   34.1800 C   0  0  0  0  0  0  0  0  0  0  0  0
   49.8130   29.1720   33.6350 C   0  0  0  0  0  0  0  0  0  0  0  0
   48.4970   29.3580   34.0270 C   0  0  0  0  0  0  0  0  0  0  0  0
   46.8570   30.5260   35.3590 O   0  0  0  0  0  0  0  0  0  0  0  0
   47.5340   28.5470   33.4620 O   0  0  0  0  0  0  0  0  0  0  0  0
   49.8050   29.3720   38.4580 N   0  0  0  0  0  0  0  0  0  0  0  0
   49.4560   30.4320   38.1530 C   0  0  0  0  0  0  0  0  0  0  0  0
   49.7763   31.9687   40.4735 H   0  0  0  0  0  0  0  0  0  0  0  0
   47.5411   34.5811   41.4947 H   0  0  0  0  0  0  0  0  0  0  0  0
   49.0579   34.1386   42.1936 H   0  0  0  0  0  0  0  0  0  0  0  0
   46.9345   32.3092   40.8782 H   0  0  0  0  0  0  0  0  0  0  0  0
   47.9853   30.4875   42.2016 H   0  0  0  0  0  0  0  0  0  0  0  0
   49.4782   31.3638   42.4227 H   0  0  0  0  0  0  0  0  0  0  0  0
   48.5716   32.1935   44.4051 H   0  0  0  0  0  0  0  0  0  0  0  0
   46.9900   31.4839   44.0317 H   0  0  0  0  0  0  0  0  0  0  0  0
   44.1855   36.7383   43.9530 H   0  0  0  0  0  0  0  0  0  0  0  0
   45.8700   35.6276   42.4953 H   0  0  0  0  0  0  0  0  0  0  0  0
   44.9403   33.9073   47.0322 H   0  0  0  0  0  0  0  0  0  0  0  0
   48.1015   34.6498   39.1881 H   0  0  0  0  0  0  0  0  0  0  0  0
   47.8606   35.3240   36.8637 H   0  0  0  0  0  0  0  0  0  0  0  0
   48.3718   33.6870   35.0567 H   0  0  0  0  0  0  0  0  0  0  0  0
   51.3292   31.5798   35.5442 H   0  0  0  0  0  0  0  0  0  0  0  0
   51.8376   29.8101   33.8594 H   0  0  0  0  0  0  0  0  0  0  0  0
   50.0688   28.3982   32.8962 H   0  0  0  0  0  0  0  0  0  0  0  0
   46.1427   29.9600   34.9723 H   0  0  0  0  0  0  0  0  0  0  0  0
   46.5840   28.6532   33.7197 H   0  0  0  0  0  0  0  0  0  0  0  0
  1  4  1  0
  2  6  1  0
  2  9  1  0
  3  2  1  0
  4  3  1  0
  4  5  1  0
  5  6  1  0
  7 12  2  0
  8  9  2  0
  8  7  1  0
  9 10  1  0
 10 11  2  0
 12 11  1  0
 13 28  1  0
 13 14  2  0
 14  1  1  0
 15 14  1  0
 16 15  2  0
 17 18  2  0
 17 16  1  0
 18 13  1  0
 19 25  1  0
 19 20  2  0
 20 18  1  0
 21 20  1  0
 22 21  2  0
 23 24  2  0
 23 22  1  0
 24 19  1  0
 26 24  1  0
 28 27  3  0
  1 29  1  0
  3 30  1  0
  3 31  1  0
  4 32  1  6
  5 33  1  0
  5 34  1  0
  6 35  1  0
  6 36  1  0
  7 37  1  0
  8 38  1  0
 11 39  1  0
 15 40  1  0
 16 41  1  0
 17 42  1  0
 21 43  1  0
 22 44  1  0
 23 45  1  0
 25 46  1  0
 26 47  1  0
M  ISO  8  30  13  31  13  32  13  33  13  34  13  35  13  36  13  37  14
M  ISO  8  38  14  39  14  40  14  41  14  42  14  43  14  44  14  45  14
M  ISO  2  46   3  47   3
M  END
>  <minimizedAffinity>  (1) 
-4.82064009

>  <minimizedRMSD>  (1) 
1.31370509

$$$$
