
     RDKit          3D

 45 48  0  0  1  0  0  0  0  0999 V2000
   49.1220   32.7000   39.9830 N   0  0  0  0  0  0  0  0  0  0  0  0
   47.4990   33.6860   42.9950 N   0  0  0  0  0  0  0  0  0  0  0  0
   48.1830   34.0920   41.7790 C   0  0  0  0  0  0  0  0  0  0  0  0
   48.1910   32.7650   41.0790 C   0  0  2  0  0  0  0  0  0  0  0  0
   48.7180   31.8550   42.1760 C   0  0  0  0  0  0  0  0  0  0  0  0
   48.0660   32.4220   43.4090 C   0  0  0  0  0  0  0  0  0  0  0  0
   44.7460   35.9820   44.0350 C   0  0  0  0  0  0  0  0  0  0  0  0
   45.7460   35.4250   43.2390 C   0  0  0  0  0  0  0  0  0  0  0  0
   46.4720   34.3290   43.7050 C   0  0  0  0  0  0  0  0  0  0  0  0
   46.1440   33.8610   44.9440 N   0  0  0  0  0  0  0  0  0  0  0  0
   45.1860   34.3880   45.7140 C   0  0  0  0  0  0  0  0  0  0  0  0
   44.4790   35.4590   45.2580 N   0  0  0  0  0  0  0  0  0  0  0  0
   49.3890   31.8280   37.6660 C   0  0  0  0  0  0  0  0  0  0  0  0
   48.9470   32.7870   38.5880 C   0  0  0  0  0  0  0  0  0  0  0  0
   48.3090   33.8520   37.9970 C   0  0  0  0  0  0  0  0  0  0  0  0
   48.0940   34.0210   36.6480 C   0  0  0  0  0  0  0  0  0  0  0  0
   48.5490   33.0480   35.7910 C   0  0  0  0  0  0  0  0  0  0  0  0
   49.1990   31.9500   36.3250 C   0  0  0  0  0  0  0  0  0  0  0  0
   49.6710   30.9340   35.3860 C   0  0  0  0  0  0  0  0  0  0  0  0
   48.6900   30.0220   34.9790 C   0  0  0  0  0  0  0  0  0  0  0  0
   48.9670   28.9890   34.0880 C   0  0  0  0  0  0  0  0  0  0  0  0
   50.2560   28.9080   33.6240 C   0  0  0  0  0  0  0  0  0  0  0  0
   51.2480   29.7930   34.0070 C   0  0  0  0  0  0  0  0  0  0  0  0
   50.9510   30.8080   34.8890 C   0  0  0  0  0  0  0  0  0  0  0  0
   50.6310   29.7440   38.6630 N   0  0  0  0  0  0  0  0  0  0  0  0
   50.0780   30.6610   38.2140 C   0  0  0  0  0  0  0  0  0  0  0  0
   50.1008   32.5643   40.2737 H   0  0  0  0  0  0  0  0  0  0  0  0
   47.6188   34.8529   41.2197 H   0  0  0  0  0  0  0  0  0  0  0  0
   49.1657   34.5663   41.9178 H   0  0  0  0  0  0  0  0  0  0  0  0
   47.2056   32.5252   40.6531 H   0  0  0  0  0  0  0  0  0  0  0  0
   48.4123   30.8117   42.0084 H   0  0  0  0  0  0  0  0  0  0  0  0
   49.8161   31.8270   42.2334 H   0  0  0  0  0  0  0  0  0  0  0  0
   48.8118   32.5760   44.2028 H   0  0  0  0  0  0  0  0  0  0  0  0
   47.3017   31.7441   43.8169 H   0  0  0  0  0  0  0  0  0  0  0  0
   44.1725   36.8471   43.6707 H   0  0  0  0  0  0  0  0  0  0  0  0
   45.9617   35.8484   42.2469 H   0  0  0  0  0  0  0  0  0  0  0  0
   44.9714   33.9611   46.7048 H   0  0  0  0  0  0  0  0  0  0  0  0
   47.9356   34.6426   38.6645 H   0  0  0  0  0  0  0  0  0  0  0  0
   47.5721   34.9109   36.2663 H   0  0  0  0  0  0  0  0  0  0  0  0
   48.3997   33.1402   34.7051 H   0  0  0  0  0  0  0  0  0  0  0  0
   47.6691   30.1248   35.3754 H   0  0  0  0  0  0  0  0  0  0  0  0
   48.1926   28.2745   33.7721 H   0  0  0  0  0  0  0  0  0  0  0  0
   50.5114   28.1048   32.9171 H   0  0  0  0  0  0  0  0  0  0  0  0
   52.2680   29.6865   33.6093 H   0  0  0  0  0  0  0  0  0  0  0  0
   51.7336   31.5171   35.1966 H   0  0  0  0  0  0  0  0  0  0  0  0
  1  4  1  0
  2  6  1  0
  2  9  1  0
  3  2  1  0
  4  3  1  0
  4  5  1  0
  5  6  1  0
  7 12  2  0
  8  9  2  0
  8  7  1  0
  9 10  1  0
 10 11  2  0
 12 11  1  0
 13 26  1  0
 13 14  2  0
 14  1  1  0
 15 14  1  0
 16 15  2  0
 17 18  2  0
 17 16  1  0
 18 13  1  0
 19 18  1  0
 20 19  2  0
 21 20  1  0
 22 23  1  0
 22 21  2  0
 23 24  2  0
 24 19  1  0
 26 25  3  0
  1 27  1  0
  3 28  1  0
  3 29  1  0
  4 30  1  6
  5 31  1  0
  5 32  1  0
  6 33  1  0
  6 34  1  0
  7 35  1  0
  8 36  1  0
 11 37  1  0
 15 38  1  0
 16 39  1  0
 17 40  1  0
 20 41  1  0
 21 42  1  0
 22 43  1  0
 23 44  1  0
 24 45  1  0
M  ISO  8  28  13  29  13  30  13  31  13  32  13  33  13  34  13  35  14
M  ISO  8  36  14  37  14  38  14  39  14  40  14  41  14  42  14  43  14
M  ISO  2  44  14  45  14
M  END
>  <minimizedAffinity>  (1) 
-4.71344233

>  <minimizedRMSD>  (1) 
1.00349474

$$$$
