
     RDKit          3D

 44 47  0  0  1  0  0  0  0  0999 V2000
   47.2680   33.3910   43.3840 N   0  0  0  0  0  0  0  0  0  0  0  0
   48.0210   33.7740   42.2140 C   0  0  0  0  0  0  0  0  0  0  0  0
   47.8820   32.5170   41.4140 C   0  0  2  0  0  0  0  0  0  0  0  0
   48.2470   31.4590   42.4290 C   0  0  0  0  0  0  0  0  0  0  0  0
   47.7100   32.0450   43.7120 C   0  0  0  0  0  0  0  0  0  0  0  0
   44.6390   35.7940   44.4930 C   0  0  0  0  0  0  0  0  0  0  0  0
   45.5790   35.1820   43.6690 C   0  0  0  0  0  0  0  0  0  0  0  0
   46.2950   34.0890   44.1260 C   0  0  0  0  0  0  0  0  0  0  0  0
   46.0330   33.6620   45.3930 N   0  0  0  0  0  0  0  0  0  0  0  0
   45.1280   34.2420   46.2040 C   0  0  0  0  0  0  0  0  0  0  0  0
   44.4330   35.3130   45.7400 N   0  0  0  0  0  0  0  0  0  0  0  0
   48.8210   32.4260   40.3370 N   0  0  0  0  0  0  0  0  0  0  0  0
   49.0710   31.8780   37.9270 C   0  0  0  0  0  0  0  0  0  0  0  0
   48.7240   32.7480   38.9550 C   0  0  0  0  0  0  0  0  0  0  0  0
   48.2730   33.9630   38.5190 C   0  0  0  0  0  0  0  0  0  0  0  0
   48.1510   34.3470   37.2140 C   0  0  0  0  0  0  0  0  0  0  0  0
   48.5040   33.4630   36.2360 C   0  0  0  0  0  0  0  0  0  0  0  0
   48.9640   32.2280   36.5980 C   0  0  0  0  0  0  0  0  0  0  0  0
   49.3600   31.2260   35.6120 C   0  0  0  0  0  0  0  0  0  0  0  0
   48.4730   30.3910   34.9650 C   0  0  0  0  0  0  0  0  0  0  0  0
   48.8160   29.4440   34.0380 C   0  0  0  0  0  0  0  0  0  0  0  0
   50.1450   29.2910   33.7050 C   0  0  0  0  0  0  0  0  0  0  0  0
   51.0420   30.1180   34.3440 C   0  0  0  0  0  0  0  0  0  0  0  0
   50.6450   31.0320   35.2480 N   0  0  0  0  0  0  0  0  0  0  0  0
   49.9580   29.5110   38.6240 N   0  0  0  0  0  0  0  0  0  0  0  0
   49.5650   30.5540   38.3050 C   0  0  0  0  0  0  0  0  0  0  0  0
   47.5736   34.6387   41.7020 H   0  0  0  0  0  0  0  0  0  0  0  0
   49.0549   34.0972   42.4056 H   0  0  0  0  0  0  0  0  0  0  0  0
   46.8846   32.4403   40.9566 H   0  0  0  0  0  0  0  0  0  0  0  0
   47.7624   30.4994   42.1959 H   0  0  0  0  0  0  0  0  0  0  0  0
   49.3234   31.2349   42.4638 H   0  0  0  0  0  0  0  0  0  0  0  0
   48.4997   32.0779   44.4771 H   0  0  0  0  0  0  0  0  0  0  0  0
   46.8871   31.4386   44.1184 H   0  0  0  0  0  0  0  0  0  0  0  0
   44.0680   36.6624   44.1326 H   0  0  0  0  0  0  0  0  0  0  0  0
   45.7531   35.5673   42.6535 H   0  0  0  0  0  0  0  0  0  0  0  0
   44.9553   33.8570   47.2199 H   0  0  0  0  0  0  0  0  0  0  0  0
   49.7414   32.0574   40.6159 H   0  0  0  0  0  0  0  0  0  0  0  0
   47.9830   34.6955   39.2867 H   0  0  0  0  0  0  0  0  0  0  0  0
   47.7758   35.3485   36.9565 H   0  0  0  0  0  0  0  0  0  0  0  0
   48.4197   33.7397   35.1747 H   0  0  0  0  0  0  0  0  0  0  0  0
   47.4064   30.4942   35.2134 H   0  0  0  0  0  0  0  0  0  0  0  0
   48.0450   28.8163   33.5672 H   0  0  0  0  0  0  0  0  0  0  0  0
   50.4727   28.5454   32.9656 H   0  0  0  0  0  0  0  0  0  0  0  0
   52.1128   30.0288   34.1087 H   0  0  0  0  0  0  0  0  0  0  0  0
  1  5  1  0
  1  8  1  0
  2  1  1  0
  3  2  1  0
  3  4  1  0
  4  5  1  0
  6 11  2  0
  7  8  2  0
  7  6  1  0
  8  9  1  0
  9 10  2  0
 11 10  1  0
 12  3  1  0
 13 26  1  0
 13 14  2  0
 14 12  1  0
 15 14  1  0
 16 15  2  0
 17 18  2  0
 17 16  1  0
 18 13  1  0
 19 18  1  0
 20 19  2  0
 21 20  1  0
 22 21  2  0
 22 23  1  0
 23 24  2  0
 24 19  1  0
 26 25  3  0
  2 27  1  0
  2 28  1  0
  3 29  1  6
  4 30  1  0
  4 31  1  0
  5 32  1  0
  5 33  1  0
  6 34  1  0
  7 35  1  0
 10 36  1  0
 12 37  1  0
 15 38  1  0
 16 39  1  0
 17 40  1  0
 20 41  1  0
 21 42  1  0
 22 43  1  0
 23 44  1  0
M  ISO  8  27  13  28  13  29  13  30  13  31  13  32  13  33  13  34  14
M  ISO  8  35  14  36  14  38  14  39  14  40  14  41  14  42  14  43  14
M  ISO  1  44  14
M  END
>  <minimizedAffinity>  (1) 
-4.69037867

>  <minimizedRMSD>  (1) 
0.880392194

$$$$
