
     RDKit          3D

 41 44  0  0  1  0  0  0  0  0999 V2000
   47.3580   33.5270   43.1500 N   0  0  0  0  0  0  0  0  0  0  0  0
   48.0990   33.8770   41.9500 C   0  0  0  0  0  0  0  0  0  0  0  0
   48.0050   32.5500   41.2410 C   0  0  2  0  0  0  0  0  0  0  0  0
   48.4390   31.5940   42.3410 C   0  0  0  0  0  0  0  0  0  0  0  0
   47.8290   32.2120   43.5690 C   0  0  0  0  0  0  0  0  0  0  0  0
   44.7320   35.9740   44.1360 C   0  0  0  0  0  0  0  0  0  0  0  0
   45.6930   35.3530   43.3520 C   0  0  0  0  0  0  0  0  0  0  0  0
   46.3700   34.2360   43.8490 C   0  0  0  0  0  0  0  0  0  0  0  0
   46.0320   33.8190   45.1050 N   0  0  0  0  0  0  0  0  0  0  0  0
   45.1050   34.4140   45.8650 C   0  0  0  0  0  0  0  0  0  0  0  0
   44.4510   35.4960   45.3840 N   0  0  0  0  0  0  0  0  0  0  0  0
   48.9460   32.4170   40.1730 N   0  0  0  0  0  0  0  0  0  0  0  0
   49.3190   31.8100   37.8020 C   0  0  0  0  0  0  0  0  0  0  0  0
   48.8410   32.6640   38.7880 C   0  0  0  0  0  0  0  0  0  0  0  0
   48.2490   33.7830   38.2620 C   0  0  0  0  0  0  0  0  0  0  0  0
   48.1020   34.1050   36.9450 C   0  0  0  0  0  0  0  0  0  0  0  0
   48.5930   33.2270   36.0240 C   0  0  0  0  0  0  0  0  0  0  0  0
   49.2100   32.0600   36.4510 C   0  0  0  0  0  0  0  0  0  0  0  0
   49.7570   31.0790   35.5060 C   0  0  0  0  0  0  0  0  0  0  0  0
   48.8590   30.1900   34.8460 C   0  0  0  0  0  0  0  0  0  0  0  0
   49.9910   29.1530   33.7680 S   0  0  0  0  0  0  0  0  0  0  0  0
   51.4750   30.1350   34.4270 C   0  0  0  0  0  0  0  0  0  0  0  0
   51.0140   30.8730   35.1450 N   0  0  0  0  0  0  0  0  0  0  0  0
   50.4890   29.5970   38.6070 N   0  0  0  0  0  0  0  0  0  0  0  0
   49.9730   30.5740   38.2400 C   0  0  0  0  0  0  0  0  0  0  0  0
   47.6142   34.6858   41.3836 H   0  0  0  0  0  0  0  0  0  0  0  0
   49.1160   34.2644   42.1101 H   0  0  0  0  0  0  0  0  0  0  0  0
   47.0099   32.3932   40.7992 H   0  0  0  0  0  0  0  0  0  0  0  0
   48.0439   30.5823   42.1671 H   0  0  0  0  0  0  0  0  0  0  0  0
   49.5298   31.4695   42.4085 H   0  0  0  0  0  0  0  0  0  0  0  0
   48.5819   32.3089   44.3651 H   0  0  0  0  0  0  0  0  0  0  0  0
   47.0126   31.5958   43.9736 H   0  0  0  0  0  0  0  0  0  0  0  0
   44.1949   36.8536   43.7516 H   0  0  0  0  0  0  0  0  0  0  0  0
   45.9206   35.7368   42.3466 H   0  0  0  0  0  0  0  0  0  0  0  0
   44.8774   34.0276   46.8694 H   0  0  0  0  0  0  0  0  0  0  0  0
   49.8723   32.0780   40.4697 H   0  0  0  0  0  0  0  0  0  0  0  0
   47.8455   34.5054   38.9868 H   0  0  0  0  0  0  0  0  0  0  0  0
   47.6062   35.0375   36.6372 H   0  0  0  0  0  0  0  0  0  0  0  0
   48.5004   33.4428   34.9494 H   0  0  0  0  0  0  0  0  0  0  0  0
   47.7653   30.1272   34.9451 H   0  0  0  0  0  0  0  0  0  0  0  0
   52.5373   30.0131   34.1690 H   0  0  0  0  0  0  0  0  0  0  0  0
  1  5  1  0
  1  8  1  0
  2  1  1  0
  3  2  1  0
  3  4  1  0
  4  5  1  0
  6 11  2  0
  7  8  2  0
  7  6  1  0
  8  9  1  0
  9 10  2  0
 11 10  1  0
 12  3  1  0
 13 25  1  0
 13 14  2  0
 14 12  1  0
 15 14  1  0
 16 15  2  0
 17 18  2  0
 17 16  1  0
 18 13  1  0
 19 18  1  0
 20 19  2  0
 21 22  1  0
 21 20  1  0
 22 23  2  0
 23 19  1  0
 25 24  3  0
  2 26  1  0
  2 27  1  0
  3 28  1  6
  4 29  1  0
  4 30  1  0
  5 31  1  0
  5 32  1  0
  6 33  1  0
  7 34  1  0
 10 35  1  0
 12 36  1  0
 15 37  1  0
 16 38  1  0
 17 39  1  0
 20 40  1  0
 22 41  1  0
M  ISO  8  26  13  27  13  28  13  29  13  30  13  31  13  32  13  33  14
M  ISO  7  34  14  35  14  37  14  38  14  39  14  40  14  41  14
M  END
>  <minimizedAffinity>  (1) 
-4.65531826

>  <minimizedRMSD>  (1) 
0.961412013

$$$$
