
     RDKit          3D

 37 39  0  0  1  0  0  0  0  0999 V2000
   47.3430   33.3970   43.6400 N   0  0  0  0  0  0  0  0  0  0  0  0
   48.1460   34.0360   42.6040 C   0  0  0  0  0  0  0  0  0  0  0  0
   48.0220   32.9840   41.5420 C   0  0  2  0  0  0  0  0  0  0  0  0
   48.3660   31.7230   42.3210 C   0  0  0  0  0  0  0  0  0  0  0  0
   47.7590   32.0120   43.6710 C   0  0  0  0  0  0  0  0  0  0  0  0
   44.5670   35.4100   45.0820 C   0  0  0  0  0  0  0  0  0  0  0  0
   45.5100   34.9720   44.1520 C   0  0  0  0  0  0  0  0  0  0  0  0
   46.3550   33.9310   44.4790 C   0  0  0  0  0  0  0  0  0  0  0  0
   46.2130   33.3800   45.7220 N   0  0  0  0  0  0  0  0  0  0  0  0
   45.3040   33.8010   46.6210 C   0  0  0  0  0  0  0  0  0  0  0  0
   44.4730   34.8270   46.2940 N   0  0  0  0  0  0  0  0  0  0  0  0
   49.0090   33.1180   40.5040 N   0  0  0  0  0  0  0  0  0  0  0  0
   49.4550   32.2390   38.2210 C   0  0  0  0  0  0  0  0  0  0  0  0
   48.8890   33.1850   39.0980 C   0  0  0  0  0  0  0  0  0  0  0  0
   48.1990   34.1920   38.4620 C   0  0  0  0  0  0  0  0  0  0  0  0
   48.0430   34.3190   37.1120 C   0  0  0  0  0  0  0  0  0  0  0  0
   48.6090   33.3780   36.2790 C   0  0  0  0  0  0  0  0  0  0  0  0
   49.3050   32.3550   36.8570 C   0  0  0  0  0  0  0  0  0  0  0  0
   49.8870   31.3860   35.9940 N   0  0  0  0  0  0  0  0  0  0  0  0
   50.7730   30.2640   39.2860 N   0  0  0  0  0  0  0  0  0  0  0  0
   50.1980   31.1430   38.8100 C   0  0  0  0  0  0  0  0  0  0  0  0
   47.7200   34.9987   42.2849 H   0  0  0  0  0  0  0  0  0  0  0  0
   49.1733   34.3021   42.8936 H   0  0  0  0  0  0  0  0  0  0  0  0
   47.0390   33.0178   41.0495 H   0  0  0  0  0  0  0  0  0  0  0  0
   47.9119   30.8329   41.8611 H   0  0  0  0  0  0  0  0  0  0  0  0
   49.4435   31.5045   42.3572 H   0  0  0  0  0  0  0  0  0  0  0  0
   48.5039   31.8556   44.4651 H   0  0  0  0  0  0  0  0  0  0  0  0
   46.9104   31.3438   43.8795 H   0  0  0  0  0  0  0  0  0  0  0  0
   43.8929   36.2400   44.8237 H   0  0  0  0  0  0  0  0  0  0  0  0
   45.5796   35.4529   43.1651 H   0  0  0  0  0  0  0  0  0  0  0  0
   45.2340   33.3211   47.6083 H   0  0  0  0  0  0  0  0  0  0  0  0
   49.9781   33.1755   40.8481 H   0  0  0  0  0  0  0  0  0  0  0  0
   47.7332   34.9605   39.0963 H   0  0  0  0  0  0  0  0  0  0  0  0
   47.4728   35.1617   36.6941 H   0  0  0  0  0  0  0  0  0  0  0  0
   48.5037   33.4486   35.1863 H   0  0  0  0  0  0  0  0  0  0  0  0
   50.4202   30.5983   36.3893 H   0  0  0  0  0  0  0  0  0  0  0  0
   49.7754   31.4718   34.9737 H   0  0  0  0  0  0  0  0  0  0  0  0
  1  5  1  0
  1  8  1  0
  2  1  1  0
  3  4  1  0
  3  2  1  0
  4  5  1  0
  6 11  2  0
  7  8  2  0
  7  6  1  0
  8  9  1  0
  9 10  2  0
 11 10  1  0
 12  3  1  0
 13 21  1  0
 13 14  2  0
 14 12  1  0
 15 14  1  0
 16 15  2  0
 17 18  2  0
 17 16  1  0
 18 13  1  0
 19 18  1  0
 21 20  3  0
  2 22  1  0
  2 23  1  0
  3 24  1  6
  4 25  1  0
  4 26  1  0
  5 27  1  0
  5 28  1  0
  6 29  1  0
  7 30  1  0
 10 31  1  0
 12 32  1  0
 15 33  1  0
 16 34  1  0
 17 35  1  0
 19 36  1  0
 19 37  1  0
M  ISO  8  22  13  23  13  24  13  25  13  26  13  27  13  28  13  29  14
M  ISO  5  30  14  31  14  33  14  34  14  35  14
M  END
>  <minimizedAffinity>  (1) 
-4.40760183

>  <minimizedRMSD>  (1) 
0.0479623713

$$$$
