
     RDKit          3D

 52 55  0  0  1  0  0  0  0  0999 V2000
   48.6350   32.2830   37.0480 C   0  0  0  0  0  0  0  0  0  0  0  0
   47.9560   33.0360   38.0270 C   0  0  0  0  0  0  0  0  0  0  0  0
   46.6530   33.3010   37.7010 C   0  0  0  0  0  0  0  0  0  0  0  0
   46.0090   32.9060   36.5500 C   0  0  0  0  0  0  0  0  0  0  0  0
   46.7170   32.1700   35.6180 C   0  0  0  0  0  0  0  0  0  0  0  0
   48.0280   31.8710   35.8890 C   0  0  0  0  0  0  0  0  0  0  0  0
   49.3200   31.8060   33.7930 C   0  0  0  0  0  0  0  0  0  0  0  0
   49.1170   33.0470   33.6490 O   0  0  0  0  0  0  0  0  0  0  0  0
   48.7200   31.1140   34.8980 N   0  0  0  0  0  0  0  0  0  0  0  0
   49.9440   30.4310   31.6940 C   0  0  0  0  0  0  0  0  0  0  0  0
   50.1440   30.9930   32.9070 C   0  0  0  0  0  0  0  0  0  0  0  0
   51.3850   30.8050   33.5360 C   0  0  0  0  0  0  0  0  0  0  0  0
   52.4060   30.0550   32.9360 C   0  0  0  0  0  0  0  0  0  0  0  0
   52.1840   29.4840   31.6890 C   0  0  0  0  0  0  0  0  0  0  0  0
   50.9410   29.6950   31.1010 C   0  0  0  0  0  0  0  0  0  0  0  0
   48.3820   30.7180   31.0160 S   0  0  0  0  0  0  0  0  0  0  0  0
   48.4840   32.0400   30.2560 O   0  0  0  0  0  0  0  0  0  0  0  0
   48.1310   29.6230   29.9830 O   0  0  0  0  0  0  0  0  0  0  0  0
   48.5410   33.4730   39.2240 N   0  0  0  0  0  0  0  0  0  0  0  0
   47.4590   34.5450   42.4520 N   0  0  0  0  0  0  0  0  0  0  0  0
   47.4140   34.7410   41.0020 C   0  0  0  0  0  0  0  0  0  0  0  0
   48.0770   33.4670   40.5780 C   0  0  2  0  0  0  0  0  0  0  0  0
   49.2990   33.4210   41.4780 C   0  0  0  0  0  0  0  0  0  0  0  0
   48.7820   34.0690   42.7430 C   0  0  0  0  0  0  0  0  0  0  0  0
   44.5740   35.8490   44.4190 C   0  0  0  0  0  0  0  0  0  0  0  0
   45.4970   35.7500   43.3730 C   0  0  0  0  0  0  0  0  0  0  0  0
   46.4720   34.7500   43.4330 C   0  0  0  0  0  0  0  0  0  0  0  0
   46.4510   33.9310   44.5230 N   0  0  0  0  0  0  0  0  0  0  0  0
   45.5720   34.0260   45.5180 C   0  0  0  0  0  0  0  0  0  0  0  0
   44.6190   35.0050   45.4590 N   0  0  0  0  0  0  0  0  0  0  0  0
   51.1330   31.6760   37.5350 N   0  0  0  0  0  0  0  0  0  0  0  0
   50.0290   31.9560   37.3220 C   0  0  0  0  0  0  0  0  0  0  0  0
   46.0660   33.8837   38.4261 H   0  0  0  0  0  0  0  0  0  0  0  0
   44.9554   33.1699   36.3759 H   0  0  0  0  0  0  0  0  0  0  0  0
   46.2420   31.8334   34.6847 H   0  0  0  0  0  0  0  0  0  0  0  0
   48.7880   30.0891   34.9739 H   0  0  0  0  0  0  0  0  0  0  0  0
   51.5603   31.2571   34.5234 H   0  0  0  0  0  0  0  0  0  0  0  0
   53.3712   29.9202   33.4462 H   0  0  0  0  0  0  0  0  0  0  0  0
   52.9605   28.8886   31.1865 H   0  0  0  0  0  0  0  0  0  0  0  0
   50.7470   29.2510   30.1134 H   0  0  0  0  0  0  0  0  0  0  0  0
   47.3981   30.7408   31.9691 H   0  0  0  0  0  0  0  0  0  0  0  0
   49.4824   33.8741   39.1068 H   0  0  0  0  0  0  0  0  0  0  0  0
   46.3826   34.8150   40.6267 H   0  0  0  0  0  0  0  0  0  0  0  0
   47.8818   35.6656   40.6329 H   0  0  0  0  0  0  0  0  0  0  0  0
   47.3749   32.6233   40.6497 H   0  0  0  0  0  0  0  0  0  0  0  0
   49.6211   32.3854   41.6622 H   0  0  0  0  0  0  0  0  0  0  0  0
   50.1822   33.9202   41.0528 H   0  0  0  0  0  0  0  0  0  0  0  0
   49.4318   34.9082   43.0319 H   0  0  0  0  0  0  0  0  0  0  0  0
   48.7700   33.3529   43.5779 H   0  0  0  0  0  0  0  0  0  0  0  0
   43.8004   36.6304   44.3877 H   0  0  0  0  0  0  0  0  0  0  0  0
   45.4566   36.4445   42.5209 H   0  0  0  0  0  0  0  0  0  0  0  0
   45.6113   33.3314   46.3701 H   0  0  0  0  0  0  0  0  0  0  0  0
  1 32  1  0
  1  2  2  0
  2 19  1  0
  3  2  1  0
  4  3  2  0
  5  6  2  0
  5  4  1  0
  6  1  1  0
  7  9  1  0
  8  7  2  0
  9  6  1  0
 10 11  2  0
 11 12  1  0
 11  7  1  0
 13 12  2  0
 14 13  1  0
 15 14  2  0
 15 10  1  0
 16 10  1  0
 17 16  2  0
 18 16  2  0
 19 22  1  0
 20 24  1  0
 20 27  1  0
 21 20  1  0
 22 21  1  0
 22 23  1  0
 23 24  1  0
 25 30  2  0
 26 27  2  0
 26 25  1  0
 27 28  1  0
 28 29  2  0
 30 29  1  0
 32 31  3  0
  3 33  1  0
  4 34  1  0
  5 35  1  0
  9 36  1  0
 12 37  1  0
 13 38  1  0
 14 39  1  0
 15 40  1  0
 16 41  1  0
 19 42  1  0
 21 43  1  0
 21 44  1  0
 22 45  1  6
 23 46  1  0
 23 47  1  0
 24 48  1  0
 24 49  1  0
 25 50  1  0
 26 51  1  0
 29 52  1  0
M  ISO  8  33  14  34  14  35  14  37  14  38  14  39  14  40  14  41  11
M  ISO  8  43  13  44  13  45  13  46  13  47  13  48  13  49  13  50  14
M  ISO  2  51  14  52  14
M  END
>  <minimizedAffinity>  (1) 
-6.15479708

>  <minimizedRMSD>  (1) 
0.980130374

$$$$
