
     RDKit          3D

 53 56  0  0  1  0  0  0  0  0999 V2000
   47.8820   32.0880   36.4120 C   0  0  0  0  0  0  0  0  0  0  0  0
   47.4030   32.6860   37.5990 C   0  0  0  0  0  0  0  0  0  0  0  0
   46.0960   33.0770   37.5100 C   0  0  0  0  0  0  0  0  0  0  0  0
   45.2670   32.9390   36.4180 C   0  0  0  0  0  0  0  0  0  0  0  0
   45.7820   32.3520   35.2910 C   0  0  0  0  0  0  0  0  0  0  0  0
   47.0830   31.9380   35.3130 C   0  0  0  0  0  0  0  0  0  0  0  0
   48.1530   32.1310   33.1000 C   0  0  0  0  0  0  0  0  0  0  0  0
   48.2020   33.4070   33.2760 O   0  0  0  0  0  0  0  0  0  0  0  0
   47.5940   31.3300   34.1210 N   0  0  0  0  0  0  0  0  0  0  0  0
   48.6350   31.4430   31.9160 N   0  0  0  0  0  0  0  0  0  0  0  0
   48.8380   30.0230   31.9190 C   0  0  0  0  0  0  0  0  0  0  0  0
   48.7730   29.4680   30.5180 C   0  0  0  0  0  0  0  0  0  0  0  0
   48.4040   30.4500   29.5200 N   0  0  0  0  0  0  0  0  0  0  0  0
   49.3630   31.5470   29.6450 C   0  0  0  0  0  0  0  0  0  0  0  0
   48.8630   32.3800   30.8040 C   0  0  0  0  0  0  0  0  0  0  0  0
   48.1730   32.8700   38.7600 N   0  0  0  0  0  0  0  0  0  0  0  0
   47.4240   34.2150   41.9660 N   0  0  0  0  0  0  0  0  0  0  0  0
   47.2650   34.3140   40.5220 C   0  0  0  0  0  0  0  0  0  0  0  0
   47.8290   32.9810   40.1370 C   0  0  2  0  0  0  0  0  0  0  0  0
   49.1210   32.9580   40.9310 C   0  0  0  0  0  0  0  0  0  0  0  0
   48.7430   33.6780   42.1930 C   0  0  0  0  0  0  0  0  0  0  0  0
   44.8000   35.8470   44.0570 C   0  0  0  0  0  0  0  0  0  0  0  0
   45.6340   35.6130   42.9740 C   0  0  0  0  0  0  0  0  0  0  0  0
   46.5330   34.5480   43.0030 C   0  0  0  0  0  0  0  0  0  0  0  0
   46.5290   33.7910   44.1250 N   0  0  0  0  0  0  0  0  0  0  0  0
   45.7340   33.9990   45.1820 C   0  0  0  0  0  0  0  0  0  0  0  0
   44.8600   35.0500   45.1300 N   0  0  0  0  0  0  0  0  0  0  0  0
   50.3640   31.2830   36.4170 N   0  0  0  0  0  0  0  0  0  0  0  0
   49.2690   31.6400   36.4170 C   0  0  0  0  0  0  0  0  0  0  0  0
   45.6612   33.5508   38.4024 H   0  0  0  0  0  0  0  0  0  0  0  0
   44.2246   33.2888   36.4495 H   0  0  0  0  0  0  0  0  0  0  0  0
   45.1627   32.2180   34.3918 H   0  0  0  0  0  0  0  0  0  0  0  0
   47.5539   30.3070   34.0079 H   0  0  0  0  0  0  0  0  0  0  0  0
   49.8259   29.8011   32.3490 H   0  0  0  0  0  0  0  0  0  0  0  0
   48.0441   29.5553   32.5199 H   0  0  0  0  0  0  0  0  0  0  0  0
   49.7625   29.0637   30.2583 H   0  0  0  0  0  0  0  0  0  0  0  0
   47.9900   28.6954   30.5140 H   0  0  0  0  0  0  0  0  0  0  0  0
   47.4478   30.7915   29.6929 H   0  0  0  0  0  0  0  0  0  0  0  0
   50.3697   31.1572   29.8560 H   0  0  0  0  0  0  0  0  0  0  0  0
   49.4385   32.1349   28.7183 H   0  0  0  0  0  0  0  0  0  0  0  0
   49.6157   33.1308   31.0864 H   0  0  0  0  0  0  0  0  0  0  0  0
   47.9420   32.9207   30.5406 H   0  0  0  0  0  0  0  0  0  0  0  0
   49.1847   32.9379   38.5793 H   0  0  0  0  0  0  0  0  0  0  0  0
   46.2098   34.4166   40.2285 H   0  0  0  0  0  0  0  0  0  0  0  0
   47.7423   35.1857   40.0504 H   0  0  0  0  0  0  0  0  0  0  0  0
   47.1042   32.1754   40.3257 H   0  0  0  0  0  0  0  0  0  0  0  0
   49.4388   31.9263   41.1424 H   0  0  0  0  0  0  0  0  0  0  0  0
   49.9680   33.4187   40.4015 H   0  0  0  0  0  0  0  0  0  0  0  0
   49.4561   34.4902   42.3976 H   0  0  0  0  0  0  0  0  0  0  0  0
   48.7586   33.0030   43.0614 H   0  0  0  0  0  0  0  0  0  0  0  0
   44.0900   36.6869   44.0339 H   0  0  0  0  0  0  0  0  0  0  0  0
   45.5861   36.2681   42.0916 H   0  0  0  0  0  0  0  0  0  0  0  0
   45.7822   33.3449   46.0651 H   0  0  0  0  0  0  0  0  0  0  0  0
  1 29  1  0
  1  2  2  0
  2 16  1  0
  3  2  1  0
  4  3  2  0
  5  6  2  0
  5  4  1  0
  6  1  1  0
  7  8  2  0
  7  9  1  0
  9  6  1  0
 10 11  1  0
 10  7  1  0
 12 11  1  0
 13 14  1  0
 13 12  1  0
 14 15  1  0
 15 10  1  0
 16 19  1  0
 17 21  1  0
 17 24  1  0
 18 17  1  0
 19 18  1  0
 19 20  1  0
 20 21  1  0
 22 27  2  0
 23 24  2  0
 23 22  1  0
 24 25  1  0
 25 26  2  0
 27 26  1  0
 29 28  3  0
  3 30  1  0
  4 31  1  0
  5 32  1  0
  9 33  1  0
 11 34  1  0
 11 35  1  0
 12 36  1  0
 12 37  1  0
 13 38  1  0
 14 39  1  0
 14 40  1  0
 15 41  1  0
 15 42  1  0
 16 43  1  0
 18 44  1  0
 18 45  1  0
 19 46  1  1
 20 47  1  0
 20 48  1  0
 21 49  1  0
 21 50  1  0
 22 51  1  0
 23 52  1  0
 26 53  1  0
M  ISO  8  30  14  31  14  32  14  34  13  35  13  36  13  37  13  38   5
M  ISO  8  39  13  40  13  41  13  42  13  44  13  45  13  46  13  47  13
M  ISO  6  48  13  49  13  50  13  51  14  52  14  53  14
M  END
>  <minimizedAffinity>  (1) 
-6.01583099

>  <minimizedRMSD>  (1) 
1.37100327

$$$$
