
     RDKit          3D

 40 42  0  0  1  0  0  0  0  0999 V2000
   47.5310   34.4870   42.4310 N   0  0  0  0  0  0  0  0  0  0  0  0
   47.5340   34.6950   40.9830 C   0  0  0  0  0  0  0  0  0  0  0  0
   48.1750   33.3960   40.5800 C   0  0  2  0  0  0  0  0  0  0  0  0
   49.3560   33.3060   41.5140 C   0  0  0  0  0  0  0  0  0  0  0  0
   48.8350   33.9720   42.7580 C   0  0  0  0  0  0  0  0  0  0  0  0
   44.6080   35.8410   44.3140 C   0  0  0  0  0  0  0  0  0  0  0  0
   45.5580   35.7080   43.3030 C   0  0  0  0  0  0  0  0  0  0  0  0
   46.5370   34.7070   43.3840 C   0  0  0  0  0  0  0  0  0  0  0  0
   46.4830   33.9150   44.4820 N   0  0  0  0  0  0  0  0  0  0  0  0
   45.5740   34.0320   45.4590 C   0  0  0  0  0  0  0  0  0  0  0  0
   44.6360   35.0050   45.3650 N   0  0  0  0  0  0  0  0  0  0  0  0
   48.6700   33.4030   39.2390 N   0  0  0  0  0  0  0  0  0  0  0  0
   48.8390   32.2630   37.0310 C   0  0  0  0  0  0  0  0  0  0  0  0
   48.1190   32.9780   38.0170 C   0  0  0  0  0  0  0  0  0  0  0  0
   46.8220   33.2240   37.6720 C   0  0  0  0  0  0  0  0  0  0  0  0
   46.2090   32.8490   36.5100 C   0  0  0  0  0  0  0  0  0  0  0  0
   46.9450   32.1540   35.5790 C   0  0  0  0  0  0  0  0  0  0  0  0
   48.2580   31.8710   35.8580 C   0  0  0  0  0  0  0  0  0  0  0  0
   49.4160   31.8270   33.7050 C   0  0  0  0  0  0  0  0  0  0  0  0
   49.1800   33.0770   33.5550 O   0  0  0  0  0  0  0  0  0  0  0  0
   49.0010   31.1500   34.8750 N   0  0  0  0  0  0  0  0  0  0  0  0
   50.0900   31.2080   32.6600 O   0  0  0  0  0  0  0  0  0  0  0  0
   51.3360   31.7280   37.5460 N   0  0  0  0  0  0  0  0  0  0  0  0
   50.2240   31.9640   37.3270 C   0  0  0  0  0  0  0  0  0  0  0  0
   46.5175   34.8007   40.5762 H   0  0  0  0  0  0  0  0  0  0  0  0
   48.0355   35.6081   40.6299 H   0  0  0  0  0  0  0  0  0  0  0  0
   47.4544   32.5665   40.6322 H   0  0  0  0  0  0  0  0  0  0  0  0
   49.6307   32.2588   41.7085 H   0  0  0  0  0  0  0  0  0  0  0  0
   50.2687   33.7725   41.1149 H   0  0  0  0  0  0  0  0  0  0  0  0
   49.5033   34.7926   43.0579 H   0  0  0  0  0  0  0  0  0  0  0  0
   48.7833   33.2624   43.5970 H   0  0  0  0  0  0  0  0  0  0  0  0
   43.8398   36.6259   44.2517 H   0  0  0  0  0  0  0  0  0  0  0  0
   45.5399   36.3895   42.4397 H   0  0  0  0  0  0  0  0  0  0  0  0
   45.5889   33.3503   46.3221 H   0  0  0  0  0  0  0  0  0  0  0  0
   49.6174   33.7972   39.1503 H   0  0  0  0  0  0  0  0  0  0  0  0
   46.2108   33.7778   38.3998 H   0  0  0  0  0  0  0  0  0  0  0  0
   45.1535   33.0967   36.3238 H   0  0  0  0  0  0  0  0  0  0  0  0
   46.4904   31.8318   34.6306 H   0  0  0  0  0  0  0  0  0  0  0  0
   49.2304   30.1557   35.0154 H   0  0  0  0  0  0  0  0  0  0  0  0
   50.3568   31.7321   31.8636 H   0  0  0  0  0  0  0  0  0  0  0  0
  1  5  1  0
  1  8  1  0
  2  1  1  0
  3  2  1  0
  3  4  1  0
  4  5  1  0
  6 11  2  0
  7  8  2  0
  7  6  1  0
  8  9  1  0
  9 10  2  0
 11 10  1  0
 12  3  1  0
 13 24  1  0
 13 14  2  0
 14 12  1  0
 15 14  1  0
 16 15  2  0
 17 18  2  0
 17 16  1  0
 18 13  1  0
 19 21  1  0
 20 19  2  0
 21 18  1  0
 22 19  1  0
 24 23  3  0
  2 25  1  0
  2 26  1  0
  3 27  1  6
  4 28  1  0
  4 29  1  0
  5 30  1  0
  5 31  1  0
  6 32  1  0
  7 33  1  0
 10 34  1  0
 12 35  1  0
 15 36  1  0
 16 37  1  0
 17 38  1  0
 21 39  1  0
 22 40  1  0
M  ISO  8  25  13  26  13  27  13  28  13  29  13  30  13  31  13  32  14
M  ISO  6  33  14  34  14  36  14  37  14  38  14  40   3
M  END
>  <minimizedAffinity>  (1) 
-5.12875938

>  <minimizedRMSD>  (1) 
0.0709731281

$$$$
