
     RDKit          3D

 28 29  0  0  0  0  0  0  0  0999 V2000
   46.6980   34.3350   41.2830 C   0  0  0  0  0  0  0  0  0  0  0  0
   45.1910   36.2330   43.0340 Cl  0  0  0  0  0  0  0  0  0  0  0  0
   45.7100   34.6390   43.5540 C   0  0  0  0  0  0  0  0  0  0  0  0
   46.3970   33.8530   42.6610 C   0  0  0  0  0  0  0  0  0  0  0  0
   46.8050   32.5990   43.0720 C   0  0  0  0  0  0  0  0  0  0  0  0
   46.5210   32.1620   44.3510 C   0  0  0  0  0  0  0  0  0  0  0  0
   45.8240   32.9580   45.2590 C   0  0  0  0  0  0  0  0  0  0  0  0
   45.4260   34.2090   44.8230 C   0  0  0  0  0  0  0  0  0  0  0  0
   44.6930   35.0570   45.7630 C   0  0  0  0  0  0  0  0  0  0  0  0
   44.3640   34.6540   46.9080 O   0  0  0  0  0  0  0  0  0  0  0  0
   48.0530   34.9650   41.1540 C   0  0  0  0  0  0  0  0  0  0  0  0
   49.0980   33.9620   41.2390 C   0  0  0  0  0  0  0  0  0  0  0  0
   49.1360   32.9030   40.3500 C   0  0  0  0  0  0  0  0  0  0  0  0
   50.1460   31.9310   40.4280 C   0  0  0  0  0  0  0  0  0  0  0  0
   51.0500   32.1080   41.4130 N   0  0  0  0  0  0  0  0  0  0  0  0
   51.0120   33.1490   42.2860 C   0  0  0  0  0  0  0  0  0  0  0  0
   50.0370   34.0590   42.1850 N   0  0  0  0  0  0  0  0  0  0  0  0
   46.6450   33.4785   40.5949 H   0  0  0  0  0  0  0  0  0  0  0  0
   45.9557   35.1099   41.0411 H   0  0  0  0  0  0  0  0  0  0  0  0
   47.3573   31.9471   42.3792 H   0  0  0  0  0  0  0  0  0  0  0  0
   46.8532   31.1603   44.6612 H   0  0  0  0  0  0  0  0  0  0  0  0
   45.6005   32.6067   46.2771 H   0  0  0  0  0  0  0  0  0  0  0  0
   44.4212   36.0786   45.4590 H   0  0  0  0  0  0  0  0  0  0  0  0
   48.1889   35.6969   41.9638 H   0  0  0  0  0  0  0  0  0  0  0  0
   48.1193   35.4610   40.1744 H   0  0  0  0  0  0  0  0  0  0  0  0
   48.3639   32.8212   39.5708 H   0  0  0  0  0  0  0  0  0  0  0  0
   50.1967   31.0810   39.7316 H   0  0  0  0  0  0  0  0  0  0  0  0
   51.7778   33.2425   43.0701 H   0  0  0  0  0  0  0  0  0  0  0  0
  1  4  1  0
  2  3  1  0
  3  8  2  0
  4  5  2  0
  4  3  1  0
  5  6  1  0
  6  7  2  0
  8  7  1  0
  8  9  1  0
  9 10  2  0
 11 12  1  0
 11  1  1  0
 12 17  2  0
 13 14  2  0
 13 12  1  0
 14 15  1  0
 15 16  2  0
 17 16  1  0
  1 18  1  0
  1 19  1  0
  5 20  1  0
  6 21  1  0
  7 22  1  0
  9 23  1  0
 11 24  1  0
 11 25  1  0
 13 26  1  0
 14 27  1  0
 16 28  1  0
M  ISO  8  18   8  19   8  20  14  21  14  22  14  23   6  24   8  25   8
M  ISO  3  26  14  27  14  28  14
M  END
>  <minimizedAffinity>  (1) 
-4.37271786

>  <minimizedRMSD>  (1) 
1.10231054

$$$$
