
     RDKit          3D

 43 46  0  0  0  0  0  0  0  0999 V2000
   45.6430   31.5840   47.1020 C   0  0  0  0  0  0  0  0  0  0  0  0
   45.5530   32.0430   48.4340 C   0  0  0  0  0  0  0  0  0  0  0  0
   45.3260   31.2000   49.5090 C   0  0  0  0  0  0  0  0  0  0  0  0
   45.1840   29.8630   49.2520 C   0  0  0  0  0  0  0  0  0  0  0  0
   45.2740   29.4110   47.9320 C   0  0  0  0  0  0  0  0  0  0  0  0
   45.4940   30.2720   46.9430 N   0  0  0  0  0  0  0  0  0  0  0  0
   44.7740   36.5900   43.8530 C   0  0  0  0  0  0  0  0  0  0  0  0
   45.6710   36.3230   42.8280 C   0  0  0  0  0  0  0  0  0  0  0  0
   46.3380   35.0870   42.8510 C   0  0  0  0  0  0  0  0  0  0  0  0
   46.0740   34.2130   43.8710 N   0  0  0  0  0  0  0  0  0  0  0  0
   45.1780   34.5340   44.8530 C   0  0  0  0  0  0  0  0  0  0  0  0
   44.5260   35.7290   44.8420 N   0  0  0  0  0  0  0  0  0  0  0  0
   45.8850   32.5500   46.0410 C   0  0  0  0  0  0  0  0  0  0  0  0
   46.9180   32.3980   45.3240 O   0  0  0  0  0  0  0  0  0  0  0  0
   44.9400   33.6010   45.8830 N   0  0  0  0  0  0  0  0  0  0  0  0
   45.1230   27.9930   47.6750 C   0  0  0  0  0  0  0  0  0  0  0  0
   44.5450   27.2060   48.5850 C   0  0  0  0  0  0  0  0  0  0  0  0
   44.3340   25.7350   48.4340 C   0  0  0  0  0  0  0  0  0  0  0  0
   46.5890   24.7430   48.3570 C   0  0  0  0  0  0  0  0  0  0  0  0
   45.4510   25.0200   49.1120 C   0  0  0  0  0  0  0  0  0  0  0  0
   45.4740   24.6020   50.4200 C   0  0  0  0  0  0  0  0  0  0  0  0
   46.5900   23.9430   50.9190 C   0  0  0  0  0  0  0  0  0  0  0  0
   46.8390   23.4490   52.1430 N   0  0  0  0  0  0  0  0  0  0  0  0
   48.0720   22.8890   52.1580 C   0  0  0  0  0  0  0  0  0  0  0  0
   48.5990   23.0400   50.9110 N   0  0  0  0  0  0  0  0  0  0  0  0
   47.7040   23.6790   50.1530 C   0  0  0  0  0  0  0  0  0  0  0  0
   47.7000   24.0920   48.8370 C   0  0  0  0  0  0  0  0  0  0  0  0
   45.6685   33.1198   48.6269 H   0  0  0  0  0  0  0  0  0  0  0  0
   45.2620   31.5916   50.5349 H   0  0  0  0  0  0  0  0  0  0  0  0
   45.0016   29.1538   50.0729 H   0  0  0  0  0  0  0  0  0  0  0  0
   44.2441   37.5539   43.8500 H   0  0  0  0  0  0  0  0  0  0  0  0
   45.8531   37.0535   42.0260 H   0  0  0  0  0  0  0  0  0  0  0  0
   47.0599   34.8259   42.0631 H   0  0  0  0  0  0  0  0  0  0  0  0
   44.1156   33.6775   46.4958 H   0  0  0  0  0  0  0  0  0  0  0  0
   45.4852   27.5646   46.7288 H   0  0  0  0  0  0  0  0  0  0  0  0
   44.1977   27.6763   49.5168 H   0  0  0  0  0  0  0  0  0  0  0  0
   43.3773   25.4490   48.8955 H   0  0  0  0  0  0  0  0  0  0  0  0
   44.3105   25.4674   47.3673 H   0  0  0  0  0  0  0  0  0  0  0  0
   46.5987   25.0673   47.3059 H   0  0  0  0  0  0  0  0  0  0  0  0
   44.6084   24.7892   51.0725 H   0  0  0  0  0  0  0  0  0  0  0  0
   46.1934   23.4897   52.9445 H   0  0  0  0  0  0  0  0  0  0  0  0
   48.5574   22.4028   53.0171 H   0  0  0  0  0  0  0  0  0  0  0  0
   48.5668   23.9045   48.1862 H   0  0  0  0  0  0  0  0  0  0  0  0
  1  2  2  0
  2  3  1  0
  4  3  2  0
  5  4  1  0
  6  1  1  0
  6  5  2  0
  7 12  2  0
  8  9  2  0
  8  7  1  0
  9 10  1  0
 10 11  2  0
 11 15  1  0
 12 11  1  0
 13  1  1  0
 14 13  2  0
 15 13  1  0
 16  5  1  0
 16 17  2  0
 18 17  1  0
 18 20  1  0
 19 27  2  0
 19 20  1  0
 20 21  2  0
 21 22  1  0
 22 23  1  0
 23 24  1  0
 25 24  2  0
 26 25  1  0
 26 22  2  0
 27 26  1  0
  2 28  1  0
  3 29  1  0
  4 30  1  0
  7 31  1  0
  8 32  1  0
  9 33  1  0
 15 34  1  0
 16 35  1  0
 17 36  1  0
 18 37  1  0
 18 38  1  0
 19 39  1  0
 21 40  1  0
 23 41  1  0
 24 42  1  0
 27 43  1  0
M  ISO  8  28  14  29  14  30  14  31  14  32  14  33  14  37   8  38   8
M  ISO  5  39  14  40  14  41   9  42  14  43  14
M  END
>  <minimizedAffinity>  (1) 
-6.40417862

>  <minimizedRMSD>  (1) 
3.29565287

$$$$
