
     RDKit          3D

 27 28  0  0  0  0  0  0  0  0999 V2000
   46.5690   34.6190   42.1380 C   0  0  0  0  0  0  0  0  0  0  0  0
   44.6750   36.3330   43.6760 Cl  0  0  0  0  0  0  0  0  0  0  0  0
   45.4340   34.9070   44.3590 C   0  0  0  0  0  0  0  0  0  0  0  0
   46.2910   34.2030   43.5380 C   0  0  0  0  0  0  0  0  0  0  0  0
   46.8940   33.0780   44.0670 C   0  0  0  0  0  0  0  0  0  0  0  0
   46.6470   32.6730   45.3700 C   0  0  0  0  0  0  0  0  0  0  0  0
   45.7690   33.4090   46.1870 C   0  0  0  0  0  0  0  0  0  0  0  0
   45.1730   34.5290   45.6490 C   0  0  0  0  0  0  0  0  0  0  0  0
   44.2870   35.3270   46.3740 O   0  0  0  0  0  0  0  0  0  0  0  0
   47.9130   35.2490   41.9630 C   0  0  0  0  0  0  0  0  0  0  0  0
   48.9200   34.2270   41.7510 C   0  0  0  0  0  0  0  0  0  0  0  0
   48.7700   33.2390   40.8040 C   0  0  0  0  0  0  0  0  0  0  0  0
   49.7390   32.2530   40.5960 C   0  0  0  0  0  0  0  0  0  0  0  0
   50.8390   32.3410   41.4000 N   0  0  0  0  0  0  0  0  0  0  0  0
   50.9750   33.3140   42.3250 C   0  0  0  0  0  0  0  0  0  0  0  0
   50.0330   34.2410   42.4990 N   0  0  0  0  0  0  0  0  0  0  0  0
   46.5136   33.7301   41.4924 H   0  0  0  0  0  0  0  0  0  0  0  0
   45.8175   35.3756   41.8682 H   0  0  0  0  0  0  0  0  0  0  0  0
   47.5838   32.4919   43.4420 H   0  0  0  0  0  0  0  0  0  0  0  0
   47.1394   31.7728   45.7665 H   0  0  0  0  0  0  0  0  0  0  0  0
   45.5648   33.1000   47.2228 H   0  0  0  0  0  0  0  0  0  0  0  0
   44.0657   35.0958   47.3109 H   0  0  0  0  0  0  0  0  0  0  0  0
   47.8888   35.9216   41.0929 H   0  0  0  0  0  0  0  0  0  0  0  0
   48.1640   35.8184   42.8701 H   0  0  0  0  0  0  0  0  0  0  0  0
   47.8571   33.2250   40.1905 H   0  0  0  0  0  0  0  0  0  0  0  0
   49.6235   31.4632   39.8391 H   0  0  0  0  0  0  0  0  0  0  0  0
   51.8812   33.3428   42.9479 H   0  0  0  0  0  0  0  0  0  0  0  0
  1  4  1  0
  2  3  1  0
  3  8  2  0
  4  5  2  0
  4  3  1  0
  5  6  1  0
  6  7  2  0
  8  7  1  0
  8  9  1  0
 10  1  1  0
 11 10  1  0
 11 16  1  0
 12 11  2  0
 13 12  1  0
 13 14  2  0
 14 15  1  0
 15 16  2  0
  1 17  1  0
  1 18  1  0
  5 19  1  0
  6 20  1  0
  7 21  1  0
  9 22  1  0
 10 23  1  0
 10 24  1  0
 12 25  1  0
 13 26  1  0
 15 27  1  0
M  ISO  8  17   8  18   8  19  14  20  14  21  14  22   3  23   8  24   8
M  ISO  3  25  14  26  14  27  14
M  END
>  <minimizedAffinity>  (1) 
-5.32600403

>  <minimizedRMSD>  (1) 
0.662308276

$$$$
