
     RDKit          3D

 30 31  0  0  0  0  0  0  0  0999 V2000
   46.6650   34.9260   42.3440 C   0  0  0  0  0  0  0  0  0  0  0  0
   44.6880   36.4260   43.9830 Cl  0  0  0  0  0  0  0  0  0  0  0  0
   45.4730   34.9540   44.5500 C   0  0  0  0  0  0  0  0  0  0  0  0
   46.3640   34.3630   43.6920 C   0  0  0  0  0  0  0  0  0  0  0  0
   46.9830   33.2060   44.1320 C   0  0  0  0  0  0  0  0  0  0  0  0
   46.7180   32.6700   45.3730 C   0  0  0  0  0  0  0  0  0  0  0  0
   45.8050   33.2940   46.2290 C   0  0  0  0  0  0  0  0  0  0  0  0
   45.1950   34.4400   45.7860 C   0  0  0  0  0  0  0  0  0  0  0  0
   44.2620   35.1500   46.5590 O   0  0  0  0  0  0  0  0  0  0  0  0
   48.1220   34.9670   42.0370 C   0  0  0  0  0  0  0  0  0  0  0  0
   48.4410   34.1010   40.9290 C   0  0  0  0  0  0  0  0  0  0  0  0
   47.9910   34.3620   39.6530 C   0  0  0  0  0  0  0  0  0  0  0  0
   48.2930   33.5310   38.5710 C   0  0  0  0  0  0  0  0  0  0  0  0
   49.0700   32.4420   38.8820 N   0  0  0  0  0  0  0  0  0  0  0  0
   49.5010   32.1990   40.1270 C   0  0  0  0  0  0  0  0  0  0  0  0
   49.1910   33.0190   41.1370 N   0  0  0  0  0  0  0  0  0  0  0  0
   50.3270   30.9700   40.2520 C   0  0  0  0  0  0  0  0  0  0  0  0
   46.1654   34.3047   41.5861 H   0  0  0  0  0  0  0  0  0  0  0  0
   46.2996   35.9635   42.3341 H   0  0  0  0  0  0  0  0  0  0  0  0
   47.7054   32.7013   43.4736 H   0  0  0  0  0  0  0  0  0  0  0  0
   47.2263   31.7480   45.6917 H   0  0  0  0  0  0  0  0  0  0  0  0
   45.5835   32.8799   47.2237 H   0  0  0  0  0  0  0  0  0  0  0  0
   44.0199   34.8268   47.4629 H   0  0  0  0  0  0  0  0  0  0  0  0
   48.4069   35.9982   41.7812 H   0  0  0  0  0  0  0  0  0  0  0  0
   48.6766   34.6224   42.9222 H   0  0  0  0  0  0  0  0  0  0  0  0
   47.3728   35.2553   39.4802 H   0  0  0  0  0  0  0  0  0  0  0  0
   47.9364   33.7331   37.5502 H   0  0  0  0  0  0  0  0  0  0  0  0
   50.4821   30.7392   41.3163 H   0  0  0  0  0  0  0  0  0  0  0  0
   49.8097   30.1296   39.7661 H   0  0  0  0  0  0  0  0  0  0  0  0
   51.3006   31.1316   39.7661 H   0  0  0  0  0  0  0  0  0  0  0  0
  1  4  1  0
  2  3  1  0
  3  8  2  0
  4  5  2  0
  4  3  1  0
  5  6  1  0
  6  7  2  0
  8  7  1  0
  8  9  1  0
 10  1  1  0
 11 16  1  0
 11 10  1  0
 12 11  2  0
 13 14  2  0
 13 12  1  0
 14 15  1  0
 15 17  1  0
 15 16  2  0
  1 18  1  0
  1 19  1  0
  5 20  1  0
  6 21  1  0
  7 22  1  0
  9 23  1  0
 10 24  1  0
 10 25  1  0
 12 26  1  0
 13 27  1  0
 17 28  1  0
 17 29  1  0
 17 30  1  0
M  ISO  8  18   8  19   8  20  14  21  14  22  14  23   3  24   8  25   8
M  ISO  5  26  14  27  14  28   8  29   8  30   8
M  END
>  <minimizedAffinity>  (1) 
-5.36703873

>  <minimizedRMSD>  (1) 
1.7332164

$$$$
