
     RDKit          3D

 41 44  0  0  1  0  0  0  0  0999 V2000
   48.3310   34.2000   40.9280 C   0  0  0  0  0  0  0  0  0  0  0  0
   47.8100   34.3040   39.6590 C   0  0  0  0  0  0  0  0  0  0  0  0
   48.1620   33.4420   38.6110 C   0  0  0  0  0  0  0  0  0  0  0  0
   49.0660   32.4770   38.9300 N   0  0  0  0  0  0  0  0  0  0  0  0
   49.5720   32.3810   40.1720 C   0  0  0  0  0  0  0  0  0  0  0  0
   49.2080   33.2270   41.1430 N   0  0  0  0  0  0  0  0  0  0  0  0
   50.5500   31.3010   40.5350 C   0  0  2  0  0  0  0  0  0  0  0  0
   51.1690   31.3380   41.8970 C   0  0  0  0  0  0  0  0  0  0  0  0
   51.9750   31.7140   40.6390 C   0  0  1  0  0  0  0  0  0  0  0  0
   53.0980   30.8040   40.3950 C   0  0  0  0  0  0  0  0  0  0  0  0
   53.6820   30.6600   39.1310 C   0  0  0  0  0  0  0  0  0  0  0  0
   54.6670   29.7560   39.2840 N   0  0  0  0  0  0  0  0  0  0  0  0
   54.6870   29.3670   40.5720 C   0  0  0  0  0  0  0  0  0  0  0  0
   53.7160   30.0080   41.2820 N   0  0  0  0  0  0  0  0  0  0  0  0
   47.9490   35.0900   41.9940 C   0  0  0  0  0  0  0  0  0  0  0  0
   46.5120   34.9380   42.3250 C   0  0  0  0  0  0  0  0  0  0  0  0
   44.5770   36.4050   44.0430 Cl  0  0  0  0  0  0  0  0  0  0  0  0
   45.3900   34.9650   44.5740 C   0  0  0  0  0  0  0  0  0  0  0  0
   46.2650   34.3720   43.6890 C   0  0  0  0  0  0  0  0  0  0  0  0
   46.9210   33.2210   44.1000 C   0  0  0  0  0  0  0  0  0  0  0  0
   46.7020   32.6870   45.3550 C   0  0  0  0  0  0  0  0  0  0  0  0
   45.8040   33.3110   46.2390 C   0  0  0  0  0  0  0  0  0  0  0  0
   45.1580   34.4580   45.8160 C   0  0  0  0  0  0  0  0  0  0  0  0
   44.2520   35.1380   46.6310 O   0  0  0  0  0  0  0  0  0  0  0  0
   47.0814   35.1028   39.4567 H   0  0  0  0  0  0  0  0  0  0  0  0
   47.7368   33.5392   37.6012 H   0  0  0  0  0  0  0  0  0  0  0  0
   50.0042   30.5269   39.9756 H   0  0  0  0  0  0  0  0  0  0  0  0
   50.8742   32.1143   42.6184 H   0  0  0  0  0  0  0  0  0  0  0  0
   51.2914   30.6234   42.7242 H   0  0  0  0  0  0  0  0  0  0  0  0
   52.5111   32.5704   40.2041 H   0  0  0  0  0  0  0  0  0  0  0  0
   53.3951   31.1786   38.2043 H   0  0  0  0  0  0  0  0  0  0  0  0
   55.2975   29.4195   38.5423 H   0  0  0  0  0  0  0  0  0  0  0  0
   55.3897   28.6332   40.9936 H   0  0  0  0  0  0  0  0  0  0  0  0
   48.5497   34.8607   42.8865 H   0  0  0  0  0  0  0  0  0  0  0  0
   48.1250   36.1251   41.6659 H   0  0  0  0  0  0  0  0  0  0  0  0
   46.0360   35.9281   42.2685 H   0  0  0  0  0  0  0  0  0  0  0  0
   46.0888   34.2268   41.6004 H   0  0  0  0  0  0  0  0  0  0  0  0
   47.6263   32.7260   43.4162 H   0  0  0  0  0  0  0  0  0  0  0  0
   47.2306   31.7728   45.6631 H   0  0  0  0  0  0  0  0  0  0  0  0
   45.6201   32.8972   47.2415 H   0  0  0  0  0  0  0  0  0  0  0  0
   44.0558   34.8016   47.5412 H   0  0  0  0  0  0  0  0  0  0  0  0
  1  6  1  0
  1 15  1  0
  2  1  2  0
  3  4  2  0
  3  2  1  0
  4  5  1  0
  5  7  1  0
  5  6  2  0
  7  9  1  0
  7  8  1  0
  9  8  1  0
 10  9  1  0
 10 14  1  0
 11 12  1  0
 11 10  2  0
 12 13  1  0
 13 14  2  0
 15 16  1  0
 16 19  1  0
 17 18  1  0
 18 23  2  0
 19 20  2  0
 19 18  1  0
 20 21  1  0
 21 22  2  0
 23 22  1  0
 23 24  1  0
  2 25  1  0
  3 26  1  0
  7 27  1  6
  8 28  1  0
  8 29  1  0
  9 30  1  1
 11 31  1  0
 12 32  1  0
 13 33  1  0
 15 34  1  0
 15 35  1  0
 16 36  1  0
 16 37  1  0
 20 38  1  0
 21 39  1  0
 22 40  1  0
 24 41  1  0
M  ISO  8  25  14  26  14  27  13  28  13  29  13  30  13  31  14  32   9
M  ISO  8  33  14  34   8  35   8  36   8  37   8  38  14  39  14  40  14
M  ISO  1  41   3
M  END
>  <minimizedAffinity>  (1) 
-5.8776207

>  <minimizedRMSD>  (1) 
0.236015201

$$$$
