
     RDKit          3D

 40 42  0  0  1  0  0  0  0  0999 V2000
   47.9190   35.0680   41.9560 C   0  0  0  0  0  0  0  0  0  0  0  0
   48.3290   34.1670   40.9050 C   0  0  0  0  0  0  0  0  0  0  0  0
   49.1710   33.1020   41.1420 C   0  0  0  0  0  0  0  0  0  0  0  0
   49.5810   32.2140   40.1410 C   0  0  0  0  0  0  0  0  0  0  0  0
   49.0890   32.4720   38.8960 N   0  0  0  0  0  0  0  0  0  0  0  0
   48.2710   33.5100   38.6760 C   0  0  0  0  0  0  0  0  0  0  0  0
   47.9150   34.3160   39.6540 N   0  0  0  0  0  0  0  0  0  0  0  0
   47.7250   33.8160   37.3160 C   0  0  2  0  0  0  0  0  0  0  0  0
   46.3390   33.3650   36.9750 C   0  0  0  0  0  0  0  0  0  0  0  0
   47.5750   32.7260   36.3570 C   0  0  2  0  0  0  0  0  0  0  0  0
   47.9990   31.3570   36.6450 C   0  0  0  0  0  0  0  0  0  0  0  0
   48.9000   30.6400   35.7270 C   0  0  0  0  0  0  0  0  0  0  0  0
   46.4960   34.8780   42.2860 C   0  0  0  0  0  0  0  0  0  0  0  0
   44.5780   36.3960   43.9750 Cl  0  0  0  0  0  0  0  0  0  0  0  0
   45.3920   34.9530   44.5300 C   0  0  0  0  0  0  0  0  0  0  0  0
   46.2580   34.3360   43.6610 C   0  0  0  0  0  0  0  0  0  0  0  0
   46.9040   33.2000   44.0860 C   0  0  0  0  0  0  0  0  0  0  0  0
   46.6880   32.6950   45.3520 C   0  0  0  0  0  0  0  0  0  0  0  0
   45.8090   33.3240   46.2300 C   0  0  0  0  0  0  0  0  0  0  0  0
   45.1720   34.4530   45.7960 C   0  0  0  0  0  0  0  0  0  0  0  0
   44.2640   35.1690   46.5970 O   0  0  0  0  0  0  0  0  0  0  0  0
   48.0762   36.1046   41.6234 H   0  0  0  0  0  0  0  0  0  0  0  0
   48.5190   34.8572   42.8535 H   0  0  0  0  0  0  0  0  0  0  0  0
   49.5382   32.9423   42.1665 H   0  0  0  0  0  0  0  0  0  0  0  0
   50.2531   31.3673   40.3445 H   0  0  0  0  0  0  0  0  0  0  0  0
   48.2402   34.7877   37.2977 H   0  0  0  0  0  0  0  0  0  0  0  0
   45.7370   32.8128   37.7116 H   0  0  0  0  0  0  0  0  0  0  0  0
   45.4230   33.8424   36.5968 H   0  0  0  0  0  0  0  0  0  0  0  0
   47.9170   32.5383   35.3285 H   0  0  0  0  0  0  0  0  0  0  0  0
   48.5025   31.3832   37.6227 H   0  0  0  0  0  0  0  0  0  0  0  0
   47.0614   30.7876   36.5627 H   0  0  0  0  0  0  0  0  0  0  0  0
   49.6302   30.0589   36.3094 H   0  0  0  0  0  0  0  0  0  0  0  0
   48.3121   29.9600   35.0930 H   0  0  0  0  0  0  0  0  0  0  0  0
   49.4307   31.3655   35.0930 H   0  0  0  0  0  0  0  0  0  0  0  0
   45.9890   35.8508   42.2049 H   0  0  0  0  0  0  0  0  0  0  0  0
   46.1010   34.1348   41.5777 H   0  0  0  0  0  0  0  0  0  0  0  0
   47.6022   32.6867   43.4085 H   0  0  0  0  0  0  0  0  0  0  0  0
   47.2165   31.7847   45.6714 H   0  0  0  0  0  0  0  0  0  0  0  0
   45.6329   32.9253   47.2400 H   0  0  0  0  0  0  0  0  0  0  0  0
   44.0642   34.8599   47.5160 H   0  0  0  0  0  0  0  0  0  0  0  0
  1 13  1  0
  2  3  2  0
  2  1  1  0
  4  3  1  0
  5  4  2  0
  6  5  1  0
  6  7  2  0
  7  2  1  0
  8  6  1  0
  9  8  1  0
 10 11  1  0
 10  9  1  0
 10  8  1  0
 12 11  1  0
 13 16  1  0
 14 15  1  0
 15 20  2  0
 16 17  2  0
 16 15  1  0
 17 18  1  0
 18 19  2  0
 20 19  1  0
 20 21  1  0
  1 22  1  0
  1 23  1  0
  3 24  1  0
  4 25  1  0
  8 26  1  6
  9 27  1  0
  9 28  1  0
 10 29  1  6
 11 30  1  0
 11 31  1  0
 12 32  1  0
 12 33  1  0
 12 34  1  0
 13 35  1  0
 13 36  1  0
 17 37  1  0
 18 38  1  0
 19 39  1  0
 21 40  1  0
M  ISO  8  22   8  23   8  24  14  25  14  26  13  27  13  28  13  29  13
M  ISO  8  30   8  31   8  32   8  33   8  34   8  35   8  36   8  37  14
M  ISO  3  38  14  39  14  40   3
M  END
>  <minimizedAffinity>  (1) 
-5.55741978

>  <minimizedRMSD>  (1) 
3.13070059

$$$$
