
     RDKit          3D

 40 42  0  0  0  0  0  0  0  0999 V2000
   45.7390   31.7110   47.0570 C   0  0  0  0  0  0  0  0  0  0  0  0
   45.6070   32.1650   48.3760 C   0  0  0  0  0  0  0  0  0  0  0  0
   45.4030   31.3250   49.4500 C   0  0  0  0  0  0  0  0  0  0  0  0
   45.3280   29.9750   49.1930 C   0  0  0  0  0  0  0  0  0  0  0  0
   45.4590   29.5190   47.8780 C   0  0  0  0  0  0  0  0  0  0  0  0
   45.6540   30.3920   46.8940 N   0  0  0  0  0  0  0  0  0  0  0  0
   44.7350   36.6960   43.8000 C   0  0  0  0  0  0  0  0  0  0  0  0
   45.6250   36.4160   42.7540 C   0  0  0  0  0  0  0  0  0  0  0  0
   46.3000   35.1950   42.7730 C   0  0  0  0  0  0  0  0  0  0  0  0
   46.0750   34.3250   43.7970 N   0  0  0  0  0  0  0  0  0  0  0  0
   45.2040   34.6370   44.7880 C   0  0  0  0  0  0  0  0  0  0  0  0
   44.5300   35.8280   44.7930 N   0  0  0  0  0  0  0  0  0  0  0  0
   45.9530   32.6640   45.9780 C   0  0  0  0  0  0  0  0  0  0  0  0
   46.9570   32.5190   45.2340 O   0  0  0  0  0  0  0  0  0  0  0  0
   44.9910   33.7140   45.8390 N   0  0  0  0  0  0  0  0  0  0  0  0
   45.3920   28.0970   47.6350 C   0  0  0  0  0  0  0  0  0  0  0  0
   44.2550   27.4510   47.7400 C   0  0  0  0  0  0  0  0  0  0  0  0
   43.9920   26.0030   47.5470 C   0  0  0  0  0  0  0  0  0  0  0  0
   43.6300   26.0820   50.6020 Br  0  0  0  0  0  0  0  0  0  0  0  0
   45.0470   25.2450   49.6190 C   0  0  0  0  0  0  0  0  0  0  0  0
   45.1010   25.2750   48.2230 C   0  0  0  0  0  0  0  0  0  0  0  0
   46.1750   24.6330   47.5930 C   0  0  0  0  0  0  0  0  0  0  0  0
   47.1250   24.0050   48.3730 C   0  0  0  0  0  0  0  0  0  0  0  0
   47.0510   23.9890   49.7500 C   0  0  0  0  0  0  0  0  0  0  0  0
   45.9930   24.6190   50.3980 C   0  0  0  0  0  0  0  0  0  0  0  0
   45.6693   33.2470   48.5642 H   0  0  0  0  0  0  0  0  0  0  0  0
   45.3040   31.7184   50.4725 H   0  0  0  0  0  0  0  0  0  0  0  0
   45.1665   29.2616   50.0145 H   0  0  0  0  0  0  0  0  0  0  0  0
   44.1930   37.6532   43.8026 H   0  0  0  0  0  0  0  0  0  0  0  0
   45.7868   37.1388   41.9407 H   0  0  0  0  0  0  0  0  0  0  0  0
   47.0062   34.9376   41.9699 H   0  0  0  0  0  0  0  0  0  0  0  0
   44.1831   33.7940   46.4729 H   0  0  0  0  0  0  0  0  0  0  0  0
   46.3050   27.5491   47.3586 H   0  0  0  0  0  0  0  0  0  0  0  0
   43.3809   28.0635   48.0063 H   0  0  0  0  0  0  0  0  0  0  0  0
   43.0272   25.7290   47.9989 H   0  0  0  0  0  0  0  0  0  0  0  0
   43.9437   25.7478   46.4781 H   0  0  0  0  0  0  0  0  0  0  0  0
   46.2597   24.6294   46.4963 H   0  0  0  0  0  0  0  0  0  0  0  0
   47.9691   23.5006   47.8799 H   0  0  0  0  0  0  0  0  0  0  0  0
   47.8288   23.4779   50.3364 H   0  0  0  0  0  0  0  0  0  0  0  0
   45.9155   24.6167   51.4953 H   0  0  0  0  0  0  0  0  0  0  0  0
  1  2  2  0
  2  3  1  0
  4  3  2  0
  5  4  1  0
  6  1  1  0
  6  5  2  0
  7 12  2  0
  8  9  2  0
  8  7  1  0
  9 10  1  0
 10 11  2  0
 11 12  1  0
 11 15  1  0
 13  1  1  0
 14 13  2  0
 15 13  1  0
 16 17  2  0
 16  5  1  0
 18 17  1  0
 18 21  1  0
 20 25  2  0
 20 19  1  0
 21 20  1  0
 22 21  2  0
 22 23  1  0
 23 24  2  0
 24 25  1  0
  2 26  1  0
  3 27  1  0
  4 28  1  0
  7 29  1  0
  8 30  1  0
  9 31  1  0
 15 32  1  0
 16 33  1  0
 17 34  1  0
 18 35  1  0
 18 36  1  0
 22 37  1  0
 23 38  1  0
 24 39  1  0
 25 40  1  0
M  ISO  8  26  14  27  14  28  14  29  14  30  14  31  14  35   8  36   8
M  ISO  4  37  14  38  14  39  14  40  14
M  END
>  <minimizedAffinity>  (1) 
-5.82392788

>  <minimizedRMSD>  (1) 
1.29157567

$$$$
