
     RDKit          3D

 40 42  0  0  0  0  0  0  0  0999 V2000
   47.1550   33.7090   42.2650 C   0  0  0  0  0  0  0  0  0  0  0  0
   48.2870   33.8050   43.0990 C   0  0  0  0  0  0  0  0  0  0  0  0
   49.5570   33.5200   42.5840 C   0  0  0  0  0  0  0  0  0  0  0  0
   49.6070   33.1540   41.2540 N   0  0  0  0  0  0  0  0  0  0  0  0
   48.5030   33.0710   40.4800 C   0  0  0  0  0  0  0  0  0  0  0  0
   47.2980   33.3460   40.9850 N   0  0  0  0  0  0  0  0  0  0  0  0
   48.6100   32.6890   39.1130 N   0  0  0  0  0  0  0  0  0  0  0  0
   49.6640   31.7990   38.6660 C   0  0  0  0  0  0  0  0  0  0  0  0
   50.3270   32.3380   37.3990 C   0  0  0  0  0  0  0  0  0  0  0  0
   49.2760   32.5700   36.4150 N   0  0  0  0  0  0  0  0  0  0  0  0
   48.4440   33.6500   36.8760 C   0  0  0  0  0  0  0  0  0  0  0  0
   47.6790   33.1660   38.1070 C   0  0  0  0  0  0  0  0  0  0  0  0
   45.8510   34.0180   42.8960 C   0  0  0  0  0  0  0  0  0  0  0  0
   45.2140   35.2220   42.3250 C   0  0  0  0  0  0  0  0  0  0  0  0
   45.1700   36.3850   43.2650 C   0  0  0  0  0  0  0  0  0  0  0  0
   44.5240   36.0450   44.5930 C   0  0  0  0  0  0  0  0  0  0  0  0
   44.9320   34.6980   45.1360 C   0  0  0  0  0  0  0  0  0  0  0  0
   46.1110   34.1230   44.3930 C   0  0  0  0  0  0  0  0  0  0  0  0
   48.1728   34.1031   44.1517 H   0  0  0  0  0  0  0  0  0  0  0  0
   50.4635   33.5840   43.2038 H   0  0  0  0  0  0  0  0  0  0  0  0
   50.4209   31.7092   39.4591 H   0  0  0  0  0  0  0  0  0  0  0  0
   49.2247   30.8154   38.4435 H   0  0  0  0  0  0  0  0  0  0  0  0
   50.8480   33.2811   37.6206 H   0  0  0  0  0  0  0  0  0  0  0  0
   51.0647   31.6189   37.0135 H   0  0  0  0  0  0  0  0  0  0  0  0
   48.7086   31.7173   36.3061 H   0  0  0  0  0  0  0  0  0  0  0  0
   49.0691   34.5153   37.1416 H   0  0  0  0  0  0  0  0  0  0  0  0
   47.7420   33.9550   36.0859 H   0  0  0  0  0  0  0  0  0  0  0  0
   47.0902   33.9980   38.5206 H   0  0  0  0  0  0  0  0  0  0  0  0
   47.0087   32.3438   37.8159 H   0  0  0  0  0  0  0  0  0  0  0  0
   45.1199   33.2211   42.6951 H   0  0  0  0  0  0  0  0  0  0  0  0
   45.7781   35.5211   41.4293 H   0  0  0  0  0  0  0  0  0  0  0  0
   44.1716   34.9552   42.0963 H   0  0  0  0  0  0  0  0  0  0  0  0
   46.1995   36.7244   43.4520 H   0  0  0  0  0  0  0  0  0  0  0  0
   44.5603   37.1691   42.7922 H   0  0  0  0  0  0  0  0  0  0  0  0
   44.8077   36.8155   45.3251 H   0  0  0  0  0  0  0  0  0  0  0  0
   43.4378   36.0087   44.4233 H   0  0  0  0  0  0  0  0  0  0  0  0
   45.2008   34.8093   46.1968 H   0  0  0  0  0  0  0  0  0  0  0  0
   44.0830   34.0099   45.0107 H   0  0  0  0  0  0  0  0  0  0  0  0
   46.3226   33.1181   44.7873 H   0  0  0  0  0  0  0  0  0  0  0  0
   46.9661   34.7989   44.5410 H   0  0  0  0  0  0  0  0  0  0  0  0
  1 13  1  0
  1  2  2  0
  3  2  1  0
  4  3  2  0
  5  6  2  0
  5  4  1  0
  6  1  1  0
  7  5  1  0
  8  7  1  0
  9  8  1  0
 10 11  1  0
 10  9  1  0
 11 12  1  0
 12  7  1  0
 13 18  1  0
 14 13  1  0
 14 15  1  0
 15 16  1  0
 16 17  1  0
 18 17  1  0
  2 19  1  0
  3 20  1  0
  8 21  1  0
  8 22  1  0
  9 23  1  0
  9 24  1  0
 10 25  1  0
 11 26  1  0
 11 27  1  0
 12 28  1  0
 12 29  1  0
 13 30  1  0
 14 31  1  0
 14 32  1  0
 15 33  1  0
 15 34  1  0
 16 35  1  0
 16 36  1  0
 17 37  1  0
 17 38  1  0
 18 39  1  0
 18 40  1  0
M  ISO  8  19  14  20  14  21  13  22  13  23  13  24  13  25   5  26  13
M  ISO  8  27  13  28  13  29  13  30  13  31  13  32  13  33  13  34  13
M  ISO  6  35  13  36  13  37  13  38  13  39  13  40  13
M  END
>  <minimizedAffinity>  (1) 
-4.97964239

>  <minimizedRMSD>  (1) 
5.03179741

$$$$
