
     RDKit          3D

 23 24  0  0  0  0  0  0  0  0999 V2000
   44.6100   33.1250   41.1930 Br  0  0  0  0  0  0  0  0  0  0  0  0
   46.3040   34.0010   40.9510 C   0  0  0  0  0  0  0  0  0  0  0  0
   46.8450   34.7480   41.9750 C   0  0  0  0  0  0  0  0  0  0  0  0
   48.0680   35.3870   41.8150 C   0  0  0  0  0  0  0  0  0  0  0  0
   48.7270   35.2610   40.6230 C   0  0  0  0  0  0  0  0  0  0  0  0
   48.1430   34.5010   39.6260 C   0  0  0  0  0  0  0  0  0  0  0  0
   46.9580   33.8690   39.7490 C   0  0  0  0  0  0  0  0  0  0  0  0
   45.6180   34.0140   45.3410 C   0  0  0  0  0  0  0  0  0  0  0  0
   44.7170   35.0550   45.5960 C   0  0  0  0  0  0  0  0  0  0  0  0
   44.5370   36.0110   44.5980 C   0  0  0  0  0  0  0  0  0  0  0  0
   45.2370   35.8860   43.4390 N   0  0  0  0  0  0  0  0  0  0  0  0
   46.1130   34.8540   43.2210 C   0  0  0  0  0  0  0  0  0  0  0  0
   46.2800   33.9390   44.1850 N   0  0  0  0  0  0  0  0  0  0  0  0
   46.3540   33.0540   38.6520 C   0  0  0  0  0  0  0  0  0  0  0  0
   47.0490   33.2300   37.4690 F   0  0  0  0  0  0  0  0  0  0  0  0
   46.3310   31.7040   38.9450 F   0  0  0  0  0  0  0  0  0  0  0  0
   45.0540   33.4230   38.3820 F   0  0  0  0  0  0  0  0  0  0  0  0
   48.4989   35.9838   42.6324 H   0  0  0  0  0  0  0  0  0  0  0  0
   49.6979   35.7522   40.4613 H   0  0  0  0  0  0  0  0  0  0  0  0
   48.6799   34.4058   38.6707 H   0  0  0  0  0  0  0  0  0  0  0  0
   45.7832   33.2433   46.1083 H   0  0  0  0  0  0  0  0  0  0  0  0
   44.1712   35.1160   46.5491 H   0  0  0  0  0  0  0  0  0  0  0  0
   43.8419   36.8507   44.7451 H   0  0  0  0  0  0  0  0  0  0  0  0
  2  1  1  0
  2  3  2  0
  3 12  1  0
  4  3  1  0
  5  4  2  0
  6  7  2  0
  6  5  1  0
  7  2  1  0
  8  9  2  0
 10  9  1  0
 11 10  2  0
 12 11  1  0
 12 13  2  0
 13  8  1  0
 14 16  1  0
 14  7  1  0
 15 14  1  0
 17 14  1  0
  4 18  1  0
  5 19  1  0
  6 20  1  0
  8 21  1  0
  9 22  1  0
 10 23  1  0
M  ISO  6  18  14  19  14  20  14  21  14  22  14  23  14
M  END
>  <minimizedAffinity>  (1) 
-5.30083179

>  <minimizedRMSD>  (1) 
0.0541018322

$$$$
