
     RDKit          3D

 29 30  0  0  0  0  0  0  0  0999 V2000
   46.4350   33.8360   43.2600 C   0  0  0  0  0  0  0  0  0  0  0  0
   45.7660   34.8620   42.4320 C   0  0  0  0  0  0  0  0  0  0  0  0
   45.3880   36.0960   43.2020 C   0  0  0  0  0  0  0  0  0  0  0  0
   44.5030   35.7510   44.3890 C   0  0  0  0  0  0  0  0  0  0  0  0
   44.9860   34.5540   45.1680 C   0  0  0  0  0  0  0  0  0  0  0  0
   46.3830   34.1280   44.7550 C   0  0  0  0  0  0  0  0  0  0  0  0
   47.8580   33.6630   42.9110 C   0  0  0  0  0  0  0  0  0  0  0  0
   48.5900   34.8490   42.7040 C   0  0  0  0  0  0  0  0  0  0  0  0
   49.9510   34.7820   42.3750 C   0  0  0  0  0  0  0  0  0  0  0  0
   50.4890   33.5150   42.2750 N   0  0  0  0  0  0  0  0  0  0  0  0
   49.7620   32.3960   42.4790 C   0  0  0  0  0  0  0  0  0  0  0  0
   48.4600   32.4740   42.7920 N   0  0  0  0  0  0  0  0  0  0  0  0
   50.3940   31.0570   42.3580 C   0  0  0  0  0  0  0  0  0  0  0  0
   50.6750   30.7030   41.0560 F   0  0  0  0  0  0  0  0  0  0  0  0
   51.5930   30.9870   43.0380 F   0  0  0  0  0  0  0  0  0  0  0  0
   49.5520   30.0910   42.8840 F   0  0  0  0  0  0  0  0  0  0  0  0
   45.8657   32.9207   43.0405 H   0  0  0  0  0  0  0  0  0  0  0  0
   44.8520   34.4238   42.0047 H   0  0  0  0  0  0  0  0  0  0  0  0
   46.4814   35.1700   41.6552 H   0  0  0  0  0  0  0  0  0  0  0  0
   46.3028   36.5863   43.5664 H   0  0  0  0  0  0  0  0  0  0  0  0
   44.8294   36.7675   42.5334 H   0  0  0  0  0  0  0  0  0  0  0  0
   44.4729   36.6181   45.0652 H   0  0  0  0  0  0  0  0  0  0  0  0
   43.5089   35.4997   43.9907 H   0  0  0  0  0  0  0  0  0  0  0  0
   44.9947   34.8077   46.2383 H   0  0  0  0  0  0  0  0  0  0  0  0
   44.3024   33.7175   44.9609 H   0  0  0  0  0  0  0  0  0  0  0  0
   46.6633   33.2209   45.3105 H   0  0  0  0  0  0  0  0  0  0  0  0
   47.0842   34.9448   44.9813 H   0  0  0  0  0  0  0  0  0  0  0  0
   48.0942   35.8262   42.8004 H   0  0  0  0  0  0  0  0  0  0  0  0
   50.5546   35.6860   42.2065 H   0  0  0  0  0  0  0  0  0  0  0  0
  1  6  1  0
  2  3  1  0
  2  1  1  0
  3  4  1  0
  4  5  1  0
  6  5  1  0
  7  1  1  0
  8  7  2  0
  9  8  1  0
 10  9  2  0
 10 11  1  0
 11 12  2  0
 12  7  1  0
 13 11  1  0
 13 16  1  0
 13 15  1  0
 14 13  1  0
  1 17  1  0
  2 18  1  0
  2 19  1  0
  3 20  1  0
  3 21  1  0
  4 22  1  0
  4 23  1  0
  5 24  1  0
  5 25  1  0
  6 26  1  0
  6 27  1  0
  8 28  1  0
  9 29  1  0
M  ISO  8  17  13  18  13  19  13  20  13  21  13  22  13  23  13  24  13
M  ISO  5  25  13  26  13  27  13  28  14  29  14
M  END
>  <minimizedAffinity>  (1) 
-4.22004414

>  <minimizedRMSD>  (1) 
2.09241939

$$$$
