
     RDKit          3D

 28 29  0  0  0  0  0  0  0  0999 V2000
   46.4260   33.8280   43.2390 C   0  0  0  0  0  0  0  0  0  0  0  0
   45.7490   34.8550   42.4240 C   0  0  0  0  0  0  0  0  0  0  0  0
   45.3990   36.0930   43.1990 C   0  0  0  0  0  0  0  0  0  0  0  0
   44.5120   35.7480   44.3840 C   0  0  0  0  0  0  0  0  0  0  0  0
   44.9940   34.5580   45.1610 C   0  0  0  0  0  0  0  0  0  0  0  0
   46.3730   34.1240   44.7330 C   0  0  0  0  0  0  0  0  0  0  0  0
   47.8490   33.6530   42.8820 C   0  0  0  0  0  0  0  0  0  0  0  0
   48.5930   34.8310   42.7050 C   0  0  0  0  0  0  0  0  0  0  0  0
   49.9480   34.7440   42.3830 C   0  0  0  0  0  0  0  0  0  0  0  0
   50.4670   33.4730   42.2580 N   0  0  0  0  0  0  0  0  0  0  0  0
   49.7410   32.3620   42.4300 C   0  0  0  0  0  0  0  0  0  0  0  0
   48.4470   32.4710   42.7380 N   0  0  0  0  0  0  0  0  0  0  0  0
   50.3660   31.0450   42.2800 C   0  0  0  0  0  0  0  0  0  0  0  0
   51.4780   30.8150   42.8320 O   0  0  0  0  0  0  0  0  0  0  0  0
   45.8661   32.9076   43.0167 H   0  0  0  0  0  0  0  0  0  0  0  0
   44.8221   34.4235   42.0181 H   0  0  0  0  0  0  0  0  0  0  0  0
   46.4491   35.1546   41.6302 H   0  0  0  0  0  0  0  0  0  0  0  0
   46.3233   36.5645   43.5642 H   0  0  0  0  0  0  0  0  0  0  0  0
   44.8555   36.7840   42.5379 H   0  0  0  0  0  0  0  0  0  0  0  0
   44.4789   36.6156   45.0594 H   0  0  0  0  0  0  0  0  0  0  0  0
   43.5189   35.4951   43.9843 H   0  0  0  0  0  0  0  0  0  0  0  0
   45.0194   34.8182   46.2295 H   0  0  0  0  0  0  0  0  0  0  0  0
   44.3015   33.7249   44.9704 H   0  0  0  0  0  0  0  0  0  0  0  0
   46.6501   33.2154   45.2876 H   0  0  0  0  0  0  0  0  0  0  0  0
   47.0752   34.9430   44.9480 H   0  0  0  0  0  0  0  0  0  0  0  0
   48.1118   35.8136   42.8192 H   0  0  0  0  0  0  0  0  0  0  0  0
   50.5682   35.6407   42.2369 H   0  0  0  0  0  0  0  0  0  0  0  0
   49.8690   30.2611   41.6897 H   0  0  0  0  0  0  0  0  0  0  0  0
  1  6  1  0
  2  3  1  0
  2  1  1  0
  3  4  1  0
  4  5  1  0
  6  5  1  0
  7  1  1  0
  8  7  2  0
  9  8  1  0
 10  9  2  0
 10 11  1  0
 11 12  2  0
 12  7  1  0
 13 11  1  0
 13 14  2  0
  1 15  1  0
  2 16  1  0
  2 17  1  0
  3 18  1  0
  3 19  1  0
  4 20  1  0
  4 21  1  0
  5 22  1  0
  5 23  1  0
  6 24  1  0
  6 25  1  0
  8 26  1  0
  9 27  1  0
 13 28  1  0
M  ISO  8  15  13  16  13  17  13  18  13  19  13  20  13  21  13  22  13
M  ISO  6  23  13  24  13  25  13  26  14  27  14  28   6
M  END
>  <minimizedAffinity>  (1) 
-3.99593949

>  <minimizedRMSD>  (1) 
2.0806706

$$$$
