
     RDKit          3D

 46 50  0  0  0  0  0  0  0  0999 V2000
   47.9080   33.9070   42.8790 C   0  0  0  0  0  0  0  0  0  0  0  0
   48.5140   35.1360   42.6130 C   0  0  0  0  0  0  0  0  0  0  0  0
   49.8740   35.1900   42.2730 C   0  0  0  0  0  0  0  0  0  0  0  0
   50.5310   33.9890   42.2260 N   0  0  0  0  0  0  0  0  0  0  0  0
   49.9080   32.7980   42.4930 C   0  0  0  0  0  0  0  0  0  0  0  0
   48.6220   32.7800   42.8110 N   0  0  0  0  0  0  0  0  0  0  0  0
   50.7330   31.5980   42.4020 C   0  0  0  0  0  0  0  0  0  0  0  0
   51.4140   31.4350   41.2220 N   0  0  0  0  0  0  0  0  0  0  0  0
   52.1200   30.2800   41.3120 C   0  0  0  0  0  0  0  0  0  0  0  0
   51.8640   29.7510   42.5390 N   0  0  0  0  0  0  0  0  0  0  0  0
   51.0300   30.5500   43.1890 N   0  0  0  0  0  0  0  0  0  0  0  0
   52.4320   28.5310   42.9990 C   0  0  0  0  0  0  0  0  0  0  0  0
   51.8180   27.4210   42.5480 N   0  0  0  0  0  0  0  0  0  0  0  0
   52.2390   26.1690   42.8960 C   0  0  0  0  0  0  0  0  0  0  0  0
   53.3120   26.0100   43.7250 N   0  0  0  0  0  0  0  0  0  0  0  0
   53.9420   27.1070   44.1890 C   0  0  0  0  0  0  0  0  0  0  0  0
   55.0370   27.0230   45.0330 C   0  0  0  0  0  0  0  0  0  0  0  0
   55.6770   28.1710   45.5040 C   0  0  0  0  0  0  0  0  0  0  0  0
   55.1970   29.4030   45.1120 C   0  0  0  0  0  0  0  0  0  0  0  0
   54.1070   29.5290   44.2700 C   0  0  0  0  0  0  0  0  0  0  0  0
   53.5160   28.3630   43.8370 C   0  0  0  0  0  0  0  0  0  0  0  0
   46.4750   33.9710   43.2310 C   0  0  0  0  0  0  0  0  0  0  0  0
   45.7230   34.9710   42.4750 C   0  0  0  0  0  0  0  0  0  0  0  0
   45.2490   36.1220   43.2860 C   0  0  0  0  0  0  0  0  0  0  0  0
   44.4430   35.6840   44.5020 C   0  0  0  0  0  0  0  0  0  0  0  0
   44.9930   34.4590   45.1900 C   0  0  0  0  0  0  0  0  0  0  0  0
   46.4080   34.1700   44.7540 C   0  0  0  0  0  0  0  0  0  0  0  0
   47.9246   36.0630   42.6700 H   0  0  0  0  0  0  0  0  0  0  0  0
   50.3829   36.1410   42.0568 H   0  0  0  0  0  0  0  0  0  0  0  0
   52.7754   29.8522   40.5391 H   0  0  0  0  0  0  0  0  0  0  0  0
   51.7115   25.2856   42.5069 H   0  0  0  0  0  0  0  0  0  0  0  0
   55.4092   26.0338   45.3378 H   0  0  0  0  0  0  0  0  0  0  0  0
   56.5461   28.0944   46.1739 H   0  0  0  0  0  0  0  0  0  0  0  0
   55.6956   30.3120   45.4797 H   0  0  0  0  0  0  0  0  0  0  0  0
   53.7297   30.5149   43.9606 H   0  0  0  0  0  0  0  0  0  0  0  0
   45.9738   33.0345   42.9451 H   0  0  0  0  0  0  0  0  0  0  0  0
   46.3715   35.3573   41.6749 H   0  0  0  0  0  0  0  0  0  0  0  0
   44.8248   34.4654   42.0909 H   0  0  0  0  0  0  0  0  0  0  0  0
   46.1226   36.6956   43.6294 H   0  0  0  0  0  0  0  0  0  0  0  0
   44.5907   36.7316   42.6496 H   0  0  0  0  0  0  0  0  0  0  0  0
   44.4307   36.5120   45.2261 H   0  0  0  0  0  0  0  0  0  0  0  0
   43.4368   35.4237   44.1417 H   0  0  0  0  0  0  0  0  0  0  0  0
   44.9804   34.6236   46.2775 H   0  0  0  0  0  0  0  0  0  0  0  0
   44.3647   33.5982   44.9176 H   0  0  0  0  0  0  0  0  0  0  0  0
   46.7607   33.2558   45.2539 H   0  0  0  0  0  0  0  0  0  0  0  0
   47.0450   35.0238   45.0284 H   0  0  0  0  0  0  0  0  0  0  0  0
  1 22  1  0
  2  1  2  0
  3  2  1  0
  4  3  2  0
  4  5  1  0
  5  6  2  0
  6  1  1  0
  7  5  1  0
  7 11  2  0
  8  9  2  0
  8  7  1  0
  9 10  1  0
 10 12  1  0
 10 11  1  0
 12 21  2  0
 13 14  2  0
 13 12  1  0
 14 15  1  0
 15 16  2  0
 16 17  1  0
 17 18  2  0
 19 18  1  0
 20 19  2  0
 21 16  1  0
 21 20  1  0
 22 27  1  0
 23 22  1  0
 23 24  1  0
 24 25  1  0
 25 26  1  0
 27 26  1  0
  2 28  1  0
  3 29  1  0
  9 30  1  0
 14 31  1  0
 17 32  1  0
 18 33  1  0
 19 34  1  0
 20 35  1  0
 22 36  1  0
 23 37  1  0
 23 38  1  0
 24 39  1  0
 24 40  1  0
 25 41  1  0
 25 42  1  0
 26 43  1  0
 26 44  1  0
 27 45  1  0
 27 46  1  0
M  ISO  8  28  14  29  14  30  14  31  14  32  14  33  14  34  14  35  14
M  ISO  8  36  13  37  13  38  13  39  13  40  13  41  13  42  13  43  13
M  ISO  3  44  13  45  13  46  13
M  END
>  <minimizedAffinity>  (1) 
-4.68804598

>  <minimizedRMSD>  (1) 
1.208709

$$$$
