
     RDKit          3D

 42 45  0  0  0  0  0  0  0  0999 V2000
   47.8820   33.8610   42.8840 C   0  0  0  0  0  0  0  0  0  0  0  0
   48.5330   35.0900   42.6400 C   0  0  0  0  0  0  0  0  0  0  0  0
   49.9040   35.1130   42.3110 C   0  0  0  0  0  0  0  0  0  0  0  0
   50.5280   33.8950   42.2500 N   0  0  0  0  0  0  0  0  0  0  0  0
   49.8610   32.7230   42.4930 C   0  0  0  0  0  0  0  0  0  0  0  0
   48.5730   32.7240   42.7990 N   0  0  0  0  0  0  0  0  0  0  0  0
   46.4550   33.9690   43.2210 C   0  0  0  0  0  0  0  0  0  0  0  0
   45.7430   34.9910   42.4550 C   0  0  0  0  0  0  0  0  0  0  0  0
   45.2790   36.1510   43.2540 C   0  0  0  0  0  0  0  0  0  0  0  0
   44.4720   35.7460   44.4790 C   0  0  0  0  0  0  0  0  0  0  0  0
   44.9700   34.5040   45.1640 C   0  0  0  0  0  0  0  0  0  0  0  0
   46.3930   34.1950   44.7430 C   0  0  0  0  0  0  0  0  0  0  0  0
   50.6820   31.5170   42.3940 C   0  0  0  0  0  0  0  0  0  0  0  0
   51.5550   31.4460   41.3660 N   0  0  0  0  0  0  0  0  0  0  0  0
   52.2290   30.2870   41.4250 C   0  0  0  0  0  0  0  0  0  0  0  0
   51.7570   29.6310   42.5170 N   0  0  0  0  0  0  0  0  0  0  0  0
   50.8090   30.3780   43.1150 N   0  0  0  0  0  0  0  0  0  0  0  0
   53.8400   29.7850   44.6570 Cl  0  0  0  0  0  0  0  0  0  0  0  0
   53.0650   28.3310   44.0650 C   0  0  0  0  0  0  0  0  0  0  0  0
   52.1060   28.3620   43.0650 C   0  0  0  0  0  0  0  0  0  0  0  0
   51.4660   27.2460   42.5630 C   0  0  0  0  0  0  0  0  0  0  0  0
   51.8230   26.0260   43.1110 C   0  0  0  0  0  0  0  0  0  0  0  0
   52.7770   25.9900   44.1070 C   0  0  0  0  0  0  0  0  0  0  0  0
   53.4140   27.1070   44.6070 C   0  0  0  0  0  0  0  0  0  0  0  0
   47.9691   36.0321   42.7067 H   0  0  0  0  0  0  0  0  0  0  0  0
   50.4405   36.0531   42.1150 H   0  0  0  0  0  0  0  0  0  0  0  0
   45.9254   33.0467   42.9400 H   0  0  0  0  0  0  0  0  0  0  0  0
   46.4176   35.3632   41.6699 H   0  0  0  0  0  0  0  0  0  0  0  0
   44.8398   34.5073   42.0548 H   0  0  0  0  0  0  0  0  0  0  0  0
   46.1586   36.7214   43.5869 H   0  0  0  0  0  0  0  0  0  0  0  0
   44.6195   36.7510   42.6097 H   0  0  0  0  0  0  0  0  0  0  0  0
   44.5036   36.5745   45.2019 H   0  0  0  0  0  0  0  0  0  0  0  0
   43.4536   35.5251   44.1268 H   0  0  0  0  0  0  0  0  0  0  0  0
   44.9403   34.6555   46.2531 H   0  0  0  0  0  0  0  0  0  0  0  0
   44.3252   33.6597   44.8789 H   0  0  0  0  0  0  0  0  0  0  0  0
   46.7369   33.2872   45.2603 H   0  0  0  0  0  0  0  0  0  0  0  0
   47.0404   35.0438   45.0085 H   0  0  0  0  0  0  0  0  0  0  0  0
   53.0067   29.9385   40.7295 H   0  0  0  0  0  0  0  0  0  0  0  0
   50.7103   27.3227   41.7674 H   0  0  0  0  0  0  0  0  0  0  0  0
   51.3521   25.0971   42.7569 H   0  0  0  0  0  0  0  0  0  0  0  0
   53.0464   25.0103   44.5285 H   0  0  0  0  0  0  0  0  0  0  0  0
   54.1683   27.0276   45.4037 H   0  0  0  0  0  0  0  0  0  0  0  0
  1  7  1  0
  2  1  2  0
  3  2  1  0
  4  3  2  0
  4  5  1  0
  5  6  2  0
  6  1  1  0
  7 12  1  0
  8  7  1  0
  8  9  1  0
  9 10  1  0
 10 11  1  0
 12 11  1  0
 13  5  1  0
 13 17  2  0
 14 15  2  0
 14 13  1  0
 15 16  1  0
 16 20  1  0
 16 17  1  0
 19 24  2  0
 19 18  1  0
 20 19  1  0
 21 20  2  0
 21 22  1  0
 22 23  2  0
 23 24  1  0
  2 25  1  0
  3 26  1  0
  7 27  1  0
  8 28  1  0
  8 29  1  0
  9 30  1  0
  9 31  1  0
 10 32  1  0
 10 33  1  0
 11 34  1  0
 11 35  1  0
 12 36  1  0
 12 37  1  0
 15 38  1  0
 21 39  1  0
 22 40  1  0
 23 41  1  0
 24 42  1  0
M  ISO  8  25  14  26  14  27  13  28  13  29  13  30  13  31  13  32  13
M  ISO  8  33  13  34  13  35  13  36  13  37  13  38  14  39  14  40  14
M  ISO  2  41  14  42  14
M  END
>  <minimizedAffinity>  (1) 
-4.35839701

>  <minimizedRMSD>  (1) 
0.753202856

$$$$
