
     RDKit          3D

 45 49  0  0  0  0  0  0  0  0999 V2000
   47.8880   33.7380   42.8780 C   0  0  0  0  0  0  0  0  0  0  0  0
   48.5840   34.9370   42.7100 C   0  0  0  0  0  0  0  0  0  0  0  0
   49.9500   34.9270   42.3830 C   0  0  0  0  0  0  0  0  0  0  0  0
   50.5210   33.6800   42.2460 N   0  0  0  0  0  0  0  0  0  0  0  0
   49.8070   32.5270   42.4190 C   0  0  0  0  0  0  0  0  0  0  0  0
   48.5150   32.5680   42.7290 N   0  0  0  0  0  0  0  0  0  0  0  0
   46.4610   33.8840   43.2270 C   0  0  0  0  0  0  0  0  0  0  0  0
   45.7570   34.8850   42.4270 C   0  0  0  0  0  0  0  0  0  0  0  0
   45.3250   36.0870   43.1850 C   0  0  0  0  0  0  0  0  0  0  0  0
   44.5460   35.7610   44.4480 C   0  0  0  0  0  0  0  0  0  0  0  0
   44.9820   34.4870   45.1310 C   0  0  0  0  0  0  0  0  0  0  0  0
   46.4070   34.1550   44.7410 C   0  0  0  0  0  0  0  0  0  0  0  0
   50.5630   31.2920   42.2440 C   0  0  0  0  0  0  0  0  0  0  0  0
   50.2500   30.5230   41.1740 N   0  0  0  0  0  0  0  0  0  0  0  0
   51.0340   29.4320   41.1590 C   0  0  0  0  0  0  0  0  0  0  0  0
   51.8550   29.5330   42.2530 N   0  0  0  0  0  0  0  0  0  0  0  0
   51.5620   30.6610   42.9030 N   0  0  0  0  0  0  0  0  0  0  0  0
   53.1900   27.4550   42.1230 C   0  0  0  0  0  0  0  0  0  0  0  0
   52.8790   28.6690   42.7330 C   0  0  0  0  0  0  0  0  0  0  0  0
   53.6240   29.0040   43.8480 C   0  0  0  0  0  0  0  0  0  0  0  0
   54.6300   28.2110   44.3630 C   0  0  0  0  0  0  0  0  0  0  0  0
   55.4380   28.3930   45.4280 N   0  0  0  0  0  0  0  0  0  0  0  0
   56.2370   27.3370   45.4980 N   0  0  0  0  0  0  0  0  0  0  0  0
   55.9540   26.4690   44.4850 C   0  0  0  0  0  0  0  0  0  0  0  0
   54.9270   27.0010   43.7410 C   0  0  0  0  0  0  0  0  0  0  0  0
   54.1930   26.6600   42.6330 C   0  0  0  0  0  0  0  0  0  0  0  0
   48.0590   35.8956   42.8346 H   0  0  0  0  0  0  0  0  0  0  0  0
   50.5264   35.8537   42.2453 H   0  0  0  0  0  0  0  0  0  0  0  0
   45.9153   32.9602   42.9843 H   0  0  0  0  0  0  0  0  0  0  0  0
   44.8631   34.4122   41.9942 H   0  0  0  0  0  0  0  0  0  0  0  0
   46.4699   35.2348   41.6658 H   0  0  0  0  0  0  0  0  0  0  0  0
   46.2201   36.6610   43.4667 H   0  0  0  0  0  0  0  0  0  0  0  0
   44.6518   36.6580   42.5287 H   0  0  0  0  0  0  0  0  0  0  0  0
   44.6726   36.5931   45.1562 H   0  0  0  0  0  0  0  0  0  0  0  0
   43.4985   35.6156   44.1453 H   0  0  0  0  0  0  0  0  0  0  0  0
   44.9237   34.6193   46.2215 H   0  0  0  0  0  0  0  0  0  0  0  0
   44.3205   33.6648   44.8204 H   0  0  0  0  0  0  0  0  0  0  0  0
   46.7404   33.2608   45.2880 H   0  0  0  0  0  0  0  0  0  0  0  0
   47.0674   34.9982   44.9918 H   0  0  0  0  0  0  0  0  0  0  0  0
   51.0202   28.6198   40.4173 H   0  0  0  0  0  0  0  0  0  0  0  0
   52.6329   27.1306   41.2317 H   0  0  0  0  0  0  0  0  0  0  0  0
   53.4030   29.9557   44.3533 H   0  0  0  0  0  0  0  0  0  0  0  0
   55.4348   29.2008   46.0670 H   0  0  0  0  0  0  0  0  0  0  0  0
   56.4592   25.5103   44.2959 H   0  0  0  0  0  0  0  0  0  0  0  0
   54.4156   25.7081   42.1287 H   0  0  0  0  0  0  0  0  0  0  0  0
  1  7  1  0
  2  1  2  0
  3  2  1  0
  4  3  2  0
  4  5  1  0
  5  6  2  0
  6  1  1  0
  7 12  1  0
  8  9  1  0
  8  7  1  0
  9 10  1  0
 10 11  1  0
 12 11  1  0
 13  5  1  0
 13 17  2  0
 14 13  1  0
 15 14  2  0
 15 16  1  0
 16 19  1  0
 16 17  1  0
 18 26  2  0
 18 19  1  0
 19 20  2  0
 20 21  1  0
 21 22  1  0
 22 23  1  0
 24 23  2  0
 25 21  2  0
 25 24  1  0
 26 25  1  0
  2 27  1  0
  3 28  1  0
  7 29  1  0
  8 30  1  0
  8 31  1  0
  9 32  1  0
  9 33  1  0
 10 34  1  0
 10 35  1  0
 11 36  1  0
 11 37  1  0
 12 38  1  0
 12 39  1  0
 15 40  1  0
 18 41  1  0
 20 42  1  0
 22 43  1  0
 24 44  1  0
 26 45  1  0
M  ISO  8  27  14  28  14  29  13  30  13  31  13  32  13  33  13  34  13
M  ISO  8  35  13  36  13  37  13  38  13  39  13  40  14  41  14  42  14
M  ISO  3  43   9  44  14  45  14
M  END
>  <minimizedAffinity>  (1) 
-4.3433404

>  <minimizedRMSD>  (1) 
2.79680729

$$$$
