
     RDKit          3D

 36 38  0  0  0  0  0  0  0  0999 V2000
   45.6570   31.6580   47.1100 C   0  0  0  0  0  0  0  0  0  0  0  0
   45.6190   32.1190   48.4420 C   0  0  0  0  0  0  0  0  0  0  0  0
   45.3990   31.2840   49.5250 C   0  0  0  0  0  0  0  0  0  0  0  0
   45.2120   29.9410   49.2670 C   0  0  0  0  0  0  0  0  0  0  0  0
   45.2530   29.5000   47.9520 C   0  0  0  0  0  0  0  0  0  0  0  0
   45.4680   30.3500   46.9520 N   0  0  0  0  0  0  0  0  0  0  0  0
   44.7700   36.6260   43.8000 C   0  0  0  0  0  0  0  0  0  0  0  0
   45.6800   36.3390   42.7810 C   0  0  0  0  0  0  0  0  0  0  0  0
   46.3470   35.1120   42.8230 C   0  0  0  0  0  0  0  0  0  0  0  0
   46.0850   34.2500   43.8510 N   0  0  0  0  0  0  0  0  0  0  0  0
   45.1940   34.5720   44.8200 C   0  0  0  0  0  0  0  0  0  0  0  0
   44.5280   35.7680   44.7990 N   0  0  0  0  0  0  0  0  0  0  0  0
   45.8940   32.6060   46.0380 C   0  0  0  0  0  0  0  0  0  0  0  0
   46.9210   32.4460   45.3180 O   0  0  0  0  0  0  0  0  0  0  0  0
   44.9440   33.6560   45.8740 N   0  0  0  0  0  0  0  0  0  0  0  0
   45.0530   28.0830   47.7020 C   0  0  0  0  0  0  0  0  0  0  0  0
   44.4770   27.3090   48.6250 C   0  0  0  0  0  0  0  0  0  0  0  0
   44.2250   25.8480   48.4700 C   0  0  0  0  0  0  0  0  0  0  0  0
   45.3830   25.1680   49.1150 C   0  0  0  0  0  0  0  0  0  0  0  0
   46.5880   24.9210   48.5740 N   0  0  0  0  0  0  0  0  0  0  0  0
   47.3380   24.2920   49.4890 C   0  0  0  0  0  0  0  0  0  0  0  0
   46.5720   24.1600   50.5890 N   0  0  0  0  0  0  0  0  0  0  0  0
   45.4010   24.6880   50.3570 N   0  0  0  0  0  0  0  0  0  0  0  0
   45.7712   33.1921   48.6299 H   0  0  0  0  0  0  0  0  0  0  0  0
   45.3742   31.6765   50.5523 H   0  0  0  0  0  0  0  0  0  0  0  0
   45.0336   29.2327   50.0895 H   0  0  0  0  0  0  0  0  0  0  0  0
   44.2351   37.5870   43.7816 H   0  0  0  0  0  0  0  0  0  0  0  0
   45.8664   37.0575   41.9692 H   0  0  0  0  0  0  0  0  0  0  0  0
   47.0721   34.8437   42.0405 H   0  0  0  0  0  0  0  0  0  0  0  0
   44.1212   33.7448   46.4871 H   0  0  0  0  0  0  0  0  0  0  0  0
   45.3780   27.6451   46.7467 H   0  0  0  0  0  0  0  0  0  0  0  0
   44.1661   27.7835   49.5674 H   0  0  0  0  0  0  0  0  0  0  0  0
   43.2871   25.5655   48.9704 H   0  0  0  0  0  0  0  0  0  0  0  0
   44.1251   25.5634   47.4122 H   0  0  0  0  0  0  0  0  0  0  0  0
   48.3763   23.9502   49.3659 H   0  0  0  0  0  0  0  0  0  0  0  0
   46.8632   23.7144   51.4708 H   0  0  0  0  0  0  0  0  0  0  0  0
  1  2  2  0
  2  3  1  0
  4  3  2  0
  5  4  1  0
  6  1  1  0
  6  5  2  0
  7 12  2  0
  8  9  2  0
  8  7  1  0
  9 10  1  0
 10 11  2  0
 11 15  1  0
 12 11  1  0
 13  1  1  0
 14 13  2  0
 15 13  1  0
 16  5  1  0
 16 17  2  0
 18 17  1  0
 18 19  1  0
 19 23  2  0
 20 19  1  0
 20 21  2  0
 21 22  1  0
 23 22  1  0
  2 24  1  0
  3 25  1  0
  4 26  1  0
  7 27  1  0
  8 28  1  0
  9 29  1  0
 15 30  1  0
 16 31  1  0
 17 32  1  0
 18 33  1  0
 18 34  1  0
 21 35  1  0
 22 36  1  0
M  ISO  8  24  14  25  14  26  14  27  14  28  14  29  14  33   8  34   8
M  ISO  2  35  14  36   9
M  END
>  <minimizedAffinity>  (1) 
-5.60867596

>  <minimizedRMSD>  (1) 
1.77083433

$$$$
