
     RDKit          3D

 47 51  0  0  0  0  0  0  0  0999 V2000
   47.9000   33.8750   42.8940 C   0  0  0  0  0  0  0  0  0  0  0  0
   48.5380   35.0960   42.6370 C   0  0  0  0  0  0  0  0  0  0  0  0
   49.9030   35.1290   42.3010 C   0  0  0  0  0  0  0  0  0  0  0  0
   50.5340   33.9080   42.2470 N   0  0  0  0  0  0  0  0  0  0  0  0
   49.8750   32.7340   42.5040 C   0  0  0  0  0  0  0  0  0  0  0  0
   48.5820   32.7300   42.8210 N   0  0  0  0  0  0  0  0  0  0  0  0
   46.4720   33.9810   43.2370 C   0  0  0  0  0  0  0  0  0  0  0  0
   45.7430   34.9880   42.4650 C   0  0  0  0  0  0  0  0  0  0  0  0
   45.2800   36.1540   43.2600 C   0  0  0  0  0  0  0  0  0  0  0  0
   44.4890   35.7630   44.4980 C   0  0  0  0  0  0  0  0  0  0  0  0
   44.9660   34.4830   45.1450 C   0  0  0  0  0  0  0  0  0  0  0  0
   46.4050   34.2010   44.7590 C   0  0  0  0  0  0  0  0  0  0  0  0
   50.6910   31.5270   42.4070 C   0  0  0  0  0  0  0  0  0  0  0  0
   51.5220   31.4270   41.3400 N   0  0  0  0  0  0  0  0  0  0  0  0
   52.1960   30.2680   41.4020 C   0  0  0  0  0  0  0  0  0  0  0  0
   51.7680   29.6350   42.5410 N   0  0  0  0  0  0  0  0  0  0  0  0
   50.8550   30.4050   43.1460 N   0  0  0  0  0  0  0  0  0  0  0  0
   52.1130   28.4040   43.1210 C   0  0  0  0  0  0  0  0  0  0  0  0
   52.7550   27.4210   42.3950 C   0  0  0  0  0  0  0  0  0  0  0  0
   53.1130   26.1970   42.9240 C   0  0  0  0  0  0  0  0  0  0  0  0
   52.8230   25.9220   44.2450 C   0  0  0  0  0  0  0  0  0  0  0  0
   53.1720   24.7390   44.7450 N   0  0  0  0  0  0  0  0  0  0  0  0
   52.9150   24.4240   46.0180 C   0  0  0  0  0  0  0  0  0  0  0  0
   52.2690   25.3720   46.8020 C   0  0  0  0  0  0  0  0  0  0  0  0
   51.9000   26.6020   46.3010 C   0  0  0  0  0  0  0  0  0  0  0  0
   52.1740   26.9120   44.9840 C   0  0  0  0  0  0  0  0  0  0  0  0
   51.8140   28.1400   44.4580 C   0  0  0  0  0  0  0  0  0  0  0  0
   47.9674   36.0344   42.6985 H   0  0  0  0  0  0  0  0  0  0  0  0
   50.4323   36.0709   42.0946 H   0  0  0  0  0  0  0  0  0  0  0  0
   45.9492   33.0542   42.9583 H   0  0  0  0  0  0  0  0  0  0  0  0
   46.4054   35.3564   41.6678 H   0  0  0  0  0  0  0  0  0  0  0  0
   44.8399   34.4935   42.0778 H   0  0  0  0  0  0  0  0  0  0  0  0
   46.1605   36.7322   43.5767 H   0  0  0  0  0  0  0  0  0  0  0  0
   44.6080   36.7405   42.6163 H   0  0  0  0  0  0  0  0  0  0  0  0
   44.5720   36.5761   45.2342 H   0  0  0  0  0  0  0  0  0  0  0  0
   43.4511   35.5928   44.1757 H   0  0  0  0  0  0  0  0  0  0  0  0
   44.8965   34.5816   46.2384 H   0  0  0  0  0  0  0  0  0  0  0  0
   44.3341   33.6513   44.8000 H   0  0  0  0  0  0  0  0  0  0  0  0
   46.7581   33.2986   45.2796 H   0  0  0  0  0  0  0  0  0  0  0  0
   47.0435   35.0502   45.0441 H   0  0  0  0  0  0  0  0  0  0  0  0
   52.9425   29.8994   40.6830 H   0  0  0  0  0  0  0  0  0  0  0  0
   52.9937   27.6233   41.3405 H   0  0  0  0  0  0  0  0  0  0  0  0
   53.6237   25.4492   42.2995 H   0  0  0  0  0  0  0  0  0  0  0  0
   53.2052   23.4468   46.4314 H   0  0  0  0  0  0  0  0  0  0  0  0
   52.0457   25.1341   47.8525 H   0  0  0  0  0  0  0  0  0  0  0  0
   51.3903   27.3322   46.9468 H   0  0  0  0  0  0  0  0  0  0  0  0
   51.3039   28.8907   45.0795 H   0  0  0  0  0  0  0  0  0  0  0  0
  1  7  1  0
  2  1  2  0
  3  2  1  0
  4  3  2  0
  4  5  1  0
  5  6  2  0
  6  1  1  0
  7 12  1  0
  8  7  1  0
  8  9  1  0
  9 10  1  0
 10 11  1  0
 12 11  1  0
 13  5  1  0
 13 17  2  0
 14 15  2  0
 14 13  1  0
 15 16  1  0
 16 18  1  0
 16 17  1  0
 18 27  2  0
 19 20  2  0
 19 18  1  0
 20 21  1  0
 21 22  2  0
 21 26  1  0
 22 23  1  0
 23 24  2  0
 25 24  1  0
 26 25  2  0
 27 26  1  0
  2 28  1  0
  3 29  1  0
  7 30  1  0
  8 31  1  0
  8 32  1  0
  9 33  1  0
  9 34  1  0
 10 35  1  0
 10 36  1  0
 11 37  1  0
 11 38  1  0
 12 39  1  0
 12 40  1  0
 15 41  1  0
 19 42  1  0
 20 43  1  0
 23 44  1  0
 24 45  1  0
 25 46  1  0
 27 47  1  0
M  ISO  8  28  14  29  14  30  13  31  13  32  13  33  13  34  13  35  13
M  ISO  8  36  13  37  13  38  13  39  13  40  13  41  14  42  14  43  14
M  ISO  4  44  14  45  14  46  14  47  14
M  END
>  <minimizedAffinity>  (1) 
-4.26115417

>  <minimizedRMSD>  (1) 
0.953198135

$$$$
