
     RDKit          3D

 42 44  0  0  0  0  0  0  0  0999 V2000
   47.9340   33.8410   42.8700 C   0  0  0  0  0  0  0  0  0  0  0  0
   48.5890   35.0870   42.6420 C   0  0  0  0  0  0  0  0  0  0  0  0
   49.9530   35.1100   42.3250 C   0  0  0  0  0  0  0  0  0  0  0  0
   50.5790   33.8910   42.2540 N   0  0  0  0  0  0  0  0  0  0  0  0
   49.9090   32.7090   42.4820 C   0  0  0  0  0  0  0  0  0  0  0  0
   48.6250   32.7110   42.7800 N   0  0  0  0  0  0  0  0  0  0  0  0
   46.5050   33.9470   43.1970 C   0  0  0  0  0  0  0  0  0  0  0  0
   45.7790   34.9440   42.4330 C   0  0  0  0  0  0  0  0  0  0  0  0
   45.2980   36.1010   43.2080 C   0  0  0  0  0  0  0  0  0  0  0  0
   44.4830   35.6840   44.4300 C   0  0  0  0  0  0  0  0  0  0  0  0
   44.9840   34.4420   45.1080 C   0  0  0  0  0  0  0  0  0  0  0  0
   46.4430   34.1850   44.7300 C   0  0  0  0  0  0  0  0  0  0  0  0
   50.7320   31.5140   42.3650 C   0  0  0  0  0  0  0  0  0  0  0  0
   51.3590   31.2920   41.1810 N   0  0  0  0  0  0  0  0  0  0  0  0
   52.0660   30.1340   41.2910 C   0  0  0  0  0  0  0  0  0  0  0  0
   51.8660   29.6610   42.5340 N   0  0  0  0  0  0  0  0  0  0  0  0
   51.0570   30.4930   43.1930 N   0  0  0  0  0  0  0  0  0  0  0  0
   52.4370   28.4320   43.0870 C   0  0  0  0  0  0  0  0  0  0  0  0
   53.4630   29.8340   45.3630 N   0  0  0  0  0  0  0  0  0  0  0  0
   54.2610   29.5860   44.3530 C   0  0  0  0  0  0  0  0  0  0  0  0
   53.8100   28.5840   43.4280 N   0  0  0  0  0  0  0  0  0  0  0  0
   55.5270   30.2390   44.1220 N   0  0  0  0  0  0  0  0  0  0  0  0
   53.6730   30.5310   46.0950 H   0  0  0  0  0  0  0  0  0  0  0  0
   48.0242   36.0281   42.7149 H   0  0  0  0  0  0  0  0  0  0  0  0
   50.4918   36.0516   42.1433 H   0  0  0  0  0  0  0  0  0  0  0  0
   45.9847   33.0213   42.9099 H   0  0  0  0  0  0  0  0  0  0  0  0
   46.4453   35.3179   41.6416 H   0  0  0  0  0  0  0  0  0  0  0  0
   44.8803   34.4392   42.0489 H   0  0  0  0  0  0  0  0  0  0  0  0
   46.1663   36.6861   43.5452 H   0  0  0  0  0  0  0  0  0  0  0  0
   44.6423   36.6941   42.5536 H   0  0  0  0  0  0  0  0  0  0  0  0
   44.5065   36.5081   45.1582 H   0  0  0  0  0  0  0  0  0  0  0  0
   43.4671   35.4612   44.0719 H   0  0  0  0  0  0  0  0  0  0  0  0
   44.9079   34.5675   46.1982 H   0  0  0  0  0  0  0  0  0  0  0  0
   44.3737   33.5859   44.7846 H   0  0  0  0  0  0  0  0  0  0  0  0
   46.8157   33.2968   45.2613 H   0  0  0  0  0  0  0  0  0  0  0  0
   47.0681   35.0459   45.0093 H   0  0  0  0  0  0  0  0  0  0  0  0
   52.6856   29.6712   40.5088 H   0  0  0  0  0  0  0  0  0  0  0  0
   51.8756   28.1563   43.9918 H   0  0  0  0  0  0  0  0  0  0  0  0
   52.3645   27.6495   42.3173 H   0  0  0  0  0  0  0  0  0  0  0  0
   54.5029   27.9551   42.9976 H   0  0  0  0  0  0  0  0  0  0  0  0
   56.0953   29.9850   43.3014 H   0  0  0  0  0  0  0  0  0  0  0  0
   55.8623   30.9590   44.7778 H   0  0  0  0  0  0  0  0  0  0  0  0
  1  7  1  0
  2  1  2  0
  3  2  1  0
  4  3  2  0
  4  5  1  0
  5  6  2  0
  6  1  1  0
  7 12  1  0
  8  7  1  0
  8  9  1  0
  9 10  1  0
 10 11  1  0
 12 11  1  0
 13  5  1  0
 13 17  2  0
 14 15  2  0
 14 13  1  0
 15 16  1  0
 16 18  1  0
 16 17  1  0
 18 21  1  0
 19 23  1  0
 20 19  2  0
 21 20  1  0
 22 20  1  0
  2 24  1  0
  3 25  1  0
  7 26  1  0
  8 27  1  0
  8 28  1  0
  9 29  1  0
  9 30  1  0
 10 31  1  0
 10 32  1  0
 11 33  1  0
 11 34  1  0
 12 35  1  0
 12 36  1  0
 15 37  1  0
 18 38  1  0
 18 39  1  0
 21 40  1  0
 22 41  1  0
 22 42  1  0
M  ISO  8  24  14  25  14  26  13  27  13  28  13  29  13  30  13  31  13
M  ISO  8  32  13  33  13  34  13  35  13  36  13  37  14  38   8  39   8
M  END
>  <minimizedAffinity>  (1) 
-4.49579096

>  <minimizedRMSD>  (1) 
2.70081735

$$$$
