
     RDKit          3D

 44 47  0  0  0  0  0  0  0  0999 V2000
   47.8760   33.7240   42.8700 C   0  0  0  0  0  0  0  0  0  0  0  0
   48.6160   34.9320   42.6960 C   0  0  0  0  0  0  0  0  0  0  0  0
   49.9820   34.8840   42.3830 C   0  0  0  0  0  0  0  0  0  0  0  0
   50.5340   33.6300   42.2630 N   0  0  0  0  0  0  0  0  0  0  0  0
   49.7820   32.4860   42.4390 C   0  0  0  0  0  0  0  0  0  0  0  0
   48.4920   32.5510   42.7340 N   0  0  0  0  0  0  0  0  0  0  0  0
   46.4590   33.9110   43.1970 C   0  0  0  0  0  0  0  0  0  0  0  0
   45.7960   34.9500   42.4320 C   0  0  0  0  0  0  0  0  0  0  0  0
   45.3740   36.1300   43.2030 C   0  0  0  0  0  0  0  0  0  0  0  0
   44.5210   35.7450   44.4120 C   0  0  0  0  0  0  0  0  0  0  0  0
   44.9770   34.5160   45.1140 C   0  0  0  0  0  0  0  0  0  0  0  0
   46.4150   34.1580   44.7310 C   0  0  0  0  0  0  0  0  0  0  0  0
   50.5310   31.2440   42.2780 C   0  0  0  0  0  0  0  0  0  0  0  0
   50.4400   30.5950   41.0980 N   0  0  0  0  0  0  0  0  0  0  0  0
   51.1950   29.4820   41.1420 C   0  0  0  0  0  0  0  0  0  0  0  0
   51.7650   29.4420   42.3770 N   0  0  0  0  0  0  0  0  0  0  0  0
   51.3630   30.5160   43.0750 N   0  0  0  0  0  0  0  0  0  0  0  0
   52.6730   28.4440   42.9460 C   0  0  0  0  0  0  0  0  0  0  0  0
   53.9810   29.0240   43.2860 C   0  0  0  0  0  0  0  0  0  0  0  0
   54.8600   29.2860   42.2380 C   0  0  0  0  0  0  0  0  0  0  0  0
   56.0810   29.8300   42.5760 C   0  0  0  0  0  0  0  0  0  0  0  0
   56.4780   30.1270   43.8760 C   0  0  0  0  0  0  0  0  0  0  0  0
   55.5450   29.8390   44.8770 C   0  0  0  0  0  0  0  0  0  0  0  0
   54.3370   29.3000   44.5500 N   0  0  0  0  0  0  0  0  0  0  0  0
   48.1131   35.9039   42.8078 H   0  0  0  0  0  0  0  0  0  0  0  0
   50.5783   35.7975   42.2415 H   0  0  0  0  0  0  0  0  0  0  0  0
   45.8838   33.0171   42.9142 H   0  0  0  0  0  0  0  0  0  0  0  0
   46.4886   35.2876   41.6469 H   0  0  0  0  0  0  0  0  0  0  0  0
   44.8726   34.4967   42.0422 H   0  0  0  0  0  0  0  0  0  0  0  0
   46.2691   36.6639   43.5547 H   0  0  0  0  0  0  0  0  0  0  0  0
   44.7653   36.7676   42.5451 H   0  0  0  0  0  0  0  0  0  0  0  0
   44.5420   36.5793   45.1286 H   0  0  0  0  0  0  0  0  0  0  0  0
   43.5105   35.5348   44.0315 H   0  0  0  0  0  0  0  0  0  0  0  0
   44.9267   34.6840   46.1999 H   0  0  0  0  0  0  0  0  0  0  0  0
   44.3214   33.6837   44.8182 H   0  0  0  0  0  0  0  0  0  0  0  0
   46.7273   33.2480   45.2643 H   0  0  0  0  0  0  0  0  0  0  0  0
   47.0973   34.9762   45.0049 H   0  0  0  0  0  0  0  0  0  0  0  0
   51.3262   28.7461   40.3350 H   0  0  0  0  0  0  0  0  0  0  0  0
   52.2195   28.0298   43.8586 H   0  0  0  0  0  0  0  0  0  0  0  0
   52.8334   27.6594   42.1919 H   0  0  0  0  0  0  0  0  0  0  0  0
   54.5935   29.0698   41.1929 H   0  0  0  0  0  0  0  0  0  0  0  0
   56.7897   30.0438   41.7623 H   0  0  0  0  0  0  0  0  0  0  0  0
   57.4632   30.5608   44.1020 H   0  0  0  0  0  0  0  0  0  0  0  0
   55.7865   30.0478   45.9296 H   0  0  0  0  0  0  0  0  0  0  0  0
  1  7  1  0
  2  1  2  0
  3  2  1  0
  4  3  2  0
  4  5  1  0
  5  6  2  0
  6  1  1  0
  7 12  1  0
  8  7  1  0
  8  9  1  0
  9 10  1  0
 10 11  1  0
 12 11  1  0
 13  5  1  0
 13 17  2  0
 14 15  2  0
 14 13  1  0
 15 16  1  0
 16 18  1  0
 16 17  1  0
 18 19  1  0
 19 24  2  0
 20 21  2  0
 20 19  1  0
 21 22  1  0
 22 23  2  0
 24 23  1  0
  2 25  1  0
  3 26  1  0
  7 27  1  0
  8 28  1  0
  8 29  1  0
  9 30  1  0
  9 31  1  0
 10 32  1  0
 10 33  1  0
 11 34  1  0
 11 35  1  0
 12 36  1  0
 12 37  1  0
 15 38  1  0
 18 39  1  0
 18 40  1  0
 20 41  1  0
 21 42  1  0
 22 43  1  0
 23 44  1  0
M  ISO  8  25  14  26  14  27  13  28  13  29  13  30  13  31  13  32  13
M  ISO  8  33  13  34  13  35  13  36  13  37  13  38  14  39   8  40   8
M  ISO  4  41  14  42  14  43  14  44  14
M  END
>  <minimizedAffinity>  (1) 
-4.48580599

>  <minimizedRMSD>  (1) 
1.59974766

$$$$
