
     RDKit          3D

 50 53  0  0  0  0  0  0  0  0999 V2000
   47.8680   33.7870   42.9060 C   0  0  0  0  0  0  0  0  0  0  0  0
   48.5590   34.9970   42.6090 C   0  0  0  0  0  0  0  0  0  0  0  0
   49.9220   34.9670   42.2850 C   0  0  0  0  0  0  0  0  0  0  0  0
   50.5140   33.7230   42.2770 N   0  0  0  0  0  0  0  0  0  0  0  0
   49.8070   32.5860   42.5710 C   0  0  0  0  0  0  0  0  0  0  0  0
   48.5130   32.6270   42.8760 N   0  0  0  0  0  0  0  0  0  0  0  0
   46.4410   33.9630   43.2310 C   0  0  0  0  0  0  0  0  0  0  0  0
   45.7690   34.9940   42.4630 C   0  0  0  0  0  0  0  0  0  0  0  0
   45.3330   36.1690   43.2380 C   0  0  0  0  0  0  0  0  0  0  0  0
   44.4880   35.7820   44.4480 C   0  0  0  0  0  0  0  0  0  0  0  0
   44.9500   34.5350   45.1460 C   0  0  0  0  0  0  0  0  0  0  0  0
   46.3880   34.1990   44.7640 C   0  0  0  0  0  0  0  0  0  0  0  0
   50.6040   31.3630   42.5130 C   0  0  0  0  0  0  0  0  0  0  0  0
   51.4720   31.2150   41.4820 N   0  0  0  0  0  0  0  0  0  0  0  0
   52.0970   30.0160   41.6360 C   0  0  0  0  0  0  0  0  0  0  0  0
   51.6060   29.4360   42.7650 N   0  0  0  0  0  0  0  0  0  0  0  0
   50.6980   30.2550   43.3000 N   0  0  0  0  0  0  0  0  0  0  0  0
   51.9970   28.1420   43.3080 C   0  0  0  0  0  0  0  0  0  0  0  0
   51.8520   28.1690   44.7210 N   0  0  0  0  0  0  0  0  0  0  0  0
   53.0520   28.4920   45.4370 C   0  0  0  0  0  0  0  0  0  0  0  0
   52.8190   28.8740   46.8610 C   0  0  0  0  0  0  0  0  0  0  0  0
   51.6340   28.2200   47.4880 C   0  0  0  0  0  0  0  0  0  0  0  0
   51.2390   26.9510   46.7630 C   0  0  0  0  0  0  0  0  0  0  0  0
   51.0450   27.1470   45.3010 C   0  0  0  0  0  0  0  0  0  0  0  0
   48.0216   35.9565   42.6341 H   0  0  0  0  0  0  0  0  0  0  0  0
   50.4857   35.8822   42.0510 H   0  0  0  0  0  0  0  0  0  0  0  0
   45.8730   33.0658   42.9439 H   0  0  0  0  0  0  0  0  0  0  0  0
   46.4598   35.3399   41.6799 H   0  0  0  0  0  0  0  0  0  0  0  0
   44.8526   34.5318   42.0672 H   0  0  0  0  0  0  0  0  0  0  0  0
   46.2231   36.7129   43.5872 H   0  0  0  0  0  0  0  0  0  0  0  0
   44.7127   36.7954   42.5801 H   0  0  0  0  0  0  0  0  0  0  0  0
   44.5169   36.6122   45.1691 H   0  0  0  0  0  0  0  0  0  0  0  0
   43.4737   35.5785   44.0741 H   0  0  0  0  0  0  0  0  0  0  0  0
   44.8927   34.6887   46.2337 H   0  0  0  0  0  0  0  0  0  0  0  0
   44.3011   33.7006   44.8415 H   0  0  0  0  0  0  0  0  0  0  0  0
   46.7105   33.2895   45.2920 H   0  0  0  0  0  0  0  0  0  0  0  0
   47.0581   35.0251   45.0443 H   0  0  0  0  0  0  0  0  0  0  0  0
   52.8614   29.5920   40.9682 H   0  0  0  0  0  0  0  0  0  0  0  0
   51.3535   27.3557   42.8864 H   0  0  0  0  0  0  0  0  0  0  0  0
   53.0444   27.9310   43.0464 H   0  0  0  0  0  0  0  0  0  0  0  0
   53.7146   27.6142   45.4173 H   0  0  0  0  0  0  0  0  0  0  0  0
   53.4968   29.3663   44.9392 H   0  0  0  0  0  0  0  0  0  0  0  0
   53.7116   28.5983   47.4417 H   0  0  0  0  0  0  0  0  0  0  0  0
   52.6208   29.9560   46.8676 H   0  0  0  0  0  0  0  0  0  0  0  0
   51.8757   27.9723   48.5321 H   0  0  0  0  0  0  0  0  0  0  0  0
   50.7885   28.9215   47.4319 H   0  0  0  0  0  0  0  0  0  0  0  0
   52.0303   26.2018   46.9133 H   0  0  0  0  0  0  0  0  0  0  0  0
   50.2751   26.6233   47.1795 H   0  0  0  0  0  0  0  0  0  0  0  0
   49.9898   27.4050   45.1277 H   0  0  0  0  0  0  0  0  0  0  0  0
   51.3470   26.2048   44.8203 H   0  0  0  0  0  0  0  0  0  0  0  0
  1  7  1  0
  2  1  2  0
  3  2  1  0
  4  3  2  0
  4  5  1  0
  5  6  2  0
  6  1  1  0
  7 12  1  0
  8  7  1  0
  8  9  1  0
  9 10  1  0
 10 11  1  0
 12 11  1  0
 13  5  1  0
 13 17  2  0
 14 15  2  0
 14 13  1  0
 15 16  1  0
 16 17  1  0
 16 18  1  0
 18 19  1  0
 19 24  1  0
 19 20  1  0
 20 21  1  0
 21 22  1  0
 23 22  1  0
 24 23  1  0
  2 25  1  0
  3 26  1  0
  7 27  1  0
  8 28  1  0
  8 29  1  0
  9 30  1  0
  9 31  1  0
 10 32  1  0
 10 33  1  0
 11 34  1  0
 11 35  1  0
 12 36  1  0
 12 37  1  0
 15 38  1  0
 18 39  1  0
 18 40  1  0
 20 41  1  0
 20 42  1  0
 21 43  1  0
 21 44  1  0
 22 45  1  0
 22 46  1  0
 23 47  1  0
 23 48  1  0
 24 49  1  0
 24 50  1  0
M  ISO  8  25  14  26  14  27  13  28  13  29  13  30  13  31  13  32  13
M  ISO  8  33  13  34  13  35  13  36  13  37  13  38  14  39   8  40   8
M  ISO  8  41  13  42  13  43  13  44  13  45  13  46  13  47  13  48  13
M  ISO  2  49  13  50  13
M  END
>  <minimizedAffinity>  (1) 
-4.16348886

>  <minimizedRMSD>  (1) 
3.1241641

$$$$
