
     RDKit          3D

 36 38  0  0  0  0  0  0  0  0999 V2000
   47.8750   33.7040   42.8810 C   0  0  0  0  0  0  0  0  0  0  0  0
   48.6010   34.9060   42.7000 C   0  0  0  0  0  0  0  0  0  0  0  0
   49.9670   34.8620   42.3770 C   0  0  0  0  0  0  0  0  0  0  0  0
   50.5190   33.6090   42.2560 N   0  0  0  0  0  0  0  0  0  0  0  0
   49.7670   32.4660   42.4430 C   0  0  0  0  0  0  0  0  0  0  0  0
   48.4860   32.5340   42.7440 N   0  0  0  0  0  0  0  0  0  0  0  0
   46.4550   33.8920   43.2210 C   0  0  0  0  0  0  0  0  0  0  0  0
   45.7700   34.9010   42.4360 C   0  0  0  0  0  0  0  0  0  0  0  0
   45.3540   36.1020   43.1860 C   0  0  0  0  0  0  0  0  0  0  0  0
   44.5280   35.7490   44.4260 C   0  0  0  0  0  0  0  0  0  0  0  0
   44.9790   34.5070   45.1310 C   0  0  0  0  0  0  0  0  0  0  0  0
   46.4190   34.1670   44.7470 C   0  0  0  0  0  0  0  0  0  0  0  0
   50.5320   31.2320   42.2770 C   0  0  0  0  0  0  0  0  0  0  0  0
   51.5600   31.2270   41.3920 N   0  0  0  0  0  0  0  0  0  0  0  0
   52.1240   29.9890   41.4050 C   0  0  0  0  0  0  0  0  0  0  0  0
   51.4300   29.2350   42.3050 N   0  0  0  0  0  0  0  0  0  0  0  0
   50.4540   29.9940   42.8410 N   0  0  0  0  0  0  0  0  0  0  0  0
   51.6720   27.8430   42.6570 C   0  0  0  0  0  0  0  0  0  0  0  0
   52.5770   27.8100   43.7330 O   0  0  0  0  0  0  0  0  0  0  0  0
   48.0943   35.8758   42.8126 H   0  0  0  0  0  0  0  0  0  0  0  0
   50.5603   35.7765   42.2295 H   0  0  0  0  0  0  0  0  0  0  0  0
   45.8853   32.9868   42.9639 H   0  0  0  0  0  0  0  0  0  0  0  0
   44.8698   34.4417   42.0016 H   0  0  0  0  0  0  0  0  0  0  0  0
   46.4931   35.2458   41.6822 H   0  0  0  0  0  0  0  0  0  0  0  0
   46.2528   36.6512   43.5030 H   0  0  0  0  0  0  0  0  0  0  0  0
   44.7252   36.7145   42.5231 H   0  0  0  0  0  0  0  0  0  0  0  0
   44.5910   36.5892   45.1331 H   0  0  0  0  0  0  0  0  0  0  0  0
   43.5015   35.5602   44.0787 H   0  0  0  0  0  0  0  0  0  0  0  0
   44.9222   34.6667   46.2179 H   0  0  0  0  0  0  0  0  0  0  0  0
   44.3255   33.6729   44.8358 H   0  0  0  0  0  0  0  0  0  0  0  0
   46.7506   33.2730   45.2955 H   0  0  0  0  0  0  0  0  0  0  0  0
   47.0897   35.0009   45.0013 H   0  0  0  0  0  0  0  0  0  0  0  0
   52.9815   29.6574   40.8011 H   0  0  0  0  0  0  0  0  0  0  0  0
   50.7265   27.3641   42.9515 H   0  0  0  0  0  0  0  0  0  0  0  0
   52.0885   27.3012   41.7950 H   0  0  0  0  0  0  0  0  0  0  0  0
   52.0757   27.8283   44.5865 H   0  0  0  0  0  0  0  0  0  0  0  0
  1  7  1  0
  2  1  2  0
  3  2  1  0
  4  3  2  0
  4  5  1  0
  5  6  2  0
  6  1  1  0
  7 12  1  0
  8  9  1  0
  8  7  1  0
  9 10  1  0
 10 11  1  0
 12 11  1  0
 13  5  1  0
 13 17  2  0
 14 15  2  0
 14 13  1  0
 15 16  1  0
 16 18  1  0
 16 17  1  0
 18 19  1  0
  2 20  1  0
  3 21  1  0
  7 22  1  0
  8 23  1  0
  8 24  1  0
  9 25  1  0
  9 26  1  0
 10 27  1  0
 10 28  1  0
 11 29  1  0
 11 30  1  0
 12 31  1  0
 12 32  1  0
 15 33  1  0
 18 34  1  0
 18 35  1  0
 19 36  1  0
M  ISO  8  20  14  21  14  22  13  23  13  24  13  25  13  26  13  27  13
M  ISO  8  28  13  29  13  30  13  31  13  32  13  33  14  34   8  35   8
M  ISO  1  36   3
M  END
>  <minimizedAffinity>  (1) 
-4.08854437

>  <minimizedRMSD>  (1) 
0.0181864928

$$$$
