
     RDKit          3D

 45 48  0  0  0  0  0  0  0  0999 V2000
   47.9370   33.8450   42.8610 C   0  0  0  0  0  0  0  0  0  0  0  0
   48.5880   35.0930   42.6460 C   0  0  0  0  0  0  0  0  0  0  0  0
   49.9500   35.1020   42.3350 C   0  0  0  0  0  0  0  0  0  0  0  0
   50.5770   33.8820   42.2570 N   0  0  0  0  0  0  0  0  0  0  0  0
   49.9110   32.7130   42.4710 C   0  0  0  0  0  0  0  0  0  0  0  0
   48.6120   32.7020   42.7680 N   0  0  0  0  0  0  0  0  0  0  0  0
   46.5050   33.9540   43.1880 C   0  0  0  0  0  0  0  0  0  0  0  0
   45.7740   34.9560   42.4340 C   0  0  0  0  0  0  0  0  0  0  0  0
   45.3010   36.1090   43.2260 C   0  0  0  0  0  0  0  0  0  0  0  0
   44.4730   35.6860   44.4330 C   0  0  0  0  0  0  0  0  0  0  0  0
   44.9820   34.4660   45.1110 C   0  0  0  0  0  0  0  0  0  0  0  0
   46.4360   34.1870   44.7210 C   0  0  0  0  0  0  0  0  0  0  0  0
   50.7230   31.5070   42.3520 C   0  0  0  0  0  0  0  0  0  0  0  0
   51.3470   31.2850   41.1760 N   0  0  0  0  0  0  0  0  0  0  0  0
   52.0460   30.1320   41.2520 C   0  0  0  0  0  0  0  0  0  0  0  0
   51.8490   29.6380   42.4950 N   0  0  0  0  0  0  0  0  0  0  0  0
   51.0430   30.4700   43.1770 N   0  0  0  0  0  0  0  0  0  0  0  0
   52.3830   28.4090   43.0850 C   0  0  0  0  0  0  0  0  0  0  0  0
   51.2060   27.6060   43.5300 C   0  0  0  0  0  0  0  0  0  0  0  0
   50.3800   27.0760   42.5540 C   0  0  0  0  0  0  0  0  0  0  0  0
   49.2590   26.3150   42.8170 C   0  0  0  0  0  0  0  0  0  0  0  0
   48.9570   26.0760   44.1620 C   0  0  0  0  0  0  0  0  0  0  0  0
   49.7900   26.6110   45.1480 C   0  0  0  0  0  0  0  0  0  0  0  0
   50.9050   27.3680   44.8550 C   0  0  0  0  0  0  0  0  0  0  0  0
   48.0269   36.0359   42.7236 H   0  0  0  0  0  0  0  0  0  0  0  0
   50.4947   36.0416   42.1608 H   0  0  0  0  0  0  0  0  0  0  0  0
   45.9922   33.0275   42.8904 H   0  0  0  0  0  0  0  0  0  0  0  0
   46.4343   35.3349   41.6400 H   0  0  0  0  0  0  0  0  0  0  0  0
   44.8728   34.4557   42.0499 H   0  0  0  0  0  0  0  0  0  0  0  0
   46.1744   36.6771   43.5787 H   0  0  0  0  0  0  0  0  0  0  0  0
   44.6574   36.7201   42.5761 H   0  0  0  0  0  0  0  0  0  0  0  0
   44.4720   36.5118   45.1596 H   0  0  0  0  0  0  0  0  0  0  0  0
   43.4644   35.4499   44.0630 H   0  0  0  0  0  0  0  0  0  0  0  0
   44.9228   34.6087   46.2001 H   0  0  0  0  0  0  0  0  0  0  0  0
   44.3656   33.6096   44.8002 H   0  0  0  0  0  0  0  0  0  0  0  0
   46.7950   33.2907   45.2480 H   0  0  0  0  0  0  0  0  0  0  0  0
   47.0689   35.0428   44.9985 H   0  0  0  0  0  0  0  0  0  0  0  0
   52.6576   29.6817   40.4562 H   0  0  0  0  0  0  0  0  0  0  0  0
   52.9637   27.8495   42.3369 H   0  0  0  0  0  0  0  0  0  0  0  0
   53.0542   28.6314   43.9276 H   0  0  0  0  0  0  0  0  0  0  0  0
   50.6330   27.2739   41.5019 H   0  0  0  0  0  0  0  0  0  0  0  0
   48.6320   25.9149   42.0066 H   0  0  0  0  0  0  0  0  0  0  0  0
   48.0775   25.4762   44.4389 H   0  0  0  0  0  0  0  0  0  0  0  0
   49.5460   26.4202   46.2035 H   0  0  0  0  0  0  0  0  0  0  0  0
   51.5387   27.7721   45.6582 H   0  0  0  0  0  0  0  0  0  0  0  0
  1  7  1  0
  2  1  2  0
  3  2  1  0
  4  3  2  0
  4  5  1  0
  5  6  2  0
  6  1  1  0
  7 12  1  0
  8  7  1  0
  8  9  1  0
  9 10  1  0
 10 11  1  0
 12 11  1  0
 13  5  1  0
 13 17  2  0
 14 15  2  0
 14 13  1  0
 15 16  1  0
 16 18  1  0
 16 17  1  0
 18 19  1  0
 19 24  2  0
 20 21  2  0
 20 19  1  0
 21 22  1  0
 22 23  2  0
 24 23  1  0
  2 25  1  0
  3 26  1  0
  7 27  1  0
  8 28  1  0
  8 29  1  0
  9 30  1  0
  9 31  1  0
 10 32  1  0
 10 33  1  0
 11 34  1  0
 11 35  1  0
 12 36  1  0
 12 37  1  0
 15 38  1  0
 18 39  1  0
 18 40  1  0
 20 41  1  0
 21 42  1  0
 22 43  1  0
 23 44  1  0
 24 45  1  0
M  ISO  8  25  14  26  14  27  13  28  13  29  13  30  13  31  13  32  13
M  ISO  8  33  13  34  13  35  13  36  13  37  13  38  14  39   8  40   8
M  ISO  5  41  14  42  14  43  14  44  14  45  14
M  END
>  <minimizedAffinity>  (1) 
-3.94475627

>  <minimizedRMSD>  (1) 
1.76793706

$$$$
