
     RDKit          3D

 32 33  0  0  0  0  0  0  0  0999 V2000
   45.6630   31.6470   47.1340 C   0  0  0  0  0  0  0  0  0  0  0  0
   45.5330   32.0980   48.4440 C   0  0  0  0  0  0  0  0  0  0  0  0
   45.3030   31.2630   49.5200 C   0  0  0  0  0  0  0  0  0  0  0  0
   45.2010   29.9190   49.2690 C   0  0  0  0  0  0  0  0  0  0  0  0
   45.3310   29.4570   47.9550 C   0  0  0  0  0  0  0  0  0  0  0  0
   45.5520   30.3190   46.9650 N   0  0  0  0  0  0  0  0  0  0  0  0
   44.7610   36.6030   43.8250 C   0  0  0  0  0  0  0  0  0  0  0  0
   45.6520   36.3180   42.7870 C   0  0  0  0  0  0  0  0  0  0  0  0
   46.3210   35.0860   42.8270 C   0  0  0  0  0  0  0  0  0  0  0  0
   46.0670   34.2380   43.8670 N   0  0  0  0  0  0  0  0  0  0  0  0
   45.1860   34.5730   44.8530 C   0  0  0  0  0  0  0  0  0  0  0  0
   44.5250   35.7680   44.8320 N   0  0  0  0  0  0  0  0  0  0  0  0
   45.9040   32.5880   46.0540 C   0  0  0  0  0  0  0  0  0  0  0  0
   46.9190   32.4220   45.3140 O   0  0  0  0  0  0  0  0  0  0  0  0
   44.9730   33.6490   45.8960 N   0  0  0  0  0  0  0  0  0  0  0  0
   45.2220   28.0360   47.7050 C   0  0  0  0  0  0  0  0  0  0  0  0
   44.5520   27.2600   48.5310 C   0  0  0  0  0  0  0  0  0  0  0  0
   44.3580   25.7870   48.4060 C   0  0  0  0  0  0  0  0  0  0  0  0
   45.1070   25.3000   47.2400 N   0  0  0  0  0  0  0  0  0  0  0  0
   45.6180   33.1783   48.6329 H   0  0  0  0  0  0  0  0  0  0  0  0
   45.2053   31.6616   50.5406 H   0  0  0  0  0  0  0  0  0  0  0  0
   45.0190   29.2119   50.0917 H   0  0  0  0  0  0  0  0  0  0  0  0
   44.2288   37.5655   43.8080 H   0  0  0  0  0  0  0  0  0  0  0  0
   45.8224   37.0333   41.9689 H   0  0  0  0  0  0  0  0  0  0  0  0
   47.0351   34.8086   42.0376 H   0  0  0  0  0  0  0  0  0  0  0  0
   44.1639   33.7408   46.5267 H   0  0  0  0  0  0  0  0  0  0  0  0
   45.7032   27.6002   46.8170 H   0  0  0  0  0  0  0  0  0  0  0  0
   44.0885   27.7477   49.4013 H   0  0  0  0  0  0  0  0  0  0  0  0
   44.7265   25.2887   49.3147 H   0  0  0  0  0  0  0  0  0  0  0  0
   43.2884   25.5639   48.2785 H   0  0  0  0  0  0  0  0  0  0  0  0
   45.9283   24.7660   47.5581 H   0  0  0  0  0  0  0  0  0  0  0  0
   44.5005   24.6912   46.6722 H   0  0  0  0  0  0  0  0  0  0  0  0
  1  2  2  0
  2  3  1  0
  4  3  2  0
  5  4  1  0
  6  1  1  0
  6  5  2  0
  7 12  2  0
  8  9  2  0
  8  7  1  0
  9 10  1  0
 10 11  2  0
 11 15  1  0
 12 11  1  0
 13  1  1  0
 14 13  2  0
 15 13  1  0
 16  5  1  0
 16 17  2  0
 18 17  1  0
 19 18  1  0
  2 20  1  0
  3 21  1  0
  4 22  1  0
  7 23  1  0
  8 24  1  0
  9 25  1  0
 15 26  1  0
 16 27  1  0
 17 28  1  0
 18 29  1  0
 18 30  1  0
 19 31  1  0
 19 32  1  0
M  ISO  8  20  14  21  14  22  14  23  14  24  14  25  14  29   8  30   8
M  ISO  2  31   5  32   5
M  END
>  <minimizedAffinity>  (1) 
-4.99114323

>  <minimizedRMSD>  (1) 
0.016700577

$$$$
