
     RDKit          3D

 50 53  0  0  0  0  0  0  0  0999 V2000
   46.7900   33.6980   42.0600 C   0  0  0  0  0  0  0  0  0  0  0  0
   46.9000   34.3160   40.7790 C   0  0  0  0  0  0  0  0  0  0  0  0
   47.9830   34.0050   39.9440 C   0  0  0  0  0  0  0  0  0  0  0  0
   48.8890   33.1020   40.4280 N   0  0  0  0  0  0  0  0  0  0  0  0
   48.7440   32.5330   41.6690 C   0  0  0  0  0  0  0  0  0  0  0  0
   47.7150   32.8320   42.4530 N   0  0  0  0  0  0  0  0  0  0  0  0
   45.6160   34.1150   42.8290 C   0  0  0  0  0  0  0  0  0  0  0  0
   45.0100   35.3490   42.3950 C   0  0  0  0  0  0  0  0  0  0  0  0
   45.1110   36.4640   43.3580 C   0  0  0  0  0  0  0  0  0  0  0  0
   44.5600   36.0660   44.7280 C   0  0  0  0  0  0  0  0  0  0  0  0
   44.9340   34.6870   45.1540 C   0  0  0  0  0  0  0  0  0  0  0  0
   46.0910   34.1490   44.3210 C   0  0  0  0  0  0  0  0  0  0  0  0
   49.8120   31.6030   42.0130 C   0  0  0  0  0  0  0  0  0  0  0  0
   50.9190   31.5640   41.2560 N   0  0  0  0  0  0  0  0  0  0  0  0
   51.7710   30.6320   41.7600 C   0  0  0  0  0  0  0  0  0  0  0  0
   51.1660   30.1010   42.8430 N   0  0  0  0  0  0  0  0  0  0  0  0
   49.9760   30.6820   43.0060 N   0  0  0  0  0  0  0  0  0  0  0  0
   51.6890   29.0890   43.7270 C   0  0  0  0  0  0  0  0  0  0  0  0
   50.6860   28.7700   44.7450 C   0  0  0  0  0  0  0  0  0  0  0  0
   50.6120   28.9520   46.0600 C   0  0  0  0  0  0  0  0  0  0  0  0
   49.4070   28.6030   46.9560 C   0  0  0  0  0  0  0  0  0  0  0  0
   48.6920   29.8520   47.2980 C   0  0  0  0  0  0  0  0  0  0  0  0
   47.7250   30.4060   46.4850 C   0  0  0  0  0  0  0  0  0  0  0  0
   47.1520   31.5830   46.9550 C   0  0  0  0  0  0  0  0  0  0  0  0
   47.5170   32.1450   48.1290 N   0  0  0  0  0  0  0  0  0  0  0  0
   48.4520   31.5870   48.8890 C   0  0  0  0  0  0  0  0  0  0  0  0
   49.0310   30.4530   48.4740 N   0  0  0  0  0  0  0  0  0  0  0  0
   46.1368   35.0351   40.4468 H   0  0  0  0  0  0  0  0  0  0  0  0
   48.0979   34.4638   38.9508 H   0  0  0  0  0  0  0  0  0  0  0  0
   44.7923   33.4019   42.6770 H   0  0  0  0  0  0  0  0  0  0  0  0
   45.4993   35.6596   41.4601 H   0  0  0  0  0  0  0  0  0  0  0  0
   43.9365   35.1403   42.2763 H   0  0  0  0  0  0  0  0  0  0  0  0
   46.1677   36.7498   43.4659 H   0  0  0  0  0  0  0  0  0  0  0  0
   44.5170   37.3075   42.9764 H   0  0  0  0  0  0  0  0  0  0  0  0
   44.9451   36.7754   45.4753 H   0  0  0  0  0  0  0  0  0  0  0  0
   43.4631   36.0885   44.6490 H   0  0  0  0  0  0  0  0  0  0  0  0
   45.2325   34.7068   46.2126 H   0  0  0  0  0  0  0  0  0  0  0  0
   44.0643   34.0292   45.0091 H   0  0  0  0  0  0  0  0  0  0  0  0
   46.3553   33.1348   44.6549 H   0  0  0  0  0  0  0  0  0  0  0  0
   46.9799   34.7875   44.4317 H   0  0  0  0  0  0  0  0  0  0  0  0
   52.7608   30.3632   41.3624 H   0  0  0  0  0  0  0  0  0  0  0  0
   51.9268   28.1837   43.1492 H   0  0  0  0  0  0  0  0  0  0  0  0
   52.6024   29.4614   44.2138 H   0  0  0  0  0  0  0  0  0  0  0  0
   49.7983   28.2696   44.3306 H   0  0  0  0  0  0  0  0  0  0  0  0
   51.4910   29.3918   46.5538 H   0  0  0  0  0  0  0  0  0  0  0  0
   48.7294   27.9244   46.4171 H   0  0  0  0  0  0  0  0  0  0  0  0
   49.7543   28.1068   47.8742 H   0  0  0  0  0  0  0  0  0  0  0  0
   47.4274   29.9481   45.5301 H   0  0  0  0  0  0  0  0  0  0  0  0
   46.3749   32.0735   46.3504 H   0  0  0  0  0  0  0  0  0  0  0  0
   48.7460   32.0484   49.8433 H   0  0  0  0  0  0  0  0  0  0  0  0
  1  6  1  0
  1  7  1  0
  2  1  2  0
  3  4  2  0
  3  2  1  0
  4  5  1  0
  5 13  1  0
  5  6  2  0
  7 12  1  0
  8  7  1  0
  8  9  1  0
  9 10  1  0
 10 11  1  0
 12 11  1  0
 13 17  2  0
 14 15  2  0
 14 13  1  0
 15 16  1  0
 16 17  1  0
 16 18  1  0
 18 19  1  0
 19 20  2  0
 20 21  1  0
 21 22  1  0
 22 27  2  0
 23 24  2  0
 23 22  1  0
 24 25  1  0
 25 26  2  0
 27 26  1  0
  2 28  1  0
  3 29  1  0
  7 30  1  0
  8 31  1  0
  8 32  1  0
  9 33  1  0
  9 34  1  0
 10 35  1  0
 10 36  1  0
 11 37  1  0
 11 38  1  0
 12 39  1  0
 12 40  1  0
 15 41  1  0
 18 42  1  0
 18 43  1  0
 19 44  1  0
 20 45  1  0
 21 46  1  0
 21 47  1  0
 23 48  1  0
 24 49  1  0
 26 50  1  0
M  ISO  8  28  14  29  14  30  13  31  13  32  13  33  13  34  13  35  13
M  ISO  8  36  13  37  13  38  13  39  13  40  13  41  14  42   8  43   8
M  ISO  5  46   8  47   8  48  14  49  14  50  14
M  END
>  <minimizedAffinity>  (1) 
-4.99862528

>  <minimizedRMSD>  (1) 
4.24607468

$$$$
