
     RDKit          3D

 58 61  0  0  0  0  0  0  0  0999 V2000
   47.8950   33.7700   42.9040 C   0  0  0  0  0  0  0  0  0  0  0  0
   48.5970   34.9820   42.6320 C   0  0  0  0  0  0  0  0  0  0  0  0
   49.9640   34.9470   42.3290 C   0  0  0  0  0  0  0  0  0  0  0  0
   50.5600   33.7110   42.3120 N   0  0  0  0  0  0  0  0  0  0  0  0
   49.8330   32.5590   42.5850 C   0  0  0  0  0  0  0  0  0  0  0  0
   48.5440   32.6130   42.8680 N   0  0  0  0  0  0  0  0  0  0  0  0
   46.4790   33.9420   43.2120 C   0  0  0  0  0  0  0  0  0  0  0  0
   45.8090   34.9640   42.4470 C   0  0  0  0  0  0  0  0  0  0  0  0
   45.3630   36.1370   43.2180 C   0  0  0  0  0  0  0  0  0  0  0  0
   44.4920   35.7270   44.4020 C   0  0  0  0  0  0  0  0  0  0  0  0
   44.9680   34.5020   45.1130 C   0  0  0  0  0  0  0  0  0  0  0  0
   46.4150   34.1940   44.7560 C   0  0  0  0  0  0  0  0  0  0  0  0
   50.6400   31.3490   42.5230 C   0  0  0  0  0  0  0  0  0  0  0  0
   51.5160   31.1950   41.5190 N   0  0  0  0  0  0  0  0  0  0  0  0
   52.1540   30.0020   41.6580 C   0  0  0  0  0  0  0  0  0  0  0  0
   51.6530   29.4280   42.7700 N   0  0  0  0  0  0  0  0  0  0  0  0
   50.7320   30.2420   43.2980 N   0  0  0  0  0  0  0  0  0  0  0  0
   52.0320   28.1630   43.3470 C   0  0  0  0  0  0  0  0  0  0  0  0
   52.5340   28.3820   44.7050 C   0  0  0  0  0  0  0  0  0  0  0  0
   53.6430   28.9160   45.2070 C   0  0  0  0  0  0  0  0  0  0  0  0
   53.9520   29.1320   46.7020 C   0  0  0  0  0  0  0  0  0  0  0  0
   52.9660   30.1420   47.2370 C   0  0  0  0  0  0  0  0  0  0  0  0
   53.6610   31.4500   47.4620 C   0  0  0  0  0  0  0  0  0  0  0  0
   53.5470   31.8870   48.9130 C   0  0  0  0  0  0  0  0  0  0  0  0
   52.1150   31.9480   49.3430 C   0  0  0  0  0  0  0  0  0  0  0  0
   51.3660   30.6940   49.0000 C   0  0  0  0  0  0  0  0  0  0  0  0
   52.3440   29.6430   48.4980 C   0  0  0  0  0  0  0  0  0  0  0  0
   48.0645   35.9441   42.6603 H   0  0  0  0  0  0  0  0  0  0  0  0
   50.5317   35.8647   42.1153 H   0  0  0  0  0  0  0  0  0  0  0  0
   45.9216   33.0401   42.9188 H   0  0  0  0  0  0  0  0  0  0  0  0
   46.5014   35.3134   41.6669 H   0  0  0  0  0  0  0  0  0  0  0  0
   44.8962   34.4967   42.0491 H   0  0  0  0  0  0  0  0  0  0  0  0
   46.2458   36.6757   43.5928 H   0  0  0  0  0  0  0  0  0  0  0  0
   44.7655   36.7801   42.5551 H   0  0  0  0  0  0  0  0  0  0  0  0
   44.4730   36.5588   45.1215 H   0  0  0  0  0  0  0  0  0  0  0  0
   43.4962   35.4928   43.9977 H   0  0  0  0  0  0  0  0  0  0  0  0
   44.8914   34.6631   46.1984 H   0  0  0  0  0  0  0  0  0  0  0  0
   44.3417   33.6517   44.8053 H   0  0  0  0  0  0  0  0  0  0  0  0
   46.7519   33.2972   45.2966 H   0  0  0  0  0  0  0  0  0  0  0  0
   47.0690   35.0324   45.0378 H   0  0  0  0  0  0  0  0  0  0  0  0
   52.9266   29.5872   40.9939 H   0  0  0  0  0  0  0  0  0  0  0  0
   51.1566   27.4978   43.3816 H   0  0  0  0  0  0  0  0  0  0  0  0
   52.8183   27.6988   42.7336 H   0  0  0  0  0  0  0  0  0  0  0  0
   51.8403   28.0261   45.4810 H   0  0  0  0  0  0  0  0  0  0  0  0
   54.4127   29.2337   44.4882 H   0  0  0  0  0  0  0  0  0  0  0  0
   53.8470   28.1821   47.2466 H   0  0  0  0  0  0  0  0  0  0  0  0
   54.9821   29.4951   46.8323 H   0  0  0  0  0  0  0  0  0  0  0  0
   52.1622   30.2918   46.5012 H   0  0  0  0  0  0  0  0  0  0  0  0
   54.7243   31.3414   47.2019 H   0  0  0  0  0  0  0  0  0  0  0  0
   53.1843   32.2127   46.8287 H   0  0  0  0  0  0  0  0  0  0  0  0
   54.0833   31.1672   49.5488 H   0  0  0  0  0  0  0  0  0  0  0  0
   53.9862   32.8906   49.0126 H   0  0  0  0  0  0  0  0  0  0  0  0
   52.0783   32.0957   50.4324 H   0  0  0  0  0  0  0  0  0  0  0  0
   51.6376   32.7830   48.8093 H   0  0  0  0  0  0  0  0  0  0  0  0
   50.8506   30.3176   49.8960 H   0  0  0  0  0  0  0  0  0  0  0  0
   50.6254   30.9110   48.2162 H   0  0  0  0  0  0  0  0  0  0  0  0
   51.8094   28.7020   48.3014 H   0  0  0  0  0  0  0  0  0  0  0  0
   53.1206   29.4576   49.2547 H   0  0  0  0  0  0  0  0  0  0  0  0
  1  7  1  0
  2  1  2  0
  3  2  1  0
  4  3  2  0
  4  5  1  0
  5  6  2  0
  6  1  1  0
  7 12  1  0
  8  7  1  0
  8  9  1  0
  9 10  1  0
 10 11  1  0
 12 11  1  0
 13  5  1  0
 13 17  2  0
 14 15  2  0
 14 13  1  0
 15 16  1  0
 16 17  1  0
 16 18  1  0
 18 19  1  0
 19 20  2  0
 20 21  1  0
 21 22  1  0
 22 23  1  0
 22 27  1  0
 23 24  1  0
 24 25  1  0
 26 25  1  0
 27 26  1  0
  2 28  1  0
  3 29  1  0
  7 30  1  0
  8 31  1  0
  8 32  1  0
  9 33  1  0
  9 34  1  0
 10 35  1  0
 10 36  1  0
 11 37  1  0
 11 38  1  0
 12 39  1  0
 12 40  1  0
 15 41  1  0
 18 42  1  0
 18 43  1  0
 19 44  1  0
 20 45  1  0
 21 46  1  0
 21 47  1  0
 22 48  1  0
 23 49  1  0
 23 50  1  0
 24 51  1  0
 24 52  1  0
 25 53  1  0
 25 54  1  0
 26 55  1  0
 26 56  1  0
 27 57  1  0
 27 58  1  0
M  ISO  8  28  14  29  14  30  13  31  13  32  13  33  13  34  13  35  13
M  ISO  8  36  13  37  13  38  13  39  13  40  13  41  14  42   8  43   8
M  ISO  8  46   8  47   8  48  13  49  13  50  13  51  13  52  13  53  13
M  ISO  5  54  13  55  13  56  13  57  13  58  13
M  END
>  <minimizedAffinity>  (1) 
-4.61484194

>  <minimizedRMSD>  (1) 
2.31026506

$$$$
