
     RDKit          3D

 57 60  0  0  0  0  0  0  0  0999 V2000
   47.8000   33.5880   42.8990 C   0  0  0  0  0  0  0  0  0  0  0  0
   48.5950   34.7510   42.6950 C   0  0  0  0  0  0  0  0  0  0  0  0
   49.9440   34.6290   42.3720 C   0  0  0  0  0  0  0  0  0  0  0  0
   50.4330   33.3600   42.2690 N   0  0  0  0  0  0  0  0  0  0  0  0
   49.6340   32.2590   42.4750 C   0  0  0  0  0  0  0  0  0  0  0  0
   48.3540   32.3940   42.7810 N   0  0  0  0  0  0  0  0  0  0  0  0
   46.3940   33.8540   43.2360 C   0  0  0  0  0  0  0  0  0  0  0  0
   45.7660   34.8860   42.4470 C   0  0  0  0  0  0  0  0  0  0  0  0
   45.4170   36.1070   43.1980 C   0  0  0  0  0  0  0  0  0  0  0  0
   44.5170   35.7600   44.3880 C   0  0  0  0  0  0  0  0  0  0  0  0
   44.9680   34.5670   45.1530 C   0  0  0  0  0  0  0  0  0  0  0  0
   46.3910   34.1580   44.7720 C   0  0  0  0  0  0  0  0  0  0  0  0
   50.3430   30.9910   42.3360 C   0  0  0  0  0  0  0  0  0  0  0  0
   49.6830   29.9170   41.8810 N   0  0  0  0  0  0  0  0  0  0  0  0
   50.5310   28.8630   41.8360 C   0  0  0  0  0  0  0  0  0  0  0  0
   51.7280   29.3040   42.2710 N   0  0  0  0  0  0  0  0  0  0  0  0
   51.6190   30.5980   42.5770 N   0  0  0  0  0  0  0  0  0  0  0  0
   52.9610   28.5610   42.3800 C   0  0  0  0  0  0  0  0  0  0  0  0
   53.6930   28.6450   41.1200 C   0  0  0  0  0  0  0  0  0  0  0  0
   54.2830   29.6180   40.4500 C   0  0  0  0  0  0  0  0  0  0  0  0
   55.0750   29.5230   39.1360 C   0  0  0  0  0  0  0  0  0  0  0  0
   54.5340   30.5340   38.2720 N   0  0  0  0  0  0  0  0  0  0  0  0
   54.2800   29.9750   36.9580 C   0  0  0  0  0  0  0  0  0  0  0  0
   52.8260   29.4880   36.9050 C   0  0  0  0  0  0  0  0  0  0  0  0
   51.9580   30.7150   36.8940 C   0  0  0  0  0  0  0  0  0  0  0  0
   52.5090   31.8240   37.7610 C   0  0  0  0  0  0  0  0  0  0  0  0
   53.4630   31.3020   38.8090 C   0  0  0  0  0  0  0  0  0  0  0  0
   48.1425   35.7488   42.7928 H   0  0  0  0  0  0  0  0  0  0  0  0
   50.5819   35.5101   42.2085 H   0  0  0  0  0  0  0  0  0  0  0  0
   45.7716   32.9809   42.9904 H   0  0  0  0  0  0  0  0  0  0  0  0
   44.8424   34.4733   42.0150 H   0  0  0  0  0  0  0  0  0  0  0  0
   46.5012   35.1875   41.6864 H   0  0  0  0  0  0  0  0  0  0  0  0
   46.3381   36.5824   43.5661 H   0  0  0  0  0  0  0  0  0  0  0  0
   44.8783   36.7959   42.5307 H   0  0  0  0  0  0  0  0  0  0  0  0
   44.4964   36.6224   45.0705 H   0  0  0  0  0  0  0  0  0  0  0  0
   43.5234   35.5226   43.9801 H   0  0  0  0  0  0  0  0  0  0  0  0
   44.9394   34.8004   46.2276 H   0  0  0  0  0  0  0  0  0  0  0  0
   44.2944   33.7308   44.9142 H   0  0  0  0  0  0  0  0  0  0  0  0
   46.6875   33.2600   45.3338 H   0  0  0  0  0  0  0  0  0  0  0  0
   47.1037   34.9611   45.0109 H   0  0  0  0  0  0  0  0  0  0  0  0
   50.2893   27.8415   41.5072 H   0  0  0  0  0  0  0  0  0  0  0  0
   53.5741   28.9847   43.1891 H   0  0  0  0  0  0  0  0  0  0  0  0
   52.7357   27.5078   42.6035 H   0  0  0  0  0  0  0  0  0  0  0  0
   53.7713   27.6731   40.6108 H   0  0  0  0  0  0  0  0  0  0  0  0
   54.1968   30.6236   40.8875 H   0  0  0  0  0  0  0  0  0  0  0  0
   56.1434   29.7094   39.3197 H   0  0  0  0  0  0  0  0  0  0  0  0
   54.9903   28.5225   38.6867 H   0  0  0  0  0  0  0  0  0  0  0  0
   54.4406   30.7460   36.1901 H   0  0  0  0  0  0  0  0  0  0  0  0
   54.9644   29.1349   36.7687 H   0  0  0  0  0  0  0  0  0  0  0  0
   52.6576   28.8966   35.9929 H   0  0  0  0  0  0  0  0  0  0  0  0
   52.5925   28.8467   37.7677 H   0  0  0  0  0  0  0  0  0  0  0  0
   51.8796   31.0820   35.8600 H   0  0  0  0  0  0  0  0  0  0  0  0
   50.9754   30.4319   37.2993 H   0  0  0  0  0  0  0  0  0  0  0  0
   53.0424   32.5428   37.1217 H   0  0  0  0  0  0  0  0  0  0  0  0
   51.6643   32.3022   38.2785 H   0  0  0  0  0  0  0  0  0  0  0  0
   52.8981   30.6691   39.5093 H   0  0  0  0  0  0  0  0  0  0  0  0
   53.9097   32.1772   39.3035 H   0  0  0  0  0  0  0  0  0  0  0  0
  1  7  1  0
  2  1  2  0
  3  2  1  0
  4  3  2  0
  4  5  1  0
  5  6  2  0
  6  1  1  0
  7 12  1  0
  8  9  1  0
  8  7  1  0
  9 10  1  0
 10 11  1  0
 12 11  1  0
 13  5  1  0
 13 17  2  0
 14 13  1  0
 15 14  2  0
 15 16  1  0
 16 18  1  0
 16 17  1  0
 19 18  1  0
 20 19  2  0
 21 20  1  0
 22 27  1  0
 22 21  1  0
 23 22  1  0
 24 23  1  0
 25 24  1  0
 25 26  1  0
 26 27  1  0
  2 28  1  0
  3 29  1  0
  7 30  1  0
  8 31  1  0
  8 32  1  0
  9 33  1  0
  9 34  1  0
 10 35  1  0
 10 36  1  0
 11 37  1  0
 11 38  1  0
 12 39  1  0
 12 40  1  0
 15 41  1  0
 18 42  1  0
 18 43  1  0
 19 44  1  0
 20 45  1  0
 21 46  1  0
 21 47  1  0
 23 48  1  0
 23 49  1  0
 24 50  1  0
 24 51  1  0
 25 52  1  0
 25 53  1  0
 26 54  1  0
 26 55  1  0
 27 56  1  0
 27 57  1  0
M  ISO  8  28  14  29  14  30  13  31  13  32  13  33  13  34  13  35  13
M  ISO  8  36  13  37  13  38  13  39  13  40  13  41  14  42   8  43   8
M  ISO  8  46   8  47   8  48  13  49  13  50  13  51  13  52  13  53  13
M  ISO  4  54  13  55  13  56  13  57  13
M  END
>  <minimizedAffinity>  (1) 
-4.5304203

>  <minimizedRMSD>  (1) 
3.78529549

$$$$
