
     RDKit          3D

 44 46  0  0  0  0  0  0  0  0999 V2000
   47.9260   33.8240   42.8450 C   0  0  0  0  0  0  0  0  0  0  0  0
   48.6020   35.0590   42.6800 C   0  0  0  0  0  0  0  0  0  0  0  0
   49.9670   35.0710   42.3720 C   0  0  0  0  0  0  0  0  0  0  0  0
   50.5760   33.8540   42.2500 N   0  0  0  0  0  0  0  0  0  0  0  0
   49.8780   32.6810   42.4200 C   0  0  0  0  0  0  0  0  0  0  0  0
   48.5790   32.6780   42.7120 N   0  0  0  0  0  0  0  0  0  0  0  0
   46.4980   33.9540   43.1680 C   0  0  0  0  0  0  0  0  0  0  0  0
   45.7930   34.9550   42.4080 C   0  0  0  0  0  0  0  0  0  0  0  0
   45.3190   36.1170   43.2020 C   0  0  0  0  0  0  0  0  0  0  0  0
   44.4370   35.6270   44.3590 C   0  0  0  0  0  0  0  0  0  0  0  0
   44.9980   34.4610   45.1010 C   0  0  0  0  0  0  0  0  0  0  0  0
   46.4470   34.1980   44.7150 C   0  0  0  0  0  0  0  0  0  0  0  0
   50.7000   31.4860   42.2590 C   0  0  0  0  0  0  0  0  0  0  0  0
   51.1360   31.1500   41.0360 N   0  0  0  0  0  0  0  0  0  0  0  0
   51.8740   30.0150   41.1210 C   0  0  0  0  0  0  0  0  0  0  0  0
   51.8860   29.6580   42.4220 N   0  0  0  0  0  0  0  0  0  0  0  0
   51.1740   30.5490   43.1150 N   0  0  0  0  0  0  0  0  0  0  0  0
   52.5620   28.5320   43.0180 C   0  0  0  0  0  0  0  0  0  0  0  0
   53.9210   28.9280   43.3960 C   0  0  0  0  0  0  0  0  0  0  0  0
   54.4410   29.5670   44.4380 C   0  0  0  0  0  0  0  0  0  0  0  0
   55.9390   29.8270   44.6960 C   0  0  0  0  0  0  0  0  0  0  0  0
   56.4140   30.6590   43.6370 N   0  0  0  0  0  0  0  0  0  0  0  0
   48.0545   36.0063   42.7939 H   0  0  0  0  0  0  0  0  0  0  0  0
   50.5210   36.0114   42.2352 H   0  0  0  0  0  0  0  0  0  0  0  0
   45.9583   33.0398   42.8799 H   0  0  0  0  0  0  0  0  0  0  0  0
   46.4680   35.3283   41.6237 H   0  0  0  0  0  0  0  0  0  0  0  0
   44.8935   34.4647   42.0073 H   0  0  0  0  0  0  0  0  0  0  0  0
   46.1850   36.6609   43.6072 H   0  0  0  0  0  0  0  0  0  0  0  0
   44.7329   36.7861   42.5548 H   0  0  0  0  0  0  0  0  0  0  0  0
   44.3054   36.4572   45.0686 H   0  0  0  0  0  0  0  0  0  0  0  0
   43.4876   35.2933   43.9148 H   0  0  0  0  0  0  0  0  0  0  0  0
   44.9474   34.6665   46.1805 H   0  0  0  0  0  0  0  0  0  0  0  0
   44.4054   33.5708   44.8433 H   0  0  0  0  0  0  0  0  0  0  0  0
   46.8196   33.3095   45.2458 H   0  0  0  0  0  0  0  0  0  0  0  0
   47.0776   35.0570   44.9879 H   0  0  0  0  0  0  0  0  0  0  0  0
   52.3668   29.4881   40.2906 H   0  0  0  0  0  0  0  0  0  0  0  0
   52.0122   28.2049   43.9129 H   0  0  0  0  0  0  0  0  0  0  0  0
   52.6070   27.7042   42.2950 H   0  0  0  0  0  0  0  0  0  0  0  0
   54.6767   28.6309   42.6539 H   0  0  0  0  0  0  0  0  0  0  0  0
   53.7343   29.9478   45.1901 H   0  0  0  0  0  0  0  0  0  0  0  0
   56.0719   30.3352   45.6625 H   0  0  0  0  0  0  0  0  0  0  0  0
   56.4986   28.8806   44.7287 H   0  0  0  0  0  0  0  0  0  0  0  0
   56.8852   31.4844   44.0339 H   0  0  0  0  0  0  0  0  0  0  0  0
   57.0800   30.1294   43.0567 H   0  0  0  0  0  0  0  0  0  0  0  0
  1  7  1  0
  2  1  2  0
  3  2  1  0
  4  3  2  0
  4  5  1  0
  5  6  2  0
  6  1  1  0
  7 12  1  0
  8  7  1  0
  8  9  1  0
  9 10  1  0
 10 11  1  0
 12 11  1  0
 13  5  1  0
 13 17  2  0
 14 15  2  0
 14 13  1  0
 15 16  1  0
 16 18  1  0
 16 17  1  0
 18 19  1  0
 19 20  2  0
 20 21  1  0
 22 21  1  0
  2 23  1  0
  3 24  1  0
  7 25  1  0
  8 26  1  0
  8 27  1  0
  9 28  1  0
  9 29  1  0
 10 30  1  0
 10 31  1  0
 11 32  1  0
 11 33  1  0
 12 34  1  0
 12 35  1  0
 15 36  1  0
 18 37  1  0
 18 38  1  0
 19 39  1  0
 20 40  1  0
 21 41  1  0
 21 42  1  0
 22 43  1  0
 22 44  1  0
M  ISO  8  23  14  24  14  25  13  26  13  27  13  28  13  29  13  30  13
M  ISO  8  31  13  32  13  33  13  34  13  35  13  36  14  37   8  38   8
M  ISO  4  41   8  42   8  43   5  44   5
M  END
>  <minimizedAffinity>  (1) 
-4.34095478

>  <minimizedRMSD>  (1) 
0.457555115

$$$$
