
     RDKit          3D

 54 57  0  0  0  0  0  0  0  0999 V2000
   47.9040   33.7990   42.8680 C   0  0  0  0  0  0  0  0  0  0  0  0
   48.5900   35.0150   42.6400 C   0  0  0  0  0  0  0  0  0  0  0  0
   49.9570   34.9980   42.3350 C   0  0  0  0  0  0  0  0  0  0  0  0
   50.5540   33.7650   42.2780 N   0  0  0  0  0  0  0  0  0  0  0  0
   49.8500   32.6130   42.5070 C   0  0  0  0  0  0  0  0  0  0  0  0
   48.5650   32.6450   42.7920 N   0  0  0  0  0  0  0  0  0  0  0  0
   46.4770   33.9440   43.1840 C   0  0  0  0  0  0  0  0  0  0  0  0
   45.7940   34.9610   42.4250 C   0  0  0  0  0  0  0  0  0  0  0  0
   45.3390   36.1300   43.2180 C   0  0  0  0  0  0  0  0  0  0  0  0
   44.4490   35.6700   44.3840 C   0  0  0  0  0  0  0  0  0  0  0  0
   44.9810   34.4950   45.1130 C   0  0  0  0  0  0  0  0  0  0  0  0
   46.4210   34.1920   44.7280 C   0  0  0  0  0  0  0  0  0  0  0  0
   50.6610   31.4020   42.4060 C   0  0  0  0  0  0  0  0  0  0  0  0
   51.3710   31.1790   41.2880 N   0  0  0  0  0  0  0  0  0  0  0  0
   52.0420   30.0050   41.4110 C   0  0  0  0  0  0  0  0  0  0  0  0
   51.7300   29.5110   42.6250 N   0  0  0  0  0  0  0  0  0  0  0  0
   50.8930   30.3550   43.2310 N   0  0  0  0  0  0  0  0  0  0  0  0
   52.2150   28.2930   43.2260 C   0  0  0  0  0  0  0  0  0  0  0  0
   53.4870   28.5480   43.8990 C   0  0  0  0  0  0  0  0  0  0  0  0
   54.0470   29.6110   44.4520 C   0  0  0  0  0  0  0  0  0  0  0  0
   55.3870   29.6750   45.2010 C   0  0  0  0  0  0  0  0  0  0  0  0
   56.4930   29.3570   44.3690 N   0  0  0  0  0  0  0  0  0  0  0  0
   56.6630   30.2530   43.2480 C   0  0  0  0  0  0  0  0  0  0  0  0
   57.7580   31.2230   43.6540 C   0  0  0  0  0  0  0  0  0  0  0  0
   58.5750   30.4950   44.6740 C   0  0  0  0  0  0  0  0  0  0  0  0
   57.7010   29.3690   45.1270 C   0  0  0  0  0  0  0  0  0  0  0  0
   48.0510   35.9719   42.7021 H   0  0  0  0  0  0  0  0  0  0  0  0
   50.5213   35.9241   42.1511 H   0  0  0  0  0  0  0  0  0  0  0  0
   45.9289   33.0356   42.8934 H   0  0  0  0  0  0  0  0  0  0  0  0
   46.4790   35.3230   41.6442 H   0  0  0  0  0  0  0  0  0  0  0  0
   44.8862   34.4886   42.0215 H   0  0  0  0  0  0  0  0  0  0  0  0
   46.2157   36.6605   43.6180 H   0  0  0  0  0  0  0  0  0  0  0  0
   44.7579   36.7997   42.5670 H   0  0  0  0  0  0  0  0  0  0  0  0
   44.3497   36.5037   45.0947 H   0  0  0  0  0  0  0  0  0  0  0  0
   43.4833   35.3692   43.9515 H   0  0  0  0  0  0  0  0  0  0  0  0
   44.9369   34.6971   46.1934 H   0  0  0  0  0  0  0  0  0  0  0  0
   44.3665   33.6223   44.8470 H   0  0  0  0  0  0  0  0  0  0  0  0
   46.7673   33.2944   45.2614 H   0  0  0  0  0  0  0  0  0  0  0  0
   47.0708   35.0371   44.9991 H   0  0  0  0  0  0  0  0  0  0  0  0
   52.7092   29.5472   40.6659 H   0  0  0  0  0  0  0  0  0  0  0  0
   51.4800   27.9292   43.9591 H   0  0  0  0  0  0  0  0  0  0  0  0
   52.3628   27.5344   42.4432 H   0  0  0  0  0  0  0  0  0  0  0  0
   54.1231   27.6526   43.9593 H   0  0  0  0  0  0  0  0  0  0  0  0
   53.4905   30.5560   44.3660 H   0  0  0  0  0  0  0  0  0  0  0  0
   55.5229   30.6935   45.5938 H   0  0  0  0  0  0  0  0  0  0  0  0
   55.3529   28.9298   46.0094 H   0  0  0  0  0  0  0  0  0  0  0  0
   55.7273   30.7949   43.0458 H   0  0  0  0  0  0  0  0  0  0  0  0
   56.9267   29.7068   42.3304 H   0  0  0  0  0  0  0  0  0  0  0  0
   58.3768   31.4907   42.7848 H   0  0  0  0  0  0  0  0  0  0  0  0
   57.3459   32.1614   44.0536 H   0  0  0  0  0  0  0  0  0  0  0  0
   59.5025   30.1098   44.2252 H   0  0  0  0  0  0  0  0  0  0  0  0
   58.8789   31.1469   45.5063 H   0  0  0  0  0  0  0  0  0  0  0  0
   57.4616   29.4991   46.1927 H   0  0  0  0  0  0  0  0  0  0  0  0
   58.2312   28.4167   44.9786 H   0  0  0  0  0  0  0  0  0  0  0  0
  1  7  1  0
  2  1  2  0
  3  2  1  0
  4  3  2  0
  4  5  1  0
  5  6  2  0
  6  1  1  0
  7 12  1  0
  8  7  1  0
  8  9  1  0
  9 10  1  0
 10 11  1  0
 12 11  1  0
 13  5  1  0
 13 17  2  0
 14 15  2  0
 14 13  1  0
 15 16  1  0
 16 18  1  0
 16 17  1  0
 18 19  1  0
 19 20  2  0
 20 21  1  0
 22 26  1  0
 22 21  1  0
 23 24  1  0
 23 22  1  0
 24 25  1  0
 25 26  1  0
  2 27  1  0
  3 28  1  0
  7 29  1  0
  8 30  1  0
  8 31  1  0
  9 32  1  0
  9 33  1  0
 10 34  1  0
 10 35  1  0
 11 36  1  0
 11 37  1  0
 12 38  1  0
 12 39  1  0
 15 40  1  0
 18 41  1  0
 18 42  1  0
 19 43  1  0
 20 44  1  0
 21 45  1  0
 21 46  1  0
 23 47  1  0
 23 48  1  0
 24 49  1  0
 24 50  1  0
 25 51  1  0
 25 52  1  0
 26 53  1  0
 26 54  1  0
M  ISO  8  27  14  28  14  29  13  30  13  31  13  32  13  33  13  34  13
M  ISO  8  35  13  36  13  37  13  38  13  39  13  40  14  41   8  42   8
M  ISO  8  45   8  46   8  47  13  48  13  49  13  50  13  51  13  52  13
M  ISO  2  53  13  54  13
M  END
>  <minimizedAffinity>  (1) 
-4.16724873

>  <minimizedRMSD>  (1) 
0.404718727

$$$$
