
     RDKit          3D

 49 52  0  0  0  0  0  0  0  0999 V2000
   47.9000   33.8630   42.8430 C   0  0  0  0  0  0  0  0  0  0  0  0
   48.5720   35.1000   42.6500 C   0  0  0  0  0  0  0  0  0  0  0  0
   49.9370   35.1200   42.3360 C   0  0  0  0  0  0  0  0  0  0  0  0
   50.5550   33.9030   42.2320 N   0  0  0  0  0  0  0  0  0  0  0  0
   49.8700   32.7330   42.4260 C   0  0  0  0  0  0  0  0  0  0  0  0
   48.5730   32.7190   42.7240 N   0  0  0  0  0  0  0  0  0  0  0  0
   46.4800   33.9820   43.1700 C   0  0  0  0  0  0  0  0  0  0  0  0
   45.7600   34.9810   42.4200 C   0  0  0  0  0  0  0  0  0  0  0  0
   45.2900   36.1310   43.2090 C   0  0  0  0  0  0  0  0  0  0  0  0
   44.4530   35.6880   44.4080 C   0  0  0  0  0  0  0  0  0  0  0  0
   44.9730   34.4640   45.0870 C   0  0  0  0  0  0  0  0  0  0  0  0
   46.4300   34.2210   44.7170 C   0  0  0  0  0  0  0  0  0  0  0  0
   50.6980   31.5410   42.2790 C   0  0  0  0  0  0  0  0  0  0  0  0
   51.0920   31.1580   41.0560 N   0  0  0  0  0  0  0  0  0  0  0  0
   51.8450   30.0340   41.1580 C   0  0  0  0  0  0  0  0  0  0  0  0
   51.9100   29.7300   42.4690 N   0  0  0  0  0  0  0  0  0  0  0  0
   51.2170   30.6370   43.1610 N   0  0  0  0  0  0  0  0  0  0  0  0
   52.6160   28.6340   43.0820 C   0  0  0  0  0  0  0  0  0  0  0  0
   53.0690   29.0210   44.4180 C   0  0  0  0  0  0  0  0  0  0  0  0
   52.8200   28.5820   45.6420 C   0  0  0  0  0  0  0  0  0  0  0  0
   53.4710   29.0730   46.9490 C   0  0  0  0  0  0  0  0  0  0  0  0
   54.0510   30.4420   46.7830 C   0  0  0  0  0  0  0  0  0  0  0  0
   53.7010   31.5620   47.6720 C   0  0  0  0  0  0  0  0  0  0  0  0
   55.1040   31.0010   47.6410 C   0  0  0  0  0  0  0  0  0  0  0  0
   48.0183   36.0454   42.7475 H   0  0  0  0  0  0  0  0  0  0  0  0
   50.4827   36.0625   42.1814 H   0  0  0  0  0  0  0  0  0  0  0  0
   45.9510   33.0633   42.8767 H   0  0  0  0  0  0  0  0  0  0  0  0
   46.4243   35.3585   41.6287 H   0  0  0  0  0  0  0  0  0  0  0  0
   44.8582   34.4844   42.0324 H   0  0  0  0  0  0  0  0  0  0  0  0
   46.1620   36.6951   43.5716 H   0  0  0  0  0  0  0  0  0  0  0  0
   44.6581   36.7565   42.5614 H   0  0  0  0  0  0  0  0  0  0  0  0
   44.4340   36.5089   45.1399 H   0  0  0  0  0  0  0  0  0  0  0  0
   43.4515   35.4412   44.0258 H   0  0  0  0  0  0  0  0  0  0  0  0
   44.8940   34.5943   46.1764 H   0  0  0  0  0  0  0  0  0  0  0  0
   44.3766   33.5988   44.7618 H   0  0  0  0  0  0  0  0  0  0  0  0
   46.8113   33.3362   45.2478 H   0  0  0  0  0  0  0  0  0  0  0  0
   47.0540   35.0815   45.0000 H   0  0  0  0  0  0  0  0  0  0  0  0
   52.3118   29.4788   40.3310 H   0  0  0  0  0  0  0  0  0  0  0  0
   51.9448   27.7661   43.1612 H   0  0  0  0  0  0  0  0  0  0  0  0
   53.4881   28.3733   42.4644 H   0  0  0  0  0  0  0  0  0  0  0  0
   53.7739   29.8653   44.4021 H   0  0  0  0  0  0  0  0  0  0  0  0
   52.0697   27.7830   45.7355 H   0  0  0  0  0  0  0  0  0  0  0  0
   52.7087   29.0999   47.7416 H   0  0  0  0  0  0  0  0  0  0  0  0
   54.2830   28.3805   47.2155 H   0  0  0  0  0  0  0  0  0  0  0  0
   53.9749   30.2537   45.7019 H   0  0  0  0  0  0  0  0  0  0  0  0
   53.4942   32.5574   47.2520 H   0  0  0  0  0  0  0  0  0  0  0  0
   52.9441   31.7377   48.4506 H   0  0  0  0  0  0  0  0  0  0  0  0
   55.4862   30.4219   48.4946 H   0  0  0  0  0  0  0  0  0  0  0  0
   56.1093   31.4161   47.4765 H   0  0  0  0  0  0  0  0  0  0  0  0
  1  7  1  0
  2  1  2  0
  3  2  1  0
  4  3  2  0
  4  5  1  0
  5  6  2  0
  6  1  1  0
  7 12  1  0
  8  7  1  0
  8  9  1  0
  9 10  1  0
 10 11  1  0
 12 11  1  0
 13  5  1  0
 13 17  2  0
 14 15  2  0
 14 13  1  0
 15 16  1  0
 16 18  1  0
 16 17  1  0
 18 19  1  0
 19 20  2  0
 20 21  1  0
 22 21  1  0
 22 24  1  0
 22 23  1  0
 24 23  1  0
  2 25  1  0
  3 26  1  0
  7 27  1  0
  8 28  1  0
  8 29  1  0
  9 30  1  0
  9 31  1  0
 10 32  1  0
 10 33  1  0
 11 34  1  0
 11 35  1  0
 12 36  1  0
 12 37  1  0
 15 38  1  0
 18 39  1  0
 18 40  1  0
 19 41  1  0
 20 42  1  0
 21 43  1  0
 21 44  1  0
 22 45  1  0
 23 46  1  0
 23 47  1  0
 24 48  1  0
 24 49  1  0
M  ISO  8  25  14  26  14  27  13  28  13  29  13  30  13  31  13  32  13
M  ISO  8  33  13  34  13  35  13  36  13  37  13  38  14  39   8  40   8
M  ISO  7  43   8  44   8  45  13  46  13  47  13  48  13  49  13
M  END
>  <minimizedAffinity>  (1) 
-4.03456736

>  <minimizedRMSD>  (1) 
1.19963753

$$$$
