
     RDKit          3D

 28 29  0  0  0  0  0  0  0  0999 V2000
   46.5040   33.6440   42.9470 C   0  0  0  0  0  0  0  0  0  0  0  0
   45.8250   34.6980   42.1670 C   0  0  0  0  0  0  0  0  0  0  0  0
   45.5200   35.9310   42.9720 C   0  0  0  0  0  0  0  0  0  0  0  0
   44.6740   35.5970   44.1920 C   0  0  0  0  0  0  0  0  0  0  0  0
   45.1660   34.3890   44.9450 C   0  0  0  0  0  0  0  0  0  0  0  0
   46.5060   33.9240   44.4450 C   0  0  0  0  0  0  0  0  0  0  0  0
   47.9120   33.4450   42.5490 C   0  0  0  0  0  0  0  0  0  0  0  0
   48.7920   34.5150   42.8310 C   0  0  0  0  0  0  0  0  0  0  0  0
   50.1410   34.3980   42.4910 C   0  0  0  0  0  0  0  0  0  0  0  0
   50.5300   33.2250   41.8920 N   0  0  0  0  0  0  0  0  0  0  0  0
   49.6610   32.2120   41.6350 C   0  0  0  0  0  0  0  0  0  0  0  0
   48.3720   32.3300   41.9620 N   0  0  0  0  0  0  0  0  0  0  0  0
   50.2150   31.0580   41.0100 N   0  0  0  0  0  0  0  0  0  0  0  0
   45.9172   32.7398   42.7275 H   0  0  0  0  0  0  0  0  0  0  0  0
   46.4738   34.9822   41.3254 H   0  0  0  0  0  0  0  0  0  0  0  0
   44.8637   34.2842   41.8282 H   0  0  0  0  0  0  0  0  0  0  0  0
   46.4651   36.3853   43.3043 H   0  0  0  0  0  0  0  0  0  0  0  0
   44.9553   36.6300   42.3376 H   0  0  0  0  0  0  0  0  0  0  0  0
   44.6858   36.4613   44.8724 H   0  0  0  0  0  0  0  0  0  0  0  0
   43.6603   35.3665   43.8325 H   0  0  0  0  0  0  0  0  0  0  0  0
   45.2537   34.6458   46.0110 H   0  0  0  0  0  0  0  0  0  0  0  0
   44.4433   33.5740   44.7917 H   0  0  0  0  0  0  0  0  0  0  0  0
   46.7799   33.0005   44.9763 H   0  0  0  0  0  0  0  0  0  0  0  0
   47.2314   34.7291   44.6339 H   0  0  0  0  0  0  0  0  0  0  0  0
   48.4177   35.4301   43.3132 H   0  0  0  0  0  0  0  0  0  0  0  0
   50.8583   35.2070   42.6933 H   0  0  0  0  0  0  0  0  0  0  0  0
   49.6118   30.2534   40.7871 H   0  0  0  0  0  0  0  0  0  0  0  0
   51.2188   31.0282   40.7810 H   0  0  0  0  0  0  0  0  0  0  0  0
  1  6  1  0
  2  1  1  0
  2  3  1  0
  3  4  1  0
  4  5  1  0
  6  5  1  0
  7  8  2  0
  7  1  1  0
  9  8  1  0
 10  9  2  0
 11 10  1  0
 11 12  2  0
 12  7  1  0
 13 11  1  0
  1 14  1  0
  2 15  1  0
  2 16  1  0
  3 17  1  0
  3 18  1  0
  4 19  1  0
  4 20  1  0
  5 21  1  0
  5 22  1  0
  6 23  1  0
  6 24  1  0
  8 25  1  0
  9 26  1  0
 13 27  1  0
 13 28  1  0
M  ISO  8  14  13  15  13  16  13  17  13  18  13  19  13  20  13  21  13
M  ISO  5  22  13  23  13  24  13  25  14  26  14
M  END
>  <minimizedAffinity>  (1) 
-3.96749687

>  <minimizedRMSD>  (1) 
1.95544696

$$$$
