
     RDKit          3D

 34 35  0  0  0  0  0  0  0  0999 V2000
   44.5340   35.0980   41.5610 C   0  0  0  0  0  0  0  0  0  0  0  0
   43.3670   35.9430   41.9240 C   0  0  0  0  0  0  0  0  0  0  0  0
   42.0560   35.3010   41.5510 C   0  0  0  0  0  0  0  0  0  0  0  0
   41.9890   34.9400   40.0820 C   0  0  0  0  0  0  0  0  0  0  0  0
   43.2580   34.3230   39.5600 C   0  0  0  0  0  0  0  0  0  0  0  0
   44.1770   33.9220   40.6840 C   0  0  0  0  0  0  0  0  0  0  0  0
   45.2390   34.5560   42.7530 C   0  0  0  0  0  0  0  0  0  0  0  0
   46.5020   34.0030   42.5130 C   0  0  0  0  0  0  0  0  0  0  0  0
   47.2280   33.4690   43.5800 C   0  0  0  0  0  0  0  0  0  0  0  0
   46.6380   33.5260   44.8090 N   0  0  0  0  0  0  0  0  0  0  0  0
   45.4150   34.0670   45.0130 C   0  0  0  0  0  0  0  0  0  0  0  0
   44.7310   34.5720   43.9960 N   0  0  0  0  0  0  0  0  0  0  0  0
   44.9400   34.0510   46.3550 N   0  0  0  0  0  0  0  0  0  0  0  0
   48.4720   32.9030   43.4610 O   0  0  0  0  0  0  0  0  0  0  0  0
   49.5170   33.6740   41.1110 O   0  0  0  0  0  0  0  0  0  0  0  0
   49.7510   33.5970   42.5940 P   0  0  0  0  0  0  0  0  0  0  0  0
   51.1710   32.7370   42.9030 O   0  0  0  0  0  0  0  0  0  0  0  0
   49.9870   35.1790   43.1850 O   0  0  0  0  0  0  0  0  0  0  0  0
   45.1890   35.7850   41.0051 H   0  0  0  0  0  0  0  0  0  0  0  0
   43.3797   36.1153   43.0103 H   0  0  0  0  0  0  0  0  0  0  0  0
   43.4494   36.8871   41.3656 H   0  0  0  0  0  0  0  0  0  0  0  0
   41.9290   34.3848   42.1463 H   0  0  0  0  0  0  0  0  0  0  0  0
   41.2559   36.0277   41.7553 H   0  0  0  0  0  0  0  0  0  0  0  0
   41.1672   34.2235   39.9361 H   0  0  0  0  0  0  0  0  0  0  0  0
   41.8293   35.8749   39.5248 H   0  0  0  0  0  0  0  0  0  0  0  0
   43.0052   33.4305   38.9687 H   0  0  0  0  0  0  0  0  0  0  0  0
   43.7756   35.0689   38.9390 H   0  0  0  0  0  0  0  0  0  0  0  0
   43.6770   33.1585   41.2980 H   0  0  0  0  0  0  0  0  0  0  0  0
   45.1052   33.5287   40.2438 H   0  0  0  0  0  0  0  0  0  0  0  0
   46.9184   33.9891   41.4950 H   0  0  0  0  0  0  0  0  0  0  0  0
   44.0160   34.4472   46.5790 H   0  0  0  0  0  0  0  0  0  0  0  0
   45.5203   33.6432   47.1019 H   0  0  0  0  0  0  0  0  0  0  0  0
   51.3024   32.6574   43.8810 H   0  0  0  0  0  0  0  0  0  0  0  0
   49.9849   35.1652   44.1749 H   0  0  0  0  0  0  0  0  0  0  0  0
  1  2  1  0
  1  7  1  0
  3  2  1  0
  4  3  1  0
  5  4  1  0
  5  6  1  0
  6  1  1  0
  7 12  1  0
  8  7  2  0
  8  9  1  0
  9 10  2  0
 10 11  1  0
 11 13  1  0
 12 11  2  0
 14  9  1  0
 15 16  2  0
 16 17  1  0
 16 18  1  0
 16 14  1  0
  1 19  1  0
  2 20  1  0
  2 21  1  0
  3 22  1  0
  3 23  1  0
  4 24  1  0
  4 25  1  0
  5 26  1  0
  5 27  1  0
  6 28  1  0
  6 29  1  0
  8 30  1  0
 13 31  1  0
 13 32  1  0
 17 33  1  0
 18 34  1  0
M  ISO  8  19  13  20  13  21  13  22  13  23  13  24  13  25  13  26  13
M  ISO  6  27  13  28  13  29  13  30  14  33   3  34   3
M  END
>  <minimizedAffinity>  (1) 
-5.23066235

>  <minimizedRMSD>  (1) 
4.39773464

$$$$
