
     RDKit          3D

 35 37  0  0  0  0  0  0  0  0999 V2000
   43.9770   34.4580   42.5290 C   0  0  0  0  0  0  0  0  0  0  0  0
   44.9740   35.5560   42.4060 C   0  0  0  0  0  0  0  0  0  0  0  0
   46.3790   35.0570   42.2850 C   0  0  0  0  0  0  0  0  0  0  0  0
   46.7430   34.1530   43.4620 C   0  0  0  0  0  0  0  0  0  0  0  0
   45.7070   33.1180   43.7600 C   0  0  0  0  0  0  0  0  0  0  0  0
   44.5920   33.0990   42.7410 C   0  0  0  0  0  0  0  0  0  0  0  0
   43.1070   34.3510   41.3290 C   0  0  0  0  0  0  0  0  0  0  0  0
   41.9470   33.5510   41.4700 C   0  0  0  0  0  0  0  0  0  0  0  0
   41.0890   33.4050   40.3900 C   0  0  0  0  0  0  0  0  0  0  0  0
   41.4240   34.0550   39.2390 N   0  0  0  0  0  0  0  0  0  0  0  0
   42.5520   34.8240   39.1280 C   0  0  0  0  0  0  0  0  0  0  0  0
   43.3960   34.9760   40.1650 N   0  0  0  0  0  0  0  0  0  0  0  0
   42.7550   35.4320   37.8550 N   0  0  0  0  0  0  0  0  0  0  0  0
   39.8660   32.6020   40.4340 C   0  0  0  0  0  0  0  0  0  0  0  0
   40.0230   31.1160   40.2840 C   0  0  0  0  0  0  0  0  0  0  0  0
   39.6270   31.6950   41.5920 C   0  0  0  0  0  0  0  0  0  0  0  0
   43.3927   34.7381   43.4179 H   0  0  0  0  0  0  0  0  0  0  0  0
   44.7341   36.1491   41.5112 H   0  0  0  0  0  0  0  0  0  0  0  0
   44.9161   36.1583   43.3246 H   0  0  0  0  0  0  0  0  0  0  0  0
   46.4789   34.4870   41.3495 H   0  0  0  0  0  0  0  0  0  0  0  0
   47.0589   35.9217   42.2843 H   0  0  0  0  0  0  0  0  0  0  0  0
   47.6890   33.6421   43.2294 H   0  0  0  0  0  0  0  0  0  0  0  0
   46.8242   34.7956   44.3511 H   0  0  0  0  0  0  0  0  0  0  0  0
   46.1900   32.1298   43.7716 H   0  0  0  0  0  0  0  0  0  0  0  0
   45.2618   33.3647   44.7352 H   0  0  0  0  0  0  0  0  0  0  0  0
   43.8093   32.4085   43.0882 H   0  0  0  0  0  0  0  0  0  0  0  0
   45.0228   32.7752   41.7821 H   0  0  0  0  0  0  0  0  0  0  0  0
   41.7289   33.0510   42.4252 H   0  0  0  0  0  0  0  0  0  0  0  0
   43.5813   36.0254   37.6936 H   0  0  0  0  0  0  0  0  0  0  0  0
   42.0754   35.2780   37.0965 H   0  0  0  0  0  0  0  0  0  0  0  0
   39.2781   33.3934   39.9461 H   0  0  0  0  0  0  0  0  0  0  0  0
   39.2940   30.5425   39.6927 H   0  0  0  0  0  0  0  0  0  0  0  0
   40.8268   30.4489   39.9392 H   0  0  0  0  0  0  0  0  0  0  0  0
   40.3349   31.6826   42.4339 H   0  0  0  0  0  0  0  0  0  0  0  0
   38.7914   31.5333   42.2889 H   0  0  0  0  0  0  0  0  0  0  0  0
  1  6  1  0
  2  1  1  0
  3  2  1  0
  3  4  1  0
  4  5  1  0
  6  5  1  0
  7  8  2  0
  7  1  1  0
  9 14  1  0
  9  8  1  0
 10  9  2  0
 11 10  1  0
 11 12  2  0
 12  7  1  0
 13 11  1  0
 14 16  1  0
 15 14  1  0
 15 16  1  0
  1 17  1  0
  2 18  1  0
  2 19  1  0
  3 20  1  0
  3 21  1  0
  4 22  1  0
  4 23  1  0
  5 24  1  0
  5 25  1  0
  6 26  1  0
  6 27  1  0
  8 28  1  0
 13 29  1  0
 13 30  1  0
 14 31  1  0
 15 32  1  0
 15 33  1  0
 16 34  1  0
 16 35  1  0
M  ISO  8  17  13  18  13  19  13  20  13  21  13  22  13  23  13  24  13
M  ISO  8  25  13  26  13  27  13  28  14  31  13  32  13  33  13  34  13
M  ISO  1  35  13
M  END
>  <minimizedAffinity>  (1) 
-4.2806468

>  <minimizedRMSD>  (1) 
7.67738295

$$$$
