
     RDKit          3D

 39 41  0  0  0  0  0  0  0  0999 V2000
   46.4180   32.5000   46.8130 C   0  0  0  0  0  0  0  0  0  0  0  0
   46.6540   31.0850   46.4400 C   0  0  0  0  0  0  0  0  0  0  0  0
   45.5650   30.1910   46.9510 C   0  0  0  0  0  0  0  0  0  0  0  0
   45.3620   30.3110   48.4460 C   0  0  0  0  0  0  0  0  0  0  0  0
   45.4180   31.7080   48.9500 C   0  0  0  0  0  0  0  0  0  0  0  0
   45.3540   32.7230   47.8340 C   0  0  0  0  0  0  0  0  0  0  0  0
   46.0740   33.3210   45.6110 C   0  0  0  0  0  0  0  0  0  0  0  0
   46.7900   33.0930   44.4480 C   0  0  0  0  0  0  0  0  0  0  0  0
   46.5690   33.8690   43.3260 C   0  0  0  0  0  0  0  0  0  0  0  0
   45.6110   34.8510   43.4470 N   0  0  0  0  0  0  0  0  0  0  0  0
   44.9140   35.0570   44.5980 C   0  0  0  0  0  0  0  0  0  0  0  0
   45.1420   34.3060   45.6640 N   0  0  0  0  0  0  0  0  0  0  0  0
   43.9130   36.0720   44.5930 N   0  0  0  0  0  0  0  0  0  0  0  0
   48.5540   33.0190   42.4270 C   0  0  0  0  0  0  0  0  0  0  0  0
   48.8450   32.7400   43.6090 O   0  0  0  0  0  0  0  0  0  0  0  0
   47.3000   33.6840   42.1340 N   0  0  0  0  0  0  0  0  0  0  0  0
   49.3810   32.7480   41.1270 C   0  0  0  0  0  0  0  0  0  0  0  0
   50.7220   32.2010   41.2930 C   0  0  0  0  0  0  0  0  0  0  0  0
   49.6190   31.3440   40.7860 C   0  0  0  0  0  0  0  0  0  0  0  0
   47.3718   32.8116   47.2638 H   0  0  0  0  0  0  0  0  0  0  0  0
   46.6950   31.0069   45.3435 H   0  0  0  0  0  0  0  0  0  0  0  0
   47.6038   30.7636   46.8924 H   0  0  0  0  0  0  0  0  0  0  0  0
   44.6250   30.4579   46.4460 H   0  0  0  0  0  0  0  0  0  0  0  0
   45.8612   29.1531   46.7389 H   0  0  0  0  0  0  0  0  0  0  0  0
   44.3766   29.8914   48.6967 H   0  0  0  0  0  0  0  0  0  0  0  0
   46.1875   29.7646   48.9257 H   0  0  0  0  0  0  0  0  0  0  0  0
   44.5678   31.8737   49.6280 H   0  0  0  0  0  0  0  0  0  0  0  0
   46.3783   31.8398   49.4700 H   0  0  0  0  0  0  0  0  0  0  0  0
   45.4776   33.7289   48.2616 H   0  0  0  0  0  0  0  0  0  0  0  0
   44.3787   32.6188   47.3361 H   0  0  0  0  0  0  0  0  0  0  0  0
   47.5398   32.2887   44.4169 H   0  0  0  0  0  0  0  0  0  0  0  0
   43.3641   36.2581   45.4444 H   0  0  0  0  0  0  0  0  0  0  0  0
   43.7387   36.6192   43.7380 H   0  0  0  0  0  0  0  0  0  0  0  0
   46.9895   33.9773   41.1967 H   0  0  0  0  0  0  0  0  0  0  0  0
   48.9666   33.6166   40.5943 H   0  0  0  0  0  0  0  0  0  0  0  0
   51.5320   32.5134   40.6175 H   0  0  0  0  0  0  0  0  0  0  0  0
   51.4409   32.1369   42.1231 H   0  0  0  0  0  0  0  0  0  0  0  0
   49.2057   30.5445   41.4184 H   0  0  0  0  0  0  0  0  0  0  0  0
   49.4610   30.7174   39.8958 H   0  0  0  0  0  0  0  0  0  0  0  0
  1  6  1  0
  2  1  1  0
  2  3  1  0
  3  4  1  0
  4  5  1  0
  6  5  1  0
  7 12  1  0
  7  1  1  0
  8  7  2  0
  9 10  2  0
  9  8  1  0
 10 11  1  0
 11 12  2  0
 13 11  1  0
 14 15  2  0
 16 14  1  0
 16  9  1  0
 17 18  1  0
 17 14  1  0
 19 17  1  0
 19 18  1  0
  1 20  1  0
  2 21  1  0
  2 22  1  0
  3 23  1  0
  3 24  1  0
  4 25  1  0
  4 26  1  0
  5 27  1  0
  5 28  1  0
  6 29  1  0
  6 30  1  0
  8 31  1  0
 13 32  1  0
 13 33  1  0
 16 34  1  0
 17 35  1  0
 18 36  1  0
 18 37  1  0
 19 38  1  0
 19 39  1  0
M  ISO  8  20  13  21  13  22  13  23  13  24  13  25  13  26  13  27  13
M  ISO  8  28  13  29  13  30  13  31  14  35  13  36  13  37  13  38  13
M  ISO  1  39  13
M  END
>  <minimizedAffinity>  (1) 
-5.58556509

>  <minimizedRMSD>  (1) 
1.50203145

$$$$
