
     RDKit          3D

 22 22  0  0  0  0  0  0  0  0999 V2000
   44.6240   36.2140   44.5470 C   0  0  0  0  0  0  0  0  0  0  0  0
   45.1510   36.1610   43.2280 C   0  0  0  0  0  0  0  0  0  0  0  0
   45.7870   34.9880   42.8640 C   0  0  0  0  0  0  0  0  0  0  0  0
   45.8850   33.9650   43.7440 N   0  0  0  0  0  0  0  0  0  0  0  0
   45.3700   34.0530   44.9950 C   0  0  0  0  0  0  0  0  0  0  0  0
   44.7450   35.1740   45.3860 N   0  0  0  0  0  0  0  0  0  0  0  0
   46.3080   34.9300   41.5660 O   0  0  0  0  0  0  0  0  0  0  0  0
   47.7980   32.8460   40.9670 O   0  0  0  0  0  0  0  0  0  0  0  0
   47.8820   34.3140   41.3210 P   0  0  1  0  0  0  0  0  0  0  0  0
   48.6030   35.2020   40.0890 O   0  0  0  0  0  0  0  0  0  0  0  0
   48.7290   34.4720   42.7890 O   0  0  0  0  0  0  0  0  0  0  0  0
   50.0820   34.7480   42.5300 C   0  0  0  0  0  0  0  0  0  0  0  0
   50.8640   33.4630   42.3840 C   0  0  0  0  0  0  0  0  0  0  0  0
   44.1076   37.1241   44.8861 H   0  0  0  0  0  0  0  0  0  0  0  0
   45.0579   37.0086   42.5331 H   0  0  0  0  0  0  0  0  0  0  0  0
   45.4646   33.2053   45.6895 H   0  0  0  0  0  0  0  0  0  0  0  0
   49.1757   35.9073   40.4822 H   0  0  0  0  0  0  0  0  0  0  0  0
   50.1616   35.3284   41.5990 H   0  0  0  0  0  0  0  0  0  0  0  0
   50.4958   35.3235   43.3711 H   0  0  0  0  0  0  0  0  0  0  0  0
   51.1058   33.0657   43.3808 H   0  0  0  0  0  0  0  0  0  0  0  0
   50.2604   32.7271   41.8325 H   0  0  0  0  0  0  0  0  0  0  0  0
   51.7949   33.6609   41.8325 H   0  0  0  0  0  0  0  0  0  0  0  0
  1  6  2  0
  2  1  1  0
  3  2  2  0
  3  4  1  0
  4  5  2  0
  5  6  1  0
  7  3  1  0
  9  8  2  0
  9  7  1  0
  9 11  1  0
 10  9  1  0
 12 11  1  0
 13 12  1  0
  1 14  1  0
  2 15  1  0
  5 16  1  0
 10 17  1  0
 12 18  1  0
 12 19  1  0
 13 20  1  0
 13 21  1  0
 13 22  1  0
M  ISO  8  14  14  15  14  16  14  17   3  18   8  19   8  20   8  21   8
M  ISO  1  22   8
M  END
>  <minimizedAffinity>  (1) 
-4.22665024

>  <minimizedRMSD>  (1) 
1.00917017

$$$$
