
     RDKit          3D

 19 19  0  0  0  0  0  0  0  0999 V2000
   45.5240   33.8430   41.8780 O   0  0  0  0  0  0  0  0  0  0  0  0
   44.4110   35.9110   44.6950 C   0  0  0  0  0  0  0  0  0  0  0  0
   44.6520   35.4970   43.3600 C   0  0  0  0  0  0  0  0  0  0  0  0
   45.2800   34.2650   43.1840 C   0  0  0  0  0  0  0  0  0  0  0  0
   45.6260   33.5270   44.2730 N   0  0  0  0  0  0  0  0  0  0  0  0
   45.3750   33.9630   45.5300 C   0  0  0  0  0  0  0  0  0  0  0  0
   44.7740   35.1420   45.7440 N   0  0  0  0  0  0  0  0  0  0  0  0
   47.9630   32.8840   41.6050 O   0  0  0  0  0  0  0  0  0  0  0  0
   47.0900   34.0690   41.2030 P   0  0  1  0  0  0  0  0  0  0  0  0
   46.9480   34.2250   39.5490 O   0  0  0  0  0  0  0  0  0  0  0  0
   47.7490   35.4540   41.9020 O   0  0  0  0  0  0  0  0  0  0  0  0
   49.0030   35.7500   41.4120 C   0  0  0  0  0  0  0  0  0  0  0  0
   49.4480   37.0150   41.7670 F   0  0  0  0  0  0  0  0  0  0  0  0
   49.8930   34.7550   41.7570 F   0  0  0  0  0  0  0  0  0  0  0  0
   48.8940   35.7520   40.0220 F   0  0  0  0  0  0  0  0  0  0  0  0
   43.9188   36.8773   44.8795 H   0  0  0  0  0  0  0  0  0  0  0  0
   44.3568   36.1197   42.5026 H   0  0  0  0  0  0  0  0  0  0  0  0
   45.6685   33.3407   46.3882 H   0  0  0  0  0  0  0  0  0  0  0  0
   46.2966   34.9406   39.3397 H   0  0  0  0  0  0  0  0  0  0  0  0
  1  4  1  0
  2  7  2  0
  3  2  1  0
  4  3  2  0
  4  5  1  0
  5  6  2  0
  6  7  1  0
  9  8  2  0
  9  1  1  0
  9 11  1  0
 10  9  1  0
 12 14  1  0
 12 13  1  0
 12 11  1  0
 15 12  1  0
  2 16  1  0
  3 17  1  0
  6 18  1  0
 10 19  1  0
M  ISO  4  16  14  17  14  18  14  19   3
M  END
>  <minimizedAffinity>  (1) 
-4.97457361

>  <minimizedRMSD>  (1) 
1.87327671

$$$$
