
     RDKit          3D

 34 35  0  0  0  0  0  0  0  0999 V2000
   48.0970   32.8590   41.7710 O   0  0  0  0  0  0  0  0  0  0  0  0
   47.1750   33.9920   41.2970 P   0  0  2  0  0  0  0  0  0  0  0  0
   45.6190   33.7300   41.9690 O   0  0  0  0  0  0  0  0  0  0  0  0
   44.3960   35.8940   44.6520 C   0  0  0  0  0  0  0  0  0  0  0  0
   44.6790   35.4390   43.3420 C   0  0  0  0  0  0  0  0  0  0  0  0
   45.3230   34.2120   43.2400 C   0  0  0  0  0  0  0  0  0  0  0  0
   45.6510   33.5120   44.3650 N   0  0  0  0  0  0  0  0  0  0  0  0
   45.3530   34.0000   45.6000 C   0  0  0  0  0  0  0  0  0  0  0  0
   44.7340   35.1740   45.7450 N   0  0  0  0  0  0  0  0  0  0  0  0
   47.0690   34.0820   39.6410 O   0  0  0  0  0  0  0  0  0  0  0  0
   47.7610   32.5400   37.8790 C   0  0  0  0  0  0  0  0  0  0  0  0
   46.8950   32.9250   38.8920 C   0  0  0  0  0  0  0  0  0  0  0  0
   45.8370   32.0640   39.1030 C   0  0  0  0  0  0  0  0  0  0  0  0
   45.5980   30.9000   38.4020 C   0  0  0  0  0  0  0  0  0  0  0  0
   46.4990   30.5820   37.4120 C   0  0  0  0  0  0  0  0  0  0  0  0
   47.5850   31.3880   37.1340 C   0  0  0  0  0  0  0  0  0  0  0  0
   50.0720   32.8190   37.4630 N   0  0  0  0  0  0  0  0  0  0  0  0
   48.9100   33.3880   37.5830 C   0  0  0  0  0  0  0  0  0  0  0  0
   48.9370   34.7990   37.4020 N   0  0  0  0  0  0  0  0  0  0  0  0
   50.9350   33.3730   37.2520 H   0  0  0  0  0  0  0  0  0  0  0  0
   47.7770   35.4170   41.9630 O   0  0  0  0  0  0  0  0  0  0  0  0
   49.0200   35.7570   41.4590 C   0  0  0  0  0  0  0  0  0  0  0  0
   49.4450   37.0210   41.8520 F   0  0  0  0  0  0  0  0  0  0  0  0
   49.9340   34.7720   41.7600 F   0  0  0  0  0  0  0  0  0  0  0  0
   48.8840   35.8040   40.0750 F   0  0  0  0  0  0  0  0  0  0  0  0
   43.8870   36.8601   44.7843 H   0  0  0  0  0  0  0  0  0  0  0  0
   44.4040   36.0251   42.4527 H   0  0  0  0  0  0  0  0  0  0  0  0
   45.6264   33.4181   46.4926 H   0  0  0  0  0  0  0  0  0  0  0  0
   45.1238   32.3284   39.8976 H   0  0  0  0  0  0  0  0  0  0  0  0
   44.7317   30.2592   38.6232 H   0  0  0  0  0  0  0  0  0  0  0  0
   46.3504   29.6623   36.8272 H   0  0  0  0  0  0  0  0  0  0  0  0
   48.2947   31.1198   36.3375 H   0  0  0  0  0  0  0  0  0  0  0  0
   48.0666   35.3446   37.4770 H   0  0  0  0  0  0  0  0  0  0  0  0
   49.8270   35.2749   37.1960 H   0  0  0  0  0  0  0  0  0  0  0  0
  2  1  2  0
  2 21  1  0
  2  3  1  0
  3  6  1  0
  4  9  2  0
  5  4  1  0
  6  5  2  0
  6  7  1  0
  7  8  2  0
  8  9  1  0
 10  2  1  0
 11 12  2  0
 12 13  1  0
 12 10  1  0
 14 13  2  0
 15 14  1  0
 16 15  2  0
 16 11  1  0
 17 18  2  0
 18 11  1  0
 19 18  1  0
 20 17  1  0
 22 24  1  0
 22 23  1  0
 22 21  1  0
 25 22  1  0
  4 26  1  0
  5 27  1  0
  8 28  1  0
 13 29  1  0
 14 30  1  0
 15 31  1  0
 16 32  1  0
 19 33  1  0
 19 34  1  0
M  ISO  7  26  14  27  14  28  14  29  14  30  14  31  14  32  14
M  END
>  <minimizedAffinity>  (1) 
-5.81173754

>  <minimizedRMSD>  (1) 
0.43249166

$$$$
