
     RDKit          3D

 23 24  0  0  0  0  0  0  0  0999 V2000
   44.5800   33.1660   41.1780 Br  0  0  0  0  0  0  0  0  0  0  0  0
   46.2910   34.0210   40.9520 C   0  0  0  0  0  0  0  0  0  0  0  0
   46.8260   34.7590   41.9730 C   0  0  0  0  0  0  0  0  0  0  0  0
   48.0620   35.3800   41.8190 C   0  0  0  0  0  0  0  0  0  0  0  0
   48.7190   35.2340   40.6320 C   0  0  0  0  0  0  0  0  0  0  0  0
   48.1330   34.4760   39.6320 C   0  0  0  0  0  0  0  0  0  0  0  0
   46.9280   33.8570   39.7540 C   0  0  0  0  0  0  0  0  0  0  0  0
   45.5920   34.0340   45.3390 C   0  0  0  0  0  0  0  0  0  0  0  0
   44.6970   35.0800   45.6020 C   0  0  0  0  0  0  0  0  0  0  0  0
   44.5310   36.0350   44.5950 C   0  0  0  0  0  0  0  0  0  0  0  0
   45.2310   35.9060   43.4340 N   0  0  0  0  0  0  0  0  0  0  0  0
   46.0860   34.8810   43.2210 C   0  0  0  0  0  0  0  0  0  0  0  0
   46.2590   33.9440   44.1870 N   0  0  0  0  0  0  0  0  0  0  0  0
   46.3470   33.0550   38.6470 C   0  0  0  0  0  0  0  0  0  0  0  0
   48.4989   35.9745   42.6349 H   0  0  0  0  0  0  0  0  0  0  0  0
   49.6975   35.7103   40.4721 H   0  0  0  0  0  0  0  0  0  0  0  0
   48.6752   34.3679   38.6810 H   0  0  0  0  0  0  0  0  0  0  0  0
   45.7496   33.2625   46.1070 H   0  0  0  0  0  0  0  0  0  0  0  0
   44.1515   35.1462   46.5549 H   0  0  0  0  0  0  0  0  0  0  0  0
   43.8428   36.8811   44.7386 H   0  0  0  0  0  0  0  0  0  0  0  0
   45.7501   32.2311   39.0652 H   0  0  0  0  0  0  0  0  0  0  0  0
   45.7030   33.6969   38.0280 H   0  0  0  0  0  0  0  0  0  0  0  0
   47.1576   32.6431   38.0280 H   0  0  0  0  0  0  0  0  0  0  0  0
  2  1  1  0
  2  3  2  0
  3 12  1  0
  4  3  1  0
  5  4  2  0
  6  7  2  0
  6  5  1  0
  7  2  1  0
  8  9  2  0
 10  9  1  0
 11 10  2  0
 12 11  1  0
 12 13  2  0
 13  8  1  0
 14  7  1  0
  4 15  1  0
  5 16  1  0
  6 17  1  0
  8 18  1  0
  9 19  1  0
 10 20  1  0
 14 21  1  0
 14 22  1  0
 14 23  1  0
M  ISO  8  15  14  16  14  17  14  18  14  19  14  20  14  21   8  22   8
M  ISO  1  23   8
M  END
>  <minimizedAffinity>  (1) 
-5.16934729

>  <minimizedRMSD>  (1) 
0.0216294397

$$$$
