
     RDKit          3D

 29 30  0  0  0  0  0  0  0  0999 V2000
   48.1620   32.8700   41.5710 O   0  0  0  0  0  0  0  0  0  0  0  0
   47.2030   33.9910   41.2050 P   0  0  2  0  0  0  0  0  0  0  0  0
   45.6650   33.6510   41.9120 O   0  0  0  0  0  0  0  0  0  0  0  0
   44.4120   35.8420   44.5700 C   0  0  0  0  0  0  0  0  0  0  0  0
   44.7000   35.3630   43.2620 C   0  0  0  0  0  0  0  0  0  0  0  0
   45.3650   34.1540   43.1730 C   0  0  0  0  0  0  0  0  0  0  0  0
   45.7110   33.4880   44.3170 N   0  0  0  0  0  0  0  0  0  0  0  0
   45.4180   33.9800   45.5360 C   0  0  0  0  0  0  0  0  0  0  0  0
   44.7700   35.1550   45.6690 N   0  0  0  0  0  0  0  0  0  0  0  0
   47.0170   34.1950   39.5710 O   0  0  0  0  0  0  0  0  0  0  0  0
   47.4260   33.2080   38.6820 C   0  0  0  0  0  0  0  0  0  0  0  0
   48.6580   33.3060   38.0290 C   0  0  0  0  0  0  0  0  0  0  0  0
   49.1060   32.3530   37.1390 C   0  0  0  0  0  0  0  0  0  0  0  0
   48.3190   31.2490   36.8690 C   0  0  0  0  0  0  0  0  0  0  0  0
   47.0940   31.1130   37.4940 C   0  0  0  0  0  0  0  0  0  0  0  0
   46.6940   32.0950   38.3740 C   0  0  0  0  0  0  0  0  0  0  0  0
   47.7830   35.4010   41.9410 O   0  0  0  0  0  0  0  0  0  0  0  0
   49.0240   35.7740   41.4550 C   0  0  0  0  0  0  0  0  0  0  0  0
   49.4180   37.0340   41.8740 F   0  0  0  0  0  0  0  0  0  0  0  0
   49.9540   34.8010   41.7520 F   0  0  0  0  0  0  0  0  0  0  0  0
   48.9070   35.8310   40.0750 F   0  0  0  0  0  0  0  0  0  0  0  0
   43.8827   36.7993   44.6854 H   0  0  0  0  0  0  0  0  0  0  0  0
   44.4077   35.9274   42.3642 H   0  0  0  0  0  0  0  0  0  0  0  0
   45.7109   33.4164   46.4341 H   0  0  0  0  0  0  0  0  0  0  0  0
   49.2958   34.1786   38.2334 H   0  0  0  0  0  0  0  0  0  0  0  0
   50.0829   32.4703   36.6472 H   0  0  0  0  0  0  0  0  0  0  0  0
   48.6661   30.4827   36.1603 H   0  0  0  0  0  0  0  0  0  0  0  0
   46.4534   30.2415   37.2937 H   0  0  0  0  0  0  0  0  0  0  0  0
   45.7163   31.9750   38.8635 H   0  0  0  0  0  0  0  0  0  0  0  0
  2  1  2  0
  2  3  1  0
  2 17  1  0
  3  6  1  0
  4  9  2  0
  5  4  1  0
  6  5  2  0
  6  7  1  0
  7  8  2  0
  8  9  1  0
 10  2  1  0
 11 10  1  0
 12 11  2  0
 13 12  1  0
 14 13  2  0
 14 15  1  0
 15 16  2  0
 16 11  1  0
 18 20  1  0
 18 19  1  0
 18 17  1  0
 21 18  1  0
  4 22  1  0
  5 23  1  0
  8 24  1  0
 12 25  1  0
 13 26  1  0
 14 27  1  0
 15 28  1  0
 16 29  1  0
M  ISO  8  22  14  23  14  24  14  25  14  26  14  27  14  28  14  29  14
M  END
>  <minimizedAffinity>  (1) 
-5.05455208

>  <minimizedRMSD>  (1) 
0.648146868

$$$$
