
     RDKit          3D

 26 27  0  0  0  0  0  0  0  0999 V2000
   48.0470   32.8830   41.8250 O   0  0  0  0  0  0  0  0  0  0  0  0
   47.1910   34.0390   41.3050 P   0  0  2  0  0  0  0  0  0  0  0  0
   45.5960   33.8260   41.9300 O   0  0  0  0  0  0  0  0  0  0  0  0
   44.3880   35.9290   44.6820 C   0  0  0  0  0  0  0  0  0  0  0  0
   44.6790   35.4850   43.3730 C   0  0  0  0  0  0  0  0  0  0  0  0
   45.3090   34.2640   43.2170 C   0  0  0  0  0  0  0  0  0  0  0  0
   45.6250   33.5360   44.3230 N   0  0  0  0  0  0  0  0  0  0  0  0
   45.3320   33.9910   45.5680 C   0  0  0  0  0  0  0  0  0  0  0  0
   44.7220   35.1720   45.7550 N   0  0  0  0  0  0  0  0  0  0  0  0
   47.1080   34.0750   39.6400 O   0  0  0  0  0  0  0  0  0  0  0  0
   46.1360   33.1890   39.2470 C   0  0  0  0  0  0  0  0  0  0  0  0
   46.3850   31.8770   38.6450 C   0  0  0  0  0  0  0  0  0  0  0  0
   46.1070   33.0230   37.6990 C   0  0  0  0  0  0  0  0  0  0  0  0
   47.8130   35.4650   41.9480 O   0  0  0  0  0  0  0  0  0  0  0  0
   49.0440   35.7790   41.4310 C   0  0  0  0  0  0  0  0  0  0  0  0
   49.4680   37.0580   41.7790 F   0  0  0  0  0  0  0  0  0  0  0  0
   49.9560   34.8070   41.7460 F   0  0  0  0  0  0  0  0  0  0  0  0
   48.9020   35.7860   40.0400 F   0  0  0  0  0  0  0  0  0  0  0  0
   43.8865   36.8966   44.8314 H   0  0  0  0  0  0  0  0  0  0  0  0
   44.4108   36.0960   42.4985 H   0  0  0  0  0  0  0  0  0  0  0  0
   45.6001   33.3791   46.4419 H   0  0  0  0  0  0  0  0  0  0  0  0
   45.4863   33.4587   40.0927 H   0  0  0  0  0  0  0  0  0  0  0  0
   47.3953   31.4442   38.6889 H   0  0  0  0  0  0  0  0  0  0  0  0
   45.9388   30.8811   38.7832 H   0  0  0  0  0  0  0  0  0  0  0  0
   46.9123   33.4417   37.0776 H   0  0  0  0  0  0  0  0  0  0  0  0
   45.3907   33.2306   36.8904 H   0  0  0  0  0  0  0  0  0  0  0  0
  2  1  2  0
  2  3  1  0
  2 14  1  0
  3  6  1  0
  4  9  2  0
  5  4  1  0
  6  5  2  0
  6  7  1  0
  7  8  2  0
  8  9  1  0
 10  2  1  0
 11 10  1  0
 12 11  1  0
 13 12  1  0
 13 11  1  0
 15 17  1  0
 15 16  1  0
 15 14  1  0
 18 15  1  0
  4 19  1  0
  5 20  1  0
  8 21  1  0
 11 22  1  0
 12 23  1  0
 12 24  1  0
 13 25  1  0
 13 26  1  0
M  ISO  8  19  14  20  14  21  14  22  13  23  13  24  13  25  13  26  13
M  END
>  <minimizedAffinity>  (1) 
-4.77451468

>  <minimizedRMSD>  (1) 
1.10033011

$$$$
