
     RDKit          3D

 22 22  0  0  0  0  0  0  0  0999 V2000
   45.5800   33.8170   41.9620 O   0  0  0  0  0  0  0  0  0  0  0  0
   44.3860   35.9520   44.7020 C   0  0  0  0  0  0  0  0  0  0  0  0
   44.6720   35.5010   43.3910 C   0  0  0  0  0  0  0  0  0  0  0  0
   45.2960   34.2640   43.2530 C   0  0  0  0  0  0  0  0  0  0  0  0
   45.6020   33.5420   44.3760 N   0  0  0  0  0  0  0  0  0  0  0  0
   45.3080   34.0160   45.6040 C   0  0  0  0  0  0  0  0  0  0  0  0
   44.7080   35.2040   45.7800 N   0  0  0  0  0  0  0  0  0  0  0  0
   48.0440   32.8800   41.9080 O   0  0  0  0  0  0  0  0  0  0  0  0
   47.1680   34.0080   41.3510 P   0  0  1  0  0  0  0  0  0  0  0  0
   47.1130   34.0050   39.6760 O   0  0  0  0  0  0  0  0  0  0  0  0
   46.0490   33.1730   39.2620 C   0  0  0  0  0  0  0  0  0  0  0  0
   47.7780   35.4550   41.9450 O   0  0  0  0  0  0  0  0  0  0  0  0
   49.0150   35.7610   41.4200 C   0  0  0  0  0  0  0  0  0  0  0  0
   49.4660   37.0280   41.7790 F   0  0  0  0  0  0  0  0  0  0  0  0
   49.9210   34.7800   41.7450 F   0  0  0  0  0  0  0  0  0  0  0  0
   48.8730   35.7780   40.0290 F   0  0  0  0  0  0  0  0  0  0  0  0
   43.8945   36.9256   44.8451 H   0  0  0  0  0  0  0  0  0  0  0  0
   44.4102   36.1072   42.5112 H   0  0  0  0  0  0  0  0  0  0  0  0
   45.5671   33.4122   46.4862 H   0  0  0  0  0  0  0  0  0  0  0  0
   45.5334   32.7698   40.1461 H   0  0  0  0  0  0  0  0  0  0  0  0
   45.3393   33.7582   38.6588 H   0  0  0  0  0  0  0  0  0  0  0  0
   46.4458   32.3431   38.6588 H   0  0  0  0  0  0  0  0  0  0  0  0
  1  4  1  0
  2  7  2  0
  3  2  1  0
  4  3  2  0
  4  5  1  0
  5  6  2  0
  6  7  1  0
  9  8  2  0
  9 12  1  0
  9  1  1  0
 10  9  1  0
 11 10  1  0
 13 15  1  0
 13 14  1  0
 13 12  1  0
 16 13  1  0
  2 17  1  0
  3 18  1  0
  6 19  1  0
 11 20  1  0
 11 21  1  0
 11 22  1  0
M  ISO  6  17  14  18  14  19  14  20   8  21   8  22   8
M  END
>  <minimizedAffinity>  (1) 
-4.75362349

>  <minimizedRMSD>  (1) 
0.215335876

$$$$
