
     RDKit          3D

 34 36  0  0  0  0  0  0  0  0999 V2000
   48.1130   32.8620   41.5690 O   0  0  0  0  0  0  0  0  0  0  0  0
   47.1420   34.0240   41.2220 P   0  0  2  0  0  0  0  0  0  0  0  0
   45.6110   33.6720   41.9130 O   0  0  0  0  0  0  0  0  0  0  0  0
   44.4110   35.8370   44.5880 C   0  0  0  0  0  0  0  0  0  0  0  0
   44.6850   35.3500   43.2910 C   0  0  0  0  0  0  0  0  0  0  0  0
   45.3550   34.1210   43.1930 C   0  0  0  0  0  0  0  0  0  0  0  0
   45.6940   33.4800   44.3250 N   0  0  0  0  0  0  0  0  0  0  0  0
   45.4160   33.9760   45.5520 C   0  0  0  0  0  0  0  0  0  0  0  0
   44.7790   35.1450   45.6950 N   0  0  0  0  0  0  0  0  0  0  0  0
   46.9610   34.1470   39.5780 O   0  0  0  0  0  0  0  0  0  0  0  0
   47.5900   33.4540   38.5850 C   0  0  0  0  0  0  0  0  0  0  0  0
   48.8180   32.9410   38.8750 O   0  0  0  0  0  0  0  0  0  0  0  0
   46.3860   32.3460   36.7510 C   0  0  0  0  0  0  0  0  0  0  0  0
   47.5230   32.9390   37.1760 C   0  0  0  0  0  0  0  0  0  0  0  0
   48.5460   33.0550   36.2390 C   0  0  0  0  0  0  0  0  0  0  0  0
   48.5840   32.6600   34.9360 C   0  0  0  0  0  0  0  0  0  0  0  0
   49.4940   32.7190   33.9590 N   0  0  0  0  0  0  0  0  0  0  0  0
   48.8430   32.1270   32.9140 C   0  0  0  0  0  0  0  0  0  0  0  0
   47.5930   31.7360   33.2710 N   0  0  0  0  0  0  0  0  0  0  0  0
   47.4090   32.0680   34.5610 C   0  0  0  0  0  0  0  0  0  0  0  0
   46.3560   31.9130   35.4140 C   0  0  0  0  0  0  0  0  0  0  0  0
   47.7560   35.3820   41.9470 O   0  0  0  0  0  0  0  0  0  0  0  0
   49.0060   35.7290   41.4550 C   0  0  0  0  0  0  0  0  0  0  0  0
   49.4290   36.9680   41.9070 F   0  0  0  0  0  0  0  0  0  0  0  0
   49.9060   34.7430   41.7100 F   0  0  0  0  0  0  0  0  0  0  0  0
   48.8620   35.8450   40.0780 F   0  0  0  0  0  0  0  0  0  0  0  0
   43.8881   36.7979   44.7029 H   0  0  0  0  0  0  0  0  0  0  0  0
   44.3853   35.9115   42.3938 H   0  0  0  0  0  0  0  0  0  0  0  0
   45.7177   33.4106   46.4460 H   0  0  0  0  0  0  0  0  0  0  0  0
   45.5238   32.2084   37.4201 H   0  0  0  0  0  0  0  0  0  0  0  0
   49.4628   33.5391   36.6067 H   0  0  0  0  0  0  0  0  0  0  0  0
   50.4458   33.1117   33.9869 H   0  0  0  0  0  0  0  0  0  0  0  0
   49.2758   31.9854   31.9127 H   0  0  0  0  0  0  0  0  0  0  0  0
   45.4428   31.4277   35.0390 H   0  0  0  0  0  0  0  0  0  0  0  0
  2  1  2  0
  2  3  1  0
  2 22  1  0
  3  6  1  0
  4  9  2  0
  5  4  1  0
  6  5  2  0
  6  7  1  0
  7  8  2  0
  8  9  1  0
 10  2  1  0
 11 12  2  0
 11 10  1  0
 13 14  2  0
 14 11  1  0
 15 14  1  0
 16 15  2  0
 17 16  1  0
 18 19  2  0
 18 17  1  0
 19 20  1  0
 20 16  1  0
 20 21  2  0
 21 13  1  0
 23 25  1  0
 23 24  1  0
 23 22  1  0
 26 23  1  0
  4 27  1  0
  5 28  1  0
  8 29  1  0
 13 30  1  0
 15 31  1  0
 17 32  1  0
 18 33  1  0
 21 34  1  0
M  ISO  8  27  14  28  14  29  14  30  14  31  14  32   9  33  14  34  14
M  END
>  <minimizedAffinity>  (1) 
-6.16908836

>  <minimizedRMSD>  (1) 
2.96575809

$$$$
