
     RDKit          3D

 40 44  0  0  1  0  0  0  0  0999 V2000
   47.9850   32.8910   41.6930 O   0  0  0  0  0  0  0  0  0  0  0  0
   47.1300   34.0860   41.2640 P   0  0  2  0  0  0  0  0  0  0  0  0
   45.5450   33.8830   41.8860 O   0  0  0  0  0  0  0  0  0  0  0  0
   44.3980   35.9250   44.6790 C   0  0  0  0  0  0  0  0  0  0  0  0
   44.6680   35.4950   43.3600 C   0  0  0  0  0  0  0  0  0  0  0  0
   45.3020   34.2590   43.1890 C   0  0  0  0  0  0  0  0  0  0  0  0
   45.6280   33.5300   44.2830 N   0  0  0  0  0  0  0  0  0  0  0  0
   45.3580   33.9660   45.5380 C   0  0  0  0  0  0  0  0  0  0  0  0
   44.7510   35.1460   45.7470 N   0  0  0  0  0  0  0  0  0  0  0  0
   47.0720   34.1250   39.6080 O   0  0  0  0  0  0  0  0  0  0  0  0
   46.6890   33.1440   38.7340 C   0  0  0  0  0  0  0  0  0  0  0  0
   45.4800   32.6210   38.8550 O   0  0  0  0  0  0  0  0  0  0  0  0
   44.9670   30.5820   34.5660 C   0  0  0  0  0  0  0  0  0  0  0  0
   45.2890   32.0600   34.4710 C   0  0  0  0  0  0  0  0  0  0  0  0
   46.2400   32.3590   35.5480 N   0  0  0  0  0  0  0  0  0  0  0  0
   47.3120   32.7030   36.3830 C   0  0  2  0  0  0  0  0  0  0  0  0
   48.3830   33.2780   35.9870 O   0  0  0  0  0  0  0  0  0  0  0  0
   46.6850   32.1700   37.6440 C   0  0  2  0  0  0  0  0  0  0  0  0
   45.4860   32.0900   36.7580 C   0  0  1  0  0  0  0  0  0  0  0  0
   44.9740   30.3880   36.3960 S   0  0  0  0  0  0  0  0  0  0  0  0
   45.9490   29.6920   33.8940 C   0  0  0  0  0  0  0  0  0  0  0  0
   43.5520   30.4010   34.1160 C   0  0  0  0  0  0  0  0  0  0  0  0
   47.7890   35.4390   41.9390 O   0  0  0  0  0  0  0  0  0  0  0  0
   49.0370   35.7500   41.4210 C   0  0  0  0  0  0  0  0  0  0  0  0
   49.4610   37.0270   41.7700 F   0  0  0  0  0  0  0  0  0  0  0  0
   49.9420   34.7920   41.7440 F   0  0  0  0  0  0  0  0  0  0  0  0
   48.8900   35.7650   40.0390 F   0  0  0  0  0  0  0  0  0  0  0  0
   43.9011   36.8917   44.8480 H   0  0  0  0  0  0  0  0  0  0  0  0
   44.3883   36.1130   42.4941 H   0  0  0  0  0  0  0  0  0  0  0  0
   45.6407   33.3431   46.3995 H   0  0  0  0  0  0  0  0  0  0  0  0
   46.2900   33.9083   38.0509 H   0  0  0  0  0  0  0  0  0  0  0  0
   45.7405   32.2868   33.4939 H   0  0  0  0  0  0  0  0  0  0  0  0
   44.3781   32.6686   34.5698 H   0  0  0  0  0  0  0  0  0  0  0  0
   48.9142   33.5632   36.7723 H   0  0  0  0  0  0  0  0  0  0  0  0
   46.5388   29.1574   34.6532 H   0  0  0  0  0  0  0  0  0  0  0  0
   45.4144   28.9644   33.2657 H   0  0  0  0  0  0  0  0  0  0  0  0
   46.6207   30.2954   33.2657 H   0  0  0  0  0  0  0  0  0  0  0  0
   42.8957   30.3170   34.9947 H   0  0  0  0  0  0  0  0  0  0  0  0
   43.2459   31.2673   33.5112 H   0  0  0  0  0  0  0  0  0  0  0  0
   43.4738   29.4855   33.5112 H   0  0  0  0  0  0  0  0  0  0  0  0
  2  1  2  0
  2  3  1  0
  2 23  1  0
  3  6  1  0
  4  9  2  0
  5  4  1  0
  6  5  2  0
  6  7  1  0
  7  8  2  0
  8  9  1  0
 10  2  1  0
 11 12  1  0
 11 10  1  0
 13 20  1  0
 14 13  1  0
 15 14  1  0
 15 16  1  0
 15 19  1  0
 16 17  1  1
 16 19  1  0
 16 18  1  0
 18 11  1  0
 18 12  1  6
 19 20  1  6
 19 18  1  0
 21 13  1  0
 22 13  1  0
 24 26  1  0
 24 25  1  0
 24 23  1  0
 27 24  1  0
  4 28  1  0
  5 29  1  0
  8 30  1  0
 11 31  1  0
 14 32  1  0
 14 33  1  0
 17 34  1  0
 21 35  1  0
 21 36  1  0
 21 37  1  0
 22 38  1  0
 22 39  1  0
 22 40  1  0
M  ISO  8  28  14  29  14  30  14  31  13  32  13  33  13  34   3  35   8
M  ISO  5  36   8  37   8  38   8  39   8  40   8
M  END
>  <minimizedAffinity>  (1) 
-5.88324451

>  <minimizedRMSD>  (1) 
1.71071875

$$$$
