
     RDKit          3D

 26 27  0  0  1  0  0  0  0  0999 V2000
   46.0510   34.3150   41.5310 N   0  0  0  0  0  0  0  0  0  0  0  0
   45.1000   34.0580   40.4810 C   0  0  0  0  0  0  0  0  0  0  0  0
   45.6650   33.2430   39.3600 C   0  0  0  0  0  0  0  0  0  0  0  0
   46.9260   33.7040   38.8600 N   0  0  0  0  0  0  0  0  0  0  0  0
   47.8050   34.2640   39.8080 C   0  0  0  0  0  0  0  0  0  0  0  0
   47.4500   34.2230   41.2390 C   0  0  1  0  0  0  0  0  0  0  0  0
   44.5770   36.0530   44.4950 C   0  0  0  0  0  0  0  0  0  0  0  0
   44.9570   35.8400   43.1610 C   0  0  0  0  0  0  0  0  0  0  0  0
   45.6150   34.6530   42.8370 C   0  0  0  0  0  0  0  0  0  0  0  0
   45.8500   33.7610   43.8620 N   0  0  0  0  0  0  0  0  0  0  0  0
   45.4640   34.0120   45.1370 C   0  0  0  0  0  0  0  0  0  0  0  0
   44.8310   35.1510   45.4530 N   0  0  0  0  0  0  0  0  0  0  0  0
   48.1230   35.3650   41.9220 C   0  0  0  0  0  0  0  0  0  0  0  0
   49.0440   36.0100   41.4350 O   0  0  0  0  0  0  0  0  0  0  0  0
   44.2437   33.5167   40.9097 H   0  0  0  0  0  0  0  0  0  0  0  0
   44.8056   35.0312   40.0613 H   0  0  0  0  0  0  0  0  0  0  0  0
   45.7952   32.2113   39.7185 H   0  0  0  0  0  0  0  0  0  0  0  0
   44.9519   33.3253   38.5265 H   0  0  0  0  0  0  0  0  0  0  0  0
   47.4034   32.9019   38.4245 H   0  0  0  0  0  0  0  0  0  0  0  0
   48.7666   33.7405   39.7015 H   0  0  0  0  0  0  0  0  0  0  0  0
   47.7936   35.3377   39.5691 H   0  0  0  0  0  0  0  0  0  0  0  0
   47.7781   33.2349   41.5941 H   0  0  0  0  0  0  0  0  0  0  0  0
   44.0569   36.9850   44.7613 H   0  0  0  0  0  0  0  0  0  0  0  0
   44.7409   36.5921   42.3879 H   0  0  0  0  0  0  0  0  0  0  0  0
   45.6729   33.2713   45.9229 H   0  0  0  0  0  0  0  0  0  0  0  0
   47.7707   35.6459   42.9255 H   0  0  0  0  0  0  0  0  0  0  0  0
  1  9  1  0
  2  1  1  0
  3  2  1  0
  4  3  1  0
  4  5  1  0
  5  6  1  0
  6  1  1  0
  6 13  1  0
  7 12  2  0
  8  7  1  0
  9  8  2  0
  9 10  1  0
 10 11  2  0
 11 12  1  0
 14 13  2  0
  2 15  1  0
  2 16  1  0
  3 17  1  0
  3 18  1  0
  4 19  1  0
  5 20  1  0
  5 21  1  0
  6 22  1  1
  7 23  1  0
  8 24  1  0
 11 25  1  0
 13 26  1  0
M  ISO  8  15  13  16  13  17  13  18  13  19   5  20  13  21  13  22  13
M  ISO  4  23  14  24  14  25  14  26   6
M  END
>  <minimizedAffinity>  (1) 
-4.49190331

>  <minimizedRMSD>  (1) 
1.29462683

$$$$
