
     RDKit          3D

 54 57  0  0  0  0  0  0  0  0999 V2000
   45.4760   27.8550   47.6340 C   0  0  0  0  0  0  0  0  0  0  0  0
   44.3940   27.2040   47.2750 C   0  0  0  0  0  0  0  0  0  0  0  0
   45.6360   31.4780   47.0350 C   0  0  0  0  0  0  0  0  0  0  0  0
   45.3660   31.9330   48.3240 C   0  0  0  0  0  0  0  0  0  0  0  0
   45.1310   31.0940   49.3930 C   0  0  0  0  0  0  0  0  0  0  0  0
   45.1690   29.7430   49.1570 C   0  0  0  0  0  0  0  0  0  0  0  0
   45.4390   29.2870   47.8730 C   0  0  0  0  0  0  0  0  0  0  0  0
   45.6570   30.1500   46.8810 N   0  0  0  0  0  0  0  0  0  0  0  0
   44.7890   36.5520   43.8700 C   0  0  0  0  0  0  0  0  0  0  0  0
   45.6680   36.2720   42.8250 C   0  0  0  0  0  0  0  0  0  0  0  0
   46.3040   35.0310   42.8320 C   0  0  0  0  0  0  0  0  0  0  0  0
   46.0620   34.1390   43.8360 N   0  0  0  0  0  0  0  0  0  0  0  0
   45.1920   34.4650   44.8360 C   0  0  0  0  0  0  0  0  0  0  0  0
   44.5600   35.6670   44.8500 N   0  0  0  0  0  0  0  0  0  0  0  0
   45.8710   32.4470   45.9730 C   0  0  0  0  0  0  0  0  0  0  0  0
   46.8640   32.2680   45.2180 O   0  0  0  0  0  0  0  0  0  0  0  0
   44.9480   33.5280   45.8760 N   0  0  0  0  0  0  0  0  0  0  0  0
   44.2790   25.7430   46.9990 C   0  0  0  0  0  0  0  0  0  0  0  0
   44.2070   23.1490   45.6030 Cl  0  0  0  0  0  0  0  0  0  0  0  0
   42.8080   24.1780   45.8530 C   0  0  0  0  0  0  0  0  0  0  0  0
   42.9160   25.3920   46.5230 C   0  0  0  0  0  0  0  0  0  0  0  0
   41.8200   26.2050   46.7200 C   0  0  0  0  0  0  0  0  0  0  0  0
   40.5740   25.7990   46.2320 C   0  0  0  0  0  0  0  0  0  0  0  0
   40.4830   24.6020   45.5730 C   0  0  0  0  0  0  0  0  0  0  0  0
   41.5930   23.7510   45.3600 C   0  0  0  0  0  0  0  0  0  0  0  0
   41.3560   22.5000   44.6630 C   0  0  0  0  0  0  0  0  0  0  0  0
   41.0840   21.2670   45.4350 C   0  0  0  0  0  0  0  0  0  0  0  0
   41.0440   20.1180   44.4390 C   0  0  0  0  0  0  0  0  0  0  0  0
   40.2360   20.3560   43.3520 O   0  0  0  0  0  0  0  0  0  0  0  0
   39.4120   21.4670   43.5210 C   0  0  0  0  0  0  0  0  0  0  0  0
   40.3210   22.6780   43.5870 C   0  0  0  0  0  0  0  0  0  0  0  0
   46.4230   27.3087   47.7554 H   0  0  0  0  0  0  0  0  0  0  0  0
   43.4752   27.7990   47.1663 H   0  0  0  0  0  0  0  0  0  0  0  0
   45.3389   33.0188   48.4982 H   0  0  0  0  0  0  0  0  0  0  0  0
   44.9211   31.4927   50.3965 H   0  0  0  0  0  0  0  0  0  0  0  0
   44.9879   29.0297   49.9745 H   0  0  0  0  0  0  0  0  0  0  0  0
   44.2711   37.5222   43.8908 H   0  0  0  0  0  0  0  0  0  0  0  0
   45.8532   37.0031   42.0243 H   0  0  0  0  0  0  0  0  0  0  0  0
   47.0039   34.7699   42.0246 H   0  0  0  0  0  0  0  0  0  0  0  0
   44.1511   33.6246   46.5214 H   0  0  0  0  0  0  0  0  0  0  0  0
   45.0114   25.4649   46.2268 H   0  0  0  0  0  0  0  0  0  0  0  0
   44.4736   25.1956   47.9331 H   0  0  0  0  0  0  0  0  0  0  0  0
   41.9244   27.1609   47.2543 H   0  0  0  0  0  0  0  0  0  0  0  0
   39.6838   26.4292   46.3748 H   0  0  0  0  0  0  0  0  0  0  0  0
   39.5005   24.2873   45.1913 H   0  0  0  0  0  0  0  0  0  0  0  0
   42.3576   22.2922   44.2586 H   0  0  0  0  0  0  0  0  0  0  0  0
   41.8824   21.0996   46.1729 H   0  0  0  0  0  0  0  0  0  0  0  0
   40.1319   21.3472   45.9800 H   0  0  0  0  0  0  0  0  0  0  0  0
   42.0669   19.9357   44.0779 H   0  0  0  0  0  0  0  0  0  0  0  0
   40.6241   19.2493   44.9673 H   0  0  0  0  0  0  0  0  0  0  0  0
   38.7199   21.5584   42.6709 H   0  0  0  0  0  0  0  0  0  0  0  0
   38.8078   21.3758   44.4356 H   0  0  0  0  0  0  0  0  0  0  0  0
   40.8247   22.8061   42.6175 H   0  0  0  0  0  0  0  0  0  0  0  0
   39.7149   23.5662   43.8190 H   0  0  0  0  0  0  0  0  0  0  0  0
  1  7  1  0
  2  1  2  0
  3  4  2  0
  4  5  1  0
  6  5  2  0
  7  6  1  0
  8  3  1  0
  8  7  2  0
  9 14  2  0
 10 11  2  0
 10  9  1  0
 11 12  1  0
 12 13  2  0
 13 14  1  0
 13 17  1  0
 15  3  1  0
 16 15  2  0
 17 15  1  0
 18  2  1  0
 19 20  1  0
 20 21  2  0
 21 22  1  0
 21 18  1  0
 23 22  2  0
 24 23  1  0
 25 24  2  0
 25 20  1  0
 26 25  1  0
 26 27  1  0
 28 27  1  0
 29 30  1  0
 29 28  1  0
 30 31  1  0
 31 26  1  0
  1 32  1  0
  2 33  1  0
  4 34  1  0
  5 35  1  0
  6 36  1  0
  9 37  1  0
 10 38  1  0
 11 39  1  0
 17 40  1  0
 18 41  1  0
 18 42  1  0
 22 43  1  0
 23 44  1  0
 24 45  1  0
 26 46  1  0
 27 47  1  0
 27 48  1  0
 28 49  1  0
 28 50  1  0
 30 51  1  0
 30 52  1  0
 31 53  1  0
 31 54  1  0
M  ISO  8  34  14  35  14  36  14  37  14  38  14  39  14  41   8  42   8
M  ISO  8  43  14  44  14  45  14  46  13  47  13  48  13  49  13  50  13
M  ISO  4  51  13  52  13  53  13  54  13
M  END
>  <minimizedAffinity>  (1) 
-6.32633829

>  <minimizedRMSD>  (1) 
1.37719727

$$$$
