
     RDKit          3D

 52 55  0  0  1  0  0  0  0  0999 V2000
   45.4760   27.9550   47.7230 C   0  0  0  0  0  0  0  0  0  0  0  0
   44.4620   27.3540   47.1660 C   0  0  0  0  0  0  0  0  0  0  0  0
   45.6470   31.5690   47.0840 C   0  0  0  0  0  0  0  0  0  0  0  0
   45.3920   32.0440   48.3790 C   0  0  0  0  0  0  0  0  0  0  0  0
   45.1640   31.2170   49.4660 C   0  0  0  0  0  0  0  0  0  0  0  0
   45.1950   29.8610   49.2330 C   0  0  0  0  0  0  0  0  0  0  0  0
   45.4480   29.3880   47.9480 C   0  0  0  0  0  0  0  0  0  0  0  0
   45.6600   30.2400   46.9450 N   0  0  0  0  0  0  0  0  0  0  0  0
   44.7660   36.5890   43.8500 C   0  0  0  0  0  0  0  0  0  0  0  0
   45.6630   36.2970   42.8020 C   0  0  0  0  0  0  0  0  0  0  0  0
   46.3160   35.0590   42.8250 C   0  0  0  0  0  0  0  0  0  0  0  0
   46.0680   34.1870   43.8480 N   0  0  0  0  0  0  0  0  0  0  0  0
   45.1940   34.5190   44.8340 C   0  0  0  0  0  0  0  0  0  0  0  0
   44.5470   35.7170   44.8320 N   0  0  0  0  0  0  0  0  0  0  0  0
   45.8730   32.5260   46.0120 C   0  0  0  0  0  0  0  0  0  0  0  0
   46.8730   32.3430   45.2620 O   0  0  0  0  0  0  0  0  0  0  0  0
   44.9470   33.5970   45.8920 N   0  0  0  0  0  0  0  0  0  0  0  0
   44.3300   25.8920   46.8640 C   0  0  0  0  0  0  0  0  0  0  0  0
   44.1020   23.1370   45.7930 Cl  0  0  0  0  0  0  0  0  0  0  0  0
   42.7680   24.2810   45.9140 C   0  0  0  0  0  0  0  0  0  0  0  0
   42.9500   25.5550   46.4270 C   0  0  0  0  0  0  0  0  0  0  0  0
   41.9070   26.4540   46.5240 C   0  0  0  0  0  0  0  0  0  0  0  0
   40.6280   26.0630   46.0890 C   0  0  0  0  0  0  0  0  0  0  0  0
   40.4620   24.7850   45.5780 C   0  0  0  0  0  0  0  0  0  0  0  0
   41.5190   23.8830   45.4840 C   0  0  0  0  0  0  0  0  0  0  0  0
   41.4670   22.4480   43.4520 C   0  0  2  0  0  0  0  0  0  0  0  0
   41.3390   22.5210   44.9390 C   0  0  2  0  0  0  0  0  0  0  0  0
   40.0140   21.9190   45.2120 C   0  0  0  0  0  0  0  0  0  0  0  0
   39.2570   21.9490   44.0680 O   0  0  0  0  0  0  0  0  0  0  0  0
   40.0810   22.1230   42.9850 C   0  0  0  0  0  0  0  0  0  0  0  0
   42.3980   21.5000   43.0280 O   0  0  0  0  0  0  0  0  0  0  0  0
   46.3586   27.3718   48.0244 H   0  0  0  0  0  0  0  0  0  0  0  0
   43.6092   27.9902   46.8869 H   0  0  0  0  0  0  0  0  0  0  0  0
   45.3721   33.1320   48.5397 H   0  0  0  0  0  0  0  0  0  0  0  0
   44.9674   31.6247   50.4686 H   0  0  0  0  0  0  0  0  0  0  0  0
   45.0208   29.1543   50.0578 H   0  0  0  0  0  0  0  0  0  0  0  0
   44.2380   37.5540   43.8564 H   0  0  0  0  0  0  0  0  0  0  0  0
   45.8439   37.0191   41.9921 H   0  0  0  0  0  0  0  0  0  0  0  0
   47.0230   34.7901   42.0263 H   0  0  0  0  0  0  0  0  0  0  0  0
   44.1458   33.7006   46.5310 H   0  0  0  0  0  0  0  0  0  0  0  0
   45.0350   25.6263   46.0625 H   0  0  0  0  0  0  0  0  0  0  0  0
   44.5527   25.3259   47.7805 H   0  0  0  0  0  0  0  0  0  0  0  0
   42.0736   27.4606   46.9351 H   0  0  0  0  0  0  0  0  0  0  0  0
   39.7769   26.7569   46.1529 H   0  0  0  0  0  0  0  0  0  0  0  0
   39.4640   24.4736   45.2360 H   0  0  0  0  0  0  0  0  0  0  0  0
   41.8483   23.3898   43.0305 H   0  0  0  0  0  0  0  0  0  0  0  0
   42.1427   21.9760   45.4558 H   0  0  0  0  0  0  0  0  0  0  0  0
   40.1444   20.8768   45.5389 H   0  0  0  0  0  0  0  0  0  0  0  0
   39.5067   22.4893   46.0041 H   0  0  0  0  0  0  0  0  0  0  0  0
   39.7010   22.9486   42.3653 H   0  0  0  0  0  0  0  0  0  0  0  0
   40.1042   21.1966   42.3924 H   0  0  0  0  0  0  0  0  0  0  0  0
   42.8171   21.0732   43.8169 H   0  0  0  0  0  0  0  0  0  0  0  0
  1  7  1  0
  2  1  2  0
  3  4  2  0
  4  5  1  0
  6  5  2  0
  7  6  1  0
  8  3  1  0
  8  7  2  0
  9 14  2  0
 10 11  2  0
 10  9  1  0
 11 12  1  0
 12 13  2  0
 13 17  1  0
 14 13  1  0
 15  3  1  0
 16 15  2  0
 17 15  1  0
 18  2  1  0
 19 20  1  0
 20 21  2  0
 21 22  1  0
 21 18  1  0
 23 22  2  0
 24 23  1  0
 25 24  2  0
 25 20  1  0
 26 31  1  0
 26 27  1  0
 27 28  1  0
 27 25  1  0
 29 28  1  0
 30 26  1  0
 30 29  1  0
  1 32  1  0
  2 33  1  0
  4 34  1  0
  5 35  1  0
  6 36  1  0
  9 37  1  0
 10 38  1  0
 11 39  1  0
 17 40  1  0
 18 41  1  0
 18 42  1  0
 22 43  1  0
 23 44  1  0
 24 45  1  0
 26 46  1  6
 27 47  1  1
 28 48  1  0
 28 49  1  0
 30 50  1  0
 30 51  1  0
 31 52  1  0
M  ISO  8  34  14  35  14  36  14  37  14  38  14  39  14  41   8  42   8
M  ISO  8  43  14  44  14  45  14  46  13  47  13  48  13  49  13  50  13
M  ISO  2  51  13  52   3
M  END
>  <minimizedAffinity>  (1) 
-6.23511362

>  <minimizedRMSD>  (1) 
1.94199479

$$$$
