
     RDKit          3D

 55 58  0  0  0  0  0  0  0  0999 V2000
   45.6480   31.5800   47.0600 C   0  0  0  0  0  0  0  0  0  0  0  0
   45.4060   32.0480   48.3620 C   0  0  0  0  0  0  0  0  0  0  0  0
   45.1850   31.2150   49.4380 C   0  0  0  0  0  0  0  0  0  0  0  0
   45.2060   29.8650   49.2080 C   0  0  0  0  0  0  0  0  0  0  0  0
   45.4440   29.3950   47.9180 C   0  0  0  0  0  0  0  0  0  0  0  0
   45.6520   30.2500   46.9180 N   0  0  0  0  0  0  0  0  0  0  0  0
   44.7690   36.6180   43.8470 C   0  0  0  0  0  0  0  0  0  0  0  0
   45.6500   36.3270   42.8020 C   0  0  0  0  0  0  0  0  0  0  0  0
   46.2970   35.0890   42.8180 C   0  0  0  0  0  0  0  0  0  0  0  0
   46.0550   34.2100   43.8380 N   0  0  0  0  0  0  0  0  0  0  0  0
   45.1860   34.5480   44.8270 C   0  0  0  0  0  0  0  0  0  0  0  0
   44.5390   35.7490   44.8420 N   0  0  0  0  0  0  0  0  0  0  0  0
   45.8700   32.5430   45.9900 C   0  0  0  0  0  0  0  0  0  0  0  0
   46.8650   32.3550   45.2350 O   0  0  0  0  0  0  0  0  0  0  0  0
   44.9440   33.6210   45.8830 N   0  0  0  0  0  0  0  0  0  0  0  0
   45.4640   27.9670   47.6850 C   0  0  0  0  0  0  0  0  0  0  0  0
   44.6070   27.1860   48.2820 C   0  0  0  0  0  0  0  0  0  0  0  0
   44.5000   25.6940   48.1460 C   0  0  0  0  0  0  0  0  0  0  0  0
   44.9940   23.1020   46.8000 Cl  0  0  0  0  0  0  0  0  0  0  0  0
   43.5780   24.1180   46.5430 C   0  0  0  0  0  0  0  0  0  0  0  0
   43.4120   25.3160   47.2070 C   0  0  0  0  0  0  0  0  0  0  0  0
   42.3020   26.1120   47.0050 C   0  0  0  0  0  0  0  0  0  0  0  0
   41.3140   25.6890   46.1000 C   0  0  0  0  0  0  0  0  0  0  0  0
   41.4880   24.4830   45.4390 C   0  0  0  0  0  0  0  0  0  0  0  0
   42.6150   23.6920   45.6530 C   0  0  0  0  0  0  0  0  0  0  0  0
   42.7690   22.4670   44.9660 N   0  0  0  0  0  0  0  0  0  0  0  0
   42.0410   21.2780   45.3710 C   0  0  0  0  0  0  0  0  0  0  0  0
   42.9780   20.1990   45.8730 C   0  0  0  0  0  0  0  0  0  0  0  0
   44.3310   20.2860   45.2110 C   0  0  0  0  0  0  0  0  0  0  0  0
   44.2100   20.8590   43.8170 C   0  0  0  0  0  0  0  0  0  0  0  0
   43.6340   22.2450   43.8180 C   0  0  0  0  0  0  0  0  0  0  0  0
   45.3921   33.1347   48.5318 H   0  0  0  0  0  0  0  0  0  0  0  0
   44.9987   31.6195   50.4438 H   0  0  0  0  0  0  0  0  0  0  0  0
   45.0366   29.1584   50.0339 H   0  0  0  0  0  0  0  0  0  0  0  0
   44.2494   37.5875   43.8535 H   0  0  0  0  0  0  0  0  0  0  0  0
   45.8284   37.0500   41.9924 H   0  0  0  0  0  0  0  0  0  0  0  0
   46.9983   34.8220   42.0137 H   0  0  0  0  0  0  0  0  0  0  0  0
   44.1485   33.7242   46.5291 H   0  0  0  0  0  0  0  0  0  0  0  0
   46.2082   27.5367   46.9987 H   0  0  0  0  0  0  0  0  0  0  0  0
   43.8862   27.6713   48.9565 H   0  0  0  0  0  0  0  0  0  0  0  0
   45.4542   25.2990   47.7671 H   0  0  0  0  0  0  0  0  0  0  0  0
   44.2695   25.2700   49.1345 H   0  0  0  0  0  0  0  0  0  0  0  0
   42.1927   27.0640   47.5451 H   0  0  0  0  0  0  0  0  0  0  0  0
   40.4194   26.3031   45.9194 H   0  0  0  0  0  0  0  0  0  0  0  0
   40.7192   24.1428   44.7297 H   0  0  0  0  0  0  0  0  0  0  0  0
   41.3393   21.5448   46.1750 H   0  0  0  0  0  0  0  0  0  0  0  0
   41.5020   20.8877   44.4952 H   0  0  0  0  0  0  0  0  0  0  0  0
   43.1043   20.3133   46.9597 H   0  0  0  0  0  0  0  0  0  0  0  0
   42.5381   19.2207   45.6292 H   0  0  0  0  0  0  0  0  0  0  0  0
   44.9857   20.9343   45.8120 H   0  0  0  0  0  0  0  0  0  0  0  0
   44.7553   19.2736   45.1408 H   0  0  0  0  0  0  0  0  0  0  0  0
   43.5563   20.2049   43.2213 H   0  0  0  0  0  0  0  0  0  0  0  0
   45.2212   20.9155   43.3878 H   0  0  0  0  0  0  0  0  0  0  0  0
   44.4578   22.9734   43.8462 H   0  0  0  0  0  0  0  0  0  0  0  0
   43.0314   22.3667   42.9058 H   0  0  0  0  0  0  0  0  0  0  0  0
  1  2  2  0
  2  3  1  0
  4  3  2  0
  5  4  1  0
  6  1  1  0
  6  5  2  0
  7 12  2  0
  8  9  2  0
  8  7  1  0
  9 10  1  0
 10 11  2  0
 11 12  1  0
 11 15  1  0
 13  1  1  0
 14 13  2  0
 15 13  1  0
 16  5  1  0
 16 17  2  0
 18 17  1  0
 20 19  1  0
 20 21  2  0
 21 18  1  0
 22 21  1  0
 23 22  2  0
 24 25  2  0
 24 23  1  0
 25 20  1  0
 26 27  1  0
 26 25  1  0
 27 28  1  0
 29 28  1  0
 30 31  1  0
 30 29  1  0
 31 26  1  0
  2 32  1  0
  3 33  1  0
  4 34  1  0
  7 35  1  0
  8 36  1  0
  9 37  1  0
 15 38  1  0
 16 39  1  0
 17 40  1  0
 18 41  1  0
 18 42  1  0
 22 43  1  0
 23 44  1  0
 24 45  1  0
 27 46  1  0
 27 47  1  0
 28 48  1  0
 28 49  1  0
 29 50  1  0
 29 51  1  0
 30 52  1  0
 30 53  1  0
 31 54  1  0
 31 55  1  0
M  ISO  8  32  14  33  14  34  14  35  14  36  14  37  14  41   8  42   8
M  ISO  8  43  14  44  14  45  14  46  13  47  13  48  13  49  13  50  13
M  ISO  5  51  13  52  13  53  13  54  13  55  13
M  END
>  <minimizedAffinity>  (1) 
-6.20425272

>  <minimizedRMSD>  (1) 
0.427975863

$$$$
