
     RDKit          3D

 30 31  0  0  1  0  0  0  0  0999 V2000
   46.6670   32.8640   46.6420 C   0  0  2  0  0  0  0  0  0  0  0  0
   47.0520   32.7330   45.2090 C   0  0  1  0  0  0  0  0  0  0  0  0
   46.5390   31.4300   44.8340 O   0  0  0  0  0  0  0  0  0  0  0  0
   47.1890   30.6910   45.8660 C   0  0  0  0  0  0  0  0  0  0  0  0
   46.5930   31.3980   47.0950 C   0  0  2  0  0  0  0  0  0  0  0  0
   44.7120   35.2430   43.9640 C   0  0  0  0  0  0  0  0  0  0  0  0
   45.3440   35.7430   42.8150 C   0  0  0  0  0  0  0  0  0  0  0  0
   46.5970   35.2060   42.4520 C   0  0  0  0  0  0  0  0  0  0  0  0
   47.1400   34.2270   43.2290 N   0  0  0  0  0  0  0  0  0  0  0  0
   46.4970   33.7670   44.3360 C   0  0  0  0  0  0  0  0  0  0  0  0
   45.2930   34.2640   44.7080 N   0  0  0  0  0  0  0  0  0  0  0  0
   43.4670   35.7360   44.3790 O   0  0  0  0  0  0  0  0  0  0  0  0
   45.3570   33.4260   46.7460 O   0  0  0  0  0  0  0  0  0  0  0  0
   45.2860   30.9790   47.1890 O   0  0  0  0  0  0  0  0  0  0  0  0
   45.0170   30.1380   48.2500 C   0  0  0  0  0  0  0  0  0  0  0  0
   45.0530   28.6730   47.9010 C   0  0  0  0  0  0  0  0  0  0  0  0
   47.3555   33.4967   47.2214 H   0  0  0  0  0  0  0  0  0  0  0  0
   48.1398   32.8470   45.0922 H   0  0  0  0  0  0  0  0  0  0  0  0
   46.9232   29.6240   45.8369 H   0  0  0  0  0  0  0  0  0  0  0  0
   48.2879   30.6830   45.8164 H   0  0  0  0  0  0  0  0  0  0  0  0
   47.0795   31.2182   48.0651 H   0  0  0  0  0  0  0  0  0  0  0  0
   44.8739   36.5341   42.2123 H   0  0  0  0  0  0  0  0  0  0  0  0
   47.1256   35.5706   41.5589 H   0  0  0  0  0  0  0  0  0  0  0  0
   43.0184   36.4487   43.8586 H   0  0  0  0  0  0  0  0  0  0  0  0
   45.1170   33.5290   47.7009 H   0  0  0  0  0  0  0  0  0  0  0  0
   45.7641   30.3240   49.0357 H   0  0  0  0  0  0  0  0  0  0  0  0
   43.9905   30.3600   48.5770 H   0  0  0  0  0  0  0  0  0  0  0  0
   45.0677   28.0762   48.8249 H   0  0  0  0  0  0  0  0  0  0  0  0
   44.1609   28.4144   47.3116 H   0  0  0  0  0  0  0  0  0  0  0  0
   45.9567   28.4586   47.3116 H   0  0  0  0  0  0  0  0  0  0  0  0
  1 13  1  0
  1  5  1  0
  2  1  1  0
  3  2  1  0
  3  4  1  0
  4  5  1  0
  5 14  1  0
  6 12  1  0
  6 11  2  0
  7  6  1  0
  8  7  2  0
  8  9  1  0
  9 10  2  0
 10 11  1  0
 10  2  1  0
 14 15  1  0
 16 15  1  0
  1 17  1  1
  2 18  1  1
  4 19  1  0
  4 20  1  0
  5 21  1  1
  7 22  1  0
  8 23  1  0
 12 24  1  0
 13 25  1  0
 15 26  1  0
 15 27  1  0
 16 28  1  0
 16 29  1  0
 16 30  1  0
M  ISO  8  17  13  18  13  19  13  20  13  21  13  22  14  23  14  24   3
M  ISO  6  25   3  26   8  27   8  28   8  29   8  30   8
M  END
>  <minimizedAffinity>  (1) 
-4.92936134

>  <minimizedRMSD>  (1) 
1.59568703

$$$$
