
     RDKit          3D

 43 46  0  0  1  0  0  0  0  0999 V2000
   46.6410   32.8930   46.7510 C   0  0  2  0  0  0  0  0  0  0  0  0
   47.0750   32.7730   45.3450 C   0  0  1  0  0  0  0  0  0  0  0  0
   46.6360   31.4300   44.9510 O   0  0  0  0  0  0  0  0  0  0  0  0
   47.2920   30.7560   46.0080 C   0  0  0  0  0  0  0  0  0  0  0  0
   46.6030   31.4450   47.2160 C   0  0  2  0  0  0  0  0  0  0  0  0
   44.7230   35.2260   44.0140 C   0  0  0  0  0  0  0  0  0  0  0  0
   45.3270   35.6680   42.8380 C   0  0  0  0  0  0  0  0  0  0  0  0
   46.5730   35.1160   42.4750 C   0  0  0  0  0  0  0  0  0  0  0  0
   47.1410   34.1660   43.2920 N   0  0  0  0  0  0  0  0  0  0  0  0
   46.5220   33.7670   44.4230 C   0  0  0  0  0  0  0  0  0  0  0  0
   45.3210   34.2830   44.7950 N   0  0  0  0  0  0  0  0  0  0  0  0
   43.4860   35.7350   44.4280 O   0  0  0  0  0  0  0  0  0  0  0  0
   45.2980   33.4040   46.7920 O   0  0  0  0  0  0  0  0  0  0  0  0
   45.3290   30.9690   47.2780 O   0  0  0  0  0  0  0  0  0  0  0  0
   45.0960   29.8970   48.1010 C   0  0  0  0  0  0  0  0  0  0  0  0
   45.4640   28.5660   47.5900 C   0  0  0  0  0  0  0  0  0  0  0  0
   43.7320   26.7240   46.9350 C   0  0  0  0  0  0  0  0  0  0  0  0
   44.3070   27.9700   46.8710 C   0  0  0  0  0  0  0  0  0  0  0  0
   43.6700   28.8080   45.9420 C   0  0  0  0  0  0  0  0  0  0  0  0
   42.5860   28.4670   45.1600 C   0  0  0  0  0  0  0  0  0  0  0  0
   41.8710   29.1340   44.2390 N   0  0  0  0  0  0  0  0  0  0  0  0
   40.9150   28.3100   43.7860 C   0  0  0  0  0  0  0  0  0  0  0  0
   41.0390   27.1160   44.4310 N   0  0  0  0  0  0  0  0  0  0  0  0
   42.0730   27.2040   45.2850 C   0  0  0  0  0  0  0  0  0  0  0  0
   42.6520   26.3310   46.1800 C   0  0  0  0  0  0  0  0  0  0  0  0
   47.2868   33.5508   47.3511 H   0  0  0  0  0  0  0  0  0  0  0  0
   48.1595   32.9466   45.2846 H   0  0  0  0  0  0  0  0  0  0  0  0
   47.0982   29.6734   45.9875 H   0  0  0  0  0  0  0  0  0  0  0  0
   48.3900   30.8207   45.9952 H   0  0  0  0  0  0  0  0  0  0  0  0
   47.0497   31.2936   48.2097 H   0  0  0  0  0  0  0  0  0  0  0  0
   44.8433   36.4292   42.2082 H   0  0  0  0  0  0  0  0  0  0  0  0
   47.0817   35.4394   41.5549 H   0  0  0  0  0  0  0  0  0  0  0  0
   43.0256   36.4212   43.8828 H   0  0  0  0  0  0  0  0  0  0  0  0
   45.0146   33.5118   47.7344 H   0  0  0  0  0  0  0  0  0  0  0  0
   45.6615   30.0633   49.0297 H   0  0  0  0  0  0  0  0  0  0  0  0
   44.0031   29.8632   48.2214 H   0  0  0  0  0  0  0  0  0  0  0  0
   46.3146   28.6615   46.8990 H   0  0  0  0  0  0  0  0  0  0  0  0
   45.7446   27.9163   48.4321 H   0  0  0  0  0  0  0  0  0  0  0  0
   44.1633   25.9936   47.6353 H   0  0  0  0  0  0  0  0  0  0  0  0
   44.0706   29.8261   45.8276 H   0  0  0  0  0  0  0  0  0  0  0  0
   42.0289   30.1053   43.9349 H   0  0  0  0  0  0  0  0  0  0  0  0
   40.1602   28.5557   43.0245 H   0  0  0  0  0  0  0  0  0  0  0  0
   42.2480   25.3139   46.2912 H   0  0  0  0  0  0  0  0  0  0  0  0
  1 13  1  0
  1  5  1  0
  2  1  1  0
  3  2  1  0
  3  4  1  0
  4  5  1  0
  5 14  1  0
  6 12  1  0
  6 11  2  0
  7  6  1  0
  8  7  2  0
  8  9  1  0
  9 10  2  0
 10 11  1  0
 10  2  1  0
 14 15  1  0
 16 15  1  0
 18 17  2  0
 18 16  1  0
 19 18  1  0
 20 24  1  0
 20 19  2  0
 21 20  1  0
 22 21  1  0
 22 23  2  0
 23 24  1  0
 24 25  2  0
 25 17  1  0
  1 26  1  1
  2 27  1  1
  4 28  1  0
  4 29  1  0
  5 30  1  1
  7 31  1  0
  8 32  1  0
 12 33  1  0
 13 34  1  0
 15 35  1  0
 15 36  1  0
 16 37  1  0
 16 38  1  0
 17 39  1  0
 19 40  1  0
 21 41  1  0
 22 42  1  0
 25 43  1  0
M  ISO  8  26  13  27  13  28  13  29  13  30  13  31  14  32  14  33   3
M  ISO  8  34   3  35   8  36   8  37   8  38   8  39  14  40  14  41   9
M  ISO  2  42  14  43  14
M  END
>  <minimizedAffinity>  (1) 
-6.05632114

>  <minimizedRMSD>  (1) 
0.68670249

$$$$
