
     RDKit          3D

 43 46  0  0  1  0  0  0  0  0999 V2000
   46.6580   32.9100   46.7440 C   0  0  2  0  0  0  0  0  0  0  0  0
   47.0810   32.7770   45.3340 C   0  0  1  0  0  0  0  0  0  0  0  0
   46.6260   31.4320   44.9560 O   0  0  0  0  0  0  0  0  0  0  0  0
   47.2910   30.7700   46.0130 C   0  0  0  0  0  0  0  0  0  0  0  0
   46.6100   31.4660   47.2200 C   0  0  2  0  0  0  0  0  0  0  0  0
   44.7130   35.2200   44.0040 C   0  0  0  0  0  0  0  0  0  0  0  0
   45.3150   35.6620   42.8260 C   0  0  0  0  0  0  0  0  0  0  0  0
   46.5630   35.1120   42.4630 C   0  0  0  0  0  0  0  0  0  0  0  0
   47.1260   34.1750   43.2750 N   0  0  0  0  0  0  0  0  0  0  0  0
   46.5210   33.7660   44.4100 C   0  0  0  0  0  0  0  0  0  0  0  0
   45.3140   34.2800   44.7860 N   0  0  0  0  0  0  0  0  0  0  0  0
   43.4780   35.7320   44.4120 O   0  0  0  0  0  0  0  0  0  0  0  0
   45.3150   33.4260   46.7920 O   0  0  0  0  0  0  0  0  0  0  0  0
   45.3430   30.9700   47.2700 O   0  0  0  0  0  0  0  0  0  0  0  0
   45.1000   29.9330   48.1350 C   0  0  0  0  0  0  0  0  0  0  0  0
   45.4290   28.5850   47.6500 C   0  0  0  0  0  0  0  0  0  0  0  0
   43.7480   26.6980   46.9470 C   0  0  0  0  0  0  0  0  0  0  0  0
   44.3030   27.9580   46.9090 C   0  0  0  0  0  0  0  0  0  0  0  0
   43.6670   28.7920   45.9740 C   0  0  0  0  0  0  0  0  0  0  0  0
   42.6080   28.4350   45.1680 C   0  0  0  0  0  0  0  0  0  0  0  0
   41.8840   29.0710   44.2380 N   0  0  0  0  0  0  0  0  0  0  0  0
   40.9830   28.2350   43.7800 N   0  0  0  0  0  0  0  0  0  0  0  0
   41.0770   27.0410   44.3770 C   0  0  0  0  0  0  0  0  0  0  0  0
   42.1160   27.1520   45.2710 C   0  0  0  0  0  0  0  0  0  0  0  0
   42.7060   26.3060   46.1710 C   0  0  0  0  0  0  0  0  0  0  0  0
   47.3142   33.5686   47.3319 H   0  0  0  0  0  0  0  0  0  0  0  0
   48.1659   32.9436   45.2610 H   0  0  0  0  0  0  0  0  0  0  0  0
   47.1005   29.6867   46.0030 H   0  0  0  0  0  0  0  0  0  0  0  0
   48.3886   30.8386   45.9913 H   0  0  0  0  0  0  0  0  0  0  0  0
   47.0467   31.3367   48.2213 H   0  0  0  0  0  0  0  0  0  0  0  0
   44.8289   36.4208   42.1952 H   0  0  0  0  0  0  0  0  0  0  0  0
   47.0711   35.4340   41.5420 H   0  0  0  0  0  0  0  0  0  0  0  0
   43.0197   36.4160   43.8623 H   0  0  0  0  0  0  0  0  0  0  0  0
   45.0362   33.5331   47.7359 H   0  0  0  0  0  0  0  0  0  0  0  0
   45.6884   30.1132   49.0468 H   0  0  0  0  0  0  0  0  0  0  0  0
   44.0107   29.9301   48.2881 H   0  0  0  0  0  0  0  0  0  0  0  0
   46.2984   28.6534   46.9795 H   0  0  0  0  0  0  0  0  0  0  0  0
   45.6442   27.9567   48.5269 H   0  0  0  0  0  0  0  0  0  0  0  0
   44.1748   25.9658   47.6482 H   0  0  0  0  0  0  0  0  0  0  0  0
   44.0477   29.8195   45.8770 H   0  0  0  0  0  0  0  0  0  0  0  0
   42.0124   30.0470   43.9350 H   0  0  0  0  0  0  0  0  0  0  0  0
   40.4527   26.1546   44.1912 H   0  0  0  0  0  0  0  0  0  0  0  0
   42.3245   25.2788   46.2680 H   0  0  0  0  0  0  0  0  0  0  0  0
  1 13  1  0
  1  5  1  0
  2  1  1  0
  3  2  1  0
  3  4  1  0
  4  5  1  0
  5 14  1  0
  6 12  1  0
  6 11  2  0
  7  6  1  0
  8  7  2  0
  8  9  1  0
  9 10  2  0
 10 11  1  0
 10  2  1  0
 14 15  1  0
 16 15  1  0
 18 17  2  0
 18 16  1  0
 19 18  1  0
 20 24  1  0
 20 19  2  0
 21 20  1  0
 22 21  1  0
 22 23  2  0
 23 24  1  0
 24 25  2  0
 25 17  1  0
  1 26  1  1
  2 27  1  1
  4 28  1  0
  4 29  1  0
  5 30  1  1
  7 31  1  0
  8 32  1  0
 12 33  1  0
 13 34  1  0
 15 35  1  0
 15 36  1  0
 16 37  1  0
 16 38  1  0
 17 39  1  0
 19 40  1  0
 21 41  1  0
 23 42  1  0
 25 43  1  0
M  ISO  8  26  13  27  13  28  13  29  13  30  13  31  14  32  14  33   3
M  ISO  8  34   3  35   8  36   8  37   8  38   8  39  14  40  14  41   9
M  ISO  2  42  14  43  14
M  END
>  <minimizedAffinity>  (1) 
-6.04880762

>  <minimizedRMSD>  (1) 
0.813143075

$$$$
