
     RDKit          3D

 46 49  0  0  0  0  0  0  0  0999 V2000
   45.6330   31.5000   47.0790 C   0  0  0  0  0  0  0  0  0  0  0  0
   45.3900   31.9620   48.3690 C   0  0  0  0  0  0  0  0  0  0  0  0
   45.1510   31.1310   49.4430 C   0  0  0  0  0  0  0  0  0  0  0  0
   45.1570   29.7760   49.2100 C   0  0  0  0  0  0  0  0  0  0  0  0
   45.4020   29.3150   47.9160 C   0  0  0  0  0  0  0  0  0  0  0  0
   45.6280   30.1720   46.9120 N   0  0  0  0  0  0  0  0  0  0  0  0
   44.7770   36.5520   43.8600 C   0  0  0  0  0  0  0  0  0  0  0  0
   45.6670   36.2510   42.8180 C   0  0  0  0  0  0  0  0  0  0  0  0
   46.3140   35.0210   42.8320 C   0  0  0  0  0  0  0  0  0  0  0  0
   46.0660   34.1400   43.8590 N   0  0  0  0  0  0  0  0  0  0  0  0
   45.1910   34.4790   44.8510 C   0  0  0  0  0  0  0  0  0  0  0  0
   44.5550   35.6770   44.8450 N   0  0  0  0  0  0  0  0  0  0  0  0
   45.8770   32.4590   46.0020 C   0  0  0  0  0  0  0  0  0  0  0  0
   46.8600   32.2760   45.2470 O   0  0  0  0  0  0  0  0  0  0  0  0
   44.9590   33.5460   45.8950 N   0  0  0  0  0  0  0  0  0  0  0  0
   45.4080   27.8840   47.6710 C   0  0  0  0  0  0  0  0  0  0  0  0
   44.3720   27.2950   47.1170 C   0  0  0  0  0  0  0  0  0  0  0  0
   44.2500   25.8350   46.8150 C   0  0  0  0  0  0  0  0  0  0  0  0
   44.1120   23.2420   45.4500 Cl  0  0  0  0  0  0  0  0  0  0  0  0
   42.7200   24.2700   45.7820 C   0  0  0  0  0  0  0  0  0  0  0  0
   42.8630   25.4860   46.4240 C   0  0  0  0  0  0  0  0  0  0  0  0
   41.7610   26.2910   46.6650 C   0  0  0  0  0  0  0  0  0  0  0  0
   40.5080   25.8730   46.2580 C   0  0  0  0  0  0  0  0  0  0  0  0
   40.3840   24.6770   45.6280 C   0  0  0  0  0  0  0  0  0  0  0  0
   41.4880   23.8390   45.3730 C   0  0  0  0  0  0  0  0  0  0  0  0
   41.1170   22.6310   44.6740 C   0  0  0  0  0  0  0  0  0  0  0  0
   40.2860   21.6140   45.3400 C   0  0  0  0  0  0  0  0  0  0  0  0
   40.0400   20.2950   44.0200 S   0  0  0  0  0  0  0  0  0  0  0  0
   41.0850   21.3440   42.8350 C   0  0  0  0  0  0  0  0  0  0  0  0
   41.3680   22.2510   43.4460 N   0  0  0  0  0  0  0  0  0  0  0  0
   45.3885   33.0485   48.5411 H   0  0  0  0  0  0  0  0  0  0  0  0
   44.9627   31.5367   50.4480 H   0  0  0  0  0  0  0  0  0  0  0  0
   44.9717   29.0669   50.0303 H   0  0  0  0  0  0  0  0  0  0  0  0
   44.2555   37.5205   43.8661 H   0  0  0  0  0  0  0  0  0  0  0  0
   45.8487   36.9726   42.0079 H   0  0  0  0  0  0  0  0  0  0  0  0
   47.0176   34.7545   42.0296 H   0  0  0  0  0  0  0  0  0  0  0  0
   44.1660   33.6487   46.5442 H   0  0  0  0  0  0  0  0  0  0  0  0
   46.2882   27.2870   47.9518 H   0  0  0  0  0  0  0  0  0  0  0  0
   43.5168   27.9337   46.8512 H   0  0  0  0  0  0  0  0  0  0  0  0
   44.9310   25.5805   45.9895 H   0  0  0  0  0  0  0  0  0  0  0  0
   44.5116   25.2674   47.7202 H   0  0  0  0  0  0  0  0  0  0  0  0
   41.8828   27.2569   47.1771 H   0  0  0  0  0  0  0  0  0  0  0  0
   39.6236   26.5007   46.4420 H   0  0  0  0  0  0  0  0  0  0  0  0
   39.3848   24.3498   45.3046 H   0  0  0  0  0  0  0  0  0  0  0  0
   39.8990   21.6230   46.3696 H   0  0  0  0  0  0  0  0  0  0  0  0
   41.3538   21.1205   41.7920 H   0  0  0  0  0  0  0  0  0  0  0  0
  1  2  2  0
  2  3  1  0
  4  3  2  0
  5  4  1  0
  6  1  1  0
  6  5  2  0
  7 12  2  0
  8  9  2  0
  8  7  1  0
  9 10  1  0
 10 11  2  0
 11 15  1  0
 12 11  1  0
 13  1  1  0
 14 13  2  0
 15 13  1  0
 16  5  1  0
 17 16  2  0
 18 17  1  0
 19 20  1  0
 20 21  2  0
 21 22  1  0
 21 18  1  0
 23 22  2  0
 24 23  1  0
 25 24  2  0
 25 20  1  0
 26 27  2  0
 26 25  1  0
 28 27  1  0
 29 30  2  0
 29 28  1  0
 30 26  1  0
  2 31  1  0
  3 32  1  0
  4 33  1  0
  7 34  1  0
  8 35  1  0
  9 36  1  0
 15 37  1  0
 16 38  1  0
 17 39  1  0
 18 40  1  0
 18 41  1  0
 22 42  1  0
 23 43  1  0
 24 44  1  0
 27 45  1  0
 29 46  1  0
M  ISO  8  31  14  32  14  33  14  34  14  35  14  36  14  40   8  41   8
M  ISO  5  42  14  43  14  44  14  45  14  46  14
M  END
>  <minimizedAffinity>  (1) 
-6.14099789

>  <minimizedRMSD>  (1) 
1.26716506

$$$$
