
     RDKit          3D

 36 37  0  0  1  0  0  0  0  0999 V2000
   46.6680   32.8050   46.6460 C   0  0  2  0  0  0  0  0  0  0  0  0
   47.0620   32.7100   45.2250 C   0  0  1  0  0  0  0  0  0  0  0  0
   46.5510   31.3980   44.8080 O   0  0  0  0  0  0  0  0  0  0  0  0
   47.1940   30.6520   45.8160 C   0  0  0  0  0  0  0  0  0  0  0  0
   46.5900   31.3470   47.0740 C   0  0  2  0  0  0  0  0  0  0  0  0
   44.7290   35.2330   43.9890 C   0  0  0  0  0  0  0  0  0  0  0  0
   45.3520   35.7340   42.8430 C   0  0  0  0  0  0  0  0  0  0  0  0
   46.6000   35.1950   42.4760 C   0  0  0  0  0  0  0  0  0  0  0  0
   47.1480   34.2100   43.2460 N   0  0  0  0  0  0  0  0  0  0  0  0
   46.5200   33.7470   44.3490 C   0  0  0  0  0  0  0  0  0  0  0  0
   45.3120   34.2490   44.7310 N   0  0  0  0  0  0  0  0  0  0  0  0
   43.4870   35.7300   44.4090 O   0  0  0  0  0  0  0  0  0  0  0  0
   45.3490   33.3650   46.7390 O   0  0  0  0  0  0  0  0  0  0  0  0
   45.3140   30.9190   47.1710 O   0  0  0  0  0  0  0  0  0  0  0  0
   45.0020   29.8630   47.9750 C   0  0  0  0  0  0  0  0  0  0  0  0
   44.8000   28.5610   47.3470 C   0  0  0  0  0  0  0  0  0  0  0  0
   45.1470   27.4560   48.1120 O   0  0  0  0  0  0  0  0  0  0  0  0
   44.9070   24.9620   47.5330 O   0  0  0  0  0  0  0  0  0  0  0  0
   44.0980   26.1650   47.9730 P   0  0  0  0  0  0  0  0  0  0  0  0
   42.9540   26.4120   46.7250 O   0  0  0  0  0  0  0  0  0  0  0  0
   43.3410   25.7380   49.4120 O   0  0  0  0  0  0  0  0  0  0  0  0
   47.3534   33.4216   47.2460 H   0  0  0  0  0  0  0  0  0  0  0  0
   48.1506   32.8422   45.1384 H   0  0  0  0  0  0  0  0  0  0  0  0
   46.9292   29.5854   45.7694 H   0  0  0  0  0  0  0  0  0  0  0  0
   48.2928   30.6464   45.7660 H   0  0  0  0  0  0  0  0  0  0  0  0
   47.0739   31.1606   48.0441 H   0  0  0  0  0  0  0  0  0  0  0  0
   44.8807   36.5273   42.2443 H   0  0  0  0  0  0  0  0  0  0  0  0
   47.1255   35.5622   41.5821 H   0  0  0  0  0  0  0  0  0  0  0  0
   43.0389   36.4447   43.8908 H   0  0  0  0  0  0  0  0  0  0  0  0
   45.1015   33.4701   47.6918 H   0  0  0  0  0  0  0  0  0  0  0  0
   45.8200   29.7523   48.7021 H   0  0  0  0  0  0  0  0  0  0  0  0
   44.0196   30.1199   48.3978 H   0  0  0  0  0  0  0  0  0  0  0  0
   43.7337   28.4722   47.0918 H   0  0  0  0  0  0  0  0  0  0  0  0
   45.4739   28.5433   46.4778 H   0  0  0  0  0  0  0  0  0  0  0  0
   42.0678   26.6033   47.1228 H   0  0  0  0  0  0  0  0  0  0  0  0
   43.8883   26.0467   50.1770 H   0  0  0  0  0  0  0  0  0  0  0  0
  1 13  1  0
  1  5  1  0
  2  1  1  0
  3  2  1  0
  3  4  1  0
  4  5  1  0
  5 14  1  0
  6 12  1  0
  6 11  2  0
  7  6  1  0
  8  7  2  0
  8  9  1  0
  9 10  2  0
 10 11  1  0
 10  2  1  0
 14 15  1  0
 16 15  1  0
 16 17  1  0
 18 19  2  0
 19 17  1  0
 19 21  1  0
 20 19  1  0
  1 22  1  1
  2 23  1  1
  4 24  1  0
  4 25  1  0
  5 26  1  1
  7 27  1  0
  8 28  1  0
 12 29  1  0
 13 30  1  0
 15 31  1  0
 15 32  1  0
 16 33  1  0
 16 34  1  0
 20 35  1  0
 21 36  1  0
M  ISO  8  22  13  23  13  24  13  25  13  26  13  27  14  28  14  29   3
M  ISO  7  30   3  31   8  32   8  33   8  34   8  35   3  36   3
M  END
>  <minimizedAffinity>  (1) 
-5.19840002

>  <minimizedRMSD>  (1) 
0.585004747

$$$$
