
     RDKit          3D

 37 39  0  0  1  0  0  0  0  0999 V2000
   46.6300   32.6460   46.5040 C   0  0  2  0  0  0  0  0  0  0  0  0
   47.1310   32.7070   45.1170 C   0  0  1  0  0  0  0  0  0  0  0  0
   46.7760   31.3910   44.5640 O   0  0  0  0  0  0  0  0  0  0  0  0
   47.4100   30.6220   45.5610 C   0  0  0  0  0  0  0  0  0  0  0  0
   46.6560   31.1560   46.8150 C   0  0  2  0  0  0  0  0  0  0  0  0
   44.7640   35.2440   44.0030 C   0  0  0  0  0  0  0  0  0  0  0  0
   45.3560   35.7740   42.8490 C   0  0  0  0  0  0  0  0  0  0  0  0
   46.5970   35.2410   42.4420 C   0  0  0  0  0  0  0  0  0  0  0  0
   47.1630   34.2510   43.1700 N   0  0  0  0  0  0  0  0  0  0  0  0
   46.5700   33.7590   44.2790 C   0  0  0  0  0  0  0  0  0  0  0  0
   45.3690   34.2480   44.7040 N   0  0  0  0  0  0  0  0  0  0  0  0
   43.5320   35.7270   44.4660 O   0  0  0  0  0  0  0  0  0  0  0  0
   45.2600   33.0830   46.5370 O   0  0  0  0  0  0  0  0  0  0  0  0
   45.4180   30.6190   46.7820 O   0  0  0  0  0  0  0  0  0  0  0  0
   45.0560   29.6890   47.7090 C   0  0  0  0  0  0  0  0  0  0  0  0
   45.6840   28.3640   47.6140 C   0  0  0  0  0  0  0  0  0  0  0  0
   44.5640   27.3630   47.4380 C   0  0  0  0  0  0  0  0  0  0  0  0
   43.6970   27.2630   46.3480 C   0  0  0  0  0  0  0  0  0  0  0  0
   42.8370   26.2330   46.5810 N   0  0  0  0  0  0  0  0  0  0  0  0
   43.1500   25.7010   47.7740 C   0  0  0  0  0  0  0  0  0  0  0  0
   44.1810   26.3700   48.2930 N   0  0  0  0  0  0  0  0  0  0  0  0
   47.2130   33.2659   47.2010 H   0  0  0  0  0  0  0  0  0  0  0  0
   48.2049   32.9451   45.1295 H   0  0  0  0  0  0  0  0  0  0  0  0
   47.2482   29.5441   45.4129 H   0  0  0  0  0  0  0  0  0  0  0  0
   48.5054   30.7148   45.5983 H   0  0  0  0  0  0  0  0  0  0  0  0
   47.0857   30.9287   47.8018 H   0  0  0  0  0  0  0  0  0  0  0  0
   44.8691   36.5792   42.2792 H   0  0  0  0  0  0  0  0  0  0  0  0
   47.0992   35.6262   41.5423 H   0  0  0  0  0  0  0  0  0  0  0  0
   43.0686   36.4516   43.9758 H   0  0  0  0  0  0  0  0  0  0  0  0
   44.9661   33.1767   47.4777 H   0  0  0  0  0  0  0  0  0  0  0  0
   45.2978   30.0991   48.7006 H   0  0  0  0  0  0  0  0  0  0  0  0
   43.9864   29.5087   47.5260 H   0  0  0  0  0  0  0  0  0  0  0  0
   46.3638   28.3279   46.7500 H   0  0  0  0  0  0  0  0  0  0  0  0
   46.2754   28.1413   48.5144 H   0  0  0  0  0  0  0  0  0  0  0  0
   43.7069   27.9054   45.4551 H   0  0  0  0  0  0  0  0  0  0  0  0
   42.0821   25.9184   45.9548 H   0  0  0  0  0  0  0  0  0  0  0  0
   42.6382   24.8500   48.2473 H   0  0  0  0  0  0  0  0  0  0  0  0
  1 13  1  0
  1  5  1  0
  2  1  1  0
  3  2  1  0
  3  4  1  0
  4  5  1  0
  6 12  1  0
  6 11  2  0
  7  6  1  0
  8  7  2  0
  8  9  1  0
  9 10  2  0
 10 11  1  0
 10  2  1  0
 14  5  1  0
 14 15  1  0
 16 15  1  0
 17 16  1  0
 17 21  1  0
 18 19  1  0
 18 17  2  0
 19 20  1  0
 20 21  2  0
  1 22  1  1
  2 23  1  1
  4 24  1  0
  4 25  1  0
  5 26  1  1
  7 27  1  0
  8 28  1  0
 12 29  1  0
 13 30  1  0
 15 31  1  0
 15 32  1  0
 16 33  1  0
 16 34  1  0
 18 35  1  0
 19 36  1  0
 20 37  1  0
M  ISO  8  22  13  23  13  24  13  25  13  26  13  27  14  28  14  29   3
M  ISO  8  30   3  31   8  32   8  33   8  34   8  35  14  36   9  37  14
M  END
>  <minimizedAffinity>  (1) 
-5.18383312

>  <minimizedRMSD>  (1) 
1.21330404

$$$$
