
     RDKit          3D

 31 32  0  0  1  0  0  0  0  0999 V2000
   46.6470   32.9210   46.7300 C   0  0  2  0  0  0  0  0  0  0  0  0
   47.0740   32.7980   45.3220 C   0  0  1  0  0  0  0  0  0  0  0  0
   46.6170   31.4560   44.9370 O   0  0  0  0  0  0  0  0  0  0  0  0
   47.2640   30.7720   45.9870 C   0  0  0  0  0  0  0  0  0  0  0  0
   46.5980   31.4760   47.1990 C   0  0  2  0  0  0  0  0  0  0  0  0
   44.7110   35.2320   43.9820 C   0  0  0  0  0  0  0  0  0  0  0  0
   45.3150   35.6770   42.8090 C   0  0  0  0  0  0  0  0  0  0  0  0
   46.5630   35.1330   42.4500 C   0  0  0  0  0  0  0  0  0  0  0  0
   47.1210   34.2010   43.2610 N   0  0  0  0  0  0  0  0  0  0  0  0
   46.5150   33.7840   44.3950 C   0  0  0  0  0  0  0  0  0  0  0  0
   45.3050   34.2930   44.7680 N   0  0  0  0  0  0  0  0  0  0  0  0
   43.4690   35.7430   44.3850 O   0  0  0  0  0  0  0  0  0  0  0  0
   45.3070   33.4390   46.7770 O   0  0  0  0  0  0  0  0  0  0  0  0
   45.3380   30.9860   47.2570 O   0  0  0  0  0  0  0  0  0  0  0  0
   45.0080   30.0800   48.2310 C   0  0  0  0  0  0  0  0  0  0  0  0
   45.0360   28.6690   47.8300 C   0  0  0  0  0  0  0  0  0  0  0  0
   44.2200   28.4580   46.1950 S   0  0  0  0  0  0  0  0  0  0  0  0
   47.3023   33.5747   47.3243 H   0  0  0  0  0  0  0  0  0  0  0  0
   48.1584   32.9712   45.2574 H   0  0  0  0  0  0  0  0  0  0  0  0
   47.0478   29.6936   45.9690 H   0  0  0  0  0  0  0  0  0  0  0  0
   48.3630   30.8143   45.9666 H   0  0  0  0  0  0  0  0  0  0  0  0
   47.0453   31.3476   48.1957 H   0  0  0  0  0  0  0  0  0  0  0  0
   44.8287   36.4354   42.1779 H   0  0  0  0  0  0  0  0  0  0  0  0
   47.0741   35.4572   41.5315 H   0  0  0  0  0  0  0  0  0  0  0  0
   43.0127   36.4271   43.8337 H   0  0  0  0  0  0  0  0  0  0  0  0
   45.0278   33.5469   47.7207 H   0  0  0  0  0  0  0  0  0  0  0  0
   45.7153   30.2078   49.0637 H   0  0  0  0  0  0  0  0  0  0  0  0
   43.9616   30.2939   48.4941 H   0  0  0  0  0  0  0  0  0  0  0  0
   46.0806   28.3313   47.7612 H   0  0  0  0  0  0  0  0  0  0  0  0
   44.4973   28.0715   48.5802 H   0  0  0  0  0  0  0  0  0  0  0  0
   42.9059   28.1182   46.3809 H   0  0  0  0  0  0  0  0  0  0  0  0
  1 13  1  0
  1  5  1  0
  2  1  1  0
  3  2  1  0
  3  4  1  0
  4  5  1  0
  5 14  1  0
  6 12  1  0
  6 11  2  0
  7  6  1  0
  8  7  2  0
  8  9  1  0
  9 10  2  0
 10 11  1  0
 10  2  1  0
 14 15  1  0
 16 15  1  0
 17 16  1  0
  1 18  1  1
  2 19  1  1
  4 20  1  0
  4 21  1  0
  5 22  1  1
  7 23  1  0
  8 24  1  0
 12 25  1  0
 13 26  1  0
 15 27  1  0
 15 28  1  0
 16 29  1  0
 16 30  1  0
 17 31  1  0
M  ISO  8  18  13  19  13  20  13  21  13  22  13  23  14  24  14  25   3
M  ISO  6  26   3  27   8  28   8  29   8  30   8  31  11
M  END
>  <minimizedAffinity>  (1) 
-4.81417656

>  <minimizedRMSD>  (1) 
0.140943289

$$$$
