
     RDKit          3D

 55 58  0  0  1  0  0  0  0  0999 V2000
   45.0020   30.0460   48.5230 O   0  0  0  0  0  0  0  0  0  0  0  0
   45.7730   32.2880   48.3210 C   0  0  2  0  0  0  0  0  0  0  0  0
   46.7780   32.3380   47.2590 C   0  0  1  0  0  0  0  0  0  0  0  0
   46.9540   30.9070   46.9010 O   0  0  0  0  0  0  0  0  0  0  0  0
   47.2600   30.4500   48.1780 C   0  0  0  0  0  0  0  0  0  0  0  0
   45.9030   30.9400   48.9410 C   0  0  2  0  0  0  0  0  0  0  0  0
   45.0440   34.7430   45.1370 C   0  0  0  0  0  0  0  0  0  0  0  0
   45.6690   34.6060   43.9010 C   0  0  0  0  0  0  0  0  0  0  0  0
   46.7070   33.6600   43.7720 C   0  0  0  0  0  0  0  0  0  0  0  0
   47.0560   32.9240   44.8510 N   0  0  0  0  0  0  0  0  0  0  0  0
   46.4370   33.0720   46.0430 C   0  0  0  0  0  0  0  0  0  0  0  0
   45.4280   33.9810   46.1970 N   0  0  0  0  0  0  0  0  0  0  0  0
   44.0150   35.6640   45.3160 O   0  0  0  0  0  0  0  0  0  0  0  0
   44.4550   32.3430   47.7020 O   0  0  0  0  0  0  0  0  0  0  0  0
   45.0230   28.7480   48.8450 C   0  0  0  0  0  0  0  0  0  0  0  0
   45.3940   27.8390   47.6700 C   0  0  0  0  0  0  0  0  0  0  0  0
   43.7890   28.3930   45.9290 C   0  0  0  0  0  0  0  0  0  0  0  0
   44.1820   27.4840   46.9310 C   0  0  0  0  0  0  0  0  0  0  0  0
   43.3350   26.4100   47.0700 C   0  0  0  0  0  0  0  0  0  0  0  0
   42.2070   26.1930   46.3350 C   0  0  0  0  0  0  0  0  0  0  0  0
   41.8410   27.1020   45.3550 C   0  0  0  0  0  0  0  0  0  0  0  0
   42.6570   28.2330   45.1490 C   0  0  0  0  0  0  0  0  0  0  0  0
   44.4440   29.5510   45.5660 O   0  0  0  0  0  0  0  0  0  0  0  0
   42.2060   29.0400   44.1800 O   0  0  0  0  0  0  0  0  0  0  0  0
   42.3190   29.1460   42.8250 C   0  0  0  0  0  0  0  0  0  0  0  0
   42.0530   30.6340   42.4930 C   0  0  0  0  0  0  0  0  0  0  0  0
   40.6200   30.7460   43.0260 C   0  0  0  0  0  0  0  0  0  0  0  0
   39.9990   29.3690   42.8240 C   0  0  0  0  0  0  0  0  0  0  0  0
   41.0780   28.5820   42.0910 C   0  0  0  0  0  0  0  0  0  0  0  0
   45.9011   33.1075   49.0435 H   0  0  0  0  0  0  0  0  0  0  0  0
   47.6562   32.8801   47.6396 H   0  0  0  0  0  0  0  0  0  0  0  0
   47.3816   29.3572   48.2092 H   0  0  0  0  0  0  0  0  0  0  0  0
   48.2061   30.8165   48.6029 H   0  0  0  0  0  0  0  0  0  0  0  0
   45.8389   30.9988   50.0376 H   0  0  0  0  0  0  0  0  0  0  0  0
   45.3602   35.2220   43.0436 H   0  0  0  0  0  0  0  0  0  0  0  0
   47.2235   33.5234   42.8105 H   0  0  0  0  0  0  0  0  0  0  0  0
   43.7191   36.2290   44.5588 H   0  0  0  0  0  0  0  0  0  0  0  0
   43.7604   32.3720   48.4068 H   0  0  0  0  0  0  0  0  0  0  0  0
   45.7600   28.5992   49.6479 H   0  0  0  0  0  0  0  0  0  0  0  0
   44.0056   28.4739   49.1607 H   0  0  0  0  0  0  0  0  0  0  0  0
   46.0899   28.3677   47.0020 H   0  0  0  0  0  0  0  0  0  0  0  0
   45.8751   26.9253   48.0489 H   0  0  0  0  0  0  0  0  0  0  0  0
   43.5882   25.6639   47.8377 H   0  0  0  0  0  0  0  0  0  0  0  0
   41.5906   25.3007   46.5191 H   0  0  0  0  0  0  0  0  0  0  0  0
   40.9347   26.9446   44.7518 H   0  0  0  0  0  0  0  0  0  0  0  0
   44.0784   30.1208   44.8437 H   0  0  0  0  0  0  0  0  0  0  0  0
   43.2746   28.6761   42.5492 H   0  0  0  0  0  0  0  0  0  0  0  0
   42.7442   31.3050   43.0240 H   0  0  0  0  0  0  0  0  0  0  0  0
   42.1888   30.9150   41.4382 H   0  0  0  0  0  0  0  0  0  0  0  0
   40.6270   31.0112   44.0935 H   0  0  0  0  0  0  0  0  0  0  0  0
   40.0515   31.5296   42.5037 H   0  0  0  0  0  0  0  0  0  0  0  0
   39.7626   28.9010   43.7910 H   0  0  0  0  0  0  0  0  0  0  0  0
   39.0518   29.4094   42.2662 H   0  0  0  0  0  0  0  0  0  0  0  0
   40.9692   27.4970   42.2360 H   0  0  0  0  0  0  0  0  0  0  0  0
   41.0836   28.6882   40.9962 H   0  0  0  0  0  0  0  0  0  0  0  0
  1 15  1  0
  1  6  1  0
  2  6  1  0
  3  2  1  0
  4  3  1  0
  4  5  1  0
  5  6  1  0
  7 13  1  0
  7 12  2  0
  8  7  1  0
  9  8  2  0
  9 10  1  0
 10 11  2  0
 11 12  1  0
 11  3  1  0
 14  2  1  0
 16 15  1  0
 17 18  2  0
 18 19  1  0
 18 16  1  0
 20 19  2  0
 21 20  1  0
 22 21  2  0
 22 17  1  0
 23 17  1  0
 24 22  1  0
 25 24  1  0
 26 25  1  0
 26 27  1  0
 28 27  1  0
 29 28  1  0
 29 25  1  0
  2 30  1  1
  3 31  1  1
  5 32  1  0
  5 33  1  0
  6 34  1  1
  8 35  1  0
  9 36  1  0
 13 37  1  0
 14 38  1  0
 15 39  1  0
 15 40  1  0
 16 41  1  0
 16 42  1  0
 19 43  1  0
 20 44  1  0
 21 45  1  0
 23 46  1  0
 25 47  1  0
 26 48  1  0
 26 49  1  0
 27 50  1  0
 27 51  1  0
 28 52  1  0
 28 53  1  0
 29 54  1  0
 29 55  1  0
M  ISO  8  30  13  31  13  32  13  33  13  34  13  35  14  36  14  37   3
M  ISO  8  38   3  39   8  40   8  41   8  42   8  43  14  44  14  45  14
M  ISO  8  46   3  47  13  48  13  49  13  50  13  51  13  52  13  53  13
M  ISO  2  54  13  55  13
M  END
>  <minimizedAffinity>  (1) 
-5.94378901

>  <minimizedRMSD>  (1) 
1.80015981

$$$$
