
     RDKit          3D

 39 41  0  0  1  0  0  0  0  0999 V2000
   45.2300   34.7730   42.8470 C   0  0  2  0  0  0  0  0  0  0  0  0
   46.4540   34.7910   42.0180 C   0  0  0  0  0  0  0  0  0  0  0  0
   47.3180   33.5790   42.2150 C   0  0  0  0  0  0  0  0  0  0  0  0
   47.7020   33.3990   43.6740 C   0  0  0  0  0  0  0  0  0  0  0  0
   46.5780   33.6640   44.6310 C   0  0  1  0  0  0  0  0  0  0  0  0
   45.2450   33.6840   43.9110 C   0  0  0  0  0  0  0  0  0  0  0  0
   44.0010   34.6000   42.0440 C   0  0  0  0  0  0  0  0  0  0  0  0
   43.5720   33.2700   41.8560 C   0  0  0  0  0  0  0  0  0  0  0  0
   42.4130   33.0270   41.1180 C   0  0  0  0  0  0  0  0  0  0  0  0
   41.7550   34.1290   40.6130 N   0  0  0  0  0  0  0  0  0  0  0  0
   42.1930   35.3890   40.8110 C   0  0  0  0  0  0  0  0  0  0  0  0
   43.3110   35.6160   41.5240 N   0  0  0  0  0  0  0  0  0  0  0  0
   46.5470   32.7600   45.7350 N   0  0  0  0  0  0  0  0  0  0  0  0
   46.2330   31.4200   45.3450 C   0  0  0  0  0  0  0  0  0  0  0  0
   45.7570   30.5000   46.3860 C   0  0  0  0  0  0  0  0  0  0  0  0
   45.3520   31.0440   47.7060 C   0  0  0  0  0  0  0  0  0  0  0  0
   45.8100   32.4570   47.9610 C   0  0  0  0  0  0  0  0  0  0  0  0
   45.5330   33.2200   46.6820 C   0  0  0  0  0  0  0  0  0  0  0  0
   45.2223   35.7592   43.3342 H   0  0  0  0  0  0  0  0  0  0  0  0
   47.0401   35.6846   42.2788 H   0  0  0  0  0  0  0  0  0  0  0  0
   46.1362   34.7990   40.9649 H   0  0  0  0  0  0  0  0  0  0  0  0
   46.7667   32.6887   41.8782 H   0  0  0  0  0  0  0  0  0  0  0  0
   48.2397   33.7139   41.6300 H   0  0  0  0  0  0  0  0  0  0  0  0
   48.0435   32.3633   43.8179 H   0  0  0  0  0  0  0  0  0  0  0  0
   48.4897   34.1352   43.8920 H   0  0  0  0  0  0  0  0  0  0  0  0
   46.7682   34.6606   45.0559 H   0  0  0  0  0  0  0  0  0  0  0  0
   44.4433   33.8779   44.6388 H   0  0  0  0  0  0  0  0  0  0  0  0
   45.0884   32.7096   43.4251 H   0  0  0  0  0  0  0  0  0  0  0  0
   44.1439   32.4344   42.2858 H   0  0  0  0  0  0  0  0  0  0  0  0
   42.0419   32.0057   40.9472 H   0  0  0  0  0  0  0  0  0  0  0  0
   41.6331   36.2357   40.3872 H   0  0  0  0  0  0  0  0  0  0  0  0
   46.3442   31.0901   44.3015 H   0  0  0  0  0  0  0  0  0  0  0  0
   45.7012   29.4191   46.1894 H   0  0  0  0  0  0  0  0  0  0  0  0
   44.2538   31.0217   47.7657 H   0  0  0  0  0  0  0  0  0  0  0  0
   45.8342   30.4140   48.4679 H   0  0  0  0  0  0  0  0  0  0  0  0
   45.2477   32.8964   48.7981 H   0  0  0  0  0  0  0  0  0  0  0  0
   46.8758   32.4938   48.2307 H   0  0  0  0  0  0  0  0  0  0  0  0
   45.6258   34.3030   46.8509 H   0  0  0  0  0  0  0  0  0  0  0  0
   44.5128   33.0436   46.3104 H   0  0  0  0  0  0  0  0  0  0  0  0
  1  6  1  0
  2  3  1  0
  2  1  1  0
  3  4  1  0
  4  5  1  0
  5 13  1  0
  6  5  1  0
  7  1  1  0
  8  7  2  0
  9  8  1  0
 10 11  1  0
 10  9  2  0
 11 12  2  0
 12  7  1  0
 13 18  1  0
 14 13  1  0
 14 15  2  0
 15 16  1  0
 16 17  1  0
 18 17  1  0
  1 19  1  1
  2 20  1  0
  2 21  1  0
  3 22  1  0
  3 23  1  0
  4 24  1  0
  4 25  1  0
  5 26  1  1
  6 27  1  0
  6 28  1  0
  8 29  1  0
  9 30  1  0
 11 31  1  0
 14 32  1  0
 15 33  1  0
 16 34  1  0
 16 35  1  0
 17 36  1  0
 17 37  1  0
 18 38  1  0
 18 39  1  0
M  ISO  8  19  13  20  13  21  13  22  13  23  13  24  13  25  13  26  13
M  ISO  8  27  13  28  13  29  14  30  14  31  14  32  13  33  13  34  13
M  ISO  5  35  13  36  13  37  13  38  13  39  13
M  END
>  <minimizedAffinity>  (1) 
-4.75211477

>  <minimizedRMSD>  (1) 
5.43299198

$$$$
