
     RDKit          3D

 36 38  0  0  1  0  0  0  0  0999 V2000
   46.6540   34.3770   42.3890 C   0  0  2  0  0  0  0  0  0  0  0  0
   47.5130   35.5780   42.3130 C   0  0  0  0  0  0  0  0  0  0  0  0
   48.7570   35.3720   41.5050 C   0  0  0  0  0  0  0  0  0  0  0  0
   49.5790   34.2050   42.0210 C   0  0  0  0  0  0  0  0  0  0  0  0
   48.7460   32.9950   42.3530 C   0  0  1  0  0  0  0  0  0  0  0  0
   47.3210   33.1120   41.8670 C   0  0  0  0  0  0  0  0  0  0  0  0
   45.3830   34.5390   41.6540 C   0  0  0  0  0  0  0  0  0  0  0  0
   45.2110   33.6920   40.5200 C   0  0  0  0  0  0  0  0  0  0  0  0
   44.0330   33.7890   39.7860 C   0  0  0  0  0  0  0  0  0  0  0  0
   43.1010   34.7110   40.2130 N   0  0  0  0  0  0  0  0  0  0  0  0
   43.2940   35.4890   41.2820 C   0  0  0  0  0  0  0  0  0  0  0  0
   44.4350   35.4080   42.0080 N   0  0  0  0  0  0  0  0  0  0  0  0
   49.3620   31.8490   41.7780 N   0  0  0  0  0  0  0  0  0  0  0  0
   50.0990   31.0390   42.7030 C   0  0  0  0  0  0  0  0  0  0  0  0
   51.4850   30.8540   42.1550 C   0  0  0  0  0  0  0  0  0  0  0  0
   51.5260   31.5810   40.8420 C   0  0  0  0  0  0  0  0  0  0  0  0
   50.1270   32.0620   40.6000 C   0  0  0  0  0  0  0  0  0  0  0  0
   46.4623   34.2670   43.4666 H   0  0  0  0  0  0  0  0  0  0  0  0
   46.9323   36.3932   41.8566 H   0  0  0  0  0  0  0  0  0  0  0  0
   47.8293   35.8153   43.3395 H   0  0  0  0  0  0  0  0  0  0  0  0
   49.3675   36.2858   41.5525 H   0  0  0  0  0  0  0  0  0  0  0  0
   48.4587   35.1483   40.4701 H   0  0  0  0  0  0  0  0  0  0  0  0
   50.3113   33.9246   41.2495 H   0  0  0  0  0  0  0  0  0  0  0  0
   50.0653   34.5331   42.9515 H   0  0  0  0  0  0  0  0  0  0  0  0
   48.6968   32.9079   43.4484 H   0  0  0  0  0  0  0  0  0  0  0  0
   47.3195   33.1352   40.7672 H   0  0  0  0  0  0  0  0  0  0  0  0
   46.7569   32.2453   42.2419 H   0  0  0  0  0  0  0  0  0  0  0  0
   45.9943   32.9758   40.2311 H   0  0  0  0  0  0  0  0  0  0  0  0
   43.8531   33.1576   38.9034 H   0  0  0  0  0  0  0  0  0  0  0  0
   42.5143   36.2065   41.5772 H   0  0  0  0  0  0  0  0  0  0  0  0
   49.7166   30.6257   43.6480 H   0  0  0  0  0  0  0  0  0  0  0  0
   52.3086   30.2954   42.6237 H   0  0  0  0  0  0  0  0  0  0  0  0
   52.2201   32.4326   40.8968 H   0  0  0  0  0  0  0  0  0  0  0  0
   51.8775   30.9295   40.0283 H   0  0  0  0  0  0  0  0  0  0  0  0
   50.1412   33.1347   40.3568 H   0  0  0  0  0  0  0  0  0  0  0  0
   49.6813   31.5107   39.7589 H   0  0  0  0  0  0  0  0  0  0  0  0
  2  1  1  0
  3  4  1  0
  3  2  1  0
  4  5  1  0
  6  5  1  0
  6  1  1  0
  7 12  1  0
  7  1  1  0
  8  7  2  0
  9 10  2  0
  9  8  1  0
 10 11  1  0
 11 12  2  0
 13  5  1  0
 13 14  1  0
 15 14  2  0
 16 15  1  0
 17 16  1  0
 17 13  1  0
  1 18  1  1
  2 19  1  0
  2 20  1  0
  3 21  1  0
  3 22  1  0
  4 23  1  0
  4 24  1  0
  5 25  1  1
  6 26  1  0
  6 27  1  0
  8 28  1  0
  9 29  1  0
 11 30  1  0
 14 31  1  0
 15 32  1  0
 16 33  1  0
 16 34  1  0
 17 35  1  0
 17 36  1  0
M  ISO  8  18  13  19  13  20  13  21  13  22  13  23  13  24  13  25  13
M  ISO  8  26  13  27  13  28  14  29  14  30  14  31  13  32  13  33  13
M  ISO  3  34  13  35  13  36  13
M  END
>  <minimizedAffinity>  (1) 
-4.20120049

>  <minimizedRMSD>  (1) 
6.22541285

$$$$
