
     RDKit          3D

 47 50  0  0  0  0  0  0  0  0999 V2000
   45.6490   31.5680   47.0750 C   0  0  0  0  0  0  0  0  0  0  0  0
   45.4140   32.0310   48.3670 C   0  0  0  0  0  0  0  0  0  0  0  0
   45.1870   31.1970   49.4520 C   0  0  0  0  0  0  0  0  0  0  0  0
   45.2000   29.8450   49.2120 C   0  0  0  0  0  0  0  0  0  0  0  0
   45.4360   29.3830   47.9150 C   0  0  0  0  0  0  0  0  0  0  0  0
   45.6470   30.2450   46.9150 N   0  0  0  0  0  0  0  0  0  0  0  0
   44.7610   36.5990   43.8610 C   0  0  0  0  0  0  0  0  0  0  0  0
   45.6480   36.3260   42.8110 C   0  0  0  0  0  0  0  0  0  0  0  0
   46.2980   35.0940   42.8320 C   0  0  0  0  0  0  0  0  0  0  0  0
   46.0590   34.2110   43.8490 N   0  0  0  0  0  0  0  0  0  0  0  0
   45.1790   34.5390   44.8480 C   0  0  0  0  0  0  0  0  0  0  0  0
   44.5420   35.7340   44.8370 N   0  0  0  0  0  0  0  0  0  0  0  0
   45.8770   32.5350   46.0040 C   0  0  0  0  0  0  0  0  0  0  0  0
   46.8770   32.3570   45.2530 O   0  0  0  0  0  0  0  0  0  0  0  0
   44.9480   33.6050   45.8920 N   0  0  0  0  0  0  0  0  0  0  0  0
   45.4480   27.9520   47.6680 C   0  0  0  0  0  0  0  0  0  0  0  0
   44.5940   27.1700   48.2780 C   0  0  0  0  0  0  0  0  0  0  0  0
   44.4800   25.6920   48.1330 C   0  0  0  0  0  0  0  0  0  0  0  0
   44.9870   23.1400   46.7190 Cl  0  0  0  0  0  0  0  0  0  0  0  0
   43.5490   24.1340   46.5030 C   0  0  0  0  0  0  0  0  0  0  0  0
   43.3840   25.3170   47.2020 C   0  0  0  0  0  0  0  0  0  0  0  0
   42.2560   26.1020   47.0370 C   0  0  0  0  0  0  0  0  0  0  0  0
   41.2590   25.6850   46.1390 C   0  0  0  0  0  0  0  0  0  0  0  0
   41.4400   24.5010   45.4490 C   0  0  0  0  0  0  0  0  0  0  0  0
   42.5820   23.7130   45.6210 C   0  0  0  0  0  0  0  0  0  0  0  0
   42.7540   22.4580   44.8790 C   0  0  0  0  0  0  0  0  0  0  0  0
   41.5620   21.7440   44.2750 C   0  0  0  0  0  0  0  0  0  0  0  0
   42.3330   21.1450   45.4130 C   0  0  0  0  0  0  0  0  0  0  0  0
   45.4080   33.1178   48.5366 H   0  0  0  0  0  0  0  0  0  0  0  0
   45.0048   31.6004   50.4590 H   0  0  0  0  0  0  0  0  0  0  0  0
   45.0264   29.1332   50.0325 H   0  0  0  0  0  0  0  0  0  0  0  0
   44.2305   37.5626   43.8737 H   0  0  0  0  0  0  0  0  0  0  0  0
   45.8235   37.0534   42.0047 H   0  0  0  0  0  0  0  0  0  0  0  0
   47.0038   34.8311   42.0303 H   0  0  0  0  0  0  0  0  0  0  0  0
   44.1487   33.6979   46.5349 H   0  0  0  0  0  0  0  0  0  0  0  0
   46.1779   27.5235   46.9653 H   0  0  0  0  0  0  0  0  0  0  0  0
   43.8879   27.6540   48.9687 H   0  0  0  0  0  0  0  0  0  0  0  0
   45.4300   25.2971   47.7437 H   0  0  0  0  0  0  0  0  0  0  0  0
   44.2532   25.2656   49.1213 H   0  0  0  0  0  0  0  0  0  0  0  0
   42.1416   27.0394   47.6011 H   0  0  0  0  0  0  0  0  0  0  0  0
   40.3521   26.2890   45.9880 H   0  0  0  0  0  0  0  0  0  0  0  0
   40.6632   24.1692   44.7443 H   0  0  0  0  0  0  0  0  0  0  0  0
   43.7060   22.8620   44.5042 H   0  0  0  0  0  0  0  0  0  0  0  0
   40.5449   22.1298   44.4380 H   0  0  0  0  0  0  0  0  0  0  0  0
   41.2711   21.4174   43.2657 H   0  0  0  0  0  0  0  0  0  0  0  0
   42.9607   20.2582   45.2413 H   0  0  0  0  0  0  0  0  0  0  0  0
   42.0660   20.7685   46.4115 H   0  0  0  0  0  0  0  0  0  0  0  0
  1  2  2  0
  2  3  1  0
  4  3  2  0
  5  4  1  0
  6  1  1  0
  6  5  2  0
  7 12  2  0
  8  9  2  0
  8  7  1  0
  9 10  1  0
 10 11  2  0
 11 15  1  0
 12 11  1  0
 13  1  1  0
 14 13  2  0
 15 13  1  0
 16  5  1  0
 16 17  2  0
 18 17  1  0
 20 19  1  0
 20 21  2  0
 21 18  1  0
 22 21  1  0
 23 22  2  0
 24 25  2  0
 24 23  1  0
 25 20  1  0
 26 28  1  0
 26 25  1  0
 27 26  1  0
 27 28  1  0
  2 29  1  0
  3 30  1  0
  4 31  1  0
  7 32  1  0
  8 33  1  0
  9 34  1  0
 15 35  1  0
 16 36  1  0
 17 37  1  0
 18 38  1  0
 18 39  1  0
 22 40  1  0
 23 41  1  0
 24 42  1  0
 26 43  1  0
 27 44  1  0
 27 45  1  0
 28 46  1  0
 28 47  1  0
M  ISO  8  29  14  30  14  31  14  32  14  33  14  34  14  38   8  39   8
M  ISO  8  40  14  41  14  42  14  43  13  44  13  45  13  46  13  47  13
M  END
>  <minimizedAffinity>  (1) 
-6.08897352

>  <minimizedRMSD>  (1) 
0.42904079

$$$$
