
     RDKit          3D

 42 44  0  0  0  0  0  0  0  0999 V2000
   45.6340   31.5370   47.0870 C   0  0  0  0  0  0  0  0  0  0  0  0
   45.4270   32.0020   48.3960 C   0  0  0  0  0  0  0  0  0  0  0  0
   45.1960   31.1720   49.4680 C   0  0  0  0  0  0  0  0  0  0  0  0
   45.1710   29.8150   49.2220 C   0  0  0  0  0  0  0  0  0  0  0  0
   45.3760   29.3490   47.9250 C   0  0  0  0  0  0  0  0  0  0  0  0
   45.5960   30.2030   46.9290 N   0  0  0  0  0  0  0  0  0  0  0  0
   44.7750   36.5590   43.8520 C   0  0  0  0  0  0  0  0  0  0  0  0
   45.6670   36.2800   42.8200 C   0  0  0  0  0  0  0  0  0  0  0  0
   46.3270   35.0410   42.8480 C   0  0  0  0  0  0  0  0  0  0  0  0
   46.0730   34.1720   43.8700 N   0  0  0  0  0  0  0  0  0  0  0  0
   45.1900   34.5000   44.8510 C   0  0  0  0  0  0  0  0  0  0  0  0
   44.5420   35.6910   44.8440 N   0  0  0  0  0  0  0  0  0  0  0  0
   45.8720   32.4950   46.0160 C   0  0  0  0  0  0  0  0  0  0  0  0
   46.8710   32.3110   45.2670 O   0  0  0  0  0  0  0  0  0  0  0  0
   44.9510   33.5710   45.8980 N   0  0  0  0  0  0  0  0  0  0  0  0
   45.3470   27.9230   47.6890 C   0  0  0  0  0  0  0  0  0  0  0  0
   44.5980   27.1430   48.4210 C   0  0  0  0  0  0  0  0  0  0  0  0
   44.4540   25.6530   48.3060 C   0  0  0  0  0  0  0  0  0  0  0  0
   45.2280   23.4070   46.5280 Cl  0  0  0  0  0  0  0  0  0  0  0  0
   43.6820   24.2490   46.4760 C   0  0  0  0  0  0  0  0  0  0  0  0
   43.3890   25.2900   47.3400 C   0  0  0  0  0  0  0  0  0  0  0  0
   42.1760   25.9490   47.2970 C   0  0  0  0  0  0  0  0  0  0  0  0
   41.2150   25.5490   46.3530 C   0  0  0  0  0  0  0  0  0  0  0  0
   41.5160   24.5050   45.4920 C   0  0  0  0  0  0  0  0  0  0  0  0
   42.7480   23.8450   45.5450 C   0  0  0  0  0  0  0  0  0  0  0  0
   43.0410   22.7860   44.6640 N   0  0  0  0  0  0  0  0  0  0  0  0
   45.4509   33.0874   48.5732 H   0  0  0  0  0  0  0  0  0  0  0  0
   45.0377   31.5737   50.4797 H   0  0  0  0  0  0  0  0  0  0  0  0
   44.9906   29.1061   50.0435 H   0  0  0  0  0  0  0  0  0  0  0  0
   44.2451   37.5230   43.8521 H   0  0  0  0  0  0  0  0  0  0  0  0
   45.8481   37.0040   42.0119 H   0  0  0  0  0  0  0  0  0  0  0  0
   47.0410   34.7734   42.0551 H   0  0  0  0  0  0  0  0  0  0  0  0
   44.1512   33.6718   46.5391 H   0  0  0  0  0  0  0  0  0  0  0  0
   45.9615   27.4910   46.8854 H   0  0  0  0  0  0  0  0  0  0  0  0
   44.0069   27.6319   49.2094 H   0  0  0  0  0  0  0  0  0  0  0  0
   45.4085   25.2256   47.9651 H   0  0  0  0  0  0  0  0  0  0  0  0
   44.1801   25.2524   49.2932 H   0  0  0  0  0  0  0  0  0  0  0  0
   41.9652   26.7753   47.9919 H   0  0  0  0  0  0  0  0  0  0  0  0
   40.2402   26.0558   46.2981 H   0  0  0  0  0  0  0  0  0  0  0  0
   40.7684   24.1883   44.7498 H   0  0  0  0  0  0  0  0  0  0  0  0
   43.9531   22.3102   44.7159 H   0  0  0  0  0  0  0  0  0  0  0  0
   42.3432   22.4873   43.9677 H   0  0  0  0  0  0  0  0  0  0  0  0
  1  2  2  0
  2  3  1  0
  4  3  2  0
  5  4  1  0
  6  1  1  0
  6  5  2  0
  7 12  2  0
  8  9  2  0
  8  7  1  0
  9 10  1  0
 10 11  2  0
 11 15  1  0
 12 11  1  0
 13  1  1  0
 14 13  2  0
 15 13  1  0
 16  5  1  0
 16 17  2  0
 18 17  1  0
 20 19  1  0
 20 21  2  0
 21 18  1  0
 22 21  1  0
 23 22  2  0
 24 25  2  0
 24 23  1  0
 25 20  1  0
 26 25  1  0
  2 27  1  0
  3 28  1  0
  4 29  1  0
  7 30  1  0
  8 31  1  0
  9 32  1  0
 15 33  1  0
 16 34  1  0
 17 35  1  0
 18 36  1  0
 18 37  1  0
 22 38  1  0
 23 39  1  0
 24 40  1  0
 26 41  1  0
 26 42  1  0
M  ISO  8  27  14  28  14  29  14  30  14  31  14  32  14  36   8  37   8
M  ISO  3  38  14  39  14  40  14
M  END
>  <minimizedAffinity>  (1) 
-6.08739614

>  <minimizedRMSD>  (1) 
0.0209962856

$$$$
