
     RDKit          3D

 46 48  0  0  1  0  0  0  0  0999 V2000
   47.2890   34.0700   42.5050 C   0  0  2  0  0  0  0  0  0  0  0  0
   48.6450   34.6440   42.6580 C   0  0  0  0  0  0  0  0  0  0  0  0
   48.9190   35.7170   41.6520 C   0  0  0  0  0  0  0  0  0  0  0  0
   48.7330   35.2270   40.2220 C   0  0  0  0  0  0  0  0  0  0  0  0
   47.5560   34.3120   40.0410 C   0  0  2  0  0  0  0  0  0  0  0  0
   46.6150   34.4090   41.2150 C   0  0  0  0  0  0  0  0  0  0  0  0
   46.3910   34.3830   43.6250 C   0  0  0  0  0  0  0  0  0  0  0  0
   45.5610   35.4810   43.3970 C   0  0  0  0  0  0  0  0  0  0  0  0
   44.6450   35.8820   44.3760 C   0  0  0  0  0  0  0  0  0  0  0  0
   44.6310   35.1410   45.5310 N   0  0  0  0  0  0  0  0  0  0  0  0
   45.4440   34.0870   45.7270 C   0  0  0  0  0  0  0  0  0  0  0  0
   46.3050   33.7300   44.7730 N   0  0  0  0  0  0  0  0  0  0  0  0
   48.0620   32.9560   39.7620 C   0  0  0  0  0  0  0  0  0  0  0  0
   47.6420   32.3770   38.4590 C   0  0  0  0  0  0  0  0  0  0  0  0
   47.3880   33.2980   37.3880 N   0  0  0  0  0  0  0  0  0  0  0  0
   48.5850   33.3330   36.5800 C   0  0  0  0  0  0  0  0  0  0  0  0
   48.4670   32.7570   35.2120 C   0  0  0  0  0  0  0  0  0  0  0  0
   47.6410   31.5920   35.1340 N   0  0  0  0  0  0  0  0  0  0  0  0
   46.3330   31.8890   35.6210 C   0  0  0  0  0  0  0  0  0  0  0  0
   46.2220   32.9800   36.6200 C   0  0  0  0  0  0  0  0  0  0  0  0
   47.4804   32.9868   42.5018 H   0  0  0  0  0  0  0  0  0  0  0  0
   48.7371   35.0721   43.6671 H   0  0  0  0  0  0  0  0  0  0  0  0
   49.3746   33.8363   42.4988 H   0  0  0  0  0  0  0  0  0  0  0  0
   48.2296   36.5552   41.8316 H   0  0  0  0  0  0  0  0  0  0  0  0
   49.9675   36.0286   41.7682 H   0  0  0  0  0  0  0  0  0  0  0  0
   48.5943   36.1028   39.5710 H   0  0  0  0  0  0  0  0  0  0  0  0
   49.6313   34.6470   39.9636 H   0  0  0  0  0  0  0  0  0  0  0  0
   46.9442   34.6117   39.1774 H   0  0  0  0  0  0  0  0  0  0  0  0
   46.2288   35.4372   41.2760 H   0  0  0  0  0  0  0  0  0  0  0  0
   45.8013   33.6858   41.0576 H   0  0  0  0  0  0  0  0  0  0  0  0
   45.6267   36.0318   42.4471 H   0  0  0  0  0  0  0  0  0  0  0  0
   43.9748   36.7416   44.2283 H   0  0  0  0  0  0  0  0  0  0  0  0
   45.3988   33.5222   46.6699 H   0  0  0  0  0  0  0  0  0  0  0  0
   49.1612   32.9933   39.7788 H   0  0  0  0  0  0  0  0  0  0  0  0
   47.6313   32.3051   40.5371 H   0  0  0  0  0  0  0  0  0  0  0  0
   48.4380   31.6940   38.1275 H   0  0  0  0  0  0  0  0  0  0  0  0
   46.6725   31.8973   38.6590 H   0  0  0  0  0  0  0  0  0  0  0  0
   48.8907   34.3846   36.4770 H   0  0  0  0  0  0  0  0  0  0  0  0
   49.3158   32.7008   37.1056 H   0  0  0  0  0  0  0  0  0  0  0  0
   48.0421   33.5257   34.5498 H   0  0  0  0  0  0  0  0  0  0  0  0
   49.4788   32.4468   34.9120 H   0  0  0  0  0  0  0  0  0  0  0  0
   47.5781   31.2832   34.1534 H   0  0  0  0  0  0  0  0  0  0  0  0
   45.7110   32.1649   34.7567 H   0  0  0  0  0  0  0  0  0  0  0  0
   46.0103   30.9805   36.1506 H   0  0  0  0  0  0  0  0  0  0  0  0
   45.9251   33.8913   36.0802 H   0  0  0  0  0  0  0  0  0  0  0  0
   45.4946   32.6099   37.3575 H   0  0  0  0  0  0  0  0  0  0  0  0
  1  2  1  0
  1  7  1  0
  3  2  1  0
  4  3  1  0
  5  4  1  0
  5  6  1  0
  6  1  1  0
  7 12  1  0
  8  7  2  0
  8  9  1  0
  9 10  2  0
 10 11  1  0
 12 11  2  0
 13  5  1  0
 14 13  1  0
 15 14  1  0
 16 15  1  0
 17 16  1  0
 18 17  1  0
 18 19  1  0
 19 20  1  0
 20 15  1  0
  1 21  1  6
  2 22  1  0
  2 23  1  0
  3 24  1  0
  3 25  1  0
  4 26  1  0
  4 27  1  0
  5 28  1  6
  6 29  1  0
  6 30  1  0
  8 31  1  0
  9 32  1  0
 11 33  1  0
 13 34  1  0
 13 35  1  0
 14 36  1  0
 14 37  1  0
 16 38  1  0
 16 39  1  0
 17 40  1  0
 17 41  1  0
 18 42  1  0
 19 43  1  0
 19 44  1  0
 20 45  1  0
 20 46  1  0
M  ISO  8  21  13  22  13  23  13  24  13  25  13  26  13  27  13  28  13
M  ISO  8  29  13  30  13  31  14  32  14  33  14  34   8  35   8  36   8
M  ISO  8  37   8  38  13  39  13  40  13  41  13  42   5  43  13  44  13
M  ISO  2  45  13  46  13
M  END
>  <minimizedAffinity>  (1) 
-5.66823578

>  <minimizedRMSD>  (1) 
2.49987483

$$$$
