
     RDKit          3D

 47 49  0  0  1  0  0  0  0  0999 V2000
   47.3110   34.0750   42.5010 C   0  0  2  0  0  0  0  0  0  0  0  0
   48.6550   34.6730   42.6490 C   0  0  0  0  0  0  0  0  0  0  0  0
   48.9210   35.7300   41.6280 C   0  0  0  0  0  0  0  0  0  0  0  0
   48.7380   35.2450   40.2150 C   0  0  0  0  0  0  0  0  0  0  0  0
   47.5690   34.3120   40.0310 C   0  0  2  0  0  0  0  0  0  0  0  0
   46.6270   34.3670   41.2090 C   0  0  0  0  0  0  0  0  0  0  0  0
   46.4110   34.3840   43.6190 C   0  0  0  0  0  0  0  0  0  0  0  0
   45.5790   35.4790   43.3850 C   0  0  0  0  0  0  0  0  0  0  0  0
   44.6560   35.8750   44.3570 C   0  0  0  0  0  0  0  0  0  0  0  0
   44.6360   35.1260   45.5190 N   0  0  0  0  0  0  0  0  0  0  0  0
   45.4530   34.0760   45.7200 C   0  0  0  0  0  0  0  0  0  0  0  0
   46.3160   33.7320   44.7710 N   0  0  0  0  0  0  0  0  0  0  0  0
   48.1050   32.9600   39.7500 C   0  0  0  0  0  0  0  0  0  0  0  0
   47.2890   32.0480   38.9280 C   0  0  0  0  0  0  0  0  0  0  0  0
   48.0380   31.5030   37.8140 N   0  0  0  0  0  0  0  0  0  0  0  0
   47.1840   30.9110   36.8240 C   0  0  0  0  0  0  0  0  0  0  0  0
   46.6710   31.7640   35.7380 C   0  0  0  0  0  0  0  0  0  0  0  0
   47.9100   32.2920   34.9860 C   0  0  0  0  0  0  0  0  0  0  0  0
   48.6290   33.1270   36.0060 C   0  0  0  0  0  0  0  0  0  0  0  0
   48.9870   32.4350   37.2710 C   0  0  0  0  0  0  0  0  0  0  0  0
   47.5275   32.9965   42.5077 H   0  0  0  0  0  0  0  0  0  0  0  0
   48.7345   35.1207   43.6506 H   0  0  0  0  0  0  0  0  0  0  0  0
   49.3966   33.8732   42.5062 H   0  0  0  0  0  0  0  0  0  0  0  0
   48.2298   36.5677   41.8030 H   0  0  0  0  0  0  0  0  0  0  0  0
   49.9725   36.0342   41.7369 H   0  0  0  0  0  0  0  0  0  0  0  0
   48.5867   36.1203   39.5662 H   0  0  0  0  0  0  0  0  0  0  0  0
   49.6424   34.6751   39.9557 H   0  0  0  0  0  0  0  0  0  0  0  0
   46.9520   34.6210   39.1744 H   0  0  0  0  0  0  0  0  0  0  0  0
   46.1872   35.3739   41.2623 H   0  0  0  0  0  0  0  0  0  0  0  0
   45.8565   33.5967   41.0571 H   0  0  0  0  0  0  0  0  0  0  0  0
   45.6493   36.0306   42.4359 H   0  0  0  0  0  0  0  0  0  0  0  0
   43.9843   36.7330   44.2062 H   0  0  0  0  0  0  0  0  0  0  0  0
   45.4066   33.5082   46.6610 H   0  0  0  0  0  0  0  0  0  0  0  0
   49.0682   33.0907   39.2350 H   0  0  0  0  0  0  0  0  0  0  0  0
   48.1518   32.4733   40.7354 H   0  0  0  0  0  0  0  0  0  0  0  0
   46.9384   31.2185   39.5597 H   0  0  0  0  0  0  0  0  0  0  0  0
   46.4444   32.6228   38.5202 H   0  0  0  0  0  0  0  0  0  0  0  0
   47.7496   30.0926   36.3546 H   0  0  0  0  0  0  0  0  0  0  0  0
   46.2840   30.6183   37.3847 H   0  0  0  0  0  0  0  0  0  0  0  0
   46.0345   31.1768   35.0598 H   0  0  0  0  0  0  0  0  0  0  0  0
   46.0580   32.5887   36.1306 H   0  0  0  0  0  0  0  0  0  0  0  0
   48.5439   31.4601   34.6453 H   0  0  0  0  0  0  0  0  0  0  0  0
   47.6449   32.8629   34.0839 H   0  0  0  0  0  0  0  0  0  0  0  0
   49.5589   33.4940   35.5471 H   0  0  0  0  0  0  0  0  0  0  0  0
   47.9257   33.9238   36.2897 H   0  0  0  0  0  0  0  0  0  0  0  0
   49.9221   31.8844   37.0910 H   0  0  0  0  0  0  0  0  0  0  0  0
   49.0474   33.2384   38.0199 H   0  0  0  0  0  0  0  0  0  0  0  0
  1  2  1  0
  1  7  1  0
  3  2  1  0
  4  3  1  0
  5  4  1  0
  5  6  1  0
  6  1  1  0
  7 12  1  0
  8  7  2  0
  8  9  1  0
  9 10  2  0
 10 11  1  0
 12 11  2  0
 13  5  1  0
 14 13  1  0
 15 14  1  0
 16 15  1  0
 17 16  1  0
 18 17  1  0
 18 19  1  0
 19 20  1  0
 20 15  1  0
  1 21  1  6
  2 22  1  0
  2 23  1  0
  3 24  1  0
  3 25  1  0
  4 26  1  0
  4 27  1  0
  5 28  1  6
  6 29  1  0
  6 30  1  0
  8 31  1  0
  9 32  1  0
 11 33  1  0
 13 34  1  0
 13 35  1  0
 14 36  1  0
 14 37  1  0
 16 38  1  0
 16 39  1  0
 17 40  1  0
 17 41  1  0
 18 42  1  0
 18 43  1  0
 19 44  1  0
 19 45  1  0
 20 46  1  0
 20 47  1  0
M  ISO  8  21  13  22  13  23  13  24  13  25  13  26  13  27  13  28  13
M  ISO  8  29  13  30  13  31  14  32  14  33  14  34   8  35   8  36   8
M  ISO  8  37   8  38  13  39  13  40  13  41  13  42  13  43  13  44  13
M  ISO  3  45  13  46  13  47  13
M  END
>  <minimizedAffinity>  (1) 
-5.440938

>  <minimizedRMSD>  (1) 
1.40502799

$$$$
