
     RDKit          3D

 44 46  0  0  1  0  0  0  0  0999 V2000
   47.4910   34.0770   42.4580 C   0  0  2  0  0  0  0  0  0  0  0  0
   48.8170   34.7110   42.6310 C   0  0  0  0  0  0  0  0  0  0  0  0
   49.0410   35.8310   41.6670 C   0  0  0  0  0  0  0  0  0  0  0  0
   48.8600   35.4260   40.2260 C   0  0  0  0  0  0  0  0  0  0  0  0
   47.7470   34.4430   40.0060 C   0  0  2  0  0  0  0  0  0  0  0  0
   46.7940   34.4130   41.1830 C   0  0  0  0  0  0  0  0  0  0  0  0
   46.5760   34.2990   43.5870 C   0  0  0  0  0  0  0  0  0  0  0  0
   45.6670   35.3340   43.3820 C   0  0  0  0  0  0  0  0  0  0  0  0
   44.7250   35.6460   44.3640 C   0  0  0  0  0  0  0  0  0  0  0  0
   44.7710   34.8740   45.5110 N   0  0  0  0  0  0  0  0  0  0  0  0
   45.6660   33.8820   45.6760 C   0  0  0  0  0  0  0  0  0  0  0  0
   46.5500   33.6100   44.7150 N   0  0  0  0  0  0  0  0  0  0  0  0
   48.3150   33.1230   39.6570 C   0  0  0  0  0  0  0  0  0  0  0  0
   47.3750   32.1410   39.0640 C   0  0  0  0  0  0  0  0  0  0  0  0
   47.5980   32.0910   37.6590 N   0  0  0  0  0  0  0  0  0  0  0  0
   48.8610   32.5520   37.1940 C   0  0  0  0  0  0  0  0  0  0  0  0
   48.6720   32.5100   35.6720 C   0  0  0  0  0  0  0  0  0  0  0  0
   47.1680   32.2920   35.4570 C   0  0  0  0  0  0  0  0  0  0  0  0
   46.6480   32.7510   36.8280 C   0  0  0  0  0  0  0  0  0  0  0  0
   47.7483   33.0083   42.4182 H   0  0  0  0  0  0  0  0  0  0  0  0
   48.8892   35.1061   43.6551 H   0  0  0  0  0  0  0  0  0  0  0  0
   49.5833   33.9451   42.4406 H   0  0  0  0  0  0  0  0  0  0  0  0
   48.3267   36.6357   41.8954 H   0  0  0  0  0  0  0  0  0  0  0  0
   50.0852   36.1563   41.7842 H   0  0  0  0  0  0  0  0  0  0  0  0
   48.6457   36.3296   39.6365 H   0  0  0  0  0  0  0  0  0  0  0  0
   49.7909   34.9296   39.9144 H   0  0  0  0  0  0  0  0  0  0  0  0
   47.1309   34.7627   39.1526 H   0  0  0  0  0  0  0  0  0  0  0  0
   46.3245   35.4025   41.2851 H   0  0  0  0  0  0  0  0  0  0  0  0
   46.0419   33.6335   40.9914 H   0  0  0  0  0  0  0  0  0  0  0  0
   45.6913   35.9074   42.4436 H   0  0  0  0  0  0  0  0  0  0  0  0
   43.9917   36.4555   44.2338 H   0  0  0  0  0  0  0  0  0  0  0  0
   45.6683   33.2942   46.6058 H   0  0  0  0  0  0  0  0  0  0  0  0
   49.1278   33.2880   38.9344 H   0  0  0  0  0  0  0  0  0  0  0  0
   48.6392   32.6809   40.6107 H   0  0  0  0  0  0  0  0  0  0  0  0
   47.5509   31.1478   39.5028 H   0  0  0  0  0  0  0  0  0  0  0  0
   46.3372   32.4423   39.2696 H   0  0  0  0  0  0  0  0  0  0  0  0
   49.0673   33.5744   37.5436 H   0  0  0  0  0  0  0  0  0  0  0  0
   49.7120   31.9546   37.5530 H   0  0  0  0  0  0  0  0  0  0  0  0
   48.9927   33.4590   35.2175 H   0  0  0  0  0  0  0  0  0  0  0  0
   49.2726   31.7151   35.2058 H   0  0  0  0  0  0  0  0  0  0  0  0
   46.7756   32.9148   34.6396 H   0  0  0  0  0  0  0  0  0  0  0  0
   46.8795   31.2718   35.1639 H   0  0  0  0  0  0  0  0  0  0  0  0
   46.6909   33.8444   36.9404 H   0  0  0  0  0  0  0  0  0  0  0  0
   45.5936   32.5169   37.0366 H   0  0  0  0  0  0  0  0  0  0  0  0
  1  2  1  0
  1  7  1  0
  3  2  1  0
  4  3  1  0
  5  4  1  0
  5  6  1  0
  6  1  1  0
  7 12  1  0
  8  7  2  0
  8  9  1  0
  9 10  2  0
 10 11  1  0
 12 11  2  0
 13  5  1  0
 14 13  1  0
 15 14  1  0
 16 15  1  0
 17 16  1  0
 18 17  1  0
 18 19  1  0
 19 15  1  0
  1 20  1  6
  2 21  1  0
  2 22  1  0
  3 23  1  0
  3 24  1  0
  4 25  1  0
  4 26  1  0
  5 27  1  6
  6 28  1  0
  6 29  1  0
  8 30  1  0
  9 31  1  0
 11 32  1  0
 13 33  1  0
 13 34  1  0
 14 35  1  0
 14 36  1  0
 16 37  1  0
 16 38  1  0
 17 39  1  0
 17 40  1  0
 18 41  1  0
 18 42  1  0
 19 43  1  0
 19 44  1  0
M  ISO  8  20  13  21  13  22  13  23  13  24  13  25  13  26  13  27  13
M  ISO  8  28  13  29  13  30  14  31  14  32  14  33   8  34   8  35   8
M  ISO  8  36   8  37  13  38  13  39  13  40  13  41  13  42  13  43  13
M  ISO  1  44  13
M  END
>  <minimizedAffinity>  (1) 
-5.29638004

>  <minimizedRMSD>  (1) 
1.81908143

$$$$
