
     RDKit          3D

 39 40  0  0  1  0  0  0  0  0999 V2000
   47.3350   34.0730   42.5030 C   0  0  2  0  0  0  0  0  0  0  0  0
   48.6830   34.6640   42.6650 C   0  0  0  0  0  0  0  0  0  0  0  0
   48.9750   35.7250   41.6600 C   0  0  0  0  0  0  0  0  0  0  0  0
   48.7640   35.2890   40.2310 C   0  0  0  0  0  0  0  0  0  0  0  0
   47.6240   34.3390   40.0410 C   0  0  2  0  0  0  0  0  0  0  0  0
   46.6620   34.3970   41.2110 C   0  0  0  0  0  0  0  0  0  0  0  0
   46.4230   34.3830   43.6170 C   0  0  0  0  0  0  0  0  0  0  0  0
   45.5890   35.4720   43.3780 C   0  0  0  0  0  0  0  0  0  0  0  0
   44.6590   35.8660   44.3440 C   0  0  0  0  0  0  0  0  0  0  0  0
   44.6390   35.1150   45.5070 N   0  0  0  0  0  0  0  0  0  0  0  0
   45.4650   34.0680   45.7000 C   0  0  0  0  0  0  0  0  0  0  0  0
   46.3420   33.7160   44.7580 N   0  0  0  0  0  0  0  0  0  0  0  0
   48.1450   32.9850   39.7500 C   0  0  0  0  0  0  0  0  0  0  0  0
   47.1550   31.9700   39.3300 C   0  0  0  0  0  0  0  0  0  0  0  0
   46.8740   31.9430   37.8870 C   0  0  0  0  0  0  0  0  0  0  0  0
   45.8270   32.5680   37.3530 C   0  0  0  0  0  0  0  0  0  0  0  0
   45.5480   32.5360   35.8930 C   0  0  0  0  0  0  0  0  0  0  0  0
   47.5439   32.9930   42.5029 H   0  0  0  0  0  0  0  0  0  0  0  0
   48.7551   35.1037   43.6707 H   0  0  0  0  0  0  0  0  0  0  0  0
   49.4170   33.8581   42.5173 H   0  0  0  0  0  0  0  0  0  0  0  0
   48.3166   36.5830   41.8610 H   0  0  0  0  0  0  0  0  0  0  0  0
   50.0408   35.9770   41.7626 H   0  0  0  0  0  0  0  0  0  0  0  0
   48.5717   36.1846   39.6220 H   0  0  0  0  0  0  0  0  0  0  0  0
   49.6754   34.7536   39.9263 H   0  0  0  0  0  0  0  0  0  0  0  0
   47.0274   34.6399   39.1672 H   0  0  0  0  0  0  0  0  0  0  0  0
   46.2403   35.4110   41.2744 H   0  0  0  0  0  0  0  0  0  0  0  0
   45.8737   33.6489   41.0409 H   0  0  0  0  0  0  0  0  0  0  0  0
   45.6621   36.0225   42.4285 H   0  0  0  0  0  0  0  0  0  0  0  0
   43.9840   36.7207   44.1897 H   0  0  0  0  0  0  0  0  0  0  0  0
   45.4160   33.4996   46.6405 H   0  0  0  0  0  0  0  0  0  0  0  0
   48.8881   33.0795   38.9445 H   0  0  0  0  0  0  0  0  0  0  0  0
   48.5484   32.6183   40.7054 H   0  0  0  0  0  0  0  0  0  0  0  0
   47.5344   30.9800   39.6234 H   0  0  0  0  0  0  0  0  0  0  0  0
   46.2094   32.2364   39.8247 H   0  0  0  0  0  0  0  0  0  0  0  0
   47.5534   31.3863   37.2249 H   0  0  0  0  0  0  0  0  0  0  0  0
   45.1465   33.1260   38.0130 H   0  0  0  0  0  0  0  0  0  0  0  0
   44.4674   32.4121   35.7288 H   0  0  0  0  0  0  0  0  0  0  0  0
   45.8827   33.4784   35.4350 H   0  0  0  0  0  0  0  0  0  0  0  0
   46.0874   31.6938   35.4350 H   0  0  0  0  0  0  0  0  0  0  0  0
  1  2  1  0
  1  7  1  0
  3  2  1  0
  4  3  1  0
  5  4  1  0
  5  6  1  0
  6  1  1  0
  7 12  1  0
  8  7  2  0
  8  9  1  0
  9 10  2  0
 10 11  1  0
 12 11  2  0
 13  5  1  0
 14 13  1  0
 15 14  1  0
 16 15  2  0
 17 16  1  0
  1 18  1  6
  2 19  1  0
  2 20  1  0
  3 21  1  0
  3 22  1  0
  4 23  1  0
  4 24  1  0
  5 25  1  6
  6 26  1  0
  6 27  1  0
  8 28  1  0
  9 29  1  0
 11 30  1  0
 13 31  1  0
 13 32  1  0
 14 33  1  0
 14 34  1  0
 15 35  1  0
 16 36  1  0
 17 37  1  0
 17 38  1  0
 17 39  1  0
M  ISO  8  18  13  19  13  20  13  21  13  22  13  23  13  24  13  25  13
M  ISO  8  26  13  27  13  28  14  29  14  30  14  31   8  32   8  33   8
M  ISO  4  34   8  37   8  38   8  39   8
M  END
>  <minimizedAffinity>  (1) 
-4.97326374

>  <minimizedRMSD>  (1) 
0.472564101

$$$$
