
     RDKit          3D

 33 34  0  0  1  0  0  0  0  0999 V2000
   47.3070   34.0700   42.5050 C   0  0  2  0  0  0  0  0  0  0  0  0
   48.6620   34.6490   42.6570 C   0  0  0  0  0  0  0  0  0  0  0  0
   48.9530   35.7120   41.6560 C   0  0  0  0  0  0  0  0  0  0  0  0
   48.7360   35.2690   40.2220 C   0  0  0  0  0  0  0  0  0  0  0  0
   47.5760   34.3060   40.0400 C   0  0  2  0  0  0  0  0  0  0  0  0
   46.6480   34.4190   41.2090 C   0  0  0  0  0  0  0  0  0  0  0  0
   46.4060   34.3810   43.6150 C   0  0  0  0  0  0  0  0  0  0  0  0
   45.5800   35.4770   43.3790 C   0  0  0  0  0  0  0  0  0  0  0  0
   44.6570   35.8800   44.3560 C   0  0  0  0  0  0  0  0  0  0  0  0
   44.6350   35.1340   45.5220 N   0  0  0  0  0  0  0  0  0  0  0  0
   45.4500   34.0810   45.7140 C   0  0  0  0  0  0  0  0  0  0  0  0
   46.3090   33.7330   44.7650 N   0  0  0  0  0  0  0  0  0  0  0  0
   48.1090   32.9650   39.7540 C   0  0  0  0  0  0  0  0  0  0  0  0
   47.5820   32.2670   38.5770 C   0  0  0  0  0  0  0  0  0  0  0  0
   45.9870   31.4980   38.6830 S   0  0  0  0  0  0  0  0  0  0  0  0
   47.4908   32.9855   42.5121 H   0  0  0  0  0  0  0  0  0  0  0  0
   48.7476   35.0825   43.6644 H   0  0  0  0  0  0  0  0  0  0  0  0
   49.3876   33.8378   42.4977 H   0  0  0  0  0  0  0  0  0  0  0  0
   48.2954   36.5702   41.8585 H   0  0  0  0  0  0  0  0  0  0  0  0
   50.0178   35.9689   41.7574 H   0  0  0  0  0  0  0  0  0  0  0  0
   48.5428   36.1623   39.6098 H   0  0  0  0  0  0  0  0  0  0  0  0
   49.6455   34.7322   39.9145 H   0  0  0  0  0  0  0  0  0  0  0  0
   46.9519   34.5549   39.1691 H   0  0  0  0  0  0  0  0  0  0  0  0
   46.2813   35.4544   41.2683 H   0  0  0  0  0  0  0  0  0  0  0  0
   45.8265   33.7047   41.0512 H   0  0  0  0  0  0  0  0  0  0  0  0
   45.6510   36.0258   42.4284 H   0  0  0  0  0  0  0  0  0  0  0  0
   43.9885   36.7403   44.2040 H   0  0  0  0  0  0  0  0  0  0  0  0
   45.4043   33.5111   46.6538 H   0  0  0  0  0  0  0  0  0  0  0  0
   49.1963   33.0637   39.6199 H   0  0  0  0  0  0  0  0  0  0  0  0
   47.7962   32.3492   40.6101 H   0  0  0  0  0  0  0  0  0  0  0  0
   48.3044   31.4789   38.3181 H   0  0  0  0  0  0  0  0  0  0  0  0
   47.4434   33.0659   37.8337 H   0  0  0  0  0  0  0  0  0  0  0  0
   45.6459   31.3336   39.9996 H   0  0  0  0  0  0  0  0  0  0  0  0
  1  2  1  0
  1  7  1  0
  3  2  1  0
  4  3  1  0
  5  4  1  0
  5  6  1  0
  6  1  1  0
  7 12  1  0
  8  7  2  0
  8  9  1  0
  9 10  2  0
 10 11  1  0
 12 11  2  0
 13  5  1  0
 14 15  1  0
 14 13  1  0
  1 16  1  6
  2 17  1  0
  2 18  1  0
  3 19  1  0
  3 20  1  0
  4 21  1  0
  4 22  1  0
  5 23  1  6
  6 24  1  0
  6 25  1  0
  8 26  1  0
  9 27  1  0
 11 28  1  0
 13 29  1  0
 13 30  1  0
 14 31  1  0
 14 32  1  0
 15 33  1  0
M  ISO  8  16  13  17  13  18  13  19  13  20  13  21  13  22  13  23  13
M  ISO  8  24  13  25  13  26  14  27  14  28  14  29   8  30   8  31   8
M  ISO  2  32   8  33  11
M  END
>  <minimizedAffinity>  (1) 
-4.83842754

>  <minimizedRMSD>  (1) 
0.525364816

$$$$
