
     RDKit          3D

 30 32  0  0  0  0  0  0  0  0999 V2000
   44.4590   33.2830   41.2410 Br  0  0  0  0  0  0  0  0  0  0  0  0
   46.1820   34.0840   41.0880 C   0  0  0  0  0  0  0  0  0  0  0  0
   46.7860   34.7590   42.1240 C   0  0  0  0  0  0  0  0  0  0  0  0
   48.0400   35.3050   41.9170 C   0  0  0  0  0  0  0  0  0  0  0  0
   48.7020   35.1980   40.7140 C   0  0  0  0  0  0  0  0  0  0  0  0
   48.1030   34.5170   39.6580 C   0  0  0  0  0  0  0  0  0  0  0  0
   46.8390   33.9730   39.8810 C   0  0  0  0  0  0  0  0  0  0  0  0
   44.4550   35.9740   44.8550 C   0  0  0  0  0  0  0  0  0  0  0  0
   45.1550   35.8910   43.6490 C   0  0  0  0  0  0  0  0  0  0  0  0
   46.0530   34.8510   43.3790 C   0  0  0  0  0  0  0  0  0  0  0  0
   46.1850   33.9460   44.3720 N   0  0  0  0  0  0  0  0  0  0  0  0
   45.5080   34.0270   45.5390 C   0  0  0  0  0  0  0  0  0  0  0  0
   44.6510   35.0340   45.7730 N   0  0  0  0  0  0  0  0  0  0  0  0
   46.3070   33.2850   38.7070 C   0  0  0  0  0  0  0  0  0  0  0  0
   47.0340   33.2980   37.5420 C   0  0  0  0  0  0  0  0  0  0  0  0
   46.5790   32.6670   36.4040 C   0  0  0  0  0  0  0  0  0  0  0  0
   45.3750   31.9940   36.3740 C   0  0  0  0  0  0  0  0  0  0  0  0
   44.6320   31.9750   37.5470 C   0  0  0  0  0  0  0  0  0  0  0  0
   45.1060   32.6070   38.6570 C   0  0  0  0  0  0  0  0  0  0  0  0
   48.5262   35.8443   42.7433 H   0  0  0  0  0  0  0  0  0  0  0  0
   49.6979   35.6479   40.5884 H   0  0  0  0  0  0  0  0  0  0  0  0
   48.6071   34.4122   38.6860 H   0  0  0  0  0  0  0  0  0  0  0  0
   43.7549   36.8018   45.0410 H   0  0  0  0  0  0  0  0  0  0  0  0
   44.9956   36.6678   42.8867 H   0  0  0  0  0  0  0  0  0  0  0  0
   45.6614   33.2563   46.3088 H   0  0  0  0  0  0  0  0  0  0  0  0
   48.0002   33.8232   37.5164 H   0  0  0  0  0  0  0  0  0  0  0  0
   47.1942   32.7011   35.4927 H   0  0  0  0  0  0  0  0  0  0  0  0
   45.0192   31.4944   35.4609 H   0  0  0  0  0  0  0  0  0  0  0  0
   43.6649   31.4519   37.5798 H   0  0  0  0  0  0  0  0  0  0  0  0
   44.4934   32.5749   39.5701 H   0  0  0  0  0  0  0  0  0  0  0  0
  2  1  1  0
  2  3  2  0
  3 10  1  0
  4  3  1  0
  5  4  2  0
  6  7  2  0
  6  5  1  0
  7  2  1  0
  8 13  2  0
  9  8  1  0
 10  9  2  0
 10 11  1  0
 11 12  2  0
 12 13  1  0
 14  7  1  0
 15 14  2  0
 16 15  1  0
 17 16  2  0
 17 18  1  0
 18 19  2  0
 19 14  1  0
  4 20  1  0
  5 21  1  0
  6 22  1  0
  8 23  1  0
  9 24  1  0
 12 25  1  0
 15 26  1  0
 16 27  1  0
 17 28  1  0
 18 29  1  0
 19 30  1  0
M  ISO  8  20  14  21  14  22  14  23  14  24  14  25  14  26  14  27  14
M  ISO  3  28  14  29  14  30  14
M  END
>  <minimizedAffinity>  (1) 
-5.76288509

>  <minimizedRMSD>  (1) 
0.174716026

$$$$
