
     RDKit          3D

 30 32  0  0  0  0  0  0  0  0999 V2000
   44.8190   32.8940   41.1560 Br  0  0  0  0  0  0  0  0  0  0  0  0
   46.4510   33.8820   40.9460 C   0  0  0  0  0  0  0  0  0  0  0  0
   46.9300   34.7430   41.9120 C   0  0  0  0  0  0  0  0  0  0  0  0
   48.1090   35.4000   41.6590 C   0  0  0  0  0  0  0  0  0  0  0  0
   48.8260   35.2400   40.4900 C   0  0  0  0  0  0  0  0  0  0  0  0
   48.3550   34.3820   39.5160 C   0  0  0  0  0  0  0  0  0  0  0  0
   47.1750   33.7240   39.7740 C   0  0  0  0  0  0  0  0  0  0  0  0
   44.4800   36.0510   44.4900 C   0  0  0  0  0  0  0  0  0  0  0  0
   45.2290   35.9300   43.3080 C   0  0  0  0  0  0  0  0  0  0  0  0
   46.1400   34.8860   43.1390 C   0  0  0  0  0  0  0  0  0  0  0  0
   46.2520   34.0100   44.1730 N   0  0  0  0  0  0  0  0  0  0  0  0
   45.5260   34.1390   45.3010 C   0  0  0  0  0  0  0  0  0  0  0  0
   44.6570   35.1400   45.4570 N   0  0  0  0  0  0  0  0  0  0  0  0
   47.1240   34.5950   37.1900 F   0  0  0  0  0  0  0  0  0  0  0  0
   46.6760   33.3560   37.4790 C   0  0  0  0  0  0  0  0  0  0  0  0
   46.6510   32.8040   38.7500 C   0  0  0  0  0  0  0  0  0  0  0  0
   46.1800   31.5290   38.9870 C   0  0  0  0  0  0  0  0  0  0  0  0
   45.7160   30.7700   37.9320 C   0  0  0  0  0  0  0  0  0  0  0  0
   45.7240   31.2840   36.6490 C   0  0  0  0  0  0  0  0  0  0  0  0
   46.2020   32.5720   36.4310 C   0  0  0  0  0  0  0  0  0  0  0  0
   48.5008   36.0864   42.4241 H   0  0  0  0  0  0  0  0  0  0  0  0
   49.7651   35.7917   40.3358 H   0  0  0  0  0  0  0  0  0  0  0  0
   48.9008   34.2310   38.5730 H   0  0  0  0  0  0  0  0  0  0  0  0
   43.7636   36.8757   44.6193 H   0  0  0  0  0  0  0  0  0  0  0  0
   45.0958   36.6686   42.5038 H   0  0  0  0  0  0  0  0  0  0  0  0
   45.6522   33.4042   46.1098 H   0  0  0  0  0  0  0  0  0  0  0  0
   46.1744   31.1209   40.0085 H   0  0  0  0  0  0  0  0  0  0  0  0
   45.3386   29.7527   38.1127 H   0  0  0  0  0  0  0  0  0  0  0  0
   45.3554   30.6795   35.8072 H   0  0  0  0  0  0  0  0  0  0  0  0
   46.2055   32.9794   35.4092 H   0  0  0  0  0  0  0  0  0  0  0  0
  2  1  1  0
  2  3  2  0
  3 10  1  0
  4  3  1  0
  5  4  2  0
  6  7  2  0
  6  5  1  0
  7  2  1  0
  8 13  2  0
  9  8  1  0
 10  9  2  0
 10 11  1  0
 11 12  2  0
 12 13  1  0
 14 15  1  0
 15 16  2  0
 16 17  1  0
 16  7  1  0
 18 17  2  0
 19 18  1  0
 20 19  2  0
 20 15  1  0
  4 21  1  0
  5 22  1  0
  6 23  1  0
  8 24  1  0
  9 25  1  0
 12 26  1  0
 17 27  1  0
 18 28  1  0
 19 29  1  0
 20 30  1  0
M  ISO  8  21  14  22  14  23  14  24  14  25  14  26  14  27  14  28  14
M  ISO  2  29  14  30  14
M  END
>  <minimizedAffinity>  (1) 
-5.60227919

>  <minimizedRMSD>  (1) 
0.425850093

$$$$
