
     RDKit          3D

 33 35  0  0  0  0  0  0  0  0999 V2000
   44.6340   32.7990   41.3190 Br  0  0  0  0  0  0  0  0  0  0  0  0
   46.2470   33.7870   41.0240 C   0  0  0  0  0  0  0  0  0  0  0  0
   46.7750   34.6400   41.9610 C   0  0  0  0  0  0  0  0  0  0  0  0
   47.9460   35.3040   41.6410 C   0  0  0  0  0  0  0  0  0  0  0  0
   48.5950   35.1450   40.4330 C   0  0  0  0  0  0  0  0  0  0  0  0
   48.0550   34.2760   39.4820 C   0  0  0  0  0  0  0  0  0  0  0  0
   46.8780   33.6130   39.8140 C   0  0  0  0  0  0  0  0  0  0  0  0
   44.4860   35.9220   44.6870 C   0  0  0  0  0  0  0  0  0  0  0  0
   45.1580   35.7970   43.4770 C   0  0  0  0  0  0  0  0  0  0  0  0
   46.0670   34.7830   43.2180 C   0  0  0  0  0  0  0  0  0  0  0  0
   46.2560   33.9100   44.2520 N   0  0  0  0  0  0  0  0  0  0  0  0
   45.6030   34.0310   45.4270 C   0  0  0  0  0  0  0  0  0  0  0  0
   44.7360   35.0160   45.6430 N   0  0  0  0  0  0  0  0  0  0  0  0
   46.4160   32.7570   38.7790 N   0  0  0  0  0  0  0  0  0  0  0  0
   46.9340   31.4260   38.6000 C   0  0  0  0  0  0  0  0  0  0  0  0
   46.8340   30.9070   37.2060 C   0  0  0  0  0  0  0  0  0  0  0  0
   46.6090   31.9210   36.1430 C   0  0  0  0  0  0  0  0  0  0  0  0
   45.5670   32.9440   36.4640 C   0  0  0  0  0  0  0  0  0  0  0  0
   45.3940   33.2720   37.9000 C   0  0  0  0  0  0  0  0  0  0  0  0
   48.3798   35.9901   42.3833 H   0  0  0  0  0  0  0  0  0  0  0  0
   49.5242   35.6948   40.2223 H   0  0  0  0  0  0  0  0  0  0  0  0
   48.5419   34.1218   38.5077 H   0  0  0  0  0  0  0  0  0  0  0  0
   43.7702   36.7401   44.8553 H   0  0  0  0  0  0  0  0  0  0  0  0
   44.9593   36.5372   42.6880 H   0  0  0  0  0  0  0  0  0  0  0  0
   45.7924   33.2976   46.2247 H   0  0  0  0  0  0  0  0  0  0  0  0
   47.9949   31.4280   38.8908 H   0  0  0  0  0  0  0  0  0  0  0  0
   46.3182   30.7634   39.2259 H   0  0  0  0  0  0  0  0  0  0  0  0
   47.7725   30.3815   36.9754 H   0  0  0  0  0  0  0  0  0  0  0  0
   45.9409   30.2649   37.1942 H   0  0  0  0  0  0  0  0  0  0  0  0
   46.3014   31.3947   35.2274 H   0  0  0  0  0  0  0  0  0  0  0  0
   47.5566   32.4682   36.0310 H   0  0  0  0  0  0  0  0  0  0  0  0
   44.9636   33.4255   35.6804 H   0  0  0  0  0  0  0  0  0  0  0  0
   44.5455   33.8666   38.2694 H   0  0  0  0  0  0  0  0  0  0  0  0
  2  1  1  0
  2  3  2  0
  3 10  1  0
  4  3  1  0
  5  4  2  0
  6  7  2  0
  6  5  1  0
  7  2  1  0
  8 13  2  0
  9  8  1  0
 10  9  2  0
 10 11  1  0
 11 12  2  0
 12 13  1  0
 14  7  1  0
 15 14  1  0
 16 15  1  0
 17 18  1  0
 17 16  1  0
 18 19  2  0
 19 14  1  0
  4 20  1  0
  5 21  1  0
  6 22  1  0
  8 23  1  0
  9 24  1  0
 12 25  1  0
 15 26  1  0
 15 27  1  0
 16 28  1  0
 16 29  1  0
 17 30  1  0
 17 31  1  0
 18 32  1  0
 19 33  1  0
M  ISO  8  20  14  21  14  22  14  23  14  24  14  25  14  26  13  27  13
M  ISO  6  28  13  29  13  30  13  31  13  32  13  33  13
M  END
>  <minimizedAffinity>  (1) 
-5.43457699

>  <minimizedRMSD>  (1) 
0.479272246

$$$$
