
     RDKit          3D

 27 29  0  0  0  0  0  0  0  0999 V2000
   44.6240   33.0180   41.2270 Br  0  0  0  0  0  0  0  0  0  0  0  0
   46.2860   33.9500   41.0090 C   0  0  0  0  0  0  0  0  0  0  0  0
   46.8350   34.7410   42.0030 C   0  0  0  0  0  0  0  0  0  0  0  0
   48.0270   35.3600   41.7380 C   0  0  0  0  0  0  0  0  0  0  0  0
   48.7000   35.2360   40.5450 C   0  0  0  0  0  0  0  0  0  0  0  0
   48.1610   34.4480   39.5440 C   0  0  0  0  0  0  0  0  0  0  0  0
   46.9470   33.8150   39.8070 C   0  0  0  0  0  0  0  0  0  0  0  0
   44.4820   35.9480   44.7110 C   0  0  0  0  0  0  0  0  0  0  0  0
   45.1840   35.8630   43.5050 C   0  0  0  0  0  0  0  0  0  0  0  0
   46.0910   34.8490   43.2560 C   0  0  0  0  0  0  0  0  0  0  0  0
   46.2520   33.9450   44.2650 N   0  0  0  0  0  0  0  0  0  0  0  0
   45.5760   34.0300   45.4240 C   0  0  0  0  0  0  0  0  0  0  0  0
   44.7000   35.0190   45.6460 N   0  0  0  0  0  0  0  0  0  0  0  0
   46.3690   32.9780   38.7550 C   0  0  0  0  0  0  0  0  0  0  0  0
   46.6680   31.6780   38.4570 C   0  0  0  0  0  0  0  0  0  0  0  0
   45.8880   31.2920   37.3960 C   0  0  0  0  0  0  0  0  0  0  0  0
   45.1280   32.3780   37.0740 C   0  0  0  0  0  0  0  0  0  0  0  0
   45.4490   33.3380   37.9000 O   0  0  0  0  0  0  0  0  0  0  0  0
   48.4708   35.9910   42.5221 H   0  0  0  0  0  0  0  0  0  0  0  0
   49.6559   35.7574   40.3886 H   0  0  0  0  0  0  0  0  0  0  0  0
   48.6709   34.3255   38.5771 H   0  0  0  0  0  0  0  0  0  0  0  0
   43.7647   36.7633   44.8865 H   0  0  0  0  0  0  0  0  0  0  0  0
   45.0098   36.6252   42.7312 H   0  0  0  0  0  0  0  0  0  0  0  0
   45.7453   33.2735   46.2044 H   0  0  0  0  0  0  0  0  0  0  0  0
   47.4060   31.0500   38.9775 H   0  0  0  0  0  0  0  0  0  0  0  0
   45.8777   30.3076   36.9053 H   0  0  0  0  0  0  0  0  0  0  0  0
   44.3822   32.4350   36.2674 H   0  0  0  0  0  0  0  0  0  0  0  0
  2  1  1  0
  2  3  2  0
  3 10  1  0
  4  3  1  0
  5  4  2  0
  6  7  2  0
  6  5  1  0
  7  2  1  0
  8 13  2  0
  9  8  1  0
 10  9  2  0
 10 11  1  0
 11 12  2  0
 12 13  1  0
 14  7  1  0
 15 14  2  0
 16 15  1  0
 17 16  2  0
 17 18  1  0
 18 14  1  0
  4 19  1  0
  5 20  1  0
  6 21  1  0
  8 22  1  0
  9 23  1  0
 12 24  1  0
 15 25  1  0
 16 26  1  0
 17 27  1  0
M  ISO  8  19  14  20  14  21  14  22  14  23  14  24  14  25  14  26  14
M  ISO  1  27  14
M  END
>  <minimizedAffinity>  (1) 
-5.42287827

>  <minimizedRMSD>  (1) 
0.143513575

$$$$
