
     RDKit          3D

 33 35  0  0  0  0  0  0  0  0999 V2000
   44.5850   32.9450   41.2440 Br  0  0  0  0  0  0  0  0  0  0  0  0
   46.2340   33.8680   40.9750 C   0  0  0  0  0  0  0  0  0  0  0  0
   46.7890   34.6990   41.9380 C   0  0  0  0  0  0  0  0  0  0  0  0
   47.9840   35.3210   41.6470 C   0  0  0  0  0  0  0  0  0  0  0  0
   48.6440   35.1510   40.4440 C   0  0  0  0  0  0  0  0  0  0  0  0
   48.0990   34.3250   39.4780 C   0  0  0  0  0  0  0  0  0  0  0  0
   46.9060   33.7070   39.7730 C   0  0  0  0  0  0  0  0  0  0  0  0
   44.4940   36.0370   44.6290 C   0  0  0  0  0  0  0  0  0  0  0  0
   45.1870   35.9080   43.4130 C   0  0  0  0  0  0  0  0  0  0  0  0
   46.0650   34.8500   43.1860 C   0  0  0  0  0  0  0  0  0  0  0  0
   46.1860   33.9760   44.2180 N   0  0  0  0  0  0  0  0  0  0  0  0
   45.5250   34.1000   45.3800 C   0  0  0  0  0  0  0  0  0  0  0  0
   44.6870   35.1230   45.5790 N   0  0  0  0  0  0  0  0  0  0  0  0
   46.3960   32.8660   38.7290 N   0  0  0  0  0  0  0  0  0  0  0  0
   45.4330   33.2330   37.7300 C   0  0  0  0  0  0  0  0  0  0  0  0
   44.6210   32.0140   37.4100 C   0  0  0  0  0  0  0  0  0  0  0  0
   45.3290   30.9250   36.9880 O   0  0  0  0  0  0  0  0  0  0  0  0
   46.5990   30.7770   37.4660 C   0  0  0  0  0  0  0  0  0  0  0  0
   46.9310   31.5180   38.7170 C   0  0  0  0  0  0  0  0  0  0  0  0
   48.4319   35.9811   42.4044 H   0  0  0  0  0  0  0  0  0  0  0  0
   49.5960   35.6692   40.2566 H   0  0  0  0  0  0  0  0  0  0  0  0
   48.6000   34.1683   38.5113 H   0  0  0  0  0  0  0  0  0  0  0  0
   43.8043   36.8780   44.7935 H   0  0  0  0  0  0  0  0  0  0  0  0
   45.0330   36.6584   42.6236 H   0  0  0  0  0  0  0  0  0  0  0  0
   45.6739   33.3542   46.1747 H   0  0  0  0  0  0  0  0  0  0  0  0
   44.7784   34.0287   38.1151 H   0  0  0  0  0  0  0  0  0  0  0  0
   45.9379   33.6074   36.8273 H   0  0  0  0  0  0  0  0  0  0  0  0
   44.0693   31.7276   38.3175 H   0  0  0  0  0  0  0  0  0  0  0  0
   43.9748   32.2971   36.5660 H   0  0  0  0  0  0  0  0  0  0  0  0
   46.7604   29.7062   37.6593 H   0  0  0  0  0  0  0  0  0  0  0  0
   47.2526   31.2059   36.6921 H   0  0  0  0  0  0  0  0  0  0  0  0
   46.5149   30.9668   39.5732 H   0  0  0  0  0  0  0  0  0  0  0  0
   48.0267   31.5954   38.7759 H   0  0  0  0  0  0  0  0  0  0  0  0
  2  1  1  0
  2  3  2  0
  3 10  1  0
  4  3  1  0
  5  4  2  0
  6  7  2  0
  6  5  1  0
  7  2  1  0
  8 13  2  0
  9  8  1  0
 10  9  2  0
 10 11  1  0
 11 12  2  0
 12 13  1  0
 14  7  1  0
 15 14  1  0
 16 15  1  0
 17 16  1  0
 17 18  1  0
 18 19  1  0
 19 14  1  0
  4 20  1  0
  5 21  1  0
  6 22  1  0
  8 23  1  0
  9 24  1  0
 12 25  1  0
 15 26  1  0
 15 27  1  0
 16 28  1  0
 16 29  1  0
 18 30  1  0
 18 31  1  0
 19 32  1  0
 19 33  1  0
M  ISO  8  20  14  21  14  22  14  23  14  24  14  25  14  26  13  27  13
M  ISO  6  28  13  29  13  30  13  31  13  32  13  33  13
M  END
>  <minimizedAffinity>  (1) 
-5.3658576

>  <minimizedRMSD>  (1) 
0.332042992

$$$$
