
     RDKit          3D

 26 27  0  0  0  0  0  0  0  0999 V2000
   44.5680   33.1110   41.2130 Br  0  0  0  0  0  0  0  0  0  0  0  0
   46.2600   34.0040   41.0230 C   0  0  0  0  0  0  0  0  0  0  0  0
   46.8260   34.7600   42.0320 C   0  0  0  0  0  0  0  0  0  0  0  0
   48.0370   35.3530   41.7840 C   0  0  0  0  0  0  0  0  0  0  0  0
   48.7080   35.2300   40.5880 C   0  0  0  0  0  0  0  0  0  0  0  0
   48.1520   34.4760   39.5700 C   0  0  0  0  0  0  0  0  0  0  0  0
   46.9350   33.8810   39.8220 C   0  0  0  0  0  0  0  0  0  0  0  0
   44.4780   35.9660   44.7450 C   0  0  0  0  0  0  0  0  0  0  0  0
   45.1830   35.8890   43.5340 C   0  0  0  0  0  0  0  0  0  0  0  0
   46.0870   34.8670   43.2780 C   0  0  0  0  0  0  0  0  0  0  0  0
   46.2330   33.9550   44.2870 N   0  0  0  0  0  0  0  0  0  0  0  0
   45.5550   34.0330   45.4450 C   0  0  0  0  0  0  0  0  0  0  0  0
   44.6910   35.0190   45.6800 N   0  0  0  0  0  0  0  0  0  0  0  0
   46.3170   33.0560   38.7250 C   0  0  0  0  0  0  0  0  0  0  0  0
   46.9080   33.4230   37.3840 C   0  0  0  0  0  0  0  0  0  0  0  0
   48.4956   35.9574   42.5805 H   0  0  0  0  0  0  0  0  0  0  0  0
   49.6784   35.7273   40.4431 H   0  0  0  0  0  0  0  0  0  0  0  0
   48.6595   34.3567   38.6014 H   0  0  0  0  0  0  0  0  0  0  0  0
   43.7652   36.7837   44.9276 H   0  0  0  0  0  0  0  0  0  0  0  0
   45.0148   36.6592   42.7669 H   0  0  0  0  0  0  0  0  0  0  0  0
   45.7174   33.2653   46.2159 H   0  0  0  0  0  0  0  0  0  0  0  0
   46.5063   31.9908   38.9238 H   0  0  0  0  0  0  0  0  0  0  0  0
   45.2351   33.2530   38.7007 H   0  0  0  0  0  0  0  0  0  0  0  0
   47.8335   33.9977   37.5361 H   0  0  0  0  0  0  0  0  0  0  0  0
   47.1342   32.5063   36.8197 H   0  0  0  0  0  0  0  0  0  0  0  0
   46.1866   34.0323   36.8197 H   0  0  0  0  0  0  0  0  0  0  0  0
  2  1  1  0
  2  3  2  0
  3 10  1  0
  4  3  1  0
  5  4  2  0
  6  7  2  0
  6  5  1  0
  7  2  1  0
  8 13  2  0
  9  8  1  0
 10  9  2  0
 10 11  1  0
 11 12  2  0
 12 13  1  0
 14  7  1  0
 15 14  1  0
  4 16  1  0
  5 17  1  0
  6 18  1  0
  8 19  1  0
  9 20  1  0
 12 21  1  0
 14 22  1  0
 14 23  1  0
 15 24  1  0
 15 25  1  0
 15 26  1  0
M  ISO  8  16  14  17  14  18  14  19  14  20  14  21  14  22   8  23   8
M  ISO  3  24   8  25   8  26   8
M  END
>  <minimizedAffinity>  (1) 
-5.22451258

>  <minimizedRMSD>  (1) 
0.283329844

$$$$
