
     RDKit          3D

 22 23  0  0  0  0  0  0  0  0999 V2000
   44.5770   33.0930   41.2190 Br  0  0  0  0  0  0  0  0  0  0  0  0
   46.2560   33.9860   41.0200 C   0  0  0  0  0  0  0  0  0  0  0  0
   46.8120   34.7490   42.0260 C   0  0  0  0  0  0  0  0  0  0  0  0
   48.0370   35.3590   41.7810 C   0  0  0  0  0  0  0  0  0  0  0  0
   48.7060   35.2270   40.5810 C   0  0  0  0  0  0  0  0  0  0  0  0
   48.1530   34.4640   39.5670 C   0  0  0  0  0  0  0  0  0  0  0  0
   46.9420   33.8700   39.8290 C   0  0  0  0  0  0  0  0  0  0  0  0
   44.4750   35.9680   44.7460 C   0  0  0  0  0  0  0  0  0  0  0  0
   45.1730   35.8820   43.5350 C   0  0  0  0  0  0  0  0  0  0  0  0
   46.0750   34.8620   43.2730 C   0  0  0  0  0  0  0  0  0  0  0  0
   46.2250   33.9560   44.2820 N   0  0  0  0  0  0  0  0  0  0  0  0
   45.5540   34.0420   45.4410 C   0  0  0  0  0  0  0  0  0  0  0  0
   44.6930   35.0270   45.6770 N   0  0  0  0  0  0  0  0  0  0  0  0
   46.3510   33.0630   38.7680 C   0  0  0  0  0  0  0  0  0  0  0  0
   46.5310   33.3620   37.5510 O   0  0  0  0  0  0  0  0  0  0  0  0
   48.4908   35.9708   42.5746 H   0  0  0  0  0  0  0  0  0  0  0  0
   49.6747   35.7261   40.4310 H   0  0  0  0  0  0  0  0  0  0  0  0
   48.6587   34.3392   38.5981 H   0  0  0  0  0  0  0  0  0  0  0  0
   43.7648   36.7877   44.9295 H   0  0  0  0  0  0  0  0  0  0  0  0
   44.9999   36.6492   42.7660 H   0  0  0  0  0  0  0  0  0  0  0  0
   45.7206   33.2784   46.2150 H   0  0  0  0  0  0  0  0  0  0  0  0
   45.7420   32.1846   39.0279 H   0  0  0  0  0  0  0  0  0  0  0  0
  2  1  1  0
  2  3  2  0
  3 10  1  0
  4  3  1  0
  5  4  2  0
  6  7  2  0
  6  5  1  0
  7  2  1  0
  8 13  2  0
  9  8  1  0
 10  9  2  0
 10 11  1  0
 11 12  2  0
 12 13  1  0
 14  7  1  0
 15 14  2  0
  4 16  1  0
  5 17  1  0
  6 18  1  0
  8 19  1  0
  9 20  1  0
 12 21  1  0
 14 22  1  0
M  ISO  7  16  14  17  14  18  14  19  14  20  14  21  14  22   6
M  END
>  <minimizedAffinity>  (1) 
-5.15798664

>  <minimizedRMSD>  (1) 
0.542736948

$$$$
