
     RDKit          3D

 40 43  0  0  1  0  0  0  0  0999 V2000
   44.5990   33.0520   41.2190 Br  0  0  0  0  0  0  0  0  0  0  0  0
   46.2630   33.9690   41.0100 C   0  0  0  0  0  0  0  0  0  0  0  0
   46.8200   34.7530   42.0090 C   0  0  0  0  0  0  0  0  0  0  0  0
   48.0250   35.3730   41.7510 C   0  0  0  0  0  0  0  0  0  0  0  0
   48.6920   35.2430   40.5480 C   0  0  0  0  0  0  0  0  0  0  0  0
   48.1340   34.4530   39.5420 C   0  0  0  0  0  0  0  0  0  0  0  0
   46.9310   33.8460   39.8210 C   0  0  0  0  0  0  0  0  0  0  0  0
   44.4980   35.9080   44.7550 C   0  0  0  0  0  0  0  0  0  0  0  0
   45.1810   35.8570   43.5300 C   0  0  0  0  0  0  0  0  0  0  0  0
   46.0830   34.8570   43.2590 C   0  0  0  0  0  0  0  0  0  0  0  0
   46.2340   33.9600   44.2610 N   0  0  0  0  0  0  0  0  0  0  0  0
   45.5900   33.9970   45.4300 C   0  0  0  0  0  0  0  0  0  0  0  0
   44.7220   34.9720   45.6750 N   0  0  0  0  0  0  0  0  0  0  0  0
   46.3780   33.0270   38.7640 C   0  0  0  0  0  0  0  0  0  0  0  0
   45.2490   33.3330   38.2240 O   0  0  0  0  0  0  0  0  0  0  0  0
   47.0480   31.8340   38.2540 C   0  0  0  0  0  0  0  0  0  0  0  0
   46.9440   30.7060   39.0820 C   0  0  0  0  0  0  0  0  0  0  0  0
   47.5220   29.4890   38.7960 C   0  0  0  0  0  0  0  0  0  0  0  0
   48.2500   29.3380   37.6390 C   0  0  0  0  0  0  0  0  0  0  0  0
   48.3570   30.4430   36.8220 C   0  0  0  0  0  0  0  0  0  0  0  0
   49.0630   30.4060   35.6330 C   0  0  0  0  0  0  0  0  0  0  0  0
   49.1870   31.4990   34.7850 C   0  0  0  0  0  0  0  0  0  0  0  0
   48.5740   32.7080   35.1340 C   0  0  0  0  0  0  0  0  0  0  0  0
   47.8650   32.7780   36.3110 C   0  0  0  0  0  0  0  0  0  0  0  0
   47.7830   31.6650   37.0980 C   0  0  0  0  0  0  0  0  0  0  0  0
   48.4742   35.9979   42.5370 H   0  0  0  0  0  0  0  0  0  0  0  0
   49.6513   35.7560   40.3852 H   0  0  0  0  0  0  0  0  0  0  0  0
   48.6330   34.3216   38.5705 H   0  0  0  0  0  0  0  0  0  0  0  0
   43.7807   36.7178   44.9542 H   0  0  0  0  0  0  0  0  0  0  0  0
   44.9905   36.6320   42.7730 H   0  0  0  0  0  0  0  0  0  0  0  0
   45.7778   33.2223   46.1880 H   0  0  0  0  0  0  0  0  0  0  0  0
   46.9020   33.6393   38.0154 H   0  0  0  0  0  0  0  0  0  0  0  0
   44.5822   33.5137   38.9331 H   0  0  0  0  0  0  0  0  0  0  0  0
   46.3671   30.7991   40.0140 H   0  0  0  0  0  0  0  0  0  0  0  0
   47.4021   28.6430   39.4887 H   0  0  0  0  0  0  0  0  0  0  0  0
   48.7245   28.3806   37.3779 H   0  0  0  0  0  0  0  0  0  0  0  0
   49.5509   29.4633   35.3445 H   0  0  0  0  0  0  0  0  0  0  0  0
   49.7603   31.4155   33.8499 H   0  0  0  0  0  0  0  0  0  0  0  0
   48.6577   33.5873   34.4783 H   0  0  0  0  0  0  0  0  0  0  0  0
   47.3727   33.7142   36.6129 H   0  0  0  0  0  0  0  0  0  0  0  0
  2  1  1  0
  2  3  2  0
  3 10  1  0
  4  3  1  0
  5  4  2  0
  6  7  2  0
  6  5  1  0
  7  2  1  0
  8 13  2  0
  9  8  1  0
 10  9  2  0
 10 11  1  0
 11 12  2  0
 12 13  1  0
 14 15  1  0
 14  7  1  0
 16 14  1  0
 16 17  2  0
 18 17  1  0
 19 18  2  0
 20 25  2  0
 20 19  1  0
 21 20  1  0
 22 23  1  0
 22 21  2  0
 23 24  2  0
 24 25  1  0
 25 16  1  0
  4 26  1  0
  5 27  1  0
  6 28  1  0
  8 29  1  0
  9 30  1  0
 12 31  1  0
 14 32  1  0
 15 33  1  0
 17 34  1  0
 18 35  1  0
 19 36  1  0
 21 37  1  0
 22 38  1  0
 23 39  1  0
 24 40  1  0
M  ISO  8  26  14  27  14  28  14  29  14  30  14  31  14  32   8  33   3
M  ISO  7  34  14  35  14  36  14  37  14  38  14  39  14  40  14
M  END
>  <minimizedAffinity>  (1) 
-5.95536375

>  <minimizedRMSD>  (1) 
2.75693703

$$$$
