
     RDKit          3D

 35 37  0  0  0  0  0  0  0  0999 V2000
   44.5230   33.2750   41.1340 Br  0  0  0  0  0  0  0  0  0  0  0  0
   46.2340   34.0770   40.9780 C   0  0  0  0  0  0  0  0  0  0  0  0
   46.8080   34.8010   42.0060 C   0  0  0  0  0  0  0  0  0  0  0  0
   48.0570   35.3650   41.7960 C   0  0  0  0  0  0  0  0  0  0  0  0
   48.7420   35.2290   40.6040 C   0  0  0  0  0  0  0  0  0  0  0  0
   48.1700   34.5010   39.5710 C   0  0  0  0  0  0  0  0  0  0  0  0
   46.9280   33.9500   39.8050 C   0  0  0  0  0  0  0  0  0  0  0  0
   46.3810   33.1900   38.7140 C   0  0  0  0  0  0  0  0  0  0  0  0
   46.7970   33.3920   37.5010 O   0  0  0  0  0  0  0  0  0  0  0  0
   45.4260   32.1680   38.4900 N   0  0  0  0  0  0  0  0  0  0  0  0
   44.3210   32.9670   37.9340 C   0  0  0  0  0  0  0  0  0  0  0  0
   43.1340   32.0050   37.7870 C   0  0  0  0  0  0  0  0  0  0  0  0
   43.3810   30.9840   36.9010 O   0  0  0  0  0  0  0  0  0  0  0  0
   44.6120   30.3690   37.1480 C   0  0  0  0  0  0  0  0  0  0  0  0
   45.1030   30.7350   38.5590 C   0  0  0  0  0  0  0  0  0  0  0  0
   44.4910   35.9460   44.7590 C   0  0  0  0  0  0  0  0  0  0  0  0
   45.1720   35.9180   43.5280 C   0  0  0  0  0  0  0  0  0  0  0  0
   46.0590   34.9060   43.2590 C   0  0  0  0  0  0  0  0  0  0  0  0
   46.2140   33.9690   44.2500 N   0  0  0  0  0  0  0  0  0  0  0  0
   45.5580   34.0130   45.4120 C   0  0  0  0  0  0  0  0  0  0  0  0
   44.7040   34.9810   45.6800 N   0  0  0  0  0  0  0  0  0  0  0  0
   48.5202   35.9427   42.6094 H   0  0  0  0  0  0  0  0  0  0  0  0
   49.7309   35.6933   40.4754 H   0  0  0  0  0  0  0  0  0  0  0  0
   48.6846   34.3691   38.6078 H   0  0  0  0  0  0  0  0  0  0  0  0
   44.0634   33.7900   38.6169 H   0  0  0  0  0  0  0  0  0  0  0  0
   44.5960   33.4173   36.9688 H   0  0  0  0  0  0  0  0  0  0  0  0
   42.9112   31.5690   38.7720 H   0  0  0  0  0  0  0  0  0  0  0  0
   42.2852   32.5847   37.3951 H   0  0  0  0  0  0  0  0  0  0  0  0
   44.4966   29.2776   37.0731 H   0  0  0  0  0  0  0  0  0  0  0  0
   45.3467   30.7156   36.4063 H   0  0  0  0  0  0  0  0  0  0  0  0
   45.9965   30.1495   38.8214 H   0  0  0  0  0  0  0  0  0  0  0  0
   44.3473   30.5184   39.3285 H   0  0  0  0  0  0  0  0  0  0  0  0
   43.7810   36.7585   44.9726 H   0  0  0  0  0  0  0  0  0  0  0  0
   44.9936   36.7065   42.7820 H   0  0  0  0  0  0  0  0  0  0  0  0
   45.7335   33.2262   46.1604 H   0  0  0  0  0  0  0  0  0  0  0  0
  2  1  1  0
  2  3  2  0
  3 18  1  0
  4  3  1  0
  5  4  2  0
  6  7  2  0
  6  5  1  0
  7  2  1  0
  8  7  1  0
  9  8  2  0
 10 15  1  0
 10  8  1  0
 11 10  1  0
 12 11  1  0
 13 14  1  0
 13 12  1  0
 14 15  1  0
 16 21  2  0
 17 16  1  0
 18 17  2  0
 18 19  1  0
 19 20  2  0
 20 21  1  0
  4 22  1  0
  5 23  1  0
  6 24  1  0
 11 25  1  0
 11 26  1  0
 12 27  1  0
 12 28  1  0
 14 29  1  0
 14 30  1  0
 15 31  1  0
 15 32  1  0
 16 33  1  0
 17 34  1  0
 20 35  1  0
M  ISO  8  22  14  23  14  24  14  25  13  26  13  27  13  28  13  29  13
M  ISO  6  30  13  31  13  32  13  33  14  34  14  35  14
M  END
>  <minimizedAffinity>  (1) 
-5.85135889

>  <minimizedRMSD>  (1) 
0.483549148

$$$$
