
     RDKit          3D

 34 36  0  0  0  0  0  0  0  0999 V2000
   44.5670   33.2260   41.1080 Br  0  0  0  0  0  0  0  0  0  0  0  0
   46.2730   34.0460   40.9610 C   0  0  0  0  0  0  0  0  0  0  0  0
   46.8300   34.7890   41.9760 C   0  0  0  0  0  0  0  0  0  0  0  0
   48.0710   35.3690   41.7620 C   0  0  0  0  0  0  0  0  0  0  0  0
   48.7650   35.2300   40.5800 C   0  0  0  0  0  0  0  0  0  0  0  0
   48.2070   34.4760   39.5460 C   0  0  0  0  0  0  0  0  0  0  0  0
   46.9690   33.9110   39.7900 C   0  0  0  0  0  0  0  0  0  0  0  0
   44.4860   35.9720   44.7020 C   0  0  0  0  0  0  0  0  0  0  0  0
   45.1860   35.9150   43.4820 C   0  0  0  0  0  0  0  0  0  0  0  0
   46.0750   34.9030   43.2190 C   0  0  0  0  0  0  0  0  0  0  0  0
   46.2100   33.9810   44.2290 N   0  0  0  0  0  0  0  0  0  0  0  0
   45.5440   34.0420   45.3800 C   0  0  0  0  0  0  0  0  0  0  0  0
   44.6900   35.0200   45.6240 N   0  0  0  0  0  0  0  0  0  0  0  0
   46.4440   33.1120   38.7070 C   0  0  0  0  0  0  0  0  0  0  0  0
   46.5010   33.5300   37.4900 O   0  0  0  0  0  0  0  0  0  0  0  0
   45.8060   31.8520   38.5520 N   0  0  0  0  0  0  0  0  0  0  0  0
   44.4760   31.8370   37.9770 C   0  0  0  0  0  0  0  0  0  0  0  0
   44.5000   30.8900   36.7980 C   0  0  0  0  0  0  0  0  0  0  0  0
   45.5090   29.8740   37.2640 C   0  0  0  0  0  0  0  0  0  0  0  0
   45.8000   30.3880   38.6820 C   0  0  0  0  0  0  0  0  0  0  0  0
   48.5203   35.9652   42.5699 H   0  0  0  0  0  0  0  0  0  0  0  0
   49.7476   35.7077   40.4524 H   0  0  0  0  0  0  0  0  0  0  0  0
   48.7260   34.3384   38.5859 H   0  0  0  0  0  0  0  0  0  0  0  0
   43.7776   36.7906   44.8973 H   0  0  0  0  0  0  0  0  0  0  0  0
   45.0174   36.6958   42.7257 H   0  0  0  0  0  0  0  0  0  0  0  0
   45.7075   33.2647   46.1410 H   0  0  0  0  0  0  0  0  0  0  0  0
   43.7480   31.4880   38.7241 H   0  0  0  0  0  0  0  0  0  0  0  0
   44.1817   32.8471   37.6561 H   0  0  0  0  0  0  0  0  0  0  0  0
   44.8319   31.3968   35.8798 H   0  0  0  0  0  0  0  0  0  0  0  0
   43.5187   30.4669   36.5369 H   0  0  0  0  0  0  0  0  0  0  0  0
   45.0843   28.8594   37.2802 H   0  0  0  0  0  0  0  0  0  0  0  0
   46.3966   29.7849   36.6204 H   0  0  0  0  0  0  0  0  0  0  0  0
   46.7772   30.0254   39.0335 H   0  0  0  0  0  0  0  0  0  0  0  0
   45.0570   30.0373   39.4134 H   0  0  0  0  0  0  0  0  0  0  0  0
  2  1  1  0
  2  3  2  0
  3 10  1  0
  4  3  1  0
  5  4  2  0
  6  7  2  0
  6  5  1  0
  7  2  1  0
  8 13  2  0
  9  8  1  0
 10  9  2  0
 10 11  1  0
 11 12  2  0
 12 13  1  0
 14  7  1  0
 15 14  2  0
 16 20  1  0
 16 14  1  0
 17 16  1  0
 18 19  1  0
 18 17  1  0
 19 20  1  0
  4 21  1  0
  5 22  1  0
  6 23  1  0
  8 24  1  0
  9 25  1  0
 12 26  1  0
 17 27  1  0
 17 28  1  0
 18 29  1  0
 18 30  1  0
 19 31  1  0
 19 32  1  0
 20 33  1  0
 20 34  1  0
M  ISO  8  21  14  22  14  23  14  24  14  25  14  26  14  27  13  28  13
M  ISO  6  29  13  30  13  31  13  32  13  33  13  34  13
M  END
>  <minimizedAffinity>  (1) 
-5.5860405

>  <minimizedRMSD>  (1) 
0.119660005

$$$$
