
     RDKit          3D

 32 34  0  0  1  0  0  0  0  0999 V2000
   44.6500   33.0320   41.2030 Br  0  0  0  0  0  0  0  0  0  0  0  0
   46.3040   33.9490   41.0080 C   0  0  0  0  0  0  0  0  0  0  0  0
   46.8410   34.7560   42.0020 C   0  0  0  0  0  0  0  0  0  0  0  0
   48.0380   35.3990   41.7460 C   0  0  0  0  0  0  0  0  0  0  0  0
   48.7160   35.2740   40.5510 C   0  0  0  0  0  0  0  0  0  0  0  0
   48.1770   34.4610   39.5490 C   0  0  0  0  0  0  0  0  0  0  0  0
   46.9750   33.8200   39.8220 C   0  0  0  0  0  0  0  0  0  0  0  0
   44.4970   35.9120   44.7310 C   0  0  0  0  0  0  0  0  0  0  0  0
   45.1970   35.8490   43.5140 C   0  0  0  0  0  0  0  0  0  0  0  0
   46.1030   34.8500   43.2470 C   0  0  0  0  0  0  0  0  0  0  0  0
   46.2380   33.9630   44.2600 N   0  0  0  0  0  0  0  0  0  0  0  0
   45.5870   34.0030   45.4200 C   0  0  0  0  0  0  0  0  0  0  0  0
   44.7230   34.9730   45.6470 N   0  0  0  0  0  0  0  0  0  0  0  0
   46.4990   32.9720   38.7710 C   0  0  0  0  0  0  0  0  0  0  0  0
   45.5200   33.3640   38.0030 O   0  0  0  0  0  0  0  0  0  0  0  0
   46.9660   31.6390   38.3820 C   0  0  0  0  0  0  0  0  0  0  0  0
   46.6070   31.1300   37.1540 C   0  0  0  0  0  0  0  0  0  0  0  0
   47.0290   29.8750   36.6950 C   0  0  0  0  0  0  0  0  0  0  0  0
   47.8220   29.1150   37.4690 N   0  0  0  0  0  0  0  0  0  0  0  0
   48.1770   29.6040   38.6690 C   0  0  0  0  0  0  0  0  0  0  0  0
   47.7530   30.8040   39.0710 N   0  0  0  0  0  0  0  0  0  0  0  0
   48.4690   36.0388   42.5302 H   0  0  0  0  0  0  0  0  0  0  0  0
   49.6654   35.8054   40.3890 H   0  0  0  0  0  0  0  0  0  0  0  0
   48.6852   34.3339   38.5818 H   0  0  0  0  0  0  0  0  0  0  0  0
   43.7768   36.7210   44.9228 H   0  0  0  0  0  0  0  0  0  0  0  0
   45.0146   36.6217   42.7527 H   0  0  0  0  0  0  0  0  0  0  0  0
   45.7683   33.2325   46.1839 H   0  0  0  0  0  0  0  0  0  0  0  0
   47.2237   33.4242   38.0779 H   0  0  0  0  0  0  0  0  0  0  0  0
   44.7623   33.6674   38.5632 H   0  0  0  0  0  0  0  0  0  0  0  0
   45.9594   31.7362   36.5035 H   0  0  0  0  0  0  0  0  0  0  0  0
   46.7125   29.5136   35.7054 H   0  0  0  0  0  0  0  0  0  0  0  0
   48.8251   29.0080   39.3283 H   0  0  0  0  0  0  0  0  0  0  0  0
  2  1  1  0
  2  3  2  0
  3 10  1  0
  4  3  1  0
  5  4  2  0
  6  7  2  0
  6  5  1  0
  7  2  1  0
  8 13  2  0
  9  8  1  0
 10  9  2  0
 10 11  1  0
 11 12  2  0
 12 13  1  0
 14 15  1  0
 14  7  1  0
 16 14  1  0
 16 21  1  0
 17 16  2  0
 18 17  1  0
 18 19  2  0
 19 20  1  0
 20 21  2  0
  4 22  1  0
  5 23  1  0
  6 24  1  0
  8 25  1  0
  9 26  1  0
 12 27  1  0
 14 28  1  0
 15 29  1  0
 17 30  1  0
 18 31  1  0
 20 32  1  0
M  ISO  8  22  14  23  14  24  14  25  14  26  14  27  14  28   8  29   3
M  ISO  3  30  14  31  14  32  14
M  END
>  <minimizedAffinity>  (1) 
-5.19689846

>  <minimizedRMSD>  (1) 
1.37595534

$$$$
