
     RDKit          3D

 31 33  0  0  1  0  0  0  0  0999 V2000
   44.6320   33.0880   41.1690 Br  0  0  0  0  0  0  0  0  0  0  0  0
   46.3000   33.9810   40.9950 C   0  0  0  0  0  0  0  0  0  0  0  0
   46.8220   34.7600   41.9930 C   0  0  0  0  0  0  0  0  0  0  0  0
   48.0460   35.3990   41.7560 C   0  0  0  0  0  0  0  0  0  0  0  0
   48.7310   35.2690   40.5680 C   0  0  0  0  0  0  0  0  0  0  0  0
   48.1950   34.4750   39.5580 C   0  0  0  0  0  0  0  0  0  0  0  0
   47.0050   33.8700   39.8260 C   0  0  0  0  0  0  0  0  0  0  0  0
   44.4930   35.9330   44.7180 C   0  0  0  0  0  0  0  0  0  0  0  0
   45.1880   35.8700   43.4950 C   0  0  0  0  0  0  0  0  0  0  0  0
   46.0840   34.8610   43.2400 C   0  0  0  0  0  0  0  0  0  0  0  0
   46.2310   33.9540   44.2520 N   0  0  0  0  0  0  0  0  0  0  0  0
   45.5690   34.0180   45.4110 C   0  0  0  0  0  0  0  0  0  0  0  0
   44.7130   34.9950   45.6390 N   0  0  0  0  0  0  0  0  0  0  0  0
   46.5510   32.9840   38.7890 C   0  0  0  0  0  0  0  0  0  0  0  0
   45.6830   33.3660   37.9110 O   0  0  0  0  0  0  0  0  0  0  0  0
   46.9770   31.5810   38.5640 C   0  0  0  0  0  0  0  0  0  0  0  0
   47.3440   30.7340   39.5600 C   0  0  0  0  0  0  0  0  0  0  0  0
   47.6600   29.5180   39.0400 N   0  0  0  0  0  0  0  0  0  0  0  0
   47.4920   29.5890   37.7130 C   0  0  0  0  0  0  0  0  0  0  0  0
   47.0890   30.8190   37.4600 N   0  0  0  0  0  0  0  0  0  0  0  0
   48.4764   36.0285   42.5488 H   0  0  0  0  0  0  0  0  0  0  0  0
   49.6902   35.7865   40.4192 H   0  0  0  0  0  0  0  0  0  0  0  0
   48.7065   34.3431   38.5931 H   0  0  0  0  0  0  0  0  0  0  0  0
   43.7776   36.7460   44.9109 H   0  0  0  0  0  0  0  0  0  0  0  0
   45.0103   36.6416   42.7314 H   0  0  0  0  0  0  0  0  0  0  0  0
   45.7392   33.2504   46.1803 H   0  0  0  0  0  0  0  0  0  0  0  0
   47.3648   33.3316   38.1357 H   0  0  0  0  0  0  0  0  0  0  0  0
   44.8810   33.7190   38.3717 H   0  0  0  0  0  0  0  0  0  0  0  0
   47.3802   30.9931   40.6284 H   0  0  0  0  0  0  0  0  0  0  0  0
   47.9720   28.6920   39.5704 H   0  0  0  0  0  0  0  0  0  0  0  0
   47.6569   28.7839   36.9818 H   0  0  0  0  0  0  0  0  0  0  0  0
  2  1  1  0
  2  3  2  0
  3 10  1  0
  4  3  1  0
  5  4  2  0
  6  7  2  0
  6  5  1  0
  7  2  1  0
  8 13  2  0
  9  8  1  0
 10  9  2  0
 10 11  1  0
 11 12  2  0
 12 13  1  0
 14 15  1  0
 14  7  1  0
 16 14  1  0
 16 17  2  0
 18 17  1  0
 19 18  1  0
 20 19  2  0
 20 16  1  0
  4 21  1  0
  5 22  1  0
  6 23  1  0
  8 24  1  0
  9 25  1  0
 12 26  1  0
 14 27  1  0
 15 28  1  0
 17 29  1  0
 18 30  1  0
 19 31  1  0
M  ISO  8  21  14  22  14  23  14  24  14  25  14  26  14  27   8  28   3
M  ISO  3  29  14  30   9  31  14
M  END
>  <minimizedAffinity>  (1) 
-5.11321402

>  <minimizedRMSD>  (1) 
1.05936873

$$$$
