
     RDKit          3D

 24 25  0  0  0  0  0  0  0  0999 V2000
   44.6720   32.9150   41.2920 Br  0  0  0  0  0  0  0  0  0  0  0  0
   46.2940   33.8810   41.0430 C   0  0  0  0  0  0  0  0  0  0  0  0
   46.8200   34.7150   42.0200 C   0  0  0  0  0  0  0  0  0  0  0  0
   48.0070   35.3750   41.7430 C   0  0  0  0  0  0  0  0  0  0  0  0
   48.6780   35.2370   40.5450 C   0  0  0  0  0  0  0  0  0  0  0  0
   48.1560   34.4030   39.5640 C   0  0  0  0  0  0  0  0  0  0  0  0
   46.9820   33.7610   39.8600 C   0  0  0  0  0  0  0  0  0  0  0  0
   44.4750   35.9520   44.7220 C   0  0  0  0  0  0  0  0  0  0  0  0
   45.1740   35.8540   43.5130 C   0  0  0  0  0  0  0  0  0  0  0  0
   46.0900   34.8350   43.2590 C   0  0  0  0  0  0  0  0  0  0  0  0
   46.2480   33.9430   44.2900 N   0  0  0  0  0  0  0  0  0  0  0  0
   45.5680   34.0520   45.4470 C   0  0  0  0  0  0  0  0  0  0  0  0
   44.7050   35.0280   45.6600 N   0  0  0  0  0  0  0  0  0  0  0  0
   46.4330   32.8870   38.8330 C   0  0  0  0  0  0  0  0  0  0  0  0
   45.5820   33.3040   37.9930 O   0  0  0  0  0  0  0  0  0  0  0  0
   46.8360   31.5110   38.7280 N   0  0  0  0  0  0  0  0  0  0  0  0
   48.4325   36.0374   42.5113 H   0  0  0  0  0  0  0  0  0  0  0  0
   49.6170   35.7820   40.3685 H   0  0  0  0  0  0  0  0  0  0  0  0
   48.6607   34.2647   38.5964 H   0  0  0  0  0  0  0  0  0  0  0  0
   43.7565   36.7667   44.8952 H   0  0  0  0  0  0  0  0  0  0  0  0
   44.9934   36.6097   42.7343 H   0  0  0  0  0  0  0  0  0  0  0  0
   45.7365   33.3061   46.2377 H   0  0  0  0  0  0  0  0  0  0  0  0
   46.4341   30.9113   37.9933 H   0  0  0  0  0  0  0  0  0  0  0  0
   47.5266   31.1249   39.3875 H   0  0  0  0  0  0  0  0  0  0  0  0
  2  1  1  0
  2  3  2  0
  3 10  1  0
  4  3  1  0
  5  4  2  0
  6  7  2  0
  6  5  1  0
  7  2  1  0
  8 13  2  0
  9  8  1  0
 10  9  2  0
 10 11  1  0
 11 12  2  0
 12 13  1  0
 14  7  1  0
 15 14  2  0
 16 14  1  0
  4 17  1  0
  5 18  1  0
  6 19  1  0
  8 20  1  0
  9 21  1  0
 12 22  1  0
 16 23  1  0
 16 24  1  0
M  ISO  6  17  14  18  14  19  14  20  14  21  14  22  14
M  END
>  <minimizedAffinity>  (1) 
-5.11189795

>  <minimizedRMSD>  (1) 
0.439628512

$$$$
