
     RDKit          3D

 31 33  0  0  1  0  0  0  0  0999 V2000
   46.0400   33.0330   45.1150 C   0  0  0  0  0  0  0  0  0  0  0  0
   46.8710   31.9650   44.8390 C   0  0  0  0  0  0  0  0  0  0  0  0
   47.3650   31.5040   46.0180 C   0  0  0  0  0  0  0  0  0  0  0  0
   46.8420   32.2770   46.9960 N   0  0  0  0  0  0  0  0  0  0  0  0
   46.0460   33.1940   46.4360 N   0  0  0  0  0  0  0  0  0  0  0  0
   44.4520   35.8680   43.3840 C   0  0  0  0  0  0  0  0  0  0  0  0
   43.8950   35.2610   42.2410 C   0  0  0  0  0  0  0  0  0  0  0  0
   44.0790   33.8770   42.0870 C   0  0  0  0  0  0  0  0  0  0  0  0
   44.7770   33.2160   43.0440 N   0  0  0  0  0  0  0  0  0  0  0  0
   45.3010   33.8270   44.1320 C   0  0  0  0  0  0  0  0  0  0  0  0
   45.1390   35.1530   44.3050 N   0  0  0  0  0  0  0  0  0  0  0  0
   45.9040   32.5110   49.1850 N   0  0  0  0  0  0  0  0  0  0  0  0
   47.0470   32.2040   48.4170 C   0  0  1  0  0  0  0  0  0  0  0  0
   47.4800   30.7820   48.7140 C   0  0  0  0  0  0  0  0  0  0  0  0
   46.3910   29.9420   48.2310 N   0  0  0  0  0  0  0  0  0  0  0  0
   45.1880   30.1350   48.9990 C   0  0  0  0  0  0  0  0  0  0  0  0
   44.8820   31.5540   49.3220 C   0  0  0  0  0  0  0  0  0  0  0  0
   47.0937   31.5592   43.8411 H   0  0  0  0  0  0  0  0  0  0  0  0
   48.0592   30.6612   46.1514 H   0  0  0  0  0  0  0  0  0  0  0  0
   44.3252   36.9507   43.5315 H   0  0  0  0  0  0  0  0  0  0  0  0
   43.3371   35.8488   41.4972 H   0  0  0  0  0  0  0  0  0  0  0  0
   43.6691   33.3448   41.2159 H   0  0  0  0  0  0  0  0  0  0  0  0
   45.4760   33.3476   48.7633 H   0  0  0  0  0  0  0  0  0  0  0  0
   47.7978   32.9578   48.6964 H   0  0  0  0  0  0  0  0  0  0  0  0
   48.4143   30.5447   48.1842 H   0  0  0  0  0  0  0  0  0  0  0  0
   47.6747   30.6269   49.7855 H   0  0  0  0  0  0  0  0  0  0  0  0
   46.1997   30.1769   47.2465 H   0  0  0  0  0  0  0  0  0  0  0  0
   44.3445   29.7240   48.4249 H   0  0  0  0  0  0  0  0  0  0  0  0
   45.3454   29.6230   49.9598 H   0  0  0  0  0  0  0  0  0  0  0  0
   44.5485   31.5834   50.3698 H   0  0  0  0  0  0  0  0  0  0  0  0
   44.1375   31.8465   48.5669 H   0  0  0  0  0  0  0  0  0  0  0  0
  1  5  2  0
  2  1  1  0
  2  3  2  0
  3  4  1  0
  5  4  1  0
  6 11  2  0
  7  6  1  0
  8  7  2  0
  8  9  1  0
  9 10  2  0
 10 11  1  0
 10  1  1  0
 12 17  1  0
 13  4  1  0
 13 14  1  0
 13 12  1  0
 15 14  1  0
 15 16  1  0
 16 17  1  0
  2 18  1  0
  3 19  1  0
  6 20  1  0
  7 21  1  0
  8 22  1  0
 12 23  1  0
 13 24  1  1
 14 25  1  0
 14 26  1  0
 15 27  1  0
 16 28  1  0
 16 29  1  0
 17 30  1  0
 17 31  1  0
M  ISO  8  18  14  19  14  20  14  21  14  22  14  23   5  24  13  25  13
M  ISO  6  26  13  27   5  28  13  29  13  30  13  31  13
M  END
>  <minimizedAffinity>  (1) 
-4.90712547

>  <minimizedRMSD>  (1) 
2.08864594

$$$$
