
     RDKit          3D

 41 44  0  0  1  0  0  0  0  0999 V2000
   46.0370   33.7340   44.8830 N   0  0  0  0  0  0  0  0  0  0  0  0
   46.5300   34.4020   43.7330 C   0  0  1  0  0  0  0  0  0  0  0  0
   47.8230   33.7340   43.2970 C   0  0  0  0  0  0  0  0  0  0  0  0
   47.4290   32.3950   42.8720 N   0  0  0  0  0  0  0  0  0  0  0  0
   46.9670   31.6010   43.9840 C   0  0  0  0  0  0  0  0  0  0  0  0
   46.0550   32.3350   44.9160 C   0  0  1  0  0  0  0  0  0  0  0  0
   44.8980   30.0180   45.8210 F   0  0  0  0  0  0  0  0  0  0  0  0
   45.6280   30.6700   46.7580 C   0  0  0  0  0  0  0  0  0  0  0  0
   46.2240   31.8530   46.3110 C   0  0  0  0  0  0  0  0  0  0  0  0
   46.9870   32.5670   47.2270 C   0  0  0  0  0  0  0  0  0  0  0  0
   47.1030   32.0580   48.5170 C   0  0  0  0  0  0  0  0  0  0  0  0
   46.5010   30.8860   48.9270 C   0  0  0  0  0  0  0  0  0  0  0  0
   45.7420   30.1650   48.0320 C   0  0  0  0  0  0  0  0  0  0  0  0
   43.7590   34.4100   41.5310 C   0  0  0  0  0  0  0  0  0  0  0  0
   44.7830   34.3080   40.6100 C   0  0  0  0  0  0  0  0  0  0  0  0
   45.9550   34.2910   41.2970 C   0  0  0  0  0  0  0  0  0  0  0  0
   45.6500   34.3790   42.6010 N   0  0  0  0  0  0  0  0  0  0  0  0
   44.3160   34.4510   42.7280 N   0  0  0  0  0  0  0  0  0  0  0  0
   40.3820   35.6850   40.7920 C   0  0  0  0  0  0  0  0  0  0  0  0
   39.6410   34.5100   40.6250 C   0  0  0  0  0  0  0  0  0  0  0  0
   40.3150   33.2760   40.7690 C   0  0  0  0  0  0  0  0  0  0  0  0
   41.6300   33.3230   41.0580 N   0  0  0  0  0  0  0  0  0  0  0  0
   42.3280   34.4620   41.2160 C   0  0  0  0  0  0  0  0  0  0  0  0
   41.7000   35.6550   41.0820 N   0  0  0  0  0  0  0  0  0  0  0  0
   45.0567   34.0260   45.0044 H   0  0  0  0  0  0  0  0  0  0  0  0
   46.6549   35.4526   44.0341 H   0  0  0  0  0  0  0  0  0  0  0  0
   48.2814   34.2855   42.4630 H   0  0  0  0  0  0  0  0  0  0  0  0
   48.5692   33.7093   44.1048 H   0  0  0  0  0  0  0  0  0  0  0  0
   46.6709   32.4735   42.1792 H   0  0  0  0  0  0  0  0  0  0  0  0
   46.4270   30.7291   43.5863 H   0  0  0  0  0  0  0  0  0  0  0  0
   47.8568   31.3177   44.5654 H   0  0  0  0  0  0  0  0  0  0  0  0
   45.0661   32.0779   44.5086 H   0  0  0  0  0  0  0  0  0  0  0  0
   47.4841   33.5057   46.9412 H   0  0  0  0  0  0  0  0  0  0  0  0
   47.7053   32.6185   49.2471 H   0  0  0  0  0  0  0  0  0  0  0  0
   46.6263   30.5304   49.9604 H   0  0  0  0  0  0  0  0  0  0  0  0
   45.2485   29.2261   48.3236 H   0  0  0  0  0  0  0  0  0  0  0  0
   44.6701   34.2508   39.5173 H   0  0  0  0  0  0  0  0  0  0  0  0
   46.9643   34.2187   40.8655 H   0  0  0  0  0  0  0  0  0  0  0  0
   39.8783   36.6569   40.6843 H   0  0  0  0  0  0  0  0  0  0  0  0
   38.5672   34.5455   40.3890 H   0  0  0  0  0  0  0  0  0  0  0  0
   39.7881   32.3178   40.6501 H   0  0  0  0  0  0  0  0  0  0  0  0
  1  6  1  0
  2  1  1  0
  3  2  1  0
  4  3  1  0
  4  5  1  0
  5  6  1  0
  6  9  1  0
  7  8  1  0
  8 13  2  0
  9  8  1  0
  9 10  2  0
 10 11  1  0
 11 12  2  0
 13 12  1  0
 14 18  2  0
 15 16  2  0
 15 14  1  0
 16 17  1  0
 17 18  1  0
 17  2  1  0
 19 24  2  0
 20 21  2  0
 20 19  1  0
 21 22  1  0
 22 23  2  0
 23 14  1  0
 24 23  1  0
  1 25  1  0
  2 26  1  1
  3 27  1  0
  3 28  1  0
  4 29  1  0
  5 30  1  0
  5 31  1  0
  6 32  1  6
 10 33  1  0
 11 34  1  0
 12 35  1  0
 13 36  1  0
 15 37  1  0
 16 38  1  0
 19 39  1  0
 20 40  1  0
 21 41  1  0
M  ISO  8  25   5  26  13  27  13  28  13  29   5  30  13  31  13  32  13
M  ISO  8  33  14  34  14  35  14  36  14  37  14  38  14  39  14  40  14
M  ISO  1  41  14
M  END
>  <minimizedAffinity>  (1) 
-5.87686491

>  <minimizedRMSD>  (1) 
5.09895277

$$$$
