
     RDKit          3D

 38 41  0  0  1  0  0  0  0  0999 V2000
   45.6690   34.3700   44.7260 N   0  0  0  0  0  0  0  0  0  0  0  0
   46.1640   34.8620   43.4910 C   0  0  1  0  0  0  0  0  0  0  0  0
   47.4710   34.1550   43.1800 C   0  0  0  0  0  0  0  0  0  0  0  0
   47.1160   32.7630   42.9670 N   0  0  0  0  0  0  0  0  0  0  0  0
   46.6690   32.1520   44.1990 C   0  0  0  0  0  0  0  0  0  0  0  0
   45.7330   32.9790   44.9900 C   0  0  1  0  0  0  0  0  0  0  0  0
   45.9430   32.8020   46.4600 C   0  0  0  0  0  0  0  0  0  0  0  0
   45.0760   33.2350   47.4440 C   0  0  0  0  0  0  0  0  0  0  0  0
   45.6510   32.8720   48.6170 N   0  0  0  0  0  0  0  0  0  0  0  0
   46.8120   32.2470   48.3750 C   0  0  0  0  0  0  0  0  0  0  0  0
   47.0190   32.1900   47.0360 N   0  0  0  0  0  0  0  0  0  0  0  0
   43.4080   34.4520   41.2810 C   0  0  0  0  0  0  0  0  0  0  0  0
   44.4420   34.1840   40.4160 C   0  0  0  0  0  0  0  0  0  0  0  0
   45.6120   34.2960   41.1020 C   0  0  0  0  0  0  0  0  0  0  0  0
   45.2890   34.6290   42.3760 N   0  0  0  0  0  0  0  0  0  0  0  0
   43.9600   34.7180   42.4600 N   0  0  0  0  0  0  0  0  0  0  0  0
   40.1080   35.4510   40.0000 C   0  0  0  0  0  0  0  0  0  0  0  0
   39.2860   34.3810   40.3660 C   0  0  0  0  0  0  0  0  0  0  0  0
   39.8940   33.3250   41.0560 C   0  0  0  0  0  0  0  0  0  0  0  0
   41.2200   33.4000   41.3230 N   0  0  0  0  0  0  0  0  0  0  0  0
   41.9870   34.4450   40.9570 C   0  0  0  0  0  0  0  0  0  0  0  0
   41.4210   35.4680   40.2940 N   0  0  0  0  0  0  0  0  0  0  0  0
   44.6772   34.6421   44.7829 H   0  0  0  0  0  0  0  0  0  0  0  0
   46.2725   35.9497   43.6143 H   0  0  0  0  0  0  0  0  0  0  0  0
   47.9311   34.5776   42.2746 H   0  0  0  0  0  0  0  0  0  0  0  0
   48.2020   34.2706   43.9938 H   0  0  0  0  0  0  0  0  0  0  0  0
   46.3593   32.7104   42.2702 H   0  0  0  0  0  0  0  0  0  0  0  0
   46.1655   31.2061   43.9503 H   0  0  0  0  0  0  0  0  0  0  0  0
   47.5651   32.0121   44.8215 H   0  0  0  0  0  0  0  0  0  0  0  0
   44.7693   32.5772   44.6438 H   0  0  0  0  0  0  0  0  0  0  0  0
   44.1209   33.7628   47.3054 H   0  0  0  0  0  0  0  0  0  0  0  0
   45.2560   33.0494   49.5516 H   0  0  0  0  0  0  0  0  0  0  0  0
   47.4899   31.8439   49.1418 H   0  0  0  0  0  0  0  0  0  0  0  0
   44.3411   33.9237   39.3520 H   0  0  0  0  0  0  0  0  0  0  0  0
   46.6248   34.1454   40.7002 H   0  0  0  0  0  0  0  0  0  0  0  0
   39.6698   36.3016   39.4573 H   0  0  0  0  0  0  0  0  0  0  0  0
   38.2131   34.3692   40.1236 H   0  0  0  0  0  0  0  0  0  0  0  0
   39.3063   32.4516   41.3750 H   0  0  0  0  0  0  0  0  0  0  0  0
  1  6  1  0
  2  1  1  0
  3  2  1  0
  4  3  1  0
  4  5  1  0
  5  6  1  0
  6  7  1  0
  7 11  1  0
  7  8  2  0
  8  9  1  0
 10  9  1  0
 11 10  2  0
 12 16  2  0
 13 14  2  0
 13 12  1  0
 14 15  1  0
 15 16  1  0
 15  2  1  0
 17 22  2  0
 17 18  1  0
 18 19  2  0
 19 20  1  0
 21 12  1  0
 21 20  2  0
 22 21  1  0
  1 23  1  0
  2 24  1  1
  3 25  1  0
  3 26  1  0
  4 27  1  0
  5 28  1  0
  5 29  1  0
  6 30  1  1
  8 31  1  0
  9 32  1  0
 10 33  1  0
 13 34  1  0
 14 35  1  0
 17 36  1  0
 18 37  1  0
 19 38  1  0
M  ISO  8  23   5  24  13  25  13  26  13  27   5  28  13  29  13  30  13
M  ISO  8  31  14  32   9  33  14  34  14  35  14  36  14  37  14  38  14
M  END
>  <minimizedAffinity>  (1) 
-5.75009537

>  <minimizedRMSD>  (1) 
5.2036624

$$$$
