
     RDKit          3D

 33 35  0  0  1  0  0  0  0  0999 V2000
   46.2890   32.4290   49.0750 N   0  0  0  0  0  0  0  0  0  0  0  0
   47.3800   32.0760   48.2510 C   0  0  1  0  0  0  0  0  0  0  0  0
   47.7590   30.6260   48.5260 C   0  0  0  0  0  0  0  0  0  0  0  0
   46.6070   29.8600   48.0800 N   0  0  0  0  0  0  0  0  0  0  0  0
   45.4430   30.0950   48.8920 C   0  0  0  0  0  0  0  0  0  0  0  0
   45.2280   31.5150   49.2370 C   0  0  2  0  0  0  0  0  0  0  0  0
   46.2720   32.9710   45.0100 C   0  0  0  0  0  0  0  0  0  0  0  0
   47.0570   31.8860   44.6880 C   0  0  0  0  0  0  0  0  0  0  0  0
   47.5840   31.3930   45.8420 C   0  0  0  0  0  0  0  0  0  0  0  0
   47.1200   32.1760   46.8500 N   0  0  0  0  0  0  0  0  0  0  0  0
   46.3360   33.1180   46.3370 N   0  0  0  0  0  0  0  0  0  0  0  0
   44.6910   35.8810   43.3860 C   0  0  0  0  0  0  0  0  0  0  0  0
   44.0790   35.2970   42.2560 C   0  0  0  0  0  0  0  0  0  0  0  0
   44.2190   33.9110   42.0680 C   0  0  0  0  0  0  0  0  0  0  0  0
   44.9390   33.2300   42.9940 N   0  0  0  0  0  0  0  0  0  0  0  0
   45.5120   33.8060   44.0630 C   0  0  0  0  0  0  0  0  0  0  0  0
   45.3920   35.1360   44.2660 N   0  0  0  0  0  0  0  0  0  0  0  0
   44.0850   32.0060   48.4760 N   0  0  0  0  0  0  0  0  0  0  0  0
   45.8854   33.2934   48.6867 H   0  0  0  0  0  0  0  0  0  0  0  0
   48.1791   32.7910   48.4964 H   0  0  0  0  0  0  0  0  0  0  0  0
   48.6576   30.3441   47.9576 H   0  0  0  0  0  0  0  0  0  0  0  0
   47.9958   30.4484   49.5854 H   0  0  0  0  0  0  0  0  0  0  0  0
   46.3908   30.1238   47.1081 H   0  0  0  0  0  0  0  0  0  0  0  0
   44.5602   29.7348   48.3435 H   0  0  0  0  0  0  0  0  0  0  0  0
   45.6017   29.5579   49.8388 H   0  0  0  0  0  0  0  0  0  0  0  0
   45.0847   31.4854   50.3272 H   0  0  0  0  0  0  0  0  0  0  0  0
   47.2278   31.4882   43.6768 H   0  0  0  0  0  0  0  0  0  0  0  0
   48.2559   30.5275   45.9394 H   0  0  0  0  0  0  0  0  0  0  0  0
   44.5946   36.9641   43.5524 H   0  0  0  0  0  0  0  0  0  0  0  0
   43.5084   35.9095   41.5424 H   0  0  0  0  0  0  0  0  0  0  0  0
   43.7640   33.4004   41.2065 H   0  0  0  0  0  0  0  0  0  0  0  0
   43.3503   32.3216   49.1252 H   0  0  0  0  0  0  0  0  0  0  0  0
   44.3806   32.7943   47.8826 H   0  0  0  0  0  0  0  0  0  0  0  0
  1  6  1  0
  2  3  1  0
  2  1  1  0
  4  3  1  0
  4  5  1  0
  5  6  1  0
  7 11  2  0
  8  7  1  0
  8  9  2  0
  9 10  1  0
 10  2  1  0
 11 10  1  0
 12 17  2  0
 13 12  1  0
 14 13  2  0
 14 15  1  0
 15 16  2  0
 16 17  1  0
 16  7  1  0
 18  6  1  0
  1 19  1  0
  2 20  1  1
  3 21  1  0
  3 22  1  0
  4 23  1  0
  5 24  1  0
  5 25  1  0
  6 26  1  1
  8 27  1  0
  9 28  1  0
 12 29  1  0
 13 30  1  0
 14 31  1  0
 18 32  1  0
 18 33  1  0
M  ISO  8  19   5  20  13  21  13  22  13  23   5  24  13  25  13  26  13
M  ISO  7  27  14  28  14  29  14  30  14  31  14  32   5  33   5
M  END
>  <minimizedAffinity>  (1) 
-5.28260899

>  <minimizedRMSD>  (1) 
0.292889476

$$$$
