
     RDKit          3D

 22 23  0  0  0  0  0  0  0  0999 V2000
   44.5890   33.1150   41.1940 Br  0  0  0  0  0  0  0  0  0  0  0  0
   46.2910   33.9830   40.9440 C   0  0  0  0  0  0  0  0  0  0  0  0
   46.8260   34.7390   41.9580 C   0  0  0  0  0  0  0  0  0  0  0  0
   48.0600   35.3770   41.7970 C   0  0  0  0  0  0  0  0  0  0  0  0
   48.7030   35.2120   40.5960 C   0  0  0  0  0  0  0  0  0  0  0  0
   48.1270   34.4470   39.6180 C   0  0  0  0  0  0  0  0  0  0  0  0
   46.9270   33.8160   39.7470 C   0  0  0  0  0  0  0  0  0  0  0  0
   45.6020   34.0450   45.3300 C   0  0  0  0  0  0  0  0  0  0  0  0
   44.7070   35.0920   45.5830 C   0  0  0  0  0  0  0  0  0  0  0  0
   44.5300   36.0510   44.5630 C   0  0  0  0  0  0  0  0  0  0  0  0
   45.2330   35.8910   43.4200 N   0  0  0  0  0  0  0  0  0  0  0  0
   46.0910   34.8700   43.2040 C   0  0  0  0  0  0  0  0  0  0  0  0
   46.2670   33.9450   44.1780 N   0  0  0  0  0  0  0  0  0  0  0  0
   46.3660   33.0300   38.7010 N   0  0  0  0  0  0  0  0  0  0  0  0
   48.4978   35.9868   42.6011 H   0  0  0  0  0  0  0  0  0  0  0  0
   49.6768   35.6923   40.4201 H   0  0  0  0  0  0  0  0  0  0  0  0
   48.6680   34.3347   38.6669 H   0  0  0  0  0  0  0  0  0  0  0  0
   45.7616   33.2813   46.1054 H   0  0  0  0  0  0  0  0  0  0  0  0
   44.1645   35.1639   46.5372 H   0  0  0  0  0  0  0  0  0  0  0  0
   43.8430   36.9001   44.6939 H   0  0  0  0  0  0  0  0  0  0  0  0
   45.4555   32.5676   38.8358 H   0  0  0  0  0  0  0  0  0  0  0  0
   46.8706   32.9237   37.8094 H   0  0  0  0  0  0  0  0  0  0  0  0
  2  1  1  0
  2  3  2  0
  3 12  1  0
  4  3  1  0
  5  4  2  0
  6  7  2  0
  6  5  1  0
  7  2  1  0
  8  9  2  0
 10  9  1  0
 11 10  2  0
 12 11  1  0
 12 13  2  0
 13  8  1  0
 14  7  1  0
  4 15  1  0
  5 16  1  0
  6 17  1  0
  8 18  1  0
  9 19  1  0
 10 20  1  0
 14 21  1  0
 14 22  1  0
M  ISO  6  15  14  16  14  17  14  18  14  19  14  20  14
M  END
>  <minimizedAffinity>  (1) 
-5.07663584

>  <minimizedRMSD>  (1) 
0.0139265656

$$$$
