
     RDKit          3D

 27 29  0  0  1  0  0  0  0  0999 V2000
   46.4130   32.6430   45.6050 C   0  0  1  0  0  0  0  0  0  0  0  0
   47.1020   32.7110   46.9130 C   0  0  0  0  0  0  0  0  0  0  0  0
   45.6970   32.1320   46.8020 C   0  0  2  0  0  0  0  0  0  0  0  0
   45.2030   31.5510   49.6510 Cl  0  0  0  0  0  0  0  0  0  0  0  0
   45.2200   30.3800   48.3310 C   0  0  0  0  0  0  0  0  0  0  0  0
   45.4580   30.6930   46.9870 C   0  0  0  0  0  0  0  0  0  0  0  0
   45.4430   29.6800   46.0610 C   0  0  0  0  0  0  0  0  0  0  0  0
   45.1940   28.4030   46.4810 C   0  0  0  0  0  0  0  0  0  0  0  0
   44.9540   28.0430   47.7890 C   0  0  0  0  0  0  0  0  0  0  0  0
   44.6420   26.3820   48.2530 Cl  0  0  0  0  0  0  0  0  0  0  0  0
   44.9700   29.0630   48.7200 C   0  0  0  0  0  0  0  0  0  0  0  0
   44.5340   35.7450   44.8910 C   0  0  0  0  0  0  0  0  0  0  0  0
   45.0020   36.0700   43.5830 C   0  0  0  0  0  0  0  0  0  0  0  0
   45.9630   35.2250   42.9720 C   0  0  0  0  0  0  0  0  0  0  0  0
   46.3900   34.1420   43.6730 N   0  0  0  0  0  0  0  0  0  0  0  0
   45.9240   33.8670   44.9110 C   0  0  0  0  0  0  0  0  0  0  0  0
   45.0150   34.6530   45.5070 N   0  0  0  0  0  0  0  0  0  0  0  0
   46.6888   32.2241   44.6260 H   0  0  0  0  0  0  0  0  0  0  0  0
   47.9564   32.0504   47.1219 H   0  0  0  0  0  0  0  0  0  0  0  0
   47.5755   33.5065   47.5072 H   0  0  0  0  0  0  0  0  0  0  0  0
   44.7252   32.3313   47.2772 H   0  0  0  0  0  0  0  0  0  0  0  0
   45.6284   29.8923   44.9977 H   0  0  0  0  0  0  0  0  0  0  0  0
   45.1846   27.6074   45.7215 H   0  0  0  0  0  0  0  0  0  0  0  0
   44.7837   28.8350   49.7799 H   0  0  0  0  0  0  0  0  0  0  0  0
   43.7878   36.3815   45.3891 H   0  0  0  0  0  0  0  0  0  0  0  0
   44.6243   36.9598   43.0581 H   0  0  0  0  0  0  0  0  0  0  0  0
   46.3497   35.4389   41.9647 H   0  0  0  0  0  0  0  0  0  0  0  0
  1  3  1  0
  1  2  1  0
  3  2  1  0
  3  6  1  0
  5 11  2  0
  5  4  1  0
  6  5  1  0
  7  8  1  0
  7  6  2  0
  8  9  2  0
  9 10  1  0
  9 11  1  0
 12 17  2  0
 13 12  1  0
 14 13  2  0
 14 15  1  0
 15 16  2  0
 16 17  1  0
 16  1  1  0
  1 18  1  6
  2 19  1  0
  2 20  1  0
  3 21  1  1
  7 22  1  0
  8 23  1  0
 11 24  1  0
 12 25  1  0
 13 26  1  0
 14 27  1  0
M  ISO  8  18  13  19  13  20  13  21  13  22  14  23  14  24  14  25  14
M  ISO  2  26  14  27  14
M  END
>  <minimizedAffinity>  (1) 
-5.09843731

>  <minimizedRMSD>  (1) 
1.48617494

$$$$
