
     RDKit          3D

 40 43  0  0  1  0  0  0  0  0999 V2000
   47.5280   30.0490   47.5120 N   0  0  0  0  0  0  0  0  0  0  0  0
   48.0920   29.7980   46.2440 C   0  0  1  0  0  0  0  0  0  0  0  0
   47.5960   28.4600   45.7520 C   0  0  0  0  0  0  0  0  0  0  0  0
   46.1750   28.6310   45.5660 N   0  0  0  0  0  0  0  0  0  0  0  0
   45.4810   28.8230   46.8160 C   0  0  0  0  0  0  0  0  0  0  0  0
   46.1810   29.7160   47.7890 C   0  0  2  0  0  0  0  0  0  0  0  0
   46.8230   32.5830   44.4540 C   0  0  0  0  0  0  0  0  0  0  0  0
   47.4710   31.9100   43.4220 C   0  0  0  0  0  0  0  0  0  0  0  0
   48.0230   30.7960   43.9430 C   0  0  0  0  0  0  0  0  0  0  0  0
   47.7250   30.7790   45.2660 N   0  0  0  0  0  0  0  0  0  0  0  0
   47.0100   31.8550   45.5430 N   0  0  0  0  0  0  0  0  0  0  0  0
   44.6360   35.4360   45.1940 C   0  0  0  0  0  0  0  0  0  0  0  0
   44.7330   36.2220   44.0410 C   0  0  0  0  0  0  0  0  0  0  0  0
   45.5560   35.7510   43.0210 C   0  0  0  0  0  0  0  0  0  0  0  0
   46.2060   34.5710   43.2080 N   0  0  0  0  0  0  0  0  0  0  0  0
   46.0870   33.8480   44.3290 C   0  0  0  0  0  0  0  0  0  0  0  0
   45.2970   34.2720   45.3430 N   0  0  0  0  0  0  0  0  0  0  0  0
   45.2940   30.9300   47.9860 C   0  0  1  0  0  0  0  0  0  0  0  0
   45.0680   31.3090   49.4490 C   0  0  0  0  0  0  0  0  0  0  0  0
   45.7970   32.2080   48.5110 C   0  0  2  0  0  0  0  0  0  0  0  0
   45.1080   33.4210   48.1600 N   0  0  0  0  0  0  0  0  0  0  0  0
   47.6195   31.0614   47.6781 H   0  0  0  0  0  0  0  0  0  0  0  0
   49.1850   29.8245   46.3654 H   0  0  0  0  0  0  0  0  0  0  0  0
   48.0807   28.1944   44.8010 H   0  0  0  0  0  0  0  0  0  0  0  0
   47.8244   27.6499   46.4603 H   0  0  0  0  0  0  0  0  0  0  0  0
   46.0154   29.4544   44.9681 H   0  0  0  0  0  0  0  0  0  0  0  0
   44.4958   29.2605   46.5971 H   0  0  0  0  0  0  0  0  0  0  0  0
   45.4193   27.8332   47.2920 H   0  0  0  0  0  0  0  0  0  0  0  0
   46.3126   29.1461   48.7206 H   0  0  0  0  0  0  0  0  0  0  0  0
   47.5232   32.2297   42.3708 H   0  0  0  0  0  0  0  0  0  0  0  0
   48.6069   30.0408   43.3964 H   0  0  0  0  0  0  0  0  0  0  0  0
   43.9917   35.7838   46.0149 H   0  0  0  0  0  0  0  0  0  0  0  0
   44.1836   37.1701   43.9442 H   0  0  0  0  0  0  0  0  0  0  0  0
   45.6774   36.3194   42.0871 H   0  0  0  0  0  0  0  0  0  0  0  0
   44.7040   30.6903   47.0891 H   0  0  0  0  0  0  0  0  0  0  0  0
   44.0616   31.5760   49.8037 H   0  0  0  0  0  0  0  0  0  0  0  0
   45.2822   30.8476   50.4243 H   0  0  0  0  0  0  0  0  0  0  0  0
   46.7884   32.6842   48.4894 H   0  0  0  0  0  0  0  0  0  0  0  0
   44.8265   33.9165   49.0180 H   0  0  0  0  0  0  0  0  0  0  0  0
   45.7333   34.0229   47.6054 H   0  0  0  0  0  0  0  0  0  0  0  0
  1  6  1  0
  2  1  1  0
  3  2  1  0
  4  3  1  0
  4  5  1  0
  5  6  1  0
  6 18  1  0
  7 11  2  0
  8  9  2  0
  8  7  1  0
  9 10  1  0
 10 11  1  0
 10  2  1  0
 12 17  2  0
 13 12  1  0
 14 15  1  0
 14 13  2  0
 15 16  2  0
 16  7  1  0
 16 17  1  0
 18 20  1  0
 18 19  1  0
 20 19  1  0
 21 20  1  0
  1 22  1  0
  2 23  1  1
  3 24  1  0
  3 25  1  0
  4 26  1  0
  5 27  1  0
  5 28  1  0
  6 29  1  1
  8 30  1  0
  9 31  1  0
 12 32  1  0
 13 33  1  0
 14 34  1  0
 18 35  1  6
 19 36  1  0
 19 37  1  0
 20 38  1  1
 21 39  1  0
 21 40  1  0
M  ISO  8  22   5  23  13  24  13  25  13  26   5  27  13  28  13  29  13
M  ISO  8  30  14  31  14  32  14  33  14  34  14  35  13  36  13  37  13
M  ISO  3  38  13  39   5  40   5
M  END
>  <minimizedAffinity>  (1) 
-5.69537783

>  <minimizedRMSD>  (1) 
0.19905597

$$$$
