
     RDKit          3D

 41 44  0  0  1  0  0  0  0  0999 V2000
   47.8050   29.8960   46.6620 N   0  0  0  0  0  0  0  0  0  0  0  0
   48.4620   30.0230   45.4100 C   0  0  1  0  0  0  0  0  0  0  0  0
   48.4240   28.6740   44.7270 C   0  0  0  0  0  0  0  0  0  0  0  0
   47.0270   28.4390   44.4470 N   0  0  0  0  0  0  0  0  0  0  0  0
   46.2800   28.2230   45.6660 C   0  0  0  0  0  0  0  0  0  0  0  0
   46.6200   29.1630   46.7780 C   0  0  2  0  0  0  0  0  0  0  0  0
   46.7620   32.7600   43.9470 C   0  0  0  0  0  0  0  0  0  0  0  0
   47.1230   32.0600   42.8010 C   0  0  0  0  0  0  0  0  0  0  0  0
   47.8000   30.9520   43.1870 C   0  0  0  0  0  0  0  0  0  0  0  0
   47.8520   30.9760   44.5400 N   0  0  0  0  0  0  0  0  0  0  0  0
   47.2250   32.0640   44.9660 N   0  0  0  0  0  0  0  0  0  0  0  0
   44.6080   35.5090   45.0830 C   0  0  0  0  0  0  0  0  0  0  0  0
   44.6270   36.3950   43.9990 C   0  0  0  0  0  0  0  0  0  0  0  0
   45.3840   36.0280   42.8920 C   0  0  0  0  0  0  0  0  0  0  0  0
   46.0540   34.8460   42.9230 N   0  0  0  0  0  0  0  0  0  0  0  0
   46.0110   34.0230   43.9820 C   0  0  0  0  0  0  0  0  0  0  0  0
   45.2850   34.3420   45.0820 N   0  0  0  0  0  0  0  0  0  0  0  0
   45.3970   30.0220   47.0520 C   0  0  1  0  0  0  0  0  0  0  0  0
   44.8190   29.8530   48.4600 C   0  0  0  0  0  0  0  0  0  0  0  0
   45.3770   31.1460   47.9820 C   0  0  1  0  0  0  0  0  0  0  0  0
   46.5370   31.6840   48.7400 C   0  0  0  0  0  0  0  0  0  0  0  0
   47.4700   32.3190   47.9770 F   0  0  0  0  0  0  0  0  0  0  0  0
   47.1260   30.7010   49.5550 F   0  0  0  0  0  0  0  0  0  0  0  0
   46.0800   32.6330   49.6530 F   0  0  0  0  0  0  0  0  0  0  0  0
   47.5912   30.8521   46.9797 H   0  0  0  0  0  0  0  0  0  0  0  0
   49.4852   30.3736   45.6103 H   0  0  0  0  0  0  0  0  0  0  0  0
   49.0074   28.6956   43.7947 H   0  0  0  0  0  0  0  0  0  0  0  0
   48.8604   27.8808   45.3519 H   0  0  0  0  0  0  0  0  0  0  0  0
   46.6401   29.2577   43.9562 H   0  0  0  0  0  0  0  0  0  0  0  0
   45.2099   28.3346   45.4372 H   0  0  0  0  0  0  0  0  0  0  0  0
   46.5424   27.2146   46.0184 H   0  0  0  0  0  0  0  0  0  0  0  0
   46.8694   28.5409   47.6503 H   0  0  0  0  0  0  0  0  0  0  0  0
   46.8987   32.3538   41.7650 H   0  0  0  0  0  0  0  0  0  0  0  0
   48.2257   30.1809   42.5280 H   0  0  0  0  0  0  0  0  0  0  0  0
   44.0170   35.7753   45.9717 H   0  0  0  0  0  0  0  0  0  0  0  0
   44.0668   37.3414   44.0222 H   0  0  0  0  0  0  0  0  0  0  0  0
   45.4395   36.6813   42.0088 H   0  0  0  0  0  0  0  0  0  0  0  0
   45.0810   29.9497   46.0008 H   0  0  0  0  0  0  0  0  0  0  0  0
   43.7351   29.7351   48.6056 H   0  0  0  0  0  0  0  0  0  0  0  0
   44.9981   29.1817   49.3128 H   0  0  0  0  0  0  0  0  0  0  0  0
   45.0379   32.1806   47.8250 H   0  0  0  0  0  0  0  0  0  0  0  0
  1  6  1  0
  2  1  1  0
  3  2  1  0
  4  3  1  0
  4  5  1  0
  5  6  1  0
  6 18  1  0
  7 16  1  0
  7 11  2  0
  8  9  2  0
  8  7  1  0
  9 10  1  0
 10 11  1  0
 10  2  1  0
 13 12  2  0
 14 15  2  0
 14 13  1  0
 15 16  1  0
 16 17  2  0
 17 12  1  0
 18 20  1  0
 18 19  1  0
 20 19  1  0
 20 21  1  0
 21 23  1  0
 21 24  1  0
 22 21  1  0
  1 25  1  0
  2 26  1  1
  3 27  1  0
  3 28  1  0
  4 29  1  0
  5 30  1  0
  5 31  1  0
  6 32  1  1
  8 33  1  0
  9 34  1  0
 12 35  1  0
 13 36  1  0
 14 37  1  0
 18 38  1  6
 19 39  1  0
 19 40  1  0
 20 41  1  6
M  ISO  8  25   5  26  13  27  13  28  13  29   5  30  13  31  13  32  13
M  ISO  8  33  14  34  14  35  14  36  14  37  14  38  13  39  13  40  13
M  ISO  1  41  13
M  END
>  <minimizedAffinity>  (1) 
-4.96967268

>  <minimizedRMSD>  (1) 
1.16152334

$$$$
