
     RDKit          3D

 42 45  0  0  1  0  0  0  0  0999 V2000
   47.8840   29.3280   45.3160 N   0  0  0  0  0  0  0  0  0  0  0  0
   48.6550   29.7640   44.2170 C   0  0  1  0  0  0  0  0  0  0  0  0
   48.4380   28.8170   43.0710 C   0  0  0  0  0  0  0  0  0  0  0  0
   47.0430   28.9860   42.7090 N   0  0  0  0  0  0  0  0  0  0  0  0
   46.1590   28.4910   43.7380 C   0  0  0  0  0  0  0  0  0  0  0  0
   46.5720   28.8330   45.1320 C   0  0  2  0  0  0  0  0  0  0  0  0
   47.2230   32.9690   43.7160 C   0  0  0  0  0  0  0  0  0  0  0  0
   48.1910   32.9830   42.7240 C   0  0  0  0  0  0  0  0  0  0  0  0
   48.8510   31.8050   42.7720 C   0  0  0  0  0  0  0  0  0  0  0  0
   48.3010   31.0790   43.7740 N   0  0  0  0  0  0  0  0  0  0  0  0
   47.3300   31.7940   44.3250 N   0  0  0  0  0  0  0  0  0  0  0  0
   44.7600   35.0760   45.4420 C   0  0  0  0  0  0  0  0  0  0  0  0
   44.5090   36.0990   44.5250 C   0  0  0  0  0  0  0  0  0  0  0  0
   45.2050   36.0400   43.3090 C   0  0  0  0  0  0  0  0  0  0  0  0
   46.0620   35.0120   43.1090 N   0  0  0  0  0  0  0  0  0  0  0  0
   46.2740   34.0450   44.0220 C   0  0  0  0  0  0  0  0  0  0  0  0
   45.6260   34.0660   45.2010 N   0  0  0  0  0  0  0  0  0  0  0  0
   45.4940   29.7340   45.6990 C   0  0  1  0  0  0  0  0  0  0  0  0
   44.8080   29.1750   46.9460 C   0  0  0  0  0  0  0  0  0  0  0  0
   45.6550   30.4050   47.0030 C   0  0  2  0  0  0  0  0  0  0  0  0
   45.3850   32.4150   48.4090 C   0  0  0  0  0  0  0  0  0  0  0  0
   46.3840   32.0990   49.1100 O   0  0  0  0  0  0  0  0  0  0  0  0
   44.9370   31.6020   47.3030 N   0  0  0  0  0  0  0  0  0  0  0  0
   48.4204   28.5752   45.7704 H   0  0  0  0  0  0  0  0  0  0  0  0
   49.7045   29.7875   44.5455 H   0  0  0  0  0  0  0  0  0  0  0  0
   49.0919   29.0761   42.2252 H   0  0  0  0  0  0  0  0  0  0  0  0
   48.6735   27.7771   43.3416 H   0  0  0  0  0  0  0  0  0  0  0  0
   46.8556   29.9881   42.5620 H   0  0  0  0  0  0  0  0  0  0  0  0
   45.1587   28.9140   43.5633 H   0  0  0  0  0  0  0  0  0  0  0  0
   46.1827   27.3936   43.6670 H   0  0  0  0  0  0  0  0  0  0  0  0
   46.6514   27.8920   45.6960 H   0  0  0  0  0  0  0  0  0  0  0  0
   48.3871   33.8070   42.0222 H   0  0  0  0  0  0  0  0  0  0  0  0
   49.6800   31.4939   42.1193 H   0  0  0  0  0  0  0  0  0  0  0  0
   44.2285   35.0927   46.4049 H   0  0  0  0  0  0  0  0  0  0  0  0
   43.8004   36.9109   44.7457 H   0  0  0  0  0  0  0  0  0  0  0  0
   45.0580   36.8099   42.5372 H   0  0  0  0  0  0  0  0  0  0  0  0
   45.2149   30.1132   44.7049 H   0  0  0  0  0  0  0  0  0  0  0  0
   43.7161   29.2481   47.0579 H   0  0  0  0  0  0  0  0  0  0  0  0
   44.7904   28.2066   47.4674 H   0  0  0  0  0  0  0  0  0  0  0  0
   46.5520   30.7394   47.5447 H   0  0  0  0  0  0  0  0  0  0  0  0
   44.8376   33.3389   48.6473 H   0  0  0  0  0  0  0  0  0  0  0  0
   44.1181   31.8793   46.7432 H   0  0  0  0  0  0  0  0  0  0  0  0
  2  1  1  0
  3  2  1  0
  4  3  1  0
  4  5  1  0
  5  6  1  0
  6  1  1  0
  6 18  1  0
  7 16  1  0
  7 11  2  0
  8  9  2  0
  8  7  1  0
  9 10  1  0
 10  2  1  0
 10 11  1  0
 13 12  2  0
 14 13  1  0
 15 14  2  0
 15 16  1  0
 16 17  2  0
 17 12  1  0
 18 19  1  0
 18 20  1  0
 19 20  1  0
 20 23  1  0
 21 22  2  0
 23 21  1  0
  1 24  1  0
  2 25  1  1
  3 26  1  0
  3 27  1  0
  4 28  1  0
  5 29  1  0
  5 30  1  0
  6 31  1  1
  8 32  1  0
  9 33  1  0
 12 34  1  0
 13 35  1  0
 14 36  1  0
 18 37  1  6
 19 38  1  0
 19 39  1  0
 20 40  1  1
 21 41  1  0
 23 42  1  0
M  ISO  8  24   5  25  13  26  13  27  13  28   5  29  13  30  13  31  13
M  ISO  8  32  14  33  14  34  14  35  14  36  14  37  13  38  13  39  13
M  ISO  2  40  13  41   6
M  END
>  <minimizedAffinity>  (1) 
-4.80278158

>  <minimizedRMSD>  (1) 
2.19163251

$$$$
