
     RDKit          3D

 51 55  0  0  1  0  0  0  0  0999 V2000
   47.0990   29.2760   46.3830 N   0  0  0  0  0  0  0  0  0  0  0  0
   46.4480   28.9990   45.1630 C   0  0  1  0  0  0  0  0  0  0  0  0
   45.1120   28.4070   45.4520 C   0  0  0  0  0  0  0  0  0  0  0  0
   44.3730   29.4650   46.0940 N   0  0  0  0  0  0  0  0  0  0  0  0
   44.9040   29.7930   47.4080 C   0  0  0  0  0  0  0  0  0  0  0  0
   46.3990   29.8240   47.4740 C   0  0  2  0  0  0  0  0  0  0  0  0
   45.7890   32.2270   43.8670 C   0  0  0  0  0  0  0  0  0  0  0  0
   46.0820   31.5700   42.6930 C   0  0  0  0  0  0  0  0  0  0  0  0
   46.3680   30.2760   43.0110 C   0  0  0  0  0  0  0  0  0  0  0  0
   46.2470   30.1680   44.3480 N   0  0  0  0  0  0  0  0  0  0  0  0
   45.8990   31.3510   44.8480 N   0  0  0  0  0  0  0  0  0  0  0  0
   44.7400   35.4690   45.2740 C   0  0  0  0  0  0  0  0  0  0  0  0
   44.7420   36.3050   44.1610 C   0  0  0  0  0  0  0  0  0  0  0  0
   45.1010   35.7620   42.9500 C   0  0  0  0  0  0  0  0  0  0  0  0
   45.4330   34.4350   42.9060 N   0  0  0  0  0  0  0  0  0  0  0  0
   45.4220   33.6460   43.9980 C   0  0  0  0  0  0  0  0  0  0  0  0
   45.0720   34.1570   45.2040 N   0  0  0  0  0  0  0  0  0  0  0  0
   46.7900   31.2550   47.8020 C   0  0  1  0  0  0  0  0  0  0  0  0
   46.5080   31.6760   49.2420 C   0  0  0  0  0  0  0  0  0  0  0  0
   47.8970   31.5670   48.7190 C   0  0  1  0  0  0  0  0  0  0  0  0
   48.8250   30.4550   49.2180 C   0  0  0  0  0  0  0  0  0  0  0  0
   50.0860   29.4030   51.5640 F   0  0  0  0  0  0  0  0  0  0  0  0
   50.4950   30.6490   51.1580 C   0  0  0  0  0  0  0  0  0  0  0  0
   49.8820   31.1360   50.0340 C   0  0  0  0  0  0  0  0  0  0  0  0
   50.3400   32.4080   49.6670 C   0  0  0  0  0  0  0  0  0  0  0  0
   51.2870   33.1540   50.3000 C   0  0  0  0  0  0  0  0  0  0  0  0
   51.8640   32.5980   51.4300 C   0  0  0  0  0  0  0  0  0  0  0  0
   51.4570   31.3500   51.8420 C   0  0  0  0  0  0  0  0  0  0  0  0
   47.8610   29.9338   46.1647 H   0  0  0  0  0  0  0  0  0  0  0  0
   47.0979   28.3081   44.6060 H   0  0  0  0  0  0  0  0  0  0  0  0
   44.6155   28.0971   44.5206 H   0  0  0  0  0  0  0  0  0  0  0  0
   45.1830   27.5080   46.0819 H   0  0  0  0  0  0  0  0  0  0  0  0
   44.4157   30.3058   45.5005 H   0  0  0  0  0  0  0  0  0  0  0  0
   44.5251   30.7848   47.6957 H   0  0  0  0  0  0  0  0  0  0  0  0
   44.5733   28.9966   48.0910 H   0  0  0  0  0  0  0  0  0  0  0  0
   46.7184   29.1280   48.2637 H   0  0  0  0  0  0  0  0  0  0  0  0
   46.0847   32.0087   41.6843 H   0  0  0  0  0  0  0  0  0  0  0  0
   46.6444   29.4742   42.3105 H   0  0  0  0  0  0  0  0  0  0  0  0
   44.4575   35.8905   46.2500 H   0  0  0  0  0  0  0  0  0  0  0  0
   44.4652   37.3661   44.2476 H   0  0  0  0  0  0  0  0  0  0  0  0
   45.1209   36.3786   42.0393 H   0  0  0  0  0  0  0  0  0  0  0  0
   46.5558   31.5974   46.7832 H   0  0  0  0  0  0  0  0  0  0  0  0
   46.0719   32.6630   49.4558 H   0  0  0  0  0  0  0  0  0  0  0  0
   45.9511   31.2530   50.0911 H   0  0  0  0  0  0  0  0  0  0  0  0
   48.7551   32.2540   48.6763 H   0  0  0  0  0  0  0  0  0  0  0  0
   48.2653   29.7392   49.8379 H   0  0  0  0  0  0  0  0  0  0  0  0
   49.2625   29.8893   48.3822 H   0  0  0  0  0  0  0  0  0  0  0  0
   49.8850   32.8526   48.7696 H   0  0  0  0  0  0  0  0  0  0  0  0
   51.5793   34.1487   49.9324 H   0  0  0  0  0  0  0  0  0  0  0  0
   52.6362   33.1462   51.9896 H   0  0  0  0  0  0  0  0  0  0  0  0
   51.9122   30.9043   52.7387 H   0  0  0  0  0  0  0  0  0  0  0  0
  1  6  1  0
  2  3  1  0
  2  1  1  0
  3  4  1  0
  4  5  1  0
  5  6  1  0
  6 18  1  0
  7 16  1  0
  7 11  2  0
  8  9  2  0
  8  7  1  0
  9 10  1  0
 10 11  1  0
 10  2  1  0
 13 12  2  0
 14 13  1  0
 15 14  2  0
 15 16  1  0
 16 17  2  0
 17 12  1  0
 18 20  1  0
 18 19  1  0
 20 21  1  0
 20 19  1  0
 21 24  1  0
 23 22  1  0
 23 28  2  0
 24 23  1  0
 25 24  2  0
 25 26  1  0
 26 27  2  0
 27 28  1  0
  1 29  1  0
  2 30  1  6
  3 31  1  0
  3 32  1  0
  4 33  1  0
  5 34  1  0
  5 35  1  0
  6 36  1  1
  8 37  1  0
  9 38  1  0
 12 39  1  0
 13 40  1  0
 14 41  1  0
 18 42  1  6
 19 43  1  0
 19 44  1  0
 20 45  1  6
 21 46  1  0
 21 47  1  0
 25 48  1  0
 26 49  1  0
 27 50  1  0
 28 51  1  0
M  ISO  8  29   5  30  13  31  13  32  13  33   5  34  13  35  13  36  13
M  ISO  8  37  14  38  14  39  14  40  14  41  14  42  13  43  13  44  13
M  ISO  7  45  13  46   8  47   8  48  14  49  14  50  14  51  14
M  END
>  <minimizedAffinity>  (1) 
-6.08555126

>  <minimizedRMSD>  (1) 
1.7103101

$$$$
