
     RDKit          3D

 56 60  0  0  1  0  0  0  0  0999 V2000
   47.0010   29.2640   46.3320 N   0  0  0  0  0  0  0  0  0  0  0  0
   46.4080   28.9670   45.0880 C   0  0  1  0  0  0  0  0  0  0  0  0
   45.0990   28.2870   45.3420 C   0  0  0  0  0  0  0  0  0  0  0  0
   44.2730   29.2770   45.9880 N   0  0  0  0  0  0  0  0  0  0  0  0
   44.7500   29.6160   47.3120 C   0  0  0  0  0  0  0  0  0  0  0  0
   46.2490   29.7450   47.4170 C   0  0  2  0  0  0  0  0  0  0  0  0
   45.6740   32.2020   43.8460 C   0  0  0  0  0  0  0  0  0  0  0  0
   45.8240   31.5220   42.6490 C   0  0  0  0  0  0  0  0  0  0  0  0
   46.1160   30.2300   42.9430 C   0  0  0  0  0  0  0  0  0  0  0  0
   46.1450   30.1230   44.2950 N   0  0  0  0  0  0  0  0  0  0  0  0
   45.8770   31.3180   44.8140 N   0  0  0  0  0  0  0  0  0  0  0  0
   44.7670   35.4460   45.3070 C   0  0  0  0  0  0  0  0  0  0  0  0
   44.7640   36.3030   44.2020 C   0  0  0  0  0  0  0  0  0  0  0  0
   45.0720   35.7570   42.9810 C   0  0  0  0  0  0  0  0  0  0  0  0
   45.3610   34.4230   42.9110 N   0  0  0  0  0  0  0  0  0  0  0  0
   45.3540   33.6250   43.9960 C   0  0  0  0  0  0  0  0  0  0  0  0
   45.0540   34.1330   45.2170 N   0  0  0  0  0  0  0  0  0  0  0  0
   46.5430   31.1900   47.7580 C   0  0  1  0  0  0  0  0  0  0  0  0
   46.2570   31.5730   49.2160 C   0  0  0  0  0  0  0  0  0  0  0  0
   47.6260   31.5870   48.6620 C   0  0  1  0  0  0  0  0  0  0  0  0
   48.6630   30.5540   49.1020 C   0  0  0  0  0  0  0  0  0  0  0  0
   49.6410   31.0960   49.9660 N   0  0  0  0  0  0  0  0  0  0  0  0
   50.2370   30.2990   50.9470 C   0  0  0  0  0  0  0  0  0  0  0  0
   51.7420   30.2180   50.7690 C   0  0  0  0  0  0  0  0  0  0  0  0
   52.2630   31.6310   50.9270 C   0  0  0  0  0  0  0  0  0  0  0  0
   51.6550   32.5080   49.8860 C   0  0  0  0  0  0  0  0  0  0  0  0
   50.1740   32.3630   49.7020 C   0  0  0  0  0  0  0  0  0  0  0  0
   47.7244   29.9730   46.1451 H   0  0  0  0  0  0  0  0  0  0  0  0
   47.1191   28.3355   44.5353 H   0  0  0  0  0  0  0  0  0  0  0  0
   44.6429   27.9638   44.3947 H   0  0  0  0  0  0  0  0  0  0  0  0
   45.2191   27.3863   45.9619 H   0  0  0  0  0  0  0  0  0  0  0  0
   44.2663   30.1299   45.4105 H   0  0  0  0  0  0  0  0  0  0  0  0
   44.3002   30.5761   47.6050 H   0  0  0  0  0  0  0  0  0  0  0  0
   44.4578   28.7875   47.9740 H   0  0  0  0  0  0  0  0  0  0  0  0
   46.5900   29.0656   48.2121 H   0  0  0  0  0  0  0  0  0  0  0  0
   45.7244   31.9519   41.6414 H   0  0  0  0  0  0  0  0  0  0  0  0
   46.2956   29.4206   42.2201 H   0  0  0  0  0  0  0  0  0  0  0  0
   44.5238   35.8633   46.2953 H   0  0  0  0  0  0  0  0  0  0  0  0
   44.5245   37.3715   44.3071 H   0  0  0  0  0  0  0  0  0  0  0  0
   45.0860   36.3815   42.0756 H   0  0  0  0  0  0  0  0  0  0  0  0
   46.2721   31.5182   46.7437 H   0  0  0  0  0  0  0  0  0  0  0  0
   45.7439   32.5171   49.4513 H   0  0  0  0  0  0  0  0  0  0  0  0
   45.7583   31.0964   50.0728 H   0  0  0  0  0  0  0  0  0  0  0  0
   48.4158   32.3518   48.6251 H   0  0  0  0  0  0  0  0  0  0  0  0
   48.1453   29.7367   49.6254 H   0  0  0  0  0  0  0  0  0  0  0  0
   49.1793   30.1965   48.1989 H   0  0  0  0  0  0  0  0  0  0  0  0
   50.0179   30.7280   51.9359 H   0  0  0  0  0  0  0  0  0  0  0  0
   49.8267   29.2823   50.8576 H   0  0  0  0  0  0  0  0  0  0  0  0
   51.9874   29.8307   49.7691 H   0  0  0  0  0  0  0  0  0  0  0  0
   52.1966   29.5386   51.5051 H   0  0  0  0  0  0  0  0  0  0  0  0
   51.9975   32.0095   51.9251 H   0  0  0  0  0  0  0  0  0  0  0  0
   53.3569   31.6318   50.8116 H   0  0  0  0  0  0  0  0  0  0  0  0
   51.8613   33.5529   50.1610 H   0  0  0  0  0  0  0  0  0  0  0  0
   52.1085   32.2018   48.9318 H   0  0  0  0  0  0  0  0  0  0  0  0
   49.6802   33.0815   50.3727 H   0  0  0  0  0  0  0  0  0  0  0  0
   49.9905   32.5433   48.6325 H   0  0  0  0  0  0  0  0  0  0  0  0
  1  6  1  0
  2  3  1  0
  2  1  1  0
  3  4  1  0
  4  5  1  0
  5  6  1  0
  6 18  1  0
  7 16  1  0
  7 11  2  0
  8  9  2  0
  8  7  1  0
  9 10  1  0
 10 11  1  0
 10  2  1  0
 13 12  2  0
 14 13  1  0
 15 14  2  0
 15 16  1  0
 16 17  2  0
 17 12  1  0
 18 20  1  0
 18 19  1  0
 20 21  1  0
 20 19  1  0
 21 22  1  0
 22 23  1  0
 24 25  1  0
 24 23  1  0
 26 25  1  0
 27 26  1  0
 27 22  1  0
  1 28  1  0
  2 29  1  6
  3 30  1  0
  3 31  1  0
  4 32  1  0
  5 33  1  0
  5 34  1  0
  6 35  1  1
  8 36  1  0
  9 37  1  0
 12 38  1  0
 13 39  1  0
 14 40  1  0
 18 41  1  6
 19 42  1  0
 19 43  1  0
 20 44  1  6
 21 45  1  0
 21 46  1  0
 23 47  1  0
 23 48  1  0
 24 49  1  0
 24 50  1  0
 25 51  1  0
 25 52  1  0
 26 53  1  0
 26 54  1  0
 27 55  1  0
 27 56  1  0
M  ISO  8  28   5  29  13  30  13  31  13  32   5  33  13  34  13  35  13
M  ISO  8  36  14  37  14  38  14  39  14  40  14  41  13  42  13  43  13
M  ISO  8  44  13  45   8  46   8  47  13  48  13  49  13  50  13  51  13
M  ISO  5  52  13  53  13  54  13  55  13  56  13
M  END
>  <minimizedAffinity>  (1) 
-5.45914745

>  <minimizedRMSD>  (1) 
1.48298097

$$$$
