
     RDKit          3D

 43 46  0  0  1  0  0  0  0  0999 V2000
   46.9470   29.3850   46.4760 N   0  0  0  0  0  0  0  0  0  0  0  0
   46.6230   29.0760   45.1440 C   0  0  1  0  0  0  0  0  0  0  0  0
   45.3650   28.2460   45.1390 C   0  0  0  0  0  0  0  0  0  0  0  0
   44.3390   29.1050   45.6510 N   0  0  0  0  0  0  0  0  0  0  0  0
   44.5390   29.4310   47.0440 C   0  0  0  0  0  0  0  0  0  0  0  0
   45.9550   29.7270   47.4190 C   0  0  2  0  0  0  0  0  0  0  0  0
   45.8370   32.2970   43.8840 C   0  0  0  0  0  0  0  0  0  0  0  0
   46.0980   31.6430   42.6960 C   0  0  0  0  0  0  0  0  0  0  0  0
   46.4260   30.3580   42.9940 C   0  0  0  0  0  0  0  0  0  0  0  0
   46.3650   30.2360   44.3420 N   0  0  0  0  0  0  0  0  0  0  0  0
   46.0080   31.4170   44.8540 N   0  0  0  0  0  0  0  0  0  0  0  0
   44.7010   35.4890   45.3190 C   0  0  0  0  0  0  0  0  0  0  0  0
   44.7250   36.3550   44.2220 C   0  0  0  0  0  0  0  0  0  0  0  0
   45.1270   35.8340   43.0160 C   0  0  0  0  0  0  0  0  0  0  0  0
   45.4800   34.5140   42.9470 N   0  0  0  0  0  0  0  0  0  0  0  0
   45.4460   33.7030   44.0260 C   0  0  0  0  0  0  0  0  0  0  0  0
   45.0560   34.1820   45.2220 N   0  0  0  0  0  0  0  0  0  0  0  0
   46.0190   31.1720   47.8450 C   0  0  1  0  0  0  0  0  0  0  0  0
   45.6170   31.4370   49.3020 C   0  0  0  0  0  0  0  0  0  0  0  0
   46.9950   31.6800   48.8260 C   0  0  1  0  0  0  0  0  0  0  0  0
   48.1510   30.7810   49.2710 C   0  0  0  0  0  0  0  0  0  0  0  0
   49.2410   31.7030   49.6370 N   0  0  0  0  0  0  0  0  0  0  0  0
   47.5984   30.1820   46.4385 H   0  0  0  0  0  0  0  0  0  0  0  0
   47.4890   28.5477   44.7186 H   0  0  0  0  0  0  0  0  0  0  0  0
   45.1213   27.9231   44.1161 H   0  0  0  0  0  0  0  0  0  0  0  0
   45.4746   27.3344   45.7447 H   0  0  0  0  0  0  0  0  0  0  0  0
   44.3348   29.9779   45.1042 H   0  0  0  0  0  0  0  0  0  0  0  0
   43.9300   30.3162   47.2796 H   0  0  0  0  0  0  0  0  0  0  0  0
   44.2458   28.5390   47.6170 H   0  0  0  0  0  0  0  0  0  0  0  0
   46.2178   29.0531   48.2478 H   0  0  0  0  0  0  0  0  0  0  0  0
   46.0492   32.0831   41.6891 H   0  0  0  0  0  0  0  0  0  0  0  0
   46.6908   29.5671   42.2768 H   0  0  0  0  0  0  0  0  0  0  0  0
   44.3829   35.8806   46.2965 H   0  0  0  0  0  0  0  0  0  0  0  0
   44.4337   37.4112   44.3204 H   0  0  0  0  0  0  0  0  0  0  0  0
   45.1645   36.4691   42.1187 H   0  0  0  0  0  0  0  0  0  0  0  0
   45.7474   31.5069   46.8331 H   0  0  0  0  0  0  0  0  0  0  0  0
   44.9593   32.2831   49.5501 H   0  0  0  0  0  0  0  0  0  0  0  0
   45.1564   30.8494   50.1098 H   0  0  0  0  0  0  0  0  0  0  0  0
   47.6631   32.5529   48.8679 H   0  0  0  0  0  0  0  0  0  0  0  0
   47.8541   30.1719   50.1375 H   0  0  0  0  0  0  0  0  0  0  0  0
   48.4545   30.0805   48.4790 H   0  0  0  0  0  0  0  0  0  0  0  0
   49.3108   31.7620   50.6629 H   0  0  0  0  0  0  0  0  0  0  0  0
   50.1301   31.3536   49.2519 H   0  0  0  0  0  0  0  0  0  0  0  0
  1  6  1  0
  2  1  1  0
  3  2  1  0
  3  4  1  0
  4  5  1  0
  5  6  1  0
  6 18  1  0
  7 16  1  0
  7 11  2  0
  8  9  2  0
  8  7  1  0
  9 10  1  0
 10 11  1  0
 10  2  1  0
 13 12  2  0
 14 13  1  0
 15 14  2  0
 15 16  1  0
 16 17  2  0
 17 12  1  0
 18 20  1  0
 18 19  1  0
 20 21  1  0
 20 19  1  0
 21 22  1  0
  1 23  1  0
  2 24  1  6
  3 25  1  0
  3 26  1  0
  4 27  1  0
  5 28  1  0
  5 29  1  0
  6 30  1  1
  8 31  1  0
  9 32  1  0
 12 33  1  0
 13 34  1  0
 14 35  1  0
 18 36  1  6
 19 37  1  0
 19 38  1  0
 20 39  1  6
 21 40  1  0
 21 41  1  0
 22 42  1  0
 22 43  1  0
M  ISO  8  23   5  24  13  25  13  26  13  27   5  28  13  29  13  30  13
M  ISO  8  31  14  32  14  33  14  34  14  35  14  36  13  37  13  38  13
M  ISO  5  39  13  40   8  41   8  42   5  43   5
M  END
>  <minimizedAffinity>  (1) 
-4.89420319

>  <minimizedRMSD>  (1) 
0.90777576

$$$$
