
     RDKit          3D

 42 45  0  0  1  0  0  0  0  0999 V2000
   47.0020   29.3640   46.3610 N   0  0  0  0  0  0  0  0  0  0  0  0
   46.4490   29.0280   45.1140 C   0  0  1  0  0  0  0  0  0  0  0  0
   45.1640   28.2770   45.3520 C   0  0  0  0  0  0  0  0  0  0  0  0
   44.2820   29.2430   45.9590 N   0  0  0  0  0  0  0  0  0  0  0  0
   44.7220   29.5970   47.2950 C   0  0  0  0  0  0  0  0  0  0  0  0
   46.1920   29.8140   47.4240 C   0  0  2  0  0  0  0  0  0  0  0  0
   45.6500   32.2330   43.8280 C   0  0  0  0  0  0  0  0  0  0  0  0
   45.7390   31.5210   42.6420 C   0  0  0  0  0  0  0  0  0  0  0  0
   46.0480   30.2320   42.9540 C   0  0  0  0  0  0  0  0  0  0  0  0
   46.1420   30.1720   44.3000 N   0  0  0  0  0  0  0  0  0  0  0  0
   45.9030   31.3680   44.8040 N   0  0  0  0  0  0  0  0  0  0  0  0
   44.7590   35.4990   45.2400 C   0  0  0  0  0  0  0  0  0  0  0  0
   44.7590   36.3400   44.1180 C   0  0  0  0  0  0  0  0  0  0  0  0
   45.0630   35.7710   42.9040 C   0  0  0  0  0  0  0  0  0  0  0  0
   45.3440   34.4400   42.8620 N   0  0  0  0  0  0  0  0  0  0  0  0
   45.3340   33.6630   43.9610 C   0  0  0  0  0  0  0  0  0  0  0  0
   45.0410   34.1820   45.1670 N   0  0  0  0  0  0  0  0  0  0  0  0
   46.4100   31.2690   47.7650 C   0  0  1  0  0  0  0  0  0  0  0  0
   46.0020   31.6710   49.1900 C   0  0  0  0  0  0  0  0  0  0  0  0
   47.4120   31.7210   48.7490 C   0  0  1  0  0  0  0  0  0  0  0  0
   48.4370   30.7290   49.2880 C   0  0  0  0  0  0  0  0  0  0  0  0
   49.9400   31.7330   49.6240 S   0  0  0  0  0  0  0  0  0  0  0  0
   47.6904   30.1092   46.1833 H   0  0  0  0  0  0  0  0  0  0  0  0
   47.2001   28.4284   44.5789 H   0  0  0  0  0  0  0  0  0  0  0  0
   44.7457   27.9132   44.4019 H   0  0  0  0  0  0  0  0  0  0  0  0
   45.3114   27.3913   45.9874 H   0  0  0  0  0  0  0  0  0  0  0  0
   44.2636   30.0922   45.3764 H   0  0  0  0  0  0  0  0  0  0  0  0
   44.2103   30.5247   47.5909 H   0  0  0  0  0  0  0  0  0  0  0  0
   44.4733   28.7437   47.9431 H   0  0  0  0  0  0  0  0  0  0  0  0
   46.5434   29.1571   48.2333 H   0  0  0  0  0  0  0  0  0  0  0  0
   45.5872   31.9249   41.6301 H   0  0  0  0  0  0  0  0  0  0  0  0
   46.1928   29.4015   42.2474 H   0  0  0  0  0  0  0  0  0  0  0  0
   44.5186   35.9320   46.2222 H   0  0  0  0  0  0  0  0  0  0  0  0
   44.5253   37.4113   44.2056 H   0  0  0  0  0  0  0  0  0  0  0  0
   45.0788   36.3781   41.9868 H   0  0  0  0  0  0  0  0  0  0  0  0
   46.2058   31.5688   46.7265 H   0  0  0  0  0  0  0  0  0  0  0  0
   45.4428   32.6021   49.3642 H   0  0  0  0  0  0  0  0  0  0  0  0
   45.4528   31.1933   50.0147 H   0  0  0  0  0  0  0  0  0  0  0  0
   48.1778   32.5106   48.7611 H   0  0  0  0  0  0  0  0  0  0  0  0
   48.0711   30.2592   50.2129 H   0  0  0  0  0  0  0  0  0  0  0  0
   48.6355   29.9130   48.5775 H   0  0  0  0  0  0  0  0  0  0  0  0
   50.1170   31.8513   50.9774 H   0  0  0  0  0  0  0  0  0  0  0  0
  1  6  1  0
  2  3  1  0
  2  1  1  0
  3  4  1  0
  4  5  1  0
  5  6  1  0
  6 18  1  0
  7 16  1  0
  7 11  2  0
  8  9  2  0
  8  7  1  0
  9 10  1  0
 10 11  1  0
 10  2  1  0
 13 12  2  0
 14 13  1  0
 15 14  2  0
 15 16  1  0
 16 17  2  0
 17 12  1  0
 18 20  1  0
 18 19  1  0
 20 19  1  0
 20 21  1  0
 21 22  1  0
  1 23  1  0
  2 24  1  6
  3 25  1  0
  3 26  1  0
  4 27  1  0
  5 28  1  0
  5 29  1  0
  6 30  1  1
  8 31  1  0
  9 32  1  0
 12 33  1  0
 13 34  1  0
 14 35  1  0
 18 36  1  6
 19 37  1  0
 19 38  1  0
 20 39  1  6
 21 40  1  0
 21 41  1  0
 22 42  1  0
M  ISO  8  23   5  24  13  25  13  26  13  27   5  28  13  29  13  30  13
M  ISO  8  31  14  32  14  33  14  34  14  35  14  36  13  37  13  38  13
M  ISO  4  39  13  40   8  41   8  42  11
M  END
>  <minimizedAffinity>  (1) 
-4.82229567

>  <minimizedRMSD>  (1) 
1.15611327

$$$$
