
     RDKit          3D

 21 22  0  0  0  0  0  0  0  0999 V2000
   44.9240   35.0340   44.4980 C   0  0  0  0  0  0  0  0  0  0  0  0
   45.8550   34.9110   43.4530 C   0  0  0  0  0  0  0  0  0  0  0  0
   46.9230   34.0120   43.5990 C   0  0  0  0  0  0  0  0  0  0  0  0
   46.9740   33.3150   44.7640 N   0  0  0  0  0  0  0  0  0  0  0  0
   46.0770   33.4470   45.7460 C   0  0  0  0  0  0  0  0  0  0  0  0
   45.0590   34.3040   45.6070 N   0  0  0  0  0  0  0  0  0  0  0  0
   43.8410   35.9520   44.3390 N   0  0  0  0  0  0  0  0  0  0  0  0
   46.2190   32.6520   46.9630 C   0  0  0  0  0  0  0  0  0  0  0  0
   45.2370   32.5540   47.9040 C   0  0  0  0  0  0  0  0  0  0  0  0
   45.4510   31.7810   49.0240 C   0  0  0  0  0  0  0  0  0  0  0  0
   46.6630   31.1080   49.1930 C   0  0  0  0  0  0  0  0  0  0  0  0
   47.6360   31.2330   48.2130 C   0  0  0  0  0  0  0  0  0  0  0  0
   47.3870   31.9850   47.1540 N   0  0  0  0  0  0  0  0  0  0  0  0
   45.7487   35.5091   42.5359 H   0  0  0  0  0  0  0  0  0  0  0  0
   47.6792   33.8788   42.8113 H   0  0  0  0  0  0  0  0  0  0  0  0
   43.7573   36.5049   43.4740 H   0  0  0  0  0  0  0  0  0  0  0  0
   43.1439   36.0610   45.0894 H   0  0  0  0  0  0  0  0  0  0  0  0
   44.2839   33.0866   47.7702 H   0  0  0  0  0  0  0  0  0  0  0  0
   44.6644   31.6935   49.7880 H   0  0  0  0  0  0  0  0  0  0  0  0
   46.8422   30.4910   50.0858 H   0  0  0  0  0  0  0  0  0  0  0  0
   48.6007   30.7144   48.3149 H   0  0  0  0  0  0  0  0  0  0  0  0
  1  6  2  0
  2  3  2  0
  2  1  1  0
  3  4  1  0
  4  5  2  0
  5  8  1  0
  6  5  1  0
  7  1  1  0
  8 13  1  0
  8  9  2  0
  9 10  1  0
 10 11  2  0
 12 11  1  0
 13 12  2  0
  2 14  1  0
  3 15  1  0
  7 16  1  0
  7 17  1  0
  9 18  1  0
 10 19  1  0
 11 20  1  0
 12 21  1  0
M  ISO  6  14  14  15  14  18  14  19  14  20  14  21  14
M  END
>  <minimizedAffinity>  (1) 
-5.12227201

>  <minimizedRMSD>  (1) 
1.46396267

$$$$
