
     RDKit          3D

 30 32  0  0  1  0  0  0  0  0999 V2000
   45.8520   32.3750   44.3620 C   0  0  1  0  0  0  0  0  0  0  0  0
   47.1780   31.9590   44.8890 C   0  0  0  0  0  0  0  0  0  0  0  0
   45.9180   31.9490   45.7730 C   0  0  2  0  0  0  0  0  0  0  0  0
   44.6890   35.8920   44.6060 C   0  0  0  0  0  0  0  0  0  0  0  0
   45.1530   36.4380   43.3850 C   0  0  0  0  0  0  0  0  0  0  0  0
   45.8620   35.5870   42.5050 C   0  0  0  0  0  0  0  0  0  0  0  0
   46.0700   34.3050   42.8510 N   0  0  0  0  0  0  0  0  0  0  0  0
   45.6050   33.8140   44.0440 C   0  0  0  0  0  0  0  0  0  0  0  0
   44.9270   34.6000   44.9030 N   0  0  0  0  0  0  0  0  0  0  0  0
   45.5630   30.4210   47.6230 C   0  0  0  0  0  0  0  0  0  0  0  0
   45.5680   30.6300   46.2620 C   0  0  0  0  0  0  0  0  0  0  0  0
   45.2340   29.5400   45.4870 C   0  0  0  0  0  0  0  0  0  0  0  0
   44.9150   28.3160   46.0390 C   0  0  0  0  0  0  0  0  0  0  0  0
   44.9210   28.1430   47.4060 C   0  0  0  0  0  0  0  0  0  0  0  0
   45.2500   29.2090   48.2460 C   0  0  0  0  0  0  0  0  0  0  0  0
   45.9700   31.7320   48.7120 S   0  0  0  0  0  0  0  0  0  0  0  0
   47.4230   31.5830   49.0830 O   0  0  0  0  0  0  0  0  0  0  0  0
   45.1660   31.5380   49.9610 O   0  0  0  0  0  0  0  0  0  0  0  0
   45.2452   32.0649   43.4985 H   0  0  0  0  0  0  0  0  0  0  0  0
   47.6330   31.0127   44.5612 H   0  0  0  0  0  0  0  0  0  0  0  0
   48.1787   32.4118   44.9494 H   0  0  0  0  0  0  0  0  0  0  0  0
   45.5124   32.4172   46.6820 H   0  0  0  0  0  0  0  0  0  0  0  0
   44.1329   36.5243   45.3137 H   0  0  0  0  0  0  0  0  0  0  0  0
   44.9679   37.4915   43.1284 H   0  0  0  0  0  0  0  0  0  0  0  0
   46.2398   35.9711   41.5460 H   0  0  0  0  0  0  0  0  0  0  0  0
   45.2213   29.6494   44.3925 H   0  0  0  0  0  0  0  0  0  0  0  0
   44.6541   27.4725   45.3830 H   0  0  0  0  0  0  0  0  0  0  0  0
   44.6661   27.1633   47.8365 H   0  0  0  0  0  0  0  0  0  0  0  0
   45.2623   29.1008   49.3406 H   0  0  0  0  0  0  0  0  0  0  0  0
   45.7261   32.9523   48.1391 H   0  0  0  0  0  0  0  0  0  0  0  0
  1  2  1  0
  1  3  1  0
  2  3  1  0
  3 11  1  0
  4  9  2  0
  5  4  1  0
  6  7  1  0
  6  5  2  0
  7  8  2  0
  8  1  1  0
  8  9  1  0
 10 15  2  0
 10 16  1  0
 11 10  1  0
 12 13  1  0
 12 11  2  0
 13 14  2  0
 14 15  1  0
 16 17  2  0
 16 18  2  0
  1 19  1  6
  2 20  1  0
  2 21  1  0
  3 22  1  1
  4 23  1  0
  5 24  1  0
  6 25  1  0
 12 26  1  0
 13 27  1  0
 14 28  1  0
 15 29  1  0
 16 30  1  0
M  ISO  8  19  13  20  13  21  13  22  13  23  14  24  14  25  14  26  14
M  ISO  4  27  14  28  14  29  14  30  11
M  END
>  <minimizedAffinity>  (1) 
-4.60028362

>  <minimizedRMSD>  (1) 
2.61373115

$$$$
