
     RDKit          3D

 34 36  0  0  0  0  0  0  0  0999 V2000
   46.2020   32.6740   47.0170 C   0  0  0  0  0  0  0  0  0  0  0  0
   45.1840   32.4510   47.8840 C   0  0  0  0  0  0  0  0  0  0  0  0
   45.3860   31.7070   49.0170 C   0  0  0  0  0  0  0  0  0  0  0  0
   46.6490   31.1730   49.2810 C   0  0  0  0  0  0  0  0  0  0  0  0
   47.6860   31.4150   48.3760 C   0  0  0  0  0  0  0  0  0  0  0  0
   47.4080   32.1430   47.3040 N   0  0  0  0  0  0  0  0  0  0  0  0
   44.9280   35.0310   44.5240 C   0  0  0  0  0  0  0  0  0  0  0  0
   45.8560   34.8940   43.4780 C   0  0  0  0  0  0  0  0  0  0  0  0
   46.9160   33.9910   43.6370 C   0  0  0  0  0  0  0  0  0  0  0  0
   46.9630   33.3050   44.8140 N   0  0  0  0  0  0  0  0  0  0  0  0
   46.0670   33.4550   45.7900 C   0  0  0  0  0  0  0  0  0  0  0  0
   45.0460   34.3190   45.6490 N   0  0  0  0  0  0  0  0  0  0  0  0
   43.8540   35.9500   44.3570 N   0  0  0  0  0  0  0  0  0  0  0  0
   49.0470   30.8850   48.5860 C   0  0  0  0  0  0  0  0  0  0  0  0
   49.1520   29.4000   48.6360 C   0  0  0  0  0  0  0  0  0  0  0  0
   50.3640   29.1140   49.5210 C   0  0  0  0  0  0  0  0  0  0  0  0
   50.9410   30.4660   49.8680 C   0  0  0  0  0  0  0  0  0  0  0  0
   49.6630   31.3130   49.9020 C   0  0  0  0  0  0  0  0  0  0  0  0
   44.1885   32.8703   47.6765 H   0  0  0  0  0  0  0  0  0  0  0  0
   44.5555   31.5309   49.7165 H   0  0  0  0  0  0  0  0  0  0  0  0
   46.8246   30.5723   50.1856 H   0  0  0  0  0  0  0  0  0  0  0  0
   45.7528   35.4826   42.5545 H   0  0  0  0  0  0  0  0  0  0  0  0
   47.6719   33.8433   42.8516 H   0  0  0  0  0  0  0  0  0  0  0  0
   43.7722   36.4938   43.4861 H   0  0  0  0  0  0  0  0  0  0  0  0
   43.1586   36.0712   45.1071 H   0  0  0  0  0  0  0  0  0  0  0  0
   49.5626   31.2964   47.7057 H   0  0  0  0  0  0  0  0  0  0  0  0
   48.2425   28.9635   49.0745 H   0  0  0  0  0  0  0  0  0  0  0  0
   49.2624   28.9615   47.6332 H   0  0  0  0  0  0  0  0  0  0  0  0
   50.0564   28.5821   50.4334 H   0  0  0  0  0  0  0  0  0  0  0  0
   51.1001   28.4761   49.0098 H   0  0  0  0  0  0  0  0  0  0  0  0
   51.4464   30.4536   50.8450 H   0  0  0  0  0  0  0  0  0  0  0  0
   51.7130   30.8277   49.1729 H   0  0  0  0  0  0  0  0  0  0  0  0
   49.8846   32.3903   49.9206 H   0  0  0  0  0  0  0  0  0  0  0  0
   49.0267   31.1666   50.7873 H   0  0  0  0  0  0  0  0  0  0  0  0
  1  6  1  0
  1  2  2  0
  2  3  1  0
  3  4  2  0
  5 14  1  0
  5  4  1  0
  6  5  2  0
  7 12  2  0
  8  9  2  0
  8  7  1  0
  9 10  1  0
 10 11  2  0
 11  1  1  0
 12 11  1  0
 13  7  1  0
 14 15  1  0
 14 18  1  0
 15 16  1  0
 16 17  1  0
 17 18  1  0
  2 19  1  0
  3 20  1  0
  4 21  1  0
  8 22  1  0
  9 23  1  0
 13 24  1  0
 13 25  1  0
 14 26  1  0
 15 27  1  0
 15 28  1  0
 16 29  1  0
 16 30  1  0
 17 31  1  0
 17 32  1  0
 18 33  1  0
 18 34  1  0
M  ISO  8  19  14  20  14  21  14  22  14  23  14  26  13  27  13  28  13
M  ISO  6  29  13  30  13  31  13  32  13  33  13  34  13
M  END
>  <minimizedAffinity>  (1) 
-6.02551699

>  <minimizedRMSD>  (1) 
0.266285777

$$$$
