
     RDKit          3D

 28 30  0  0  0  0  0  0  0  0999 V2000
   46.1450   32.6620   47.0840 C   0  0  0  0  0  0  0  0  0  0  0  0
   45.0790   32.3320   47.8490 C   0  0  0  0  0  0  0  0  0  0  0  0
   45.2770   31.6030   48.9930 C   0  0  0  0  0  0  0  0  0  0  0  0
   46.5750   31.2040   49.3640 C   0  0  0  0  0  0  0  0  0  0  0  0
   47.6360   31.5590   48.5590 C   0  0  0  0  0  0  0  0  0  0  0  0
   47.3680   32.2580   47.4790 N   0  0  0  0  0  0  0  0  0  0  0  0
   44.9250   35.0170   44.5560 C   0  0  0  0  0  0  0  0  0  0  0  0
   45.8710   34.8560   43.5300 C   0  0  0  0  0  0  0  0  0  0  0  0
   46.9290   33.9350   43.7120 C   0  0  0  0  0  0  0  0  0  0  0  0
   46.9480   33.2660   44.8840 N   0  0  0  0  0  0  0  0  0  0  0  0
   46.0370   33.4350   45.8480 C   0  0  0  0  0  0  0  0  0  0  0  0
   45.0420   34.3050   45.6690 N   0  0  0  0  0  0  0  0  0  0  0  0
   43.8740   35.9470   44.3480 N   0  0  0  0  0  0  0  0  0  0  0  0
   48.9790   31.1410   48.9520 C   0  0  0  0  0  0  0  0  0  0  0  0
   49.9410   31.8650   49.6180 C   0  0  0  0  0  0  0  0  0  0  0  0
   50.9830   30.9690   49.7100 C   0  0  0  0  0  0  0  0  0  0  0  0
   50.6910   29.7810   49.1480 N   0  0  0  0  0  0  0  0  0  0  0  0
   49.4700   29.9160   48.6970 N   0  0  0  0  0  0  0  0  0  0  0  0
   44.0658   32.6448   47.5566 H   0  0  0  0  0  0  0  0  0  0  0  0
   44.4183   31.3288   49.6234 H   0  0  0  0  0  0  0  0  0  0  0  0
   46.7397   30.6188   50.2808 H   0  0  0  0  0  0  0  0  0  0  0  0
   45.7902   35.4371   42.5995 H   0  0  0  0  0  0  0  0  0  0  0  0
   47.6953   33.7727   42.9397 H   0  0  0  0  0  0  0  0  0  0  0  0
   43.8232   36.4782   43.4670 H   0  0  0  0  0  0  0  0  0  0  0  0
   43.1618   36.0910   45.0780 H   0  0  0  0  0  0  0  0  0  0  0  0
   49.8905   32.9007   49.9852 H   0  0  0  0  0  0  0  0  0  0  0  0
   51.9462   31.1985   50.1892 H   0  0  0  0  0  0  0  0  0  0  0  0
   51.2954   28.9492   49.0866 H   0  0  0  0  0  0  0  0  0  0  0  0
  1  6  1  0
  1  2  2  0
  2  3  1  0
  3  4  2  0
  5 14  1  0
  5  4  1  0
  6  5  2  0
  7 12  2  0
  8  9  2  0
  8  7  1  0
  9 10  1  0
 10 11  2  0
 11  1  1  0
 12 11  1  0
 13  7  1  0
 14 15  1  0
 15 16  2  0
 17 16  1  0
 18 14  2  0
 18 17  1  0
  2 19  1  0
  3 20  1  0
  4 21  1  0
  8 22  1  0
  9 23  1  0
 13 24  1  0
 13 25  1  0
 15 26  1  0
 16 27  1  0
 17 28  1  0
M  ISO  8  19  14  20  14  21  14  22  14  23  14  26  14  27  14  28   9
M  END
>  <minimizedAffinity>  (1) 
-5.98497534

>  <minimizedRMSD>  (1) 
0.666135669

$$$$
