
     RDKit          3D

 23 24  0  0  1  0  0  0  0  0999 V2000
   45.8840   32.5130   44.8780 C   0  0  1  0  0  0  0  0  0  0  0  0
   47.2610   31.9710   44.7680 C   0  0  0  0  0  0  0  0  0  0  0  0
   46.6440   32.2910   46.1320 C   0  0  2  0  0  0  0  0  0  0  0  0
   44.5960   35.9830   44.8040 C   0  0  0  0  0  0  0  0  0  0  0  0
   45.0360   36.4350   43.5280 C   0  0  0  0  0  0  0  0  0  0  0  0
   45.7660   35.5400   42.7380 C   0  0  0  0  0  0  0  0  0  0  0  0
   46.0280   34.3010   43.1930 N   0  0  0  0  0  0  0  0  0  0  0  0
   45.5900   33.8970   44.4260 C   0  0  0  0  0  0  0  0  0  0  0  0
   44.8840   34.7370   45.2140 N   0  0  0  0  0  0  0  0  0  0  0  0
   46.4560   31.1730   46.9120 O   0  0  0  0  0  0  0  0  0  0  0  0
   47.9340   31.8140   48.9720 O   0  0  0  0  0  0  0  0  0  0  0  0
   46.4980   31.5990   48.5510 P   0  0  0  0  0  0  0  0  0  0  0  0
   45.7600   30.3390   49.4080 O   0  0  0  0  0  0  0  0  0  0  0  0
   45.6200   33.0420   48.7380 O   0  0  0  0  0  0  0  0  0  0  0  0
   44.9017   32.1834   44.5087 H   0  0  0  0  0  0  0  0  0  0  0  0
   47.4213   30.9258   44.4651 H   0  0  0  0  0  0  0  0  0  0  0  0
   48.1779   32.2618   44.2344 H   0  0  0  0  0  0  0  0  0  0  0  0
   46.8269   32.9392   47.0017 H   0  0  0  0  0  0  0  0  0  0  0  0
   44.0189   36.6556   45.4556 H   0  0  0  0  0  0  0  0  0  0  0  0
   44.8101   37.4521   43.1753 H   0  0  0  0  0  0  0  0  0  0  0  0
   46.1255   35.8491   41.7454 H   0  0  0  0  0  0  0  0  0  0  0  0
   45.8549   30.5011   50.3800 H   0  0  0  0  0  0  0  0  0  0  0  0
   45.5029   33.2345   49.7020 H   0  0  0  0  0  0  0  0  0  0  0  0
  1  3  1  0
  2  1  1  0
  2  3  1  0
  3 10  1  0
  4  9  2  0
  5  4  1  0
  6  7  1  0
  6  5  2  0
  7  8  2  0
  8  1  1  0
  8  9  1  0
 10 12  1  0
 12 14  1  0
 12 11  2  0
 12 13  1  0
  1 15  1  1
  2 16  1  0
  2 17  1  0
  3 18  1  1
  4 19  1  0
  5 20  1  0
  6 21  1  0
 13 22  1  0
 14 23  1  0
M  ISO  8  15  13  16  13  17  13  18  13  19  14  20  14  21  14  22   3
M  ISO  1  23   3
M  END
>  <minimizedAffinity>  (1) 
-4.59348917

>  <minimizedRMSD>  (1) 
1.32854962

$$$$
