
     RDKit          3D

 23 24  0  0  0  0  0  0  0  0999 V2000
   46.1980   32.6300   46.9730 C   0  0  0  0  0  0  0  0  0  0  0  0
   45.2300   32.5500   47.9290 C   0  0  0  0  0  0  0  0  0  0  0  0
   45.4250   31.7810   49.0430 C   0  0  0  0  0  0  0  0  0  0  0  0
   46.6160   31.0850   49.1940 C   0  0  0  0  0  0  0  0  0  0  0  0
   47.5880   31.1860   48.2000 C   0  0  0  0  0  0  0  0  0  0  0  0
   47.3640   31.9320   47.1440 N   0  0  0  0  0  0  0  0  0  0  0  0
   48.8490   30.4980   48.2750 N   0  0  0  0  0  0  0  0  0  0  0  0
   44.9290   35.0280   44.5180 C   0  0  0  0  0  0  0  0  0  0  0  0
   45.8760   34.8860   43.4800 C   0  0  0  0  0  0  0  0  0  0  0  0
   46.9300   33.9840   43.6190 C   0  0  0  0  0  0  0  0  0  0  0  0
   46.9810   33.2830   44.7740 N   0  0  0  0  0  0  0  0  0  0  0  0
   46.0760   33.4250   45.7530 C   0  0  0  0  0  0  0  0  0  0  0  0
   45.0550   34.2920   45.6270 N   0  0  0  0  0  0  0  0  0  0  0  0
   43.8600   35.9510   44.3590 N   0  0  0  0  0  0  0  0  0  0  0  0
   44.2889   33.1057   47.8042 H   0  0  0  0  0  0  0  0  0  0  0  0
   44.6432   31.7146   49.8140 H   0  0  0  0  0  0  0  0  0  0  0  0
   46.7904   30.4631   50.0844 H   0  0  0  0  0  0  0  0  0  0  0  0
   49.5382   30.6018   47.5166 H   0  0  0  0  0  0  0  0  0  0  0  0
   49.0628   29.9016   49.0871 H   0  0  0  0  0  0  0  0  0  0  0  0
   45.7822   35.4863   42.5630 H   0  0  0  0  0  0  0  0  0  0  0  0
   47.6827   33.8494   42.8282 H   0  0  0  0  0  0  0  0  0  0  0  0
   43.7839   36.5071   43.4953 H   0  0  0  0  0  0  0  0  0  0  0  0
   43.1614   36.0638   45.1074 H   0  0  0  0  0  0  0  0  0  0  0  0
  1  6  1  0
  1  2  2  0
  2  3  1  0
  3  4  2  0
  5  7  1  0
  5  4  1  0
  6  5  2  0
  8 13  2  0
  9 10  2  0
  9  8  1  0
 10 11  1  0
 11 12  2  0
 12  1  1  0
 13 12  1  0
 14  8  1  0
  2 15  1  0
  3 16  1  0
  4 17  1  0
  7 18  1  0
  7 19  1  0
  9 20  1  0
 10 21  1  0
 14 22  1  0
 14 23  1  0
M  ISO  5  15  14  16  14  17  14  20  14  21  14
M  END
>  <minimizedAffinity>  (1) 
-5.3268652

>  <minimizedRMSD>  (1) 
0.0671844333

$$$$
