
     RDKit          3D

 32 34  0  0  1  0  0  0  0  0999 V2000
   46.5270   32.6700   45.5000 C   0  0  1  0  0  0  0  0  0  0  0  0
   47.0040   32.7140   46.9000 C   0  0  0  0  0  0  0  0  0  0  0  0
   45.7140   31.9700   46.5210 C   0  0  2  0  0  0  0  0  0  0  0  0
   44.5430   35.7310   44.8270 C   0  0  0  0  0  0  0  0  0  0  0  0
   44.9950   36.0970   43.5240 C   0  0  0  0  0  0  0  0  0  0  0  0
   45.9810   35.2800   42.9160 C   0  0  0  0  0  0  0  0  0  0  0  0
   46.4390   34.2070   43.5890 N   0  0  0  0  0  0  0  0  0  0  0  0
   45.9750   33.8940   44.8380 C   0  0  0  0  0  0  0  0  0  0  0  0
   45.0360   34.6560   45.4430 N   0  0  0  0  0  0  0  0  0  0  0  0
   45.7450   30.5540   46.7090 N   0  0  0  0  0  0  0  0  0  0  0  0
   45.4460   29.8270   45.4930 C   0  0  0  0  0  0  0  0  0  0  0  0
   44.3930   28.7790   45.6920 C   0  0  0  0  0  0  0  0  0  0  0  0
   44.5920   27.9090   46.8960 C   0  0  0  0  0  0  0  0  0  0  0  0
   45.1620   28.6530   48.0910 C   0  0  0  0  0  0  0  0  0  0  0  0
   44.9080   30.1260   47.8120 C   0  0  0  0  0  0  0  0  0  0  0  0
   46.9997   32.3725   44.5524 H   0  0  0  0  0  0  0  0  0  0  0  0
   47.9009   32.1506   47.1970 H   0  0  0  0  0  0  0  0  0  0  0  0
   47.2719   33.5073   47.6134 H   0  0  0  0  0  0  0  0  0  0  0  0
   44.6401   31.9961   46.7580 H   0  0  0  0  0  0  0  0  0  0  0  0
   43.7790   36.3427   45.3291 H   0  0  0  0  0  0  0  0  0  0  0  0
   44.5925   36.9820   43.0094 H   0  0  0  0  0  0  0  0  0  0  0  0
   46.3650   35.5179   41.9130 H   0  0  0  0  0  0  0  0  0  0  0  0
   46.3661   29.3391   45.1390 H   0  0  0  0  0  0  0  0  0  0  0  0
   45.0617   30.5501   44.7585 H   0  0  0  0  0  0  0  0  0  0  0  0
   43.4213   29.2848   45.7921 H   0  0  0  0  0  0  0  0  0  0  0  0
   44.4482   28.1145   44.8172 H   0  0  0  0  0  0  0  0  0  0  0  0
   43.6193   27.4826   47.1825 H   0  0  0  0  0  0  0  0  0  0  0  0
   45.3211   27.1333   46.6189 H   0  0  0  0  0  0  0  0  0  0  0  0
   44.6523   28.3434   49.0153 H   0  0  0  0  0  0  0  0  0  0  0  0
   46.2328   28.4428   48.2295 H   0  0  0  0  0  0  0  0  0  0  0  0
   45.1495   30.7170   48.7078 H   0  0  0  0  0  0  0  0  0  0  0  0
   43.8497   30.2755   47.5521 H   0  0  0  0  0  0  0  0  0  0  0  0
  1  3  1  0
  1  2  1  0
  3 10  1  0
  3  2  1  0
  4  9  2  0
  5  4  1  0
  6  5  2  0
  6  7  1  0
  7  8  2  0
  8  9  1  0
  8  1  1  0
 10 15  1  0
 11 12  1  0
 11 10  1  0
 12 13  1  0
 13 14  1  0
 15 14  1  0
  1 16  1  6
  2 17  1  0
  2 18  1  0
  3 19  1  1
  4 20  1  0
  5 21  1  0
  6 22  1  0
 11 23  1  0
 11 24  1  0
 12 25  1  0
 12 26  1  0
 13 27  1  0
 13 28  1  0
 14 29  1  0
 14 30  1  0
 15 31  1  0
 15 32  1  0
M  ISO  8  16  13  17  13  18  13  19  13  20  14  21  14  22  14  23  13
M  ISO  8  24  13  25  13  26  13  27  13  28  13  29  13  30  13  31  13
M  ISO  1  32  13
M  END
>  <minimizedAffinity>  (1) 
-4.42599487

>  <minimizedRMSD>  (1) 
1.43395889

$$$$
