
     RDKit          3D

 24 26  0  0  1  0  0  0  0  0999 V2000
   46.0020   32.6200   45.8520 C   0  0  1  0  0  0  0  0  0  0  0  0
   47.1480   32.6420   46.7970 C   0  0  0  0  0  0  0  0  0  0  0  0
   45.7000   32.5780   47.3050 C   0  0  2  0  0  0  0  0  0  0  0  0
   44.5230   35.8890   44.8990 C   0  0  0  0  0  0  0  0  0  0  0  0
   45.0330   36.0730   43.5790 C   0  0  0  0  0  0  0  0  0  0  0  0
   45.8810   35.0610   43.0570 C   0  0  0  0  0  0  0  0  0  0  0  0
   46.1660   33.9860   43.8150 N   0  0  0  0  0  0  0  0  0  0  0  0
   45.6520   33.8520   45.0800 C   0  0  0  0  0  0  0  0  0  0  0  0
   44.8420   34.8020   45.6020 N   0  0  0  0  0  0  0  0  0  0  0  0
   45.2660   31.2990   47.9840 C   0  0  0  0  0  0  0  0  0  0  0  0
   44.8850   31.4460   49.4910 C   0  0  0  0  0  0  0  0  0  0  0  0
   46.1890   30.8610   49.1310 C   0  0  0  0  0  0  0  0  0  0  0  0
   45.7406   31.9857   44.9921 H   0  0  0  0  0  0  0  0  0  0  0  0
   47.8059   31.7653   46.8892 H   0  0  0  0  0  0  0  0  0  0  0  0
   48.0111   33.3020   46.9683 H   0  0  0  0  0  0  0  0  0  0  0  0
   45.0448   33.1699   47.9611 H   0  0  0  0  0  0  0  0  0  0  0  0
   43.8618   36.6496   45.3398 H   0  0  0  0  0  0  0  0  0  0  0  0
   44.7787   36.9653   42.9882 H   0  0  0  0  0  0  0  0  0  0  0  0
   46.3004   35.1545   42.0444 H   0  0  0  0  0  0  0  0  0  0  0  0
   44.8124   30.8375   47.0945 H   0  0  0  0  0  0  0  0  0  0  0  0
   44.8404   32.4446   49.9501 H   0  0  0  0  0  0  0  0  0  0  0  0
   44.0355   31.1206   50.1094 H   0  0  0  0  0  0  0  0  0  0  0  0
   46.3699   29.7898   49.3036 H   0  0  0  0  0  0  0  0  0  0  0  0
   47.2297   31.0908   49.4032 H   0  0  0  0  0  0  0  0  0  0  0  0
  1  2  1  0
  1  3  1  0
  2  3  1  0
  3 10  1  0
  4  9  2  0
  5  4  1  0
  6  5  2  0
  6  7  1  0
  7  8  2  0
  8  9  1  0
  8  1  1  0
 10 12  1  0
 10 11  1  0
 12 11  1  0
  1 13  1  6
  2 14  1  0
  2 15  1  0
  3 16  1  1
  4 17  1  0
  5 18  1  0
  6 19  1  0
 10 20  1  0
 11 21  1  0
 11 22  1  0
 12 23  1  0
 12 24  1  0
M  ISO  8  13  13  14  13  15  13  16  13  17  14  18  14  19  14  20  13
M  ISO  4  21  13  22  13  23  13  24  13
M  END
>  <minimizedAffinity>  (1) 
-4.37004232

>  <minimizedRMSD>  (1) 
0.706217825

$$$$
