
     RDKit          3D

 35 37  0  0  0  0  0  0  0  0999 V2000
   46.1660   32.5480   46.9840 C   0  0  0  0  0  0  0  0  0  0  0  0
   45.2630   32.5950   47.9860 C   0  0  0  0  0  0  0  0  0  0  0  0
   45.4490   31.7810   49.0860 C   0  0  0  0  0  0  0  0  0  0  0  0
   46.5490   30.9330   49.1450 C   0  0  0  0  0  0  0  0  0  0  0  0
   47.4520   30.9230   48.0830 C   0  0  0  0  0  0  0  0  0  0  0  0
   47.2270   31.7130   47.0700 N   0  0  0  0  0  0  0  0  0  0  0  0
   44.9610   35.0090   44.5520 C   0  0  0  0  0  0  0  0  0  0  0  0
   45.9270   34.8720   43.5150 C   0  0  0  0  0  0  0  0  0  0  0  0
   46.9820   33.9380   43.6610 C   0  0  0  0  0  0  0  0  0  0  0  0
   46.9660   33.2470   44.8030 N   0  0  0  0  0  0  0  0  0  0  0  0
   46.0580   33.3740   45.7790 C   0  0  0  0  0  0  0  0  0  0  0  0
   45.0580   34.2630   45.6350 N   0  0  0  0  0  0  0  0  0  0  0  0
   43.9180   35.9450   44.3920 N   0  0  0  0  0  0  0  0  0  0  0  0
   48.6120   30.0480   48.1150 C   0  0  0  0  0  0  0  0  0  0  0  0
   49.7410   30.3510   48.7510 C   0  0  0  0  0  0  0  0  0  0  0  0
   49.9110   31.6240   49.4870 C   0  0  0  0  0  0  0  0  0  0  0  0
   50.5700   31.4590   50.8050 C   0  0  0  0  0  0  0  0  0  0  0  0
   50.6720   30.2340   51.4740 C   0  0  0  0  0  0  0  0  0  0  0  0
   51.3290   30.4920   52.6260 N   0  0  0  0  0  0  0  0  0  0  0  0
   51.6330   31.8140   52.6910 C   0  0  0  0  0  0  0  0  0  0  0  0
   51.1640   32.4040   51.5690 N   0  0  0  0  0  0  0  0  0  0  0  0
   44.3955   33.2688   47.9276 H   0  0  0  0  0  0  0  0  0  0  0  0
   44.7268   31.8036   49.9154 H   0  0  0  0  0  0  0  0  0  0  0  0
   46.7045   30.2799   50.0164 H   0  0  0  0  0  0  0  0  0  0  0  0
   45.8545   35.4875   42.6062 H   0  0  0  0  0  0  0  0  0  0  0  0
   47.7552   33.7932   42.8921 H   0  0  0  0  0  0  0  0  0  0  0  0
   43.8649   36.5156   43.5362 H   0  0  0  0  0  0  0  0  0  0  0  0
   43.2095   36.0579   45.1310 H   0  0  0  0  0  0  0  0  0  0  0  0
   48.5537   29.0853   47.5860 H   0  0  0  0  0  0  0  0  0  0  0  0
   50.5740   29.6329   48.7291 H   0  0  0  0  0  0  0  0  0  0  0  0
   50.5226   32.3022   48.8739 H   0  0  0  0  0  0  0  0  0  0  0  0
   48.9049   32.0270   49.6753 H   0  0  0  0  0  0  0  0  0  0  0  0
   50.2941   29.2594   51.1316 H   0  0  0  0  0  0  0  0  0  0  0  0
   51.5635   29.7929   53.3451 H   0  0  0  0  0  0  0  0  0  0  0  0
   52.1666   32.3159   53.5116 H   0  0  0  0  0  0  0  0  0  0  0  0
  1  6  1  0
  1  2  2  0
  2  3  1  0
  3  4  2  0
  5 14  1  0
  5  4  1  0
  6  5  2  0
  7 12  2  0
  8  9  2  0
  8  7  1  0
  9 10  1  0
 10 11  2  0
 11  1  1  0
 12 11  1  0
 13  7  1  0
 14 15  2  0
 15 16  1  0
 16 17  1  0
 17 18  2  0
 17 21  1  0
 18 19  1  0
 19 20  1  0
 21 20  2  0
  2 22  1  0
  3 23  1  0
  4 24  1  0
  8 25  1  0
  9 26  1  0
 13 27  1  0
 13 28  1  0
 14 29  1  0
 15 30  1  0
 16 31  1  0
 16 32  1  0
 18 33  1  0
 19 34  1  0
 20 35  1  0
M  ISO  8  22  14  23  14  24  14  25  14  26  14  31   8  32   8  33  14
M  ISO  2  34   9  35  14
M  END
>  <minimizedAffinity>  (1) 
-6.45461464

>  <minimizedRMSD>  (1) 
0.549522579

$$$$
