
     RDKit          3D

 18 19  0  0  1  0  0  0  0  0999 V2000
   44.5480   35.8830   44.7440 C   0  0  0  0  0  0  0  0  0  0  0  0
   45.1660   36.0270   43.4870 C   0  0  0  0  0  0  0  0  0  0  0  0
   46.0810   35.0310   43.0610 C   0  0  0  0  0  0  0  0  0  0  0  0
   46.3170   33.9760   43.8930 N   0  0  0  0  0  0  0  0  0  0  0  0
   45.6920   33.8770   45.1090 C   0  0  0  0  0  0  0  0  0  0  0  0
   44.8220   34.8320   45.5110 N   0  0  0  0  0  0  0  0  0  0  0  0
   45.9700   32.6920   45.9470 C   0  0  1  0  0  0  0  0  0  0  0  0
   46.9470   32.7520   47.0590 C   0  0  0  0  0  0  0  0  0  0  0  0
   45.4430   32.6410   47.3380 C   0  0  1  0  0  0  0  0  0  0  0  0
   44.9000   33.7650   47.9270 O   0  0  0  0  0  0  0  0  0  0  0  0
   43.8347   36.6441   45.0933 H   0  0  0  0  0  0  0  0  0  0  0  0
   44.9435   36.8946   42.8484 H   0  0  0  0  0  0  0  0  0  0  0  0
   46.5864   35.1069   42.0869 H   0  0  0  0  0  0  0  0  0  0  0  0
   45.8768   32.0500   45.0587 H   0  0  0  0  0  0  0  0  0  0  0  0
   47.6103   31.8974   47.2582 H   0  0  0  0  0  0  0  0  0  0  0  0
   47.7502   33.4411   47.3592 H   0  0  0  0  0  0  0  0  0  0  0  0
   44.7465   31.9595   47.8484 H   0  0  0  0  0  0  0  0  0  0  0  0
   44.9434   33.6751   48.9120 H   0  0  0  0  0  0  0  0  0  0  0  0
  1  6  2  0
  2  1  1  0
  3  2  2  0
  3  4  1  0
  4  5  2  0
  5  6  1  0
  5  7  1  0
  7  8  1  0
  7  9  1  0
  8  9  1  0
  9 10  1  0
  1 11  1  0
  2 12  1  0
  3 13  1  0
  7 14  1  6
  8 15  1  0
  8 16  1  0
  9 17  1  6
 10 18  1  0
M  ISO  8  11  14  12  14  13  14  14  13  15  13  16  13  17  13  18   3
M  END
>  <minimizedAffinity>  (1) 
-4.26844931

>  <minimizedRMSD>  (1) 
0.129775628

$$$$
