
     RDKit          3D

 32 34  0  0  0  0  0  0  0  0999 V2000
   45.5660   34.4430   44.1260 C   0  0  0  0  0  0  0  0  0  0  0  0
   46.5410   34.2840   43.1190 C   0  0  0  0  0  0  0  0  0  0  0  0
   47.5790   33.3580   43.2960 C   0  0  0  0  0  0  0  0  0  0  0  0
   47.5590   32.6630   44.4670 N   0  0  0  0  0  0  0  0  0  0  0  0
   46.6220   32.8300   45.4080 C   0  0  0  0  0  0  0  0  0  0  0  0
   45.6320   33.7060   45.2530 N   0  0  0  0  0  0  0  0  0  0  0  0
   48.5920   33.1470   42.3290 N   0  0  0  0  0  0  0  0  0  0  0  0
   49.6740   34.0820   42.0990 C   0  0  0  0  0  0  0  0  0  0  0  0
   50.9620   33.3390   42.3890 C   0  0  0  0  0  0  0  0  0  0  0  0
   51.0930   32.1810   41.4390 C   0  0  0  0  0  0  0  0  0  0  0  0
   49.8490   31.9160   40.6490 C   0  0  0  0  0  0  0  0  0  0  0  0
   48.5930   31.9550   41.5040 C   0  0  0  0  0  0  0  0  0  0  0  0
   44.5020   35.4400   43.8880 C   0  0  0  0  0  0  0  0  0  0  0  0
   45.0630   36.8400   43.5370 C   0  0  0  0  0  0  0  0  0  0  0  0
   44.2480   36.0330   42.5930 C   0  0  0  0  0  0  0  0  0  0  0  0
   46.4872   34.8840   42.1986 H   0  0  0  0  0  0  0  0  0  0  0  0
   46.6711   32.2306   46.3290 H   0  0  0  0  0  0  0  0  0  0  0  0
   49.6620   34.4259   41.0542 H   0  0  0  0  0  0  0  0  0  0  0  0
   49.5748   34.9676   42.7439 H   0  0  0  0  0  0  0  0  0  0  0  0
   51.8162   34.0197   42.2584 H   0  0  0  0  0  0  0  0  0  0  0  0
   50.9472   32.9665   43.4239 H   0  0  0  0  0  0  0  0  0  0  0  0
   51.9123   32.3966   40.7374 H   0  0  0  0  0  0  0  0  0  0  0  0
   51.2897   31.2844   42.0452 H   0  0  0  0  0  0  0  0  0  0  0  0
   49.7627   32.6792   39.8615 H   0  0  0  0  0  0  0  0  0  0  0  0
   49.9325   30.9038   40.2264 H   0  0  0  0  0  0  0  0  0  0  0  0
   47.7078   31.9631   40.8510 H   0  0  0  0  0  0  0  0  0  0  0  0
   48.5698   31.0668   42.1525 H   0  0  0  0  0  0  0  0  0  0  0  0
   43.8223   34.9610   44.6080 H   0  0  0  0  0  0  0  0  0  0  0  0
   44.6441   37.7429   44.0054 H   0  0  0  0  0  0  0  0  0  0  0  0
   46.0526   37.3200   43.5240 H   0  0  0  0  0  0  0  0  0  0  0  0
   43.2293   36.3632   42.3414 H   0  0  0  0  0  0  0  0  0  0  0  0
   44.4081   35.6891   41.5605 H   0  0  0  0  0  0  0  0  0  0  0  0
  1  6  2  0
  2  3  2  0
  2  1  1  0
  3  4  1  0
  4  5  2  0
  6  5  1  0
  7  3  1  0
  8  7  1  0
  8  9  1  0
 10  9  1  0
 11 10  1  0
 11 12  1  0
 12  7  1  0
 13  1  1  0
 14 13  1  0
 15 14  1  0
 15 13  1  0
  2 16  1  0
  5 17  1  0
  8 18  1  0
  8 19  1  0
  9 20  1  0
  9 21  1  0
 10 22  1  0
 10 23  1  0
 11 24  1  0
 11 25  1  0
 12 26  1  0
 12 27  1  0
 13 28  1  0
 14 29  1  0
 14 30  1  0
 15 31  1  0
 15 32  1  0
M  ISO  8  16  14  17  14  18  13  19  13  20  13  21  13  22  13  23  13
M  ISO  8  24  13  25  13  26  13  27  13  28  13  29  13  30  13  31  13
M  ISO  1  32  13
M  END
>  <minimizedAffinity>  (1) 
-4.35620689

>  <minimizedRMSD>  (1) 
2.03069758

$$$$
