
     RDKit          3D

 33 35  0  0  0  0  0  0  0  0999 V2000
   44.7450   33.5510   42.8350 C   0  0  0  0  0  0  0  0  0  0  0  0
   43.8080   34.0420   41.9010 C   0  0  0  0  0  0  0  0  0  0  0  0
   42.9260   33.1310   41.2810 C   0  0  0  0  0  0  0  0  0  0  0  0
   43.0460   31.8210   41.6350 N   0  0  0  0  0  0  0  0  0  0  0  0
   43.9670   31.3950   42.5400 C   0  0  0  0  0  0  0  0  0  0  0  0
   44.8080   32.2340   43.1380 N   0  0  0  0  0  0  0  0  0  0  0  0
   45.6550   34.5390   43.4550 C   0  0  0  0  0  0  0  0  0  0  0  0
   46.7540   35.0300   42.4760 C   0  0  0  0  0  0  0  0  0  0  0  0
   45.7180   35.9270   43.0490 C   0  0  0  0  0  0  0  0  0  0  0  0
   41.8980   33.4920   40.2930 C   0  0  0  0  0  0  0  0  0  0  0  0
   40.5620   33.4730   41.0070 C   0  0  0  0  0  0  0  0  0  0  0  0
   40.2910   34.9050   41.4580 C   0  0  0  0  0  0  0  0  0  0  0  0
   39.9330   35.7270   40.2250 C   0  0  0  0  0  0  0  0  0  0  0  0
   40.8250   35.3090   39.0690 C   0  0  0  0  0  0  0  0  0  0  0  0
   42.1550   34.8260   39.6380 C   0  0  0  0  0  0  0  0  0  0  0  0
   43.7658   35.1146   41.6606 H   0  0  0  0  0  0  0  0  0  0  0  0
   44.0181   30.3238   42.7850 H   0  0  0  0  0  0  0  0  0  0  0  0
   45.5526   34.0841   44.4513 H   0  0  0  0  0  0  0  0  0  0  0  0
   46.7222   34.7473   41.4134 H   0  0  0  0  0  0  0  0  0  0  0  0
   47.8531   35.0067   42.4371 H   0  0  0  0  0  0  0  0  0  0  0  0
   46.0128   36.6906   43.7838 H   0  0  0  0  0  0  0  0  0  0  0  0
   44.9863   36.6163   42.6024 H   0  0  0  0  0  0  0  0  0  0  0  0
   41.9126   32.7635   39.4689 H   0  0  0  0  0  0  0  0  0  0  0  0
   39.7703   33.1339   40.3227 H   0  0  0  0  0  0  0  0  0  0  0  0
   40.5786   32.7828   41.8634 H   0  0  0  0  0  0  0  0  0  0  0  0
   39.4545   34.9195   42.1722 H   0  0  0  0  0  0  0  0  0  0  0  0
   41.1794   35.3247   41.9525 H   0  0  0  0  0  0  0  0  0  0  0  0
   38.8801   35.5517   39.9591 H   0  0  0  0  0  0  0  0  0  0  0  0
   40.0812   36.7959   40.4380 H   0  0  0  0  0  0  0  0  0  0  0  0
   40.9958   36.1671   38.4023 H   0  0  0  0  0  0  0  0  0  0  0  0
   40.3453   34.5038   38.4932 H   0  0  0  0  0  0  0  0  0  0  0  0
   42.8928   34.7138   38.8299 H   0  0  0  0  0  0  0  0  0  0  0  0
   42.5559   35.5484   40.3643 H   0  0  0  0  0  0  0  0  0  0  0  0
  1  6  1  0
  1  7  1  0
  2  1  2  0
  3  4  2  0
  3  2  1  0
  4  5  1  0
  5  6  2  0
  8  9  1  0
  8  7  1  0
  9  7  1  0
 10 11  1  0
 10  3  1  0
 11 12  1  0
 13 12  1  0
 14 15  1  0
 14 13  1  0
 15 10  1  0
  2 16  1  0
  5 17  1  0
  7 18  1  0
  8 19  1  0
  8 20  1  0
  9 21  1  0
  9 22  1  0
 10 23  1  0
 11 24  1  0
 11 25  1  0
 12 26  1  0
 12 27  1  0
 13 28  1  0
 13 29  1  0
 14 30  1  0
 14 31  1  0
 15 32  1  0
 15 33  1  0
M  ISO  8  16  14  17  14  18  13  19  13  20  13  21  13  22  13  23  13
M  ISO  8  24  13  25  13  26  13  27  13  28  13  29  13  30  13  31  13
M  ISO  2  32  13  33  13
M  END
>  <minimizedAffinity>  (1) 
-4.28411436

>  <minimizedRMSD>  (1) 
7.05428076

$$$$
