
     RDKit          3D

 24 26  0  0  0  0  0  0  0  0999 V2000
   45.4220   34.5610   44.2380 C   0  0  0  0  0  0  0  0  0  0  0  0
   46.5060   34.2180   43.4050 C   0  0  0  0  0  0  0  0  0  0  0  0
   47.4450   33.2920   43.8600 C   0  0  0  0  0  0  0  0  0  0  0  0
   47.2560   32.7680   45.0980 N   0  0  0  0  0  0  0  0  0  0  0  0
   46.2130   33.1160   45.8670 C   0  0  0  0  0  0  0  0  0  0  0  0
   45.3090   34.0010   45.4420 N   0  0  0  0  0  0  0  0  0  0  0  0
   44.4420   35.5530   43.7400 C   0  0  0  0  0  0  0  0  0  0  0  0
   45.0990   36.8930   43.3090 C   0  0  0  0  0  0  0  0  0  0  0  0
   44.3710   35.9900   42.3640 C   0  0  0  0  0  0  0  0  0  0  0  0
   48.6120   32.8480   43.1010 C   0  0  0  0  0  0  0  0  0  0  0  0
   49.6740   33.6590   42.6460 C   0  0  0  0  0  0  0  0  0  0  0  0
   50.6570   33.0460   41.9610 C   0  0  0  0  0  0  0  0  0  0  0  0
   50.5840   31.6280   41.7300 C   0  0  0  0  0  0  0  0  0  0  0  0
   48.9430   31.2160   42.5970 S   0  0  0  0  0  0  0  0  0  0  0  0
   46.6102   34.6743   42.4095 H   0  0  0  0  0  0  0  0  0  0  0  0
   46.1012   32.6646   46.8638 H   0  0  0  0  0  0  0  0  0  0  0  0
   43.6587   35.1786   44.4155 H   0  0  0  0  0  0  0  0  0  0  0  0
   44.6602   37.8545   43.6137 H   0  0  0  0  0  0  0  0  0  0  0  0
   46.0997   37.3458   43.3680 H   0  0  0  0  0  0  0  0  0  0  0  0
   43.4039   36.3103   41.9490 H   0  0  0  0  0  0  0  0  0  0  0  0
   44.6434   35.5202   41.4074 H   0  0  0  0  0  0  0  0  0  0  0  0
   49.6971   34.7411   42.8421 H   0  0  0  0  0  0  0  0  0  0  0  0
   51.5108   33.6256   41.5802 H   0  0  0  0  0  0  0  0  0  0  0  0
   51.2836   30.9658   41.1990 H   0  0  0  0  0  0  0  0  0  0  0  0
  1  6  2  0
  2  3  2  0
  2  1  1  0
  3  4  1  0
  4  5  2  0
  6  5  1  0
  7  1  1  0
  8  7  1  0
  9  8  1  0
  9  7  1  0
 10  3  1  0
 11 10  2  0
 12 11  1  0
 13 12  2  0
 13 14  1  0
 14 10  1  0
  2 15  1  0
  5 16  1  0
  7 17  1  0
  8 18  1  0
  8 19  1  0
  9 20  1  0
  9 21  1  0
 11 22  1  0
 12 23  1  0
 13 24  1  0
M  ISO  8  15  14  16  14  17  13  18  13  19  13  20  13  21  13  22  14
M  ISO  2  23  14  24  14
M  END
>  <minimizedAffinity>  (1) 
-3.9614327

>  <minimizedRMSD>  (1) 
1.48842704

$$$$
