
     RDKit          3D

 19 20  0  0  0  0  0  0  0  0999 V2000
   45.4760   34.0380   44.5900 C   0  0  0  0  0  0  0  0  0  0  0  0
   46.3900   33.2720   43.8290 C   0  0  0  0  0  0  0  0  0  0  0  0
   47.2060   32.3320   44.4630 C   0  0  0  0  0  0  0  0  0  0  0  0
   47.0700   32.2080   45.8160 N   0  0  0  0  0  0  0  0  0  0  0  0
   46.1780   32.9650   46.5110 C   0  0  0  0  0  0  0  0  0  0  0  0
   45.3910   33.8690   45.9110 N   0  0  0  0  0  0  0  0  0  0  0  0
   48.1110   31.5770   43.6950 N   0  0  0  0  0  0  0  0  0  0  0  0
   44.6350   35.0230   43.8840 C   0  0  0  0  0  0  0  0  0  0  0  0
   44.7780   36.4580   44.4460 C   0  0  0  0  0  0  0  0  0  0  0  0
   45.1640   36.0840   43.0570 C   0  0  0  0  0  0  0  0  0  0  0  0
   46.4580   33.4162   42.7406 H   0  0  0  0  0  0  0  0  0  0  0  0
   46.1003   32.8307   47.6000 H   0  0  0  0  0  0  0  0  0  0  0  0
   48.7179   30.8809   44.1511 H   0  0  0  0  0  0  0  0  0  0  0  0
   48.1668   31.7203   42.6765 H   0  0  0  0  0  0  0  0  0  0  0  0
   43.8575   34.2720   43.6802 H   0  0  0  0  0  0  0  0  0  0  0  0
   43.8876   37.0768   44.6309 H   0  0  0  0  0  0  0  0  0  0  0  0
   45.2701   36.9295   45.3094 H   0  0  0  0  0  0  0  0  0  0  0  0
   46.2278   36.0710   42.7775 H   0  0  0  0  0  0  0  0  0  0  0  0
   44.8929   36.4762   42.0657 H   0  0  0  0  0  0  0  0  0  0  0  0
  1  6  2  0
  2  3  2  0
  2  1  1  0
  3  4  1  0
  4  5  2  0
  6  5  1  0
  7  3  1  0
  8  9  1  0
  8  1  1  0
 10  8  1  0
 10  9  1  0
  2 11  1  0
  5 12  1  0
  7 13  1  0
  7 14  1  0
  8 15  1  0
  9 16  1  0
  9 17  1  0
 10 18  1  0
 10 19  1  0
M  ISO  7  11  14  12  14  15  13  16  13  17  13  18  13  19  13
M  END
>  <minimizedAffinity>  (1) 
-3.12935448

>  <minimizedRMSD>  (1) 
0.148634061

$$$$
