
     RDKit          3D

 18 19  0  0  0  0  0  0  0  0999 V2000
   45.4240   34.1330   44.4450 C   0  0  0  0  0  0  0  0  0  0  0  0
   46.3220   33.3670   43.6380 C   0  0  0  0  0  0  0  0  0  0  0  0
   47.1460   32.4340   44.2880 C   0  0  0  0  0  0  0  0  0  0  0  0
   47.0410   32.3130   45.6580 N   0  0  0  0  0  0  0  0  0  0  0  0
   46.1650   33.0740   46.3650 C   0  0  0  0  0  0  0  0  0  0  0  0
   45.3690   33.9670   45.7800 N   0  0  0  0  0  0  0  0  0  0  0  0
   44.5520   35.1410   43.7900 C   0  0  0  0  0  0  0  0  0  0  0  0
   44.8440   36.5850   44.3100 C   0  0  0  0  0  0  0  0  0  0  0  0
   45.0540   36.1640   42.9100 C   0  0  0  0  0  0  0  0  0  0  0  0
   48.2760   31.4600   43.3270 S   0  0  0  0  0  0  0  0  0  0  0  0
   46.3658   33.5036   42.5474 H   0  0  0  0  0  0  0  0  0  0  0  0
   46.1116   32.9483   47.4565 H   0  0  0  0  0  0  0  0  0  0  0  0
   43.7196   34.4321   43.6694 H   0  0  0  0  0  0  0  0  0  0  0  0
   44.0184   37.2628   44.5726 H   0  0  0  0  0  0  0  0  0  0  0  0
   45.4520   37.0385   45.1066 H   0  0  0  0  0  0  0  0  0  0  0  0
   46.0803   36.0821   42.5228 H   0  0  0  0  0  0  0  0  0  0  0  0
   44.7014   36.5627   41.9474 H   0  0  0  0  0  0  0  0  0  0  0  0
   49.0966   30.7527   44.1656 H   0  0  0  0  0  0  0  0  0  0  0  0
  1  6  2  0
  2  3  2  0
  2  1  1  0
  3  4  1  0
  4  5  2  0
  6  5  1  0
  7  8  1  0
  7  1  1  0
  9  7  1  0
  9  8  1  0
 10  3  1  0
  2 11  1  0
  5 12  1  0
  7 13  1  0
  8 14  1  0
  8 15  1  0
  9 16  1  0
  9 17  1  0
 10 18  1  0
M  ISO  8  11  14  12  14  13  13  14  13  15  13  16  13  17  13  18  11
M  END
>  <minimizedAffinity>  (1) 
-3.03794622

>  <minimizedRMSD>  (1) 
0.293934554

$$$$
