
     RDKit          3D

 23 24  0  0  0  0  0  0  0  0999 V2000
   43.9470   34.6580   41.4620 C   0  0  0  0  0  0  0  0  0  0  0  0
   42.7330   35.3020   41.1130 C   0  0  0  0  0  0  0  0  0  0  0  0
   42.1710   35.0300   39.8580 C   0  0  0  0  0  0  0  0  0  0  0  0
   42.8390   34.1490   39.0370 N   0  0  0  0  0  0  0  0  0  0  0  0
   44.0010   33.5610   39.4240 C   0  0  0  0  0  0  0  0  0  0  0  0
   44.5520   33.8020   40.6090 N   0  0  0  0  0  0  0  0  0  0  0  0
   44.5450   34.9640   42.7880 C   0  0  0  0  0  0  0  0  0  0  0  0
   46.0540   35.3010   42.6930 C   0  0  0  0  0  0  0  0  0  0  0  0
   45.0260   36.2840   43.1330 C   0  0  0  0  0  0  0  0  0  0  0  0
   40.9050   35.6830   39.4590 C   0  0  0  0  0  0  0  0  0  0  0  0
   40.2150   36.3360   40.6480 C   0  0  0  0  0  0  0  0  0  0  0  0
   42.2440   35.9982   41.8102 H   0  0  0  0  0  0  0  0  0  0  0  0
   44.5010   32.8641   38.7353 H   0  0  0  0  0  0  0  0  0  0  0  0
   43.8717   34.2760   43.3203 H   0  0  0  0  0  0  0  0  0  0  0  0
   46.7674   34.8777   43.4154 H   0  0  0  0  0  0  0  0  0  0  0  0
   46.8321   35.2567   41.9167 H   0  0  0  0  0  0  0  0  0  0  0  0
   44.7798   37.1353   42.4814 H   0  0  0  0  0  0  0  0  0  0  0  0
   44.9197   36.9173   44.0261 H   0  0  0  0  0  0  0  0  0  0  0  0
   41.1226   36.4535   38.7047 H   0  0  0  0  0  0  0  0  0  0  0  0
   40.2336   34.9133   39.0505 H   0  0  0  0  0  0  0  0  0  0  0  0
   40.6372   35.9364   41.5818 H   0  0  0  0  0  0  0  0  0  0  0  0
   40.3719   37.4241   40.6108 H   0  0  0  0  0  0  0  0  0  0  0  0
   39.1372   36.1195   40.6108 H   0  0  0  0  0  0  0  0  0  0  0  0
  1  7  1  0
  2  1  2  0
  3  2  1  0
  4  5  1  0
  4  3  2  0
  5  6  2  0
  6  1  1  0
  7  9  1  0
  8  7  1  0
  8  9  1  0
 10  3  1  0
 10 11  1  0
  2 12  1  0
  5 13  1  0
  7 14  1  0
  8 15  1  0
  8 16  1  0
  9 17  1  0
  9 18  1  0
 10 19  1  0
 10 20  1  0
 11 21  1  0
 11 22  1  0
 11 23  1  0
M  ISO  8  12  14  13  14  14  13  15  13  16  13  17  13  18  13  19   8
M  ISO  4  20   8  21   8  22   8  23   8
M  END
>  <minimizedAffinity>  (1) 
-3.66995072

>  <minimizedRMSD>  (1) 
6.51741886

$$$$
