
     RDKit          3D

 37 40  0  0  0  0  0  0  0  0999 V2000
   41.1250   36.0100   39.5880 C   0  0  0  0  0  0  0  0  0  0  0  0
   44.0840   34.6770   41.5120 C   0  0  0  0  0  0  0  0  0  0  0  0
   42.9510   35.4430   41.1900 C   0  0  0  0  0  0  0  0  0  0  0  0
   42.3300   35.2300   39.9630 C   0  0  0  0  0  0  0  0  0  0  0  0
   42.8640   34.2800   39.1370 N   0  0  0  0  0  0  0  0  0  0  0  0
   43.9630   33.5660   39.4980 C   0  0  0  0  0  0  0  0  0  0  0  0
   44.5680   33.7580   40.6680 N   0  0  0  0  0  0  0  0  0  0  0  0
   44.7530   34.8950   42.8200 C   0  0  0  0  0  0  0  0  0  0  0  0
   46.2220   35.4150   42.6640 C   0  0  0  0  0  0  0  0  0  0  0  0
   45.1230   36.1790   43.3220 C   0  0  0  0  0  0  0  0  0  0  0  0
   39.9640   35.7470   40.5320 C   0  0  0  0  0  0  0  0  0  0  0  0
   39.7140   34.3000   40.7060 C   0  0  0  0  0  0  0  0  0  0  0  0
   39.9530   33.5800   41.8310 N   0  0  0  0  0  0  0  0  0  0  0  0
   39.6820   32.2540   41.8720 C   0  0  0  0  0  0  0  0  0  0  0  0
   39.1650   31.5730   40.8160 N   0  0  0  0  0  0  0  0  0  0  0  0
   38.9160   32.2420   39.6900 C   0  0  0  0  0  0  0  0  0  0  0  0
   38.3910   31.5520   38.6190 C   0  0  0  0  0  0  0  0  0  0  0  0
   38.1240   32.2380   37.4330 C   0  0  0  0  0  0  0  0  0  0  0  0
   38.3760   33.6000   37.3180 C   0  0  0  0  0  0  0  0  0  0  0  0
   38.9030   34.2200   38.4430 C   0  0  0  0  0  0  0  0  0  0  0  0
   39.1870   33.5940   39.6380 C   0  0  0  0  0  0  0  0  0  0  0  0
   41.3716   37.0816   39.6173 H   0  0  0  0  0  0  0  0  0  0  0  0
   40.8196   35.7011   38.5774 H   0  0  0  0  0  0  0  0  0  0  0  0
   42.5631   36.1950   41.8928 H   0  0  0  0  0  0  0  0  0  0  0  0
   44.3625   32.8103   38.8056 H   0  0  0  0  0  0  0  0  0  0  0  0
   44.1901   34.0773   43.2938 H   0  0  0  0  0  0  0  0  0  0  0  0
   47.0382   34.9797   43.2592 H   0  0  0  0  0  0  0  0  0  0  0  0
   46.9323   35.5791   41.8402 H   0  0  0  0  0  0  0  0  0  0  0  0
   44.7283   37.0807   42.8309 H   0  0  0  0  0  0  0  0  0  0  0  0
   45.0282   36.6514   44.3109 H   0  0  0  0  0  0  0  0  0  0  0  0
   40.1954   36.1887   41.5125 H   0  0  0  0  0  0  0  0  0  0  0  0
   39.0608   36.1999   40.0972 H   0  0  0  0  0  0  0  0  0  0  0  0
   39.8896   31.7036   42.8015 H   0  0  0  0  0  0  0  0  0  0  0  0
   38.1849   30.4743   38.6976 H   0  0  0  0  0  0  0  0  0  0  0  0
   37.7069   31.6912   36.5745 H   0  0  0  0  0  0  0  0  0  0  0  0
   38.1701   34.1541   36.3903 H   0  0  0  0  0  0  0  0  0  0  0  0
   39.1108   35.2981   38.3753 H   0  0  0  0  0  0  0  0  0  0  0  0
  1  4  1  0
  1 11  1  0
  2  8  1  0
  3  2  2  0
  4  3  1  0
  5  6  1  0
  5  4  2  0
  6  7  2  0
  7  2  1  0
  8 10  1  0
  9  8  1  0
  9 10  1  0
 11 12  1  0
 12 13  2  0
 13 14  1  0
 15 14  2  0
 16 15  1  0
 17 16  2  0
 18 17  1  0
 19 18  2  0
 19 20  1  0
 20 21  2  0
 21 16  1  0
 21 12  1  0
  1 22  1  0
  1 23  1  0
  3 24  1  0
  6 25  1  0
  8 26  1  0
  9 27  1  0
  9 28  1  0
 10 29  1  0
 10 30  1  0
 11 31  1  0
 11 32  1  0
 14 33  1  0
 17 34  1  0
 18 35  1  0
 19 36  1  0
 20 37  1  0
M  ISO  8  22   8  23   8  24  14  25  14  26  13  27  13  28  13  29  13
M  ISO  8  30  13  31   8  32   8  33  14  34  14  35  14  36  14  37  14
M  END
>  <minimizedAffinity>  (1) 
-5.98210335

>  <minimizedRMSD>  (1) 
1.96936834

$$$$
