
     RDKit          3D

 30 32  0  0  0  0  0  0  0  0999 V2000
   44.2330   34.5750   41.3540 C   0  0  0  0  0  0  0  0  0  0  0  0
   43.1170   35.3120   40.9260 C   0  0  0  0  0  0  0  0  0  0  0  0
   42.5620   35.0540   39.6650 C   0  0  0  0  0  0  0  0  0  0  0  0
   43.1660   34.0780   38.9200 N   0  0  0  0  0  0  0  0  0  0  0  0
   44.2550   33.3870   39.3810 C   0  0  0  0  0  0  0  0  0  0  0  0
   44.7740   33.6320   40.5680 N   0  0  0  0  0  0  0  0  0  0  0  0
   44.8070   34.8570   42.6930 C   0  0  0  0  0  0  0  0  0  0  0  0
   46.2830   35.3560   42.6180 C   0  0  0  0  0  0  0  0  0  0  0  0
   45.1510   36.1740   43.1320 C   0  0  0  0  0  0  0  0  0  0  0  0
   41.3920   35.8100   39.1940 C   0  0  0  0  0  0  0  0  0  0  0  0
   40.2750   35.8310   40.2460 C   0  0  0  0  0  0  0  0  0  0  0  0
   39.5880   34.5720   40.2680 C   0  0  0  0  0  0  0  0  0  0  0  0
   38.7040   33.9690   39.3860 C   0  0  0  0  0  0  0  0  0  0  0  0
   38.1990   32.7360   39.6790 C   0  0  0  0  0  0  0  0  0  0  0  0
   38.6150   32.0970   40.9220 C   0  0  0  0  0  0  0  0  0  0  0  0
   39.7810   33.4340   41.5990 S   0  0  0  0  0  0  0  0  0  0  0  0
   42.6817   36.0859   41.5753 H   0  0  0  0  0  0  0  0  0  0  0  0
   44.7068   32.6101   38.7466 H   0  0  0  0  0  0  0  0  0  0  0  0
   44.2080   34.0702   43.1749 H   0  0  0  0  0  0  0  0  0  0  0  0
   47.0451   34.9586   43.3045 H   0  0  0  0  0  0  0  0  0  0  0  0
   47.0562   35.4563   41.8421 H   0  0  0  0  0  0  0  0  0  0  0  0
   44.8071   37.0411   42.5491 H   0  0  0  0  0  0  0  0  0  0  0  0
   44.9857   36.7175   44.0739 H   0  0  0  0  0  0  0  0  0  0  0  0
   41.6982   36.8440   38.9772 H   0  0  0  0  0  0  0  0  0  0  0  0
   41.0048   35.3183   38.2894 H   0  0  0  0  0  0  0  0  0  0  0  0
   40.7131   36.0227   41.2366 H   0  0  0  0  0  0  0  0  0  0  0  0
   39.5581   36.6253   39.9908 H   0  0  0  0  0  0  0  0  0  0  0  0
   38.4122   34.4810   38.4572 H   0  0  0  0  0  0  0  0  0  0  0  0
   37.4964   32.2369   38.9955 H   0  0  0  0  0  0  0  0  0  0  0  0
   38.3342   31.1214   41.3455 H   0  0  0  0  0  0  0  0  0  0  0  0
  1  7  1  0
  2  1  2  0
  3  2  1  0
  4  5  1  0
  4  3  2  0
  5  6  2  0
  6  1  1  0
  7  9  1  0
  8  7  1  0
  8  9  1  0
 10  3  1  0
 10 11  1  0
 11 12  1  0
 12 16  1  0
 13 14  1  0
 13 12  2  0
 14 15  2  0
 15 16  1  0
  2 17  1  0
  5 18  1  0
  7 19  1  0
  8 20  1  0
  8 21  1  0
  9 22  1  0
  9 23  1  0
 10 24  1  0
 10 25  1  0
 11 26  1  0
 11 27  1  0
 13 28  1  0
 14 29  1  0
 15 30  1  0
M  ISO  8  17  14  18  14  19  13  20  13  21  13  22  13  23  13  24   8
M  ISO  6  25   8  26   8  27   8  28  14  29  14  30  14
M  END
>  <minimizedAffinity>  (1) 
-4.71373606

>  <minimizedRMSD>  (1) 
1.69550431

$$$$
