
     RDKit          3D

 24 25  0  0  0  0  0  0  0  0999 V2000
   44.0790   34.6360   41.4090 C   0  0  0  0  0  0  0  0  0  0  0  0
   42.9170   35.3080   40.9970 C   0  0  0  0  0  0  0  0  0  0  0  0
   42.3690   35.0230   39.7430 C   0  0  0  0  0  0  0  0  0  0  0  0
   43.0200   34.0810   38.9800 N   0  0  0  0  0  0  0  0  0  0  0  0
   44.1460   33.4540   39.4240 C   0  0  0  0  0  0  0  0  0  0  0  0
   44.6740   33.7250   40.6240 N   0  0  0  0  0  0  0  0  0  0  0  0
   44.6500   34.9500   42.7360 C   0  0  0  0  0  0  0  0  0  0  0  0
   46.1550   35.3530   42.6600 C   0  0  0  0  0  0  0  0  0  0  0  0
   45.0740   36.2550   43.1360 C   0  0  0  0  0  0  0  0  0  0  0  0
   41.1510   35.6980   39.2870 C   0  0  0  0  0  0  0  0  0  0  0  0
   40.0860   35.7270   40.3630 C   0  0  0  0  0  0  0  0  0  0  0  0
   39.0120   34.9620   39.8930 O   0  0  0  0  0  0  0  0  0  0  0  0
   42.4426   36.0514   41.6545 H   0  0  0  0  0  0  0  0  0  0  0  0
   44.6329   32.7067   38.7802 H   0  0  0  0  0  0  0  0  0  0  0  0
   43.9903   34.2272   43.2383 H   0  0  0  0  0  0  0  0  0  0  0  0
   46.8851   34.9310   43.3663 H   0  0  0  0  0  0  0  0  0  0  0  0
   46.9392   35.3798   41.8891 H   0  0  0  0  0  0  0  0  0  0  0  0
   44.7903   37.1229   42.5226 H   0  0  0  0  0  0  0  0  0  0  0  0
   44.9363   36.8376   44.0588 H   0  0  0  0  0  0  0  0  0  0  0  0
   41.4010   36.7317   39.0060 H   0  0  0  0  0  0  0  0  0  0  0  0
   40.7525   35.1391   38.4274 H   0  0  0  0  0  0  0  0  0  0  0  0
   40.4785   35.2952   41.2954 H   0  0  0  0  0  0  0  0  0  0  0  0
   39.7705   36.7588   40.5769 H   0  0  0  0  0  0  0  0  0  0  0  0
   38.5036   34.5999   40.6614 H   0  0  0  0  0  0  0  0  0  0  0  0
  1  7  1  0
  2  1  2  0
  3  2  1  0
  4  5  1  0
  4  3  2  0
  5  6  2  0
  6  1  1  0
  7  9  1  0
  8  7  1  0
  8  9  1  0
 10  3  1  0
 10 11  1  0
 12 11  1  0
  2 13  1  0
  5 14  1  0
  7 15  1  0
  8 16  1  0
  8 17  1  0
  9 18  1  0
  9 19  1  0
 10 20  1  0
 10 21  1  0
 11 22  1  0
 11 23  1  0
 12 24  1  0
M  ISO  8  13  14  14  14  15  13  16  13  17  13  18  13  19  13  20   8
M  ISO  4  21   8  22   8  23   8  24   3
M  END
>  <minimizedAffinity>  (1) 
-3.57336354

>  <minimizedRMSD>  (1) 
0.610338688

$$$$
