
     RDKit          3D

 27 28  0  0  0  0  0  0  0  0999 V2000
   43.9790   34.5840   41.2870 C   0  0  0  0  0  0  0  0  0  0  0  0
   42.8270   35.2800   40.8830 C   0  0  0  0  0  0  0  0  0  0  0  0
   42.2950   35.0280   39.6240 C   0  0  0  0  0  0  0  0  0  0  0  0
   42.9300   34.1070   38.8400 N   0  0  0  0  0  0  0  0  0  0  0  0
   44.0430   33.4570   39.2730 C   0  0  0  0  0  0  0  0  0  0  0  0
   44.5630   33.6890   40.4770 N   0  0  0  0  0  0  0  0  0  0  0  0
   44.5500   34.8570   42.6290 C   0  0  0  0  0  0  0  0  0  0  0  0
   46.0580   35.2580   42.5610 C   0  0  0  0  0  0  0  0  0  0  0  0
   44.9870   36.1530   43.0470 C   0  0  0  0  0  0  0  0  0  0  0  0
   41.0710   35.7350   39.1800 C   0  0  0  0  0  0  0  0  0  0  0  0
   39.9750   35.6380   40.2180 C   0  0  0  0  0  0  0  0  0  0  0  0
   39.0430   33.4520   40.7550 C   0  0  0  0  0  0  0  0  0  0  0  0
   39.7770   33.2550   41.7610 O   0  0  0  0  0  0  0  0  0  0  0  0
   39.0250   34.5830   39.8910 N   0  0  0  0  0  0  0  0  0  0  0  0
   42.3536   36.0129   41.5529 H   0  0  0  0  0  0  0  0  0  0  0  0
   44.5258   32.7215   38.6127 H   0  0  0  0  0  0  0  0  0  0  0  0
   43.8888   34.1266   43.1182 H   0  0  0  0  0  0  0  0  0  0  0  0
   46.7859   34.8229   43.2616 H   0  0  0  0  0  0  0  0  0  0  0  0
   46.8427   35.2936   41.7909 H   0  0  0  0  0  0  0  0  0  0  0  0
   44.7093   37.0316   42.4463 H   0  0  0  0  0  0  0  0  0  0  0  0
   44.8540   36.7222   43.9788 H   0  0  0  0  0  0  0  0  0  0  0  0
   41.3109   36.7949   39.0098 H   0  0  0  0  0  0  0  0  0  0  0  0
   40.7142   35.2637   38.2523 H   0  0  0  0  0  0  0  0  0  0  0  0
   40.4274   35.4214   41.1970 H   0  0  0  0  0  0  0  0  0  0  0  0
   39.4344   36.5957   40.2411 H   0  0  0  0  0  0  0  0  0  0  0  0
   38.3283   32.6509   40.5154 H   0  0  0  0  0  0  0  0  0  0  0  0
   38.3832   34.6510   39.0883 H   0  0  0  0  0  0  0  0  0  0  0  0
  1  7  1  0
  2  1  2  0
  3  2  1  0
  4  5  1  0
  4  3  2  0
  5  6  2  0
  6  1  1  0
  7  9  1  0
  8  7  1  0
  8  9  1  0
 10  3  1  0
 10 11  1  0
 12 13  2  0
 14 11  1  0
 14 12  1  0
  2 15  1  0
  5 16  1  0
  7 17  1  0
  8 18  1  0
  8 19  1  0
  9 20  1  0
  9 21  1  0
 10 22  1  0
 10 23  1  0
 11 24  1  0
 11 25  1  0
 12 26  1  0
 14 27  1  0
M  ISO  8  15  14  16  14  17  13  18  13  19  13  20  13  21  13  22   8
M  ISO  4  23   8  24   8  25   8  26   6
M  END
>  <minimizedAffinity>  (1) 
-3.97040415

>  <minimizedRMSD>  (1) 
2.06183505

$$$$
