
     RDKit          3D

 34 36  0  0  0  0  0  0  0  0999 V2000
   41.0330   35.7590   39.1660 C   0  0  0  0  0  0  0  0  0  0  0  0
   43.9460   34.6050   41.2790 C   0  0  0  0  0  0  0  0  0  0  0  0
   42.7930   35.3030   40.8730 C   0  0  0  0  0  0  0  0  0  0  0  0
   42.2600   35.0490   39.6190 C   0  0  0  0  0  0  0  0  0  0  0  0
   42.9070   34.1130   38.8440 N   0  0  0  0  0  0  0  0  0  0  0  0
   44.0100   33.4720   39.2840 C   0  0  0  0  0  0  0  0  0  0  0  0
   44.5290   33.7100   40.4870 N   0  0  0  0  0  0  0  0  0  0  0  0
   44.5260   34.8790   42.6200 C   0  0  0  0  0  0  0  0  0  0  0  0
   46.0460   35.2610   42.5420 C   0  0  0  0  0  0  0  0  0  0  0  0
   44.9920   36.1390   43.0630 C   0  0  0  0  0  0  0  0  0  0  0  0
   39.9260   35.6040   40.2020 C   0  0  0  0  0  0  0  0  0  0  0  0
   39.2120   33.3600   40.8640 C   0  0  0  0  0  0  0  0  0  0  0  0
   39.8040   33.4580   41.9800 O   0  0  0  0  0  0  0  0  0  0  0  0
   39.0970   34.4450   39.9450 N   0  0  0  0  0  0  0  0  0  0  0  0
   38.5980   32.0760   40.4590 C   0  0  0  0  0  0  0  0  0  0  0  0
   38.5330   31.4510   39.2090 C   0  0  0  0  0  0  0  0  0  0  0  0
   37.8530   30.2810   39.3900 N   0  0  0  0  0  0  0  0  0  0  0  0
   37.5030   30.1550   40.6620 C   0  0  0  0  0  0  0  0  0  0  0  0
   37.9490   31.2330   41.3150 N   0  0  0  0  0  0  0  0  0  0  0  0
   41.2591   36.8271   39.0321 H   0  0  0  0  0  0  0  0  0  0  0  0
   40.6972   35.3253   38.2125 H   0  0  0  0  0  0  0  0  0  0  0  0
   42.3220   36.0391   41.5410 H   0  0  0  0  0  0  0  0  0  0  0  0
   44.4942   32.7317   38.6302 H   0  0  0  0  0  0  0  0  0  0  0  0
   43.8424   34.1638   43.1009 H   0  0  0  0  0  0  0  0  0  0  0  0
   46.7778   34.7974   43.2199 H   0  0  0  0  0  0  0  0  0  0  0  0
   46.8232   35.3116   41.7652 H   0  0  0  0  0  0  0  0  0  0  0  0
   44.7181   37.0389   42.4928 H   0  0  0  0  0  0  0  0  0  0  0  0
   44.8798   36.6776   44.0155 H   0  0  0  0  0  0  0  0  0  0  0  0
   40.3835   35.4991   41.1968 H   0  0  0  0  0  0  0  0  0  0  0  0
   39.2855   36.4967   40.1490 H   0  0  0  0  0  0  0  0  0  0  0  0
   38.4566   34.4059   39.1393 H   0  0  0  0  0  0  0  0  0  0  0  0
   38.9491   31.8290   38.2635 H   0  0  0  0  0  0  0  0  0  0  0  0
   37.6432   29.5978   38.6482 H   0  0  0  0  0  0  0  0  0  0  0  0
   36.9457   29.3146   41.1015 H   0  0  0  0  0  0  0  0  0  0  0  0
  1  4  1  0
  1 11  1  0
  2  8  1  0
  3  2  2  0
  4  3  1  0
  5  6  1  0
  5  4  2  0
  6  7  2  0
  7  2  1  0
  8 10  1  0
  9  8  1  0
  9 10  1  0
 12 13  2  0
 14 11  1  0
 14 12  1  0
 15 12  1  0
 15 19  1  0
 16 17  1  0
 16 15  2  0
 17 18  1  0
 18 19  2  0
  1 20  1  0
  1 21  1  0
  3 22  1  0
  6 23  1  0
  8 24  1  0
  9 25  1  0
  9 26  1  0
 10 27  1  0
 10 28  1  0
 11 29  1  0
 11 30  1  0
 14 31  1  0
 16 32  1  0
 17 33  1  0
 18 34  1  0
M  ISO  8  20   8  21   8  22  14  23  14  24  13  25  13  26  13  27  13
M  ISO  6  28  13  29   8  30   8  32  14  33   9  34  14
M  END
>  <minimizedAffinity>  (1) 
-4.81931353

>  <minimizedRMSD>  (1) 
0.344626427

$$$$
