
     RDKit          3D

 37 39  0  0  0  0  0  0  0  0999 V2000
   41.0460   35.8690   39.2750 C   0  0  0  0  0  0  0  0  0  0  0  0
   43.9130   34.6820   41.4480 C   0  0  0  0  0  0  0  0  0  0  0  0
   42.7780   35.4170   41.0100 C   0  0  0  0  0  0  0  0  0  0  0  0
   42.2340   35.1350   39.7720 C   0  0  0  0  0  0  0  0  0  0  0  0
   42.8480   34.1410   39.0410 N   0  0  0  0  0  0  0  0  0  0  0  0
   43.9350   33.4680   39.5150 C   0  0  0  0  0  0  0  0  0  0  0  0
   44.4580   33.7400   40.7080 N   0  0  0  0  0  0  0  0  0  0  0  0
   44.4900   35.0140   42.7880 C   0  0  0  0  0  0  0  0  0  0  0  0
   46.0320   35.3250   42.6800 C   0  0  0  0  0  0  0  0  0  0  0  0
   45.0200   36.2580   43.1710 C   0  0  0  0  0  0  0  0  0  0  0  0
   39.8730   35.6600   40.2370 C   0  0  0  0  0  0  0  0  0  0  0  0
   39.2560   33.3860   40.8840 C   0  0  0  0  0  0  0  0  0  0  0  0
   39.8280   33.4720   42.0010 O   0  0  0  0  0  0  0  0  0  0  0  0
   39.1390   34.4440   39.9570 N   0  0  0  0  0  0  0  0  0  0  0  0
   38.6470   32.0910   40.4750 C   0  0  0  0  0  0  0  0  0  0  0  0
   38.7780   31.6620   39.1720 C   0  0  0  0  0  0  0  0  0  0  0  0
   38.2670   30.4960   38.6660 C   0  0  0  0  0  0  0  0  0  0  0  0
   37.5560   29.6940   39.5690 C   0  0  0  0  0  0  0  0  0  0  0  0
   37.4490   30.1620   40.8630 C   0  0  0  0  0  0  0  0  0  0  0  0
   37.9630   31.3100   41.3240 N   0  0  0  0  0  0  0  0  0  0  0  0
   36.7290   29.3180   41.7210 O   0  0  0  0  0  0  0  0  0  0  0  0
   41.2794   36.9420   39.2101 H   0  0  0  0  0  0  0  0  0  0  0  0
   40.7732   35.4904   38.2789 H   0  0  0  0  0  0  0  0  0  0  0  0
   42.3393   36.1988   41.6474 H   0  0  0  0  0  0  0  0  0  0  0  0
   44.3907   32.6810   38.8961 H   0  0  0  0  0  0  0  0  0  0  0  0
   43.7642   34.3697   43.3058 H   0  0  0  0  0  0  0  0  0  0  0  0
   46.7505   34.8587   43.3701 H   0  0  0  0  0  0  0  0  0  0  0  0
   46.8042   35.3119   41.8967 H   0  0  0  0  0  0  0  0  0  0  0  0
   44.7794   37.1456   42.5675 H   0  0  0  0  0  0  0  0  0  0  0  0
   44.9421   36.8357   44.1038 H   0  0  0  0  0  0  0  0  0  0  0  0
   40.2635   35.6083   41.2641 H   0  0  0  0  0  0  0  0  0  0  0  0
   39.1811   36.5058   40.1107 H   0  0  0  0  0  0  0  0  0  0  0  0
   38.5540   34.3543   39.1140 H   0  0  0  0  0  0  0  0  0  0  0  0
   39.3390   32.3089   38.4815 H   0  0  0  0  0  0  0  0  0  0  0  0
   38.4064   30.2066   37.6140 H   0  0  0  0  0  0  0  0  0  0  0  0
   37.1055   28.7387   39.2616 H   0  0  0  0  0  0  0  0  0  0  0  0
   36.5995   29.5702   42.6695 H   0  0  0  0  0  0  0  0  0  0  0  0
  1  4  1  0
  1 11  1  0
  2  8  1  0
  3  2  2  0
  4  3  1  0
  5  6  1  0
  5  4  2  0
  6  7  2  0
  7  2  1  0
  8 10  1  0
  9  8  1  0
  9 10  1  0
 12 13  2  0
 14 11  1  0
 14 12  1  0
 15 12  1  0
 15 20  1  0
 16 15  2  0
 17 16  1  0
 17 18  2  0
 18 19  1  0
 19 20  2  0
 19 21  1  0
  1 22  1  0
  1 23  1  0
  3 24  1  0
  6 25  1  0
  8 26  1  0
  9 27  1  0
  9 28  1  0
 10 29  1  0
 10 30  1  0
 11 31  1  0
 11 32  1  0
 14 33  1  0
 16 34  1  0
 17 35  1  0
 18 36  1  0
 21 37  1  0
M  ISO  8  22   8  23   8  24  14  25  14  26  13  27  13  28  13  29  13
M  ISO  7  30  13  31   8  32   8  34  14  35  14  36  14  37   3
M  END
>  <minimizedAffinity>  (1) 
-5.52338505

>  <minimizedRMSD>  (1) 
0.0522301681

$$$$
