
     RDKit          3D

 38 40  0  0  0  0  0  0  0  0999 V2000
   41.0640   35.9150   39.3010 C   0  0  0  0  0  0  0  0  0  0  0  0
   43.9230   34.6840   41.4610 C   0  0  0  0  0  0  0  0  0  0  0  0
   42.7960   35.4340   41.0250 C   0  0  0  0  0  0  0  0  0  0  0  0
   42.2460   35.1640   39.7890 C   0  0  0  0  0  0  0  0  0  0  0  0
   42.8510   34.1600   39.0540 N   0  0  0  0  0  0  0  0  0  0  0  0
   43.9280   33.4780   39.5240 C   0  0  0  0  0  0  0  0  0  0  0  0
   44.4560   33.7390   40.7170 N   0  0  0  0  0  0  0  0  0  0  0  0
   44.5140   35.0020   42.8010 C   0  0  0  0  0  0  0  0  0  0  0  0
   46.0540   35.3330   42.6740 C   0  0  0  0  0  0  0  0  0  0  0  0
   45.0390   36.2490   43.1860 C   0  0  0  0  0  0  0  0  0  0  0  0
   39.8890   35.6930   40.2440 C   0  0  0  0  0  0  0  0  0  0  0  0
   39.2780   33.4120   40.8890 C   0  0  0  0  0  0  0  0  0  0  0  0
   39.8390   33.5040   42.0140 O   0  0  0  0  0  0  0  0  0  0  0  0
   39.1700   34.4750   39.9470 N   0  0  0  0  0  0  0  0  0  0  0  0
   38.6760   32.1240   40.4750 C   0  0  0  0  0  0  0  0  0  0  0  0
   38.7690   31.7320   39.1570 C   0  0  0  0  0  0  0  0  0  0  0  0
   38.2440   30.5510   38.6510 C   0  0  0  0  0  0  0  0  0  0  0  0
   37.5880   29.7330   39.5600 C   0  0  0  0  0  0  0  0  0  0  0  0
   37.5180   30.1630   40.8650 C   0  0  0  0  0  0  0  0  0  0  0  0
   38.0410   31.3220   41.3320 N   0  0  0  0  0  0  0  0  0  0  0  0
   36.8420   29.3150   41.7900 N   0  0  0  0  0  0  0  0  0  0  0  0
   41.3034   36.9879   39.2615 H   0  0  0  0  0  0  0  0  0  0  0  0
   40.7961   35.5588   38.2954 H   0  0  0  0  0  0  0  0  0  0  0  0
   42.3683   36.2195   41.6653 H   0  0  0  0  0  0  0  0  0  0  0  0
   44.3753   32.6890   38.9016 H   0  0  0  0  0  0  0  0  0  0  0  0
   43.8039   34.3438   43.3230 H   0  0  0  0  0  0  0  0  0  0  0  0
   46.7875   34.8698   43.3503 H   0  0  0  0  0  0  0  0  0  0  0  0
   46.8153   35.3354   41.8800 H   0  0  0  0  0  0  0  0  0  0  0  0
   44.7806   37.1387   42.5930 H   0  0  0  0  0  0  0  0  0  0  0  0
   44.9687   36.8179   44.1248 H   0  0  0  0  0  0  0  0  0  0  0  0
   40.2684   35.6374   41.2750 H   0  0  0  0  0  0  0  0  0  0  0  0
   39.1921   36.5346   40.1173 H   0  0  0  0  0  0  0  0  0  0  0  0
   38.6042   34.3798   39.0916 H   0  0  0  0  0  0  0  0  0  0  0  0
   39.2947   32.4001   38.4590 H   0  0  0  0  0  0  0  0  0  0  0  0
   38.3423   30.2789   37.5897 H   0  0  0  0  0  0  0  0  0  0  0  0
   37.1410   28.7772   39.2490 H   0  0  0  0  0  0  0  0  0  0  0  0
   36.7622   29.5917   42.7789 H   0  0  0  0  0  0  0  0  0  0  0  0
   36.4333   28.4256   41.4695 H   0  0  0  0  0  0  0  0  0  0  0  0
  1  4  1  0
  1 11  1  0
  2  8  1  0
  3  2  2  0
  4  3  1  0
  5  6  1  0
  5  4  2  0
  6  7  2  0
  7  2  1  0
  8 10  1  0
  9  8  1  0
  9 10  1  0
 12 13  2  0
 14 11  1  0
 14 12  1  0
 15 12  1  0
 15 20  1  0
 16 15  2  0
 17 16  1  0
 17 18  2  0
 18 19  1  0
 19 20  2  0
 19 21  1  0
  1 22  1  0
  1 23  1  0
  3 24  1  0
  6 25  1  0
  8 26  1  0
  9 27  1  0
  9 28  1  0
 10 29  1  0
 10 30  1  0
 11 31  1  0
 11 32  1  0
 14 33  1  0
 16 34  1  0
 17 35  1  0
 18 36  1  0
 21 37  1  0
 21 38  1  0
M  ISO  8  22   8  23   8  24  14  25  14  26  13  27  13  28  13  29  13
M  ISO  6  30  13  31   8  32   8  34  14  35  14  36  14
M  END
>  <minimizedAffinity>  (1) 
-5.51352024

>  <minimizedRMSD>  (1) 
0.0878880322

$$$$
