
     RDKit          3D

 51 54  0  0  0  0  0  0  0  0999 V2000
   39.5110   35.2230   40.0860 C   0  0  0  0  0  0  0  0  0  0  0  0
   38.7920   32.8880   39.9030 C   0  0  0  0  0  0  0  0  0  0  0  0
   38.5490   32.7890   41.1340 O   0  0  0  0  0  0  0  0  0  0  0  0
   39.1980   34.0880   39.2480 N   0  0  0  0  0  0  0  0  0  0  0  0
   38.6580   31.6950   39.0290 C   0  0  0  0  0  0  0  0  0  0  0  0
   38.8210   31.8270   37.6660 C   0  0  0  0  0  0  0  0  0  0  0  0
   38.7180   30.8050   36.7570 C   0  0  0  0  0  0  0  0  0  0  0  0
   38.4260   29.5520   37.2860 C   0  0  0  0  0  0  0  0  0  0  0  0
   38.2690   29.4480   38.6490 C   0  0  0  0  0  0  0  0  0  0  0  0
   38.3790   30.4850   39.5160 N   0  0  0  0  0  0  0  0  0  0  0  0
   37.9700   28.1710   39.2080 N   0  0  0  0  0  0  0  0  0  0  0  0
   36.7600   27.9150   39.9710 C   0  0  0  0  0  0  0  0  0  0  0  0
   37.0850   27.0490   41.1710 C   0  0  0  0  0  0  0  0  0  0  0  0
   37.4300   25.6780   40.6100 C   0  0  0  0  0  0  0  0  0  0  0  0
   38.1320   25.7450   39.2920 C   0  0  0  0  0  0  0  0  0  0  0  0
   38.8670   27.0420   39.0450 C   0  0  0  0  0  0  0  0  0  0  0  0
   40.8500   35.8530   39.7310 C   0  0  0  0  0  0  0  0  0  0  0  0
   43.7270   34.5760   41.8420 C   0  0  0  0  0  0  0  0  0  0  0  0
   42.6880   35.4160   41.3590 C   0  0  0  0  0  0  0  0  0  0  0  0
   41.9520   35.0140   40.2640 C   0  0  0  0  0  0  0  0  0  0  0  0
   42.2930   33.7950   39.7090 N   0  0  0  0  0  0  0  0  0  0  0  0
   43.2990   33.0320   40.2140 C   0  0  0  0  0  0  0  0  0  0  0  0
   44.0070   33.4230   41.2710 N   0  0  0  0  0  0  0  0  0  0  0  0
   44.5150   35.0360   43.0210 C   0  0  0  0  0  0  0  0  0  0  0  0
   46.0200   35.3190   42.6260 C   0  0  0  0  0  0  0  0  0  0  0  0
   45.0990   36.3050   43.1850 C   0  0  0  0  0  0  0  0  0  0  0  0
   38.7215   35.9795   39.9659 H   0  0  0  0  0  0  0  0  0  0  0  0
   39.5723   34.8667   41.1249 H   0  0  0  0  0  0  0  0  0  0  0  0
   39.2653   34.1434   38.2217 H   0  0  0  0  0  0  0  0  0  0  0  0
   39.0516   32.8300   37.2775 H   0  0  0  0  0  0  0  0  0  0  0  0
   38.8575   30.9660   35.6778 H   0  0  0  0  0  0  0  0  0  0  0  0
   38.3238   28.6714   36.6347 H   0  0  0  0  0  0  0  0  0  0  0  0
   36.3353   28.8700   40.3139 H   0  0  0  0  0  0  0  0  0  0  0  0
   36.0312   27.3937   39.3330 H   0  0  0  0  0  0  0  0  0  0  0  0
   37.9415   27.4641   41.7224 H   0  0  0  0  0  0  0  0  0  0  0  0
   36.2411   26.9983   41.8747 H   0  0  0  0  0  0  0  0  0  0  0  0
   38.0821   25.1595   41.3283 H   0  0  0  0  0  0  0  0  0  0  0  0
   36.4836   25.1402   40.4513 H   0  0  0  0  0  0  0  0  0  0  0  0
   38.8606   24.9221   39.2474 H   0  0  0  0  0  0  0  0  0  0  0  0
   37.3552   25.6702   38.5168 H   0  0  0  0  0  0  0  0  0  0  0  0
   39.2674   27.0422   38.0205 H   0  0  0  0  0  0  0  0  0  0  0  0
   39.6879   27.1308   39.7718 H   0  0  0  0  0  0  0  0  0  0  0  0
   40.9417   35.9261   38.6373 H   0  0  0  0  0  0  0  0  0  0  0  0
   40.9094   36.8583   40.1736 H   0  0  0  0  0  0  0  0  0  0  0  0
   42.4731   36.3754   41.8524 H   0  0  0  0  0  0  0  0  0  0  0  0
   43.5332   32.0686   39.7375 H   0  0  0  0  0  0  0  0  0  0  0  0
   43.8866   34.4568   43.7136 H   0  0  0  0  0  0  0  0  0  0  0  0
   46.8465   34.9145   43.2288 H   0  0  0  0  0  0  0  0  0  0  0  0
   46.6507   35.2215   41.7300 H   0  0  0  0  0  0  0  0  0  0  0  0
   44.7567   37.1323   42.5460 H   0  0  0  0  0  0  0  0  0  0  0  0
   45.1763   36.9711   44.0570 H   0  0  0  0  0  0  0  0  0  0  0  0
  2  3  2  0
  4  2  1  0
  4  1  1  0
  5 10  1  0
  5  2  1  0
  6  5  2  0
  7  8  2  0
  7  6  1  0
  8  9  1  0
  9 11  1  0
  9 10  2  0
 11 12  1  0
 12 13  1  0
 14 13  1  0
 15 14  1  0
 16 11  1  0
 16 15  1  0
 17  1  1  0
 17 20  1  0
 18 24  1  0
 19 18  2  0
 20 19  1  0
 21 22  1  0
 21 20  2  0
 22 23  2  0
 23 18  1  0
 24 26  1  0
 25 24  1  0
 25 26  1  0
  1 27  1  0
  1 28  1  0
  4 29  1  0
  6 30  1  0
  7 31  1  0
  8 32  1  0
 12 33  1  0
 12 34  1  0
 13 35  1  0
 13 36  1  0
 14 37  1  0
 14 38  1  0
 15 39  1  0
 15 40  1  0
 16 41  1  0
 16 42  1  0
 17 43  1  0
 17 44  1  0
 19 45  1  0
 22 46  1  0
 24 47  1  0
 25 48  1  0
 25 49  1  0
 26 50  1  0
 26 51  1  0
M  ISO  8  27   8  28   8  30  14  31  14  32  14  33  13  34  13  35  13
M  ISO  8  36  13  37  13  38  13  39  13  40  13  41  13  42  13  43   8
M  ISO  8  44   8  45  14  46  14  47  13  48  13  49  13  50  13  51  13
M  END
>  <minimizedAffinity>  (1) 
-5.27928543

>  <minimizedRMSD>  (1) 
2.13261771

$$$$
