
     RDKit          3D

 43 46  0  0  0  0  0  0  0  0999 V2000
   41.0230   35.9960   39.4410 C   0  0  0  0  0  0  0  0  0  0  0  0
   43.9250   34.6850   41.4960 C   0  0  0  0  0  0  0  0  0  0  0  0
   42.7940   35.4500   41.1140 C   0  0  0  0  0  0  0  0  0  0  0  0
   42.2130   35.2290   39.8820 C   0  0  0  0  0  0  0  0  0  0  0  0
   42.7920   34.2580   39.0970 N   0  0  0  0  0  0  0  0  0  0  0  0
   43.8830   33.5500   39.5150 C   0  0  0  0  0  0  0  0  0  0  0  0
   44.4400   33.7660   40.7040 N   0  0  0  0  0  0  0  0  0  0  0  0
   44.5440   34.9520   42.8330 C   0  0  0  0  0  0  0  0  0  0  0  0
   46.0620   35.3480   42.6860 C   0  0  0  0  0  0  0  0  0  0  0  0
   45.0220   36.1970   43.2800 C   0  0  0  0  0  0  0  0  0  0  0  0
   39.8360   35.6650   40.3530 C   0  0  0  0  0  0  0  0  0  0  0  0
   39.3140   33.3380   40.8760 C   0  0  0  0  0  0  0  0  0  0  0  0
   39.8150   33.4060   42.0310 O   0  0  0  0  0  0  0  0  0  0  0  0
   39.1890   34.4260   39.9800 N   0  0  0  0  0  0  0  0  0  0  0  0
   38.8050   32.0320   40.3840 C   0  0  0  0  0  0  0  0  0  0  0  0
   38.6770   31.8390   39.0110 C   0  0  0  0  0  0  0  0  0  0  0  0
   38.2170   30.6770   38.4300 C   0  0  0  0  0  0  0  0  0  0  0  0
   37.8640   29.6390   39.3030 C   0  0  0  0  0  0  0  0  0  0  0  0
   38.0110   29.8890   40.6530 C   0  0  0  0  0  0  0  0  0  0  0  0
   38.4590   31.0220   41.1990 N   0  0  0  0  0  0  0  0  0  0  0  0
   37.6410   28.7970   41.5910 C   0  0  0  0  0  0  0  0  0  0  0  0
   38.4320   27.5340   41.5610 C   0  0  0  0  0  0  0  0  0  0  0  0
   37.0430   27.5940   40.9130 C   0  0  0  0  0  0  0  0  0  0  0  0
   41.2394   37.0731   39.4969 H   0  0  0  0  0  0  0  0  0  0  0  0
   40.7756   35.7255   38.4039 H   0  0  0  0  0  0  0  0  0  0  0  0
   42.3838   36.2121   41.7929 H   0  0  0  0  0  0  0  0  0  0  0  0
   44.3112   32.7831   38.8529 H   0  0  0  0  0  0  0  0  0  0  0  0
   43.8775   34.2343   43.3337 H   0  0  0  0  0  0  0  0  0  0  0  0
   46.8311   34.8757   43.3148 H   0  0  0  0  0  0  0  0  0  0  0  0
   46.8002   35.4257   41.8742 H   0  0  0  0  0  0  0  0  0  0  0  0
   44.7113   37.1078   42.7472 H   0  0  0  0  0  0  0  0  0  0  0  0
   44.9527   36.7085   44.2514 H   0  0  0  0  0  0  0  0  0  0  0  0
   40.1980   35.5779   41.3881 H   0  0  0  0  0  0  0  0  0  0  0  0
   39.0979   36.4745   40.2537 H   0  0  0  0  0  0  0  0  0  0  0  0
   38.6603   34.3396   39.1003 H   0  0  0  0  0  0  0  0  0  0  0  0
   38.9616   32.6682   38.3466 H   0  0  0  0  0  0  0  0  0  0  0  0
   38.1314   30.5699   37.3386 H   0  0  0  0  0  0  0  0  0  0  0  0
   37.4888   28.6740   38.9315 H   0  0  0  0  0  0  0  0  0  0  0  0
   37.3570   29.4747   42.4096 H   0  0  0  0  0  0  0  0  0  0  0  0
   39.3311   27.4618   40.9313 H   0  0  0  0  0  0  0  0  0  0  0  0
   38.9126   26.8966   42.3179 H   0  0  0  0  0  0  0  0  0  0  0  0
   36.9416   27.5692   39.8180 H   0  0  0  0  0  0  0  0  0  0  0  0
   36.1072   27.0237   41.0077 H   0  0  0  0  0  0  0  0  0  0  0  0
  1  4  1  0
  1 11  1  0
  2  8  1  0
  3  2  2  0
  4  3  1  0
  5  6  1  0
  5  4  2  0
  6  7  2  0
  7  2  1  0
  8 10  1  0
  9  8  1  0
  9 10  1  0
 12 13  2  0
 14 11  1  0
 14 12  1  0
 15 12  1  0
 15 20  1  0
 16 15  2  0
 17 16  1  0
 17 18  2  0
 18 19  1  0
 19 20  2  0
 19 21  1  0
 22 21  1  0
 23 22  1  0
 23 21  1  0
  1 24  1  0
  1 25  1  0
  3 26  1  0
  6 27  1  0
  8 28  1  0
  9 29  1  0
  9 30  1  0
 10 31  1  0
 10 32  1  0
 11 33  1  0
 11 34  1  0
 14 35  1  0
 16 36  1  0
 17 37  1  0
 18 38  1  0
 21 39  1  0
 22 40  1  0
 22 41  1  0
 23 42  1  0
 23 43  1  0
M  ISO  8  24   8  25   8  26  14  27  14  28  13  29  13  30  13  31  13
M  ISO  8  32  13  33   8  34   8  36  14  37  14  38  14  39  13  40  13
M  ISO  3  41  13  42  13  43  13
M  END
>  <minimizedAffinity>  (1) 
-5.25264835

>  <minimizedRMSD>  (1) 
0.478008747

$$$$
