
     RDKit          3D

 43 46  0  0  0  0  0  0  0  0999 V2000
   39.5990   35.5140   40.2890 C   0  0  0  0  0  0  0  0  0  0  0  0
   39.0510   33.1270   40.2620 C   0  0  0  0  0  0  0  0  0  0  0  0
   39.2010   33.0030   41.5070 O   0  0  0  0  0  0  0  0  0  0  0  0
   39.1440   34.3590   39.5490 N   0  0  0  0  0  0  0  0  0  0  0  0
   38.7550   31.9310   39.4360 C   0  0  0  0  0  0  0  0  0  0  0  0
   39.1140   31.9140   38.1050 C   0  0  0  0  0  0  0  0  0  0  0  0
   38.8960   30.8790   37.2340 C   0  0  0  0  0  0  0  0  0  0  0  0
   38.2530   29.7630   37.7800 C   0  0  0  0  0  0  0  0  0  0  0  0
   37.9050   29.8050   39.1120 C   0  0  0  0  0  0  0  0  0  0  0  0
   38.1420   30.8560   39.9360 N   0  0  0  0  0  0  0  0  0  0  0  0
   37.2310   28.6500   39.7060 C   0  0  0  0  0  0  0  0  0  0  0  0
   35.8700   28.3470   39.6090 C   0  0  0  0  0  0  0  0  0  0  0  0
   35.6050   27.1970   40.2870 N   0  0  0  0  0  0  0  0  0  0  0  0
   36.7890   26.7790   40.8060 C   0  0  0  0  0  0  0  0  0  0  0  0
   37.7370   27.6590   40.4460 N   0  0  0  0  0  0  0  0  0  0  0  0
   40.9310   36.0410   39.7820 C   0  0  0  0  0  0  0  0  0  0  0  0
   43.7950   34.5960   41.7950 C   0  0  0  0  0  0  0  0  0  0  0  0
   42.7550   35.4700   41.3760 C   0  0  0  0  0  0  0  0  0  0  0  0
   42.0310   35.1610   40.2440 C   0  0  0  0  0  0  0  0  0  0  0  0
   42.3820   33.9980   39.5890 N   0  0  0  0  0  0  0  0  0  0  0  0
   43.3880   33.1980   40.0360 C   0  0  0  0  0  0  0  0  0  0  0  0
   44.0860   33.4980   41.1290 N   0  0  0  0  0  0  0  0  0  0  0  0
   44.5790   34.9520   43.0180 C   0  0  0  0  0  0  0  0  0  0  0  0
   46.0590   35.3640   42.6390 C   0  0  0  0  0  0  0  0  0  0  0  0
   45.0950   36.2210   43.3300 C   0  0  0  0  0  0  0  0  0  0  0  0
   38.8462   36.3108   40.1974 H   0  0  0  0  0  0  0  0  0  0  0  0
   39.7372   35.2073   41.3363 H   0  0  0  0  0  0  0  0  0  0  0  0
   38.8978   34.4226   38.5509 H   0  0  0  0  0  0  0  0  0  0  0  0
   39.6184   32.8075   37.7085 H   0  0  0  0  0  0  0  0  0  0  0  0
   39.2050   30.9226   36.1792 H   0  0  0  0  0  0  0  0  0  0  0  0
   38.0320   28.8787   37.1642 H   0  0  0  0  0  0  0  0  0  0  0  0
   35.1251   28.9476   39.0664 H   0  0  0  0  0  0  0  0  0  0  0  0
   34.6895   26.7356   40.3867 H   0  0  0  0  0  0  0  0  0  0  0  0
   36.9440   25.8764   41.4153 H   0  0  0  0  0  0  0  0  0  0  0  0
   41.0914   37.0585   40.1680 H   0  0  0  0  0  0  0  0  0  0  0  0
   40.9186   36.0580   38.6822 H   0  0  0  0  0  0  0  0  0  0  0  0
   42.5305   36.3822   41.9483 H   0  0  0  0  0  0  0  0  0  0  0  0
   43.6305   32.2803   39.4801 H   0  0  0  0  0  0  0  0  0  0  0  0
   43.9964   34.2593   43.6430 H   0  0  0  0  0  0  0  0  0  0  0  0
   46.9185   34.9355   43.1753 H   0  0  0  0  0  0  0  0  0  0  0  0
   46.6755   35.4127   41.7293 H   0  0  0  0  0  0  0  0  0  0  0  0
   44.6946   37.0999   42.8034 H   0  0  0  0  0  0  0  0  0  0  0  0
   45.1535   36.7779   44.2768 H   0  0  0  0  0  0  0  0  0  0  0  0
  2  3  2  0
  4  2  1  0
  4  1  1  0
  5 10  1  0
  5  2  1  0
  6  5  2  0
  7  8  2  0
  7  6  1  0
  8  9  1  0
  9 11  1  0
  9 10  2  0
 11 15  1  0
 12 11  2  0
 12 13  1  0
 13 14  1  0
 15 14  2  0
 16 19  1  0
 16  1  1  0
 17 23  1  0
 18 17  2  0
 19 18  1  0
 20 21  1  0
 20 19  2  0
 21 22  2  0
 22 17  1  0
 23 25  1  0
 24 23  1  0
 24 25  1  0
  1 26  1  0
  1 27  1  0
  4 28  1  0
  6 29  1  0
  7 30  1  0
  8 31  1  0
 12 32  1  0
 13 33  1  0
 14 34  1  0
 16 35  1  0
 16 36  1  0
 18 37  1  0
 21 38  1  0
 23 39  1  0
 24 40  1  0
 24 41  1  0
 25 42  1  0
 25 43  1  0
M  ISO  8  26   8  27   8  29  14  30  14  31  14  32  14  33   9  34  14
M  ISO  8  35   8  36   8  37  14  38  14  39  13  40  13  41  13  42  13
M  ISO  1  43  13
M  END
>  <minimizedAffinity>  (1) 
-5.24300957

>  <minimizedRMSD>  (1) 
1.49204683

$$$$
