
     RDKit          3D

 49 52  0  0  0  0  0  0  0  0999 V2000
   39.4890   35.3110   40.2170 C   0  0  0  0  0  0  0  0  0  0  0  0
   38.8510   32.9680   40.0230 C   0  0  0  0  0  0  0  0  0  0  0  0
   38.7260   32.8190   41.2780 O   0  0  0  0  0  0  0  0  0  0  0  0
   39.1450   34.1830   39.3760 N   0  0  0  0  0  0  0  0  0  0  0  0
   38.6770   31.7800   39.1540 C   0  0  0  0  0  0  0  0  0  0  0  0
   38.9020   31.9290   37.7820 C   0  0  0  0  0  0  0  0  0  0  0  0
   38.7770   30.9090   36.8560 C   0  0  0  0  0  0  0  0  0  0  0  0
   38.3980   29.6580   37.3600 C   0  0  0  0  0  0  0  0  0  0  0  0
   38.1900   29.5730   38.7200 C   0  0  0  0  0  0  0  0  0  0  0  0
   38.3160   30.5710   39.5970 N   0  0  0  0  0  0  0  0  0  0  0  0
   37.8050   28.3030   39.2380 N   0  0  0  0  0  0  0  0  0  0  0  0
   38.4510   27.0650   38.8390 C   0  0  0  0  0  0  0  0  0  0  0  0
   37.5810   25.8950   39.2470 C   0  0  0  0  0  0  0  0  0  0  0  0
   37.3800   25.8490   40.6030 O   0  0  0  0  0  0  0  0  0  0  0  0
   37.2380   27.0940   41.1940 C   0  0  0  0  0  0  0  0  0  0  0  0
   36.7370   28.1340   40.2040 C   0  0  0  0  0  0  0  0  0  0  0  0
   40.8190   35.9490   39.8340 C   0  0  0  0  0  0  0  0  0  0  0  0
   43.7520   34.5740   41.7870 C   0  0  0  0  0  0  0  0  0  0  0  0
   42.6910   35.4260   41.3840 C   0  0  0  0  0  0  0  0  0  0  0  0
   41.9410   35.0910   40.2780 C   0  0  0  0  0  0  0  0  0  0  0  0
   42.2880   33.9270   39.6290 N   0  0  0  0  0  0  0  0  0  0  0  0
   43.3220   33.1450   40.0610 C   0  0  0  0  0  0  0  0  0  0  0  0
   44.0440   33.4700   41.1300 N   0  0  0  0  0  0  0  0  0  0  0  0
   44.5560   34.9680   42.9870 C   0  0  0  0  0  0  0  0  0  0  0  0
   46.0390   35.3080   42.5940 C   0  0  0  0  0  0  0  0  0  0  0  0
   45.1010   36.2430   43.2260 C   0  0  0  0  0  0  0  0  0  0  0  0
   38.6971   36.0694   40.1291 H   0  0  0  0  0  0  0  0  0  0  0  0
   39.5847   34.9388   41.2477 H   0  0  0  0  0  0  0  0  0  0  0  0
   39.1168   34.2663   38.3498 H   0  0  0  0  0  0  0  0  0  0  0  0
   39.1979   32.9228   37.4148 H   0  0  0  0  0  0  0  0  0  0  0  0
   38.9646   31.0710   35.7843 H   0  0  0  0  0  0  0  0  0  0  0  0
   38.2724   28.7855   36.7020 H   0  0  0  0  0  0  0  0  0  0  0  0
   38.5895   27.0575   37.7478 H   0  0  0  0  0  0  0  0  0  0  0  0
   39.4318   26.9851   39.3305 H   0  0  0  0  0  0  0  0  0  0  0  0
   36.6056   25.9870   38.7469 H   0  0  0  0  0  0  0  0  0  0  0  0
   38.0966   24.9699   38.9497 H   0  0  0  0  0  0  0  0  0  0  0  0
   36.5187   27.0151   42.0225 H   0  0  0  0  0  0  0  0  0  0  0  0
   38.2253   27.4150   41.5576 H   0  0  0  0  0  0  0  0  0  0  0  0
   36.5307   29.0845   40.7178 H   0  0  0  0  0  0  0  0  0  0  0  0
   35.8002   27.8175   39.7221 H   0  0  0  0  0  0  0  0  0  0  0  0
   40.8635   36.0698   38.7416 H   0  0  0  0  0  0  0  0  0  0  0  0
   40.9013   36.9311   40.3226 H   0  0  0  0  0  0  0  0  0  0  0  0
   42.4699   36.3438   41.9485 H   0  0  0  0  0  0  0  0  0  0  0  0
   43.5634   32.2235   39.5109 H   0  0  0  0  0  0  0  0  0  0  0  0
   43.9598   34.3228   43.6490 H   0  0  0  0  0  0  0  0  0  0  0  0
   46.8825   34.8871   43.1608 H   0  0  0  0  0  0  0  0  0  0  0  0
   46.6588   35.2790   41.6857 H   0  0  0  0  0  0  0  0  0  0  0  0
   44.7287   37.0984   42.6431 H   0  0  0  0  0  0  0  0  0  0  0  0
   45.1706   36.8586   44.1349 H   0  0  0  0  0  0  0  0  0  0  0  0
  2  3  2  0
  4  2  1  0
  4  1  1  0
  5 10  1  0
  5  2  1  0
  6  5  2  0
  7  8  2  0
  7  6  1  0
  8  9  1  0
  9 11  1  0
  9 10  2  0
 11 16  1  0
 12 11  1  0
 12 13  1  0
 13 14  1  0
 14 15  1  0
 16 15  1  0
 17  1  1  0
 17 20  1  0
 18 24  1  0
 19 18  2  0
 20 19  1  0
 21 22  1  0
 21 20  2  0
 22 23  2  0
 23 18  1  0
 24 26  1  0
 25 24  1  0
 25 26  1  0
  1 27  1  0
  1 28  1  0
  4 29  1  0
  6 30  1  0
  7 31  1  0
  8 32  1  0
 12 33  1  0
 12 34  1  0
 13 35  1  0
 13 36  1  0
 15 37  1  0
 15 38  1  0
 16 39  1  0
 16 40  1  0
 17 41  1  0
 17 42  1  0
 19 43  1  0
 22 44  1  0
 24 45  1  0
 25 46  1  0
 25 47  1  0
 26 48  1  0
 26 49  1  0
M  ISO  8  27   8  28   8  30  14  31  14  32  14  33  13  34  13  35  13
M  ISO  8  36  13  37  13  38  13  39  13  40  13  41   8  42   8  43  14
M  ISO  6  44  14  45  13  46  13  47  13  48  13  49  13
M  END
>  <minimizedAffinity>  (1) 
-5.22393036

>  <minimizedRMSD>  (1) 
2.0015111

$$$$
