
     RDKit          3D

 28 29  0  0  0  0  0  0  0  0999 V2000
   45.2020   35.8800   43.5390 C   0  0  0  0  0  0  0  0  0  0  0  0
   46.0810   34.8030   43.3400 C   0  0  0  0  0  0  0  0  0  0  0  0
   46.2020   33.8880   44.3760 C   0  0  0  0  0  0  0  0  0  0  0  0
   45.4760   34.0820   45.5070 N   0  0  0  0  0  0  0  0  0  0  0  0
   44.6440   35.1230   45.6680 C   0  0  0  0  0  0  0  0  0  0  0  0
   44.4980   36.0300   44.6920 N   0  0  0  0  0  0  0  0  0  0  0  0
   46.3630   34.1210   40.9290 C   0  0  0  0  0  0  0  0  0  0  0  0
   46.7890   34.7360   42.0660 C   0  0  0  0  0  0  0  0  0  0  0  0
   48.0290   35.3830   42.0520 C   0  0  0  0  0  0  0  0  0  0  0  0
   48.8180   35.4100   40.9270 C   0  0  0  0  0  0  0  0  0  0  0  0
   48.3950   34.7910   39.7720 C   0  0  0  0  0  0  0  0  0  0  0  0
   47.1710   34.1560   39.7960 C   0  0  0  0  0  0  0  0  0  0  0  0
   45.1330   33.5010   41.0030 O   0  0  0  0  0  0  0  0  0  0  0  0
   46.6880   33.5090   38.6500 O   0  0  0  0  0  0  0  0  0  0  0  0
   47.0750   32.8210   44.1740 O   0  0  0  0  0  0  0  0  0  0  0  0
   45.6220   30.8050   45.0770 O   0  0  0  0  0  0  0  0  0  0  0  0
   46.9790   31.4590   45.2200 P   0  0  0  0  0  0  0  0  0  0  0  0
   48.2310   30.4080   44.8440 O   0  0  0  0  0  0  0  0  0  0  0  0
   47.1260   32.0320   46.8110 O   0  0  0  0  0  0  0  0  0  0  0  0
   45.0796   36.6241   42.7382 H   0  0  0  0  0  0  0  0  0  0  0  0
   44.0792   35.2323   46.6056 H   0  0  0  0  0  0  0  0  0  0  0  0
   48.3821   35.8835   42.9657 H   0  0  0  0  0  0  0  0  0  0  0  0
   49.7888   35.9268   40.9493 H   0  0  0  0  0  0  0  0  0  0  0  0
   49.0121   34.8026   38.8615 H   0  0  0  0  0  0  0  0  0  0  0  0
   44.7650   33.0351   40.2107 H   0  0  0  0  0  0  0  0  0  0  0  0
   45.8088   33.0544   38.6717 H   0  0  0  0  0  0  0  0  0  0  0  0
   48.6376   30.0667   45.6797 H   0  0  0  0  0  0  0  0  0  0  0  0
   46.9372   31.2960   47.4456 H   0  0  0  0  0  0  0  0  0  0  0  0
  1  6  2  0
  2  1  1  0
  2  3  2  0
  3  4  1  0
  4  5  2  0
  6  5  1  0
  7 13  1  0
  7  8  2  0
  8  2  1  0
  9  8  1  0
 10  9  2  0
 11 12  2  0
 11 10  1  0
 12  7  1  0
 14 12  1  0
 15  3  1  0
 15 17  1  0
 16 17  2  0
 17 19  1  0
 18 17  1  0
  1 20  1  0
  5 21  1  0
  9 22  1  0
 10 23  1  0
 11 24  1  0
 13 25  1  0
 14 26  1  0
 18 27  1  0
 19 28  1  0
M  ISO  8  20  14  21  14  22  14  23  14  24  14  25   3  26   3  27   3
M  ISO  1  28   3
M  END
>  <minimizedAffinity>  (1) 
-5.48370171

>  <minimizedRMSD>  (1) 
4.14245701

$$$$
