
     RDKit          3D

 26 27  0  0  0  0  0  0  0  0999 V2000
   45.5120   32.9250   47.3830 C   0  0  0  0  0  0  0  0  0  0  0  0
   46.0630   32.9750   46.0940 C   0  0  0  0  0  0  0  0  0  0  0  0
   46.9510   31.9690   45.7250 C   0  0  0  0  0  0  0  0  0  0  0  0
   47.2460   30.9840   46.6290 N   0  0  0  0  0  0  0  0  0  0  0  0
   46.6980   30.9700   47.8550 C   0  0  0  0  0  0  0  0  0  0  0  0
   45.8420   31.9310   48.2260 N   0  0  0  0  0  0  0  0  0  0  0  0
   44.2070   35.0340   46.6560 F   0  0  0  0  0  0  0  0  0  0  0  0
   44.8350   35.0220   45.4350 C   0  0  0  0  0  0  0  0  0  0  0  0
   45.7470   34.0260   45.1350 C   0  0  0  0  0  0  0  0  0  0  0  0
   46.4220   33.9350   43.9390 C   0  0  0  0  0  0  0  0  0  0  0  0
   46.1830   34.8890   42.9730 C   0  0  0  0  0  0  0  0  0  0  0  0
   45.2790   35.8900   43.2540 C   0  0  0  0  0  0  0  0  0  0  0  0
   44.6120   35.9690   44.4500 C   0  0  0  0  0  0  0  0  0  0  0  0
   47.4980   32.0210   44.4410 O   0  0  0  0  0  0  0  0  0  0  0  0
   47.5020   30.7290   42.1440 O   0  0  0  0  0  0  0  0  0  0  0  0
   47.8260   30.5460   43.6240 P   0  0  0  0  0  0  0  0  0  0  0  0
   49.4320   30.1610   43.8510 O   0  0  0  0  0  0  0  0  0  0  0  0
   46.7890   29.3650   44.2470 O   0  0  0  0  0  0  0  0  0  0  0  0
   44.8056   33.7038   47.7061 H   0  0  0  0  0  0  0  0  0  0  0  0
   46.9538   30.1643   48.5589 H   0  0  0  0  0  0  0  0  0  0  0  0
   47.1367   33.1187   43.7579 H   0  0  0  0  0  0  0  0  0  0  0  0
   46.7006   34.8520   42.0031 H   0  0  0  0  0  0  0  0  0  0  0  0
   45.0844   36.6561   42.4890 H   0  0  0  0  0  0  0  0  0  0  0  0
   43.8981   36.7869   44.6270 H   0  0  0  0  0  0  0  0  0  0  0  0
   49.6263   30.1144   44.8206 H   0  0  0  0  0  0  0  0  0  0  0  0
   46.8135   29.3929   45.2363 H   0  0  0  0  0  0  0  0  0  0  0  0
  1  6  2  0
  2  1  1  0
  3  2  2  0
  3  4  1  0
  4  5  2  0
  5  6  1  0
  8  7  1  0
  9  8  2  0
  9  2  1  0
 10  9  1  0
 11 12  1  0
 11 10  2  0
 12 13  2  0
 13  8  1  0
 14  3  1  0
 15 16  2  0
 16 17  1  0
 16 18  1  0
 16 14  1  0
  1 19  1  0
  5 20  1  0
 10 21  1  0
 11 22  1  0
 12 23  1  0
 13 24  1  0
 17 25  1  0
 18 26  1  0
M  ISO  8  19  14  20  14  21  14  22  14  23  14  24  14  25   3  26   3
M  END
>  <minimizedAffinity>  (1) 
-4.79265118

>  <minimizedRMSD>  (1) 
4.59535265

$$$$
