
     RDKit          3D

 26 27  0  0  0  0  0  0  0  0999 V2000
   44.9740   34.6190   45.4160 C   0  0  0  0  0  0  0  0  0  0  0  0
   46.0440   33.7800   45.0700 C   0  0  0  0  0  0  0  0  0  0  0  0
   46.6980   34.0350   43.8750 C   0  0  0  0  0  0  0  0  0  0  0  0
   46.2830   35.0790   43.0890 N   0  0  0  0  0  0  0  0  0  0  0  0
   45.2450   35.8590   43.4690 C   0  0  0  0  0  0  0  0  0  0  0  0
   44.5930   35.6340   44.6210 N   0  0  0  0  0  0  0  0  0  0  0  0
   46.3920   32.7020   45.9890 C   0  0  0  0  0  0  0  0  0  0  0  0
   47.0880   32.8280   47.1750 C   0  0  0  0  0  0  0  0  0  0  0  0
   47.3510   31.7200   47.9530 C   0  0  0  0  0  0  0  0  0  0  0  0
   46.9310   30.4670   47.5730 C   0  0  0  0  0  0  0  0  0  0  0  0
   46.2350   30.3150   46.3930 C   0  0  0  0  0  0  0  0  0  0  0  0
   45.9760   31.4260   45.6210 C   0  0  0  0  0  0  0  0  0  0  0  0
   47.7620   33.2060   43.5260 O   0  0  0  0  0  0  0  0  0  0  0  0
   49.6330   34.9420   42.8870 O   0  0  0  0  0  0  0  0  0  0  0  0
   48.8730   33.7420   42.3280 P   0  0  0  0  0  0  0  0  0  0  0  0
   49.9090   32.4750   41.9580 O   0  0  0  0  0  0  0  0  0  0  0  0
   47.9850   34.2520   40.9910 O   0  0  0  0  0  0  0  0  0  0  0  0
   44.4350   34.4424   46.3585 H   0  0  0  0  0  0  0  0  0  0  0  0
   44.9298   36.6918   42.8232 H   0  0  0  0  0  0  0  0  0  0  0  0
   47.4352   33.8193   47.5016 H   0  0  0  0  0  0  0  0  0  0  0  0
   47.9068   31.8408   48.8945 H   0  0  0  0  0  0  0  0  0  0  0  0
   47.1486   29.5935   48.2052 H   0  0  0  0  0  0  0  0  0  0  0  0
   45.8912   29.3205   46.0723 H   0  0  0  0  0  0  0  0  0  0  0  0
   45.4205   31.3001   44.6800 H   0  0  0  0  0  0  0  0  0  0  0  0
   50.2430   32.0665   42.7956 H   0  0  0  0  0  0  0  0  0  0  0  0
   47.1684   34.7210   41.2966 H   0  0  0  0  0  0  0  0  0  0  0  0
  2  1  2  0
  2  7  1  0
  3  2  1  0
  4  5  1  0
  4  3  2  0
  5  6  2  0
  6  1  1  0
  7  8  2  0
  8  9  1  0
 10  9  2  0
 11 10  1  0
 12  7  1  0
 12 11  2  0
 13  3  1  0
 15 14  2  0
 15 13  1  0
 16 15  1  0
 17 15  1  0
  1 18  1  0
  5 19  1  0
  8 20  1  0
  9 21  1  0
 10 22  1  0
 11 23  1  0
 12 24  1  0
 16 25  1  0
 17 26  1  0
M  ISO  8  18  14  19  14  20  14  21  14  22  14  23  14  24  14  25   3
M  ISO  1  26   3
M  END
>  <minimizedAffinity>  (1) 
-4.62163544

>  <minimizedRMSD>  (1) 
5.72009134

$$$$
