
     RDKit          3D

 23 24  0  0  0  0  0  0  0  0999 V2000
   44.9910   34.7640   44.7320 C   0  0  0  0  0  0  0  0  0  0  0  0
   45.5810   34.7190   43.4370 C   0  0  0  0  0  0  0  0  0  0  0  0
   46.6970   33.9040   43.2840 C   0  0  0  0  0  0  0  0  0  0  0  0
   47.1740   33.1980   44.3480 N   0  0  0  0  0  0  0  0  0  0  0  0
   46.5830   33.2700   45.5610 C   0  0  0  0  0  0  0  0  0  0  0  0
   45.4980   34.0450   45.7610 N   0  0  0  0  0  0  0  0  0  0  0  0
   44.9490   35.5320   42.4170 C   0  0  0  0  0  0  0  0  0  0  0  0
   43.4280   35.3150   42.2850 C   0  0  0  0  0  0  0  0  0  0  0  0
   44.3680   35.0450   41.1690 C   0  0  0  0  0  0  0  0  0  0  0  0
   47.2650   33.8650   42.0280 O   0  0  0  0  0  0  0  0  0  0  0  0
   49.7020   33.1000   41.3370 O   0  0  0  0  0  0  0  0  0  0  0  0
   48.9110   34.3140   41.8230 P   0  0  0  0  0  0  0  0  0  0  0  0
   48.9990   35.5890   40.7480 O   0  0  0  0  0  0  0  0  0  0  0  0
   49.5020   34.7440   43.3560 O   0  0  0  0  0  0  0  0  0  0  0  0
   44.1059   35.3953   44.8997 H   0  0  0  0  0  0  0  0  0  0  0  0
   46.9936   32.6871   46.3986 H   0  0  0  0  0  0  0  0  0  0  0  0
   45.6817   36.3319   42.5998 H   0  0  0  0  0  0  0  0  0  0  0  0
   42.9368   34.4838   42.8121 H   0  0  0  0  0  0  0  0  0  0  0  0
   42.5259   35.9277   42.4290 H   0  0  0  0  0  0  0  0  0  0  0  0
   44.5518   34.0067   40.8556 H   0  0  0  0  0  0  0  0  0  0  0  0
   44.4222   35.3837   40.1239 H   0  0  0  0  0  0  0  0  0  0  0  0
   49.0578   36.4403   41.2499 H   0  0  0  0  0  0  0  0  0  0  0  0
   48.9356   34.3319   44.0556 H   0  0  0  0  0  0  0  0  0  0  0  0
  1  6  2  0
  2  1  1  0
  3  2  2  0
  3  4  1  0
  4  5  2  0
  5  6  1  0
  7  2  1  0
  8  7  1  0
  9  8  1  0
  9  7  1  0
 10  3  1  0
 11 12  2  0
 12 10  1  0
 12 14  1  0
 13 12  1  0
  1 15  1  0
  5 16  1  0
  7 17  1  0
  8 18  1  0
  8 19  1  0
  9 20  1  0
  9 21  1  0
 13 22  1  0
 14 23  1  0
M  ISO  8  15  14  16  14  17  13  18  13  19  13  20  13  21  13  22   3
M  ISO  1  23   3
M  END
>  <minimizedAffinity>  (1) 
-4.50954962

>  <minimizedRMSD>  (1) 
1.29567075

$$$$
