
     RDKit          3D

 41 44  0  0  0  0  0  0  0  0999 V2000
   45.1180   35.5020   43.6600 C   0  0  0  0  0  0  0  0  0  0  0  0
   46.0820   34.4570   43.6400 C   0  0  0  0  0  0  0  0  0  0  0  0
   46.2660   33.7250   44.7940 C   0  0  0  0  0  0  0  0  0  0  0  0
   45.5250   34.0270   45.9030 N   0  0  0  0  0  0  0  0  0  0  0  0
   44.6180   35.0200   45.8990 C   0  0  0  0  0  0  0  0  0  0  0  0
   44.4180   35.7520   44.7860 N   0  0  0  0  0  0  0  0  0  0  0  0
   46.7620   34.2760   42.4120 N   0  0  0  0  0  0  0  0  0  0  0  0
   47.9010   35.0860   42.0000 C   0  0  0  0  0  0  0  0  0  0  0  0
   48.4640   34.5500   40.7240 C   0  0  0  0  0  0  0  0  0  0  0  0
   47.4760   34.3810   39.6890 N   0  0  0  0  0  0  0  0  0  0  0  0
   46.3020   33.6850   40.0970 C   0  0  0  0  0  0  0  0  0  0  0  0
   46.2940   33.2230   41.5210 C   0  0  0  0  0  0  0  0  0  0  0  0
   47.2160   32.7080   44.7450 O   0  0  0  0  0  0  0  0  0  0  0  0
   45.6180   30.8570   45.7660 O   0  0  0  0  0  0  0  0  0  0  0  0
   47.0640   31.3770   45.8210 P   0  0  1  0  0  0  0  0  0  0  0  0
   48.1440   30.2070   45.3510 O   0  0  0  0  0  0  0  0  0  0  0  0
   47.3610   31.9540   47.3740 O   0  0  0  0  0  0  0  0  0  0  0  0
   48.6730   31.4910   49.4240 N   0  0  0  0  0  0  0  0  0  0  0  0
   48.1510   31.1650   48.2290 C   0  0  0  0  0  0  0  0  0  0  0  0
   48.5450   29.8990   48.0060 N   0  0  0  0  0  0  0  0  0  0  0  0
   49.2910   29.4240   49.0140 C   0  0  0  0  0  0  0  0  0  0  0  0
   49.9030   28.1810   49.2040 C   0  0  0  0  0  0  0  0  0  0  0  0
   50.5900   28.0380   50.3530 N   0  0  0  0  0  0  0  0  0  0  0  0
   50.6860   29.0250   51.2640 C   0  0  0  0  0  0  0  0  0  0  0  0
   50.0860   30.1960   51.0400 N   0  0  0  0  0  0  0  0  0  0  0  0
   49.3690   30.4540   49.9230 C   0  0  0  0  0  0  0  0  0  0  0  0
   44.9430   36.1064   42.7578 H   0  0  0  0  0  0  0  0  0  0  0  0
   44.0373   35.2353   46.8081 H   0  0  0  0  0  0  0  0  0  0  0  0
   47.5747   36.1254   41.8477 H   0  0  0  0  0  0  0  0  0  0  0  0
   48.6739   35.0527   42.7819 H   0  0  0  0  0  0  0  0  0  0  0  0
   49.2327   35.2484   40.3615 H   0  0  0  0  0  0  0  0  0  0  0  0
   48.8771   33.5546   40.9442 H   0  0  0  0  0  0  0  0  0  0  0  0
   47.9080   33.8560   38.9153 H   0  0  0  0  0  0  0  0  0  0  0  0
   45.4420   34.3555   39.9525 H   0  0  0  0  0  0  0  0  0  0  0  0
   46.2593   32.7742   39.4817 H   0  0  0  0  0  0  0  0  0  0  0  0
   45.2684   32.9423   41.8027 H   0  0  0  0  0  0  0  0  0  0  0  0
   46.9682   32.3588   41.6138 H   0  0  0  0  0  0  0  0  0  0  0  0
   48.5379   29.7803   46.1528 H   0  0  0  0  0  0  0  0  0  0  0  0
   48.5569   32.4023   49.8897 H   0  0  0  0  0  0  0  0  0  0  0  0
   49.8279   27.3721   48.4623 H   0  0  0  0  0  0  0  0  0  0  0  0
   51.2575   28.8666   52.1905 H   0  0  0  0  0  0  0  0  0  0  0  0
  1  6  2  0
  2  1  1  0
  2  3  2  0
  3  4  1  0
  5  4  2  0
  6  5  1  0
  7  2  1  0
  8  7  1  0
  9  8  1  0
 10 11  1  0
 10  9  1  0
 11 12  1  0
 12  7  1  0
 13  3  1  0
 13 15  1  0
 15 14  2  0
 15 17  1  0
 16 15  1  0
 17 19  1  0
 18 26  1  0
 19 18  1  0
 20 19  2  0
 20 21  1  0
 21 22  1  0
 21 26  2  0
 22 23  2  0
 23 24  1  0
 25 24  2  0
 26 25  1  0
  1 27  1  0
  5 28  1  0
  8 29  1  0
  8 30  1  0
  9 31  1  0
  9 32  1  0
 10 33  1  0
 11 34  1  0
 11 35  1  0
 12 36  1  0
 12 37  1  0
 16 38  1  0
 18 39  1  0
 22 40  1  0
 24 41  1  0
M  ISO  8  27  14  28  14  29  13  30  13  31  13  32  13  33   5  34  13
M  ISO  7  35  13  36  13  37  13  38   3  39   9  40  14  41  14
M  END
>  <minimizedAffinity>  (1) 
-5.98243141

>  <minimizedRMSD>  (1) 
1.54217637

$$$$
