
     RDKit          3D

 40 42  0  0  0  0  0  0  0  0999 V2000
   45.1080   35.6330   43.5220 C   0  0  0  0  0  0  0  0  0  0  0  0
   46.0510   34.5760   43.5600 C   0  0  0  0  0  0  0  0  0  0  0  0
   46.1920   33.8670   44.7400 C   0  0  0  0  0  0  0  0  0  0  0  0
   45.4220   34.2110   45.8100 N   0  0  0  0  0  0  0  0  0  0  0  0
   44.5310   35.2150   45.7580 C   0  0  0  0  0  0  0  0  0  0  0  0
   44.3770   35.9170   44.6230 N   0  0  0  0  0  0  0  0  0  0  0  0
   46.7700   34.3480   42.3630 N   0  0  0  0  0  0  0  0  0  0  0  0
   47.9560   35.1050   41.9840 C   0  0  0  0  0  0  0  0  0  0  0  0
   48.5400   34.5310   40.7320 C   0  0  0  0  0  0  0  0  0  0  0  0
   47.5930   34.3720   39.6690 N   0  0  0  0  0  0  0  0  0  0  0  0
   46.3800   33.7180   40.0400 C   0  0  0  0  0  0  0  0  0  0  0  0
   46.2920   33.3020   41.4730 C   0  0  0  0  0  0  0  0  0  0  0  0
   47.1220   32.8390   44.7480 O   0  0  0  0  0  0  0  0  0  0  0  0
   45.2860   31.0790   44.0410 O   0  0  0  0  0  0  0  0  0  0  0  0
   46.5600   31.2090   44.8640 P   0  0  1  0  0  0  0  0  0  0  0  0
   47.7660   30.2140   44.2620 O   0  0  0  0  0  0  0  0  0  0  0  0
   46.2210   30.9110   46.4830 O   0  0  0  0  0  0  0  0  0  0  0  0
   47.2370   32.9150   47.9840 F   0  0  0  0  0  0  0  0  0  0  0  0
   47.7700   31.6770   48.1010 C   0  0  0  0  0  0  0  0  0  0  0  0
   47.2760   30.6260   47.3490 C   0  0  0  0  0  0  0  0  0  0  0  0
   47.8550   29.3790   47.5030 C   0  0  0  0  0  0  0  0  0  0  0  0
   48.9070   29.2060   48.3980 C   0  0  0  0  0  0  0  0  0  0  0  0
   49.3650   30.2690   49.1230 C   0  0  0  0  0  0  0  0  0  0  0  0
   48.8220   31.5440   49.0080 C   0  0  0  0  0  0  0  0  0  0  0  0
   44.9715   36.2194   42.6014 H   0  0  0  0  0  0  0  0  0  0  0  0
   43.9279   35.4621   46.6441 H   0  0  0  0  0  0  0  0  0  0  0  0
   47.6797   36.1555   41.8107 H   0  0  0  0  0  0  0  0  0  0  0  0
   48.6993   35.0479   42.7929 H   0  0  0  0  0  0  0  0  0  0  0  0
   49.3409   35.2004   40.3850 H   0  0  0  0  0  0  0  0  0  0  0  0
   48.9089   33.5257   40.9837 H   0  0  0  0  0  0  0  0  0  0  0  0
   48.0391   33.8200   38.9225 H   0  0  0  0  0  0  0  0  0  0  0  0
   45.5463   34.4053   39.8337 H   0  0  0  0  0  0  0  0  0  0  0  0
   46.3417   32.7900   39.4506 H   0  0  0  0  0  0  0  0  0  0  0  0
   45.2429   33.0779   41.7161 H   0  0  0  0  0  0  0  0  0  0  0  0
   46.9255   32.4138   41.6136 H   0  0  0  0  0  0  0  0  0  0  0  0
   48.2622   29.8046   45.0145 H   0  0  0  0  0  0  0  0  0  0  0  0
   47.4841   28.5243   46.9183 H   0  0  0  0  0  0  0  0  0  0  0  0
   49.3685   28.2151   48.5211 H   0  0  0  0  0  0  0  0  0  0  0  0
   50.1963   30.1103   49.8257 H   0  0  0  0  0  0  0  0  0  0  0  0
   49.1983   32.3946   49.5953 H   0  0  0  0  0  0  0  0  0  0  0  0
  1  2  2  0
  1  6  1  0
  2  3  1  0
  3 13  1  0
  3  4  2  0
  5  4  1  0
  6  5  2  0
  7  2  1  0
  8  7  1  0
  9  8  1  0
 10 11  1  0
 10  9  1  0
 11 12  1  0
 12  7  1  0
 13 15  1  0
 15 14  2  0
 15 17  1  0
 16 15  1  0
 17 20  1  0
 18 19  1  0
 19 24  2  0
 20 21  2  0
 20 19  1  0
 21 22  1  0
 22 23  2  0
 24 23  1  0
  1 25  1  0
  5 26  1  0
  8 27  1  0
  8 28  1  0
  9 29  1  0
  9 30  1  0
 10 31  1  0
 11 32  1  0
 11 33  1  0
 12 34  1  0
 12 35  1  0
 16 36  1  0
 21 37  1  0
 22 38  1  0
 23 39  1  0
 24 40  1  0
M  ISO  8  25  14  26  14  27  13  28  13  29  13  30  13  31   5  32  13
M  ISO  8  33  13  34  13  35  13  36   3  37  14  38  14  39  14  40  14
M  END
>  <minimizedAffinity>  (1) 
-5.41070127

>  <minimizedRMSD>  (1) 
1.60058808

$$$$
