
     RDKit          3D

 37 39  0  0  0  0  0  0  0  0999 V2000
   45.0210   35.5380   43.4720 C   0  0  0  0  0  0  0  0  0  0  0  0
   46.0300   34.5300   43.5110 C   0  0  0  0  0  0  0  0  0  0  0  0
   46.2560   33.8850   44.7120 C   0  0  0  0  0  0  0  0  0  0  0  0
   45.5160   34.2290   45.8060 N   0  0  0  0  0  0  0  0  0  0  0  0
   44.5600   35.1890   45.7510 C   0  0  0  0  0  0  0  0  0  0  0  0
   44.3280   35.8250   44.5970 N   0  0  0  0  0  0  0  0  0  0  0  0
   46.7080   34.2910   42.2970 N   0  0  0  0  0  0  0  0  0  0  0  0
   47.8300   35.0750   41.8370 C   0  0  0  0  0  0  0  0  0  0  0  0
   48.3960   34.4920   40.5850 C   0  0  0  0  0  0  0  0  0  0  0  0
   47.4040   34.2740   39.5740 N   0  0  0  0  0  0  0  0  0  0  0  0
   46.2450   33.5540   40.0160 C   0  0  0  0  0  0  0  0  0  0  0  0
   46.2370   33.1840   41.4620 C   0  0  0  0  0  0  0  0  0  0  0  0
   47.2470   32.9060   44.7230 O   0  0  0  0  0  0  0  0  0  0  0  0
   45.4630   30.9450   44.7500 O   0  0  0  0  0  0  0  0  0  0  0  0
   46.8420   31.3210   45.2770 P   0  0  1  0  0  0  0  0  0  0  0  0
   48.0290   30.2730   44.7310 O   0  0  0  0  0  0  0  0  0  0  0  0
   46.7810   31.3890   46.9720 O   0  0  0  0  0  0  0  0  0  0  0  0
   45.5070   31.1210   47.4530 C   0  0  0  0  0  0  0  0  0  0  0  0
   45.3150   31.5140   48.9170 C   0  0  0  0  0  0  0  0  0  0  0  0
   45.2780   30.0700   48.4720 C   0  0  0  0  0  0  0  0  0  0  0  0
   44.8090   36.0761   42.5363 H   0  0  0  0  0  0  0  0  0  0  0  0
   43.9788   35.4433   46.6496 H   0  0  0  0  0  0  0  0  0  0  0  0
   47.4956   36.1040   41.6384 H   0  0  0  0  0  0  0  0  0  0  0  0
   48.6083   35.0729   42.6143 H   0  0  0  0  0  0  0  0  0  0  0  0
   49.1556   35.1818   40.1886 H   0  0  0  0  0  0  0  0  0  0  0  0
   48.8268   33.5130   40.8418 H   0  0  0  0  0  0  0  0  0  0  0  0
   47.8392   33.7415   38.8072 H   0  0  0  0  0  0  0  0  0  0  0  0
   45.3614   34.1793   39.8203 H   0  0  0  0  0  0  0  0  0  0  0  0
   46.2456   32.6053   39.4593 H   0  0  0  0  0  0  0  0  0  0  0  0
   45.2108   32.9224   41.7593 H   0  0  0  0  0  0  0  0  0  0  0  0
   46.9137   32.3287   41.6053 H   0  0  0  0  0  0  0  0  0  0  0  0
   48.4910   29.8651   45.5058 H   0  0  0  0  0  0  0  0  0  0  0  0
   45.0299   31.3148   46.4810 H   0  0  0  0  0  0  0  0  0  0  0  0
   46.1641   31.8912   49.5058 H   0  0  0  0  0  0  0  0  0  0  0  0
   44.6414   32.1849   49.4703 H   0  0  0  0  0  0  0  0  0  0  0  0
   44.3260   29.5191   48.4839 H   0  0  0  0  0  0  0  0  0  0  0  0
   45.8157   29.1583   48.7716 H   0  0  0  0  0  0  0  0  0  0  0  0
  1  2  2  0
  1  6  1  0
  2  3  1  0
  3 13  1  0
  3  4  2  0
  5  4  1  0
  6  5  2  0
  7  2  1  0
  8  7  1  0
  9  8  1  0
 10 11  1  0
 10  9  1  0
 11 12  1  0
 12  7  1  0
 13 15  1  0
 15 14  2  0
 15 17  1  0
 16 15  1  0
 17 18  1  0
 18 20  1  0
 18 19  1  0
 20 19  1  0
  1 21  1  0
  5 22  1  0
  8 23  1  0
  8 24  1  0
  9 25  1  0
  9 26  1  0
 10 27  1  0
 11 28  1  0
 11 29  1  0
 12 30  1  0
 12 31  1  0
 16 32  1  0
 18 33  1  0
 19 34  1  0
 19 35  1  0
 20 36  1  0
 20 37  1  0
M  ISO  8  21  14  22  14  23  13  24  13  25  13  26  13  27   5  28  13
M  ISO  8  29  13  30  13  31  13  32   3  33  13  34  13  35  13  36  13
M  ISO  1  37  13
M  END
>  <minimizedAffinity>  (1) 
-4.79414272

>  <minimizedRMSD>  (1) 
1.38774729

$$$$
