
     RDKit          3D

 47 49  0  0  1  0  0  0  0  0999 V2000
   45.3990   35.5380   43.4070 C   0  0  0  0  0  0  0  0  0  0  0  0
   46.3040   34.4740   43.7000 C   0  0  0  0  0  0  0  0  0  0  0  0
   46.2280   33.8860   44.9570 C   0  0  0  0  0  0  0  0  0  0  0  0
   45.3030   34.3480   45.8410 N   0  0  0  0  0  0  0  0  0  0  0  0
   44.4580   35.3550   45.5420 C   0  0  0  0  0  0  0  0  0  0  0  0
   44.5080   35.9420   44.3380 N   0  0  0  0  0  0  0  0  0  0  0  0
   47.1990   34.1250   42.6610 N   0  0  0  0  0  0  0  0  0  0  0  0
   48.6370   34.3090   42.7720 C   0  0  0  0  0  0  0  0  0  0  0  0
   49.3170   33.7200   41.5610 C   0  0  0  0  0  0  0  0  0  0  0  0
   48.7560   34.1880   40.3260 N   0  0  0  0  0  0  0  0  0  0  0  0
   47.3440   34.0990   40.2310 C   0  0  0  0  0  0  0  0  0  0  0  0
   46.6400   33.5600   41.4440 C   0  0  0  0  0  0  0  0  0  0  0  0
   47.1140   32.8670   45.2000 O   0  0  0  0  0  0  0  0  0  0  0  0
   45.5120   30.7890   44.8160 O   0  0  0  0  0  0  0  0  0  0  0  0
   46.5150   31.3540   45.8150 P   0  0  1  0  0  0  0  0  0  0  0  0
   47.8110   30.3530   46.0560 O   0  0  0  0  0  0  0  0  0  0  0  0
   48.1590   30.8290   43.8630 N   0  0  0  0  0  0  0  0  0  0  0  0
   48.4050   29.8650   44.9130 C   0  0  2  0  0  0  0  0  0  0  0  0
   47.7940   28.5150   44.6540 C   0  0  0  0  0  0  0  0  0  0  0  0
   47.9620   28.0600   43.2980 N   0  0  0  0  0  0  0  0  0  0  0  0
   47.3100   29.0250   42.4350 C   0  0  0  0  0  0  0  0  0  0  0  0
   48.1390   30.2890   42.5400 C   0  0  0  0  0  0  0  0  0  0  0  0
   45.7080   31.7200   47.2400 O   0  0  0  0  0  0  0  0  0  0  0  0
   46.5490   31.9450   48.2990 C   0  0  0  0  0  0  0  0  0  0  0  0
   47.6370   32.7480   47.9820 F   0  0  0  0  0  0  0  0  0  0  0  0
   47.0060   30.8290   48.9310 F   0  0  0  0  0  0  0  0  0  0  0  0
   45.7870   32.6490   49.2460 F   0  0  0  0  0  0  0  0  0  0  0  0
   45.4272   36.0289   42.4230 H   0  0  0  0  0  0  0  0  0  0  0  0
   43.7253   35.6959   46.2883 H   0  0  0  0  0  0  0  0  0  0  0  0
   48.8650   35.3833   42.8337 H   0  0  0  0  0  0  0  0  0  0  0  0
   49.0014   33.8029   43.6781 H   0  0  0  0  0  0  0  0  0  0  0  0
   50.3823   33.9926   41.5888 H   0  0  0  0  0  0  0  0  0  0  0  0
   49.1737   32.6300   41.5980 H   0  0  0  0  0  0  0  0  0  0  0  0
   49.0213   35.1765   40.2101 H   0  0  0  0  0  0  0  0  0  0  0  0
   46.9545   35.1090   40.0356 H   0  0  0  0  0  0  0  0  0  0  0  0
   47.1435   33.3785   39.4243 H   0  0  0  0  0  0  0  0  0  0  0  0
   45.5721   33.8172   41.3848 H   0  0  0  0  0  0  0  0  0  0  0  0
   46.7709   32.4681   41.4706 H   0  0  0  0  0  0  0  0  0  0  0  0
   47.2456   31.2702   44.0419 H   0  0  0  0  0  0  0  0  0  0  0  0
   49.4944   29.7317   44.9868 H   0  0  0  0  0  0  0  0  0  0  0  0
   48.2654   27.7842   45.3276 H   0  0  0  0  0  0  0  0  0  0  0  0
   46.7127   28.6092   44.8325 H   0  0  0  0  0  0  0  0  0  0  0  0
   48.9642   28.0017   43.0675 H   0  0  0  0  0  0  0  0  0  0  0  0
   46.2807   29.2112   42.7755 H   0  0  0  0  0  0  0  0  0  0  0  0
   47.2448   28.6653   41.3975 H   0  0  0  0  0  0  0  0  0  0  0  0
   49.1715   30.0583   42.2387 H   0  0  0  0  0  0  0  0  0  0  0  0
   47.6807   31.0417   41.8816 H   0  0  0  0  0  0  0  0  0  0  0  0
  1  2  2  0
  1  6  1  0
  2  3  1  0
  3 13  1  0
  3  4  2  0
  5  4  1  0
  6  5  2  0
  7  8  1  0
  7  2  1  0
  9  8  1  0
 10  9  1  0
 11 10  1  0
 11 12  1  0
 12  7  1  0
 13 15  1  0
 15 14  2  0
 15 16  1  0
 15 23  1  0
 17 18  1  0
 18 16  1  0
 19 18  1  0
 20 19  1  0
 21 22  1  0
 21 20  1  0
 22 17  1  0
 23 24  1  0
 24 26  1  0
 24 27  1  0
 25 24  1  0
  1 28  1  0
  5 29  1  0
  8 30  1  0
  8 31  1  0
  9 32  1  0
  9 33  1  0
 10 34  1  0
 11 35  1  0
 11 36  1  0
 12 37  1  0
 12 38  1  0
 17 39  1  0
 18 40  1  1
 19 41  1  0
 19 42  1  0
 20 43  1  0
 21 44  1  0
 21 45  1  0
 22 46  1  0
 22 47  1  0
M  ISO  8  28  14  29  14  30  13  31  13  32  13  33  13  34   5  35  13
M  ISO  8  36  13  37  13  38  13  39   5  40  13  41  13  42  13  43   5
M  ISO  4  44  13  45  13  46  13  47  13
M  END
>  <minimizedAffinity>  (1) 
-5.12887955

>  <minimizedRMSD>  (1) 
1.04224598

$$$$
