
     RDKit          3D

 44 46  0  0  1  0  0  0  0  0999 V2000
   45.7660   35.2550   43.1050 C   0  0  0  0  0  0  0  0  0  0  0  0
   46.6020   34.2420   43.6450 C   0  0  0  0  0  0  0  0  0  0  0  0
   46.3380   33.8200   44.9480 C   0  0  0  0  0  0  0  0  0  0  0  0
   45.3190   34.3810   45.6290 N   0  0  0  0  0  0  0  0  0  0  0  0
   44.5410   35.3450   45.0880 C   0  0  0  0  0  0  0  0  0  0  0  0
   44.7650   35.7750   43.8390 N   0  0  0  0  0  0  0  0  0  0  0  0
   47.6260   33.7590   42.7950 N   0  0  0  0  0  0  0  0  0  0  0  0
   48.9910   34.2670   42.8350 C   0  0  0  0  0  0  0  0  0  0  0  0
   49.8490   33.4670   41.9080 C   0  0  0  0  0  0  0  0  0  0  0  0
   49.3010   33.3510   40.5810 N   0  0  0  0  0  0  0  0  0  0  0  0
   47.9420   32.9420   40.5180 C   0  0  0  0  0  0  0  0  0  0  0  0
   47.2910   32.7090   41.8450 C   0  0  0  0  0  0  0  0  0  0  0  0
   47.1670   32.8370   45.4410 O   0  0  0  0  0  0  0  0  0  0  0  0
   45.4660   30.8540   44.9480 O   0  0  0  0  0  0  0  0  0  0  0  0
   46.4600   31.3490   45.9980 P   0  0  1  0  0  0  0  0  0  0  0  0
   47.7060   30.2680   46.2250 O   0  0  0  0  0  0  0  0  0  0  0  0
   47.4400   28.9770   45.8800 C   0  0  2  0  0  0  0  0  0  0  0  0
   46.7610   28.3090   47.0590 C   0  0  0  0  0  0  0  0  0  0  0  0
   47.4130   26.9710   47.1520 C   0  0  0  0  0  0  0  0  0  0  0  0
   48.2730   26.8440   46.0710 O   0  0  0  0  0  0  0  0  0  0  0  0
   48.6640   28.1180   45.7060 C   0  0  0  0  0  0  0  0  0  0  0  0
   45.6330   31.7170   47.4100 O   0  0  0  0  0  0  0  0  0  0  0  0
   46.4730   31.9320   48.4800 C   0  0  0  0  0  0  0  0  0  0  0  0
   47.5810   32.6780   48.1680 F   0  0  0  0  0  0  0  0  0  0  0  0
   46.8400   30.7990   49.1420 F   0  0  0  0  0  0  0  0  0  0  0  0
   45.7080   32.6840   49.3930 F   0  0  0  0  0  0  0  0  0  0  0  0
   45.9377   35.6169   42.0805 H   0  0  0  0  0  0  0  0  0  0  0  0
   43.7193   35.7789   45.6766 H   0  0  0  0  0  0  0  0  0  0  0  0
   48.9988   35.3218   42.5230 H   0  0  0  0  0  0  0  0  0  0  0  0
   49.3827   34.1843   43.8596 H   0  0  0  0  0  0  0  0  0  0  0  0
   50.8337   33.9522   41.8378 H   0  0  0  0  0  0  0  0  0  0  0  0
   49.9161   32.4503   42.3225 H   0  0  0  0  0  0  0  0  0  0  0  0
   49.3779   34.2707   40.1237 H   0  0  0  0  0  0  0  0  0  0  0  0
   47.3743   33.7234   39.9916 H   0  0  0  0  0  0  0  0  0  0  0  0
   47.9357   31.9730   39.9974 H   0  0  0  0  0  0  0  0  0  0  0  0
   46.1998   32.6853   41.7085 H   0  0  0  0  0  0  0  0  0  0  0  0
   47.6565   31.7519   42.2454 H   0  0  0  0  0  0  0  0  0  0  0  0
   46.8668   29.0423   44.9434 H   0  0  0  0  0  0  0  0  0  0  0  0
   46.9241   28.8866   47.9808 H   0  0  0  0  0  0  0  0  0  0  0  0
   45.6710   28.2366   46.9298 H   0  0  0  0  0  0  0  0  0  0  0  0
   47.9792   26.8949   48.0920 H   0  0  0  0  0  0  0  0  0  0  0  0
   46.6566   26.1724   47.1380 H   0  0  0  0  0  0  0  0  0  0  0  0
   48.9986   28.1325   44.6582 H   0  0  0  0  0  0  0  0  0  0  0  0
   49.5063   28.4778   46.3152 H   0  0  0  0  0  0  0  0  0  0  0  0
  1  2  2  0
  1  6  1  0
  2  3  1  0
  3 13  1  0
  3  4  2  0
  5  4  1  0
  6  5  2  0
  7  8  1  0
  7  2  1  0
  9  8  1  0
 10  9  1  0
 11 10  1  0
 11 12  1  0
 12  7  1  0
 13 15  1  0
 15 14  2  0
 15 16  1  0
 15 22  1  0
 17 16  1  0
 17 18  1  0
 18 19  1  0
 20 19  1  0
 21 17  1  0
 21 20  1  0
 22 23  1  0
 23 25  1  0
 23 26  1  0
 24 23  1  0
  1 27  1  0
  5 28  1  0
  8 29  1  0
  8 30  1  0
  9 31  1  0
  9 32  1  0
 10 33  1  0
 11 34  1  0
 11 35  1  0
 12 36  1  0
 12 37  1  0
 17 38  1  6
 18 39  1  0
 18 40  1  0
 19 41  1  0
 19 42  1  0
 21 43  1  0
 21 44  1  0
M  ISO  8  27  14  28  14  29  13  30  13  31  13  32  13  33   5  34  13
M  ISO  8  35  13  36  13  37  13  38  13  39  13  40  13  41  13  42  13
M  ISO  2  43  13  44  13
M  END
>  <minimizedAffinity>  (1) 
-5.0369482

>  <minimizedRMSD>  (1) 
1.15045524

$$$$
