
     RDKit          3D

 28 30  0  0  1  0  0  0  0  0999 V2000
   45.9490   32.6980   45.8590 C   0  0  1  0  0  0  0  0  0  0  0  0
   46.9370   32.7950   46.9820 C   0  0  0  0  0  0  0  0  0  0  0  0
   45.4340   32.6480   47.2310 C   0  0  2  0  0  0  0  0  0  0  0  0
   44.5870   35.9390   44.6680 C   0  0  0  0  0  0  0  0  0  0  0  0
   45.2240   36.0480   43.3830 C   0  0  0  0  0  0  0  0  0  0  0  0
   46.1080   35.0040   42.9730 C   0  0  0  0  0  0  0  0  0  0  0  0
   46.3120   33.9670   43.7920 N   0  0  0  0  0  0  0  0  0  0  0  0
   45.6900   33.8950   45.0080 C   0  0  0  0  0  0  0  0  0  0  0  0
   44.8380   34.8740   45.4330 N   0  0  0  0  0  0  0  0  0  0  0  0
   44.9970   31.4540   47.8720 N   0  0  0  0  0  0  0  0  0  0  0  0
   44.8930   30.1010   47.4680 C   0  0  0  0  0  0  0  0  0  0  0  0
   45.1320   29.0690   48.3770 C   0  0  0  0  0  0  0  0  0  0  0  0
   45.0380   27.7550   48.0130 C   0  0  0  0  0  0  0  0  0  0  0  0
   44.7050   27.3720   46.7360 C   0  0  0  0  0  0  0  0  0  0  0  0
   44.4740   28.4040   45.8630 C   0  0  0  0  0  0  0  0  0  0  0  0
   44.5760   29.6720   46.2520 N   0  0  0  0  0  0  0  0  0  0  0  0
   45.8433   32.0423   44.9821 H   0  0  0  0  0  0  0  0  0  0  0  0
   47.6200   31.9595   47.1951 H   0  0  0  0  0  0  0  0  0  0  0  0
   47.7223   33.5034   47.2844 H   0  0  0  0  0  0  0  0  0  0  0  0
   44.6307   33.2024   47.7383 H   0  0  0  0  0  0  0  0  0  0  0  0
   43.9005   36.7246   45.0166 H   0  0  0  0  0  0  0  0  0  0  0  0
   45.0349   36.9143   42.7320 H   0  0  0  0  0  0  0  0  0  0  0  0
   46.6138   35.0523   41.9974 H   0  0  0  0  0  0  0  0  0  0  0  0
   44.6889   31.6085   48.8426 H   0  0  0  0  0  0  0  0  0  0  0  0
   45.4030   29.3198   49.4132 H   0  0  0  0  0  0  0  0  0  0  0  0
   45.2354   26.9787   48.7669 H   0  0  0  0  0  0  0  0  0  0  0  0
   44.6294   26.3163   46.4364 H   0  0  0  0  0  0  0  0  0  0  0  0
   44.1993   28.1791   44.8219 H   0  0  0  0  0  0  0  0  0  0  0  0
  1  2  1  0
  1  3  1  0
  2  3  1  0
  3 10  1  0
  4  9  2  0
  5  4  1  0
  6  5  2  0
  6  7  1  0
  7  8  2  0
  8  9  1  0
  8  1  1  0
 11 10  1  0
 11 12  2  0
 13 12  1  0
 14 13  2  0
 15 16  2  0
 15 14  1  0
 16 11  1  0
  1 17  1  6
  2 18  1  0
  2 19  1  0
  3 20  1  6
  4 21  1  0
  5 22  1  0
  6 23  1  0
 10 24  1  0
 12 25  1  0
 13 26  1  0
 14 27  1  0
 15 28  1  0
M  ISO  8  17  13  18  13  19  13  20  13  21  14  22  14  23  14  25  14
M  ISO  3  26  14  27  14  28  14
M  END
>  <minimizedAffinity>  (1) 
-4.51377439

>  <minimizedRMSD>  (1) 
1.40881908

$$$$
