
     RDKit          3D

 36 37  0  0  0  0  0  0  0  0999 V2000
   45.0750   35.7030   43.4910 C   0  0  0  0  0  0  0  0  0  0  0  0
   46.0010   34.6360   43.5840 C   0  0  0  0  0  0  0  0  0  0  0  0
   46.1080   33.9680   44.7920 C   0  0  0  0  0  0  0  0  0  0  0  0
   45.3310   34.3530   45.8340 N   0  0  0  0  0  0  0  0  0  0  0  0
   44.4580   35.3690   45.7230 C   0  0  0  0  0  0  0  0  0  0  0  0
   44.3250   36.0420   44.5670 N   0  0  0  0  0  0  0  0  0  0  0  0
   46.7370   34.3610   42.3990 N   0  0  0  0  0  0  0  0  0  0  0  0
   47.9310   35.0930   42.0150 C   0  0  0  0  0  0  0  0  0  0  0  0
   48.5300   34.4840   40.7930 C   0  0  0  0  0  0  0  0  0  0  0  0
   47.5870   34.3020   39.7240 N   0  0  0  0  0  0  0  0  0  0  0  0
   46.3640   33.6560   40.0920 C   0  0  0  0  0  0  0  0  0  0  0  0
   46.2550   33.2900   41.5360 C   0  0  0  0  0  0  0  0  0  0  0  0
   47.0310   32.9290   44.8320 O   0  0  0  0  0  0  0  0  0  0  0  0
   45.5410   30.7500   44.5890 O   0  0  0  0  0  0  0  0  0  0  0  0
   46.5610   31.4170   45.5110 P   0  0  0  0  0  0  0  0  0  0  0  0
   47.9090   30.4900   45.7390 O   0  0  0  0  0  0  0  0  0  0  0  0
   48.4390   29.8950   44.6200 C   0  0  0  0  0  0  0  0  0  0  0  0
   49.7950   29.5860   44.7880 F   0  0  0  0  0  0  0  0  0  0  0  0
   47.8020   28.7060   44.3370 F   0  0  0  0  0  0  0  0  0  0  0  0
   48.4280   30.7440   43.5050 F   0  0  0  0  0  0  0  0  0  0  0  0
   45.7760   31.7810   46.9680 O   0  0  0  0  0  0  0  0  0  0  0  0
   46.6480   31.9420   48.0250 C   0  0  0  0  0  0  0  0  0  0  0  0
   47.7090   32.7590   47.7360 F   0  0  0  0  0  0  0  0  0  0  0  0
   47.1140   30.7760   48.5590 F   0  0  0  0  0  0  0  0  0  0  0  0
   45.8980   32.5630   49.0320 F   0  0  0  0  0  0  0  0  0  0  0  0
   44.9647   36.2559   42.5465 H   0  0  0  0  0  0  0  0  0  0  0  0
   43.8439   35.6537   46.5901 H   0  0  0  0  0  0  0  0  0  0  0  0
   47.6657   36.1402   41.8078 H   0  0  0  0  0  0  0  0  0  0  0  0
   48.6617   35.0494   42.8361 H   0  0  0  0  0  0  0  0  0  0  0  0
   49.3381   35.1400   40.4370 H   0  0  0  0  0  0  0  0  0  0  0  0
   48.8974   33.4862   41.0747 H   0  0  0  0  0  0  0  0  0  0  0  0
   48.0396   33.7344   38.9934 H   0  0  0  0  0  0  0  0  0  0  0  0
   45.5328   34.3338   39.8478 H   0  0  0  0  0  0  0  0  0  0  0  0
   46.3343   32.7101   39.5313 H   0  0  0  0  0  0  0  0  0  0  0  0
   45.2005   33.0870   41.7741 H   0  0  0  0  0  0  0  0  0  0  0  0
   46.8763   32.3997   41.7130 H   0  0  0  0  0  0  0  0  0  0  0  0
  1  2  2  0
  1  6  1  0
  2  3  1  0
  3 13  1  0
  3  4  2  0
  5  4  1  0
  6  5  2  0
  7  2  1  0
  8  7  1  0
  9  8  1  0
 10 11  1  0
 10  9  1  0
 11 12  1  0
 12  7  1  0
 13 15  1  0
 14 15  2  0
 15 16  1  0
 15 21  1  0
 17 18  1  0
 17 16  1  0
 19 17  1  0
 20 17  1  0
 21 22  1  0
 22 24  1  0
 22 25  1  0
 23 22  1  0
  1 26  1  0
  5 27  1  0
  8 28  1  0
  8 29  1  0
  9 30  1  0
  9 31  1  0
 10 32  1  0
 11 33  1  0
 11 34  1  0
 12 35  1  0
 12 36  1  0
M  ISO  8  26  14  27  14  28  13  29  13  30  13  31  13  32   5  33  13
M  ISO  3  34  13  35  13  36  13
M  END
>  <minimizedAffinity>  (1) 
-4.97026253

>  <minimizedRMSD>  (1) 
0.367027938

$$$$
