
     RDKit          3D

 37 38  0  0  0  0  0  0  0  0999 V2000
   45.0600   35.6970   43.4920 C   0  0  0  0  0  0  0  0  0  0  0  0
   45.9970   34.6260   43.5760 C   0  0  0  0  0  0  0  0  0  0  0  0
   46.1080   33.9640   44.7870 C   0  0  0  0  0  0  0  0  0  0  0  0
   45.3390   34.3440   45.8330 N   0  0  0  0  0  0  0  0  0  0  0  0
   44.4600   35.3560   45.7330 C   0  0  0  0  0  0  0  0  0  0  0  0
   44.3250   36.0210   44.5760 N   0  0  0  0  0  0  0  0  0  0  0  0
   46.7290   34.3510   42.3870 N   0  0  0  0  0  0  0  0  0  0  0  0
   47.9170   35.0860   42.0160 C   0  0  0  0  0  0  0  0  0  0  0  0
   48.5290   34.4800   40.7850 C   0  0  0  0  0  0  0  0  0  0  0  0
   47.5800   34.3050   39.7100 N   0  0  0  0  0  0  0  0  0  0  0  0
   46.3640   33.6560   40.0830 C   0  0  0  0  0  0  0  0  0  0  0  0
   46.2440   33.2810   41.5210 C   0  0  0  0  0  0  0  0  0  0  0  0
   47.0270   32.9300   44.8350 O   0  0  0  0  0  0  0  0  0  0  0  0
   45.5580   30.7310   44.6000 O   0  0  0  0  0  0  0  0  0  0  0  0
   46.5680   31.4230   45.5340 P   0  0  1  0  0  0  0  0  0  0  0  0
   47.9290   30.5000   45.7400 O   0  0  0  0  0  0  0  0  0  0  0  0
   48.5120   29.7130   44.7610 C   0  0  0  0  0  0  0  0  0  0  0  0
   48.9080   30.4350   43.7870 O   0  0  0  0  0  0  0  0  0  0  0  0
   48.7160   28.3260   44.6930 N   0  0  0  0  0  0  0  0  0  0  0  0
   45.7760   31.7800   46.9780 O   0  0  0  0  0  0  0  0  0  0  0  0
   46.6500   31.9390   48.0290 C   0  0  0  0  0  0  0  0  0  0  0  0
   47.7120   32.7670   47.7460 F   0  0  0  0  0  0  0  0  0  0  0  0
   47.1310   30.7760   48.5710 F   0  0  0  0  0  0  0  0  0  0  0  0
   45.8980   32.5610   49.0370 F   0  0  0  0  0  0  0  0  0  0  0  0
   44.9373   36.2544   42.5516 H   0  0  0  0  0  0  0  0  0  0  0  0
   43.8494   35.6397   46.6029 H   0  0  0  0  0  0  0  0  0  0  0  0
   47.6494   36.1334   41.8126 H   0  0  0  0  0  0  0  0  0  0  0  0
   48.6431   35.0415   42.8411 H   0  0  0  0  0  0  0  0  0  0  0  0
   49.3375   35.1387   40.4350 H   0  0  0  0  0  0  0  0  0  0  0  0
   48.9019   33.4824   41.0601 H   0  0  0  0  0  0  0  0  0  0  0  0
   48.0303   33.7428   38.9737 H   0  0  0  0  0  0  0  0  0  0  0  0
   45.5317   34.3330   39.8400 H   0  0  0  0  0  0  0  0  0  0  0  0
   46.3472   32.7085   39.5245 H   0  0  0  0  0  0  0  0  0  0  0  0
   45.1873   33.0825   41.7532 H   0  0  0  0  0  0  0  0  0  0  0  0
   46.8551   32.3840   41.6995 H   0  0  0  0  0  0  0  0  0  0  0  0
   49.1760   27.9129   43.8692 H   0  0  0  0  0  0  0  0  0  0  0  0
   48.4057   27.7213   45.4669 H   0  0  0  0  0  0  0  0  0  0  0  0
  1  2  2  0
  1  6  1  0
  2  3  1  0
  3 13  1  0
  3  4  2  0
  5  4  1  0
  6  5  2  0
  7  2  1  0
  8  7  1  0
  9  8  1  0
 10 11  1  0
 10  9  1  0
 11 12  1  0
 12  7  1  0
 13 15  1  0
 15 14  2  0
 15 16  1  0
 15 20  1  0
 17 16  1  0
 18 17  2  0
 19 17  1  0
 20 21  1  0
 21 23  1  0
 21 24  1  0
 22 21  1  0
  1 25  1  0
  5 26  1  0
  8 27  1  0
  8 28  1  0
  9 29  1  0
  9 30  1  0
 10 31  1  0
 11 32  1  0
 11 33  1  0
 12 34  1  0
 12 35  1  0
 19 36  1  0
 19 37  1  0
M  ISO  8  25  14  26  14  27  13  28  13  29  13  30  13  31   5  32  13
M  ISO  3  33  13  34  13  35  13
M  END
>  <minimizedAffinity>  (1) 
-4.85209179

>  <minimizedRMSD>  (1) 
0.687313497

$$$$
