
     RDKit          3D

 19 20  0  0  1  0  0  0  0  0999 V2000
   48.2360   34.1770   41.6620 C   0  0  1  0  0  0  0  0  0  0  0  0
   48.6890   35.3940   40.9900 C   0  0  0  0  0  0  0  0  0  0  0  0
   49.6270   34.7070   41.9220 C   0  0  1  0  0  0  0  0  0  0  0  0
   46.2540   35.2970   42.7900 C   0  0  0  0  0  0  0  0  0  0  0  0
   47.2230   34.2890   42.7590 C   0  0  0  0  0  0  0  0  0  0  0  0
   47.2360   33.3650   43.8010 C   0  0  0  0  0  0  0  0  0  0  0  0
   46.3120   33.4850   44.7920 N   0  0  0  0  0  0  0  0  0  0  0  0
   45.3850   34.4620   44.8050 C   0  0  0  0  0  0  0  0  0  0  0  0
   45.3610   35.3760   43.7910 N   0  0  0  0  0  0  0  0  0  0  0  0
   49.8630   35.1440   43.2540 N   0  0  0  0  0  0  0  0  0  0  0  0
   47.8143   33.2192   41.3231 H   0  0  0  0  0  0  0  0  0  0  0  0
   48.8861   35.3786   39.9079 H   0  0  0  0  0  0  0  0  0  0  0  0
   48.2978   36.4190   40.9105 H   0  0  0  0  0  0  0  0  0  0  0  0
   50.6752   34.3906   41.8164 H   0  0  0  0  0  0  0  0  0  0  0  0
   46.2223   36.0396   41.9791 H   0  0  0  0  0  0  0  0  0  0  0  0
   47.9789   32.5541   43.8222 H   0  0  0  0  0  0  0  0  0  0  0  0
   44.6541   34.5230   45.6248 H   0  0  0  0  0  0  0  0  0  0  0  0
   49.4876   34.4489   43.9150 H   0  0  0  0  0  0  0  0  0  0  0  0
   50.8762   35.2502   43.4061 H   0  0  0  0  0  0  0  0  0  0  0  0
  1  3  1  0
  1  5  1  0
  2  1  1  0
  2  3  1  0
  3 10  1  0
  4  9  2  0
  5  4  1  0
  5  6  2  0
  6  7  1  0
  7  8  2  0
  9  8  1  0
  1 11  1  6
  2 12  1  0
  2 13  1  0
  3 14  1  6
  4 15  1  0
  6 16  1  0
  8 17  1  0
 10 18  1  0
 10 19  1  0
M  ISO  8  11  13  12  13  13  13  14  13  15  14  16  14  17  14  18   5
M  ISO  1  19   5
M  END
>  <minimizedAffinity>  (1) 
-4.03930998

>  <minimizedRMSD>  (1) 
0.451429576

$$$$
