
     RDKit          3D

 30 32  0  0  1  0  0  0  0  0999 V2000
   47.7890   32.3670   42.8050 C   0  0  1  0  0  0  0  0  0  0  0  0
   47.6210   33.0760   44.0780 C   0  0  0  0  0  0  0  0  0  0  0  0
   47.5190   33.8230   42.7830 C   0  0  2  0  0  0  0  0  0  0  0  0
   49.6440   30.6210   42.8740 C   0  0  0  0  0  0  0  0  0  0  0  0
   49.1320   31.8690   42.4290 C   0  0  0  0  0  0  0  0  0  0  0  0
   49.9700   32.6460   41.6030 C   0  0  0  0  0  0  0  0  0  0  0  0
   51.2100   32.1570   41.2820 N   0  0  0  0  0  0  0  0  0  0  0  0
   51.6430   30.9710   41.7290 C   0  0  0  0  0  0  0  0  0  0  0  0
   50.8570   30.2000   42.5280 N   0  0  0  0  0  0  0  0  0  0  0  0
   45.6670   34.2900   41.2520 C   0  0  0  0  0  0  0  0  0  0  0  0
   46.2230   34.4380   42.5270 C   0  0  0  0  0  0  0  0  0  0  0  0
   45.4590   35.1690   43.4150 C   0  0  0  0  0  0  0  0  0  0  0  0
   44.2360   35.7300   43.1150 C   0  0  0  0  0  0  0  0  0  0  0  0
   43.7280   35.5560   41.8440 C   0  0  0  0  0  0  0  0  0  0  0  0
   44.4290   34.8400   40.9000 C   0  0  0  0  0  0  0  0  0  0  0  0
   46.4860   33.4040   40.0120 S   0  0  0  0  0  0  0  0  0  0  0  0
   45.5780   33.1740   38.8130 O   0  0  0  0  0  0  0  0  0  0  0  0
   47.5970   34.2810   39.4460 O   0  0  0  0  0  0  0  0  0  0  0  0
   47.3155   31.4898   42.3400 H   0  0  0  0  0  0  0  0  0  0  0  0
   46.7213   32.9064   44.6877 H   0  0  0  0  0  0  0  0  0  0  0  0
   48.2208   33.1841   44.9937 H   0  0  0  0  0  0  0  0  0  0  0  0
   48.0129   34.6419   42.2394 H   0  0  0  0  0  0  0  0  0  0  0  0
   49.0210   29.9864   43.5215 H   0  0  0  0  0  0  0  0  0  0  0  0
   49.6361   33.6233   41.2244 H   0  0  0  0  0  0  0  0  0  0  0  0
   52.6453   30.6164   41.4469 H   0  0  0  0  0  0  0  0  0  0  0  0
   45.8533   35.3136   44.4317 H   0  0  0  0  0  0  0  0  0  0  0  0
   43.6785   36.3026   43.8708 H   0  0  0  0  0  0  0  0  0  0  0  0
   42.7533   35.9937   41.5824 H   0  0  0  0  0  0  0  0  0  0  0  0
   44.0233   34.7025   39.8868 H   0  0  0  0  0  0  0  0  0  0  0  0
   46.9149   32.2277   40.5681 H   0  0  0  0  0  0  0  0  0  0  0  0
  1  2  1  0
  3  1  1  0
  3  2  1  0
  5  1  1  0
  5  4  2  0
  6  5  1  0
  7  6  2  0
  7  8  1  0
  8  9  2  0
  9  4  1  0
 10 11  2  0
 11  3  1  0
 11 12  1  0
 13 12  2  0
 14 13  1  0
 15 10  1  0
 15 14  2  0
 16 10  1  0
 17 16  2  0
 18 16  2  0
  1 19  1  6
  2 20  1  0
  2 21  1  0
  3 22  1  1
  4 23  1  0
  6 24  1  0
  8 25  1  0
 12 26  1  0
 13 27  1  0
 14 28  1  0
 15 29  1  0
 16 30  1  0
M  ISO  8  19  13  20  13  21  13  22  13  23  14  24  14  25  14  26  14
M  ISO  4  27  14  28  14  29  14  30  11
M  END
>  <minimizedAffinity>  (1) 
-4.03677416

>  <minimizedRMSD>  (1) 
6.14627266

$$$$
