
     RDKit          3D

 30 32  0  0  1  0  0  0  0  0999 V2000
   45.8830   32.2840   44.5400 C   0  0  1  0  0  0  0  0  0  0  0  0
   47.1160   31.6470   43.9670 C   0  0  0  0  0  0  0  0  0  0  0  0
   46.9660   31.9450   45.4710 C   0  0  2  0  0  0  0  0  0  0  0  0
   44.6810   35.7710   44.9000 C   0  0  0  0  0  0  0  0  0  0  0  0
   44.9890   36.3130   43.6030 C   0  0  0  0  0  0  0  0  0  0  0  0
   45.6150   35.4520   42.6460 C   0  0  0  0  0  0  0  0  0  0  0  0
   45.8840   34.1880   42.9950 N   0  0  0  0  0  0  0  0  0  0  0  0
   45.5780   33.7090   44.2320 C   0  0  0  0  0  0  0  0  0  0  0  0
   44.9880   34.4890   45.1640 N   0  0  0  0  0  0  0  0  0  0  0  0
   46.9360   30.8090   46.3310 N   0  0  0  0  0  0  0  0  0  0  0  0
   47.7940   30.8730   48.6060 C   0  0  0  0  0  0  0  0  0  0  0  0
   47.9170   30.4520   47.2980 C   0  0  0  0  0  0  0  0  0  0  0  0
   48.9980   29.6790   46.9340 C   0  0  0  0  0  0  0  0  0  0  0  0
   49.9630   29.3200   47.8570 C   0  0  0  0  0  0  0  0  0  0  0  0
   49.7780   29.7770   49.1580 C   0  0  0  0  0  0  0  0  0  0  0  0
   48.7220   30.5470   49.5740 C   0  0  0  0  0  0  0  0  0  0  0  0
   45.7120   32.3150   49.1880 N   0  0  0  0  0  0  0  0  0  0  0  0
   46.6390   31.6800   48.9280 C   0  0  0  0  0  0  0  0  0  0  0  0
   44.8099   32.0451   44.5037 H   0  0  0  0  0  0  0  0  0  0  0  0
   47.0873   30.6105   43.5997 H   0  0  0  0  0  0  0  0  0  0  0  0
   47.8424   31.8966   43.1796 H   0  0  0  0  0  0  0  0  0  0  0  0
   47.4769   32.5316   46.2487 H   0  0  0  0  0  0  0  0  0  0  0  0
   44.2005   36.3977   45.6657 H   0  0  0  0  0  0  0  0  0  0  0  0
   44.7505   37.3577   43.3544 H   0  0  0  0  0  0  0  0  0  0  0  0
   45.8703   35.8223   41.6422 H   0  0  0  0  0  0  0  0  0  0  0  0
   46.1224   30.1834   46.2438 H   0  0  0  0  0  0  0  0  0  0  0  0
   49.0950   29.3418   45.8915 H   0  0  0  0  0  0  0  0  0  0  0  0
   50.8313   28.7054   47.5773 H   0  0  0  0  0  0  0  0  0  0  0  0
   50.5339   29.5006   49.9078 H   0  0  0  0  0  0  0  0  0  0  0  0
   48.6209   30.8843   50.6161 H   0  0  0  0  0  0  0  0  0  0  0  0
  1  3  1  0
  2  1  1  0
  2  3  1  0
  3 10  1  0
  4  9  2  0
  5  4  1  0
  6  7  1  0
  6  5  2  0
  7  8  2  0
  8  1  1  0
  8  9  1  0
 10 12  1  0
 11 18  1  0
 11 16  2  0
 12 11  1  0
 13 12  2  0
 13 14  1  0
 14 15  2  0
 15 16  1  0
 18 17  3  0
  1 19  1  1
  2 20  1  0
  2 21  1  0
  3 22  1  1
  4 23  1  0
  5 24  1  0
  6 25  1  0
 10 26  1  0
 13 27  1  0
 14 28  1  0
 15 29  1  0
 16 30  1  0
M  ISO  8  19  13  20  13  21  13  22  13  23  14  24  14  25  14  27  14
M  ISO  3  28  14  29  14  30  14
M  END
>  <minimizedAffinity>  (1) 
-4.46472311

>  <minimizedRMSD>  (1) 
3.91119862

$$$$
