
     RDKit          3D

 33 35  0  0  1  0  0  0  0  0999 V2000
   45.8770   33.0520   43.0520 C   0  0  0  0  0  0  0  0  0  0  0  0
   47.1320   32.6400   42.4970 C   0  0  0  0  0  0  0  0  0  0  0  0
   47.9840   31.9020   43.2980 C   0  0  0  0  0  0  0  0  0  0  0  0
   47.5790   31.6140   44.5610 N   0  0  0  0  0  0  0  0  0  0  0  0
   46.3980   32.0080   45.0660 C   0  0  0  0  0  0  0  0  0  0  0  0
   45.5660   32.7240   44.2980 N   0  0  0  0  0  0  0  0  0  0  0  0
   45.4870   30.4270   46.7550 C   0  0  0  0  0  0  0  0  0  0  0  0
   46.0830   31.6310   46.4400 C   0  0  0  0  0  0  0  0  0  0  0  0
   46.3990   32.5290   47.4420 C   0  0  0  0  0  0  0  0  0  0  0  0
   46.1350   32.2550   48.7900 C   0  0  0  0  0  0  0  0  0  0  0  0
   45.5310   31.0450   49.1460 C   0  0  0  0  0  0  0  0  0  0  0  0
   45.2450   30.2010   48.0930 C   0  0  0  0  0  0  0  0  0  0  0  0
   45.0870   29.2980   45.5080 S   0  0  0  0  0  0  0  0  0  0  0  0
   43.8480   28.5380   45.9610 O   0  0  0  0  0  0  0  0  0  0  0  0
   46.1370   28.2410   45.2960 O   0  0  0  0  0  0  0  0  0  0  0  0
   47.5340   32.9940   41.1000 C   0  0  1  0  0  0  0  0  0  0  0  0
   46.8100   34.0200   40.3770 C   0  0  0  0  0  0  0  0  0  0  0  0
   48.1710   34.3590   40.8640 C   0  0  1  0  0  0  0  0  0  0  0  0
   48.3750   35.2980   42.0030 C   0  0  0  0  0  0  0  0  0  0  0  0
   49.1050   36.4130   41.6340 F   0  0  0  0  0  0  0  0  0  0  0  0
   49.0240   34.6700   43.0680 F   0  0  0  0  0  0  0  0  0  0  0  0
   47.1490   35.7360   42.4240 F   0  0  0  0  0  0  0  0  0  0  0  0
   45.1726   33.6396   42.4449 H   0  0  0  0  0  0  0  0  0  0  0  0
   48.9597   31.5590   42.9232 H   0  0  0  0  0  0  0  0  0  0  0  0
   46.8710   33.4856   47.1733 H   0  0  0  0  0  0  0  0  0  0  0  0
   46.4016   32.9884   49.5653 H   0  0  0  0  0  0  0  0  0  0  0  0
   45.3007   30.7851   50.1898 H   0  0  0  0  0  0  0  0  0  0  0  0
   44.7716   29.2418   48.3494 H   0  0  0  0  0  0  0  0  0  0  0  0
   44.9354   30.0196   44.3533 H   0  0  0  0  0  0  0  0  0  0  0  0
   47.8021   31.9489   40.8859 H   0  0  0  0  0  0  0  0  0  0  0  0
   45.9334   34.4952   40.8416 H   0  0  0  0  0  0  0  0  0  0  0  0
   46.3216   34.0577   39.3921 H   0  0  0  0  0  0  0  0  0  0  0  0
   49.0962   34.7403   40.4073 H   0  0  0  0  0  0  0  0  0  0  0  0
  1  6  2  0
  2  1  1  0
  2  3  2  0
  3  4  1  0
  4  5  2  0
  5  8  1  0
  6  5  1  0
  7 12  2  0
  8  7  1  0
  8  9  2  0
  9 10  1  0
 10 11  2  0
 12 11  1  0
 13 14  2  0
 13  7  1  0
 15 13  2  0
 16  2  1  0
 17 18  1  0
 17 16  1  0
 18 16  1  0
 18 19  1  0
 19 22  1  0
 19 21  1  0
 20 19  1  0
  1 23  1  0
  3 24  1  0
  9 25  1  0
 10 26  1  0
 11 27  1  0
 12 28  1  0
 13 29  1  0
 16 30  1  6
 17 31  1  0
 17 32  1  0
 18 33  1  6
M  ISO  8  23  14  24  14  25  14  26  14  27  14  28  14  29  11  30  13
M  ISO  3  31  13  32  13  33  13
M  END
>  <minimizedAffinity>  (1) 
-5.49567509

>  <minimizedRMSD>  (1) 
2.18379879

$$$$
