
     RDKit          3D

 36 38  0  0  1  0  0  0  0  0999 V2000
   45.9010   33.1440   43.2420 C   0  0  0  0  0  0  0  0  0  0  0  0
   47.0560   32.6660   42.5440 C   0  0  0  0  0  0  0  0  0  0  0  0
   47.9280   31.8400   43.2280 C   0  0  0  0  0  0  0  0  0  0  0  0
   47.6390   31.5280   44.5200 N   0  0  0  0  0  0  0  0  0  0  0  0
   46.5490   31.9850   45.1580 C   0  0  0  0  0  0  0  0  0  0  0  0
   45.6990   32.7880   44.5010 N   0  0  0  0  0  0  0  0  0  0  0  0
   47.3400   33.0410   41.1240 C   0  0  1  0  0  0  0  0  0  0  0  0
   46.5830   34.1000   40.4890 C   0  0  0  0  0  0  0  0  0  0  0  0
   47.9890   34.3930   40.8610 C   0  0  1  0  0  0  0  0  0  0  0  0
   48.3180   35.3040   41.9940 C   0  0  0  0  0  0  0  0  0  0  0  0
   49.0850   36.3810   41.5870 F   0  0  0  0  0  0  0  0  0  0  0  0
   48.9960   34.6240   43.0070 F   0  0  0  0  0  0  0  0  0  0  0  0
   47.1480   35.8050   42.4940 F   0  0  0  0  0  0  0  0  0  0  0  0
   46.3070   31.5960   46.5720 C   0  0  0  0  0  0  0  0  0  0  0  0
   45.4430   30.3740   46.7320 C   0  0  0  0  0  0  0  0  0  0  0  0
   45.5990   29.9850   48.2080 C   0  0  0  0  0  0  0  0  0  0  0  0
   45.1790   31.1030   49.1190 C   0  0  0  0  0  0  0  0  0  0  0  0
   45.8190   32.4200   48.7840 C   0  0  0  0  0  0  0  0  0  0  0  0
   45.5830   32.7030   47.3130 C   0  0  0  0  0  0  0  0  0  0  0  0
   45.1836   33.8051   42.7337 H   0  0  0  0  0  0  0  0  0  0  0  0
   48.8317   31.4454   42.7404 H   0  0  0  0  0  0  0  0  0  0  0  0
   47.5589   31.9945   40.8654 H   0  0  0  0  0  0  0  0  0  0  0  0
   45.7635   34.5861   41.0387 H   0  0  0  0  0  0  0  0  0  0  0  0
   46.0113   34.1723   39.5520 H   0  0  0  0  0  0  0  0  0  0  0  0
   48.8815   34.7601   40.3331 H   0  0  0  0  0  0  0  0  0  0  0  0
   47.3105   31.3928   46.9742 H   0  0  0  0  0  0  0  0  0  0  0  0
   44.3932   30.6067   46.4999 H   0  0  0  0  0  0  0  0  0  0  0  0
   45.7371   29.5613   46.0515 H   0  0  0  0  0  0  0  0  0  0  0  0
   44.9746   29.1030   48.4132 H   0  0  0  0  0  0  0  0  0  0  0  0
   46.6603   29.7658   48.3970 H   0  0  0  0  0  0  0  0  0  0  0  0
   44.0873   31.2183   49.0487 H   0  0  0  0  0  0  0  0  0  0  0  0
   45.5049   30.8334   50.1344 H   0  0  0  0  0  0  0  0  0  0  0  0
   45.3692   33.2179   49.3932 H   0  0  0  0  0  0  0  0  0  0  0  0
   46.8980   32.3817   48.9944 H   0  0  0  0  0  0  0  0  0  0  0  0
   45.9960   33.6848   47.0383 H   0  0  0  0  0  0  0  0  0  0  0  0
   44.5112   32.7287   47.0669 H   0  0  0  0  0  0  0  0  0  0  0  0
  1  6  2  0
  2  3  2  0
  2  1  1  0
  3  4  1  0
  4  5  2  0
  5 14  1  0
  6  5  1  0
  7  2  1  0
  8  9  1  0
  8  7  1  0
  9  7  1  0
  9 10  1  0
 10 13  1  0
 10 12  1  0
 11 10  1  0
 14 15  1  0
 14 19  1  0
 15 16  1  0
 16 17  1  0
 18 17  1  0
 19 18  1  0
  1 20  1  0
  3 21  1  0
  7 22  1  6
  8 23  1  0
  8 24  1  0
  9 25  1  6
 14 26  1  0
 15 27  1  0
 15 28  1  0
 16 29  1  0
 16 30  1  0
 17 31  1  0
 17 32  1  0
 18 33  1  0
 18 34  1  0
 19 35  1  0
 19 36  1  0
M  ISO  8  20  14  21  14  22  13  23  13  24  13  25  13  26  13  27  13
M  ISO  8  28  13  29  13  30  13  31  13  32  13  33  13  34  13  35  13
M  ISO  1  36  13
M  END
>  <minimizedAffinity>  (1) 
-5.44903851

>  <minimizedRMSD>  (1) 
2.23933506

$$$$
