
     RDKit          3D

 21 22  0  0  1  0  0  0  0  0999 V2000
   47.4090   33.2610   41.4010 C   0  0  1  0  0  0  0  0  0  0  0  0
   47.0770   34.1300   40.2940 C   0  0  0  0  0  0  0  0  0  0  0  0
   48.4120   34.3010   40.9220 C   0  0  1  0  0  0  0  0  0  0  0  0
   45.5170   34.1440   42.8840 C   0  0  0  0  0  0  0  0  0  0  0  0
   46.7740   33.4690   42.7390 C   0  0  0  0  0  0  0  0  0  0  0  0
   47.4010   33.0200   43.8860 C   0  0  0  0  0  0  0  0  0  0  0  0
   46.8020   33.2380   45.0800 N   0  0  0  0  0  0  0  0  0  0  0  0
   45.6190   33.8740   45.2010 C   0  0  0  0  0  0  0  0  0  0  0  0
   44.9970   34.3170   44.0880 N   0  0  0  0  0  0  0  0  0  0  0  0
   44.9850   34.1100   46.4090 O   0  0  0  0  0  0  0  0  0  0  0  0
   48.7150   35.4970   41.7570 C   0  0  0  0  0  0  0  0  0  0  0  0
   49.3700   36.4810   41.0380 F   0  0  0  0  0  0  0  0  0  0  0  0
   49.4960   35.1580   42.8620 F   0  0  0  0  0  0  0  0  0  0  0  0
   47.5320   36.0300   42.1920 F   0  0  0  0  0  0  0  0  0  0  0  0
   47.4054   32.1702   41.5432 H   0  0  0  0  0  0  0  0  0  0  0  0
   46.3113   34.9087   40.4259 H   0  0  0  0  0  0  0  0  0  0  0  0
   46.7362   33.9550   39.2629 H   0  0  0  0  0  0  0  0  0  0  0  0
   49.4553   34.2976   40.5736 H   0  0  0  0  0  0  0  0  0  0  0  0
   44.9863   34.5172   41.9957 H   0  0  0  0  0  0  0  0  0  0  0  0
   48.3667   32.4964   43.8297 H   0  0  0  0  0  0  0  0  0  0  0  0
   44.1159   34.5837   46.4276 H   0  0  0  0  0  0  0  0  0  0  0  0
  1  5  1  0
  2  3  1  0
  2  1  1  0
  3  1  1  0
  3 11  1  0
  4  9  2  0
  5  4  1  0
  5  6  2  0
  6  7  1  0
  7  8  2  0
  8 10  1  0
  9  8  1  0
 11 14  1  0
 11 13  1  0
 12 11  1  0
  1 15  1  6
  2 16  1  0
  2 17  1  0
  3 18  1  6
  4 19  1  0
  6 20  1  0
 10 21  1  0
M  ISO  7  15  13  16  13  17  13  18  13  19  14  20  14  21   3
M  END
>  <minimizedAffinity>  (1) 
-4.84919643

>  <minimizedRMSD>  (1) 
0.0645084754

$$$$
