
     RDKit          3D

 23 24  0  0  1  0  0  0  0  0999 V2000
   47.4660   33.2840   41.3270 C   0  0  1  0  0  0  0  0  0  0  0  0
   47.1490   34.1260   40.1930 C   0  0  0  0  0  0  0  0  0  0  0  0
   48.4740   34.3160   40.8350 C   0  0  1  0  0  0  0  0  0  0  0  0
   45.5450   34.2050   42.7550 C   0  0  0  0  0  0  0  0  0  0  0  0
   46.8050   33.5300   42.6480 C   0  0  0  0  0  0  0  0  0  0  0  0
   47.4130   33.1160   43.8170 C   0  0  0  0  0  0  0  0  0  0  0  0
   46.7870   33.3680   44.9950 N   0  0  0  0  0  0  0  0  0  0  0  0
   45.6120   33.9970   45.0790 C   0  0  0  0  0  0  0  0  0  0  0  0
   45.0030   34.4100   43.9450 N   0  0  0  0  0  0  0  0  0  0  0  0
   44.9110   34.2820   46.3590 C   0  0  0  0  0  0  0  0  0  0  0  0
   48.7760   35.5220   41.6520 C   0  0  0  0  0  0  0  0  0  0  0  0
   49.3850   36.5180   40.9060 F   0  0  0  0  0  0  0  0  0  0  0  0
   49.5950   35.2150   42.7420 F   0  0  0  0  0  0  0  0  0  0  0  0
   47.5950   36.0370   42.1150 F   0  0  0  0  0  0  0  0  0  0  0  0
   47.4653   32.1974   41.4981 H   0  0  0  0  0  0  0  0  0  0  0  0
   46.3801   34.9060   40.2945 H   0  0  0  0  0  0  0  0  0  0  0  0
   46.8238   33.9246   39.1616 H   0  0  0  0  0  0  0  0  0  0  0  0
   49.5200   34.3117   40.4947 H   0  0  0  0  0  0  0  0  0  0  0  0
   45.0285   34.5526   41.8481 H   0  0  0  0  0  0  0  0  0  0  0  0
   48.3813   32.5946   43.7941 H   0  0  0  0  0  0  0  0  0  0  0  0
   45.5652   34.0160   47.2024 H   0  0  0  0  0  0  0  0  0  0  0  0
   44.6629   35.3524   46.4107 H   0  0  0  0  0  0  0  0  0  0  0  0
   43.9864   33.6884   46.4107 H   0  0  0  0  0  0  0  0  0  0  0  0
  1  5  1  0
  2  3  1  0
  2  1  1  0
  3  1  1  0
  3 11  1  0
  4  9  2  0
  5  4  1  0
  5  6  2  0
  6  7  1  0
  7  8  2  0
  8 10  1  0
  9  8  1  0
 11 14  1  0
 11 13  1  0
 12 11  1  0
  1 15  1  6
  2 16  1  0
  2 17  1  0
  3 18  1  6
  4 19  1  0
  6 20  1  0
 10 21  1  0
 10 22  1  0
 10 23  1  0
M  ISO  8  15  13  16  13  17  13  18  13  19  14  20  14  21   8  22   8
M  ISO  1  23   8
M  END
>  <minimizedAffinity>  (1) 
-4.46668243

>  <minimizedRMSD>  (1) 
0.0856878608

$$$$
