
     RDKit          3D

 42 46  0  0  1  0  0  0  0  0999 V2000
   45.5680   33.5270   43.3830 C   0  0  0  0  0  0  0  0  0  0  0  0
   46.7480   32.9450   42.8060 C   0  0  0  0  0  0  0  0  0  0  0  0
   47.6740   32.4230   43.6700 C   0  0  0  0  0  0  0  0  0  0  0  0
   47.4550   32.4720   44.9990 N   0  0  0  0  0  0  0  0  0  0  0  0
   46.3410   33.0240   45.5210 C   0  0  0  0  0  0  0  0  0  0  0  0
   45.4000   33.5520   44.6930 N   0  0  0  0  0  0  0  0  0  0  0  0
   46.9590   32.9180   41.3410 C   0  0  1  0  0  0  0  0  0  0  0  0
   46.3450   33.8700   40.4670 C   0  0  0  0  0  0  0  0  0  0  0  0
   47.7850   34.0570   40.7180 C   0  0  1  0  0  0  0  0  0  0  0  0
   48.3380   35.1370   41.5660 C   0  0  0  0  0  0  0  0  0  0  0  0
   48.9920   36.0990   40.8170 F   0  0  0  0  0  0  0  0  0  0  0  0
   49.2230   34.6290   42.5230 F   0  0  0  0  0  0  0  0  0  0  0  0
   47.2820   35.7510   42.1910 F   0  0  0  0  0  0  0  0  0  0  0  0
   46.1690   33.0200   46.9980 C   0  0  2  0  0  0  0  0  0  0  0  0
   47.2770   32.2740   47.7180 C   0  0  0  0  0  0  0  0  0  0  0  0
   45.8440   31.8060   47.7450 C   0  0  2  0  0  0  0  0  0  0  0  0
   45.4390   30.5200   47.1880 C   0  0  0  0  0  0  0  0  0  0  0  0
   45.3860   30.5600   45.7880 C   0  0  0  0  0  0  0  0  0  0  0  0
   45.0370   29.4440   45.0210 C   0  0  0  0  0  0  0  0  0  0  0  0
   44.7270   28.2510   45.6370 C   0  0  0  0  0  0  0  0  0  0  0  0
   44.3810   27.1280   44.9830 N   0  0  0  0  0  0  0  0  0  0  0  0
   44.1020   26.0260   45.6990 C   0  0  0  0  0  0  0  0  0  0  0  0
   44.1360   25.9240   47.0760 C   0  0  0  0  0  0  0  0  0  0  0  0
   44.4910   27.0720   47.7560 C   0  0  0  0  0  0  0  0  0  0  0  0
   44.7770   28.2030   47.0130 C   0  0  0  0  0  0  0  0  0  0  0  0
   45.1230   29.3080   47.7570 C   0  0  0  0  0  0  0  0  0  0  0  0
   44.7964   33.9563   42.7270 H   0  0  0  0  0  0  0  0  0  0  0  0
   48.5947   31.9646   43.2798 H   0  0  0  0  0  0  0  0  0  0  0  0
   46.9859   31.8185   41.3612 H   0  0  0  0  0  0  0  0  0  0  0  0
   45.6278   34.5952   40.8789 H   0  0  0  0  0  0  0  0  0  0  0  0
   45.7461   33.7741   39.5494 H   0  0  0  0  0  0  0  0  0  0  0  0
   48.6785   34.1648   40.0854 H   0  0  0  0  0  0  0  0  0  0  0  0
   45.6990   34.0145   47.0039 H   0  0  0  0  0  0  0  0  0  0  0  0
   48.0336   31.7157   47.1471 H   0  0  0  0  0  0  0  0  0  0  0  0
   48.0409   32.5251   48.4686 H   0  0  0  0  0  0  0  0  0  0  0  0
   45.0883   31.5872   48.5138 H   0  0  0  0  0  0  0  0  0  0  0  0
   45.6274   31.5024   45.2745 H   0  0  0  0  0  0  0  0  0  0  0  0
   45.0099   29.5186   43.9239 H   0  0  0  0  0  0  0  0  0  0  0  0
   43.8209   25.1228   45.1375 H   0  0  0  0  0  0  0  0  0  0  0  0
   43.8952   24.9864   47.5984 H   0  0  0  0  0  0  0  0  0  0  0  0
   44.5447   27.0867   48.8546 H   0  0  0  0  0  0  0  0  0  0  0  0
   45.1479   29.2182   48.8530 H   0  0  0  0  0  0  0  0  0  0  0  0
  1  6  2  0
  2  1  1  0
  2  3  2  0
  3  4  1  0
  4  5  2  0
  5 14  1  0
  6  5  1  0
  7  2  1  0
  8  9  1  0
  8  7  1  0
  9  7  1  0
  9 10  1  0
 10 13  1  0
 10 12  1  0
 11 10  1  0
 14 15  1  0
 14 16  1  0
 15 16  1  0
 17 16  1  0
 17 26  1  0
 18 17  2  0
 19 20  2  0
 19 18  1  0
 20 25  1  0
 21 20  1  0
 21 22  2  0
 22 23  1  0
 23 24  2  0
 25 24  1  0
 25 26  2  0
  1 27  1  0
  3 28  1  0
  7 29  1  6
  8 30  1  0
  8 31  1  0
  9 32  1  6
 14 33  1  1
 15 34  1  0
 15 35  1  0
 16 36  1  1
 18 37  1  0
 19 38  1  0
 22 39  1  0
 23 40  1  0
 24 41  1  0
 26 42  1  0
M  ISO  8  27  14  28  14  29  13  30  13  31  13  32  13  33  13  34  13
M  ISO  8  35  13  36  13  37  14  38  14  39  14  40  14  41  14  42  14
M  END
>  <minimizedAffinity>  (1) 
-5.88185024

>  <minimizedRMSD>  (1) 
0.996693194

$$$$
