
     RDKit          3D

 34 36  0  0  1  0  0  0  0  0999 V2000
   46.6950   32.8020   42.5250 C   0  0  0  0  0  0  0  0  0  0  0  0
   47.8850   32.5620   41.7450 C   0  0  0  0  0  0  0  0  0  0  0  0
   48.8340   31.7430   42.2930 C   0  0  0  0  0  0  0  0  0  0  0  0
   48.6280   31.2010   43.5190 N   0  0  0  0  0  0  0  0  0  0  0  0
   47.4990   31.4460   44.2280 C   0  0  0  0  0  0  0  0  0  0  0  0
   46.5450   32.2480   43.7170 N   0  0  0  0  0  0  0  0  0  0  0  0
   48.0630   33.1930   40.4190 C   0  0  1  0  0  0  0  0  0  0  0  0
   47.1930   34.2150   39.9280 C   0  0  0  0  0  0  0  0  0  0  0  0
   48.5210   34.6650   40.3850 C   0  0  1  0  0  0  0  0  0  0  0  0
   48.7440   35.4130   41.6440 C   0  0  0  0  0  0  0  0  0  0  0  0
   49.3540   36.6350   41.4200 F   0  0  0  0  0  0  0  0  0  0  0  0
   49.5180   34.6800   42.5490 F   0  0  0  0  0  0  0  0  0  0  0  0
   47.5120   35.6720   42.1920 F   0  0  0  0  0  0  0  0  0  0  0  0
   47.3530   30.8060   45.5680 C   0  0  2  0  0  0  0  0  0  0  0  0
   46.2180   29.8060   45.6340 C   0  0  0  0  0  0  0  0  0  0  0  0
   46.1480   31.0940   46.3990 C   0  0  1  0  0  0  0  0  0  0  0  0
   45.2410   33.1800   48.1510 N   0  0  0  0  0  0  0  0  0  0  0  0
   45.6570   32.0390   48.5830 C   0  0  0  0  0  0  0  0  0  0  0  0
   46.4270   31.1180   47.8210 N   0  0  0  0  0  0  0  0  0  0  0  0
   45.2470   31.8010   49.9460 N   0  0  0  0  0  0  0  0  0  0  0  0
   45.4440   33.5170   47.1860 H   0  0  0  0  0  0  0  0  0  0  0  0
   45.9039   33.4527   42.1241 H   0  0  0  0  0  0  0  0  0  0  0  0
   49.7604   31.5250   41.7414 H   0  0  0  0  0  0  0  0  0  0  0  0
   48.3979   32.2294   40.0076 H   0  0  0  0  0  0  0  0  0  0  0  0
   46.3016   34.4891   40.5114 H   0  0  0  0  0  0  0  0  0  0  0  0
   46.6375   34.3428   38.9872 H   0  0  0  0  0  0  0  0  0  0  0  0
   49.3391   35.2548   39.9458 H   0  0  0  0  0  0  0  0  0  0  0  0
   48.4305   30.8344   45.7876 H   0  0  0  0  0  0  0  0  0  0  0  0
   45.5703   29.6479   44.7591 H   0  0  0  0  0  0  0  0  0  0  0  0
   46.1296   28.7396   45.8889 H   0  0  0  0  0  0  0  0  0  0  0  0
   45.3672   31.8662   46.4631 H   0  0  0  0  0  0  0  0  0  0  0  0
   47.1365   30.5079   48.2514 H   0  0  0  0  0  0  0  0  0  0  0  0
   45.5119   30.9246   50.4179 H   0  0  0  0  0  0  0  0  0  0  0  0
   44.6895   32.5075   50.4469 H   0  0  0  0  0  0  0  0  0  0  0  0
  1  6  2  0
  2  3  2  0
  2  1  1  0
  3  4  1  0
  4  5  2  0
  5 14  1  0
  6  5  1  0
  7  2  1  0
  8  9  1  0
  8  7  1  0
  9  7  1  0
  9 10  1  0
 10 13  1  0
 10 12  1  0
 11 10  1  0
 14 15  1  0
 14 16  1  0
 15 16  1  0
 16 19  1  0
 17 18  2  0
 18 20  1  0
 19 18  1  0
 21 17  1  0
  1 22  1  0
  3 23  1  0
  7 24  1  6
  8 25  1  0
  8 26  1  0
  9 27  1  6
 14 28  1  1
 15 29  1  0
 15 30  1  0
 16 31  1  6
 19 32  1  0
 20 33  1  0
 20 34  1  0
M  ISO  8  22  14  23  14  24  13  25  13  26  13  27  13  28  13  29  13
M  ISO  2  30  13  31  13
M  END
>  <minimizedAffinity>  (1) 
-5.61556435

>  <minimizedRMSD>  (1) 
1.73274255

$$$$
