
     RDKit          3D

 36 39  0  0  1  0  0  0  0  0999 V2000
   45.6490   33.5380   43.0700 C   0  0  0  0  0  0  0  0  0  0  0  0
   46.9110   33.0390   42.5800 C   0  0  0  0  0  0  0  0  0  0  0  0
   47.7960   32.5770   43.5160 C   0  0  0  0  0  0  0  0  0  0  0  0
   47.4500   32.6120   44.8270 N   0  0  0  0  0  0  0  0  0  0  0  0
   46.2750   33.0780   45.2560 C   0  0  0  0  0  0  0  0  0  0  0  0
   45.3770   33.5410   44.3660 N   0  0  0  0  0  0  0  0  0  0  0  0
   47.2400   33.0380   41.1310 C   0  0  1  0  0  0  0  0  0  0  0  0
   46.6730   34.0000   40.2340 C   0  0  0  0  0  0  0  0  0  0  0  0
   48.0850   34.2130   40.6010 C   0  0  1  0  0  0  0  0  0  0  0  0
   48.5440   35.2850   41.5090 C   0  0  0  0  0  0  0  0  0  0  0  0
   49.1660   36.3150   40.8250 F   0  0  0  0  0  0  0  0  0  0  0  0
   49.4120   34.7990   42.4840 F   0  0  0  0  0  0  0  0  0  0  0  0
   47.4280   35.8240   42.1080 F   0  0  0  0  0  0  0  0  0  0  0  0
   45.9980   33.0620   46.7140 C   0  0  2  0  0  0  0  0  0  0  0  0
   47.0860   32.3900   47.5330 C   0  0  0  0  0  0  0  0  0  0  0  0
   45.7390   31.7850   47.4290 C   0  0  2  0  0  0  0  0  0  0  0  0
   45.4490   30.5410   46.7170 C   0  0  0  0  0  0  0  0  0  0  0  0
   44.9970   29.4710   47.4950 C   0  0  0  0  0  0  0  0  0  0  0  0
   44.6760   28.2070   46.9840 C   0  0  0  0  0  0  0  0  0  0  0  0
   44.8010   27.9740   45.6410 C   0  0  0  0  0  0  0  0  0  0  0  0
   45.2460   29.0360   44.8860 C   0  0  0  0  0  0  0  0  0  0  0  0
   45.5420   30.2280   45.4220 N   0  0  0  0  0  0  0  0  0  0  0  0
   44.9032   33.9209   42.3578 H   0  0  0  0  0  0  0  0  0  0  0  0
   48.7757   32.1822   43.2090 H   0  0  0  0  0  0  0  0  0  0  0  0
   47.2929   31.9393   41.1271 H   0  0  0  0  0  0  0  0  0  0  0  0
   45.9087   34.6982   40.6060 H   0  0  0  0  0  0  0  0  0  0  0  0
   46.1498   33.9146   39.2702 H   0  0  0  0  0  0  0  0  0  0  0  0
   49.0230   34.3554   40.0444 H   0  0  0  0  0  0  0  0  0  0  0  0
   45.4574   34.0196   46.6858 H   0  0  0  0  0  0  0  0  0  0  0  0
   47.9430   31.9181   47.0302 H   0  0  0  0  0  0  0  0  0  0  0  0
   47.7431   32.6965   48.3602 H   0  0  0  0  0  0  0  0  0  0  0  0
   45.0054   31.4395   48.1723 H   0  0  0  0  0  0  0  0  0  0  0  0
   44.8864   29.6320   48.5775 H   0  0  0  0  0  0  0  0  0  0  0  0
   44.3267   27.4090   47.6557 H   0  0  0  0  0  0  0  0  0  0  0  0
   44.5608   26.9987   45.1926 H   0  0  0  0  0  0  0  0  0  0  0  0
   45.3631   28.9007   43.8007 H   0  0  0  0  0  0  0  0  0  0  0  0
  1  6  2  0
  2  1  1  0
  2  3  2  0
  3  4  1  0
  4  5  2  0
  5 14  1  0
  6  5  1  0
  7  2  1  0
  8  9  1  0
  8  7  1  0
  9  7  1  0
  9 10  1  0
 10 13  1  0
 10 12  1  0
 11 10  1  0
 14 16  1  0
 14 15  1  0
 16 15  1  0
 17 16  1  0
 17 18  2  0
 19 18  1  0
 20 19  2  0
 21 22  2  0
 21 20  1  0
 22 17  1  0
  1 23  1  0
  3 24  1  0
  7 25  1  6
  8 26  1  0
  8 27  1  0
  9 28  1  6
 14 29  1  1
 15 30  1  0
 15 31  1  0
 16 32  1  1
 18 33  1  0
 19 34  1  0
 20 35  1  0
 21 36  1  0
M  ISO  8  23  14  24  14  25  13  26  13  27  13  28  13  29  13  30  13
M  ISO  6  31  13  32  13  33  14  34  14  35  14  36  14
M  END
>  <minimizedAffinity>  (1) 
-5.49458838

>  <minimizedRMSD>  (1) 
0.505656004

$$$$
