
     RDKit          3D

 35 38  0  0  1  0  0  0  0  0999 V2000
   45.7100   33.5370   43.0450 C   0  0  0  0  0  0  0  0  0  0  0  0
   46.9900   33.0530   42.6030 C   0  0  0  0  0  0  0  0  0  0  0  0
   47.8160   32.5360   43.5640 C   0  0  0  0  0  0  0  0  0  0  0  0
   47.3810   32.5140   44.8480 N   0  0  0  0  0  0  0  0  0  0  0  0
   46.1920   32.9670   45.2370 C   0  0  0  0  0  0  0  0  0  0  0  0
   45.3580   33.4800   44.3210 N   0  0  0  0  0  0  0  0  0  0  0  0
   47.3890   33.1330   41.1780 C   0  0  1  0  0  0  0  0  0  0  0  0
   46.8200   34.1020   40.2870 C   0  0  0  0  0  0  0  0  0  0  0  0
   48.2020   34.3610   40.7360 C   0  0  1  0  0  0  0  0  0  0  0  0
   48.5660   35.4150   41.7080 C   0  0  0  0  0  0  0  0  0  0  0  0
   49.2410   36.4620   41.1050 F   0  0  0  0  0  0  0  0  0  0  0  0
   49.3520   34.9160   42.7520 F   0  0  0  0  0  0  0  0  0  0  0  0
   47.3950   35.9250   42.2170 F   0  0  0  0  0  0  0  0  0  0  0  0
   45.8390   32.8810   46.6740 C   0  0  2  0  0  0  0  0  0  0  0  0
   46.9970   32.4800   47.5690 C   0  0  0  0  0  0  0  0  0  0  0  0
   45.8530   31.5710   47.3870 C   0  0  2  0  0  0  0  0  0  0  0  0
   45.9140   30.2890   46.6740 C   0  0  0  0  0  0  0  0  0  0  0  0
   44.9160   29.5840   46.0400 C   0  0  0  0  0  0  0  0  0  0  0  0
   45.1060   28.3740   45.4220 C   0  0  0  0  0  0  0  0  0  0  0  0
   46.3180   27.7900   45.3980 N   0  0  0  0  0  0  0  0  0  0  0  0
   47.3100   28.4850   46.0230 C   0  0  0  0  0  0  0  0  0  0  0  0
   47.1330   29.6710   46.6330 N   0  0  0  0  0  0  0  0  0  0  0  0
   45.0104   33.9623   42.3103 H   0  0  0  0  0  0  0  0  0  0  0  0
   48.8106   32.1470   43.3006 H   0  0  0  0  0  0  0  0  0  0  0  0
   47.4947   32.0389   41.1373 H   0  0  0  0  0  0  0  0  0  0  0  0
   46.0065   34.7507   40.6440 H   0  0  0  0  0  0  0  0  0  0  0  0
   46.3492   34.0310   39.2954 H   0  0  0  0  0  0  0  0  0  0  0  0
   49.1587   34.5663   40.2334 H   0  0  0  0  0  0  0  0  0  0  0  0
   45.0907   33.6840   46.6012 H   0  0  0  0  0  0  0  0  0  0  0  0
   47.9734   32.2313   47.1276 H   0  0  0  0  0  0  0  0  0  0  0  0
   47.5040   32.9301   48.4352 H   0  0  0  0  0  0  0  0  0  0  0  0
   45.1798   31.0531   48.0860 H   0  0  0  0  0  0  0  0  0  0  0  0
   43.9049   30.0171   46.0282 H   0  0  0  0  0  0  0  0  0  0  0  0
   44.2542   27.8734   44.9385 H   0  0  0  0  0  0  0  0  0  0  0  0
   48.3196   28.0484   46.0290 H   0  0  0  0  0  0  0  0  0  0  0  0
  1  6  2  0
  2  1  1  0
  2  3  2  0
  3  4  1  0
  4  5  2  0
  5 14  1  0
  6  5  1  0
  7  2  1  0
  8  9  1  0
  8  7  1  0
  9  7  1  0
  9 10  1  0
 10 13  1  0
 10 12  1  0
 11 10  1  0
 14 16  1  0
 14 15  1  0
 16 15  1  0
 17 16  1  0
 18 17  2  0
 19 18  1  0
 20 19  2  0
 20 21  1  0
 21 22  2  0
 22 17  1  0
  1 23  1  0
  3 24  1  0
  7 25  1  6
  8 26  1  0
  8 27  1  0
  9 28  1  6
 14 29  1  1
 15 30  1  0
 15 31  1  0
 16 32  1  1
 18 33  1  0
 19 34  1  0
 21 35  1  0
M  ISO  8  23  14  24  14  25  13  26  13  27  13  28  13  29  13  30  13
M  ISO  5  31  13  32  13  33  14  34  14  35  14
M  END
>  <minimizedAffinity>  (1) 
-5.21373558

>  <minimizedRMSD>  (1) 
0.339812338

$$$$
