
     RDKit          3D

 30 32  0  0  1  0  0  0  0  0999 V2000
   45.8590   33.7500   43.0610 C   0  0  0  0  0  0  0  0  0  0  0  0
   47.0530   33.0970   42.5780 C   0  0  0  0  0  0  0  0  0  0  0  0
   47.8020   32.4100   43.4970 C   0  0  0  0  0  0  0  0  0  0  0  0
   47.4040   32.3710   44.7920 N   0  0  0  0  0  0  0  0  0  0  0  0
   46.2780   32.9950   45.2160 C   0  0  0  0  0  0  0  0  0  0  0  0
   45.5180   33.6800   44.3370 N   0  0  0  0  0  0  0  0  0  0  0  0
   47.4620   33.1750   41.1500 C   0  0  1  0  0  0  0  0  0  0  0  0
   46.9040   34.1540   40.2660 C   0  0  0  0  0  0  0  0  0  0  0  0
   48.2850   34.4030   40.7200 C   0  0  1  0  0  0  0  0  0  0  0  0
   48.6520   35.4490   41.7000 C   0  0  0  0  0  0  0  0  0  0  0  0
   49.3350   36.4960   41.1050 F   0  0  0  0  0  0  0  0  0  0  0  0
   49.4250   34.9330   42.7390 F   0  0  0  0  0  0  0  0  0  0  0  0
   47.4830   35.9680   42.2040 F   0  0  0  0  0  0  0  0  0  0  0  0
   45.9200   32.8920   46.6530 C   0  0  2  0  0  0  0  0  0  0  0  0
   47.0920   32.5350   47.5460 C   0  0  0  0  0  0  0  0  0  0  0  0
   45.9580   31.5700   47.3430 C   0  0  1  0  0  0  0  0  0  0  0  0
   44.9040   31.4160   48.4380 C   0  0  0  0  0  0  0  0  0  0  0  0
   45.2255   34.3124   42.3593 H   0  0  0  0  0  0  0  0  0  0  0  0
   48.7215   31.8929   43.1854 H   0  0  0  0  0  0  0  0  0  0  0  0
   47.5616   32.0806   41.1014 H   0  0  0  0  0  0  0  0  0  0  0  0
   46.0931   34.8046   40.6255 H   0  0  0  0  0  0  0  0  0  0  0  0
   46.4365   34.0931   39.2721 H   0  0  0  0  0  0  0  0  0  0  0  0
   49.2447   34.6067   40.2226 H   0  0  0  0  0  0  0  0  0  0  0  0
   45.1481   33.6733   46.5910 H   0  0  0  0  0  0  0  0  0  0  0  0
   48.0786   32.3281   47.1058 H   0  0  0  0  0  0  0  0  0  0  0  0
   47.5807   32.9958   48.4171 H   0  0  0  0  0  0  0  0  0  0  0  0
   45.9289   30.5091   47.0537 H   0  0  0  0  0  0  0  0  0  0  0  0
   45.3866   31.4865   49.4240 H   0  0  0  0  0  0  0  0  0  0  0  0
   44.1534   32.2140   48.3393 H   0  0  0  0  0  0  0  0  0  0  0  0
   44.4131   30.4366   48.3393 H   0  0  0  0  0  0  0  0  0  0  0  0
  1  6  2  0
  2  1  1  0
  2  3  2  0
  3  4  1  0
  4  5  2  0
  5 14  1  0
  6  5  1  0
  7  2  1  0
  8  9  1  0
  8  7  1  0
  9  7  1  0
  9 10  1  0
 10 13  1  0
 10 12  1  0
 11 10  1  0
 14 16  1  0
 14 15  1  0
 16 15  1  0
 16 17  1  0
  1 18  1  0
  3 19  1  0
  7 20  1  6
  8 21  1  0
  8 22  1  0
  9 23  1  6
 14 24  1  1
 15 25  1  0
 15 26  1  0
 16 27  1  6
 17 28  1  0
 17 29  1  0
 17 30  1  0
M  ISO  8  18  14  19  14  20  13  21  13  22  13  23  13  24  13  25  13
M  ISO  5  26  13  27  13  28   8  29   8  30   8
M  END
>  <minimizedAffinity>  (1) 
-5.19565964

>  <minimizedRMSD>  (1) 
0.0925518796

$$$$
