
     RDKit          3D

 43 46  0  0  1  0  0  0  0  0999 V2000
   46.7830   32.3730   41.7200 C   0  0  0  0  0  0  0  0  0  0  0  0
   48.0470   32.3160   41.0250 C   0  0  0  0  0  0  0  0  0  0  0  0
   49.0970   31.7380   41.6880 C   0  0  0  0  0  0  0  0  0  0  0  0
   48.9180   31.2520   42.9420 N   0  0  0  0  0  0  0  0  0  0  0  0
   47.7170   31.3220   43.5670 C   0  0  0  0  0  0  0  0  0  0  0  0
   46.6570   31.8850   42.9470 N   0  0  0  0  0  0  0  0  0  0  0  0
   48.1980   32.8760   39.6630 C   0  0  1  0  0  0  0  0  0  0  0  0
   47.2560   33.7950   39.1080 C   0  0  0  0  0  0  0  0  0  0  0  0
   48.5420   34.3730   39.5420 C   0  0  1  0  0  0  0  0  0  0  0  0
   48.6970   35.2110   40.7540 C   0  0  0  0  0  0  0  0  0  0  0  0
   49.1750   36.4740   40.4520 F   0  0  0  0  0  0  0  0  0  0  0  0
   49.5520   34.6130   41.6840 F   0  0  0  0  0  0  0  0  0  0  0  0
   47.4520   35.3720   41.3060 F   0  0  0  0  0  0  0  0  0  0  0  0
   47.6060   30.7630   44.9430 C   0  0  2  0  0  0  0  0  0  0  0  0
   47.2010   29.3030   44.9710 C   0  0  0  0  0  0  0  0  0  0  0  0
   46.2730   30.3690   45.4820 C   0  0  1  0  0  0  0  0  0  0  0  0
   46.1450   30.5760   46.9610 C   0  0  0  0  0  0  0  0  0  0  0  0
   46.3050   32.0200   47.3720 C   0  0  0  0  0  0  0  0  0  0  0  0
   45.6630   32.3290   48.6860 C   0  0  0  0  0  0  0  0  0  0  0  0
   45.5530   31.1700   49.6190 C   0  0  0  0  0  0  0  0  0  0  0  0
   45.0510   29.9060   49.0020 C   0  0  0  0  0  0  0  0  0  0  0  0
   44.8220   30.1160   47.5180 C   0  0  0  0  0  0  0  0  0  0  0  0
   45.9121   32.8275   41.2251 H   0  0  0  0  0  0  0  0  0  0  0  0
   50.0828   31.6680   41.2050 H   0  0  0  0  0  0  0  0  0  0  0  0
   48.6141   31.9199   39.3128 H   0  0  0  0  0  0  0  0  0  0  0  0
   46.3413   34.0338   39.6704 H   0  0  0  0  0  0  0  0  0  0  0  0
   46.7000   33.8225   38.1592 H   0  0  0  0  0  0  0  0  0  0  0  0
   49.3162   34.9966   39.0711 H   0  0  0  0  0  0  0  0  0  0  0  0
   48.4114   31.3946   45.3460 H   0  0  0  0  0  0  0  0  0  0  0  0
   46.9727   28.7752   44.0333 H   0  0  0  0  0  0  0  0  0  0  0  0
   47.6331   28.3788   45.3823 H   0  0  0  0  0  0  0  0  0  0  0  0
   45.2176   30.5961   45.2710 H   0  0  0  0  0  0  0  0  0  0  0  0
   46.9623   29.9650   47.3718 H   0  0  0  0  0  0  0  0  0  0  0  0
   47.3789   32.2465   47.4450 H   0  0  0  0  0  0  0  0  0  0  0  0
   45.8057   32.6359   46.6095 H   0  0  0  0  0  0  0  0  0  0  0  0
   46.2572   33.1111   49.1812 H   0  0  0  0  0  0  0  0  0  0  0  0
   44.6330   32.6423   48.4602 H   0  0  0  0  0  0  0  0  0  0  0  0
   46.5514   30.9725   50.0364 H   0  0  0  0  0  0  0  0  0  0  0  0
   44.8101   31.4568   50.3778 H   0  0  0  0  0  0  0  0  0  0  0  0
   45.7940   29.1080   49.1478 H   0  0  0  0  0  0  0  0  0  0  0  0
   44.1022   29.6200   49.4795 H   0  0  0  0  0  0  0  0  0  0  0  0
   44.0498   30.8820   47.3539 H   0  0  0  0  0  0  0  0  0  0  0  0
   44.4734   29.1953   47.0272 H   0  0  0  0  0  0  0  0  0  0  0  0
  1  6  2  0
  2  3  2  0
  2  1  1  0
  3  4  1  0
  4  5  2  0
  5 14  1  0
  6  5  1  0
  7  2  1  0
  8  9  1  0
  8  7  1  0
  9  7  1  0
  9 10  1  0
 10 13  1  0
 10 12  1  0
 11 10  1  0
 14 15  1  0
 14 16  1  0
 15 16  1  0
 16 17  1  0
 17 18  1  0
 17 22  1  0
 18 19  1  0
 19 20  1  0
 21 20  1  0
 22 21  1  0
  1 23  1  0
  3 24  1  0
  7 25  1  6
  8 26  1  0
  8 27  1  0
  9 28  1  6
 14 29  1  1
 15 30  1  0
 15 31  1  0
 16 32  1  6
 17 33  1  0
 18 34  1  0
 18 35  1  0
 19 36  1  0
 19 37  1  0
 20 38  1  0
 20 39  1  0
 21 40  1  0
 21 41  1  0
 22 42  1  0
 22 43  1  0
M  ISO  8  23  14  24  14  25  13  26  13  27  13  28  13  29  13  30  13
M  ISO  8  31  13  32  13  33  13  34  13  35  13  36  13  37  13  38  13
M  ISO  5  39  13  40  13  41  13  42  13  43  13
M  END
>  <minimizedAffinity>  (1) 
-5.01430988

>  <minimizedRMSD>  (1) 
2.31262922

$$$$
