
     RDKit          3D

 29 31  0  0  1  0  0  0  0  0999 V2000
   45.7120   33.6270   43.0350 C   0  0  0  0  0  0  0  0  0  0  0  0
   46.9690   33.0780   42.5780 C   0  0  0  0  0  0  0  0  0  0  0  0
   47.7940   32.5360   43.5280 C   0  0  0  0  0  0  0  0  0  0  0  0
   47.4160   32.5310   44.8290 N   0  0  0  0  0  0  0  0  0  0  0  0
   46.2300   33.0540   45.2270 C   0  0  0  0  0  0  0  0  0  0  0  0
   45.3870   33.5990   44.3190 N   0  0  0  0  0  0  0  0  0  0  0  0
   47.3590   33.1130   41.1470 C   0  0  1  0  0  0  0  0  0  0  0  0
   46.8070   34.0750   40.2430 C   0  0  0  0  0  0  0  0  0  0  0  0
   48.1950   34.3190   40.6730 C   0  0  1  0  0  0  0  0  0  0  0  0
   48.5880   35.3830   41.6180 C   0  0  0  0  0  0  0  0  0  0  0  0
   49.2460   36.4240   40.9830 F   0  0  0  0  0  0  0  0  0  0  0  0
   49.3940   34.8940   42.6460 F   0  0  0  0  0  0  0  0  0  0  0  0
   47.4320   35.9100   42.1490 F   0  0  0  0  0  0  0  0  0  0  0  0
   45.8920   33.0100   46.6720 C   0  0  2  0  0  0  0  0  0  0  0  0
   47.0050   32.4240   47.5260 C   0  0  0  0  0  0  0  0  0  0  0  0
   45.7060   31.6980   47.3560 C   0  0  2  0  0  0  0  0  0  0  0  0
   45.5910   30.4530   46.5900 C   0  0  0  0  0  0  0  0  0  0  0  0
   44.7350   29.7270   47.1160 O   0  0  0  0  0  0  0  0  0  0  0  0
   45.0174   34.0732   42.3081 H   0  0  0  0  0  0  0  0  0  0  0  0
   48.7627   32.1052   43.2347 H   0  0  0  0  0  0  0  0  0  0  0  0
   47.4407   32.0162   41.1275 H   0  0  0  0  0  0  0  0  0  0  0  0
   46.0092   34.7466   40.5929 H   0  0  0  0  0  0  0  0  0  0  0  0
   46.3282   33.9925   39.2561 H   0  0  0  0  0  0  0  0  0  0  0  0
   49.1508   34.4971   40.1585 H   0  0  0  0  0  0  0  0  0  0  0  0
   45.2764   33.9209   46.6373 H   0  0  0  0  0  0  0  0  0  0  0  0
   47.9195   32.0378   47.0522 H   0  0  0  0  0  0  0  0  0  0  0  0
   47.6000   32.7729   48.3829 H   0  0  0  0  0  0  0  0  0  0  0  0
   44.9678   31.2815   48.0571 H   0  0  0  0  0  0  0  0  0  0  0  0
   46.1726   30.2028   45.6905 H   0  0  0  0  0  0  0  0  0  0  0  0
  1  6  2  0
  2  1  1  0
  2  3  2  0
  3  4  1  0
  4  5  2  0
  5 14  1  0
  6  5  1  0
  7  2  1  0
  8  9  1  0
  8  7  1  0
  9  7  1  0
  9 10  1  0
 10 13  1  0
 10 12  1  0
 11 10  1  0
 14 16  1  0
 14 15  1  0
 16 15  1  0
 17 18  2  0
 17 16  1  0
  1 19  1  0
  3 20  1  0
  7 21  1  6
  8 22  1  0
  8 23  1  0
  9 24  1  6
 14 25  1  1
 15 26  1  0
 15 27  1  0
 16 28  1  1
 17 29  1  0
M  ISO  8  19  14  20  14  21  13  22  13  23  13  24  13  25  13  26  13
M  ISO  3  27  13  28  13  29   6
M  END
>  <minimizedAffinity>  (1) 
-4.95310116

>  <minimizedRMSD>  (1) 
0.407716841

$$$$
