
     RDKit          3D

 41 44  0  0  1  0  0  0  0  0999 V2000
   45.8810   33.2660   45.6140 C   0  0  0  0  0  0  0  0  0  0  0  0
   46.7910   33.4410   44.5550 C   0  0  0  0  0  0  0  0  0  0  0  0
   47.5590   32.3120   44.1390 C   0  0  0  0  0  0  0  0  0  0  0  0
   47.3780   31.1180   44.7840 N   0  0  0  0  0  0  0  0  0  0  0  0
   46.4900   31.0100   45.7950 C   0  0  0  0  0  0  0  0  0  0  0  0
   45.7550   32.0730   46.1980 N   0  0  0  0  0  0  0  0  0  0  0  0
   46.3720   29.7530   46.3970 N   0  0  0  0  0  0  0  0  0  0  0  0
   47.4960   29.1320   47.0170 C   0  0  2  0  0  0  0  0  0  0  0  0
   47.3000   27.7020   47.3900 C   0  0  0  0  0  0  0  0  0  0  0  0
   45.9830   27.2910   47.6840 N   0  0  0  0  0  0  0  0  0  0  0  0
   45.0240   28.3350   47.7090 C   0  0  0  0  0  0  0  0  0  0  0  0
   45.0960   29.0690   46.3970 C   0  0  0  0  0  0  0  0  0  0  0  0
   48.0340   29.9440   48.1380 C   0  0  0  0  0  0  0  0  0  0  0  0
   47.6530   31.1520   48.6810 C   0  0  0  0  0  0  0  0  0  0  0  0
   48.4320   31.5100   49.7050 N   0  0  0  0  0  0  0  0  0  0  0  0
   49.3260   30.5240   49.8250 C   0  0  0  0  0  0  0  0  0  0  0  0
   49.0890   29.5880   48.8900 N   0  0  0  0  0  0  0  0  0  0  0  0
   51.1620   32.9440   50.0670 Cl  0  0  0  0  0  0  0  0  0  0  0  0
   51.3050   31.4770   51.0330 C   0  0  0  0  0  0  0  0  0  0  0  0
   50.4060   30.4550   50.8200 C   0  0  0  0  0  0  0  0  0  0  0  0
   50.5520   29.3230   51.5970 C   0  0  0  0  0  0  0  0  0  0  0  0
   51.5210   29.1470   52.5560 C   0  0  0  0  0  0  0  0  0  0  0  0
   52.3940   30.2010   52.7280 C   0  0  0  0  0  0  0  0  0  0  0  0
   52.3120   31.3780   51.9820 C   0  0  0  0  0  0  0  0  0  0  0  0
   53.4040   32.7180   52.1830 Cl  0  0  0  0  0  0  0  0  0  0  0  0
   45.2725   34.1142   45.9609 H   0  0  0  0  0  0  0  0  0  0  0  0
   46.9070   34.4179   44.0628 H   0  0  0  0  0  0  0  0  0  0  0  0
   48.2829   32.3997   43.3154 H   0  0  0  0  0  0  0  0  0  0  0  0
   48.2646   29.1002   46.2307 H   0  0  0  0  0  0  0  0  0  0  0  0
   47.6596   27.0881   46.5511 H   0  0  0  0  0  0  0  0  0  0  0  0
   47.8557   27.5737   48.3306 H   0  0  0  0  0  0  0  0  0  0  0  0
   45.6939   26.6078   46.9694 H   0  0  0  0  0  0  0  0  0  0  0  0
   44.0173   27.9131   47.8452 H   0  0  0  0  0  0  0  0  0  0  0  0
   45.2318   29.0228   48.5419 H   0  0  0  0  0  0  0  0  0  0  0  0
   44.2727   29.7942   46.3182 H   0  0  0  0  0  0  0  0  0  0  0  0
   45.0052   28.3816   45.5431 H   0  0  0  0  0  0  0  0  0  0  0  0
   46.8066   31.7511   48.3140 H   0  0  0  0  0  0  0  0  0  0  0  0
   48.3594   32.3624   50.2786 H   0  0  0  0  0  0  0  0  0  0  0  0
   49.8395   28.5004   51.4366 H   0  0  0  0  0  0  0  0  0  0  0  0
   51.5955   28.2236   53.1490 H   0  0  0  0  0  0  0  0  0  0  0  0
   53.1876   30.1103   53.4843 H   0  0  0  0  0  0  0  0  0  0  0  0
  1  6  2  0
  2  1  1  0
  3  2  2  0
  3  4  1  0
  4  5  2  0
  5  6  1  0
  5  7  1  0
  7  8  1  0
  8  9  1  0
  8 13  1  0
  9 10  1  0
 10 11  1  0
 12  7  1  0
 12 11  1  0
 13 14  2  0
 13 17  1  0
 14 15  1  0
 15 16  1  0
 16 20  1  0
 17 16  2  0
 18 19  1  0
 19 24  2  0
 20 19  1  0
 20 21  2  0
 21 22  1  0
 22 23  2  0
 24 25  1  0
 24 23  1  0
  1 26  1  0
  2 27  1  0
  3 28  1  0
  8 29  1  6
  9 30  1  0
  9 31  1  0
 10 32  1  0
 11 33  1  0
 11 34  1  0
 12 35  1  0
 12 36  1  0
 14 37  1  0
 15 38  1  0
 21 39  1  0
 22 40  1  0
 23 41  1  0
M  ISO  8  26  14  27  14  28  14  29  13  30  13  31  13  32   5  33  13
M  ISO  8  34  13  35  13  36  13  37  14  38   9  39  14  40  14  41  14
M  END
>  <minimizedAffinity>  (1) 
-5.88601685

>  <minimizedRMSD>  (1) 
1.88446152

$$$$
