
     RDKit          3D

 41 44  0  0  1  0  0  0  0  0999 V2000
   45.9350   33.0980   45.3900 C   0  0  0  0  0  0  0  0  0  0  0  0
   46.8940   33.2530   44.3690 C   0  0  0  0  0  0  0  0  0  0  0  0
   47.7000   32.1250   44.0330 C   0  0  0  0  0  0  0  0  0  0  0  0
   47.5080   30.9520   44.7130 N   0  0  0  0  0  0  0  0  0  0  0  0
   46.5750   30.8640   45.6800 C   0  0  0  0  0  0  0  0  0  0  0  0
   45.8040   31.9300   46.0070 N   0  0  0  0  0  0  0  0  0  0  0  0
   46.4500   29.6250   46.3220 N   0  0  0  0  0  0  0  0  0  0  0  0
   47.5550   29.0500   47.0170 C   0  0  2  0  0  0  0  0  0  0  0  0
   47.3660   27.6290   47.4160 C   0  0  0  0  0  0  0  0  0  0  0  0
   46.0430   27.2020   47.6880 N   0  0  0  0  0  0  0  0  0  0  0  0
   45.0640   28.2280   47.6120 C   0  0  0  0  0  0  0  0  0  0  0  0
   45.1810   28.9180   46.2840 C   0  0  0  0  0  0  0  0  0  0  0  0
   48.0190   29.9120   48.1330 C   0  0  0  0  0  0  0  0  0  0  0  0
   47.5150   31.0760   48.6840 C   0  0  0  0  0  0  0  0  0  0  0  0
   48.2820   31.4980   49.7050 N   0  0  0  0  0  0  0  0  0  0  0  0
   49.2740   30.6030   49.8040 C   0  0  0  0  0  0  0  0  0  0  0  0
   49.1180   29.6600   48.8690 N   0  0  0  0  0  0  0  0  0  0  0  0
   51.1130   32.9810   49.9440 Cl  0  0  0  0  0  0  0  0  0  0  0  0
   51.3400   31.5420   50.9190 C   0  0  0  0  0  0  0  0  0  0  0  0
   50.4050   30.5450   50.7310 C   0  0  0  0  0  0  0  0  0  0  0  0
   50.5260   29.3870   51.4680 C   0  0  0  0  0  0  0  0  0  0  0  0
   51.5700   29.2600   52.3640 C   0  0  0  0  0  0  0  0  0  0  0  0
   52.5090   30.2420   52.5640 C   0  0  0  0  0  0  0  0  0  0  0  0
   53.8220   30.0690   53.6990 Cl  0  0  0  0  0  0  0  0  0  0  0  0
   52.3650   31.3880   51.8160 C   0  0  0  0  0  0  0  0  0  0  0  0
   45.2946   33.9455   45.6758 H   0  0  0  0  0  0  0  0  0  0  0  0
   47.0171   34.2137   43.8475 H   0  0  0  0  0  0  0  0  0  0  0  0
   48.4615   32.1961   43.2424 H   0  0  0  0  0  0  0  0  0  0  0  0
   48.3704   29.0101   46.2797 H   0  0  0  0  0  0  0  0  0  0  0  0
   47.7546   27.0020   46.6000 H   0  0  0  0  0  0  0  0  0  0  0  0
   47.8974   27.5312   48.3741 H   0  0  0  0  0  0  0  0  0  0  0  0
   45.7951   26.4701   47.0070 H   0  0  0  0  0  0  0  0  0  0  0  0
   44.0606   27.7884   47.7120 H   0  0  0  0  0  0  0  0  0  0  0  0
   45.2227   28.9539   48.4231 H   0  0  0  0  0  0  0  0  0  0  0  0
   44.3509   29.6261   46.1447 H   0  0  0  0  0  0  0  0  0  0  0  0
   45.1377   28.2036   45.4487 H   0  0  0  0  0  0  0  0  0  0  0  0
   46.6071   31.5888   48.3336 H   0  0  0  0  0  0  0  0  0  0  0  0
   48.1371   32.3342   50.2886 H   0  0  0  0  0  0  0  0  0  0  0  0
   49.7983   28.5714   51.3441 H   0  0  0  0  0  0  0  0  0  0  0  0
   51.6529   28.3291   52.9441 H   0  0  0  0  0  0  0  0  0  0  0  0
   53.0927   32.2033   51.9414 H   0  0  0  0  0  0  0  0  0  0  0  0
  1  6  2  0
  2  1  1  0
  3  2  2  0
  3  4  1  0
  4  5  2  0
  5  6  1  0
  5  7  1  0
  7  8  1  0
  8  9  1  0
  8 13  1  0
  9 10  1  0
 11 10  1  0
 12  7  1  0
 12 11  1  0
 13 14  2  0
 13 17  1  0
 14 15  1  0
 15 16  1  0
 16 20  1  0
 17 16  2  0
 18 19  1  0
 19 25  2  0
 20 19  1  0
 20 21  2  0
 21 22  1  0
 22 23  2  0
 23 24  1  0
 25 23  1  0
  1 26  1  0
  2 27  1  0
  3 28  1  0
  8 29  1  6
  9 30  1  0
  9 31  1  0
 10 32  1  0
 11 33  1  0
 11 34  1  0
 12 35  1  0
 12 36  1  0
 14 37  1  0
 15 38  1  0
 21 39  1  0
 22 40  1  0
 25 41  1  0
M  ISO  8  26  14  27  14  28  14  29  13  30  13  31  13  32   5  33  13
M  ISO  8  34  13  35  13  36  13  37  14  38   9  39  14  40  14  41  14
M  END
>  <minimizedAffinity>  (1) 
-5.6848774

>  <minimizedRMSD>  (1) 
1.55105424

$$$$
