
     RDKit          3D

 44 48  0  0  1  0  0  0  0  0999 V2000
   45.8660   33.4780   45.8030 C   0  0  0  0  0  0  0  0  0  0  0  0
   46.6720   33.6210   44.6450 C   0  0  0  0  0  0  0  0  0  0  0  0
   47.3380   32.4650   44.1410 C   0  0  0  0  0  0  0  0  0  0  0  0
   47.1700   31.2730   44.7940 N   0  0  0  0  0  0  0  0  0  0  0  0
   46.3860   31.1960   45.8980 C   0  0  0  0  0  0  0  0  0  0  0  0
   45.7480   32.2860   46.3890 N   0  0  0  0  0  0  0  0  0  0  0  0
   46.2750   29.9400   46.4990 N   0  0  0  0  0  0  0  0  0  0  0  0
   47.4300   29.2610   46.9870 C   0  0  2  0  0  0  0  0  0  0  0  0
   47.2190   27.8330   47.3510 C   0  0  0  0  0  0  0  0  0  0  0  0
   45.9310   27.4840   47.8240 N   0  0  0  0  0  0  0  0  0  0  0  0
   45.0210   28.5600   47.9360 C   0  0  0  0  0  0  0  0  0  0  0  0
   44.9820   29.3160   46.6360 C   0  0  0  0  0  0  0  0  0  0  0  0
   48.1260   30.0340   48.0490 C   0  0  0  0  0  0  0  0  0  0  0  0
   47.6680   30.7870   49.1040 C   0  0  0  0  0  0  0  0  0  0  0  0
   48.6740   31.3040   49.8230 N   0  0  0  0  0  0  0  0  0  0  0  0
   49.7830   30.8780   49.2210 C   0  0  0  0  0  0  0  0  0  0  0  0
   49.4640   30.1260   48.1700 N   0  0  0  0  0  0  0  0  0  0  0  0
   51.9950   30.2120   50.0650 C   0  0  0  0  0  0  0  0  0  0  0  0
   51.1250   31.2210   49.6950 C   0  0  0  0  0  0  0  0  0  0  0  0
   51.4950   32.5380   49.7650 C   0  0  0  0  0  0  0  0  0  0  0  0
   52.7480   32.8820   50.2080 C   0  0  0  0  0  0  0  0  0  0  0  0
   53.2870   34.0960   50.3450 N   0  0  0  0  0  0  0  0  0  0  0  0
   54.5350   33.8800   50.8140 C   0  0  0  0  0  0  0  0  0  0  0  0
   54.7430   32.5480   50.9570 N   0  0  0  0  0  0  0  0  0  0  0  0
   53.6200   31.8820   50.5780 C   0  0  0  0  0  0  0  0  0  0  0  0
   53.2640   30.5340   50.5150 C   0  0  0  0  0  0  0  0  0  0  0  0
   45.3385   34.3497   46.2175 H   0  0  0  0  0  0  0  0  0  0  0  0
   46.7805   34.5968   44.1491 H   0  0  0  0  0  0  0  0  0  0  0  0
   47.9739   32.5295   43.2457 H   0  0  0  0  0  0  0  0  0  0  0  0
   48.1080   29.2092   46.1223 H   0  0  0  0  0  0  0  0  0  0  0  0
   47.4216   27.2268   46.4558 H   0  0  0  0  0  0  0  0  0  0  0  0
   47.8992   27.6447   48.1948 H   0  0  0  0  0  0  0  0  0  0  0  0
   45.5292   26.7927   47.1747 H   0  0  0  0  0  0  0  0  0  0  0  0
   44.0180   28.1706   48.1648 H   0  0  0  0  0  0  0  0  0  0  0  0
   45.3440   29.2330   48.7439 H   0  0  0  0  0  0  0  0  0  0  0  0
   44.1903   30.0792   46.6615 H   0  0  0  0  0  0  0  0  0  0  0  0
   44.7653   28.6488   45.7887 H   0  0  0  0  0  0  0  0  0  0  0  0
   46.6035   30.9461   49.3309 H   0  0  0  0  0  0  0  0  0  0  0  0
   48.6045   31.9011   50.6594 H   0  0  0  0  0  0  0  0  0  0  0  0
   51.6807   29.1597   50.0022 H   0  0  0  0  0  0  0  0  0  0  0  0
   50.7853   33.3231   49.4651 H   0  0  0  0  0  0  0  0  0  0  0  0
   52.8455   35.0031   50.1374 H   0  0  0  0  0  0  0  0  0  0  0  0
   55.2703   34.6649   51.0447 H   0  0  0  0  0  0  0  0  0  0  0  0
   53.9729   29.7482   50.8150 H   0  0  0  0  0  0  0  0  0  0  0  0
  1  6  2  0
  2  1  1  0
  3  2  2  0
  3  4  1  0
  4  5  2  0
  5  6  1  0
  5  7  1  0
  7 12  1  0
  7  8  1  0
  8  9  1  0
  8 13  1  0
  9 10  1  0
 10 11  1  0
 12 11  1  0
 13 17  1  0
 13 14  2  0
 14 15  1  0
 16 19  1  0
 16 15  1  0
 17 16  2  0
 18 26  2  0
 19 20  2  0
 19 18  1  0
 20 21  1  0
 21 22  1  0
 21 25  2  0
 22 23  1  0
 23 24  2  0
 25 24  1  0
 26 25  1  0
  1 27  1  0
  2 28  1  0
  3 29  1  0
  8 30  1  6
  9 31  1  0
  9 32  1  0
 10 33  1  0
 11 34  1  0
 11 35  1  0
 12 36  1  0
 12 37  1  0
 14 38  1  0
 15 39  1  0
 18 40  1  0
 20 41  1  0
 22 42  1  0
 23 43  1  0
 26 44  1  0
M  ISO  8  27  14  28  14  29  14  30  13  31  13  32  13  33   5  34  13
M  ISO  8  35  13  36  13  37  13  38  14  39   9  40  14  41  14  42   9
M  ISO  2  43  14  44  14
M  END
>  <minimizedAffinity>  (1) 
-5.64911747

>  <minimizedRMSD>  (1) 
0.278407961

$$$$
