
     RDKit          3D

 40 43  0  0  1  0  0  0  0  0999 V2000
   45.8920   33.5230   45.7910 C   0  0  0  0  0  0  0  0  0  0  0  0
   46.6710   33.6600   44.6180 C   0  0  0  0  0  0  0  0  0  0  0  0
   47.3170   32.4930   44.1130 C   0  0  0  0  0  0  0  0  0  0  0  0
   47.1560   31.3090   44.7770 N   0  0  0  0  0  0  0  0  0  0  0  0
   46.3970   31.2450   45.8930 C   0  0  0  0  0  0  0  0  0  0  0  0
   45.7770   32.3460   46.3850 N   0  0  0  0  0  0  0  0  0  0  0  0
   46.2920   29.9870   46.5060 N   0  0  0  0  0  0  0  0  0  0  0  0
   47.4520   29.3060   46.9770 C   0  0  2  0  0  0  0  0  0  0  0  0
   47.2260   27.8860   47.3640 C   0  0  0  0  0  0  0  0  0  0  0  0
   45.9410   27.5410   47.8450 N   0  0  0  0  0  0  0  0  0  0  0  0
   45.0440   28.6360   47.9760 C   0  0  0  0  0  0  0  0  0  0  0  0
   44.9880   29.3730   46.6640 C   0  0  0  0  0  0  0  0  0  0  0  0
   48.1640   30.0810   48.0210 C   0  0  0  0  0  0  0  0  0  0  0  0
   47.7230   30.8930   49.0480 C   0  0  0  0  0  0  0  0  0  0  0  0
   48.7390   31.3890   49.7620 N   0  0  0  0  0  0  0  0  0  0  0  0
   49.8430   30.8950   49.1930 C   0  0  0  0  0  0  0  0  0  0  0  0
   49.5020   30.1160   48.1560 N   0  0  0  0  0  0  0  0  0  0  0  0
   51.2120   31.1880   49.6670 C   0  0  0  0  0  0  0  0  0  0  0  0
   51.6120   32.5030   49.8290 C   0  0  0  0  0  0  0  0  0  0  0  0
   52.9060   32.6900   50.2760 C   0  0  0  0  0  0  0  0  0  0  0  0
   53.7230   31.6120   50.5350 C   0  0  0  0  0  0  0  0  0  0  0  0
   53.2860   30.2970   50.3600 C   0  0  0  0  0  0  0  0  0  0  0  0
   52.0290   30.1510   49.9270 N   0  0  0  0  0  0  0  0  0  0  0  0
   45.3788   34.4002   46.2119 H   0  0  0  0  0  0  0  0  0  0  0  0
   46.7748   34.6319   44.1134 H   0  0  0  0  0  0  0  0  0  0  0  0
   47.9346   32.5448   43.2042 H   0  0  0  0  0  0  0  0  0  0  0  0
   48.1197   29.2414   46.1053 H   0  0  0  0  0  0  0  0  0  0  0  0
   47.4241   27.2663   46.4770 H   0  0  0  0  0  0  0  0  0  0  0  0
   47.9014   27.7144   48.2151 H   0  0  0  0  0  0  0  0  0  0  0  0
   45.5253   26.8617   47.1919 H   0  0  0  0  0  0  0  0  0  0  0  0
   44.0416   28.2645   48.2351 H   0  0  0  0  0  0  0  0  0  0  0  0
   45.3910   29.3120   48.7714 H   0  0  0  0  0  0  0  0  0  0  0  0
   44.2019   30.1420   46.6888 H   0  0  0  0  0  0  0  0  0  0  0  0
   44.7516   28.6984   45.8279 H   0  0  0  0  0  0  0  0  0  0  0  0
   46.6636   31.1059   49.2536 H   0  0  0  0  0  0  0  0  0  0  0  0
   48.6829   32.0173   50.5762 H   0  0  0  0  0  0  0  0  0  0  0  0
   50.9407   33.3477   49.6150 H   0  0  0  0  0  0  0  0  0  0  0  0
   53.2876   33.7106   50.4266 H   0  0  0  0  0  0  0  0  0  0  0  0
   54.7486   31.7917   50.8897 H   0  0  0  0  0  0  0  0  0  0  0  0
   53.9361   29.4339   50.5658 H   0  0  0  0  0  0  0  0  0  0  0  0
  1  6  2  0
  2  1  1  0
  3  2  2  0
  3  4  1  0
  4  5  2  0
  5  6  1  0
  5  7  1  0
  7 12  1  0
  7  8  1  0
  8  9  1  0
  8 13  1  0
  9 10  1  0
 10 11  1  0
 12 11  1  0
 13 17  1  0
 13 14  2  0
 14 15  1  0
 16 18  1  0
 16 15  1  0
 17 16  2  0
 18 19  2  0
 18 23  1  0
 19 20  1  0
 20 21  2  0
 22 21  1  0
 23 22  2  0
  1 24  1  0
  2 25  1  0
  3 26  1  0
  8 27  1  6
  9 28  1  0
  9 29  1  0
 10 30  1  0
 11 31  1  0
 11 32  1  0
 12 33  1  0
 12 34  1  0
 14 35  1  0
 15 36  1  0
 19 37  1  0
 20 38  1  0
 21 39  1  0
 22 40  1  0
M  ISO  8  24  14  25  14  26  14  27  13  28  13  29  13  30   5  31  13
M  ISO  8  32  13  33  13  34  13  35  14  36   9  37  14  38  14  39  14
M  ISO  1  40  14
M  END
>  <minimizedAffinity>  (1) 
-5.09838676

>  <minimizedRMSD>  (1) 
0.165650889

$$$$
