
     RDKit          3D

 34 36  0  0  1  0  0  0  0  0999 V2000
   45.8950   33.5360   45.8030 C   0  0  0  0  0  0  0  0  0  0  0  0
   46.6620   33.6500   44.6160 C   0  0  0  0  0  0  0  0  0  0  0  0
   47.2890   32.4750   44.1040 C   0  0  0  0  0  0  0  0  0  0  0  0
   47.1190   31.2960   44.7800 N   0  0  0  0  0  0  0  0  0  0  0  0
   46.3730   31.2480   45.9100 C   0  0  0  0  0  0  0  0  0  0  0  0
   45.7740   32.3580   46.4070 N   0  0  0  0  0  0  0  0  0  0  0  0
   46.2610   30.0000   46.5300 N   0  0  0  0  0  0  0  0  0  0  0  0
   47.4180   29.3070   46.9880 C   0  0  2  0  0  0  0  0  0  0  0  0
   47.1910   27.8900   47.3890 C   0  0  0  0  0  0  0  0  0  0  0  0
   45.9070   27.5630   47.8780 N   0  0  0  0  0  0  0  0  0  0  0  0
   45.0280   28.6660   48.0250 C   0  0  0  0  0  0  0  0  0  0  0  0
   44.9580   29.4000   46.7130 C   0  0  0  0  0  0  0  0  0  0  0  0
   48.1600   30.0830   48.0190 C   0  0  0  0  0  0  0  0  0  0  0  0
   47.7460   30.8650   49.0690 C   0  0  0  0  0  0  0  0  0  0  0  0
   48.7880   31.3660   49.7490 N   0  0  0  0  0  0  0  0  0  0  0  0
   49.8700   30.8990   49.1260 C   0  0  0  0  0  0  0  0  0  0  0  0
   49.5020   30.1370   48.0990 N   0  0  0  0  0  0  0  0  0  0  0  0
   51.2730   31.2120   49.5550 C   0  0  0  0  0  0  0  0  0  0  0  0
   51.4790   30.8220   50.8730 F   0  0  0  0  0  0  0  0  0  0  0  0
   52.1840   30.4940   48.8040 F   0  0  0  0  0  0  0  0  0  0  0  0
   51.5200   32.5650   49.5160 F   0  0  0  0  0  0  0  0  0  0  0  0
   45.3996   34.4231   46.2245 H   0  0  0  0  0  0  0  0  0  0  0  0
   46.7707   34.6175   44.1040 H   0  0  0  0  0  0  0  0  0  0  0  0
   47.8953   32.5151   43.1870 H   0  0  0  0  0  0  0  0  0  0  0  0
   48.0639   29.2282   46.1011 H   0  0  0  0  0  0  0  0  0  0  0  0
   47.3813   27.2604   46.5073 H   0  0  0  0  0  0  0  0  0  0  0  0
   47.8728   27.7182   48.2350 H   0  0  0  0  0  0  0  0  0  0  0  0
   45.4757   26.8945   47.2238 H   0  0  0  0  0  0  0  0  0  0  0  0
   44.0260   28.3073   48.3033 H   0  0  0  0  0  0  0  0  0  0  0  0
   45.3964   29.3386   48.8136 H   0  0  0  0  0  0  0  0  0  0  0  0
   44.1798   30.1766   46.7491 H   0  0  0  0  0  0  0  0  0  0  0  0
   44.7019   28.7247   45.8833 H   0  0  0  0  0  0  0  0  0  0  0  0
   46.6925   31.0565   49.3208 H   0  0  0  0  0  0  0  0  0  0  0  0
   48.7584   31.9800   50.5755 H   0  0  0  0  0  0  0  0  0  0  0  0
  1  6  2  0
  2  1  1  0
  3  2  2  0
  3  4  1  0
  4  5  2  0
  5  6  1  0
  5  7  1  0
  7 12  1  0
  7  8  1  0
  8  9  1  0
  8 13  1  0
  9 10  1  0
 10 11  1  0
 12 11  1  0
 13 17  1  0
 13 14  2  0
 14 15  1  0
 16 18  1  0
 16 15  1  0
 17 16  2  0
 18 19  1  0
 20 18  1  0
 21 18  1  0
  1 22  1  0
  2 23  1  0
  3 24  1  0
  8 25  1  6
  9 26  1  0
  9 27  1  0
 10 28  1  0
 11 29  1  0
 11 30  1  0
 12 31  1  0
 12 32  1  0
 14 33  1  0
 15 34  1  0
M  ISO  8  22  14  23  14  24  14  25  13  26  13  27  13  28   5  29  13
M  ISO  5  30  13  31  13  32  13  33  14  34   9
M  END
>  <minimizedAffinity>  (1) 
-4.78538036

>  <minimizedRMSD>  (1) 
0.108968765

$$$$
