
     RDKit          3D

 37 39  0  0  1  0  0  0  0  0999 V2000
   45.9060   33.5200   45.8180 C   0  0  0  0  0  0  0  0  0  0  0  0
   46.6660   33.6350   44.6300 C   0  0  0  0  0  0  0  0  0  0  0  0
   47.2840   32.4570   44.1150 C   0  0  0  0  0  0  0  0  0  0  0  0
   47.1140   31.2770   44.7890 N   0  0  0  0  0  0  0  0  0  0  0  0
   46.3780   31.2310   45.9180 C   0  0  0  0  0  0  0  0  0  0  0  0
   45.7870   32.3440   46.4150 N   0  0  0  0  0  0  0  0  0  0  0  0
   46.2670   29.9760   46.5360 N   0  0  0  0  0  0  0  0  0  0  0  0
   47.4250   29.2790   46.9900 C   0  0  2  0  0  0  0  0  0  0  0  0
   47.1870   27.8630   47.3800 C   0  0  0  0  0  0  0  0  0  0  0  0
   45.9090   27.5430   47.8990 N   0  0  0  0  0  0  0  0  0  0  0  0
   45.0260   28.6500   48.0330 C   0  0  0  0  0  0  0  0  0  0  0  0
   44.9570   29.3780   46.7160 C   0  0  0  0  0  0  0  0  0  0  0  0
   48.1670   30.0470   48.0200 C   0  0  0  0  0  0  0  0  0  0  0  0
   47.7520   30.8010   49.1040 C   0  0  0  0  0  0  0  0  0  0  0  0
   48.7960   31.3160   49.7690 N   0  0  0  0  0  0  0  0  0  0  0  0
   49.8760   30.8930   49.1100 C   0  0  0  0  0  0  0  0  0  0  0  0
   49.5120   30.1360   48.0660 N   0  0  0  0  0  0  0  0  0  0  0  0
   51.3050   31.1710   49.4180 C   0  0  0  0  0  0  0  0  0  0  0  0
   51.4940   32.5530   49.9910 C   0  0  0  0  0  0  0  0  0  0  0  0
   45.4145   34.4066   46.2452 H   0  0  0  0  0  0  0  0  0  0  0  0
   46.7768   34.6030   44.1193 H   0  0  0  0  0  0  0  0  0  0  0  0
   47.8852   32.4956   43.1947 H   0  0  0  0  0  0  0  0  0  0  0  0
   48.0777   29.2032   46.1079 H   0  0  0  0  0  0  0  0  0  0  0  0
   47.3468   27.2418   46.4863 H   0  0  0  0  0  0  0  0  0  0  0  0
   47.8859   27.6746   48.2083 H   0  0  0  0  0  0  0  0  0  0  0  0
   45.4697   26.8570   47.2687 H   0  0  0  0  0  0  0  0  0  0  0  0
   44.0236   28.2919   48.3105 H   0  0  0  0  0  0  0  0  0  0  0  0
   45.3938   29.3288   48.8165 H   0  0  0  0  0  0  0  0  0  0  0  0
   44.1799   30.1560   46.7467 H   0  0  0  0  0  0  0  0  0  0  0  0
   44.6994   28.7012   45.8880 H   0  0  0  0  0  0  0  0  0  0  0  0
   46.6999   30.9577   49.3841 H   0  0  0  0  0  0  0  0  0  0  0  0
   48.7698   31.9111   50.6092 H   0  0  0  0  0  0  0  0  0  0  0  0
   51.6627   30.4304   50.1484 H   0  0  0  0  0  0  0  0  0  0  0  0
   51.8762   31.1079   48.4801 H   0  0  0  0  0  0  0  0  0  0  0  0
   51.4866   32.4986   51.0896 H   0  0  0  0  0  0  0  0  0  0  0  0
   52.4565   32.9626   49.6507 H   0  0  0  0  0  0  0  0  0  0  0  0
   50.6768   33.2060   49.6507 H   0  0  0  0  0  0  0  0  0  0  0  0
  1  6  2  0
  2  1  1  0
  3  2  2  0
  3  4  1  0
  4  5  2  0
  5  6  1  0
  5  7  1  0
  7 12  1  0
  7  8  1  0
  8  9  1  0
  8 13  1  0
  9 10  1  0
 10 11  1  0
 12 11  1  0
 13 17  1  0
 13 14  2  0
 14 15  1  0
 16 18  1  0
 16 15  1  0
 17 16  2  0
 18 19  1  0
  1 20  1  0
  2 21  1  0
  3 22  1  0
  8 23  1  6
  9 24  1  0
  9 25  1  0
 10 26  1  0
 11 27  1  0
 11 28  1  0
 12 29  1  0
 12 30  1  0
 14 31  1  0
 15 32  1  0
 18 33  1  0
 18 34  1  0
 19 35  1  0
 19 36  1  0
 19 37  1  0
M  ISO  8  20  14  21  14  22  14  23  13  24  13  25  13  26   5  27  13
M  ISO  8  28  13  29  13  30  13  31  14  32   9  33   8  34   8  35   8
M  ISO  2  36   8  37   8
M  END
>  <minimizedAffinity>  (1) 
-4.55607986

>  <minimizedRMSD>  (1) 
0.102151468

$$$$
