
     RDKit          3D

 32 34  0  0  1  0  0  0  0  0999 V2000
   45.9440   33.5140   45.8430 C   0  0  0  0  0  0  0  0  0  0  0  0
   46.6870   33.6180   44.6480 C   0  0  0  0  0  0  0  0  0  0  0  0
   47.2850   32.4330   44.1270 C   0  0  0  0  0  0  0  0  0  0  0  0
   47.1120   31.2570   44.8040 N   0  0  0  0  0  0  0  0  0  0  0  0
   46.3900   31.2170   45.9410 C   0  0  0  0  0  0  0  0  0  0  0  0
   45.8190   32.3370   46.4450 N   0  0  0  0  0  0  0  0  0  0  0  0
   46.2720   29.9670   46.5640 N   0  0  0  0  0  0  0  0  0  0  0  0
   47.4250   29.2550   47.0020 C   0  0  2  0  0  0  0  0  0  0  0  0
   47.1710   27.8440   47.4030 C   0  0  0  0  0  0  0  0  0  0  0  0
   45.8930   27.5330   47.9130 N   0  0  0  0  0  0  0  0  0  0  0  0
   45.0330   28.6570   48.0800 C   0  0  0  0  0  0  0  0  0  0  0  0
   44.9490   29.3890   46.7650 C   0  0  0  0  0  0  0  0  0  0  0  0
   48.1930   30.0140   48.0190 C   0  0  0  0  0  0  0  0  0  0  0  0
   47.8050   30.8090   49.0820 C   0  0  0  0  0  0  0  0  0  0  0  0
   48.8620   31.2930   49.7450 N   0  0  0  0  0  0  0  0  0  0  0  0
   49.9330   30.8020   49.1000 C   0  0  0  0  0  0  0  0  0  0  0  0
   49.5370   30.0440   48.0760 N   0  0  0  0  0  0  0  0  0  0  0  0
   51.6430   31.1200   49.5470 S   0  0  0  0  0  0  0  0  0  0  0  0
   45.4689   34.4069   46.2754 H   0  0  0  0  0  0  0  0  0  0  0  0
   46.8014   34.5838   44.1340 H   0  0  0  0  0  0  0  0  0  0  0  0
   47.8741   32.4639   43.1986 H   0  0  0  0  0  0  0  0  0  0  0  0
   48.0623   29.1670   46.1098 H   0  0  0  0  0  0  0  0  0  0  0  0
   47.3340   27.2146   46.5157 H   0  0  0  0  0  0  0  0  0  0  0  0
   47.8597   27.6620   48.2412 H   0  0  0  0  0  0  0  0  0  0  0  0
   45.4392   26.8745   47.2638 H   0  0  0  0  0  0  0  0  0  0  0  0
   44.0311   28.3171   48.3810 H   0  0  0  0  0  0  0  0  0  0  0  0
   45.4287   29.3240   48.8601 H   0  0  0  0  0  0  0  0  0  0  0  0
   44.1857   30.1797   46.8118 H   0  0  0  0  0  0  0  0  0  0  0  0
   44.6629   28.7203   45.9398 H   0  0  0  0  0  0  0  0  0  0  0  0
   46.7585   31.0175   49.3492 H   0  0  0  0  0  0  0  0  0  0  0  0
   48.8556   31.9085   50.5708 H   0  0  0  0  0  0  0  0  0  0  0  0
   51.7617   31.1421   50.9117 H   0  0  0  0  0  0  0  0  0  0  0  0
  1  6  2  0
  2  1  1  0
  3  2  2  0
  3  4  1  0
  4  5  2  0
  5  6  1  0
  5  7  1  0
  7 12  1  0
  7  8  1  0
  8  9  1  0
  8 13  1  0
  9 10  1  0
 10 11  1  0
 12 11  1  0
 13 17  1  0
 13 14  2  0
 14 15  1  0
 16 18  1  0
 16 15  1  0
 17 16  2  0
  1 19  1  0
  2 20  1  0
  3 21  1  0
  8 22  1  6
  9 23  1  0
  9 24  1  0
 10 25  1  0
 11 26  1  0
 11 27  1  0
 12 28  1  0
 12 29  1  0
 14 30  1  0
 15 31  1  0
 18 32  1  0
M  ISO  8  19  14  20  14  21  14  22  13  23  13  24  13  25   5  26  13
M  ISO  6  27  13  28  13  29  13  30  14  31   9  32  11
M  END
>  <minimizedAffinity>  (1) 
-4.4034524

>  <minimizedRMSD>  (1) 
0.0192168746

$$$$
