
     RDKit          3D

 34 36  0  0  1  0  0  0  0  0999 V2000
   48.9530   31.6030   37.3190 C   0  0  0  0  0  0  0  0  0  0  0  0
   49.7300   31.9320   38.3370 C   0  0  0  0  0  0  0  0  0  0  0  0
   49.1450   32.5610   39.4710 N   0  0  0  0  0  0  0  0  0  0  0  0
   49.0090   32.5890   40.9140 C   0  0  0  0  0  0  0  0  0  0  0  0
   49.7040   32.1370   41.8880 O   0  0  0  0  0  0  0  0  0  0  0  0
   47.7200   33.3670   40.7750 C   0  0  2  0  0  0  0  0  0  0  0  0
   48.2440   33.7210   39.4000 C   0  0  2  0  0  0  0  0  0  0  0  0
   47.1050   33.4250   38.0320 S   0  0  0  0  0  0  0  0  0  0  0  0
   47.4990   31.8270   37.2830 C   0  0  0  0  0  0  0  0  0  0  0  0
   47.6620   34.5060   41.7460 C   0  0  0  0  0  0  0  0  0  0  0  0
   48.3160   35.5280   41.4340 O   0  0  0  0  0  0  0  0  0  0  0  0
   44.9190   35.0870   44.1660 C   0  0  0  0  0  0  0  0  0  0  0  0
   45.7170   35.1700   43.0030 C   0  0  0  0  0  0  0  0  0  0  0  0
   46.8880   34.3860   42.9450 C   0  0  0  0  0  0  0  0  0  0  0  0
   47.1720   33.6000   44.0170 N   0  0  0  0  0  0  0  0  0  0  0  0
   46.3780   33.5530   45.1100 C   0  0  0  0  0  0  0  0  0  0  0  0
   45.2720   34.2940   45.1630 N   0  0  0  0  0  0  0  0  0  0  0  0
   43.7410   35.8690   44.2380 N   0  0  0  0  0  0  0  0  0  0  0  0
   49.5960   30.9680   36.1710 C   0  0  0  0  0  0  0  0  0  0  0  0
   51.1670   31.6830   38.3430 C   0  0  0  0  0  0  0  0  0  0  0  0
   51.7850   30.7360   38.8620 O   0  0  0  0  0  0  0  0  0  0  0  0
   52.1730   32.4430   37.7740 O   0  0  0  0  0  0  0  0  0  0  0  0
   46.7125   32.9503   40.9212 H   0  0  0  0  0  0  0  0  0  0  0  0
   48.5631   34.7593   39.2262 H   0  0  0  0  0  0  0  0  0  0  0  0
   47.1542   31.8186   36.2385 H   0  0  0  0  0  0  0  0  0  0  0  0
   46.9950   31.0282   37.8468 H   0  0  0  0  0  0  0  0  0  0  0  0
   45.4334   35.8267   42.1674 H   0  0  0  0  0  0  0  0  0  0  0  0
   46.6451   32.9027   45.9560 H   0  0  0  0  0  0  0  0  0  0  0  0
   43.4807   36.4816   43.4520 H   0  0  0  0  0  0  0  0  0  0  0  0
   43.1443   35.8253   45.0764 H   0  0  0  0  0  0  0  0  0  0  0  0
   50.3372   30.2360   36.5244 H   0  0  0  0  0  0  0  0  0  0  0  0
   48.8364   30.4559   35.5621 H   0  0  0  0  0  0  0  0  0  0  0  0
   50.0986   31.7340   35.5621 H   0  0  0  0  0  0  0  0  0  0  0  0
   53.1167   32.1549   37.8544 H   0  0  0  0  0  0  0  0  0  0  0  0
  1  2  2  0
  2 20  1  0
  2  3  1  0
  3  4  1  0
  4  5  2  0
  6  4  1  0
  6 10  1  0
  7  8  1  0
  7  3  1  0
  7  6  1  0
  9  1  1  0
  9  8  1  0
 10 14  1  0
 11 10  2  0
 12 18  1  0
 12 17  2  0
 13 12  1  0
 14 13  2  0
 14 15  1  0
 15 16  2  0
 16 17  1  0
 19  1  1  0
 20 21  2  0
 22 20  1  0
  6 23  1  6
  7 24  1  1
  9 25  1  0
  9 26  1  0
 13 27  1  0
 16 28  1  0
 18 29  1  0
 18 30  1  0
 19 31  1  0
 19 32  1  0
 19 33  1  0
 22 34  1  0
M  ISO  8  23  13  24  13  25  13  26  13  27  14  28  14  31   8  32   8
M  ISO  2  33   8  34   3
M  END
>  <minimizedAffinity>  (1) 
-5.7322011

>  <minimizedRMSD>  (1) 
1.22633219

$$$$
