
     RDKit          3D

 24 25  0  0  0  0  0  0  0  0999 V2000
   44.9340   35.1460   44.1300 C   0  0  0  0  0  0  0  0  0  0  0  0
   45.7530   35.3870   43.0220 C   0  0  0  0  0  0  0  0  0  0  0  0
   46.9350   34.6520   42.8460 C   0  0  0  0  0  0  0  0  0  0  0  0
   47.2230   33.7200   43.7950 N   0  0  0  0  0  0  0  0  0  0  0  0
   46.4120   33.5140   44.8490 C   0  0  0  0  0  0  0  0  0  0  0  0
   45.2860   34.2210   45.0070 N   0  0  0  0  0  0  0  0  0  0  0  0
   43.7470   35.8870   44.3010 N   0  0  0  0  0  0  0  0  0  0  0  0
   47.7200   34.9570   41.6890 C   0  0  0  0  0  0  0  0  0  0  0  0
   48.7000   35.7650   41.7090 O   0  0  0  0  0  0  0  0  0  0  0  0
   45.7400   33.1760   41.0240 F   0  0  0  0  0  0  0  0  0  0  0  0
   46.5750   33.5430   40.0030 C   0  0  0  0  0  0  0  0  0  0  0  0
   47.5740   34.4390   40.3310 C   0  0  0  0  0  0  0  0  0  0  0  0
   48.4260   34.8140   39.2870 C   0  0  0  0  0  0  0  0  0  0  0  0
   48.2510   34.2990   38.0160 C   0  0  0  0  0  0  0  0  0  0  0  0
   47.2370   33.4060   37.7400 C   0  0  0  0  0  0  0  0  0  0  0  0
   46.3590   33.0010   38.7510 C   0  0  0  0  0  0  0  0  0  0  0  0
   45.4696   36.1547   42.2869 H   0  0  0  0  0  0  0  0  0  0  0  0
   46.6791   32.7506   45.5946 H   0  0  0  0  0  0  0  0  0  0  0  0
   43.4840   36.6048   43.6107 H   0  0  0  0  0  0  0  0  0  0  0  0
   43.1427   35.7106   45.1163 H   0  0  0  0  0  0  0  0  0  0  0  0
   49.2428   35.5253   39.4790 H   0  0  0  0  0  0  0  0  0  0  0  0
   48.9332   34.6072   37.2100 H   0  0  0  0  0  0  0  0  0  0  0  0
   47.1181   33.0105   36.7205 H   0  0  0  0  0  0  0  0  0  0  0  0
   45.5417   32.2901   38.5595 H   0  0  0  0  0  0  0  0  0  0  0  0
  1  7  1  0
  1  6  2  0
  2  1  1  0
  3  2  2  0
  3  4  1  0
  4  5  2  0
  5  6  1  0
  8  9  2  0
  8  3  1  0
 11 12  2  0
 11 10  1  0
 12  8  1  0
 13 12  1  0
 14 13  2  0
 15 14  1  0
 15 16  2  0
 16 11  1  0
  2 17  1  0
  5 18  1  0
  7 19  1  0
  7 20  1  0
 13 21  1  0
 14 22  1  0
 15 23  1  0
 16 24  1  0
M  ISO  6  17  14  18  14  21  14  22  14  23  14  24  14
M  END
>  <minimizedAffinity>  (1) 
-5.32370329

>  <minimizedRMSD>  (1) 
0.20405446

$$$$
