
     RDKit          3D

 24 25  0  0  0  0  0  0  0  0999 V2000
   44.9330   35.1460   44.0490 C   0  0  0  0  0  0  0  0  0  0  0  0
   45.7740   35.4610   42.9590 C   0  0  0  0  0  0  0  0  0  0  0  0
   46.9710   34.7180   42.8440 C   0  0  0  0  0  0  0  0  0  0  0  0
   47.2550   33.7600   43.7580 N   0  0  0  0  0  0  0  0  0  0  0  0
   46.4070   33.4990   44.7880 C   0  0  0  0  0  0  0  0  0  0  0  0
   45.2600   34.1920   44.9210 N   0  0  0  0  0  0  0  0  0  0  0  0
   43.7280   35.8610   44.2040 N   0  0  0  0  0  0  0  0  0  0  0  0
   47.7870   35.0810   41.7110 C   0  0  0  0  0  0  0  0  0  0  0  0
   48.7440   35.8830   41.7420 O   0  0  0  0  0  0  0  0  0  0  0  0
   47.3900   34.4110   40.4790 C   0  0  0  0  0  0  0  0  0  0  0  0
   48.2860   34.6010   39.4300 C   0  0  0  0  0  0  0  0  0  0  0  0
   47.9830   33.9960   38.2110 C   0  0  0  0  0  0  0  0  0  0  0  0
   46.8250   33.2290   38.0540 C   0  0  0  0  0  0  0  0  0  0  0  0
   45.9520   33.0570   39.1140 C   0  0  0  0  0  0  0  0  0  0  0  0
   46.2450   33.6560   40.3340 C   0  0  0  0  0  0  0  0  0  0  0  0
   45.5104   36.2461   42.2350 H   0  0  0  0  0  0  0  0  0  0  0  0
   46.6596   32.7160   45.5181 H   0  0  0  0  0  0  0  0  0  0  0  0
   43.4760   36.5979   43.5299 H   0  0  0  0  0  0  0  0  0  0  0  0
   43.0995   35.6465   44.9913 H   0  0  0  0  0  0  0  0  0  0  0  0
   49.1967   35.2045   39.5581 H   0  0  0  0  0  0  0  0  0  0  0  0
   48.6665   34.1244   37.3587 H   0  0  0  0  0  0  0  0  0  0  0  0
   46.6066   32.7599   37.0833 H   0  0  0  0  0  0  0  0  0  0  0  0
   45.0393   32.4550   38.9930 H   0  0  0  0  0  0  0  0  0  0  0  0
   45.5615   33.5273   41.1862 H   0  0  0  0  0  0  0  0  0  0  0  0
  1  7  1  0
  1  6  2  0
  2  1  1  0
  3  2  2  0
  3  4  1  0
  4  5  2  0
  5  6  1  0
  8  9  2  0
  8  3  1  0
 10  8  1  0
 11 10  2  0
 12 11  1  0
 13 12  2  0
 13 14  1  0
 14 15  2  0
 15 10  1  0
  2 16  1  0
  5 17  1  0
  7 18  1  0
  7 19  1  0
 11 20  1  0
 12 21  1  0
 13 22  1  0
 14 23  1  0
 15 24  1  0
M  ISO  7  16  14  17  14  20  14  21  14  22  14  23  14  24  14
M  END
>  <minimizedAffinity>  (1) 
-5.25274229

>  <minimizedRMSD>  (1) 
0.493642986

$$$$
