
     RDKit          3D

 23 24  0  0  0  0  0  0  0  0999 V2000
   44.9280   35.1330   44.1060 C   0  0  0  0  0  0  0  0  0  0  0  0
   45.7480   35.4150   43.0130 C   0  0  0  0  0  0  0  0  0  0  0  0
   46.9500   34.6880   42.8660 C   0  0  0  0  0  0  0  0  0  0  0  0
   47.2330   33.7550   43.8040 N   0  0  0  0  0  0  0  0  0  0  0  0
   46.4090   33.5150   44.8490 C   0  0  0  0  0  0  0  0  0  0  0  0
   45.2800   34.1980   44.9870 N   0  0  0  0  0  0  0  0  0  0  0  0
   43.7310   35.8720   44.2330 N   0  0  0  0  0  0  0  0  0  0  0  0
   47.7570   35.0240   41.7140 C   0  0  0  0  0  0  0  0  0  0  0  0
   48.7200   35.8390   41.7410 O   0  0  0  0  0  0  0  0  0  0  0  0
   47.4570   34.3980   40.4310 C   0  0  0  0  0  0  0  0  0  0  0  0
   48.2640   34.5870   39.3290 C   0  0  0  0  0  0  0  0  0  0  0  0
   48.0950   34.0590   38.0710 C   0  0  0  0  0  0  0  0  0  0  0  0
   46.9670   33.2420   37.9330 C   0  0  0  0  0  0  0  0  0  0  0  0
   46.1450   33.0400   39.0240 C   0  0  0  0  0  0  0  0  0  0  0  0
   46.3850   33.6050   40.2430 N   0  0  0  0  0  0  0  0  0  0  0  0
   45.4646   36.1865   42.2819 H   0  0  0  0  0  0  0  0  0  0  0  0
   46.6768   32.7477   45.5903 H   0  0  0  0  0  0  0  0  0  0  0  0
   43.4908   36.5877   43.5323 H   0  0  0  0  0  0  0  0  0  0  0  0
   43.0983   35.6951   45.0263 H   0  0  0  0  0  0  0  0  0  0  0  0
   49.1424   35.2334   39.4727 H   0  0  0  0  0  0  0  0  0  0  0  0
   48.7887   34.2618   37.2417 H   0  0  0  0  0  0  0  0  0  0  0  0
   46.7382   32.7668   36.9677 H   0  0  0  0  0  0  0  0  0  0  0  0
   45.2602   32.3972   38.9058 H   0  0  0  0  0  0  0  0  0  0  0  0
  1  7  1  0
  1  6  2  0
  2  1  1  0
  3  2  2  0
  3  4  1  0
  4  5  2  0
  5  6  1  0
  8  9  2  0
  8  3  1  0
 10  8  1  0
 11 10  2  0
 12 11  1  0
 13 12  2  0
 13 14  1  0
 14 15  2  0
 15 10  1  0
  2 16  1  0
  5 17  1  0
  7 18  1  0
  7 19  1  0
 11 20  1  0
 12 21  1  0
 13 22  1  0
 14 23  1  0
M  ISO  6  16  14  17  14  20  14  21  14  22  14  23  14
M  END
>  <minimizedAffinity>  (1) 
-5.10892868

>  <minimizedRMSD>  (1) 
0.183642611

$$$$
