
     RDKit          3D

 28 29  0  0  0  0  0  0  0  0999 V2000
   44.9450   35.1230   44.2030 C   0  0  0  0  0  0  0  0  0  0  0  0
   45.7110   35.4090   43.0480 C   0  0  0  0  0  0  0  0  0  0  0  0
   46.8910   34.6670   42.8560 C   0  0  0  0  0  0  0  0  0  0  0  0
   47.2190   33.7320   43.7810 N   0  0  0  0  0  0  0  0  0  0  0  0
   46.4540   33.4970   44.8680 C   0  0  0  0  0  0  0  0  0  0  0  0
   45.3320   34.1900   45.0660 N   0  0  0  0  0  0  0  0  0  0  0  0
   43.7480   35.8710   44.4040 N   0  0  0  0  0  0  0  0  0  0  0  0
   47.6420   34.9820   41.6770 C   0  0  0  0  0  0  0  0  0  0  0  0
   48.6020   35.8100   41.6230 O   0  0  0  0  0  0  0  0  0  0  0  0
   47.3060   34.3260   40.4360 N   0  0  0  0  0  0  0  0  0  0  0  0
   48.1840   34.3240   39.2640 C   0  0  0  0  0  0  0  0  0  0  0  0
   48.5190   32.8730   38.9960 C   0  0  0  0  0  0  0  0  0  0  0  0
   47.3550   32.0640   38.8040 N   0  0  0  0  0  0  0  0  0  0  0  0
   46.3720   32.1970   39.8470 C   0  0  0  0  0  0  0  0  0  0  0  0
   46.0780   33.6130   40.2310 C   0  0  0  0  0  0  0  0  0  0  0  0
   45.3966   36.1802   42.3294 H   0  0  0  0  0  0  0  0  0  0  0  0
   46.7579   32.7293   45.5948 H   0  0  0  0  0  0  0  0  0  0  0  0
   43.4687   36.5893   43.7207 H   0  0  0  0  0  0  0  0  0  0  0  0
   43.1625   35.6930   45.2325 H   0  0  0  0  0  0  0  0  0  0  0  0
   47.6667   34.7630   38.3982 H   0  0  0  0  0  0  0  0  0  0  0  0
   49.0911   34.9211   39.4392 H   0  0  0  0  0  0  0  0  0  0  0  0
   49.1400   32.8168   38.0898 H   0  0  0  0  0  0  0  0  0  0  0  0
   49.0505   32.4864   39.8780 H   0  0  0  0  0  0  0  0  0  0  0  0
   46.9179   32.3320   37.9107 H   0  0  0  0  0  0  0  0  0  0  0  0
   45.4371   31.7311   39.5023 H   0  0  0  0  0  0  0  0  0  0  0  0
   46.7871   31.7055   40.7393 H   0  0  0  0  0  0  0  0  0  0  0  0
   45.5041   34.0977   39.4274 H   0  0  0  0  0  0  0  0  0  0  0  0
   45.4926   33.6227   41.1623 H   0  0  0  0  0  0  0  0  0  0  0  0
  1  7  1  0
  1  6  2  0
  2  1  1  0
  3  2  2  0
  3  4  1  0
  4  5  2  0
  5  6  1  0
  8  3  1  0
  9  8  2  0
 10  8  1  0
 11 10  1  0
 12 11  1  0
 13 12  1  0
 13 14  1  0
 14 15  1  0
 15 10  1  0
  2 16  1  0
  5 17  1  0
  7 18  1  0
  7 19  1  0
 11 20  1  0
 11 21  1  0
 12 22  1  0
 12 23  1  0
 13 24  1  0
 14 25  1  0
 14 26  1  0
 15 27  1  0
 15 28  1  0
M  ISO  8  16  14  17  14  20  13  21  13  22  13  23  13  24   5  25  13
M  ISO  3  26  13  27  13  28  13
M  END
>  <minimizedAffinity>  (1) 
-4.923316

>  <minimizedRMSD>  (1) 
0.203172535

$$$$
