
     RDKit          3D

 21 22  0  0  0  0  0  0  0  0999 V2000
   44.9270   35.1430   44.1310 C   0  0  0  0  0  0  0  0  0  0  0  0
   45.7550   35.4350   43.0230 C   0  0  0  0  0  0  0  0  0  0  0  0
   46.9350   34.7060   42.8930 C   0  0  0  0  0  0  0  0  0  0  0  0
   47.2360   33.7720   43.8060 N   0  0  0  0  0  0  0  0  0  0  0  0
   46.4200   33.5080   44.8670 C   0  0  0  0  0  0  0  0  0  0  0  0
   45.2770   34.2000   45.0120 N   0  0  0  0  0  0  0  0  0  0  0  0
   43.7120   35.8670   44.2990 N   0  0  0  0  0  0  0  0  0  0  0  0
   47.7410   35.0350   41.7570 C   0  0  0  0  0  0  0  0  0  0  0  0
   48.7200   35.8100   41.7250 O   0  0  0  0  0  0  0  0  0  0  0  0
   47.4100   34.4110   40.4570 C   0  0  0  0  0  0  0  0  0  0  0  0
   48.2460   34.3590   39.3340 C   0  0  0  0  0  0  0  0  0  0  0  0
   47.5260   33.6860   38.3600 C   0  0  0  0  0  0  0  0  0  0  0  0
   46.3340   33.3580   38.8690 N   0  0  0  0  0  0  0  0  0  0  0  0
   46.2480   33.7830   40.1210 N   0  0  0  0  0  0  0  0  0  0  0  0
   45.4781   36.2084   42.2914 H   0  0  0  0  0  0  0  0  0  0  0  0
   46.6956   32.7342   45.5986 H   0  0  0  0  0  0  0  0  0  0  0  0
   43.4464   36.5925   43.6178 H   0  0  0  0  0  0  0  0  0  0  0  0
   43.0989   35.6650   45.1016 H   0  0  0  0  0  0  0  0  0  0  0  0
   49.2633   34.7678   39.2441 H   0  0  0  0  0  0  0  0  0  0  0  0
   47.8755   33.4601   37.3418 H   0  0  0  0  0  0  0  0  0  0  0  0
   45.5935   32.8509   38.3636 H   0  0  0  0  0  0  0  0  0  0  0  0
  1  7  1  0
  1  6  2  0
  2  1  1  0
  3  2  2  0
  3  4  1  0
  4  5  2  0
  5  6  1  0
  8  3  1  0
  9  8  2  0
 10  8  1  0
 11 10  1  0
 12 13  1  0
 12 11  2  0
 13 14  1  0
 14 10  2  0
  2 15  1  0
  5 16  1  0
  7 17  1  0
  7 18  1  0
 11 19  1  0
 12 20  1  0
 13 21  1  0
M  ISO  5  15  14  16  14  19  14  20  14  21   9
M  END
>  <minimizedAffinity>  (1) 
-4.90586805

>  <minimizedRMSD>  (1) 
0.333742052

$$$$
