
     RDKit          3D

 16 16  0  0  0  0  0  0  0  0999 V2000
   44.9060   35.1320   44.0500 C   0  0  0  0  0  0  0  0  0  0  0  0
   45.7160   35.4080   42.9450 C   0  0  0  0  0  0  0  0  0  0  0  0
   46.9380   34.7120   42.8060 C   0  0  0  0  0  0  0  0  0  0  0  0
   47.2470   33.8140   43.7630 N   0  0  0  0  0  0  0  0  0  0  0  0
   46.4380   33.5680   44.8260 C   0  0  0  0  0  0  0  0  0  0  0  0
   45.2950   34.2320   44.9390 N   0  0  0  0  0  0  0  0  0  0  0  0
   43.6940   35.8430   44.1610 N   0  0  0  0  0  0  0  0  0  0  0  0
   47.7390   35.0200   41.6630 C   0  0  0  0  0  0  0  0  0  0  0  0
   48.7140   35.8220   41.6670 O   0  0  0  0  0  0  0  0  0  0  0  0
   47.4030   34.3690   40.4380 N   0  0  0  0  0  0  0  0  0  0  0  0
   45.4079   36.1535   42.1971 H   0  0  0  0  0  0  0  0  0  0  0  0
   46.7274   32.8262   45.5850 H   0  0  0  0  0  0  0  0  0  0  0  0
   43.4348   36.5342   43.4427 H   0  0  0  0  0  0  0  0  0  0  0  0
   43.0676   35.6713   44.9604 H   0  0  0  0  0  0  0  0  0  0  0  0
   46.6124   33.7096   40.4052 H   0  0  0  0  0  0  0  0  0  0  0  0
   47.9511   34.5586   39.5868 H   0  0  0  0  0  0  0  0  0  0  0  0
  1  7  1  0
  1  6  2  0
  2  1  1  0
  3  2  2  0
  3  4  1  0
  4  5  2  0
  5  6  1  0
  8  9  2  0
  8  3  1  0
 10  8  1  0
  2 11  1  0
  5 12  1  0
  7 13  1  0
  7 14  1  0
 10 15  1  0
 10 16  1  0
M  ISO  2  11  14  12  14
M  END
>  <minimizedAffinity>  (1) 
-4.028615

>  <minimizedRMSD>  (1) 
0.0712471753

$$$$
