
     RDKit          3D

 15 15  0  0  0  0  0  0  0  0999 V2000
   44.9050   35.1430   44.0470 C   0  0  0  0  0  0  0  0  0  0  0  0
   45.7390   35.4160   42.9290 C   0  0  0  0  0  0  0  0  0  0  0  0
   46.9330   34.7090   42.8280 C   0  0  0  0  0  0  0  0  0  0  0  0
   47.2530   33.8100   43.7700 N   0  0  0  0  0  0  0  0  0  0  0  0
   46.4340   33.5660   44.8330 C   0  0  0  0  0  0  0  0  0  0  0  0
   45.2750   34.2370   44.9530 N   0  0  0  0  0  0  0  0  0  0  0  0
   43.6840   35.8310   44.1890 N   0  0  0  0  0  0  0  0  0  0  0  0
   47.7140   35.0420   41.6680 C   0  0  0  0  0  0  0  0  0  0  0  0
   48.7100   35.7960   41.6370 O   0  0  0  0  0  0  0  0  0  0  0  0
   47.2580   34.4260   40.4860 O   0  0  0  0  0  0  0  0  0  0  0  0
   45.4509   36.1593   42.1711 H   0  0  0  0  0  0  0  0  0  0  0  0
   46.7210   32.8219   45.5905 H   0  0  0  0  0  0  0  0  0  0  0  0
   43.4020   36.5300   43.4870 H   0  0  0  0  0  0  0  0  0  0  0  0
   43.0732   35.6351   44.9949 H   0  0  0  0  0  0  0  0  0  0  0  0
   47.7271   34.5898   39.6297 H   0  0  0  0  0  0  0  0  0  0  0  0
  1  7  1  0
  1  6  2  0
  2  1  1  0
  3  2  2  0
  3  4  1  0
  4  5  2  0
  5  6  1  0
  8  3  1  0
  9  8  2  0
 10  8  1  0
  2 11  1  0
  5 12  1  0
  7 13  1  0
  7 14  1  0
 10 15  1  0
M  ISO  3  11  14  12  14  15   3
M  END
>  <minimizedAffinity>  (1) 
-4.02580309

>  <minimizedRMSD>  (1) 
0.0681909621

$$$$
