
     RDKit          3D

 23 24  0  0  1  0  0  0  0  0999 V2000
   47.2000   34.2420   42.3960 O   0  0  0  0  0  0  0  0  0  0  0  0
   44.6110   36.0710   44.3480 C   0  0  0  0  0  0  0  0  0  0  0  0
   45.4650   35.7830   43.2730 C   0  0  0  0  0  0  0  0  0  0  0  0
   46.3030   34.6690   43.3550 C   0  0  0  0  0  0  0  0  0  0  0  0
   46.2470   33.9110   44.4880 N   0  0  0  0  0  0  0  0  0  0  0  0
   45.4100   34.2180   45.5100 C   0  0  0  0  0  0  0  0  0  0  0  0
   44.5980   35.2900   45.4390 N   0  0  0  0  0  0  0  0  0  0  0  0
   49.4840   34.7010   42.0040 C   0  0  2  0  0  0  0  0  0  0  0  0
   48.0360   35.0450   41.6280 C   0  0  1  0  0  0  0  0  0  0  0  0
   48.0550   34.4780   40.2120 C   0  0  0  0  0  0  0  0  0  0  0  0
   48.5450   33.1940   40.4920 O   0  0  0  0  0  0  0  0  0  0  0  0
   49.5730   33.3220   41.4040 C   0  0  0  0  0  0  0  0  0  0  0  0
   49.7170   34.7630   43.3520 O   0  0  0  0  0  0  0  0  0  0  0  0
   43.9457   36.9454   44.2961 H   0  0  0  0  0  0  0  0  0  0  0  0
   45.4744   36.4246   42.3795 H   0  0  0  0  0  0  0  0  0  0  0  0
   45.3942   33.5833   46.4083 H   0  0  0  0  0  0  0  0  0  0  0  0
   50.2529   35.3966   41.6366 H   0  0  0  0  0  0  0  0  0  0  0  0
   47.7196   36.0920   41.7449 H   0  0  0  0  0  0  0  0  0  0  0  0
   48.7306   35.0416   39.5518 H   0  0  0  0  0  0  0  0  0  0  0  0
   47.0935   34.5097   39.6785 H   0  0  0  0  0  0  0  0  0  0  0  0
   49.4703   32.5627   42.1933 H   0  0  0  0  0  0  0  0  0  0  0  0
   50.5457   33.1785   40.9107 H   0  0  0  0  0  0  0  0  0  0  0  0
   48.8852   34.5417   43.8412 H   0  0  0  0  0  0  0  0  0  0  0  0
  1  4  1  0
  2  7  2  0
  3  4  2  0
  3  2  1  0
  4  5  1  0
  5  6  2  0
  7  6  1  0
  8 13  1  0
  9  8  1  0
  9  1  1  0
 10 11  1  0
 10  9  1  0
 11 12  1  0
 12  8  1  0
  2 14  1  0
  3 15  1  0
  6 16  1  0
  8 17  1  6
  9 18  1  6
 10 19  1  0
 10 20  1  0
 12 21  1  0
 12 22  1  0
 13 23  1  0
M  ISO  8  14  14  15  14  16  14  17  13  18  13  19  13  20  13  21  13
M  ISO  2  22  13  23   3
M  END
>  <minimizedAffinity>  (1) 
-4.54555464

>  <minimizedRMSD>  (1) 
1.63341498

$$$$
