
     RDKit          3D

 26 27  0  0  0  0  0  0  0  0999 V2000
   44.6570   36.0030   44.3500 C   0  0  0  0  0  0  0  0  0  0  0  0
   45.0980   35.9190   43.0180 C   0  0  0  0  0  0  0  0  0  0  0  0
   45.8530   34.8180   42.6260 C   0  0  0  0  0  0  0  0  0  0  0  0
   46.1300   33.8650   43.5670 N   0  0  0  0  0  0  0  0  0  0  0  0
   45.6950   33.9710   44.8370 C   0  0  0  0  0  0  0  0  0  0  0  0
   44.9640   35.0350   45.2190 N   0  0  0  0  0  0  0  0  0  0  0  0
   46.3460   34.6130   41.3510 O   0  0  0  0  0  0  0  0  0  0  0  0
   49.5790   34.1580   43.1900 N   0  0  0  0  0  0  0  0  0  0  0  0
   49.7680   35.3210   42.3610 C   0  0  0  0  0  0  0  0  0  0  0  0
   48.4760   35.6300   41.6850 C   0  0  0  0  0  0  0  0  0  0  0  0
   47.7520   34.4810   41.0930 C   0  0  0  0  0  0  0  0  0  0  0  0
   48.2370   33.1220   41.4060 C   0  0  0  0  0  0  0  0  0  0  0  0
   49.4180   33.0310   42.3170 C   0  0  0  0  0  0  0  0  0  0  0  0
   44.0588   36.8661   44.6775 H   0  0  0  0  0  0  0  0  0  0  0  0
   44.8500   36.7115   42.2966 H   0  0  0  0  0  0  0  0  0  0  0  0
   45.9382   33.1841   45.5661 H   0  0  0  0  0  0  0  0  0  0  0  0
   50.4007   34.0198   43.7955 H   0  0  0  0  0  0  0  0  0  0  0  0
   50.0758   36.1747   42.9827 H   0  0  0  0  0  0  0  0  0  0  0  0
   50.5506   35.1291   41.6122 H   0  0  0  0  0  0  0  0  0  0  0  0
   47.8127   36.0969   42.4279 H   0  0  0  0  0  0  0  0  0  0  0  0
   48.7376   36.2795   40.8367 H   0  0  0  0  0  0  0  0  0  0  0  0
   47.9725   34.5529   40.0177 H   0  0  0  0  0  0  0  0  0  0  0  0
   47.4088   32.5711   41.8758 H   0  0  0  0  0  0  0  0  0  0  0  0
   48.5757   32.7046   40.4463 H   0  0  0  0  0  0  0  0  0  0  0  0
   49.3065   32.1288   42.9363 H   0  0  0  0  0  0  0  0  0  0  0  0
   50.3100   33.0010   41.6740 H   0  0  0  0  0  0  0  0  0  0  0  0
  1  6  2  0
  2  1  1  0
  3  2  2  0
  3  4  1  0
  4  5  2  0
  5  6  1  0
  7  3  1  0
  9  8  1  0
 10  9  1  0
 11  7  1  0
 11 12  1  0
 11 10  1  0
 12 13  1  0
 13  8  1  0
  1 14  1  0
  2 15  1  0
  5 16  1  0
  8 17  1  0
  9 18  1  0
  9 19  1  0
 10 20  1  0
 10 21  1  0
 11 22  1  0
 12 23  1  0
 12 24  1  0
 13 25  1  0
 13 26  1  0
M  ISO  8  14  14  15  14  16  14  17   5  18  13  19  13  20  13  21  13
M  ISO  5  22  13  23  13  24  13  25  13  26  13
M  END
>  <minimizedAffinity>  (1) 
-4.47696877

>  <minimizedRMSD>  (1) 
1.12380636

$$$$
