
     RDKit          3D

 18 19  0  0  0  0  0  0  0  0999 V2000
   44.4970   35.9790   44.7710 C   0  0  0  0  0  0  0  0  0  0  0  0
   45.0380   36.0710   43.4850 C   0  0  0  0  0  0  0  0  0  0  0  0
   45.9210   35.0880   43.0550 C   0  0  0  0  0  0  0  0  0  0  0  0
   46.2220   34.0750   43.9080 N   0  0  0  0  0  0  0  0  0  0  0  0
   45.6840   34.0050   45.1540 C   0  0  0  0  0  0  0  0  0  0  0  0
   44.8260   34.9550   45.5780 N   0  0  0  0  0  0  0  0  0  0  0  0
   46.5410   35.0370   41.8130 O   0  0  0  0  0  0  0  0  0  0  0  0
   47.8770   34.6860   41.6060 C   0  0  0  0  0  0  0  0  0  0  0  0
   48.5750   35.0510   40.3100 C   0  0  0  0  0  0  0  0  0  0  0  0
   48.8700   35.7830   41.5640 C   0  0  0  0  0  0  0  0  0  0  0  0
   43.7970   36.7501   45.1252 H   0  0  0  0  0  0  0  0  0  0  0  0
   44.7689   36.9082   42.8242 H   0  0  0  0  0  0  0  0  0  0  0  0
   45.9495   33.1702   45.8193 H   0  0  0  0  0  0  0  0  0  0  0  0
   47.7442   33.7479   42.1649 H   0  0  0  0  0  0  0  0  0  0  0  0
   48.0156   35.5440   39.5012 H   0  0  0  0  0  0  0  0  0  0  0  0
   49.1711   34.5077   39.5621 H   0  0  0  0  0  0  0  0  0  0  0  0
   49.8463   35.6541   42.0541 H   0  0  0  0  0  0  0  0  0  0  0  0
   48.8562   36.8434   41.8560 H   0  0  0  0  0  0  0  0  0  0  0  0
  1  6  2  0
  2  1  1  0
  3  2  2  0
  3  4  1  0
  4  5  2  0
  5  6  1  0
  7  3  1  0
  8  7  1  0
  9 10  1  0
  9  8  1  0
 10  8  1  0
  1 11  1  0
  2 12  1  0
  5 13  1  0
  8 14  1  0
  9 15  1  0
  9 16  1  0
 10 17  1  0
 10 18  1  0
M  ISO  8  11  14  12  14  13  14  14  13  15  13  16  13  17  13  18  13
M  END
>  <minimizedAffinity>  (1) 
-4.0306983

>  <minimizedRMSD>  (1) 
1.55399847

$$$$
