
     RDKit          3D

 14 14  0  0  0  0  0  0  0  0999 V2000
   44.5190   35.9840   44.5190 C   0  0  0  0  0  0  0  0  0  0  0  0
   45.1860   36.0430   43.2920 C   0  0  0  0  0  0  0  0  0  0  0  0
   46.1320   35.0540   42.9930 C   0  0  0  0  0  0  0  0  0  0  0  0
   46.3590   34.0740   43.9180 N   0  0  0  0  0  0  0  0  0  0  0  0
   45.6900   34.0580   45.0940 C   0  0  0  0  0  0  0  0  0  0  0  0
   44.7790   35.0070   45.3830 N   0  0  0  0  0  0  0  0  0  0  0  0
   46.8730   34.9630   41.8360 O   0  0  0  0  0  0  0  0  0  0  0  0
   48.2310   35.2860   41.7150 C   0  0  0  0  0  0  0  0  0  0  0  0
   43.7731   36.7518   44.7720 H   0  0  0  0  0  0  0  0  0  0  0  0
   44.9723   36.8499   42.5755 H   0  0  0  0  0  0  0  0  0  0  0  0
   45.8927   33.2598   45.8233 H   0  0  0  0  0  0  0  0  0  0  0  0
   48.6735   35.3913   42.7166 H   0  0  0  0  0  0  0  0  0  0  0  0
   48.7506   34.4864   41.1667 H   0  0  0  0  0  0  0  0  0  0  0  0
   48.3350   36.2339   41.1667 H   0  0  0  0  0  0  0  0  0  0  0  0
  1  6  2  0
  2  1  1  0
  3  2  2  0
  3  4  1  0
  4  5  2  0
  5  6  1  0
  7  3  1  0
  8  7  1  0
  1  9  1  0
  2 10  1  0
  5 11  1  0
  8 12  1  0
  8 13  1  0
  8 14  1  0
M  ISO  6   9  14  10  14  11  14  12   8  13   8  14   8
M  END
>  <minimizedAffinity>  (1) 
-3.13109827

>  <minimizedRMSD>  (1) 
0.535764098

$$$$
