
     RDKit          3D

 14 14  0  0  0  0  0  0  0  0999 V2000
   44.5640   35.8730   44.4080 C   0  0  0  0  0  0  0  0  0  0  0  0
   45.3440   36.0170   43.2570 C   0  0  0  0  0  0  0  0  0  0  0  0
   46.3690   35.1080   43.0060 C   0  0  0  0  0  0  0  0  0  0  0  0
   46.5530   34.1200   43.9060 N   0  0  0  0  0  0  0  0  0  0  0  0
   45.7940   33.9900   45.0140 C   0  0  0  0  0  0  0  0  0  0  0  0
   44.8010   34.8710   45.2560 N   0  0  0  0  0  0  0  0  0  0  0  0
   47.2150   35.1250   41.9170 O   0  0  0  0  0  0  0  0  0  0  0  0
   46.8760   34.2430   40.8370 C   0  0  0  0  0  0  0  0  0  0  0  0
   45.5360   34.3790   40.5230 F   0  0  0  0  0  0  0  0  0  0  0  0
   47.6390   34.6270   39.7260 F   0  0  0  0  0  0  0  0  0  0  0  0
   47.2140   32.9240   41.1450 F   0  0  0  0  0  0  0  0  0  0  0  0
   43.7534   36.5872   44.6148 H   0  0  0  0  0  0  0  0  0  0  0  0
   45.1499   36.8415   42.5552 H   0  0  0  0  0  0  0  0  0  0  0  0
   45.9844   33.1672   45.7188 H   0  0  0  0  0  0  0  0  0  0  0  0
  1  6  2  0
  2  1  1  0
  3  2  2  0
  3  4  1  0
  4  5  2  0
  5  6  1  0
  7  3  1  0
  8 11  1  0
  8  7  1  0
  9  8  1  0
 10  8  1  0
  1 12  1  0
  2 13  1  0
  5 14  1  0
M  ISO  3  12  14  13  14  14  14
M  END
>  <minimizedAffinity>  (1) 
-3.63700414

>  <minimizedRMSD>  (1) 
0.564943433

$$$$
