
     RDKit          3D

 29 30  0  0  0  0  0  0  0  0999 V2000
   44.4470   35.9730   44.7220 C   0  0  0  0  0  0  0  0  0  0  0  0
   45.1380   35.9960   43.5180 C   0  0  0  0  0  0  0  0  0  0  0  0
   46.0990   35.0240   43.2440 C   0  0  0  0  0  0  0  0  0  0  0  0
   46.3100   34.0900   44.1900 N   0  0  0  0  0  0  0  0  0  0  0  0
   45.6300   34.0810   45.3600 C   0  0  0  0  0  0  0  0  0  0  0  0
   44.7050   35.0130   45.6260 N   0  0  0  0  0  0  0  0  0  0  0  0
   45.8900   33.0720   46.3290 N   0  0  0  0  0  0  0  0  0  0  0  0
   45.1780   33.0370   47.5840 C   0  0  0  0  0  0  0  0  0  0  0  0
   45.8720   32.2420   48.6370 C   0  0  0  0  0  0  0  0  0  0  0  0
   46.3800   30.9120   48.1900 C   0  0  0  0  0  0  0  0  0  0  0  0
   46.2480   30.7700   46.6900 C   0  0  0  0  0  0  0  0  0  0  0  0
   46.8790   32.0360   46.0970 C   0  0  0  0  0  0  0  0  0  0  0  0
   46.8510   34.9280   42.1020 O   0  0  0  0  0  0  0  0  0  0  0  0
   46.2620   34.1920   41.0190 C   0  0  0  0  0  0  0  0  0  0  0  0
   45.0120   34.7060   40.7190 F   0  0  0  0  0  0  0  0  0  0  0  0
   47.0890   34.3520   39.8970 F   0  0  0  0  0  0  0  0  0  0  0  0
   46.2260   32.8330   41.3100 F   0  0  0  0  0  0  0  0  0  0  0  0
   43.6885   36.7405   44.9358 H   0  0  0  0  0  0  0  0  0  0  0  0
   44.9268   36.7828   42.7788 H   0  0  0  0  0  0  0  0  0  0  0  0
   45.0604   34.0687   47.9469 H   0  0  0  0  0  0  0  0  0  0  0  0
   44.2102   32.5497   47.3945 H   0  0  0  0  0  0  0  0  0  0  0  0
   46.7279   32.8299   49.0000 H   0  0  0  0  0  0  0  0  0  0  0  0
   45.1208   32.0390   49.4145 H   0  0  0  0  0  0  0  0  0  0  0  0
   47.4393   30.8164   48.4706 H   0  0  0  0  0  0  0  0  0  0  0  0
   45.7859   30.1235   48.6751 H   0  0  0  0  0  0  0  0  0  0  0  0
   46.7833   29.8748   46.3408 H   0  0  0  0  0  0  0  0  0  0  0  0
   45.1976   30.6576   46.3834 H   0  0  0  0  0  0  0  0  0  0  0  0
   47.0665   31.9104   45.0204 H   0  0  0  0  0  0  0  0  0  0  0  0
   47.8515   32.2738   46.5526 H   0  0  0  0  0  0  0  0  0  0  0  0
  1  6  2  0
  2  1  1  0
  3  2  2  0
  3  4  1  0
  4  5  2  0
  5  6  1  0
  5  7  1  0
  7  8  1  0
  8  9  1  0
 10  9  1  0
 11 10  1  0
 12  7  1  0
 12 11  1  0
 13  3  1  0
 14 17  1  0
 14 13  1  0
 15 14  1  0
 16 14  1  0
  1 18  1  0
  2 19  1  0
  8 20  1  0
  8 21  1  0
  9 22  1  0
  9 23  1  0
 10 24  1  0
 10 25  1  0
 11 26  1  0
 11 27  1  0
 12 28  1  0
 12 29  1  0
M  ISO  8  18  14  19  14  20  13  21  13  22  13  23  13  24  13  25  13
M  ISO  4  26  13  27  13  28  13  29  13
M  END
>  <minimizedAffinity>  (1) 
-5.32012653

>  <minimizedRMSD>  (1) 
0.537867725

$$$$
