
     RDKit          3D

 30 31  0  0  0  0  0  0  0  0999 V2000
   44.4570   35.8270   44.6040 C   0  0  0  0  0  0  0  0  0  0  0  0
   45.1360   35.9070   43.3760 C   0  0  0  0  0  0  0  0  0  0  0  0
   46.1930   35.0450   43.1320 C   0  0  0  0  0  0  0  0  0  0  0  0
   46.5190   34.1610   44.1050 N   0  0  0  0  0  0  0  0  0  0  0  0
   45.8650   34.0900   45.2760 C   0  0  0  0  0  0  0  0  0  0  0  0
   44.8330   34.9330   45.5120 N   0  0  0  0  0  0  0  0  0  0  0  0
   46.2550   33.1130   46.3050 C   0  0  0  0  0  0  0  0  0  0  0  0
   46.3890   31.7260   45.7060 C   0  0  0  0  0  0  0  0  0  0  0  0
   47.1280   30.8950   46.7350 C   0  0  0  0  0  0  0  0  0  0  0  0
   47.1610   31.4930   48.1000 C   0  0  0  0  0  0  0  0  0  0  0  0
   45.9220   32.2020   48.5220 C   0  0  0  0  0  0  0  0  0  0  0  0
   45.2460   32.9910   47.4210 C   0  0  0  0  0  0  0  0  0  0  0  0
   46.9570   34.9960   41.9870 O   0  0  0  0  0  0  0  0  0  0  0  0
   46.4640   34.1780   40.9130 C   0  0  0  0  0  0  0  0  0  0  0  0
   45.1670   34.5220   40.6160 F   0  0  0  0  0  0  0  0  0  0  0  0
   47.2840   34.4020   39.8000 F   0  0  0  0  0  0  0  0  0  0  0  0
   46.5830   32.8210   41.2560 F   0  0  0  0  0  0  0  0  0  0  0  0
   43.6154   36.5037   44.8130 H   0  0  0  0  0  0  0  0  0  0  0  0
   44.8322   36.6444   42.6184 H   0  0  0  0  0  0  0  0  0  0  0  0
   47.2088   33.4870   46.7055 H   0  0  0  0  0  0  0  0  0  0  0  0
   45.3953   31.2967   45.5105 H   0  0  0  0  0  0  0  0  0  0  0  0
   46.9279   31.7520   44.7474 H   0  0  0  0  0  0  0  0  0  0  0  0
   46.6369   29.9129   46.8013 H   0  0  0  0  0  0  0  0  0  0  0  0
   48.1722   30.8299   46.3952 H   0  0  0  0  0  0  0  0  0  0  0  0
   47.3491   30.6828   48.8199 H   0  0  0  0  0  0  0  0  0  0  0  0
   47.9512   32.2578   48.0743 H   0  0  0  0  0  0  0  0  0  0  0  0
   45.2082   31.4536   48.8967 H   0  0  0  0  0  0  0  0  0  0  0  0
   46.2234   32.9299   49.2897 H   0  0  0  0  0  0  0  0  0  0  0  0
   44.9610   33.9883   47.7872 H   0  0  0  0  0  0  0  0  0  0  0  0
   44.3285   32.4912   47.0770 H   0  0  0  0  0  0  0  0  0  0  0  0
  1  6  2  0
  2  1  1  0
  3  2  2  0
  3  4  1  0
  4  5  2  0
  5  6  1  0
  5  7  1  0
  7 12  1  0
  8  7  1  0
  8  9  1  0
  9 10  1  0
 10 11  1  0
 12 11  1  0
 13  3  1  0
 14 17  1  0
 14 13  1  0
 15 14  1  0
 16 14  1  0
  1 18  1  0
  2 19  1  0
  7 20  1  0
  8 21  1  0
  8 22  1  0
  9 23  1  0
  9 24  1  0
 10 25  1  0
 10 26  1  0
 11 27  1  0
 11 28  1  0
 12 29  1  0
 12 30  1  0
M  ISO  8  18  14  19  14  20  13  21  13  22  13  23  13  24  13  25  13
M  ISO  5  26  13  27  13  28  13  29  13  30  13
M  END
>  <minimizedAffinity>  (1) 
-5.16067028

>  <minimizedRMSD>  (1) 
0.640795946

$$$$
