
     RDKit          3D

 28 29  0  0  0  0  0  0  0  0999 V2000
   44.6660   35.7680   43.8300 C   0  0  0  0  0  0  0  0  0  0  0  0
   45.6390   36.0450   42.8800 C   0  0  0  0  0  0  0  0  0  0  0  0
   46.7530   35.2260   42.7610 C   0  0  0  0  0  0  0  0  0  0  0  0
   46.8110   34.1740   43.6170 N   0  0  0  0  0  0  0  0  0  0  0  0
   45.8670   33.9150   44.5300 C   0  0  0  0  0  0  0  0  0  0  0  0
   44.7990   34.7170   44.6290 N   0  0  0  0  0  0  0  0  0  0  0  0
   46.0380   32.7830   45.3700 N   0  0  0  0  0  0  0  0  0  0  0  0
   46.4340   32.9800   46.7500 C   0  0  0  0  0  0  0  0  0  0  0  0
   45.5210   32.1960   47.6660 C   0  0  0  0  0  0  0  0  0  0  0  0
   45.1880   30.8890   47.1950 N   0  0  0  0  0  0  0  0  0  0  0  0
   46.0430   30.5140   46.0910 C   0  0  0  0  0  0  0  0  0  0  0  0
   45.8290   31.4260   44.8990 C   0  0  0  0  0  0  0  0  0  0  0  0
   47.7980   35.3650   41.8750 O   0  0  0  0  0  0  0  0  0  0  0  0
   47.7550   34.5250   40.7160 C   0  0  0  0  0  0  0  0  0  0  0  0
   46.4450   34.3080   40.3280 F   0  0  0  0  0  0  0  0  0  0  0  0
   48.4280   35.2090   39.6930 F   0  0  0  0  0  0  0  0  0  0  0  0
   48.4420   33.3240   40.9520 F   0  0  0  0  0  0  0  0  0  0  0  0
   43.7845   36.4197   43.9206 H   0  0  0  0  0  0  0  0  0  0  0  0
   45.5268   36.9170   42.2189 H   0  0  0  0  0  0  0  0  0  0  0  0
   47.4696   32.6346   46.8849 H   0  0  0  0  0  0  0  0  0  0  0  0
   46.3627   34.0494   46.9974 H   0  0  0  0  0  0  0  0  0  0  0  0
   46.0192   32.0930   48.6413 H   0  0  0  0  0  0  0  0  0  0  0  0
   44.5770   32.7579   47.7218 H   0  0  0  0  0  0  0  0  0  0  0  0
   45.3083   30.2118   47.9617 H   0  0  0  0  0  0  0  0  0  0  0  0
   47.0932   30.5820   46.4111 H   0  0  0  0  0  0  0  0  0  0  0  0
   45.7952   29.4849   45.7918 H   0  0  0  0  0  0  0  0  0  0  0  0
   44.8052   31.3119   44.5132 H   0  0  0  0  0  0  0  0  0  0  0  0
   46.5230   31.1792   44.0820 H   0  0  0  0  0  0  0  0  0  0  0  0
  1  6  2  0
  2  1  1  0
  3  2  2  0
  3  4  1  0
  4  5  2  0
  5  6  1  0
  5  7  1  0
  7  8  1  0
  8  9  1  0
 10  9  1  0
 11 10  1  0
 12  7  1  0
 12 11  1  0
 13  3  1  0
 14 17  1  0
 14 13  1  0
 15 14  1  0
 16 14  1  0
  1 18  1  0
  2 19  1  0
  8 20  1  0
  8 21  1  0
  9 22  1  0
  9 23  1  0
 10 24  1  0
 11 25  1  0
 11 26  1  0
 12 27  1  0
 12 28  1  0
M  ISO  8  18  14  19  14  20  13  21  13  22  13  23  13  24   5  25  13
M  ISO  3  26  13  27  13  28  13
M  END
>  <minimizedAffinity>  (1) 
-5.11843014

>  <minimizedRMSD>  (1) 
0.752914131

$$$$
