
     RDKit          3D

 21 22  0  0  0  0  0  0  0  0999 V2000
   44.4640   36.1110   44.4610 C   0  0  0  0  0  0  0  0  0  0  0  0
   45.2200   36.0590   43.2980 C   0  0  0  0  0  0  0  0  0  0  0  0
   46.1700   35.0510   43.1700 C   0  0  0  0  0  0  0  0  0  0  0  0
   46.3020   34.1740   44.1940 N   0  0  0  0  0  0  0  0  0  0  0  0
   45.5510   34.2490   45.3210 C   0  0  0  0  0  0  0  0  0  0  0  0
   44.6350   35.2180   45.4480 N   0  0  0  0  0  0  0  0  0  0  0  0
   45.7990   33.2370   46.3440 C   0  0  0  0  0  0  0  0  0  0  0  0
   46.6410   32.1630   46.5330 C   0  0  0  0  0  0  0  0  0  0  0  0
   46.3020   31.6470   47.7840 C   0  0  0  0  0  0  0  0  0  0  0  0
   45.2930   32.3980   48.3090 N   0  0  0  0  0  0  0  0  0  0  0  0
   44.9940   33.3530   47.4410 N   0  0  0  0  0  0  0  0  0  0  0  0
   47.0040   34.8520   42.0820 O   0  0  0  0  0  0  0  0  0  0  0  0
   46.4250   34.1220   40.9810 C   0  0  0  0  0  0  0  0  0  0  0  0
   45.1630   34.6230   40.7000 F   0  0  0  0  0  0  0  0  0  0  0  0
   47.2540   34.3500   39.8620 F   0  0  0  0  0  0  0  0  0  0  0  0
   46.4170   32.7550   41.2330 F   0  0  0  0  0  0  0  0  0  0  0  0
   43.7080   36.9017   44.5761 H   0  0  0  0  0  0  0  0  0  0  0  0
   45.0713   36.7975   42.4965 H   0  0  0  0  0  0  0  0  0  0  0  0
   47.4148   31.7919   45.8449 H   0  0  0  0  0  0  0  0  0  0  0  0
   46.7716   30.7774   48.2671 H   0  0  0  0  0  0  0  0  0  0  0  0
   44.8412   32.2488   49.2225 H   0  0  0  0  0  0  0  0  0  0  0  0
  1  6  2  0
  2  1  1  0
  3  2  2  0
  3  4  1  0
  4  5  2  0
  5  6  1  0
  5  7  1  0
  7  8  1  0
  7 11  2  0
  8  9  2  0
  9 10  1  0
 11 10  1  0
 12  3  1  0
 13 16  1  0
 13 12  1  0
 14 13  1  0
 15 13  1  0
  1 17  1  0
  2 18  1  0
  8 19  1  0
  9 20  1  0
 10 21  1  0
M  ISO  5  17  14  18  14  19  14  20  14  21   9
M  END
>  <minimizedAffinity>  (1) 
-4.85689926

>  <minimizedRMSD>  (1) 
0.739822805

$$$$
