
     RDKit          3D

 21 22  0  0  0  0  0  0  0  0999 V2000
   44.4670   36.0110   44.5430 C   0  0  0  0  0  0  0  0  0  0  0  0
   45.1910   36.0590   43.3400 C   0  0  0  0  0  0  0  0  0  0  0  0
   46.1770   35.0870   43.1130 C   0  0  0  0  0  0  0  0  0  0  0  0
   46.3650   34.1670   44.0670 N   0  0  0  0  0  0  0  0  0  0  0  0
   45.6690   34.1310   45.2130 C   0  0  0  0  0  0  0  0  0  0  0  0
   44.7160   35.0660   45.4370 N   0  0  0  0  0  0  0  0  0  0  0  0
   45.9530   33.0850   46.1880 C   0  0  0  0  0  0  0  0  0  0  0  0
   46.9450   32.1280   45.9650 C   0  0  0  0  0  0  0  0  0  0  0  0
   46.9930   31.2940   47.0150 N   0  0  0  0  0  0  0  0  0  0  0  0
   46.0620   31.7020   47.8850 C   0  0  0  0  0  0  0  0  0  0  0  0
   45.4070   32.7990   47.4050 N   0  0  0  0  0  0  0  0  0  0  0  0
   46.9630   35.0090   41.9820 O   0  0  0  0  0  0  0  0  0  0  0  0
   46.4610   34.1820   40.9230 C   0  0  0  0  0  0  0  0  0  0  0  0
   45.1630   34.5340   40.6310 F   0  0  0  0  0  0  0  0  0  0  0  0
   47.2680   34.4210   39.7970 F   0  0  0  0  0  0  0  0  0  0  0  0
   46.5920   32.8270   41.2470 F   0  0  0  0  0  0  0  0  0  0  0  0
   43.6890   36.7624   44.7436 H   0  0  0  0  0  0  0  0  0  0  0  0
   44.9894   36.8409   42.5930 H   0  0  0  0  0  0  0  0  0  0  0  0
   47.5844   32.0675   45.0720 H   0  0  0  0  0  0  0  0  0  0  0  0
   47.6273   30.4907   47.1297 H   0  0  0  0  0  0  0  0  0  0  0  0
   45.8536   31.2206   48.8519 H   0  0  0  0  0  0  0  0  0  0  0  0
  1  6  2  0
  2  1  1  0
  3  2  2  0
  3  4  1  0
  4  5  2  0
  5  6  1  0
  5  7  1  0
  7 11  1  0
  8  7  2  0
  8  9  1  0
  9 10  1  0
 11 10  2  0
 12  3  1  0
 13 16  1  0
 13 12  1  0
 14 13  1  0
 15 13  1  0
  1 17  1  0
  2 18  1  0
  8 19  1  0
  9 20  1  0
 10 21  1  0
M  ISO  5  17  14  18  14  19  14  20   9  21  14
M  END
>  <minimizedAffinity>  (1) 
-4.7093358

>  <minimizedRMSD>  (1) 
0.411784589

$$$$
