
     RDKit          3D

 31 32  0  0  0  0  0  0  0  0999 V2000
   45.8610   32.8940   46.3320 C   0  0  0  0  0  0  0  0  0  0  0  0
   45.3080   32.9110   47.5020 C   0  0  0  0  0  0  0  0  0  0  0  0
   44.5010   35.9310   44.7640 C   0  0  0  0  0  0  0  0  0  0  0  0
   45.2200   35.9810   43.5660 C   0  0  0  0  0  0  0  0  0  0  0  0
   46.1600   34.9850   43.2980 C   0  0  0  0  0  0  0  0  0  0  0  0
   46.3320   34.0040   44.2240 N   0  0  0  0  0  0  0  0  0  0  0  0
   45.6230   33.9870   45.3670 C   0  0  0  0  0  0  0  0  0  0  0  0
   44.7180   34.9390   45.6340 N   0  0  0  0  0  0  0  0  0  0  0  0
   46.9460   34.8950   42.1670 O   0  0  0  0  0  0  0  0  0  0  0  0
   46.3960   34.2060   41.0490 C   0  0  0  0  0  0  0  0  0  0  0  0
   45.1380   34.7430   40.7700 F   0  0  0  0  0  0  0  0  0  0  0  0
   47.2490   34.4550   39.9600 F   0  0  0  0  0  0  0  0  0  0  0  0
   46.3250   32.8440   41.2740 F   0  0  0  0  0  0  0  0  0  0  0  0
   45.4830   31.8750   48.5480 C   0  0  0  0  0  0  0  0  0  0  0  0
   45.0790   29.1600   47.2630 Br  0  0  0  0  0  0  0  0  0  0  0  0
   46.7040   29.9710   47.8810 C   0  0  0  0  0  0  0  0  0  0  0  0
   46.8140   31.2230   48.4630 C   0  0  0  0  0  0  0  0  0  0  0  0
   48.0480   31.6900   48.8650 C   0  0  0  0  0  0  0  0  0  0  0  0
   49.1650   30.8960   48.6800 C   0  0  0  0  0  0  0  0  0  0  0  0
   49.0540   29.6510   48.1010 C   0  0  0  0  0  0  0  0  0  0  0  0
   47.8160   29.1520   47.6850 C   0  0  0  0  0  0  0  0  0  0  0  0
   46.5161   32.0556   46.0527 H   0  0  0  0  0  0  0  0  0  0  0  0
   44.6549   33.7636   47.7397 H   0  0  0  0  0  0  0  0  0  0  0  0
   43.7564   36.7082   44.9910 H   0  0  0  0  0  0  0  0  0  0  0  0
   45.0472   36.7937   42.8451 H   0  0  0  0  0  0  0  0  0  0  0  0
   45.3803   32.3465   49.5365 H   0  0  0  0  0  0  0  0  0  0  0  0
   44.7144   31.1029   48.3956 H   0  0  0  0  0  0  0  0  0  0  0  0
   48.1426   32.6834   49.3278 H   0  0  0  0  0  0  0  0  0  0  0  0
   50.1521   31.2623   48.9984 H   0  0  0  0  0  0  0  0  0  0  0  0
   49.9567   29.0377   47.9633 H   0  0  0  0  0  0  0  0  0  0  0  0
   47.7230   28.1578   47.2237 H   0  0  0  0  0  0  0  0  0  0  0  0
  1  2  2  0
  2 14  1  0
  3  8  2  0
  4  3  1  0
  5  4  2  0
  5  6  1  0
  6  7  2  0
  7  8  1  0
  7  1  1  0
  9  5  1  0
 10 13  1  0
 10  9  1  0
 11 10  1  0
 12 10  1  0
 15 16  1  0
 16 17  2  0
 17 14  1  0
 17 18  1  0
 19 18  2  0
 20 19  1  0
 21 16  1  0
 21 20  2  0
  1 22  1  0
  2 23  1  0
  3 24  1  0
  4 25  1  0
 14 26  1  0
 14 27  1  0
 18 28  1  0
 19 29  1  0
 20 30  1  0
 21 31  1  0
M  ISO  8  24  14  25  14  26   8  27   8  28  14  29  14  30  14  31  14
M  END
>  <minimizedAffinity>  (1) 
-5.63314152

>  <minimizedRMSD>  (1) 
0.628509998

$$$$
