
     RDKit          3D

 27 27  0  0  0  0  0  0  0  0999 V2000
   44.5380   35.9120   44.3480 C   0  0  0  0  0  0  0  0  0  0  0  0
   45.3080   36.0540   43.1970 C   0  0  0  0  0  0  0  0  0  0  0  0
   46.3440   35.1510   42.9620 C   0  0  0  0  0  0  0  0  0  0  0  0
   46.5530   34.1660   43.8790 N   0  0  0  0  0  0  0  0  0  0  0  0
   45.8000   34.0580   44.9690 C   0  0  0  0  0  0  0  0  0  0  0  0
   44.7950   34.9220   45.2100 N   0  0  0  0  0  0  0  0  0  0  0  0
   46.0900   32.9830   45.9390 C   0  0  0  0  0  0  0  0  0  0  0  0
   45.5240   32.9550   47.1010 C   0  0  0  0  0  0  0  0  0  0  0  0
   45.7700   31.9270   48.1310 C   0  0  0  0  0  0  0  0  0  0  0  0
   46.5330   30.8730   47.5850 O   0  0  0  0  0  0  0  0  0  0  0  0
   46.3450   28.2720   47.3770 O   0  0  0  0  0  0  0  0  0  0  0  0
   45.5570   29.4980   47.7280 P   0  0  0  0  0  0  0  0  0  0  0  0
   44.2650   29.7380   46.6540 O   0  0  0  0  0  0  0  0  0  0  0  0
   45.0300   29.3690   49.3130 O   0  0  0  0  0  0  0  0  0  0  0  0
   47.2010   35.1500   41.8740 O   0  0  0  0  0  0  0  0  0  0  0  0
   46.9010   34.2530   40.8160 C   0  0  0  0  0  0  0  0  0  0  0  0
   45.5660   34.3720   40.4920 F   0  0  0  0  0  0  0  0  0  0  0  0
   47.6740   34.6380   39.7120 F   0  0  0  0  0  0  0  0  0  0  0  0
   47.2340   32.9470   41.1530 F   0  0  0  0  0  0  0  0  0  0  0  0
   43.7165   36.6154   44.5490 H   0  0  0  0  0  0  0  0  0  0  0  0
   45.1023   36.8660   42.4840 H   0  0  0  0  0  0  0  0  0  0  0  0
   46.8021   32.1899   45.6673 H   0  0  0  0  0  0  0  0  0  0  0  0
   44.8075   33.7549   47.3392 H   0  0  0  0  0  0  0  0  0  0  0  0
   46.3185   32.3769   48.9716 H   0  0  0  0  0  0  0  0  0  0  0  0
   44.8066   31.5311   48.4849 H   0  0  0  0  0  0  0  0  0  0  0  0
   43.4331   29.8925   47.1679 H   0  0  0  0  0  0  0  0  0  0  0  0
   45.7839   29.5536   49.9275 H   0  0  0  0  0  0  0  0  0  0  0  0
  1  6  2  0
  2  1  1  0
  3  2  2  0
  3  4  1  0
  4  5  2  0
  5  6  1  0
  5  7  1  0
  7  8  2  0
  8  9  1  0
 10 12  1  0
 10  9  1  0
 11 12  2  0
 12 14  1  0
 13 12  1  0
 15  3  1  0
 16 19  1  0
 16 15  1  0
 17 16  1  0
 18 16  1  0
  1 20  1  0
  2 21  1  0
  7 22  1  0
  8 23  1  0
  9 24  1  0
  9 25  1  0
 13 26  1  0
 14 27  1  0
M  ISO  6  20  14  21  14  24   8  25   8  26   3  27   3
M  END
>  <minimizedAffinity>  (1) 
-5.06719303

>  <minimizedRMSD>  (1) 
0.839759409

$$$$
