
     RDKit          3D

 23 23  0  0  0  0  0  0  0  0999 V2000
   44.4860   35.8460   44.6120 C   0  0  0  0  0  0  0  0  0  0  0  0
   45.1690   35.9510   43.3960 C   0  0  0  0  0  0  0  0  0  0  0  0
   46.1850   35.0550   43.1160 C   0  0  0  0  0  0  0  0  0  0  0  0
   46.4630   34.1150   44.0500 N   0  0  0  0  0  0  0  0  0  0  0  0
   45.8010   34.0290   45.2040 C   0  0  0  0  0  0  0  0  0  0  0  0
   44.8180   34.8900   45.4820 N   0  0  0  0  0  0  0  0  0  0  0  0
   46.1550   32.9850   46.1700 C   0  0  0  0  0  0  0  0  0  0  0  0
   45.5300   32.8640   47.3080 C   0  0  0  0  0  0  0  0  0  0  0  0
   45.8610   31.8200   48.3100 C   0  0  0  0  0  0  0  0  0  0  0  0
   44.7450   31.6460   49.1950 N   0  0  0  0  0  0  0  0  0  0  0  0
   46.9620   35.0160   41.9670 O   0  0  0  0  0  0  0  0  0  0  0  0
   46.4870   34.1840   40.9030 C   0  0  0  0  0  0  0  0  0  0  0  0
   45.1870   34.5350   40.6060 F   0  0  0  0  0  0  0  0  0  0  0  0
   47.3020   34.4520   39.7880 F   0  0  0  0  0  0  0  0  0  0  0  0
   46.6230   32.8340   41.2290 F   0  0  0  0  0  0  0  0  0  0  0  0
   43.6759   36.5507   44.8511 H   0  0  0  0  0  0  0  0  0  0  0  0
   44.9019   36.7352   42.6723 H   0  0  0  0  0  0  0  0  0  0  0  0
   46.9689   32.2855   45.9287 H   0  0  0  0  0  0  0  0  0  0  0  0
   44.7180   33.5699   47.5366 H   0  0  0  0  0  0  0  0  0  0  0  0
   46.0747   30.8712   47.7961 H   0  0  0  0  0  0  0  0  0  0  0  0
   46.7458   32.1278   48.8865 H   0  0  0  0  0  0  0  0  0  0  0  0
   45.0698   31.6966   50.1711 H   0  0  0  0  0  0  0  0  0  0  0  0
   44.0525   32.3892   49.0246 H   0  0  0  0  0  0  0  0  0  0  0  0
  1  6  2  0
  2  1  1  0
  3  2  2  0
  3  4  1  0
  4  5  2  0
  5  6  1  0
  5  7  1  0
  7  8  2  0
  8  9  1  0
  9 10  1  0
 11  3  1  0
 12 15  1  0
 12 11  1  0
 13 12  1  0
 14 12  1  0
  1 16  1  0
  2 17  1  0
  7 18  1  0
  8 19  1  0
  9 20  1  0
  9 21  1  0
 10 22  1  0
 10 23  1  0
M  ISO  6  16  14  17  14  20   8  21   8  22   5  23   5
M  END
>  <minimizedAffinity>  (1) 
-4.66781759

>  <minimizedRMSD>  (1) 
0.282962829

$$$$
