
     RDKit          3D

 22 22  0  0  0  0  0  0  0  0999 V2000
   44.4940   35.8720   44.6230 C   0  0  0  0  0  0  0  0  0  0  0  0
   45.1830   35.9730   43.4090 C   0  0  0  0  0  0  0  0  0  0  0  0
   46.1770   35.0610   43.1390 C   0  0  0  0  0  0  0  0  0  0  0  0
   46.4190   34.1270   44.0720 N   0  0  0  0  0  0  0  0  0  0  0  0
   45.7570   34.0350   45.2300 C   0  0  0  0  0  0  0  0  0  0  0  0
   44.7860   34.9170   45.5060 N   0  0  0  0  0  0  0  0  0  0  0  0
   46.0710   32.9670   46.1830 C   0  0  0  0  0  0  0  0  0  0  0  0
   45.4300   32.8840   47.3290 C   0  0  0  0  0  0  0  0  0  0  0  0
   45.6850   31.8240   48.3030 C   0  0  0  0  0  0  0  0  0  0  0  0
   44.6290   31.6980   49.1990 O   0  0  0  0  0  0  0  0  0  0  0  0
   46.9350   35.0380   41.9890 O   0  0  0  0  0  0  0  0  0  0  0  0
   46.4750   34.1870   40.9290 C   0  0  0  0  0  0  0  0  0  0  0  0
   45.1590   34.5360   40.6180 F   0  0  0  0  0  0  0  0  0  0  0  0
   47.2850   34.4500   39.8160 F   0  0  0  0  0  0  0  0  0  0  0  0
   46.5860   32.8420   41.2540 F   0  0  0  0  0  0  0  0  0  0  0  0
   43.6967   36.5941   44.8528 H   0  0  0  0  0  0  0  0  0  0  0  0
   44.9351   36.7644   42.6864 H   0  0  0  0  0  0  0  0  0  0  0  0
   46.8489   32.2288   45.9383 H   0  0  0  0  0  0  0  0  0  0  0  0
   44.6704   33.6440   47.5641 H   0  0  0  0  0  0  0  0  0  0  0  0
   45.8182   30.8713   47.7695 H   0  0  0  0  0  0  0  0  0  0  0  0
   46.5922   32.0826   48.8688 H   0  0  0  0  0  0  0  0  0  0  0  0
   44.9756   31.7394   50.1254 H   0  0  0  0  0  0  0  0  0  0  0  0
  1  6  2  0
  2  1  1  0
  3  2  2  0
  3  4  1  0
  4  5  2  0
  5  6  1  0
  5  7  1  0
  7  8  2  0
  8  9  1  0
  9 10  1  0
 11  3  1  0
 12 15  1  0
 12 11  1  0
 13 12  1  0
 14 12  1  0
  1 16  1  0
  2 17  1  0
  7 18  1  0
  8 19  1  0
  9 20  1  0
  9 21  1  0
 10 22  1  0
M  ISO  5  16  14  17  14  20   8  21   8  22   3
M  END
>  <minimizedAffinity>  (1) 
-4.6658206

>  <minimizedRMSD>  (1) 
0.227516443

$$$$
