
     RDKit          3D

 45 47  0  0  0  0  0  0  0  0999 V2000
   51.1600   31.8740   51.2650 C   0  0  0  0  0  0  0  0  0  0  0  0
   51.3150   30.6290   51.9360 C   0  0  0  0  0  0  0  0  0  0  0  0
   50.5450   29.5470   51.5360 C   0  0  0  0  0  0  0  0  0  0  0  0
   49.6960   29.7430   50.5340 N   0  0  0  0  0  0  0  0  0  0  0  0
   49.5480   30.9220   49.8970 C   0  0  0  0  0  0  0  0  0  0  0  0
   50.2790   31.9880   50.2600 N   0  0  0  0  0  0  0  0  0  0  0  0
   54.2950   30.1370   51.3980 Cl  0  0  0  0  0  0  0  0  0  0  0  0
   53.6950   30.5670   52.9810 C   0  0  0  0  0  0  0  0  0  0  0  0
   52.3230   30.7410   52.9760 C   0  0  0  0  0  0  0  0  0  0  0  0
   51.6950   31.0940   54.1790 C   0  0  0  0  0  0  0  0  0  0  0  0
   52.4310   31.2670   55.3560 C   0  0  0  0  0  0  0  0  0  0  0  0
   53.7950   31.0870   55.3250 C   0  0  0  0  0  0  0  0  0  0  0  0
   54.4140   30.7400   54.1430 C   0  0  0  0  0  0  0  0  0  0  0  0
   56.1370   30.4820   53.9740 Cl  0  0  0  0  0  0  0  0  0  0  0  0
   48.5820   31.0560   48.8040 C   0  0  0  0  0  0  0  0  0  0  0  0
   47.6780   32.0060   48.7950 C   0  0  0  0  0  0  0  0  0  0  0  0
   46.7070   32.1220   47.6760 C   0  0  0  0  0  0  0  0  0  0  0  0
   46.6220   32.7470   45.4270 C   0  0  0  0  0  0  0  0  0  0  0  0
   45.8710   31.8690   44.9550 O   0  0  0  0  0  0  0  0  0  0  0  0
   47.1090   33.0310   46.6970 N   0  0  0  0  0  0  0  0  0  0  0  0
   44.9030   35.1120   44.5490 Cl  0  0  0  0  0  0  0  0  0  0  0  0
   46.2740   34.5810   43.6360 C   0  0  0  0  0  0  0  0  0  0  0  0
   46.9120   33.5030   44.2040 C   0  0  0  0  0  0  0  0  0  0  0  0
   48.0480   32.9490   43.5870 C   0  0  0  0  0  0  0  0  0  0  0  0
   48.5320   33.4950   42.3930 C   0  0  0  0  0  0  0  0  0  0  0  0
   47.8700   34.5790   41.8430 C   0  0  0  0  0  0  0  0  0  0  0  0
   48.4410   35.2870   40.3610 Cl  0  0  0  0  0  0  0  0  0  0  0  0
   46.7610   35.1070   42.4610 C   0  0  0  0  0  0  0  0  0  0  0  0
   50.6590   28.3490   52.1470 O   0  0  0  0  0  0  0  0  0  0  0  0
   51.6130   27.4180   51.6040 C   0  0  0  0  0  0  0  0  0  0  0  0
   52.0930   27.9090   50.3950 F   0  0  0  0  0  0  0  0  0  0  0  0
   52.6690   27.3880   52.5150 F   0  0  0  0  0  0  0  0  0  0  0  0
   51.1040   26.1290   51.4760 F   0  0  0  0  0  0  0  0  0  0  0  0
   51.7622   32.7424   51.5702 H   0  0  0  0  0  0  0  0  0  0  0  0
   50.6045   31.2374   54.1975 H   0  0  0  0  0  0  0  0  0  0  0  0
   51.9263   31.5432   56.2936 H   0  0  0  0  0  0  0  0  0  0  0  0
   54.3897   31.2196   56.2408 H   0  0  0  0  0  0  0  0  0  0  0  0
   48.6158   30.3410   47.9688 H   0  0  0  0  0  0  0  0  0  0  0  0
   47.6380   32.7258   49.6259 H   0  0  0  0  0  0  0  0  0  0  0  0
   46.5905   31.1328   47.2091 H   0  0  0  0  0  0  0  0  0  0  0  0
   45.7608   32.4909   48.0986 H   0  0  0  0  0  0  0  0  0  0  0  0
   47.7131   33.8407   46.8978 H   0  0  0  0  0  0  0  0  0  0  0  0
   48.5560   32.0865   44.0431 H   0  0  0  0  0  0  0  0  0  0  0  0
   49.4203   33.0714   41.9016 H   0  0  0  0  0  0  0  0  0  0  0  0
   46.2515   35.9692   42.0061 H   0  0  0  0  0  0  0  0  0  0  0  0
  1  2  2  0
  2  9  1  0
  3  2  1  0
  3 29  1  0
  4  3  2  0
  5  6  2  0
  5  4  1  0
  6  1  1  0
  7  8  1  0
  8 13  2  0
  9  8  1  0
  9 10  2  0
 10 11  1  0
 12 11  2  0
 13 12  1  0
 14 13  1  0
 15  5  1  0
 16 15  2  0
 17 16  1  0
 18 20  1  0
 19 18  2  0
 20 17  1  0
 22 23  2  0
 22 21  1  0
 23 18  1  0
 24 23  1  0
 25 24  2  0
 26 25  1  0
 26 28  2  0
 27 26  1  0
 28 22  1  0
 30 29  1  0
 30 32  1  0
 31 30  1  0
 33 30  1  0
  1 34  1  0
 10 35  1  0
 11 36  1  0
 12 37  1  0
 15 38  1  0
 16 39  1  0
 17 40  1  0
 17 41  1  0
 20 42  1  0
 24 43  1  0
 25 44  1  0
 28 45  1  0
M  ISO  8  34  14  35  14  36  14  37  14  40   8  41   8  43  14  44  14
M  ISO  1  45  14
M  END
>  <minimizedAffinity>  (1) 
-7.50821114

>  <minimizedRMSD>  (1) 
0.341971368

$$$$
