
     RDKit          3D

 45 47  0  0  0  0  0  0  0  0999 V2000
   51.1840   32.0320   51.1830 C   0  0  0  0  0  0  0  0  0  0  0  0
   51.3010   30.8090   51.8930 C   0  0  0  0  0  0  0  0  0  0  0  0
   50.5170   29.7270   51.5200 C   0  0  0  0  0  0  0  0  0  0  0  0
   49.6890   29.9200   50.4990 N   0  0  0  0  0  0  0  0  0  0  0  0
   49.5690   31.0740   49.8220 C   0  0  0  0  0  0  0  0  0  0  0  0
   50.3190   32.1350   50.1620 N   0  0  0  0  0  0  0  0  0  0  0  0
   52.2460   30.8430   52.9980 C   0  0  0  0  0  0  0  0  0  0  0  0
   53.6260   30.6410   52.8740 C   0  0  0  0  0  0  0  0  0  0  0  0
   54.4570   30.6900   53.9740 C   0  0  0  0  0  0  0  0  0  0  0  0
   53.9470   30.9400   55.2330 C   0  0  0  0  0  0  0  0  0  0  0  0
   52.5950   31.1470   55.4120 C   0  0  0  0  0  0  0  0  0  0  0  0
   51.7760   31.0930   54.2910 C   0  0  0  0  0  0  0  0  0  0  0  0
   48.6200   31.2030   48.7120 C   0  0  0  0  0  0  0  0  0  0  0  0
   47.5810   32.0040   48.7720 C   0  0  0  0  0  0  0  0  0  0  0  0
   46.6350   32.1090   47.6280 C   0  0  0  0  0  0  0  0  0  0  0  0
   46.6080   32.7390   45.3760 C   0  0  0  0  0  0  0  0  0  0  0  0
   45.8820   31.8450   44.8860 O   0  0  0  0  0  0  0  0  0  0  0  0
   47.0600   33.0280   46.6590 N   0  0  0  0  0  0  0  0  0  0  0  0
   44.8960   35.1090   44.4940 Cl  0  0  0  0  0  0  0  0  0  0  0  0
   46.2820   34.5830   43.5960 C   0  0  0  0  0  0  0  0  0  0  0  0
   46.9150   33.5060   44.1610 C   0  0  0  0  0  0  0  0  0  0  0  0
   48.0600   32.9570   43.5600 C   0  0  0  0  0  0  0  0  0  0  0  0
   48.5620   33.4990   42.3860 C   0  0  0  0  0  0  0  0  0  0  0  0
   47.9120   34.5820   41.8320 C   0  0  0  0  0  0  0  0  0  0  0  0
   48.4730   35.3290   40.3510 Cl  0  0  0  0  0  0  0  0  0  0  0  0
   46.7890   35.1120   42.4330 C   0  0  0  0  0  0  0  0  0  0  0  0
   50.5920   28.5400   52.1600 O   0  0  0  0  0  0  0  0  0  0  0  0
   51.5190   27.5700   51.6350 C   0  0  0  0  0  0  0  0  0  0  0  0
   52.0390   28.0420   50.4190 F   0  0  0  0  0  0  0  0  0  0  0  0
   52.5750   27.4990   52.5430 F   0  0  0  0  0  0  0  0  0  0  0  0
   50.9640   26.3070   51.4900 F   0  0  0  0  0  0  0  0  0  0  0  0
   51.8022   32.8956   51.4694 H   0  0  0  0  0  0  0  0  0  0  0  0
   54.0553   30.4396   51.8814 H   0  0  0  0  0  0  0  0  0  0  0  0
   55.5376   30.5282   53.8471 H   0  0  0  0  0  0  0  0  0  0  0  0
   54.6240   30.9743   56.0993 H   0  0  0  0  0  0  0  0  0  0  0  0
   52.1787   31.3483   56.4101 H   0  0  0  0  0  0  0  0  0  0  0  0
   50.6969   31.2561   54.4284 H   0  0  0  0  0  0  0  0  0  0  0  0
   48.7834   30.6101   47.8000 H   0  0  0  0  0  0  0  0  0  0  0  0
   47.4081   32.6038   49.6777 H   0  0  0  0  0  0  0  0  0  0  0  0
   46.5404   31.1193   47.1573 H   0  0  0  0  0  0  0  0  0  0  0  0
   45.6721   32.4641   48.0238 H   0  0  0  0  0  0  0  0  0  0  0  0
   47.6523   33.8420   46.8769 H   0  0  0  0  0  0  0  0  0  0  0  0
   48.5606   32.0936   44.0224 H   0  0  0  0  0  0  0  0  0  0  0  0
   49.4575   33.0750   41.9081 H   0  0  0  0  0  0  0  0  0  0  0  0
   46.2887   35.9763   41.9717 H   0  0  0  0  0  0  0  0  0  0  0  0
  1  2  2  0
  2  7  1  0
  3  2  1  0
  3 27  1  0
  4  3  2  0
  5  6  2  0
  5  4  1  0
  6  1  1  0
  7 12  1  0
  8  7  2  0
  8  9  1  0
  9 10  2  0
 10 11  1  0
 12 11  2  0
 13 14  2  0
 13  5  1  0
 15 14  1  0
 16 18  1  0
 17 16  2  0
 18 15  1  0
 20 21  2  0
 20 19  1  0
 21 16  1  0
 22 21  1  0
 23 22  2  0
 24 23  1  0
 24 26  2  0
 25 24  1  0
 26 20  1  0
 28 27  1  0
 28 30  1  0
 29 28  1  0
 31 28  1  0
  1 32  1  0
  8 33  1  0
  9 34  1  0
 10 35  1  0
 11 36  1  0
 12 37  1  0
 13 38  1  0
 14 39  1  0
 15 40  1  0
 15 41  1  0
 18 42  1  0
 22 43  1  0
 23 44  1  0
 26 45  1  0
M  ISO  8  32  14  33  14  34  14  35  14  36  14  37  14  40   8  41   8
M  ISO  3  43  14  44  14  45  14
M  END
>  <minimizedAffinity>  (1) 
-7.44410706

>  <minimizedRMSD>  (1) 
0.422052681

$$$$
