
     RDKit          3D

 48 50  0  0  0  0  0  0  0  0999 V2000
   51.1650   31.9550   51.2270 C   0  0  0  0  0  0  0  0  0  0  0  0
   51.2910   30.7120   51.9080 C   0  0  0  0  0  0  0  0  0  0  0  0
   50.5130   29.6380   51.5030 C   0  0  0  0  0  0  0  0  0  0  0  0
   49.6750   29.8360   50.4790 N   0  0  0  0  0  0  0  0  0  0  0  0
   49.5620   31.0170   49.8400 C   0  0  0  0  0  0  0  0  0  0  0  0
   50.3010   32.0780   50.2070 N   0  0  0  0  0  0  0  0  0  0  0  0
   53.6450   30.6580   52.8780 C   0  0  0  0  0  0  0  0  0  0  0  0
   52.2900   30.8080   52.9560 C   0  0  0  0  0  0  0  0  0  0  0  0
   51.7200   31.0840   54.2050 C   0  0  0  0  0  0  0  0  0  0  0  0
   52.5510   31.1920   55.3150 C   0  0  0  0  0  0  0  0  0  0  0  0
   53.9380   31.0340   55.2110 C   0  0  0  0  0  0  0  0  0  0  0  0
   54.4940   30.7600   53.9560 C   0  0  0  0  0  0  0  0  0  0  0  0
   54.2940   30.3370   51.3090 S   0  0  0  0  0  0  0  0  0  0  0  0
   55.3590   31.3570   50.9540 O   0  0  0  0  0  0  0  0  0  0  0  0
   55.0270   29.0160   51.3680 O   0  0  0  0  0  0  0  0  0  0  0  0
   48.6170   31.1600   48.7290 C   0  0  0  0  0  0  0  0  0  0  0  0
   47.5810   31.9630   48.7930 C   0  0  0  0  0  0  0  0  0  0  0  0
   46.6430   32.0800   47.6450 C   0  0  0  0  0  0  0  0  0  0  0  0
   46.6000   32.7360   45.3980 C   0  0  0  0  0  0  0  0  0  0  0  0
   45.8500   31.8690   44.9120 O   0  0  0  0  0  0  0  0  0  0  0  0
   47.0760   32.9980   46.6790 N   0  0  0  0  0  0  0  0  0  0  0  0
   44.8950   35.1120   44.5240 Cl  0  0  0  0  0  0  0  0  0  0  0  0
   46.2840   34.5910   43.6280 C   0  0  0  0  0  0  0  0  0  0  0  0
   46.9120   33.5100   44.1880 C   0  0  0  0  0  0  0  0  0  0  0  0
   48.0530   32.9580   43.5930 C   0  0  0  0  0  0  0  0  0  0  0  0
   48.5620   33.5110   42.4160 C   0  0  0  0  0  0  0  0  0  0  0  0
   47.9090   34.6070   41.8660 C   0  0  0  0  0  0  0  0  0  0  0  0
   48.4900   35.3460   40.3930 Cl  0  0  0  0  0  0  0  0  0  0  0  0
   46.7830   35.1350   42.4720 C   0  0  0  0  0  0  0  0  0  0  0  0
   50.5980   28.4410   52.1190 O   0  0  0  0  0  0  0  0  0  0  0  0
   51.5370   27.4890   51.6000 C   0  0  0  0  0  0  0  0  0  0  0  0
   52.0240   27.9570   50.3860 F   0  0  0  0  0  0  0  0  0  0  0  0
   52.5870   27.4580   52.5170 F   0  0  0  0  0  0  0  0  0  0  0  0
   51.0090   26.2050   51.4860 F   0  0  0  0  0  0  0  0  0  0  0  0
   51.7760   32.8157   51.5366 H   0  0  0  0  0  0  0  0  0  0  0  0
   50.6324   31.2133   54.3066 H   0  0  0  0  0  0  0  0  0  0  0  0
   52.1076   31.4068   56.2985 H   0  0  0  0  0  0  0  0  0  0  0  0
   54.5797   31.1236   56.0999 H   0  0  0  0  0  0  0  0  0  0  0  0
   55.5795   30.6298   53.8349 H   0  0  0  0  0  0  0  0  0  0  0  0
   53.2650   30.3567   50.4048 H   0  0  0  0  0  0  0  0  0  0  0  0
   48.7814   30.5754   47.8118 H   0  0  0  0  0  0  0  0  0  0  0  0
   47.4050   32.5545   49.7035 H   0  0  0  0  0  0  0  0  0  0  0  0
   46.5433   31.0924   47.1710 H   0  0  0  0  0  0  0  0  0  0  0  0
   45.6825   32.4435   48.0390 H   0  0  0  0  0  0  0  0  0  0  0  0
   47.6911   33.7948   46.8974 H   0  0  0  0  0  0  0  0  0  0  0  0
   48.5480   32.0896   44.0522 H   0  0  0  0  0  0  0  0  0  0  0  0
   49.4576   33.0893   41.9363 H   0  0  0  0  0  0  0  0  0  0  0  0
   46.2808   36.0033   42.0204 H   0  0  0  0  0  0  0  0  0  0  0  0
  1  2  2  0
  2  8  1  0
  3  2  1  0
  3 30  1  0
  4  3  2  0
  5  6  2  0
  5  4  1  0
  6  1  1  0
  7  8  2  0
  7 12  1  0
  8  9  1  0
  9 10  2  0
 11 10  1  0
 12 11  2  0
 13 15  2  0
 13  7  1  0
 14 13  2  0
 16 17  2  0
 16  5  1  0
 18 17  1  0
 19 21  1  0
 20 19  2  0
 21 18  1  0
 23 24  2  0
 23 22  1  0
 24 19  1  0
 25 24  1  0
 26 25  2  0
 27 26  1  0
 27 29  2  0
 28 27  1  0
 29 23  1  0
 31 30  1  0
 31 33  1  0
 32 31  1  0
 34 31  1  0
  1 35  1  0
  9 36  1  0
 10 37  1  0
 11 38  1  0
 12 39  1  0
 13 40  1  0
 16 41  1  0
 17 42  1  0
 18 43  1  0
 18 44  1  0
 21 45  1  0
 25 46  1  0
 26 47  1  0
 29 48  1  0
M  ISO  8  35  14  36  14  37  14  38  14  39  14  40  11  43   8  44   8
M  ISO  3  46  14  47  14  48  14
M  END
>  <minimizedAffinity>  (1) 
-7.24379921

>  <minimizedRMSD>  (1) 
0.853319705

$$$$
