
     RDKit          3D

 47 49  0  0  0  0  0  0  0  0999 V2000
   48.6040   31.2080   48.7330 C   0  0  0  0  0  0  0  0  0  0  0  0
   47.6020   32.0560   48.7750 C   0  0  0  0  0  0  0  0  0  0  0  0
   51.2000   32.0470   51.1670 C   0  0  0  0  0  0  0  0  0  0  0  0
   51.3280   30.8210   51.8790 C   0  0  0  0  0  0  0  0  0  0  0  0
   50.5330   29.7410   51.5160 C   0  0  0  0  0  0  0  0  0  0  0  0
   49.6900   29.9380   50.5060 N   0  0  0  0  0  0  0  0  0  0  0  0
   49.5660   31.0910   49.8320 C   0  0  0  0  0  0  0  0  0  0  0  0
   50.3210   32.1540   50.1590 N   0  0  0  0  0  0  0  0  0  0  0  0
   52.2750   30.7890   52.9390 N   0  0  0  0  0  0  0  0  0  0  0  0
   53.7400   30.7100   52.8220 C   0  0  0  0  0  0  0  0  0  0  0  0
   54.1790   30.5290   54.2770 C   0  0  0  0  0  0  0  0  0  0  0  0
   53.0710   31.1730   55.0770 C   0  0  0  0  0  0  0  0  0  0  0  0
   51.8340   30.8250   54.2930 C   0  0  0  0  0  0  0  0  0  0  0  0
   50.6140   28.5540   52.1590 O   0  0  0  0  0  0  0  0  0  0  0  0
   51.5450   27.5870   51.6300 C   0  0  0  0  0  0  0  0  0  0  0  0
   52.0360   28.0380   50.4100 F   0  0  0  0  0  0  0  0  0  0  0  0
   52.6050   27.5410   52.5370 F   0  0  0  0  0  0  0  0  0  0  0  0
   50.9930   26.3120   51.5290 F   0  0  0  0  0  0  0  0  0  0  0  0
   46.6400   32.1500   47.6430 C   0  0  0  0  0  0  0  0  0  0  0  0
   46.6050   32.7510   45.3810 C   0  0  0  0  0  0  0  0  0  0  0  0
   45.8950   31.8490   44.9070 O   0  0  0  0  0  0  0  0  0  0  0  0
   47.0560   33.0600   46.6600 N   0  0  0  0  0  0  0  0  0  0  0  0
   44.8890   35.1130   44.4910 Cl  0  0  0  0  0  0  0  0  0  0  0  0
   46.2790   34.5840   43.5850 C   0  0  0  0  0  0  0  0  0  0  0  0
   46.9060   33.5130   44.1600 C   0  0  0  0  0  0  0  0  0  0  0  0
   48.0470   32.9580   43.5590 C   0  0  0  0  0  0  0  0  0  0  0  0
   48.5460   33.4940   42.3780 C   0  0  0  0  0  0  0  0  0  0  0  0
   47.8870   34.5840   41.8160 C   0  0  0  0  0  0  0  0  0  0  0  0
   48.4540   35.3100   40.3320 Cl  0  0  0  0  0  0  0  0  0  0  0  0
   46.7680   35.1130   42.4230 C   0  0  0  0  0  0  0  0  0  0  0  0
   48.7245   30.5671   47.8472 H   0  0  0  0  0  0  0  0  0  0  0  0
   47.4724   32.7030   49.6551 H   0  0  0  0  0  0  0  0  0  0  0  0
   51.8238   32.9096   51.4442 H   0  0  0  0  0  0  0  0  0  0  0  0
   54.0438   29.8513   52.2053 H   0  0  0  0  0  0  0  0  0  0  0  0
   54.1890   31.5878   52.3344 H   0  0  0  0  0  0  0  0  0  0  0  0
   54.2723   29.4619   54.5272 H   0  0  0  0  0  0  0  0  0  0  0  0
   55.1629   30.9766   54.4807 H   0  0  0  0  0  0  0  0  0  0  0  0
   53.0243   30.7553   56.0935 H   0  0  0  0  0  0  0  0  0  0  0  0
   53.2077   32.2565   55.2089 H   0  0  0  0  0  0  0  0  0  0  0  0
   51.0573   31.5918   54.4297 H   0  0  0  0  0  0  0  0  0  0  0  0
   51.3859   29.8734   54.6149 H   0  0  0  0  0  0  0  0  0  0  0  0
   46.5378   31.1560   47.1832 H   0  0  0  0  0  0  0  0  0  0  0  0
   45.6818   32.5086   48.0470 H   0  0  0  0  0  0  0  0  0  0  0  0
   47.6417   33.8817   46.8664 H   0  0  0  0  0  0  0  0  0  0  0  0
   48.5476   32.0961   44.0244 H   0  0  0  0  0  0  0  0  0  0  0  0
   49.4397   33.0676   41.8990 H   0  0  0  0  0  0  0  0  0  0  0  0
   46.2603   35.9747   41.9650 H   0  0  0  0  0  0  0  0  0  0  0  0
  1  2  2  0
  1  7  1  0
  3  4  2  0
  4  9  1  0
  5  4  1  0
  5 14  1  0
  6  5  2  0
  7  8  2  0
  7  6  1  0
  8  3  1  0
  9 13  1  0
 10  9  1  0
 10 11  1  0
 11 12  1  0
 13 12  1  0
 15 14  1  0
 15 17  1  0
 16 15  1  0
 18 15  1  0
 19  2  1  0
 20 22  1  0
 21 20  2  0
 22 19  1  0
 24 25  2  0
 24 23  1  0
 25 20  1  0
 26 25  1  0
 27 26  2  0
 28 27  1  0
 28 30  2  0
 29 28  1  0
 30 24  1  0
  1 31  1  0
  2 32  1  0
  3 33  1  0
 10 34  1  0
 10 35  1  0
 11 36  1  0
 11 37  1  0
 12 38  1  0
 12 39  1  0
 13 40  1  0
 13 41  1  0
 19 42  1  0
 19 43  1  0
 22 44  1  0
 26 45  1  0
 27 46  1  0
 30 47  1  0
M  ISO  8  33  14  34  13  35  13  36  13  37  13  38  13  39  13  40  13
M  ISO  6  41  13  42   8  43   8  45  14  46  14  47  14
M  END
>  <minimizedAffinity>  (1) 
-7.11325312

>  <minimizedRMSD>  (1) 
0.58692503

$$$$
