
     RDKit          3D

 38 39  0  0  0  0  0  0  0  0999 V2000
   46.6430   32.1820   47.6290 C   0  0  0  0  0  0  0  0  0  0  0  0
   46.6300   32.7540   45.3600 C   0  0  0  0  0  0  0  0  0  0  0  0
   45.9660   31.8170   44.8800 O   0  0  0  0  0  0  0  0  0  0  0  0
   47.0380   33.0980   46.6460 N   0  0  0  0  0  0  0  0  0  0  0  0
   44.8990   35.1010   44.4620 Cl  0  0  0  0  0  0  0  0  0  0  0  0
   46.2840   34.5780   43.5600 C   0  0  0  0  0  0  0  0  0  0  0  0
   46.9250   33.5090   44.1340 C   0  0  0  0  0  0  0  0  0  0  0  0
   48.0670   32.9560   43.5350 C   0  0  0  0  0  0  0  0  0  0  0  0
   48.5570   33.4960   42.3460 C   0  0  0  0  0  0  0  0  0  0  0  0
   47.8920   34.5770   41.7840 C   0  0  0  0  0  0  0  0  0  0  0  0
   48.4520   35.2990   40.2960 Cl  0  0  0  0  0  0  0  0  0  0  0  0
   46.7660   35.1060   42.3940 C   0  0  0  0  0  0  0  0  0  0  0  0
   48.5820   31.1940   48.7230 C   0  0  0  0  0  0  0  0  0  0  0  0
   47.6170   32.0830   48.7450 C   0  0  0  0  0  0  0  0  0  0  0  0
   51.2040   32.0370   51.1290 C   0  0  0  0  0  0  0  0  0  0  0  0
   51.3410   30.8130   51.8380 C   0  0  0  0  0  0  0  0  0  0  0  0
   50.5470   29.7310   51.4840 C   0  0  0  0  0  0  0  0  0  0  0  0
   49.6870   29.9170   50.4820 N   0  0  0  0  0  0  0  0  0  0  0  0
   49.5570   31.0730   49.8120 C   0  0  0  0  0  0  0  0  0  0  0  0
   50.3130   32.1380   50.1310 N   0  0  0  0  0  0  0  0  0  0  0  0
   52.3390   30.7790   52.9290 C   0  0  0  0  0  0  0  0  0  0  0  0
   50.6360   28.5420   52.1230 O   0  0  0  0  0  0  0  0  0  0  0  0
   51.4680   27.5330   51.5190 C   0  0  0  0  0  0  0  0  0  0  0  0
   52.1470   28.0820   50.4320 F   0  0  0  0  0  0  0  0  0  0  0  0
   52.4110   27.1850   52.4880 F   0  0  0  0  0  0  0  0  0  0  0  0
   50.7570   26.3950   51.1590 F   0  0  0  0  0  0  0  0  0  0  0  0
   46.5384   31.1905   47.1643 H   0  0  0  0  0  0  0  0  0  0  0  0
   45.6906   32.5367   48.0499 H   0  0  0  0  0  0  0  0  0  0  0  0
   47.5806   33.9482   46.8552 H   0  0  0  0  0  0  0  0  0  0  0  0
   48.5745   32.0989   44.0018 H   0  0  0  0  0  0  0  0  0  0  0  0
   49.4513   33.0742   41.8640 H   0  0  0  0  0  0  0  0  0  0  0  0
   46.2523   35.9630   41.9339 H   0  0  0  0  0  0  0  0  0  0  0  0
   48.6623   30.5173   47.8595 H   0  0  0  0  0  0  0  0  0  0  0  0
   47.5284   32.7652   49.6034 H   0  0  0  0  0  0  0  0  0  0  0  0
   51.8284   32.9016   51.3984 H   0  0  0  0  0  0  0  0  0  0  0  0
   51.8218   30.7966   53.8997 H   0  0  0  0  0  0  0  0  0  0  0  0
   52.9381   29.8599   52.8494 H   0  0  0  0  0  0  0  0  0  0  0  0
   52.9993   31.6552   52.8494 H   0  0  0  0  0  0  0  0  0  0  0  0
  1 14  1  0
  2  4  1  0
  3  2  2  0
  4  1  1  0
  6  7  2  0
  6  5  1  0
  7  2  1  0
  8  7  1  0
  9  8  2  0
 10  9  1  0
 10 12  2  0
 11 10  1  0
 12  6  1  0
 13 14  2  0
 13 19  1  0
 15 16  2  0
 16 21  1  0
 17 16  1  0
 17 22  1  0
 18 17  2  0
 19 20  2  0
 19 18  1  0
 20 15  1  0
 23 22  1  0
 23 25  1  0
 24 23  1  0
 26 23  1  0
  1 27  1  0
  1 28  1  0
  4 29  1  0
  8 30  1  0
  9 31  1  0
 12 32  1  0
 13 33  1  0
 14 34  1  0
 15 35  1  0
 21 36  1  0
 21 37  1  0
 21 38  1  0
M  ISO  8  27   8  28   8  30  14  31  14  32  14  35  14  36   8  37   8
M  ISO  1  38   8
M  END
>  <minimizedAffinity>  (1) 
-6.49280405

>  <minimizedRMSD>  (1) 
0.261386603

$$$$
