
     RDKit          3D

 36 37  0  0  0  0  0  0  0  0999 V2000
   46.6230   32.2160   47.6180 C   0  0  0  0  0  0  0  0  0  0  0  0
   46.6270   32.7690   45.3450 C   0  0  0  0  0  0  0  0  0  0  0  0
   45.9900   31.8140   44.8700 O   0  0  0  0  0  0  0  0  0  0  0  0
   47.0120   33.1310   46.6320 N   0  0  0  0  0  0  0  0  0  0  0  0
   44.8910   35.1090   44.4380 Cl  0  0  0  0  0  0  0  0  0  0  0  0
   46.2750   34.5850   43.5360 C   0  0  0  0  0  0  0  0  0  0  0  0
   46.9190   33.5170   44.1150 C   0  0  0  0  0  0  0  0  0  0  0  0
   48.0610   32.9670   43.5150 C   0  0  0  0  0  0  0  0  0  0  0  0
   48.5490   33.5010   42.3260 C   0  0  0  0  0  0  0  0  0  0  0  0
   47.8810   34.5820   41.7580 C   0  0  0  0  0  0  0  0  0  0  0  0
   48.4450   35.2920   40.2710 Cl  0  0  0  0  0  0  0  0  0  0  0  0
   46.7620   35.1080   42.3620 C   0  0  0  0  0  0  0  0  0  0  0  0
   48.5710   31.2590   48.7160 C   0  0  0  0  0  0  0  0  0  0  0  0
   47.6070   32.1480   48.7460 C   0  0  0  0  0  0  0  0  0  0  0  0
   51.2500   32.0810   51.0620 C   0  0  0  0  0  0  0  0  0  0  0  0
   51.3790   30.8770   51.7970 C   0  0  0  0  0  0  0  0  0  0  0  0
   50.5440   29.8070   51.4760 C   0  0  0  0  0  0  0  0  0  0  0  0
   49.6760   29.9980   50.4870 N   0  0  0  0  0  0  0  0  0  0  0  0
   49.5580   31.1450   49.7890 C   0  0  0  0  0  0  0  0  0  0  0  0
   50.3490   32.1930   50.0780 N   0  0  0  0  0  0  0  0  0  0  0  0
   52.3020   30.7250   52.8240 O   0  0  0  0  0  0  0  0  0  0  0  0
   50.5940   28.6130   52.1250 O   0  0  0  0  0  0  0  0  0  0  0  0
   51.4950   27.6270   51.6020 C   0  0  0  0  0  0  0  0  0  0  0  0
   51.9700   28.0580   50.3710 F   0  0  0  0  0  0  0  0  0  0  0  0
   52.5720   27.5670   52.5060 F   0  0  0  0  0  0  0  0  0  0  0  0
   50.9120   26.3700   51.5140 F   0  0  0  0  0  0  0  0  0  0  0  0
   46.5373   31.2187   47.1619 H   0  0  0  0  0  0  0  0  0  0  0  0
   45.6597   32.5518   48.0296 H   0  0  0  0  0  0  0  0  0  0  0  0
   47.5354   33.9933   46.8405 H   0  0  0  0  0  0  0  0  0  0  0  0
   48.5714   32.1131   43.9844 H   0  0  0  0  0  0  0  0  0  0  0  0
   49.4434   33.0778   41.8454 H   0  0  0  0  0  0  0  0  0  0  0  0
   46.2482   35.9622   41.8969 H   0  0  0  0  0  0  0  0  0  0  0  0
   48.6392   30.5770   47.8557 H   0  0  0  0  0  0  0  0  0  0  0  0
   47.5213   32.8410   49.5960 H   0  0  0  0  0  0  0  0  0  0  0  0
   51.8990   32.9358   51.3030 H   0  0  0  0  0  0  0  0  0  0  0  0
   52.3607   29.8666   53.3137 H   0  0  0  0  0  0  0  0  0  0  0  0
  1 14  1  0
  2  4  1  0
  3  2  2  0
  4  1  1  0
  6  7  2  0
  6  5  1  0
  7  2  1  0
  8  7  1  0
  9  8  2  0
 10  9  1  0
 10 12  2  0
 11 10  1  0
 12  6  1  0
 13 14  2  0
 13 19  1  0
 15 16  2  0
 16 21  1  0
 17 16  1  0
 17 22  1  0
 18 17  2  0
 19 20  2  0
 19 18  1  0
 20 15  1  0
 23 22  1  0
 23 25  1  0
 24 23  1  0
 26 23  1  0
  1 27  1  0
  1 28  1  0
  4 29  1  0
  8 30  1  0
  9 31  1  0
 12 32  1  0
 13 33  1  0
 14 34  1  0
 15 35  1  0
 21 36  1  0
M  ISO  7  27   8  28   8  30  14  31  14  32  14  35  14  36   3
M  END
>  <minimizedAffinity>  (1) 
-6.44542789

>  <minimizedRMSD>  (1) 
0.165383592

$$$$
