
     RDKit          3D

 36 37  0  0  0  0  0  0  0  0999 V2000
   46.5640   32.1960   47.6220 C   0  0  0  0  0  0  0  0  0  0  0  0
   46.5680   32.7920   45.3600 C   0  0  0  0  0  0  0  0  0  0  0  0
   45.8860   31.8640   44.8690 O   0  0  0  0  0  0  0  0  0  0  0  0
   46.9690   33.1170   46.6500 N   0  0  0  0  0  0  0  0  0  0  0  0
   44.8640   35.1410   44.4390 Cl  0  0  0  0  0  0  0  0  0  0  0  0
   46.2500   34.6090   43.5500 C   0  0  0  0  0  0  0  0  0  0  0  0
   46.8810   33.5380   44.1330 C   0  0  0  0  0  0  0  0  0  0  0  0
   48.0240   32.9790   43.5480 C   0  0  0  0  0  0  0  0  0  0  0  0
   48.5310   33.5140   42.3610 C   0  0  0  0  0  0  0  0  0  0  0  0
   47.8810   34.5890   41.7940 C   0  0  0  0  0  0  0  0  0  0  0  0
   48.4600   35.3080   40.3050 Cl  0  0  0  0  0  0  0  0  0  0  0  0
   46.7590   35.1260   42.3830 C   0  0  0  0  0  0  0  0  0  0  0  0
   48.5770   31.3100   48.6630 C   0  0  0  0  0  0  0  0  0  0  0  0
   47.5330   32.1020   48.7600 C   0  0  0  0  0  0  0  0  0  0  0  0
   51.1970   32.1130   51.0820 C   0  0  0  0  0  0  0  0  0  0  0  0
   51.3440   30.9000   51.7810 C   0  0  0  0  0  0  0  0  0  0  0  0
   50.5350   29.8180   51.4110 C   0  0  0  0  0  0  0  0  0  0  0  0
   49.6800   30.0250   50.4110 N   0  0  0  0  0  0  0  0  0  0  0  0
   49.5490   31.1860   49.7490 C   0  0  0  0  0  0  0  0  0  0  0  0
   50.3130   32.2480   50.0830 N   0  0  0  0  0  0  0  0  0  0  0  0
   52.5090   30.6780   53.1180 S   0  0  0  0  0  0  0  0  0  0  0  0
   50.5900   28.5960   52.0180 O   0  0  0  0  0  0  0  0  0  0  0  0
   51.3110   27.5720   51.3120 C   0  0  0  0  0  0  0  0  0  0  0  0
   52.2080   28.1680   50.4180 F   0  0  0  0  0  0  0  0  0  0  0  0
   52.0580   26.8670   52.2740 F   0  0  0  0  0  0  0  0  0  0  0  0
   50.4860   26.6810   50.6470 F   0  0  0  0  0  0  0  0  0  0  0  0
   46.4728   31.2051   47.1532 H   0  0  0  0  0  0  0  0  0  0  0  0
   45.6018   32.5401   48.0291 H   0  0  0  0  0  0  0  0  0  0  0  0
   47.5160   33.9613   46.8711 H   0  0  0  0  0  0  0  0  0  0  0  0
   48.5218   32.1203   44.0221 H   0  0  0  0  0  0  0  0  0  0  0  0
   49.4285   33.0869   41.8897 H   0  0  0  0  0  0  0  0  0  0  0  0
   46.2603   35.9852   41.9107 H   0  0  0  0  0  0  0  0  0  0  0  0
   48.7236   30.7259   47.7425 H   0  0  0  0  0  0  0  0  0  0  0  0
   47.3714   32.6935   49.6733 H   0  0  0  0  0  0  0  0  0  0  0  0
   51.8236   32.9724   51.3627 H   0  0  0  0  0  0  0  0  0  0  0  0
   51.8575   30.8022   54.3168 H   0  0  0  0  0  0  0  0  0  0  0  0
  1 14  1  0
  2  4  1  0
  3  2  2  0
  4  1  1  0
  6  7  2  0
  6  5  1  0
  7  2  1  0
  8  7  1  0
  9  8  2  0
 10  9  1  0
 10 12  2  0
 11 10  1  0
 12  6  1  0
 13 14  2  0
 13 19  1  0
 15 16  2  0
 16 21  1  0
 17 16  1  0
 17 22  1  0
 18 17  2  0
 19 20  2  0
 19 18  1  0
 20 15  1  0
 23 22  1  0
 23 25  1  0
 24 23  1  0
 26 23  1  0
  1 27  1  0
  1 28  1  0
  4 29  1  0
  8 30  1  0
  9 31  1  0
 12 32  1  0
 13 33  1  0
 14 34  1  0
 15 35  1  0
 21 36  1  0
M  ISO  7  27   8  28   8  30  14  31  14  32  14  35  14  36  11
M  END
>  <minimizedAffinity>  (1) 
-6.42035055

>  <minimizedRMSD>  (1) 
0.363249451

$$$$
