
     RDKit          3D

 32 34  0  0  0  0  0  0  0  0999 V2000
   46.6590   34.7370   42.1680 C   0  0  0  0  0  0  0  0  0  0  0  0
   47.9230   35.2160   41.9430 C   0  0  0  0  0  0  0  0  0  0  0  0
   48.6340   35.0680   40.7800 C   0  0  0  0  0  0  0  0  0  0  0  0
   48.0390   34.3810   39.7370 C   0  0  0  0  0  0  0  0  0  0  0  0
   46.7790   33.9030   39.9570 C   0  0  0  0  0  0  0  0  0  0  0  0
   46.1630   34.0900   41.1130 N   0  0  0  0  0  0  0  0  0  0  0  0
   44.4230   36.0010   44.9320 C   0  0  0  0  0  0  0  0  0  0  0  0
   45.0560   35.9630   43.6920 C   0  0  0  0  0  0  0  0  0  0  0  0
   45.9290   34.9100   43.4150 C   0  0  0  0  0  0  0  0  0  0  0  0
   46.1160   33.9710   44.3750 N   0  0  0  0  0  0  0  0  0  0  0  0
   45.4830   34.0410   45.5680 C   0  0  0  0  0  0  0  0  0  0  0  0
   44.6490   35.0420   45.8410 N   0  0  0  0  0  0  0  0  0  0  0  0
   46.7070   32.8710   37.7060 C   0  0  0  0  0  0  0  0  0  0  0  0
   46.0930   33.1710   38.9010 C   0  0  0  0  0  0  0  0  0  0  0  0
   44.7930   32.7240   39.0070 C   0  0  0  0  0  0  0  0  0  0  0  0
   44.0940   32.0290   38.0440 C   0  0  0  0  0  0  0  0  0  0  0  0
   44.7430   31.7470   36.8610 C   0  0  0  0  0  0  0  0  0  0  0  0
   46.0270   32.1670   36.7050 C   0  0  0  0  0  0  0  0  0  0  0  0
   48.3550   33.3500   37.3780 S   0  0  0  0  0  0  0  0  0  0  0  0
   48.9440   32.4700   36.2810 O   0  0  0  0  0  0  0  0  0  0  0  0
   48.4580   34.7510   36.8440 O   0  0  0  0  0  0  0  0  0  0  0  0
   48.4076   35.7650   42.7638 H   0  0  0  0  0  0  0  0  0  0  0  0
   49.6476   35.4833   40.6793 H   0  0  0  0  0  0  0  0  0  0  0  0
   48.5554   34.2274   38.7779 H   0  0  0  0  0  0  0  0  0  0  0  0
   43.7323   36.8242   45.1673 H   0  0  0  0  0  0  0  0  0  0  0  0
   44.8712   36.7486   42.9446 H   0  0  0  0  0  0  0  0  0  0  0  0
   45.6596   33.2605   46.3227 H   0  0  0  0  0  0  0  0  0  0  0  0
   44.2651   32.9423   39.9470 H   0  0  0  0  0  0  0  0  0  0  0  0
   43.0548   31.7105   38.2133 H   0  0  0  0  0  0  0  0  0  0  0  0
   44.2325   31.1933   36.0592 H   0  0  0  0  0  0  0  0  0  0  0  0
   46.5482   31.9464   35.7618 H   0  0  0  0  0  0  0  0  0  0  0  0
   49.0136   33.2409   38.5743 H   0  0  0  0  0  0  0  0  0  0  0  0
  1  9  1  0
  2  1  2  0
  3  2  1  0
  4  5  1  0
  4  3  2  0
  5  6  2  0
  6  1  1  0
  7 12  2  0
  8  7  1  0
  9  8  2  0
  9 10  1  0
 10 11  2  0
 11 12  1  0
 13 14  2  0
 14 15  1  0
 14  5  1  0
 16 15  2  0
 17 16  1  0
 18 17  2  0
 18 13  1  0
 19 13  1  0
 20 19  2  0
 21 19  2  0
  2 22  1  0
  3 23  1  0
  4 24  1  0
  7 25  1  0
  8 26  1  0
 11 27  1  0
 15 28  1  0
 16 29  1  0
 17 30  1  0
 18 31  1  0
 19 32  1  0
M  ISO  8  22  14  23  14  24  14  25  14  26  14  27  14  28  14  29  14
M  ISO  3  30  14  31  14  32  11
M  END
>  <minimizedAffinity>  (1) 
-5.65606308

>  <minimizedRMSD>  (1) 
0.540320814

$$$$
