
     RDKit          3D

 35 37  0  0  0  0  0  0  0  0999 V2000
   46.8120   34.8020   42.1410 C   0  0  0  0  0  0  0  0  0  0  0  0
   47.9880   35.5060   41.9100 C   0  0  0  0  0  0  0  0  0  0  0  0
   48.7500   35.4200   40.7720 C   0  0  0  0  0  0  0  0  0  0  0  0
   48.3410   34.5800   39.7690 C   0  0  0  0  0  0  0  0  0  0  0  0
   47.1660   33.8810   40.0050 C   0  0  0  0  0  0  0  0  0  0  0  0
   46.4620   34.0000   41.1300 N   0  0  0  0  0  0  0  0  0  0  0  0
   44.4610   35.9120   44.8690 C   0  0  0  0  0  0  0  0  0  0  0  0
   45.1250   35.9400   43.6300 C   0  0  0  0  0  0  0  0  0  0  0  0
   46.0410   34.9260   43.3620 C   0  0  0  0  0  0  0  0  0  0  0  0
   46.2430   33.9680   44.3080 N   0  0  0  0  0  0  0  0  0  0  0  0
   45.5830   33.9760   45.4900 C   0  0  0  0  0  0  0  0  0  0  0  0
   44.6980   34.9440   45.7660 N   0  0  0  0  0  0  0  0  0  0  0  0
   46.6530   32.9470   38.9630 C   0  0  0  0  0  0  0  0  0  0  0  0
   45.1570   33.0540   38.8530 C   0  0  0  0  0  0  0  0  0  0  0  0
   44.6140   32.5380   37.5540 C   0  0  0  0  0  0  0  0  0  0  0  0
   45.3480   33.0870   36.3600 C   0  0  0  0  0  0  0  0  0  0  0  0
   46.7860   32.6230   36.4770 C   0  0  0  0  0  0  0  0  0  0  0  0
   47.3680   33.2900   37.6860 C   0  0  0  0  0  0  0  0  0  0  0  0
   48.3353   36.1858   42.7020 H   0  0  0  0  0  0  0  0  0  0  0  0
   49.6704   36.0131   40.6668 H   0  0  0  0  0  0  0  0  0  0  0  0
   48.9096   34.4670   38.8342 H   0  0  0  0  0  0  0  0  0  0  0  0
   43.7320   36.7005   45.1074 H   0  0  0  0  0  0  0  0  0  0  0  0
   44.9276   36.7361   42.8970 H   0  0  0  0  0  0  0  0  0  0  0  0
   45.7742   33.1833   46.2283 H   0  0  0  0  0  0  0  0  0  0  0  0
   46.8517   31.8953   39.2169 H   0  0  0  0  0  0  0  0  0  0  0  0
   44.7055   32.4764   39.6730 H   0  0  0  0  0  0  0  0  0  0  0  0
   44.9044   34.1232   38.9072 H   0  0  0  0  0  0  0  0  0  0  0  0
   44.7005   31.4414   37.5469 H   0  0  0  0  0  0  0  0  0  0  0  0
   43.5659   32.8632   37.4788 H   0  0  0  0  0  0  0  0  0  0  0  0
   45.3037   34.1861   36.3610 H   0  0  0  0  0  0  0  0  0  0  0  0
   44.8949   32.7336   35.4220 H   0  0  0  0  0  0  0  0  0  0  0  0
   46.8212   31.5300   36.5956 H   0  0  0  0  0  0  0  0  0  0  0  0
   47.3562   32.8845   35.5734 H   0  0  0  0  0  0  0  0  0  0  0  0
   48.4193   32.9809   37.7819 H   0  0  0  0  0  0  0  0  0  0  0  0
   47.2637   34.3751   37.5384 H   0  0  0  0  0  0  0  0  0  0  0  0
  1  9  1  0
  2  1  2  0
  3  2  1  0
  4  5  1  0
  4  3  2  0
  5  6  2  0
  6  1  1  0
  7 12  2  0
  8  7  1  0
  9  8  2  0
  9 10  1  0
 10 11  2  0
 11 12  1  0
 13  5  1  0
 14 13  1  0
 15 14  1  0
 16 17  1  0
 16 15  1  0
 17 18  1  0
 18 13  1  0
  2 19  1  0
  3 20  1  0
  4 21  1  0
  7 22  1  0
  8 23  1  0
 11 24  1  0
 13 25  1  0
 14 26  1  0
 14 27  1  0
 15 28  1  0
 15 29  1  0
 16 30  1  0
 16 31  1  0
 17 32  1  0
 17 33  1  0
 18 34  1  0
 18 35  1  0
M  ISO  8  19  14  20  14  21  14  22  14  23  14  24  14  25  13  26  13
M  ISO  8  27  13  28  13  29  13  30  13  31  13  32  13  33  13  34  13
M  ISO  1  35  13
M  END
>  <minimizedAffinity>  (1) 
-5.4705081

>  <minimizedRMSD>  (1) 
0.45615229

$$$$
