
     RDKit          3D

 26 28  0  0  0  0  0  0  0  0999 V2000
   46.7800   34.7980   42.0940 C   0  0  0  0  0  0  0  0  0  0  0  0
   48.0020   35.3840   41.8780 C   0  0  0  0  0  0  0  0  0  0  0  0
   48.7430   35.2850   40.7200 C   0  0  0  0  0  0  0  0  0  0  0  0
   48.2320   34.5380   39.6700 C   0  0  0  0  0  0  0  0  0  0  0  0
   47.0140   33.9620   39.9020 C   0  0  0  0  0  0  0  0  0  0  0  0
   46.3370   34.0880   41.0440 N   0  0  0  0  0  0  0  0  0  0  0  0
   44.4630   35.9160   44.8550 C   0  0  0  0  0  0  0  0  0  0  0  0
   45.1130   35.9420   43.6070 C   0  0  0  0  0  0  0  0  0  0  0  0
   46.0240   34.9220   43.3320 C   0  0  0  0  0  0  0  0  0  0  0  0
   46.2330   33.9680   44.2690 N   0  0  0  0  0  0  0  0  0  0  0  0
   45.5880   33.9750   45.4600 C   0  0  0  0  0  0  0  0  0  0  0  0
   44.7100   34.9500   45.7420 N   0  0  0  0  0  0  0  0  0  0  0  0
   46.4260   33.1590   38.8220 C   0  0  0  0  0  0  0  0  0  0  0  0
   46.6690   33.2970   37.4510 C   0  0  0  0  0  0  0  0  0  0  0  0
   45.9340   32.3630   36.7440 C   0  0  0  0  0  0  0  0  0  0  0  0
   45.2690   31.6910   37.7500 C   0  0  0  0  0  0  0  0  0  0  0  0
   45.5710   32.1710   38.9380 O   0  0  0  0  0  0  0  0  0  0  0  0
   48.4256   35.9829   42.6977 H   0  0  0  0  0  0  0  0  0  0  0  0
   49.7176   35.7873   40.6311 H   0  0  0  0  0  0  0  0  0  0  0  0
   48.7686   34.4172   38.7174 H   0  0  0  0  0  0  0  0  0  0  0  0
   43.7387   36.7057   45.1036 H   0  0  0  0  0  0  0  0  0  0  0  0
   44.9101   36.7377   42.8751 H   0  0  0  0  0  0  0  0  0  0  0  0
   45.7838   33.1815   46.1962 H   0  0  0  0  0  0  0  0  0  0  0  0
   47.3452   34.0392   37.0017 H   0  0  0  0  0  0  0  0  0  0  0  0
   45.8904   32.1977   35.6574 H   0  0  0  0  0  0  0  0  0  0  0  0
   44.5723   30.8569   37.5798 H   0  0  0  0  0  0  0  0  0  0  0  0
  1  9  1  0
  2  1  2  0
  3  2  1  0
  4  5  1  0
  4  3  2  0
  5  6  2  0
  6  1  1  0
  7 12  2  0
  8  7  1  0
  9  8  2  0
  9 10  1  0
 10 11  2  0
 11 12  1  0
 13 17  1  0
 13  5  1  0
 14 13  2  0
 15 14  1  0
 15 16  2  0
 16 17  1  0
  2 18  1  0
  3 19  1  0
  4 20  1  0
  7 21  1  0
  8 22  1  0
 11 23  1  0
 14 24  1  0
 15 25  1  0
 16 26  1  0
M  ISO  8  18  14  19  14  20  14  21  14  22  14  23  14  24  14  25  14
M  ISO  1  26  14
M  END
>  <minimizedAffinity>  (1) 
-5.2693944

>  <minimizedRMSD>  (1) 
0.395908326

$$$$
