
     RDKit          3D

 22 23  0  0  0  0  0  0  0  0999 V2000
   46.7110   34.7610   42.0970 C   0  0  0  0  0  0  0  0  0  0  0  0
   47.9320   35.3430   41.8640 C   0  0  0  0  0  0  0  0  0  0  0  0
   48.6640   35.2310   40.7100 C   0  0  0  0  0  0  0  0  0  0  0  0
   48.1620   34.4780   39.6820 C   0  0  0  0  0  0  0  0  0  0  0  0
   46.9320   33.8910   39.9210 C   0  0  0  0  0  0  0  0  0  0  0  0
   46.2450   34.0250   41.0630 N   0  0  0  0  0  0  0  0  0  0  0  0
   44.4500   35.9520   44.8810 C   0  0  0  0  0  0  0  0  0  0  0  0
   45.0890   35.9350   43.6360 C   0  0  0  0  0  0  0  0  0  0  0  0
   45.9730   34.9130   43.3440 C   0  0  0  0  0  0  0  0  0  0  0  0
   46.1700   33.9790   44.2920 N   0  0  0  0  0  0  0  0  0  0  0  0
   45.5610   33.9900   45.4860 C   0  0  0  0  0  0  0  0  0  0  0  0
   44.7000   34.9800   45.7770 N   0  0  0  0  0  0  0  0  0  0  0  0
   46.3340   33.0560   38.8330 C   0  0  0  0  0  0  0  0  0  0  0  0
   48.3606   35.9522   42.6734 H   0  0  0  0  0  0  0  0  0  0  0  0
   49.6361   35.7364   40.6117 H   0  0  0  0  0  0  0  0  0  0  0  0
   48.6999   34.3487   38.7313 H   0  0  0  0  0  0  0  0  0  0  0  0
   43.7442   36.7591   45.1267 H   0  0  0  0  0  0  0  0  0  0  0  0
   44.8901   36.7260   42.8980 H   0  0  0  0  0  0  0  0  0  0  0  0
   45.7639   33.1966   46.2204 H   0  0  0  0  0  0  0  0  0  0  0  0
   45.7483   32.2382   39.2783 H   0  0  0  0  0  0  0  0  0  0  0  0
   45.6768   33.6809   38.2104 H   0  0  0  0  0  0  0  0  0  0  0  0
   47.1372   32.6350   38.2104 H   0  0  0  0  0  0  0  0  0  0  0  0
  1  9  1  0
  2  1  2  0
  3  2  1  0
  4  5  1  0
  4  3  2  0
  5  6  2  0
  6  1  1  0
  7 12  2  0
  8  7  1  0
  9  8  2  0
  9 10  1  0
 10 11  2  0
 11 12  1  0
 13  5  1  0
  2 14  1  0
  3 15  1  0
  4 16  1  0
  7 17  1  0
  8 18  1  0
 11 19  1  0
 13 20  1  0
 13 21  1  0
 13 22  1  0
M  ISO  8  14  14  15  14  16  14  17  14  18  14  19  14  20   8  21   8
M  ISO  1  22   8
M  END
>  <minimizedAffinity>  (1) 
-4.91794157

>  <minimizedRMSD>  (1) 
0.0312755331

$$$$
