
     RDKit          3D

 36 39  0  0  1  0  0  0  0  0999 V2000
   46.7810   34.8270   42.1310 C   0  0  0  0  0  0  0  0  0  0  0  0
   47.9890   35.4810   41.9340 C   0  0  0  0  0  0  0  0  0  0  0  0
   48.7480   35.3960   40.7910 C   0  0  0  0  0  0  0  0  0  0  0  0
   48.3010   34.6130   39.7530 C   0  0  0  0  0  0  0  0  0  0  0  0
   47.1010   33.9730   39.9690 C   0  0  0  0  0  0  0  0  0  0  0  0
   46.3930   34.0790   41.0900 N   0  0  0  0  0  0  0  0  0  0  0  0
   44.4520   35.9270   44.8830 C   0  0  0  0  0  0  0  0  0  0  0  0
   45.1090   35.9620   43.6330 C   0  0  0  0  0  0  0  0  0  0  0  0
   46.0130   34.9500   43.3650 C   0  0  0  0  0  0  0  0  0  0  0  0
   46.2210   33.9870   44.3010 N   0  0  0  0  0  0  0  0  0  0  0  0
   45.5710   33.9830   45.4960 C   0  0  0  0  0  0  0  0  0  0  0  0
   44.6910   34.9690   45.7560 N   0  0  0  0  0  0  0  0  0  0  0  0
   46.5800   33.1120   38.8630 C   0  0  2  0  0  0  0  0  0  0  0  0
   46.9130   31.6490   38.9860 C   0  0  0  0  0  0  0  0  0  0  0  0
   47.5260   32.5300   37.9260 C   0  0  1  0  0  0  0  0  0  0  0  0
   49.4650   32.1070   36.0340 F   0  0  0  0  0  0  0  0  0  0  0  0
   48.1570   32.1610   35.6630 C   0  0  0  0  0  0  0  0  0  0  0  0
   47.0780   32.3680   36.5160 C   0  0  0  0  0  0  0  0  0  0  0  0
   45.7920   32.4030   36.0180 C   0  0  0  0  0  0  0  0  0  0  0  0
   45.5780   32.2300   34.6670 C   0  0  0  0  0  0  0  0  0  0  0  0
   46.6590   32.0250   33.8350 C   0  0  0  0  0  0  0  0  0  0  0  0
   47.9690   31.9820   34.2870 C   0  0  0  0  0  0  0  0  0  0  0  0
   48.3664   36.1130   42.7514 H   0  0  0  0  0  0  0  0  0  0  0  0
   49.6974   35.9454   40.7082 H   0  0  0  0  0  0  0  0  0  0  0  0
   48.8636   34.5051   38.8139 H   0  0  0  0  0  0  0  0  0  0  0  0
   43.7264   36.7151   45.1328 H   0  0  0  0  0  0  0  0  0  0  0  0
   44.9100   36.7607   42.9033 H   0  0  0  0  0  0  0  0  0  0  0  0
   45.7603   33.1905   46.2350 H   0  0  0  0  0  0  0  0  0  0  0  0
   45.6655   33.7088   38.7307 H   0  0  0  0  0  0  0  0  0  0  0  0
   47.5212   31.2856   39.8275 H   0  0  0  0  0  0  0  0  0  0  0  0
   46.3456   30.7068   39.0009 H   0  0  0  0  0  0  0  0  0  0  0  0
   48.5594   32.7524   37.6216 H   0  0  0  0  0  0  0  0  0  0  0  0
   44.9413   32.5681   36.6956 H   0  0  0  0  0  0  0  0  0  0  0  0
   44.5574   32.2552   34.2575 H   0  0  0  0  0  0  0  0  0  0  0  0
   46.4724   31.8889   32.7595 H   0  0  0  0  0  0  0  0  0  0  0  0
   48.8140   31.8164   33.6025 H   0  0  0  0  0  0  0  0  0  0  0  0
  1  9  1  0
  2  1  2  0
  3  2  1  0
  4  5  1  0
  4  3  2  0
  5  6  2  0
  6  1  1  0
  7 12  2  0
  8  7  1  0
  9  8  2  0
  9 10  1  0
 10 11  2  0
 11 12  1  0
 13 14  1  0
 13  5  1  0
 15 13  1  0
 15 14  1  0
 17 16  1  0
 17 18  2  0
 18 15  1  0
 19 18  1  0
 20 19  2  0
 21 22  2  0
 21 20  1  0
 22 17  1  0
  2 23  1  0
  3 24  1  0
  4 25  1  0
  7 26  1  0
  8 27  1  0
 11 28  1  0
 13 29  1  6
 14 30  1  0
 14 31  1  0
 15 32  1  6
 19 33  1  0
 20 34  1  0
 21 35  1  0
 22 36  1  0
M  ISO  8  23  14  24  14  25  14  26  14  27  14  28  14  29  13  30  13
M  ISO  6  31  13  32  13  33  14  34  14  35  14  36  14
M  END
>  <minimizedAffinity>  (1) 
-5.91820621

>  <minimizedRMSD>  (1) 
1.61005175

$$$$
