
     RDKit          3D

 28 30  0  0  1  0  0  0  0  0999 V2000
   46.7180   34.7670   42.0590 C   0  0  0  0  0  0  0  0  0  0  0  0
   47.9620   35.3230   41.8550 C   0  0  0  0  0  0  0  0  0  0  0  0
   48.7020   35.2180   40.7000 C   0  0  0  0  0  0  0  0  0  0  0  0
   48.1610   34.4950   39.6450 C   0  0  0  0  0  0  0  0  0  0  0  0
   46.9170   33.9500   39.8750 C   0  0  0  0  0  0  0  0  0  0  0  0
   46.2460   34.0840   41.0140 N   0  0  0  0  0  0  0  0  0  0  0  0
   44.4620   35.9440   44.8440 C   0  0  0  0  0  0  0  0  0  0  0  0
   45.0920   35.9460   43.5950 C   0  0  0  0  0  0  0  0  0  0  0  0
   45.9800   34.9140   43.3100 C   0  0  0  0  0  0  0  0  0  0  0  0
   46.1900   33.9660   44.2460 N   0  0  0  0  0  0  0  0  0  0  0  0
   45.5610   33.9950   45.4510 C   0  0  0  0  0  0  0  0  0  0  0  0
   44.7070   34.9810   45.7330 N   0  0  0  0  0  0  0  0  0  0  0  0
   46.3170   33.1700   38.7550 C   0  0  2  0  0  0  0  0  0  0  0  0
   47.2150   32.1510   38.1220 C   0  0  0  0  0  0  0  0  0  0  0  0
   46.7870   33.3900   37.3900 C   0  0  1  0  0  0  0  0  0  0  0  0
   45.7650   33.3060   36.3540 N   0  0  0  0  0  0  0  0  0  0  0  0
   48.3996   35.8984   42.6841 H   0  0  0  0  0  0  0  0  0  0  0  0
   49.6911   35.6918   40.6149 H   0  0  0  0  0  0  0  0  0  0  0  0
   48.6905   34.3661   38.6895 H   0  0  0  0  0  0  0  0  0  0  0  0
   43.7548   36.7479   45.0961 H   0  0  0  0  0  0  0  0  0  0  0  0
   44.8912   36.7398   42.8604 H   0  0  0  0  0  0  0  0  0  0  0  0
   45.7558   33.2065   46.1928 H   0  0  0  0  0  0  0  0  0  0  0  0
   45.3168   33.1747   39.2129 H   0  0  0  0  0  0  0  0  0  0  0  0
   48.2548   32.0395   38.4632 H   0  0  0  0  0  0  0  0  0  0  0  0
   47.1680   31.0684   37.9330 H   0  0  0  0  0  0  0  0  0  0  0  0
   47.3446   34.1710   36.8523 H   0  0  0  0  0  0  0  0  0  0  0  0
   44.8364   33.2297   36.7931 H   0  0  0  0  0  0  0  0  0  0  0  0
   45.7993   34.1526   35.7684 H   0  0  0  0  0  0  0  0  0  0  0  0
  1  9  1  0
  2  1  2  0
  3  2  1  0
  4  5  1  0
  4  3  2  0
  5  6  2  0
  6  1  1  0
  7 12  2  0
  8  7  1  0
  9  8  2  0
  9 10  1  0
 10 11  2  0
 11 12  1  0
 13  5  1  0
 14 13  1  0
 15 14  1  0
 15 13  1  0
 16 15  1  0
  2 17  1  0
  3 18  1  0
  4 19  1  0
  7 20  1  0
  8 21  1  0
 11 22  1  0
 13 23  1  6
 14 24  1  0
 14 25  1  0
 15 26  1  1
 16 27  1  0
 16 28  1  0
M  ISO  8  17  14  18  14  19  14  20  14  21  14  22  14  23  13  24  13
M  ISO  4  25  13  26  13  27   5  28   5
M  END
>  <minimizedAffinity>  (1) 
-5.44484854

>  <minimizedRMSD>  (1) 
0.0680920929

$$$$
