
     RDKit          3D

 29 31  0  0  1  0  0  0  0  0999 V2000
   46.6910   34.7630   42.1060 C   0  0  0  0  0  0  0  0  0  0  0  0
   47.9330   35.3220   41.8820 C   0  0  0  0  0  0  0  0  0  0  0  0
   48.6650   35.2060   40.7270 C   0  0  0  0  0  0  0  0  0  0  0  0
   48.1280   34.4740   39.6920 C   0  0  0  0  0  0  0  0  0  0  0  0
   46.9000   33.9290   39.9280 C   0  0  0  0  0  0  0  0  0  0  0  0
   46.2190   34.0630   41.0610 N   0  0  0  0  0  0  0  0  0  0  0  0
   44.4520   35.9440   44.8950 C   0  0  0  0  0  0  0  0  0  0  0  0
   45.0790   35.9440   43.6370 C   0  0  0  0  0  0  0  0  0  0  0  0
   45.9550   34.9190   43.3570 C   0  0  0  0  0  0  0  0  0  0  0  0
   46.1630   33.9800   44.2980 N   0  0  0  0  0  0  0  0  0  0  0  0
   45.5530   33.9920   45.5050 C   0  0  0  0  0  0  0  0  0  0  0  0
   44.6960   34.9920   45.7790 N   0  0  0  0  0  0  0  0  0  0  0  0
   46.2930   33.1270   38.8150 C   0  0  2  0  0  0  0  0  0  0  0  0
   46.6000   31.6540   38.8490 C   0  0  0  0  0  0  0  0  0  0  0  0
   47.1480   32.5610   37.7880 C   0  0  1  0  0  0  0  0  0  0  0  0
   46.5490   32.3960   36.3980 C   0  0  0  0  0  0  0  0  0  0  0  0
   47.5380   32.7260   35.4770 F   0  0  0  0  0  0  0  0  0  0  0  0
   45.4780   33.2900   36.2600 F   0  0  0  0  0  0  0  0  0  0  0  0
   46.1230   31.1050   36.2240 F   0  0  0  0  0  0  0  0  0  0  0  0
   48.3740   35.9111   42.6996 H   0  0  0  0  0  0  0  0  0  0  0  0
   49.6513   35.6836   40.6310 H   0  0  0  0  0  0  0  0  0  0  0  0
   48.6552   34.3374   38.7363 H   0  0  0  0  0  0  0  0  0  0  0  0
   43.7468   36.7494   45.1480 H   0  0  0  0  0  0  0  0  0  0  0  0
   44.8768   36.7361   42.9010 H   0  0  0  0  0  0  0  0  0  0  0  0
   45.7529   33.2030   46.2449 H   0  0  0  0  0  0  0  0  0  0  0  0
   45.3910   33.7551   38.7722 H   0  0  0  0  0  0  0  0  0  0  0  0
   47.2622   31.2417   39.6246 H   0  0  0  0  0  0  0  0  0  0  0  0
   46.0127   30.7241   38.8683 H   0  0  0  0  0  0  0  0  0  0  0  0
   48.1537   32.8021   37.4133 H   0  0  0  0  0  0  0  0  0  0  0  0
  1  9  1  0
  2  1  2  0
  3  2  1  0
  4  5  1  0
  4  3  2  0
  5  6  2  0
  6  1  1  0
  7 12  2  0
  8  7  1  0
  9  8  2  0
  9 10  1  0
 10 11  2  0
 11 12  1  0
 13 14  1  0
 13  5  1  0
 15 13  1  0
 15 14  1  0
 16 15  1  0
 17 16  1  0
 18 16  1  0
 19 16  1  0
  2 20  1  0
  3 21  1  0
  4 22  1  0
  7 23  1  0
  8 24  1  0
 11 25  1  0
 13 26  1  6
 14 27  1  0
 14 28  1  0
 15 29  1  6
M  ISO  8  20  14  21  14  22  14  23  14  24  14  25  14  26  13  27  13
M  ISO  2  28  13  29  13
M  END
>  <minimizedAffinity>  (1) 
-5.372087

>  <minimizedRMSD>  (1) 
0.66955936

$$$$
