
     RDKit          3D

 33 36  0  0  1  0  0  0  0  0999 V2000
   46.6670   34.7310   42.0940 C   0  0  0  0  0  0  0  0  0  0  0  0
   47.8820   35.3420   41.8310 C   0  0  0  0  0  0  0  0  0  0  0  0
   48.6010   35.2060   40.6680 C   0  0  0  0  0  0  0  0  0  0  0  0
   48.0920   34.4000   39.6640 C   0  0  0  0  0  0  0  0  0  0  0  0
   46.8980   33.8090   39.9430 C   0  0  0  0  0  0  0  0  0  0  0  0
   46.2290   33.9680   41.0910 N   0  0  0  0  0  0  0  0  0  0  0  0
   44.4540   35.9780   44.8740 C   0  0  0  0  0  0  0  0  0  0  0  0
   45.0780   35.9490   43.6160 C   0  0  0  0  0  0  0  0  0  0  0  0
   45.9460   34.9060   43.3370 C   0  0  0  0  0  0  0  0  0  0  0  0
   46.1530   33.9590   44.2910 N   0  0  0  0  0  0  0  0  0  0  0  0
   45.5280   34.0220   45.5010 C   0  0  0  0  0  0  0  0  0  0  0  0
   44.6920   35.0280   45.7680 N   0  0  0  0  0  0  0  0  0  0  0  0
   46.3180   32.9350   38.8870 C   0  0  2  0  0  0  0  0  0  0  0  0
   47.2970   32.0850   38.1320 C   0  0  0  0  0  0  0  0  0  0  0  0
   46.5730   33.2350   37.4730 C   0  0  1  0  0  0  0  0  0  0  0  0
   45.4740   32.9820   36.4840 C   0  0  0  0  0  0  0  0  0  0  0  0
   45.7830   32.2930   35.1910 C   0  0  0  0  0  0  0  0  0  0  0  0
   44.9300   31.6260   36.2200 C   0  0  0  0  0  0  0  0  0  0  0  0
   48.3047   35.9872   42.6153 H   0  0  0  0  0  0  0  0  0  0  0  0
   49.5611   35.7267   40.5374 H   0  0  0  0  0  0  0  0  0  0  0  0
   48.6154   34.2480   38.7085 H   0  0  0  0  0  0  0  0  0  0  0  0
   43.7614   36.7964   45.1199 H   0  0  0  0  0  0  0  0  0  0  0  0
   44.8824   36.7345   42.8712 H   0  0  0  0  0  0  0  0  0  0  0  0
   45.7125   33.2444   46.2568 H   0  0  0  0  0  0  0  0  0  0  0  0
   45.3955   32.7643   39.4614 H   0  0  0  0  0  0  0  0  0  0  0  0
   48.3737   32.1569   38.3453 H   0  0  0  0  0  0  0  0  0  0  0  0
   47.4151   31.0100   37.9308 H   0  0  0  0  0  0  0  0  0  0  0  0
   46.9037   34.1136   36.8997 H   0  0  0  0  0  0  0  0  0  0  0  0
   45.0200   33.9371   36.7868 H   0  0  0  0  0  0  0  0  0  0  0  0
   46.7995   31.9223   34.9930 H   0  0  0  0  0  0  0  0  0  0  0  0
   45.6691   32.5439   34.1261 H   0  0  0  0  0  0  0  0  0  0  0  0
   43.8535   31.4922   36.0379 H   0  0  0  0  0  0  0  0  0  0  0  0
   44.9621   30.6611   36.7473 H   0  0  0  0  0  0  0  0  0  0  0  0
  1  9  1  0
  2  1  2  0
  3  2  1  0
  4  5  1  0
  4  3  2  0
  5  6  2  0
  6  1  1  0
  7 12  2  0
  8  7  1  0
  9  8  2  0
  9 10  1  0
 10 11  2  0
 11 12  1  0
 13  5  1  0
 14 13  1  0
 15 14  1  0
 15 13  1  0
 16 15  1  0
 17 18  1  0
 17 16  1  0
 18 16  1  0
  2 19  1  0
  3 20  1  0
  4 21  1  0
  7 22  1  0
  8 23  1  0
 11 24  1  0
 13 25  1  6
 14 26  1  0
 14 27  1  0
 15 28  1  1
 16 29  1  0
 17 30  1  0
 17 31  1  0
 18 32  1  0
 18 33  1  0
M  ISO  8  19  14  20  14  21  14  22  14  23  14  24  14  25  13  26  13
M  ISO  7  27  13  28  13  29  13  30  13  31  13  32  13  33  13
M  END
>  <minimizedAffinity>  (1) 
-5.3038888

>  <minimizedRMSD>  (1) 
0.415179938

$$$$
