
     RDKit          3D

 45 48  0  0  1  0  0  0  0  0999 V2000
   46.2530   32.6350   38.7650 C   0  0  2  0  0  0  0  0  0  0  0  0
   47.1860   31.7460   38.0440 C   0  0  0  0  0  0  0  0  0  0  0  0
   46.4300   32.8780   37.3440 C   0  0  1  0  0  0  0  0  0  0  0  0
   46.6480   34.6390   41.8320 C   0  0  0  0  0  0  0  0  0  0  0  0
   47.8490   35.2390   41.5070 C   0  0  0  0  0  0  0  0  0  0  0  0
   48.5510   35.0300   40.3390 C   0  0  0  0  0  0  0  0  0  0  0  0
   48.0110   34.1500   39.4210 C   0  0  0  0  0  0  0  0  0  0  0  0
   46.8220   33.5670   39.7630 C   0  0  0  0  0  0  0  0  0  0  0  0
   46.1870   33.8010   40.8970 N   0  0  0  0  0  0  0  0  0  0  0  0
   44.5450   36.0860   44.6050 C   0  0  0  0  0  0  0  0  0  0  0  0
   45.1460   35.9940   43.3400 C   0  0  0  0  0  0  0  0  0  0  0  0
   45.9450   34.8950   43.0910 C   0  0  0  0  0  0  0  0  0  0  0  0
   46.1100   33.9690   44.0630 N   0  0  0  0  0  0  0  0  0  0  0  0
   45.5060   34.0950   45.2820 C   0  0  0  0  0  0  0  0  0  0  0  0
   44.7360   35.1500   45.5290 N   0  0  0  0  0  0  0  0  0  0  0  0
   45.4510   32.4740   36.4230 O   0  0  0  0  0  0  0  0  0  0  0  0
   46.0720   30.6720   34.7220 O   0  0  0  0  0  0  0  0  0  0  0  0
   46.0700   32.1990   34.8820 P   0  0  1  0  0  0  0  0  0  0  0  0
   45.0450   32.8090   33.7100 O   0  0  0  0  0  0  0  0  0  0  0  0
   47.6730   32.6660   34.6850 O   0  0  0  0  0  0  0  0  0  0  0  0
   49.7570   32.2230   33.6860 N   0  0  0  0  0  0  0  0  0  0  0  0
   48.4360   31.7160   34.0030 C   0  0  2  0  0  0  0  0  0  0  0  0
   47.7940   31.3120   32.7000 C   0  0  0  0  0  0  0  0  0  0  0  0
   48.6860   31.3900   31.6270 O   0  0  0  0  0  0  0  0  0  0  0  0
   49.1820   32.6670   31.4230 C   0  0  0  0  0  0  0  0  0  0  0  0
   49.6520   33.3040   32.7280 C   0  0  0  0  0  0  0  0  0  0  0  0
   45.3589   32.4816   39.3871 H   0  0  0  0  0  0  0  0  0  0  0  0
   48.2702   31.8227   38.2133 H   0  0  0  0  0  0  0  0  0  0  0  0
   47.2937   30.6606   37.9018 H   0  0  0  0  0  0  0  0  0  0  0  0
   46.6747   33.7762   36.7580 H   0  0  0  0  0  0  0  0  0  0  0  0
   48.2795   35.9391   42.2381 H   0  0  0  0  0  0  0  0  0  0  0  0
   49.5041   35.5440   40.1455 H   0  0  0  0  0  0  0  0  0  0  0  0
   48.5106   33.9300   38.4660 H   0  0  0  0  0  0  0  0  0  0  0  0
   43.9036   36.9493   44.8361 H   0  0  0  0  0  0  0  0  0  0  0  0
   44.9867   36.7684   42.5752 H   0  0  0  0  0  0  0  0  0  0  0  0
   45.6562   33.3272   46.0552 H   0  0  0  0  0  0  0  0  0  0  0  0
   44.2806   33.2639   34.1445 H   0  0  0  0  0  0  0  0  0  0  0  0
   50.2050   32.5707   34.5458 H   0  0  0  0  0  0  0  0  0  0  0  0
   48.5055   30.8504   34.6782 H   0  0  0  0  0  0  0  0  0  0  0  0
   47.4349   30.2760   32.7879 H   0  0  0  0  0  0  0  0  0  0  0  0
   46.9647   32.0069   32.5017 H   0  0  0  0  0  0  0  0  0  0  0  0
   50.0316   32.6126   30.7264 H   0  0  0  0  0  0  0  0  0  0  0  0
   48.3732   33.2876   31.0097 H   0  0  0  0  0  0  0  0  0  0  0  0
   50.6307   33.7859   32.5871 H   0  0  0  0  0  0  0  0  0  0  0  0
   48.9523   34.0800   33.0719 H   0  0  0  0  0  0  0  0  0  0  0  0
  1  8  1  0
  2  1  1  0
  3  2  1  0
  3  1  1  0
  4 12  1  0
  5  4  2  0
  6  5  1  0
  7  8  1  0
  7  6  2  0
  8  9  2  0
  9  4  1  0
 10 15  2  0
 11 10  1  0
 12 11  2  0
 12 13  1  0
 13 14  2  0
 14 15  1  0
 16  3  1  0
 18 17  2  0
 18 16  1  0
 19 18  1  0
 20 18  1  0
 21 22  1  0
 22 20  1  0
 23 22  1  0
 24 23  1  0
 25 24  1  0
 25 26  1  0
 26 21  1  0
  1 27  1  6
  2 28  1  0
  2 29  1  0
  3 30  1  1
  5 31  1  0
  6 32  1  0
  7 33  1  0
 10 34  1  0
 11 35  1  0
 14 36  1  0
 19 37  1  0
 21 38  1  0
 22 39  1  1
 23 40  1  0
 23 41  1  0
 25 42  1  0
 25 43  1  0
 26 44  1  0
 26 45  1  0
M  ISO  8  27  13  28  13  29  13  30  13  31  14  32  14  33  14  34  14
M  ISO  8  35  14  36  14  37   3  38   5  39  13  40  13  41  13  42  13
M  ISO  3  43  13  44  13  45  13
M  END
>  <minimizedAffinity>  (1) 
-6.90076542

>  <minimizedRMSD>  (1) 
1.25727415

$$$$
