
     RDKit          3D

 48 52  0  0  1  0  0  0  0  0999 V2000
   46.4610   32.6530   45.0520 C   0  0  0  0  0  0  0  0  0  0  0  0
   46.1370   32.3220   46.3660 C   0  0  0  0  0  0  0  0  0  0  0  0
   45.3250   33.1130   47.1850 C   0  0  0  0  0  0  0  0  0  0  0  0
   44.8010   34.2870   46.7010 C   0  0  0  0  0  0  0  0  0  0  0  0
   45.1020   34.6400   45.4070 C   0  0  0  0  0  0  0  0  0  0  0  0
   44.5850   35.8240   44.9220 C   0  0  0  0  0  0  0  0  0  0  0  0
   44.8560   36.2440   43.6290 C   0  0  0  0  0  0  0  0  0  0  0  0
   45.6560   35.4290   42.8630 C   0  0  0  0  0  0  0  0  0  0  0  0
   46.1620   34.2550   43.3590 C   0  0  0  0  0  0  0  0  0  0  0  0
   45.9050   33.8330   44.6310 C   0  0  0  0  0  0  0  0  0  0  0  0
   46.8290   34.2430   40.9440 C   0  0  1  0  0  0  0  0  0  0  0  0
   46.9690   33.5390   42.3270 C   0  0  1  0  0  0  0  0  0  0  0  0
   48.3060   33.6380   42.4910 O   0  0  0  0  0  0  0  0  0  0  0  0
   48.8120   34.8140   42.0530 C   0  0  0  0  0  0  0  0  0  0  0  0
   48.1010   34.9870   40.7500 C   0  0  1  0  0  0  0  0  0  0  0  0
   46.7250   33.3290   39.8980 O   0  0  0  0  0  0  0  0  0  0  0  0
   48.8960   34.3990   39.7350 O   0  0  0  0  0  0  0  0  0  0  0  0
   47.2760   31.7940   44.3290 N   0  0  0  0  0  0  0  0  0  0  0  0
   48.8930   29.8760   44.7470 C   0  0  1  0  0  0  0  0  0  0  0  0
   47.8490   29.3820   43.7690 C   0  0  0  0  0  0  0  0  0  0  0  0
   47.5740   30.4560   44.8030 C   0  0  2  0  0  0  0  0  0  0  0  0
   50.5330   27.0230   46.4430 C   0  0  0  0  0  0  0  0  0  0  0  0
   50.1560   27.2480   47.8030 C   0  0  0  0  0  0  0  0  0  0  0  0
   49.3590   28.3820   48.1030 C   0  0  0  0  0  0  0  0  0  0  0  0
   48.9960   29.1870   47.1020 N   0  0  0  0  0  0  0  0  0  0  0  0
   49.3680   28.9520   45.8180 C   0  0  0  0  0  0  0  0  0  0  0  0
   50.1420   27.8650   45.4780 N   0  0  0  0  0  0  0  0  0  0  0  0
   46.5419   31.3876   46.7819 H   0  0  0  0  0  0  0  0  0  0  0  0
   45.1062   32.7956   48.2152 H   0  0  0  0  0  0  0  0  0  0  0  0
   44.1610   34.9243   47.3289 H   0  0  0  0  0  0  0  0  0  0  0  0
   43.9485   36.4436   45.5709 H   0  0  0  0  0  0  0  0  0  0  0  0
   44.4495   37.1866   43.2336 H   0  0  0  0  0  0  0  0  0  0  0  0
   45.8950   35.7250   41.8309 H   0  0  0  0  0  0  0  0  0  0  0  0
   45.9267   34.8722   40.9376 H   0  0  0  0  0  0  0  0  0  0  0  0
   46.5993   32.5059   42.4040 H   0  0  0  0  0  0  0  0  0  0  0  0
   48.5790   35.6339   42.7483 H   0  0  0  0  0  0  0  0  0  0  0  0
   49.9086   34.8222   41.9664 H   0  0  0  0  0  0  0  0  0  0  0  0
   47.9176   36.0321   40.4600 H   0  0  0  0  0  0  0  0  0  0  0  0
   46.6211   32.4161   40.2666 H   0  0  0  0  0  0  0  0  0  0  0  0
   49.6187   33.8645   40.1500 H   0  0  0  0  0  0  0  0  0  0  0  0
   47.6782   32.1134   43.4362 H   0  0  0  0  0  0  0  0  0  0  0  0
   49.9031   30.3028   44.6603 H   0  0  0  0  0  0  0  0  0  0  0  0
   47.9177   29.6388   42.7016 H   0  0  0  0  0  0  0  0  0  0  0  0
   47.4118   28.4106   43.4949 H   0  0  0  0  0  0  0  0  0  0  0  0
   46.8681   30.6051   45.6333 H   0  0  0  0  0  0  0  0  0  0  0  0
   51.1504   26.1495   46.1864 H   0  0  0  0  0  0  0  0  0  0  0  0
   50.4763   26.5583   48.5978 H   0  0  0  0  0  0  0  0  0  0  0  0
   49.0472   28.5933   49.1365 H   0  0  0  0  0  0  0  0  0  0  0  0
  1  2  2  0
  2  3  1  0
  4  3  2  0
  5  4  1  0
  6  5  2  0
  7  6  1  0
  8  9  1  0
  8  7  2  0
  9 10  2  0
 10  1  1  0
 10  5  1  0
 11 16  1  0
 11 12  1  0
 12 13  1  0
 12  9  1  0
 14 13  1  0
 15 17  1  0
 15 11  1  0
 15 14  1  0
 18 21  1  0
 18  1  1  0
 19 21  1  0
 19 26  1  0
 20 19  1  0
 20 21  1  0
 22 23  2  0
 23 24  1  0
 25 24  2  0
 26 25  1  0
 27 26  2  0
 27 22  1  0
  2 28  1  0
  3 29  1  0
  4 30  1  0
  6 31  1  0
  7 32  1  0
  8 33  1  0
 11 34  1  1
 12 35  1  6
 14 36  1  0
 14 37  1  0
 15 38  1  6
 16 39  1  0
 17 40  1  0
 18 41  1  0
 19 42  1  6
 20 43  1  0
 20 44  1  0
 21 45  1  1
 22 46  1  0
 23 47  1  0
 24 48  1  0
M  ISO  8  28  14  29  14  30  14  31  14  32  14  33  14  34  13  35  13
M  ISO  8  36  13  37  13  38  13  39   3  40   3  42  13  43  13  44  13
M  ISO  4  45  13  46  14  47  14  48  14
M  END
>  <minimizedAffinity>  (1) 
-5.45599127

>  <minimizedRMSD>  (1) 
3.5874126

$$$$
