
     RDKit          3D

 39 42  0  0  1  0  0  0  0  0999 V2000
   46.0480   32.5270   38.7010 C   0  0  2  0  0  0  0  0  0  0  0  0
   46.9300   31.5360   38.0380 C   0  0  0  0  0  0  0  0  0  0  0  0
   46.2640   32.6830   37.2740 C   0  0  1  0  0  0  0  0  0  0  0  0
   46.5540   34.5730   41.7160 C   0  0  0  0  0  0  0  0  0  0  0  0
   47.7750   35.1370   41.3550 C   0  0  0  0  0  0  0  0  0  0  0  0
   48.4450   34.8830   40.1760 C   0  0  0  0  0  0  0  0  0  0  0  0
   47.8640   34.0010   39.2810 C   0  0  0  0  0  0  0  0  0  0  0  0
   46.6650   33.4610   39.6600 C   0  0  0  0  0  0  0  0  0  0  0  0
   46.0600   33.7370   40.8060 N   0  0  0  0  0  0  0  0  0  0  0  0
   44.5910   36.1710   44.4980 C   0  0  0  0  0  0  0  0  0  0  0  0
   45.1630   36.0300   43.2290 C   0  0  0  0  0  0  0  0  0  0  0  0
   45.8920   34.8800   42.9810 C   0  0  0  0  0  0  0  0  0  0  0  0
   46.0220   33.9540   43.9540 N   0  0  0  0  0  0  0  0  0  0  0  0
   45.4480   34.1340   45.1770 C   0  0  0  0  0  0  0  0  0  0  0  0
   44.7440   35.2300   45.4350 N   0  0  0  0  0  0  0  0  0  0  0  0
   45.2680   32.2990   36.3570 O   0  0  0  0  0  0  0  0  0  0  0  0
   45.5550   30.5840   34.4880 O   0  0  0  0  0  0  0  0  0  0  0  0
   45.8640   32.0550   34.8030 P   0  0  1  0  0  0  0  0  0  0  0  0
   45.0330   32.9830   33.6890 O   0  0  0  0  0  0  0  0  0  0  0  0
   47.5380   32.1930   34.6750 O   0  0  0  0  0  0  0  0  0  0  0  0
   48.1920   32.3460   33.4530 C   0  0  0  0  0  0  0  0  0  0  0  0
   48.8020   33.3600   32.8330 C   0  0  0  0  0  0  0  0  0  0  0  0
   49.3620   33.1940   31.6090 C   0  0  0  0  0  0  0  0  0  0  0  0
   49.2350   31.8420   31.0590 C   0  0  0  0  0  0  0  0  0  0  0  0
   48.3010   30.9330   32.3950 S   0  0  0  0  0  0  0  0  0  0  0  0
   45.1357   32.4698   39.3129 H   0  0  0  0  0  0  0  0  0  0  0  0
   48.0145   31.5453   38.2217 H   0  0  0  0  0  0  0  0  0  0  0  0
   46.9637   30.4401   37.9497 H   0  0  0  0  0  0  0  0  0  0  0  0
   46.5806   33.5318   36.6500 H   0  0  0  0  0  0  0  0  0  0  0  0
   48.2405   35.8380   42.0634 H   0  0  0  0  0  0  0  0  0  0  0  0
   49.4086   35.3652   39.9545 H   0  0  0  0  0  0  0  0  0  0  0  0
   48.3385   33.7489   38.3211 H   0  0  0  0  0  0  0  0  0  0  0  0
   44.0047   37.0726   44.7289 H   0  0  0  0  0  0  0  0  0  0  0  0
   45.0380   36.8040   42.4574 H   0  0  0  0  0  0  0  0  0  0  0  0
   45.5687   33.3663   45.9555 H   0  0  0  0  0  0  0  0  0  0  0  0
   44.4538   33.6298   34.1648 H   0  0  0  0  0  0  0  0  0  0  0  0
   48.8508   34.3439   33.3224 H   0  0  0  0  0  0  0  0  0  0  0  0
   49.8705   34.0086   31.0725 H   0  0  0  0  0  0  0  0  0  0  0  0
   49.6003   31.4572   30.0954 H   0  0  0  0  0  0  0  0  0  0  0  0
  1  8  1  0
  2  1  1  0
  3  2  1  0
  3  1  1  0
  4 12  1  0
  5  4  2  0
  6  5  1  0
  7  8  1  0
  7  6  2  0
  8  9  2  0
  9  4  1  0
 10 15  2  0
 11 10  1  0
 12 11  2  0
 12 13  1  0
 13 14  2  0
 14 15  1  0
 16  3  1  0
 18 17  2  0
 18 16  1  0
 19 18  1  0
 20 18  1  0
 21 20  1  0
 22 21  2  0
 23 22  1  0
 24 23  2  0
 24 25  1  0
 25 21  1  0
  1 26  1  6
  2 27  1  0
  2 28  1  0
  3 29  1  1
  5 30  1  0
  6 31  1  0
  7 32  1  0
 10 33  1  0
 11 34  1  0
 14 35  1  0
 19 36  1  0
 22 37  1  0
 23 38  1  0
 24 39  1  0
M  ISO  8  26  13  27  13  28  13  29  13  30  14  31  14  32  14  33  14
M  ISO  6  34  14  35  14  36   3  37  14  38  14  39  14
M  END
>  <minimizedAffinity>  (1) 
-6.85656595

>  <minimizedRMSD>  (1) 
0.876371741

$$$$
