
     RDKit          3D

 35 37  0  0  1  0  0  0  0  0999 V2000
   46.4890   34.5700   41.8160 C   0  0  0  0  0  0  0  0  0  0  0  0
   47.7320   35.0780   41.4660 C   0  0  0  0  0  0  0  0  0  0  0  0
   48.3870   34.8290   40.2760 C   0  0  0  0  0  0  0  0  0  0  0  0
   47.7550   34.0080   39.3640 C   0  0  0  0  0  0  0  0  0  0  0  0
   46.5310   33.5170   39.7260 C   0  0  0  0  0  0  0  0  0  0  0  0
   45.9420   33.7850   40.8800 N   0  0  0  0  0  0  0  0  0  0  0  0
   44.5530   36.1340   44.6420 C   0  0  0  0  0  0  0  0  0  0  0  0
   45.1090   36.0080   43.3550 C   0  0  0  0  0  0  0  0  0  0  0  0
   45.8430   34.8660   43.0930 C   0  0  0  0  0  0  0  0  0  0  0  0
   45.9940   33.9370   44.0630 N   0  0  0  0  0  0  0  0  0  0  0  0
   45.4350   34.1010   45.3010 C   0  0  0  0  0  0  0  0  0  0  0  0
   44.7280   35.1940   45.5630 N   0  0  0  0  0  0  0  0  0  0  0  0
   45.8640   32.6510   38.7340 C   0  0  2  0  0  0  0  0  0  0  0  0
   46.6630   31.5570   38.1290 C   0  0  0  0  0  0  0  0  0  0  0  0
   46.1780   32.7650   37.3230 C   0  0  1  0  0  0  0  0  0  0  0  0
   45.2080   32.4930   36.3460 O   0  0  0  0  0  0  0  0  0  0  0  0
   45.5460   30.6360   34.6270 O   0  0  0  0  0  0  0  0  0  0  0  0
   45.8680   32.1230   34.8430 P   0  0  1  0  0  0  0  0  0  0  0  0
   45.0940   32.9670   33.6250 O   0  0  0  0  0  0  0  0  0  0  0  0
   47.5430   32.2230   34.7770 O   0  0  0  0  0  0  0  0  0  0  0  0
   48.0690   32.2160   33.5090 C   0  0  0  0  0  0  0  0  0  0  0  0
   47.5050   31.1250   32.8530 F   0  0  0  0  0  0  0  0  0  0  0  0
   49.4460   32.0080   33.5800 F   0  0  0  0  0  0  0  0  0  0  0  0
   47.9080   33.3900   32.8100 F   0  0  0  0  0  0  0  0  0  0  0  0
   48.2355   35.7308   42.1942 H   0  0  0  0  0  0  0  0  0  0  0  0
   49.3732   35.2675   40.0634 H   0  0  0  0  0  0  0  0  0  0  0  0
   48.2128   33.7611   38.3948 H   0  0  0  0  0  0  0  0  0  0  0  0
   43.9623   37.0283   44.8893 H   0  0  0  0  0  0  0  0  0  0  0  0
   44.9656   36.7853   42.5900 H   0  0  0  0  0  0  0  0  0  0  0  0
   45.5706   33.3314   46.0752 H   0  0  0  0  0  0  0  0  0  0  0  0
   44.9167   32.7076   39.2903 H   0  0  0  0  0  0  0  0  0  0  0  0
   47.7290   31.4438   38.3758 H   0  0  0  0  0  0  0  0  0  0  0  0
   46.5756   30.4635   38.0478 H   0  0  0  0  0  0  0  0  0  0  0  0
   46.6243   33.5667   36.7163 H   0  0  0  0  0  0  0  0  0  0  0  0
   44.4816   33.6348   34.0239 H   0  0  0  0  0  0  0  0  0  0  0  0
  1  9  1  0
  2  1  2  0
  3  2  1  0
  4  5  1  0
  4  3  2  0
  5  6  2  0
  6  1  1  0
  7 12  2  0
  8  7  1  0
  9  8  2  0
  9 10  1  0
 10 11  2  0
 11 12  1  0
 13  5  1  0
 14 13  1  0
 15 14  1  0
 15 13  1  0
 16 15  1  0
 18 17  2  0
 18 16  1  0
 19 18  1  0
 20 18  1  0
 21 23  1  0
 21 20  1  0
 22 21  1  0
 24 21  1  0
  2 25  1  0
  3 26  1  0
  4 27  1  0
  7 28  1  0
  8 29  1  0
 11 30  1  0
 13 31  1  6
 14 32  1  0
 14 33  1  0
 15 34  1  1
 19 35  1  0
M  ISO  8  25  14  26  14  27  14  28  14  29  14  30  14  31  13  32  13
M  ISO  3  33  13  34  13  35   3
M  END
>  <minimizedAffinity>  (1) 
-6.29196882

>  <minimizedRMSD>  (1) 
1.11327362

$$$$
