
     RDKit          3D

 34 36  0  0  1  0  0  0  0  0999 V2000
   46.5960   34.5910   41.8240 C   0  0  0  0  0  0  0  0  0  0  0  0
   47.7880   35.1930   41.4710 C   0  0  0  0  0  0  0  0  0  0  0  0
   48.4790   34.9640   40.3020 C   0  0  0  0  0  0  0  0  0  0  0  0
   47.9400   34.0590   39.4070 C   0  0  0  0  0  0  0  0  0  0  0  0
   46.7600   33.4730   39.7750 C   0  0  0  0  0  0  0  0  0  0  0  0
   46.1420   33.7340   40.9140 N   0  0  0  0  0  0  0  0  0  0  0  0
   44.5510   36.1070   44.5950 C   0  0  0  0  0  0  0  0  0  0  0  0
   45.1370   35.9930   43.3300 C   0  0  0  0  0  0  0  0  0  0  0  0
   45.9090   34.8730   43.0850 C   0  0  0  0  0  0  0  0  0  0  0  0
   46.0650   33.9500   44.0620 N   0  0  0  0  0  0  0  0  0  0  0  0
   45.4760   34.0990   45.2850 C   0  0  0  0  0  0  0  0  0  0  0  0
   44.7300   35.1720   45.5340 N   0  0  0  0  0  0  0  0  0  0  0  0
   46.1840   32.5170   38.8080 C   0  0  2  0  0  0  0  0  0  0  0  0
   47.1220   31.6010   38.1130 C   0  0  0  0  0  0  0  0  0  0  0  0
   46.3620   32.7150   37.3830 C   0  0  1  0  0  0  0  0  0  0  0  0
   45.3890   32.2820   36.4710 O   0  0  0  0  0  0  0  0  0  0  0  0
   45.7850   30.6440   34.5590 O   0  0  0  0  0  0  0  0  0  0  0  0
   45.9700   32.1310   34.8980 P   0  0  1  0  0  0  0  0  0  0  0  0
   45.0330   33.0000   33.8220 O   0  0  0  0  0  0  0  0  0  0  0  0
   47.6200   32.4090   34.7380 O   0  0  0  0  0  0  0  0  0  0  0  0
   48.2870   32.5920   33.5330 C   0  0  0  0  0  0  0  0  0  0  0  0
   49.5550   32.5380   33.4830 O   0  0  0  0  0  0  0  0  0  0  0  0
   48.2202   35.9135   42.1810 H   0  0  0  0  0  0  0  0  0  0  0  0
   49.4254   35.4824   40.0883 H   0  0  0  0  0  0  0  0  0  0  0  0
   48.4325   33.8232   38.4521 H   0  0  0  0  0  0  0  0  0  0  0  0
   43.9291   36.9854   44.8224 H   0  0  0  0  0  0  0  0  0  0  0  0
   44.9892   36.7647   42.5601 H   0  0  0  0  0  0  0  0  0  0  0  0
   45.6180   33.3337   46.0623 H   0  0  0  0  0  0  0  0  0  0  0  0
   45.2874   32.3865   39.4318 H   0  0  0  0  0  0  0  0  0  0  0  0
   48.2063   31.6828   38.2792 H   0  0  0  0  0  0  0  0  0  0  0  0
   47.2311   30.5120   38.0029 H   0  0  0  0  0  0  0  0  0  0  0  0
   46.6040   33.5982   36.7736 H   0  0  0  0  0  0  0  0  0  0  0  0
   44.4071   33.5805   34.3235 H   0  0  0  0  0  0  0  0  0  0  0  0
   47.7124   32.7852   32.6151 H   0  0  0  0  0  0  0  0  0  0  0  0
  1  9  1  0
  2  1  2  0
  3  2  1  0
  4  5  1  0
  4  3  2  0
  5  6  2  0
  6  1  1  0
  7 12  2  0
  8  7  1  0
  9  8  2  0
  9 10  1  0
 10 11  2  0
 11 12  1  0
 13  5  1  0
 14 13  1  0
 15 14  1  0
 15 13  1  0
 16 15  1  0
 18 17  2  0
 18 16  1  0
 19 18  1  0
 20 18  1  0
 21 20  1  0
 22 21  2  0
  2 23  1  0
  3 24  1  0
  4 25  1  0
  7 26  1  0
  8 27  1  0
 11 28  1  0
 13 29  1  6
 14 30  1  0
 14 31  1  0
 15 32  1  1
 19 33  1  0
 21 34  1  0
M  ISO  8  23  14  24  14  25  14  26  14  27  14  28  14  29  13  30  13
M  ISO  4  31  13  32  13  33   3  34   6
M  END
>  <minimizedAffinity>  (1) 
-5.93707323

>  <minimizedRMSD>  (1) 
0.660272121

$$$$
