
     RDKit          3D

 50 54  0  0  1  0  0  0  0  0999 V2000
   47.1480   32.6900   44.4690 C   0  0  0  0  0  0  0  0  0  0  0  0
   47.2020   31.8650   45.5850 C   0  0  0  0  0  0  0  0  0  0  0  0
   46.4330   32.0750   46.7280 C   0  0  0  0  0  0  0  0  0  0  0  0
   45.5630   33.1510   46.7790 C   0  0  0  0  0  0  0  0  0  0  0  0
   45.4870   33.9740   45.7060 C   0  0  0  0  0  0  0  0  0  0  0  0
   44.6320   35.0590   45.7130 C   0  0  0  0  0  0  0  0  0  0  0  0
   44.4980   35.9320   44.6750 C   0  0  0  0  0  0  0  0  0  0  0  0
   45.2870   35.6810   43.5600 C   0  0  0  0  0  0  0  0  0  0  0  0
   46.1490   34.5910   43.5480 C   0  0  0  0  0  0  0  0  0  0  0  0
   46.2670   33.7290   44.5960 C   0  0  0  0  0  0  0  0  0  0  0  0
   46.7960   34.5800   42.2810 N   0  0  0  0  0  0  0  0  0  0  0  0
   47.9110   35.1690   41.5770 C   0  0  0  0  0  0  0  0  0  0  0  0
   48.7510   34.0550   40.9180 C   0  0  0  0  0  0  0  0  0  0  0  0
   47.9350   33.4360   39.7880 C   0  0  0  0  0  0  0  0  0  0  0  0
   46.4730   33.8110   39.9440 C   0  0  0  0  0  0  0  0  0  0  0  0
   46.1220   33.6310   41.3780 C   0  0  0  0  0  0  0  0  0  0  0  0
   47.9660   32.3910   43.3770 N   0  0  0  0  0  0  0  0  0  0  0  0
   49.9610   31.0870   42.5180 C   0  0  1  0  0  0  0  0  0  0  0  0
   48.7100   30.4280   41.9760 C   0  0  0  0  0  0  0  0  0  0  0  0
   48.7340   31.1850   43.2960 C   0  0  2  0  0  0  0  0  0  0  0  0
   52.0390   28.8590   44.6150 C   0  0  0  0  0  0  0  0  0  0  0  0
   53.2000   28.6940   43.8000 C   0  0  0  0  0  0  0  0  0  0  0  0
   53.2270   29.3480   42.5410 C   0  0  0  0  0  0  0  0  0  0  0  0
   52.1820   30.0920   42.1580 N   0  0  0  0  0  0  0  0  0  0  0  0
   51.0940   30.2270   42.9610 C   0  0  0  0  0  0  0  0  0  0  0  0
   51.0230   29.6100   44.1890 N   0  0  0  0  0  0  0  0  0  0  0  0
   47.8855   31.0033   45.5657 H   0  0  0  0  0  0  0  0  0  0  0  0
   46.5166   31.3900   47.5846 H   0  0  0  0  0  0  0  0  0  0  0  0
   44.9468   33.3335   47.6718 H   0  0  0  0  0  0  0  0  0  0  0  0
   44.0215   35.2289   46.6121 H   0  0  0  0  0  0  0  0  0  0  0  0
   43.8054   36.7855   44.7179 H   0  0  0  0  0  0  0  0  0  0  0  0
   45.2296   36.3457   42.6854 H   0  0  0  0  0  0  0  0  0  0  0  0
   47.5350   35.8520   40.8011 H   0  0  0  0  0  0  0  0  0  0  0  0
   48.5377   35.7289   42.2867 H   0  0  0  0  0  0  0  0  0  0  0  0
   49.6806   34.4817   40.5134 H   0  0  0  0  0  0  0  0  0  0  0  0
   49.0068   33.2864   41.6622 H   0  0  0  0  0  0  0  0  0  0  0  0
   48.0367   32.3412   39.8215 H   0  0  0  0  0  0  0  0  0  0  0  0
   48.3057   33.8135   38.8236 H   0  0  0  0  0  0  0  0  0  0  0  0
   46.3193   34.8590   39.6473 H   0  0  0  0  0  0  0  0  0  0  0  0
   45.8382   33.1796   39.3050 H   0  0  0  0  0  0  0  0  0  0  0  0
   45.0352   33.7609   41.4875 H   0  0  0  0  0  0  0  0  0  0  0  0
   46.4578   32.6236   41.6650 H   0  0  0  0  0  0  0  0  0  0  0  0
   48.0189   33.0644   42.5994 H   0  0  0  0  0  0  0  0  0  0  0  0
   50.6778   31.8329   42.1441 H   0  0  0  0  0  0  0  0  0  0  0  0
   48.1925   30.8491   41.1014 H   0  0  0  0  0  0  0  0  0  0  0  0
   48.4248   29.4182   41.6458 H   0  0  0  0  0  0  0  0  0  0  0  0
   48.5063   30.9676   44.3500 H   0  0  0  0  0  0  0  0  0  0  0  0
   51.9828   28.3654   45.5964 H   0  0  0  0  0  0  0  0  0  0  0  0
   54.0471   28.0790   44.1378 H   0  0  0  0  0  0  0  0  0  0  0  0
   54.1023   29.2442   41.8829 H   0  0  0  0  0  0  0  0  0  0  0  0
  1 10  1  0
  1  2  2  0
  2  3  1  0
  3  4  2  0
  5  6  2  0
  5  4  1  0
  7  6  1  0
  8  7  2  0
  9  8  1  0
  9 10  2  0
 10  5  1  0
 11  9  1  0
 12 11  1  0
 13 12  1  0
 14 15  1  0
 14 13  1  0
 15 16  1  0
 16 11  1  0
 17  1  1  0
 18 25  1  0
 18 20  1  0
 19 18  1  0
 19 20  1  0
 20 17  1  0
 22 21  2  0
 23 22  1  0
 24 23  2  0
 24 25  1  0
 25 26  2  0
 26 21  1  0
  2 27  1  0
  3 28  1  0
  4 29  1  0
  6 30  1  0
  7 31  1  0
  8 32  1  0
 12 33  1  0
 12 34  1  0
 13 35  1  0
 13 36  1  0
 14 37  1  0
 14 38  1  0
 15 39  1  0
 15 40  1  0
 16 41  1  0
 16 42  1  0
 17 43  1  0
 18 44  1  6
 19 45  1  0
 19 46  1  0
 20 47  1  1
 21 48  1  0
 22 49  1  0
 23 50  1  0
M  ISO  8  27  14  28  14  29  14  30  14  31  14  32  14  33  13  34  13
M  ISO  8  35  13  36  13  37  13  38  13  39  13  40  13  41  13  42  13
M  ISO  7  44  13  45  13  46  13  47  13  48  14  49  14  50  14
M  END
>  <minimizedAffinity>  (1) 
-5.38547039

>  <minimizedRMSD>  (1) 
2.51817489

$$$$
