
     RDKit          3D

 49 53  0  0  1  0  0  0  0  0999 V2000
   47.1190   32.6980   44.4090 C   0  0  0  0  0  0  0  0  0  0  0  0
   47.1370   31.9140   45.5550 C   0  0  0  0  0  0  0  0  0  0  0  0
   46.3660   32.1850   46.6780 C   0  0  0  0  0  0  0  0  0  0  0  0
   45.5250   33.2840   46.6830 C   0  0  0  0  0  0  0  0  0  0  0  0
   45.4820   34.0700   45.5780 C   0  0  0  0  0  0  0  0  0  0  0  0
   44.6530   35.1780   45.5390 C   0  0  0  0  0  0  0  0  0  0  0  0
   44.5530   36.0150   44.4680 C   0  0  0  0  0  0  0  0  0  0  0  0
   45.3460   35.7010   43.3720 C   0  0  0  0  0  0  0  0  0  0  0  0
   46.1770   34.5920   43.4080 C   0  0  0  0  0  0  0  0  0  0  0  0
   46.2650   33.7660   44.4880 C   0  0  0  0  0  0  0  0  0  0  0  0
   46.8390   34.5140   42.1540 N   0  0  0  0  0  0  0  0  0  0  0  0
   47.9730   35.0310   41.4240 C   0  0  0  0  0  0  0  0  0  0  0  0
   48.7600   33.8290   40.8770 C   0  0  0  0  0  0  0  0  0  0  0  0
   47.9960   33.2700   39.7770 N   0  0  0  0  0  0  0  0  0  0  0  0
   46.6010   33.6750   39.8430 C   0  0  0  0  0  0  0  0  0  0  0  0
   46.1520   33.5530   41.2720 C   0  0  0  0  0  0  0  0  0  0  0  0
   47.9340   32.3350   43.3340 N   0  0  0  0  0  0  0  0  0  0  0  0
   49.9770   30.9780   42.6910 C   0  0  1  0  0  0  0  0  0  0  0  0
   48.7850   30.3800   41.9750 C   0  0  0  0  0  0  0  0  0  0  0  0
   48.6690   31.1020   43.3120 C   0  0  2  0  0  0  0  0  0  0  0  0
   51.6310   28.5040   44.9000 C   0  0  0  0  0  0  0  0  0  0  0  0
   52.9390   28.4220   44.2920 C   0  0  0  0  0  0  0  0  0  0  0  0
   53.1970   29.2090   43.1410 C   0  0  0  0  0  0  0  0  0  0  0  0
   52.2260   29.9910   42.6670 N   0  0  0  0  0  0  0  0  0  0  0  0
   51.0050   30.0500   43.2590 C   0  0  0  0  0  0  0  0  0  0  0  0
   50.7160   29.3110   44.3630 N   0  0  0  0  0  0  0  0  0  0  0  0
   47.7956   31.0332   45.5744 H   0  0  0  0  0  0  0  0  0  0  0  0
   46.4236   31.5292   47.5592 H   0  0  0  0  0  0  0  0  0  0  0  0
   44.9058   33.5149   47.5624 H   0  0  0  0  0  0  0  0  0  0  0  0
   44.0385   35.3958   46.4250 H   0  0  0  0  0  0  0  0  0  0  0  0
   43.8836   36.8879   44.4715 H   0  0  0  0  0  0  0  0  0  0  0  0
   45.3146   36.3340   42.4729 H   0  0  0  0  0  0  0  0  0  0  0  0
   47.6276   35.6631   40.5926 H   0  0  0  0  0  0  0  0  0  0  0  0
   48.6089   35.6431   42.0805 H   0  0  0  0  0  0  0  0  0  0  0  0
   49.7470   34.1578   40.5196 H   0  0  0  0  0  0  0  0  0  0  0  0
   48.9127   33.0759   41.6641 H   0  0  0  0  0  0  0  0  0  0  0  0
   48.0494   32.2423   39.8196 H   0  0  0  0  0  0  0  0  0  0  0  0
   46.4980   34.7172   39.5065 H   0  0  0  0  0  0  0  0  0  0  0  0
   45.9854   33.0368   39.1920 H   0  0  0  0  0  0  0  0  0  0  0  0
   45.0689   33.7390   41.3204 H   0  0  0  0  0  0  0  0  0  0  0  0
   46.3992   32.5388   41.6189 H   0  0  0  0  0  0  0  0  0  0  0  0
   48.0102   32.9739   42.5297 H   0  0  0  0  0  0  0  0  0  0  0  0
   50.7599   31.7053   42.4299 H   0  0  0  0  0  0  0  0  0  0  0  0
   48.3968   30.8428   41.0557 H   0  0  0  0  0  0  0  0  0  0  0  0
   48.5100   29.3908   41.5802 H   0  0  0  0  0  0  0  0  0  0  0  0
   48.3050   30.8669   44.3231 H   0  0  0  0  0  0  0  0  0  0  0  0
   51.3934   27.9086   45.7939 H   0  0  0  0  0  0  0  0  0  0  0  0
   53.7154   27.7654   44.7115 H   0  0  0  0  0  0  0  0  0  0  0  0
   54.1798   29.1752   42.6481 H   0  0  0  0  0  0  0  0  0  0  0  0
  1 10  1  0
  1  2  2  0
  2  3  1  0
  3  4  2  0
  5  4  1  0
  6  5  2  0
  7  6  1  0
  8  9  1  0
  8  7  2  0
  9 10  2  0
 10  5  1  0
 11  9  1  0
 12 11  1  0
 13 12  1  0
 14 15  1  0
 14 13  1  0
 15 16  1  0
 16 11  1  0
 17  1  1  0
 18 25  1  0
 18 20  1  0
 19 18  1  0
 19 20  1  0
 20 17  1  0
 22 21  2  0
 23 22  1  0
 24 23  2  0
 24 25  1  0
 25 26  2  0
 26 21  1  0
  2 27  1  0
  3 28  1  0
  4 29  1  0
  6 30  1  0
  7 31  1  0
  8 32  1  0
 12 33  1  0
 12 34  1  0
 13 35  1  0
 13 36  1  0
 14 37  1  0
 15 38  1  0
 15 39  1  0
 16 40  1  0
 16 41  1  0
 17 42  1  0
 18 43  1  6
 19 44  1  0
 19 45  1  0
 20 46  1  1
 21 47  1  0
 22 48  1  0
 23 49  1  0
M  ISO  8  27  14  28  14  29  14  30  14  31  14  32  14  33  13  34  13
M  ISO  8  35  13  36  13  37   5  38  13  39  13  40  13  41  13  43  13
M  ISO  6  44  13  45  13  46  13  47  14  48  14  49  14
M  END
>  <minimizedAffinity>  (1) 
-5.30588961

>  <minimizedRMSD>  (1) 
2.6694994

$$$$
