
     RDKit          3D

 17 17  0  0  0  0  0  0  0  0999 V2000
   44.5220   35.8610   44.6030 C   0  0  0  0  0  0  0  0  0  0  0  0
   45.1930   35.8250   43.3600 C   0  0  0  0  0  0  0  0  0  0  0  0
   46.1580   34.8350   43.1530 C   0  0  0  0  0  0  0  0  0  0  0  0
   46.4060   33.9590   44.1510 N   0  0  0  0  0  0  0  0  0  0  0  0
   45.7440   34.0230   45.3340 C   0  0  0  0  0  0  0  0  0  0  0  0
   44.8150   34.9550   45.5680 N   0  0  0  0  0  0  0  0  0  0  0  0
   46.2770   32.7440   46.4600 S   0  0  0  0  0  0  0  0  0  0  0  0
   45.2070   32.5940   47.8870 C   0  0  0  0  0  0  0  0  0  0  0  0
   45.9980   31.9270   48.9940 C   0  0  0  0  0  0  0  0  0  0  0  0
   43.7569   36.6292   44.7889 H   0  0  0  0  0  0  0  0  0  0  0  0
   44.9615   36.5587   42.5738 H   0  0  0  0  0  0  0  0  0  0  0  0
   46.7028   34.7708   42.1995 H   0  0  0  0  0  0  0  0  0  0  0  0
   44.8762   33.5913   48.2126 H   0  0  0  0  0  0  0  0  0  0  0  0
   44.3176   31.9966   47.6380 H   0  0  0  0  0  0  0  0  0  0  0  0
   45.6102   32.2540   49.9700 H   0  0  0  0  0  0  0  0  0  0  0  0
   45.9000   30.8348   48.9078 H   0  0  0  0  0  0  0  0  0  0  0  0
   47.0580   32.2080   48.9078 H   0  0  0  0  0  0  0  0  0  0  0  0
  1  6  2  0
  2  1  1  0
  3  2  2  0
  3  4  1  0
  4  5  2  0
  5  6  1  0
  5  7  1  0
  7  8  1  0
  8  9  1  0
  1 10  1  0
  2 11  1  0
  3 12  1  0
  8 13  1  0
  8 14  1  0
  9 15  1  0
  9 16  1  0
  9 17  1  0
M  ISO  8  10  14  11  14  12  14  13   8  14   8  15   8  16   8  17   8
M  END
>  <minimizedAffinity>  (1) 
-3.45316005

>  <minimizedRMSD>  (1) 
0.982084274

$$$$
