
     RDKit          3D

 23 24  0  0  1  0  0  0  0  0999 V2000
   46.6660   32.4710   45.7520 S   0  0  0  0  0  0  0  0  0  0  0  0
   44.5180   35.7670   44.8320 C   0  0  0  0  0  0  0  0  0  0  0  0
   45.0220   36.0250   43.5160 C   0  0  0  0  0  0  0  0  0  0  0  0
   45.9890   35.1720   42.9880 C   0  0  0  0  0  0  0  0  0  0  0  0
   46.4110   34.1370   43.7460 N   0  0  0  0  0  0  0  0  0  0  0  0
   45.9290   33.9040   44.9870 C   0  0  0  0  0  0  0  0  0  0  0  0
   44.9920   34.7030   45.5340 N   0  0  0  0  0  0  0  0  0  0  0  0
   45.3190   31.5980   47.9960 C   0  0  1  0  0  0  0  0  0  0  0  0
   46.4680   32.4710   47.5370 C   0  0  1  0  0  0  0  0  0  0  0  0
   47.6420   31.7270   48.1260 C   0  0  0  0  0  0  0  0  0  0  0  0
   47.2150   31.0380   49.2430 O   0  0  0  0  0  0  0  0  0  0  0  0
   45.8320   31.0630   49.2930 C   0  0  0  0  0  0  0  0  0  0  0  0
   44.2120   32.3790   48.2280 O   0  0  0  0  0  0  0  0  0  0  0  0
   43.7534   36.4245   45.2713 H   0  0  0  0  0  0  0  0  0  0  0  0
   44.6522   36.8812   42.9328 H   0  0  0  0  0  0  0  0  0  0  0  0
   46.3979   35.3373   41.9803 H   0  0  0  0  0  0  0  0  0  0  0  0
   45.0264   30.8227   47.2726 H   0  0  0  0  0  0  0  0  0  0  0  0
   46.3409   33.5229   47.8327 H   0  0  0  0  0  0  0  0  0  0  0  0
   48.0410   31.0190   47.3847 H   0  0  0  0  0  0  0  0  0  0  0  0
   48.4340   32.4377   48.4046 H   0  0  0  0  0  0  0  0  0  0  0  0
   45.5025   31.7117   50.1180 H   0  0  0  0  0  0  0  0  0  0  0  0
   45.4431   30.0479   49.4615 H   0  0  0  0  0  0  0  0  0  0  0  0
   44.0750   32.4757   49.2037 H   0  0  0  0  0  0  0  0  0  0  0  0
  2  7  2  0
  3  2  1  0
  4  3  2  0
  4  5  1  0
  5  6  2  0
  6  7  1  0
  6  1  1  0
  8 13  1  0
  8 12  1  0
  9  1  1  0
  9  8  1  0
  9 10  1  0
 10 11  1  0
 11 12  1  0
  2 14  1  0
  3 15  1  0
  4 16  1  0
  8 17  1  6
  9 18  1  1
 10 19  1  0
 10 20  1  0
 12 21  1  0
 12 22  1  0
 13 23  1  0
M  ISO  8  14  14  15  14  16  14  17  13  18  13  19  13  20  13  21  13
M  ISO  2  22  13  23   3
M  END
>  <minimizedAffinity>  (1) 
-4.86439991

>  <minimizedRMSD>  (1) 
2.24570942

$$$$
