
     RDKit          3D

 37 40  0  0  1  0  0  0  0  0999 V2000
   47.2580   32.9590   43.7560 C   0  0  0  0  0  0  0  0  0  0  0  0
   47.4990   31.9980   44.7240 C   0  0  0  0  0  0  0  0  0  0  0  0
   46.8760   31.9950   45.9500 C   0  0  0  0  0  0  0  0  0  0  0  0
   45.9620   32.9730   46.2770 C   0  0  0  0  0  0  0  0  0  0  0  0
   45.6950   33.9450   45.3430 C   0  0  0  0  0  0  0  0  0  0  0  0
   44.7840   34.9520   45.6100 C   0  0  0  0  0  0  0  0  0  0  0  0
   44.4700   35.9450   44.7310 C   0  0  0  0  0  0  0  0  0  0  0  0
   45.1120   35.9110   43.5250 C   0  0  0  0  0  0  0  0  0  0  0  0
   46.0190   34.9060   43.2640 C   0  0  0  0  0  0  0  0  0  0  0  0
   46.3380   33.9090   44.1380 C   0  0  0  0  0  0  0  0  0  0  0  0
   46.6110   34.9960   41.9600 C   0  0  0  0  0  0  0  0  0  0  0  0
   46.1910   34.5060   40.8800 O   0  0  0  0  0  0  0  0  0  0  0  0
   47.9290   32.9080   42.5170 N   0  0  0  0  0  0  0  0  0  0  0  0
   49.6620   31.8160   41.0000 C   0  0  1  0  0  0  0  0  0  0  0  0
   48.4480   30.9150   41.0880 C   0  0  0  0  0  0  0  0  0  0  0  0
   48.8530   31.8730   42.2020 C   0  0  2  0  0  0  0  0  0  0  0  0
   52.5620   29.7700   42.0530 C   0  0  0  0  0  0  0  0  0  0  0  0
   53.5370   30.1410   41.0750 C   0  0  0  0  0  0  0  0  0  0  0  0
   53.1560   31.0750   40.0780 C   0  0  0  0  0  0  0  0  0  0  0  0
   51.9230   31.5790   40.0740 N   0  0  0  0  0  0  0  0  0  0  0  0
   51.0180   31.1940   41.0330 C   0  0  0  0  0  0  0  0  0  0  0  0
   51.3250   30.2930   42.0250 N   0  0  0  0  0  0  0  0  0  0  0  0
   48.2226   31.1999   44.5017 H   0  0  0  0  0  0  0  0  0  0  0  0
   47.1098   31.2035   46.6773 H   0  0  0  0  0  0  0  0  0  0  0  0
   45.4611   32.9756   47.2563 H   0  0  0  0  0  0  0  0  0  0  0  0
   44.2837   34.9508   46.5897 H   0  0  0  0  0  0  0  0  0  0  0  0
   43.7404   36.7302   44.9784 H   0  0  0  0  0  0  0  0  0  0  0  0
   44.9063   36.6810   42.7669 H   0  0  0  0  0  0  0  0  0  0  0  0
   47.5503   35.5650   41.8966 H   0  0  0  0  0  0  0  0  0  0  0  0
   47.7446   33.6424   41.8187 H   0  0  0  0  0  0  0  0  0  0  0  0
   50.0148   32.5771   40.2885 H   0  0  0  0  0  0  0  0  0  0  0  0
   47.5575   31.1169   40.4746 H   0  0  0  0  0  0  0  0  0  0  0  0
   48.2504   29.8365   40.9997 H   0  0  0  0  0  0  0  0  0  0  0  0
   49.1364   31.8257   43.2638 H   0  0  0  0  0  0  0  0  0  0  0  0
   52.8283   29.0472   42.8382 H   0  0  0  0  0  0  0  0  0  0  0  0
   54.5510   29.7152   41.0953 H   0  0  0  0  0  0  0  0  0  0  0  0
   53.8787   31.3832   39.3081 H   0  0  0  0  0  0  0  0  0  0  0  0
  1 10  1  0
  1  2  2  0
  2  3  1  0
  3  4  2  0
  5  6  2  0
  5  4  1  0
  7  6  1  0
  8  7  2  0
  9  8  1  0
  9 10  2  0
 10  5  1  0
 11  9  1  0
 12 11  2  0
 13  1  1  0
 14 21  1  0
 14 15  1  0
 14 16  1  0
 15 16  1  0
 16 13  1  0
 18 17  2  0
 19 18  1  0
 20 19  2  0
 20 21  1  0
 21 22  2  0
 22 17  1  0
  2 23  1  0
  3 24  1  0
  4 25  1  0
  6 26  1  0
  7 27  1  0
  8 28  1  0
 11 29  1  0
 13 30  1  0
 14 31  1  6
 15 32  1  0
 15 33  1  0
 16 34  1  1
 17 35  1  0
 18 36  1  0
 19 37  1  0
M  ISO  8  23  14  24  14  25  14  26  14  27  14  28  14  29   6  31  13
M  ISO  6  32  13  33  13  34  13  35  14  36  14  37  14
M  END
>  <minimizedAffinity>  (1) 
-5.03583336

>  <minimizedRMSD>  (1) 
1.99818981

$$$$
