
     RDKit          3D

 30 32  0  0  0  0  0  0  0  0999 V2000
   44.4320   36.1340   44.5700 C   0  0  0  0  0  0  0  0  0  0  0  0
   45.1000   35.9980   43.3270 C   0  0  0  0  0  0  0  0  0  0  0  0
   45.9750   34.9220   43.1930 C   0  0  0  0  0  0  0  0  0  0  0  0
   46.1370   34.0720   44.2470 N   0  0  0  0  0  0  0  0  0  0  0  0
   45.4870   34.2350   45.4010 C   0  0  0  0  0  0  0  0  0  0  0  0
   44.6300   35.2550   45.5880 N   0  0  0  0  0  0  0  0  0  0  0  0
   45.8210   33.2220   46.3500 N   0  0  0  0  0  0  0  0  0  0  0  0
   45.2200   33.1200   47.5570 C   0  0  0  0  0  0  0  0  0  0  0  0
   45.5700   32.1300   48.4400 C   0  0  0  0  0  0  0  0  0  0  0  0
   46.5420   31.1950   48.1520 C   0  0  0  0  0  0  0  0  0  0  0  0
   46.9500   30.2550   48.8620 O   0  0  0  0  0  0  0  0  0  0  0  0
   47.1300   31.3130   46.9460 N   0  0  0  0  0  0  0  0  0  0  0  0
   46.7680   32.2910   46.1000 C   0  0  0  0  0  0  0  0  0  0  0  0
   47.3240   32.4000   44.9610 O   0  0  0  0  0  0  0  0  0  0  0  0
   46.6570   34.7720   41.9460 N   0  0  0  0  0  0  0  0  0  0  0  0
   47.9090   35.2770   41.8550 C   0  0  0  0  0  0  0  0  0  0  0  0
   48.5810   35.1330   40.6340 C   0  0  0  0  0  0  0  0  0  0  0  0
   47.9390   34.4930   39.6070 C   0  0  0  0  0  0  0  0  0  0  0  0
   48.5500   34.3620   38.5000 O   0  0  0  0  0  0  0  0  0  0  0  0
   46.6930   33.9910   39.7000 N   0  0  0  0  0  0  0  0  0  0  0  0
   46.0770   34.1530   40.9010 C   0  0  0  0  0  0  0  0  0  0  0  0
   44.9310   33.7290   41.0930 O   0  0  0  0  0  0  0  0  0  0  0  0
   43.7352   36.9728   44.7146 H   0  0  0  0  0  0  0  0  0  0  0  0
   44.9349   36.7101   42.5050 H   0  0  0  0  0  0  0  0  0  0  0  0
   44.4382   33.8421   47.8353 H   0  0  0  0  0  0  0  0  0  0  0  0
   45.0573   32.0803   49.4119 H   0  0  0  0  0  0  0  0  0  0  0  0
   47.8649   30.6462   46.6698 H   0  0  0  0  0  0  0  0  0  0  0  0
   48.3825   35.7827   42.7094 H   0  0  0  0  0  0  0  0  0  0  0  0
   49.6005   35.5248   40.5031 H   0  0  0  0  0  0  0  0  0  0  0  0
   46.2351   33.5139   38.9103 H   0  0  0  0  0  0  0  0  0  0  0  0
  1  6  2  0
  2  1  1  0
  3  2  2  0
  3  4  1  0
  4  5  2  0
  5  6  1  0
  5  7  1  0
  7  8  1  0
  8  9  2  0
 10  9  1  0
 10 11  2  0
 12 10  1  0
 13  7  1  0
 13 12  1  0
 14 13  2  0
 15  3  1  0
 16 15  1  0
 17 16  2  0
 18 20  1  0
 18 17  1  0
 19 18  2  0
 20 21  1  0
 21 22  2  0
 21 15  1  0
  1 23  1  0
  2 24  1  0
  8 25  1  0
  9 26  1  0
 12 27  1  0
 16 28  1  0
 17 29  1  0
 20 30  1  0
M  ISO  8  23  14  24  14  25  14  26  14  27   9  28  14  29  14  30   9
M  END
>  <minimizedAffinity>  (1) 
-7.09393978

>  <minimizedRMSD>  (1) 
0.250515759

$$$$
