
     RDKit          3D

 30 32  0  0  0  0  0  0  0  0999 V2000
   44.5490   35.9760   44.5960 C   0  0  0  0  0  0  0  0  0  0  0  0
   45.1900   35.8600   43.3450 C   0  0  0  0  0  0  0  0  0  0  0  0
   46.0720   34.8120   43.1420 C   0  0  0  0  0  0  0  0  0  0  0  0
   46.2670   33.9480   44.1780 N   0  0  0  0  0  0  0  0  0  0  0  0
   45.6510   34.0750   45.3520 C   0  0  0  0  0  0  0  0  0  0  0  0
   44.7880   35.0780   45.5920 N   0  0  0  0  0  0  0  0  0  0  0  0
   46.7150   34.6980   41.8830 N   0  0  0  0  0  0  0  0  0  0  0  0
   47.9430   35.2320   41.7490 C   0  0  0  0  0  0  0  0  0  0  0  0
   48.5880   35.1260   40.5160 C   0  0  0  0  0  0  0  0  0  0  0  0
   47.9200   34.4760   39.5000 C   0  0  0  0  0  0  0  0  0  0  0  0
   48.5260   34.3910   38.3820 O   0  0  0  0  0  0  0  0  0  0  0  0
   46.6970   33.9420   39.6230 N   0  0  0  0  0  0  0  0  0  0  0  0
   46.1330   34.0800   40.8430 C   0  0  0  0  0  0  0  0  0  0  0  0
   44.9890   33.6160   41.0650 O   0  0  0  0  0  0  0  0  0  0  0  0
   44.2550   33.8750   47.8230 F   0  0  0  0  0  0  0  0  0  0  0  0
   45.2560   33.0010   47.5800 C   0  0  0  0  0  0  0  0  0  0  0  0
   45.9420   33.0870   46.3850 C   0  0  0  0  0  0  0  0  0  0  0  0
   46.9560   32.1730   46.1830 C   0  0  0  0  0  0  0  0  0  0  0  0
   47.3130   31.1980   47.0930 C   0  0  0  0  0  0  0  0  0  0  0  0
   46.5810   31.1700   48.2720 C   0  0  0  0  0  0  0  0  0  0  0  0
   45.5380   32.0620   48.5520 C   0  0  0  0  0  0  0  0  0  0  0  0
   43.8458   36.8038   44.7699 H   0  0  0  0  0  0  0  0  0  0  0  0
   44.9928   36.5889   42.5451 H   0  0  0  0  0  0  0  0  0  0  0  0
   48.4285   35.7417   42.5943 H   0  0  0  0  0  0  0  0  0  0  0  0
   49.5928   35.5458   40.3604 H   0  0  0  0  0  0  0  0  0  0  0  0
   46.2222   33.4620   38.8452 H   0  0  0  0  0  0  0  0  0  0  0  0
   47.5152   32.2245   45.2371 H   0  0  0  0  0  0  0  0  0  0  0  0
   48.1283   30.4864   46.8956 H   0  0  0  0  0  0  0  0  0  0  0  0
   46.8328   30.4085   49.0248 H   0  0  0  0  0  0  0  0  0  0  0  0
   44.9741   32.0168   49.4954 H   0  0  0  0  0  0  0  0  0  0  0  0
  1  6  2  0
  2  1  1  0
  3  2  2  0
  3  4  1  0
  4  5  2  0
  5  6  1  0
  5 17  1  0
  7  3  1  0
  8  7  1  0
  9  8  2  0
 10 12  1  0
 10  9  1  0
 11 10  2  0
 12 13  1  0
 13 14  2  0
 13  7  1  0
 16 15  1  0
 16 21  2  0
 17 16  1  0
 18 17  2  0
 18 19  1  0
 19 20  2  0
 20 21  1  0
  1 22  1  0
  2 23  1  0
  8 24  1  0
  9 25  1  0
 12 26  1  0
 18 27  1  0
 19 28  1  0
 20 29  1  0
 21 30  1  0
M  ISO  8  22  14  23  14  24  14  25  14  26   9  27  14  28  14  29  14
M  ISO  1  30  14
M  END
>  <minimizedAffinity>  (1) 
-6.88677311

>  <minimizedRMSD>  (1) 
0.276173085

$$$$
