
     RDKit          3D

 30 32  0  0  0  0  0  0  0  0999 V2000
   44.4760   35.8500   44.8940 C   0  0  0  0  0  0  0  0  0  0  0  0
   45.0980   35.7720   43.6260 C   0  0  0  0  0  0  0  0  0  0  0  0
   45.9980   34.7300   43.4050 C   0  0  0  0  0  0  0  0  0  0  0  0
   46.2130   33.8620   44.4260 N   0  0  0  0  0  0  0  0  0  0  0  0
   45.6260   33.9390   45.6190 C   0  0  0  0  0  0  0  0  0  0  0  0
   44.7470   34.9370   45.8700 N   0  0  0  0  0  0  0  0  0  0  0  0
   46.6260   34.6410   42.1410 N   0  0  0  0  0  0  0  0  0  0  0  0
   47.8610   35.1410   42.0050 C   0  0  0  0  0  0  0  0  0  0  0  0
   48.4970   35.0630   40.7720 C   0  0  0  0  0  0  0  0  0  0  0  0
   47.8130   34.4670   39.7380 C   0  0  0  0  0  0  0  0  0  0  0  0
   48.3950   34.3960   38.6070 O   0  0  0  0  0  0  0  0  0  0  0  0
   46.5660   33.9560   39.8540 N   0  0  0  0  0  0  0  0  0  0  0  0
   46.0080   34.0670   41.0850 C   0  0  0  0  0  0  0  0  0  0  0  0
   44.8650   33.6290   41.3000 O   0  0  0  0  0  0  0  0  0  0  0  0
   45.9470   32.9370   46.6390 C   0  0  0  0  0  0  0  0  0  0  0  0
   45.1330   32.8400   47.7740 C   0  0  0  0  0  0  0  0  0  0  0  0
   45.4190   31.8990   48.7490 C   0  0  0  0  0  0  0  0  0  0  0  0
   46.5110   31.1170   48.5110 C   0  0  0  0  0  0  0  0  0  0  0  0
   47.3420   31.1710   47.4120 C   0  0  0  0  0  0  0  0  0  0  0  0
   47.0350   32.1300   46.4390 C   0  0  0  0  0  0  0  0  0  0  0  0
   43.7612   36.6613   45.0963 H   0  0  0  0  0  0  0  0  0  0  0  0
   44.8789   36.5094   42.8397 H   0  0  0  0  0  0  0  0  0  0  0  0
   48.3674   35.6093   42.8619 H   0  0  0  0  0  0  0  0  0  0  0  0
   49.5113   35.4636   40.6279 H   0  0  0  0  0  0  0  0  0  0  0  0
   46.0752   33.5140   39.0636 H   0  0  0  0  0  0  0  0  0  0  0  0
   44.2682   33.5097   47.8910 H   0  0  0  0  0  0  0  0  0  0  0  0
   44.8059   31.7894   49.6557 H   0  0  0  0  0  0  0  0  0  0  0  0
   46.7541   30.3646   49.2758 H   0  0  0  0  0  0  0  0  0  0  0  0
   48.2029   30.4947   47.3050 H   0  0  0  0  0  0  0  0  0  0  0  0
   47.6534   32.2327   45.5351 H   0  0  0  0  0  0  0  0  0  0  0  0
  1  6  2  0
  2  1  1  0
  3  2  2  0
  3  4  1  0
  4  5  2  0
  5  6  1  0
  5 15  1  0
  7  3  1  0
  8  7  1  0
  9  8  2  0
 10 12  1  0
 10  9  1  0
 11 10  2  0
 12 13  1  0
 13 14  2  0
 13  7  1  0
 15 16  2  0
 16 17  1  0
 18 17  2  0
 19 18  1  0
 20 15  1  0
 20 19  2  0
  1 21  1  0
  2 22  1  0
  8 23  1  0
  9 24  1  0
 12 25  1  0
 16 26  1  0
 17 27  1  0
 18 28  1  0
 19 29  1  0
 20 30  1  0
M  ISO  8  21  14  22  14  23  14  24  14  25   9  26  14  27  14  28  14
M  ISO  2  29  14  30  14
M  END
>  <minimizedAffinity>  (1) 
-6.73173523

>  <minimizedRMSD>  (1) 
0.596194148

$$$$
