
     RDKit          3D

 27 29  0  0  0  0  0  0  0  0999 V2000
   44.4460   35.9710   44.7390 C   0  0  0  0  0  0  0  0  0  0  0  0
   45.0970   35.8450   43.4960 C   0  0  0  0  0  0  0  0  0  0  0  0
   45.9960   34.8080   43.3100 C   0  0  0  0  0  0  0  0  0  0  0  0
   46.2130   33.9440   44.3500 N   0  0  0  0  0  0  0  0  0  0  0  0
   45.5800   34.0850   45.5270 C   0  0  0  0  0  0  0  0  0  0  0  0
   44.6920   35.0950   45.7380 N   0  0  0  0  0  0  0  0  0  0  0  0
   46.6470   34.6930   42.0490 N   0  0  0  0  0  0  0  0  0  0  0  0
   47.8960   35.2020   41.9380 C   0  0  0  0  0  0  0  0  0  0  0  0
   48.5260   35.0830   40.6980 C   0  0  0  0  0  0  0  0  0  0  0  0
   47.8600   34.4710   39.6740 C   0  0  0  0  0  0  0  0  0  0  0  0
   48.4530   34.3740   38.5530 O   0  0  0  0  0  0  0  0  0  0  0  0
   46.6140   33.9620   39.7790 N   0  0  0  0  0  0  0  0  0  0  0  0
   46.0450   34.1010   41.0010 C   0  0  0  0  0  0  0  0  0  0  0  0
   44.8970   33.6670   41.2040 O   0  0  0  0  0  0  0  0  0  0  0  0
   45.9400   33.0700   46.5130 C   0  0  0  0  0  0  0  0  0  0  0  0
   46.9160   32.1020   46.7190 C   0  0  0  0  0  0  0  0  0  0  0  0
   46.5820   31.5110   47.9270 C   0  0  0  0  0  0  0  0  0  0  0  0
   45.4300   32.1340   48.4030 C   0  0  0  0  0  0  0  0  0  0  0  0
   45.1090   33.0360   47.5280 O   0  0  0  0  0  0  0  0  0  0  0  0
   43.7301   36.7909   44.8979 H   0  0  0  0  0  0  0  0  0  0  0  0
   44.8942   36.5599   42.6849 H   0  0  0  0  0  0  0  0  0  0  0  0
   48.3940   35.6891   42.7893 H   0  0  0  0  0  0  0  0  0  0  0  0
   49.5425   35.4757   40.5477 H   0  0  0  0  0  0  0  0  0  0  0  0
   46.1333   33.5037   38.9917 H   0  0  0  0  0  0  0  0  0  0  0  0
   47.7671   31.8584   46.0661 H   0  0  0  0  0  0  0  0  0  0  0  0
   47.1290   30.6951   48.4222 H   0  0  0  0  0  0  0  0  0  0  0  0
   44.8972   31.9055   49.3378 H   0  0  0  0  0  0  0  0  0  0  0  0
  1  6  2  0
  2  1  1  0
  3  2  2  0
  3  4  1  0
  4  5  2  0
  5  6  1  0
  5 15  1  0
  7  3  1  0
  8  7  1  0
  9  8  2  0
 10 12  1  0
 10  9  1  0
 11 10  2  0
 12 13  1  0
 13 14  2  0
 13  7  1  0
 15 16  2  0
 15 19  1  0
 16 17  1  0
 17 18  2  0
 19 18  1  0
  1 20  1  0
  2 21  1  0
  8 22  1  0
  9 23  1  0
 12 24  1  0
 16 25  1  0
 17 26  1  0
 18 27  1  0
M  ISO  8  20  14  21  14  22  14  23  14  24   9  25  14  26  14  27  14
M  END
>  <minimizedAffinity>  (1) 
-6.3377471

>  <minimizedRMSD>  (1) 
0.223845139

$$$$
