
     RDKit          3D

 37 40  0  0  1  0  0  0  0  0999 V2000
   47.0940   32.9620   43.2320 C   0  0  0  0  0  0  0  0  0  0  0  0
   47.5090   31.9170   44.0440 C   0  0  0  0  0  0  0  0  0  0  0  0
   47.1040   31.7900   45.3640 C   0  0  0  0  0  0  0  0  0  0  0  0
   46.2530   32.7210   45.9340 C   0  0  0  0  0  0  0  0  0  0  0  0
   45.8250   33.7660   45.1560 C   0  0  0  0  0  0  0  0  0  0  0  0
   44.9750   34.7120   45.6890 C   0  0  0  0  0  0  0  0  0  0  0  0
   44.5100   35.7770   44.9690 C   0  0  0  0  0  0  0  0  0  0  0  0
   44.9310   35.8690   43.6720 C   0  0  0  0  0  0  0  0  0  0  0  0
   45.7860   34.9170   43.1360 C   0  0  0  0  0  0  0  0  0  0  0  0
   46.2550   33.8450   43.8580 C   0  0  0  0  0  0  0  0  0  0  0  0
   46.1520   35.1200   41.7810 N   0  0  0  0  0  0  0  0  0  0  0  0
   47.5430   33.0340   41.8990 N   0  0  0  0  0  0  0  0  0  0  0  0
   49.9390   32.6010   41.1470 C   0  0  1  0  0  0  0  0  0  0  0  0
   49.0260   32.3950   39.9570 C   0  0  0  0  0  0  0  0  0  0  0  0
   48.5750   32.1740   41.4050 C   0  0  2  0  0  0  0  0  0  0  0  0
   53.0680   30.6780   40.5570 C   0  0  0  0  0  0  0  0  0  0  0  0
   53.1060   29.8360   41.7100 C   0  0  0  0  0  0  0  0  0  0  0  0
   52.0580   29.9660   42.6600 C   0  0  0  0  0  0  0  0  0  0  0  0
   51.0750   30.8570   42.4560 N   0  0  0  0  0  0  0  0  0  0  0  0
   51.0730   31.6400   41.3460 C   0  0  0  0  0  0  0  0  0  0  0  0
   52.0650   31.5560   40.3970 N   0  0  0  0  0  0  0  0  0  0  0  0
   48.1864   31.1588   43.6241 H   0  0  0  0  0  0  0  0  0  0  0  0
   47.4626   30.9408   45.9642 H   0  0  0  0  0  0  0  0  0  0  0  0
   45.9293   32.6254   46.9809 H   0  0  0  0  0  0  0  0  0  0  0  0
   44.6580   34.6053   46.7369 H   0  0  0  0  0  0  0  0  0  0  0  0
   43.8317   36.5218   45.4109 H   0  0  0  0  0  0  0  0  0  0  0  0
   44.5884   36.7066   43.0466 H   0  0  0  0  0  0  0  0  0  0  0  0
   46.7842   34.4549   41.3131 H   0  0  0  0  0  0  0  0  0  0  0  0
   45.7856   35.9325   41.2648 H   0  0  0  0  0  0  0  0  0  0  0  0
   47.1176   33.7235   41.2630 H   0  0  0  0  0  0  0  0  0  0  0  0
   50.5518   33.4358   41.5178 H   0  0  0  0  0  0  0  0  0  0  0  0
   48.6552   33.2564   39.3821 H   0  0  0  0  0  0  0  0  0  0  0  0
   49.0477   31.8012   39.0313 H   0  0  0  0  0  0  0  0  0  0  0  0
   48.1710   31.3547   42.0179 H   0  0  0  0  0  0  0  0  0  0  0  0
   53.8618   30.6070   39.7988 H   0  0  0  0  0  0  0  0  0  0  0  0
   53.9199   29.1108   41.8575 H   0  0  0  0  0  0  0  0  0  0  0  0
   52.0520   29.3369   43.5623 H   0  0  0  0  0  0  0  0  0  0  0  0
  1 10  1  0
  1  2  2  0
  2  3  1  0
  3  4  2  0
  5  6  2  0
  5  4  1  0
  7  6  1  0
  8  7  2  0
  9  8  1  0
  9 10  2  0
 10  5  1  0
 11  9  1  0
 12  1  1  0
 13 20  1  0
 13 15  1  0
 14 13  1  0
 14 15  1  0
 15 12  1  0
 16 17  2  0
 17 18  1  0
 19 18  2  0
 20 19  1  0
 21 16  1  0
 21 20  2  0
  2 22  1  0
  3 23  1  0
  4 24  1  0
  6 25  1  0
  7 26  1  0
  8 27  1  0
 11 28  1  0
 11 29  1  0
 12 30  1  0
 13 31  1  1
 14 32  1  0
 14 33  1  0
 15 34  1  6
 16 35  1  0
 17 36  1  0
 18 37  1  0
M  ISO  8  22  14  23  14  24  14  25  14  26  14  27  14  31  13  32  13
M  ISO  5  33  13  34  13  35  14  36  14  37  14
M  END
>  <minimizedAffinity>  (1) 
-4.86286831

>  <minimizedRMSD>  (1) 
1.96908808

$$$$
