
     RDKit          3D

 21 22  0  0  0  0  0  0  0  0999 V2000
   46.5540   34.7290   42.0380 N   0  0  0  0  0  0  0  0  0  0  0  0
   47.8390   35.1610   41.9470 C   0  0  0  0  0  0  0  0  0  0  0  0
   48.4970   35.0110   40.7240 C   0  0  0  0  0  0  0  0  0  0  0  0
   47.8120   34.4390   39.6870 C   0  0  0  0  0  0  0  0  0  0  0  0
   48.4170   34.3030   38.5710 O   0  0  0  0  0  0  0  0  0  0  0  0
   46.5360   34.0060   39.7690 N   0  0  0  0  0  0  0  0  0  0  0  0
   45.9550   34.1790   40.9770 C   0  0  0  0  0  0  0  0  0  0  0  0
   44.7680   33.8120   41.1600 O   0  0  0  0  0  0  0  0  0  0  0  0
   44.5240   36.2210   44.7370 C   0  0  0  0  0  0  0  0  0  0  0  0
   45.1780   36.0770   43.4830 C   0  0  0  0  0  0  0  0  0  0  0  0
   45.8970   34.8860   43.2830 C   0  0  0  0  0  0  0  0  0  0  0  0
   45.9200   33.9680   44.2820 N   0  0  0  0  0  0  0  0  0  0  0  0
   45.2900   34.1400   45.4480 C   0  0  0  0  0  0  0  0  0  0  0  0
   44.5840   35.2720   45.6880 N   0  0  0  0  0  0  0  0  0  0  0  0
   45.4720   33.0490   46.2980 O   0  0  0  0  0  0  0  0  0  0  0  0
   48.3462   35.6154   42.8109 H   0  0  0  0  0  0  0  0  0  0  0  0
   49.5379   35.3438   40.5981 H   0  0  0  0  0  0  0  0  0  0  0  0
   46.0433   33.5770   38.9727 H   0  0  0  0  0  0  0  0  0  0  0  0
   43.9504   37.1383   44.9359 H   0  0  0  0  0  0  0  0  0  0  0  0
   45.1241   36.8572   42.7094 H   0  0  0  0  0  0  0  0  0  0  0  0
   45.0572   33.0472   47.1969 H   0  0  0  0  0  0  0  0  0  0  0  0
  1 11  1  0
  2  1  1  0
  3  2  2  0
  4  6  1  0
  4  3  1  0
  5  4  2  0
  6  7  1  0
  7  8  2  0
  7  1  1  0
  9 14  2  0
 10  9  1  0
 11 10  2  0
 11 12  1  0
 12 13  2  0
 13 14  1  0
 13 15  1  0
  2 16  1  0
  3 17  1  0
  6 18  1  0
  9 19  1  0
 10 20  1  0
 15 21  1  0
M  ISO  6  16  14  17  14  18   9  19  14  20  14  21   3
M  END
>  <minimizedAffinity>  (1) 
-5.43327188

>  <minimizedRMSD>  (1) 
0.151032418

$$$$
