
     RDKit          3D

 21 22  0  0  0  0  0  0  0  0999 V2000
   46.6820   34.6830   42.0320 N   0  0  0  0  0  0  0  0  0  0  0  0
   47.9230   35.2070   41.9150 C   0  0  0  0  0  0  0  0  0  0  0  0
   48.5630   35.1280   40.6860 C   0  0  0  0  0  0  0  0  0  0  0  0
   47.9070   34.5240   39.6480 C   0  0  0  0  0  0  0  0  0  0  0  0
   48.4950   34.4520   38.5230 O   0  0  0  0  0  0  0  0  0  0  0  0
   46.6720   33.9980   39.7490 N   0  0  0  0  0  0  0  0  0  0  0  0
   46.1030   34.1050   40.9690 C   0  0  0  0  0  0  0  0  0  0  0  0
   44.9540   33.6470   41.1670 O   0  0  0  0  0  0  0  0  0  0  0  0
   44.5160   35.9300   44.7580 C   0  0  0  0  0  0  0  0  0  0  0  0
   45.1610   35.8430   43.5000 C   0  0  0  0  0  0  0  0  0  0  0  0
   46.0360   34.7690   43.2950 C   0  0  0  0  0  0  0  0  0  0  0  0
   46.2220   33.8700   44.2980 N   0  0  0  0  0  0  0  0  0  0  0  0
   45.5920   33.9850   45.4780 C   0  0  0  0  0  0  0  0  0  0  0  0
   44.7390   35.0030   45.7270 N   0  0  0  0  0  0  0  0  0  0  0  0
   45.8470   32.7930   46.7920 S   0  0  0  0  0  0  0  0  0  0  0  0
   48.4145   35.6854   42.7750 H   0  0  0  0  0  0  0  0  0  0  0  0
   49.5734   35.5410   40.5496 H   0  0  0  0  0  0  0  0  0  0  0  0
   46.1962   33.5472   38.9545 H   0  0  0  0  0  0  0  0  0  0  0  0
   43.8231   36.7615   44.9542 H   0  0  0  0  0  0  0  0  0  0  0  0
   44.9814   36.5909   42.7136 H   0  0  0  0  0  0  0  0  0  0  0  0
   45.7139   33.4153   48.0052 H   0  0  0  0  0  0  0  0  0  0  0  0
  1 11  1  0
  2  1  1  0
  3  2  2  0
  4  6  1  0
  4  3  1  0
  5  4  2  0
  6  7  1  0
  7  8  2  0
  7  1  1  0
  9 14  2  0
 10  9  1  0
 11 10  2  0
 11 12  1  0
 12 13  2  0
 13 14  1  0
 13 15  1  0
  2 16  1  0
  3 17  1  0
  6 18  1  0
  9 19  1  0
 10 20  1  0
 15 21  1  0
M  ISO  6  16  14  17  14  18   9  19  14  20  14  21  11
M  END
>  <minimizedAffinity>  (1) 
-5.3070159

>  <minimizedRMSD>  (1) 
0.104838721

$$$$
