
     RDKit          3D

 43 45  0  0  1  0  0  0  0  0999 V2000
   44.5070   35.6900   44.7620 C   0  0  0  0  0  0  0  0  0  0  0  0
   45.1260   35.6510   43.4950 C   0  0  0  0  0  0  0  0  0  0  0  0
   46.1400   34.7110   43.2940 C   0  0  0  0  0  0  0  0  0  0  0  0
   46.4860   33.8720   44.3340 N   0  0  0  0  0  0  0  0  0  0  0  0
   45.8500   33.9650   45.5220 C   0  0  0  0  0  0  0  0  0  0  0  0
   44.8680   34.8550   45.7580 N   0  0  0  0  0  0  0  0  0  0  0  0
   46.7620   34.6710   42.0250 N   0  0  0  0  0  0  0  0  0  0  0  0
   47.9620   35.2490   41.8670 C   0  0  0  0  0  0  0  0  0  0  0  0
   48.5760   35.2120   40.6180 C   0  0  0  0  0  0  0  0  0  0  0  0
   47.9170   34.5770   39.6000 C   0  0  0  0  0  0  0  0  0  0  0  0
   48.4850   34.5450   38.4560 O   0  0  0  0  0  0  0  0  0  0  0  0
   46.7140   33.9860   39.7260 N   0  0  0  0  0  0  0  0  0  0  0  0
   46.1820   34.0640   40.9610 C   0  0  0  0  0  0  0  0  0  0  0  0
   45.0600   33.5450   41.1890 O   0  0  0  0  0  0  0  0  0  0  0  0
   46.4220   32.9450   46.4560 C   0  0  0  0  0  0  0  0  0  0  0  0
   45.4690   32.6440   47.5820 C   0  0  0  0  0  0  0  0  0  0  0  0
   46.7570   30.8070   48.7270 C   0  0  1  0  0  0  0  0  0  0  0  0
   45.5040   31.2050   48.0420 C   0  0  2  0  0  0  0  0  0  0  0  0
   45.1690   30.3950   46.9340 O   0  0  0  0  0  0  0  0  0  0  0  0
   45.1950   29.0890   47.4190 C   0  0  0  0  0  0  0  0  0  0  0  0
   46.6560   28.6850   47.3930 C   0  0  2  0  0  0  0  0  0  0  0  0
   47.5360   29.7320   48.0240 C   0  0  2  0  0  0  0  0  0  0  0  0
   47.5820   31.8760   49.0680 O   0  0  0  0  0  0  0  0  0  0  0  0
   46.9970   28.4580   46.0640 O   0  0  0  0  0  0  0  0  0  0  0  0
   48.4320   29.0930   48.8780 O   0  0  0  0  0  0  0  0  0  0  0  0
   43.7067   36.4226   44.9430 H   0  0  0  0  0  0  0  0  0  0  0  0
   44.8205   36.3378   42.6919 H   0  0  0  0  0  0  0  0  0  0  0  0
   48.4555   35.7467   42.7148 H   0  0  0  0  0  0  0  0  0  0  0  0
   49.5589   35.6780   40.4545 H   0  0  0  0  0  0  0  0  0  0  0  0
   46.2399   33.5135   38.9432 H   0  0  0  0  0  0  0  0  0  0  0  0
   46.6216   32.0187   45.8973 H   0  0  0  0  0  0  0  0  0  0  0  0
   47.3520   33.3471   46.8844 H   0  0  0  0  0  0  0  0  0  0  0  0
   45.7268   33.2875   48.4360 H   0  0  0  0  0  0  0  0  0  0  0  0
   44.4542   32.8346   47.2027 H   0  0  0  0  0  0  0  0  0  0  0  0
   46.3924   30.3674   49.6671 H   0  0  0  0  0  0  0  0  0  0  0  0
   44.7595   31.0644   48.8395 H   0  0  0  0  0  0  0  0  0  0  0  0
   44.8023   29.0508   48.4458 H   0  0  0  0  0  0  0  0  0  0  0  0
   44.5706   28.4136   46.8157 H   0  0  0  0  0  0  0  0  0  0  0  0
   46.8095   27.7721   47.9871 H   0  0  0  0  0  0  0  0  0  0  0  0
   48.0871   30.2574   47.2301 H   0  0  0  0  0  0  0  0  0  0  0  0
   47.6379   31.9484   50.0538 H   0  0  0  0  0  0  0  0  0  0  0  0
   47.8204   27.9099   46.0236 H   0  0  0  0  0  0  0  0  0  0  0  0
   48.1784   29.2739   49.8177 H   0  0  0  0  0  0  0  0  0  0  0  0
  1  6  2  0
  2  1  1  0
  3  2  2  0
  3  4  1  0
  4  5  2  0
  5  6  1  0
  5 15  1  0
  7  3  1  0
  8  7  1  0
  9  8  2  0
 10 12  1  0
 10  9  1  0
 11 10  2  0
 12 13  1  0
 13 14  2  0
 13  7  1  0
 15 16  1  0
 17 23  1  0
 18 16  1  0
 18 17  1  0
 19 20  1  0
 19 18  1  0
 21 24  1  0
 21 20  1  0
 21 22  1  0
 22 17  1  0
 22 25  1  0
  1 26  1  0
  2 27  1  0
  8 28  1  0
  9 29  1  0
 12 30  1  0
 15 31  1  0
 15 32  1  0
 16 33  1  0
 16 34  1  0
 17 35  1  1
 18 36  1  1
 20 37  1  0
 20 38  1  0
 21 39  1  1
 22 40  1  6
 23 41  1  0
 24 42  1  0
 25 43  1  0
M  ISO  8  26  14  27  14  28  14  29  14  30   9  31   8  32   8  33   8
M  ISO  8  34   8  35  13  36  13  37  13  38  13  39  13  40  13  41   3
M  ISO  2  42   3  43   3
M  END
>  <minimizedAffinity>  (1) 
-6.81038523

>  <minimizedRMSD>  (1) 
1.03787768

$$$$
