
     RDKit          3D

 32 33  0  0  0  0  0  0  0  0999 V2000
   44.6760   35.6410   44.9230 C   0  0  0  0  0  0  0  0  0  0  0  0
   45.2890   35.6700   43.6410 C   0  0  0  0  0  0  0  0  0  0  0  0
   46.1170   34.5890   43.3210 C   0  0  0  0  0  0  0  0  0  0  0  0
   46.2930   33.5750   44.2370 N   0  0  0  0  0  0  0  0  0  0  0  0
   45.6860   33.6050   45.4320 C   0  0  0  0  0  0  0  0  0  0  0  0
   44.8710   34.6290   45.7970 N   0  0  0  0  0  0  0  0  0  0  0  0
   46.7440   34.5940   42.0440 N   0  0  0  0  0  0  0  0  0  0  0  0
   47.9610   35.1770   41.9390 C   0  0  0  0  0  0  0  0  0  0  0  0
   48.5850   35.1880   40.6940 C   0  0  0  0  0  0  0  0  0  0  0  0
   47.9340   34.6130   39.6490 C   0  0  0  0  0  0  0  0  0  0  0  0
   48.5050   34.6220   38.4990 O   0  0  0  0  0  0  0  0  0  0  0  0
   46.7260   34.0300   39.7310 N   0  0  0  0  0  0  0  0  0  0  0  0
   46.1660   34.0470   40.9610 C   0  0  0  0  0  0  0  0  0  0  0  0
   45.0540   33.5410   41.1670 O   0  0  0  0  0  0  0  0  0  0  0  0
   46.0400   32.4020   46.2240 C   0  0  0  0  0  0  0  0  0  0  0  0
   46.2420   32.7610   47.6890 C   0  0  0  0  0  0  0  0  0  0  0  0
   47.5840   32.7080   47.9810 O   0  0  0  0  0  0  0  0  0  0  0  0
   49.1960   31.5010   49.5950 O   0  0  0  0  0  0  0  0  0  0  0  0
   48.0380   31.2410   48.6860 P   0  0  0  0  0  0  0  0  0  0  0  0
   46.7420   30.7030   49.6210 O   0  0  0  0  0  0  0  0  0  0  0  0
   48.5150   30.1130   47.5280 O   0  0  0  0  0  0  0  0  0  0  0  0
   44.0184   36.4732   45.2145 H   0  0  0  0  0  0  0  0  0  0  0  0
   45.1211   36.4988   42.9376 H   0  0  0  0  0  0  0  0  0  0  0  0
   48.4455   35.6312   42.8159 H   0  0  0  0  0  0  0  0  0  0  0  0
   49.5751   35.6483   40.5606 H   0  0  0  0  0  0  0  0  0  0  0  0
   46.2616   33.6022   38.9173 H   0  0  0  0  0  0  0  0  0  0  0  0
   45.2283   31.6642   46.1419 H   0  0  0  0  0  0  0  0  0  0  0  0
   46.9781   31.9837   45.8304 H   0  0  0  0  0  0  0  0  0  0  0  0
   45.8637   33.7769   47.8755 H   0  0  0  0  0  0  0  0  0  0  0  0
   45.6945   32.0499   48.3251 H   0  0  0  0  0  0  0  0  0  0  0  0
   46.9664   30.7961   50.5807 H   0  0  0  0  0  0  0  0  0  0  0  0
   48.8582   29.3015   47.9795 H   0  0  0  0  0  0  0  0  0  0  0  0
  1  6  2  0
  2  1  1  0
  3  2  2  0
  3  4  1  0
  4  5  2  0
  5  6  1  0
  5 15  1  0
  7  3  1  0
  8  7  1  0
  9  8  2  0
 10 12  1  0
 10  9  1  0
 11 10  2  0
 12 13  1  0
 13 14  2  0
 13  7  1  0
 15 16  1  0
 16 17  1  0
 17 19  1  0
 19 18  2  0
 19 20  1  0
 21 19  1  0
  1 22  1  0
  2 23  1  0
  8 24  1  0
  9 25  1  0
 12 26  1  0
 15 27  1  0
 15 28  1  0
 16 29  1  0
 16 30  1  0
 20 31  1  0
 21 32  1  0
M  ISO  8  22  14  23  14  24  14  25  14  26   9  27   8  28   8  29   8
M  ISO  3  30   8  31   3  32   3
M  END
>  <minimizedAffinity>  (1) 
-5.87034225

>  <minimizedRMSD>  (1) 
1.84746349

$$$$
