
     RDKit          3D

 28 29  0  0  0  0  0  0  0  0999 V2000
   44.4910   35.8550   44.8560 C   0  0  0  0  0  0  0  0  0  0  0  0
   45.1220   35.7840   43.5820 C   0  0  0  0  0  0  0  0  0  0  0  0
   46.0320   34.7370   43.3710 C   0  0  0  0  0  0  0  0  0  0  0  0
   46.2600   33.8480   44.3940 N   0  0  0  0  0  0  0  0  0  0  0  0
   45.6340   33.9680   45.5740 C   0  0  0  0  0  0  0  0  0  0  0  0
   44.7500   34.9600   45.8210 N   0  0  0  0  0  0  0  0  0  0  0  0
   46.6640   34.6550   42.1140 N   0  0  0  0  0  0  0  0  0  0  0  0
   47.8870   35.1650   41.9730 C   0  0  0  0  0  0  0  0  0  0  0  0
   48.5110   35.0840   40.7310 C   0  0  0  0  0  0  0  0  0  0  0  0
   47.8340   34.4810   39.7080 C   0  0  0  0  0  0  0  0  0  0  0  0
   48.4180   34.4140   38.5770 O   0  0  0  0  0  0  0  0  0  0  0  0
   46.6040   33.9590   39.8190 N   0  0  0  0  0  0  0  0  0  0  0  0
   46.0460   34.0680   41.0500 C   0  0  0  0  0  0  0  0  0  0  0  0
   44.8930   33.6140   41.2730 O   0  0  0  0  0  0  0  0  0  0  0  0
   46.0680   32.8790   46.4970 C   0  0  0  0  0  0  0  0  0  0  0  0
   45.0860   32.6970   47.6400 C   0  0  0  0  0  0  0  0  0  0  0  0
   45.8380   32.8490   48.8690 N   0  0  0  0  0  0  0  0  0  0  0  0
   43.7728   36.6643   45.0542 H   0  0  0  0  0  0  0  0  0  0  0  0
   44.9049   36.5205   42.7944 H   0  0  0  0  0  0  0  0  0  0  0  0
   48.3952   35.6422   42.8239 H   0  0  0  0  0  0  0  0  0  0  0  0
   49.5202   35.4937   40.5773 H   0  0  0  0  0  0  0  0  0  0  0  0
   46.1197   33.5093   39.0290 H   0  0  0  0  0  0  0  0  0  0  0  0
   46.1379   31.9378   45.9320 H   0  0  0  0  0  0  0  0  0  0  0  0
   47.0452   33.1536   46.9208 H   0  0  0  0  0  0  0  0  0  0  0  0
   44.2948   33.4591   47.5839 H   0  0  0  0  0  0  0  0  0  0  0  0
   44.6050   31.7089   47.5923 H   0  0  0  0  0  0  0  0  0  0  0  0
   45.2088   32.7218   49.6745 H   0  0  0  0  0  0  0  0  0  0  0  0
   46.5865   32.1423   48.9031 H   0  0  0  0  0  0  0  0  0  0  0  0
  1  6  2  0
  2  1  1  0
  3  2  2  0
  3  4  1  0
  4  5  2  0
  5  6  1  0
  5 15  1  0
  7  3  1  0
  8  7  1  0
  9  8  2  0
 10 12  1  0
 10  9  1  0
 11 10  2  0
 12 13  1  0
 13 14  2  0
 13  7  1  0
 15 16  1  0
 16 17  1  0
  1 18  1  0
  2 19  1  0
  8 20  1  0
  9 21  1  0
 12 22  1  0
 15 23  1  0
 15 24  1  0
 16 25  1  0
 16 26  1  0
 17 27  1  0
 17 28  1  0
M  ISO  8  18  14  19  14  20  14  21  14  22   9  23   8  24   8  25   8
M  ISO  3  26   8  27   5  28   5
M  END
>  <minimizedAffinity>  (1) 
-5.64690828

>  <minimizedRMSD>  (1) 
0.299132735

$$$$
