
     RDKit          3D

 42 44  0  0  0  0  0  0  0  0999 V2000
   44.5210   35.5850   44.8520 C   0  0  0  0  0  0  0  0  0  0  0  0
   45.1100   35.5590   43.5710 C   0  0  0  0  0  0  0  0  0  0  0  0
   46.1440   34.6450   43.3730 C   0  0  0  0  0  0  0  0  0  0  0  0
   46.5240   33.8380   44.4180 N   0  0  0  0  0  0  0  0  0  0  0  0
   45.9320   33.9060   45.6110 C   0  0  0  0  0  0  0  0  0  0  0  0
   44.9150   34.7820   45.8550 N   0  0  0  0  0  0  0  0  0  0  0  0
   46.7560   34.5980   42.0870 N   0  0  0  0  0  0  0  0  0  0  0  0
   47.9430   35.2110   41.9300 C   0  0  0  0  0  0  0  0  0  0  0  0
   48.5400   35.1630   40.6720 C   0  0  0  0  0  0  0  0  0  0  0  0
   47.9040   34.5090   39.6690 C   0  0  0  0  0  0  0  0  0  0  0  0
   48.4750   34.4830   38.5270 O   0  0  0  0  0  0  0  0  0  0  0  0
   46.7200   33.8930   39.8090 N   0  0  0  0  0  0  0  0  0  0  0  0
   46.1830   33.9690   41.0520 C   0  0  0  0  0  0  0  0  0  0  0  0
   45.0750   33.4270   41.2950 O   0  0  0  0  0  0  0  0  0  0  0  0
   46.5350   32.9250   46.5580 C   0  0  0  0  0  0  0  0  0  0  0  0
   45.4600   32.1510   47.2980 C   0  0  0  0  0  0  0  0  0  0  0  0
   45.0300   29.7770   47.5370 C   0  0  0  0  0  0  0  0  0  0  0  0
   44.9860   29.9660   48.7660 O   0  0  0  0  0  0  0  0  0  0  0  0
   45.2950   30.8570   46.6920 N   0  0  0  0  0  0  0  0  0  0  0  0
   44.8090   28.4700   47.0200 N   0  0  0  0  0  0  0  0  0  0  0  0
   43.9810   28.0900   45.8910 C   0  0  0  0  0  0  0  0  0  0  0  0
   43.2310   26.9010   46.4790 C   0  0  0  0  0  0  0  0  0  0  0  0
   44.0730   26.4020   47.6410 C   0  0  0  0  0  0  0  0  0  0  0  0
   45.3530   27.2100   47.4900 C   0  0  0  0  0  0  0  0  0  0  0  0
   43.7017   36.2949   45.0388 H   0  0  0  0  0  0  0  0  0  0  0  0
   44.7699   36.2278   42.7666 H   0  0  0  0  0  0  0  0  0  0  0  0
   48.4270   35.7336   42.7682 H   0  0  0  0  0  0  0  0  0  0  0  0
   49.5115   35.6478   40.4955 H   0  0  0  0  0  0  0  0  0  0  0  0
   46.2552   33.4007   39.0327 H   0  0  0  0  0  0  0  0  0  0  0  0
   47.1622   32.2192   45.9936 H   0  0  0  0  0  0  0  0  0  0  0  0
   47.1397   33.4751   47.2940 H   0  0  0  0  0  0  0  0  0  0  0  0
   45.7561   32.0276   48.3502 H   0  0  0  0  0  0  0  0  0  0  0  0
   44.5101   32.7032   47.2457 H   0  0  0  0  0  0  0  0  0  0  0  0
   45.3695   30.7315   45.6724 H   0  0  0  0  0  0  0  0  0  0  0  0
   44.5893   27.7965   45.0227 H   0  0  0  0  0  0  0  0  0  0  0  0
   43.3348   28.8934   45.5075 H   0  0  0  0  0  0  0  0  0  0  0  0
   42.2381   27.2141   46.8342 H   0  0  0  0  0  0  0  0  0  0  0  0
   43.0771   26.1125   45.7276 H   0  0  0  0  0  0  0  0  0  0  0  0
   43.5836   26.6086   48.6042 H   0  0  0  0  0  0  0  0  0  0  0  0
   44.2367   25.3143   47.6290 H   0  0  0  0  0  0  0  0  0  0  0  0
   46.0339   26.7601   46.7525 H   0  0  0  0  0  0  0  0  0  0  0  0
   45.9623   27.2830   48.4029 H   0  0  0  0  0  0  0  0  0  0  0  0
  1  6  2  0
  2  1  1  0
  3  2  2  0
  3  4  1  0
  4  5  2  0
  5  6  1  0
  5 15  1  0
  7  3  1  0
  8  7  1  0
  9  8  2  0
 10 12  1  0
 10  9  1  0
 11 10  2  0
 12 13  1  0
 13 14  2  0
 13  7  1  0
 15 16  1  0
 17 18  2  0
 19 16  1  0
 19 17  1  0
 20 24  1  0
 20 17  1  0
 21 22  1  0
 21 20  1  0
 22 23  1  0
 24 23  1  0
  1 25  1  0
  2 26  1  0
  8 27  1  0
  9 28  1  0
 12 29  1  0
 15 30  1  0
 15 31  1  0
 16 32  1  0
 16 33  1  0
 19 34  1  0
 21 35  1  0
 21 36  1  0
 22 37  1  0
 22 38  1  0
 23 39  1  0
 23 40  1  0
 24 41  1  0
 24 42  1  0
M  ISO  8  25  14  26  14  27  14  28  14  29   9  30   8  31   8  32   8
M  ISO  8  33   8  35  13  36  13  37  13  38  13  39  13  40  13  41  13
M  ISO  1  42  13
M  END
>  <minimizedAffinity>  (1) 
-6.47306108

>  <minimizedRMSD>  (1) 
1.61605716

$$$$
