
     RDKit          3D

 32 33  0  0  0  0  0  0  0  0999 V2000
   44.5040   35.8260   44.8460 C   0  0  0  0  0  0  0  0  0  0  0  0
   45.1160   35.7680   43.5760 C   0  0  0  0  0  0  0  0  0  0  0  0
   46.0090   34.7390   43.3610 C   0  0  0  0  0  0  0  0  0  0  0  0
   46.2540   33.8370   44.3810 N   0  0  0  0  0  0  0  0  0  0  0  0
   45.6400   33.9460   45.5670 C   0  0  0  0  0  0  0  0  0  0  0  0
   44.7600   34.9330   45.8240 N   0  0  0  0  0  0  0  0  0  0  0  0
   46.6440   34.6530   42.0890 N   0  0  0  0  0  0  0  0  0  0  0  0
   47.8810   35.1680   41.9580 C   0  0  0  0  0  0  0  0  0  0  0  0
   48.5180   35.0920   40.7160 C   0  0  0  0  0  0  0  0  0  0  0  0
   47.8380   34.4890   39.6860 C   0  0  0  0  0  0  0  0  0  0  0  0
   48.4300   34.4300   38.5690 O   0  0  0  0  0  0  0  0  0  0  0  0
   46.6070   33.9730   39.8020 N   0  0  0  0  0  0  0  0  0  0  0  0
   46.0490   34.0780   41.0260 C   0  0  0  0  0  0  0  0  0  0  0  0
   44.8980   33.6300   41.2540 O   0  0  0  0  0  0  0  0  0  0  0  0
   46.0820   32.8480   46.4800 C   0  0  0  0  0  0  0  0  0  0  0  0
   45.1810   32.7800   47.6980 C   0  0  0  0  0  0  0  0  0  0  0  0
   45.4200   30.5720   48.7850 C   0  0  0  0  0  0  0  0  0  0  0  0
   46.3540   31.1220   49.4320 O   0  0  0  0  0  0  0  0  0  0  0  0
   44.7440   31.4120   47.8650 N   0  0  0  0  0  0  0  0  0  0  0  0
   45.0720   29.1990   48.9680 N   0  0  0  0  0  0  0  0  0  0  0  0
   43.7865   36.6351   45.0474 H   0  0  0  0  0  0  0  0  0  0  0  0
   44.8915   36.5085   42.7942 H   0  0  0  0  0  0  0  0  0  0  0  0
   48.3826   35.6412   42.8150 H   0  0  0  0  0  0  0  0  0  0  0  0
   49.5285   35.5008   40.5686 H   0  0  0  0  0  0  0  0  0  0  0  0
   46.1202   33.5270   39.0114 H   0  0  0  0  0  0  0  0  0  0  0  0
   46.0379   31.8894   45.9423 H   0  0  0  0  0  0  0  0  0  0  0  0
   47.1123   33.0494   46.8085 H   0  0  0  0  0  0  0  0  0  0  0  0
   45.7368   33.1042   48.5901 H   0  0  0  0  0  0  0  0  0  0  0  0
   44.3122   33.4411   47.5635 H   0  0  0  0  0  0  0  0  0  0  0  0
   43.9481   31.0509   47.3200 H   0  0  0  0  0  0  0  0  0  0  0  0
   44.3033   28.7853   48.4214 H   0  0  0  0  0  0  0  0  0  0  0  0
   45.5897   28.6225   49.6466 H   0  0  0  0  0  0  0  0  0  0  0  0
  1  6  2  0
  2  1  1  0
  3  2  2  0
  3  4  1  0
  4  5  2  0
  5  6  1  0
  5 15  1  0
  7  3  1  0
  8  7  1  0
  9  8  2  0
 10 12  1  0
 10  9  1  0
 11 10  2  0
 12 13  1  0
 13 14  2  0
 13  7  1  0
 15 16  1  0
 16 19  1  0
 17 20  1  0
 17 18  2  0
 19 17  1  0
  1 21  1  0
  2 22  1  0
  8 23  1  0
  9 24  1  0
 12 25  1  0
 15 26  1  0
 15 27  1  0
 16 28  1  0
 16 29  1  0
 19 30  1  0
 20 31  1  0
 20 32  1  0
M  ISO  8  21  14  22  14  23  14  24  14  25   9  26   8  27   8  28   8
M  ISO  1  29   8
M  END
>  <minimizedAffinity>  (1) 
-6.35770559

>  <minimizedRMSD>  (1) 
0.146908954

$$$$
