
     RDKit          3D

 37 39  0  0  0  0  0  0  0  0999 V2000
   44.5300   35.6230   44.8120 C   0  0  0  0  0  0  0  0  0  0  0  0
   45.1280   35.5970   43.5320 C   0  0  0  0  0  0  0  0  0  0  0  0
   46.1570   34.6700   43.3370 C   0  0  0  0  0  0  0  0  0  0  0  0
   46.5190   33.8540   44.3770 N   0  0  0  0  0  0  0  0  0  0  0  0
   45.9180   33.9210   45.5700 C   0  0  0  0  0  0  0  0  0  0  0  0
   44.9090   34.8090   45.8110 N   0  0  0  0  0  0  0  0  0  0  0  0
   46.7730   34.6300   42.0520 N   0  0  0  0  0  0  0  0  0  0  0  0
   47.9580   35.2380   41.8990 C   0  0  0  0  0  0  0  0  0  0  0  0
   48.5710   35.2070   40.6500 C   0  0  0  0  0  0  0  0  0  0  0  0
   47.9320   34.5580   39.6430 C   0  0  0  0  0  0  0  0  0  0  0  0
   48.5020   34.5330   38.4930 O   0  0  0  0  0  0  0  0  0  0  0  0
   46.7470   33.9450   39.7790 N   0  0  0  0  0  0  0  0  0  0  0  0
   46.1960   34.0070   41.0170 C   0  0  0  0  0  0  0  0  0  0  0  0
   45.0880   33.4660   41.2530 O   0  0  0  0  0  0  0  0  0  0  0  0
   46.4990   32.9330   46.5110 C   0  0  0  0  0  0  0  0  0  0  0  0
   45.5020   32.5770   47.6030 C   0  0  0  0  0  0  0  0  0  0  0  0
   45.4340   30.1170   47.7250 C   0  0  0  0  0  0  0  0  0  0  0  0
   46.4460   30.2210   48.4400 O   0  0  0  0  0  0  0  0  0  0  0  0
   44.8760   31.3140   47.2660 N   0  0  0  0  0  0  0  0  0  0  0  0
   44.8520   28.8240   47.3800 C   0  0  0  0  0  0  0  0  0  0  0  0
   44.1500   28.5060   46.2370 C   0  0  0  0  0  0  0  0  0  0  0  0
   43.8030   27.1730   46.3580 C   0  0  0  0  0  0  0  0  0  0  0  0
   44.2910   26.7210   47.5440 N   0  0  0  0  0  0  0  0  0  0  0  0
   44.9170   27.7190   48.1460 N   0  0  0  0  0  0  0  0  0  0  0  0
   43.7183   36.3416   44.9986 H   0  0  0  0  0  0  0  0  0  0  0  0
   44.8003   36.2727   42.7283 H   0  0  0  0  0  0  0  0  0  0  0  0
   48.4371   35.7520   42.7453 H   0  0  0  0  0  0  0  0  0  0  0  0
   49.5435   35.6934   40.4837 H   0  0  0  0  0  0  0  0  0  0  0  0
   46.2862   33.4597   38.9960 H   0  0  0  0  0  0  0  0  0  0  0  0
   46.7677   32.0216   45.9567 H   0  0  0  0  0  0  0  0  0  0  0  0
   47.3919   33.3737   46.9785 H   0  0  0  0  0  0  0  0  0  0  0  0
   46.0250   32.4856   48.5664 H   0  0  0  0  0  0  0  0  0  0  0  0
   44.7381   33.3643   47.6846 H   0  0  0  0  0  0  0  0  0  0  0  0
   44.0223   31.2983   46.6899 H   0  0  0  0  0  0  0  0  0  0  0  0
   43.9136   29.1771   45.3981 H   0  0  0  0  0  0  0  0  0  0  0  0
   43.2333   26.5830   45.6250 H   0  0  0  0  0  0  0  0  0  0  0  0
   44.1904   25.7640   47.9113 H   0  0  0  0  0  0  0  0  0  0  0  0
  1  6  2  0
  2  1  1  0
  3  2  2  0
  3  4  1  0
  4  5  2  0
  5  6  1  0
  5 15  1  0
  7  3  1  0
  8  7  1  0
  9  8  2  0
 10 12  1  0
 10  9  1  0
 11 10  2  0
 12 13  1  0
 13 14  2  0
 13  7  1  0
 15 16  1  0
 17 18  2  0
 19 16  1  0
 19 17  1  0
 20 17  1  0
 20 24  2  0
 21 22  2  0
 21 20  1  0
 22 23  1  0
 23 24  1  0
  1 25  1  0
  2 26  1  0
  8 27  1  0
  9 28  1  0
 12 29  1  0
 15 30  1  0
 15 31  1  0
 16 32  1  0
 16 33  1  0
 19 34  1  0
 21 35  1  0
 22 36  1  0
 23 37  1  0
M  ISO  8  25  14  26  14  27  14  28  14  29   9  30   8  31   8  32   8
M  ISO  4  33   8  35  14  36  14  37   9
M  END
>  <minimizedAffinity>  (1) 
-6.28929901

>  <minimizedRMSD>  (1) 
1.11184537

$$$$
