
     RDKit          3D

 36 39  0  0  1  0  0  0  0  0999 V2000
   47.9540   32.9420   42.4330 N   0  0  0  0  0  0  0  0  0  0  0  0
   47.2430   33.0330   43.6490 C   0  0  0  0  0  0  0  0  0  0  0  0
   47.4280   32.0930   44.6310 C   0  0  0  0  0  0  0  0  0  0  0  0
   46.7600   32.1330   45.8450 C   0  0  0  0  0  0  0  0  0  0  0  0
   45.8610   33.1400   46.1230 C   0  0  0  0  0  0  0  0  0  0  0  0
   45.6540   34.0950   45.1590 C   0  0  0  0  0  0  0  0  0  0  0  0
   44.7510   35.1190   45.4110 C   0  0  0  0  0  0  0  0  0  0  0  0
   44.4920   36.1030   44.4970 C   0  0  0  0  0  0  0  0  0  0  0  0
   45.1760   36.0290   43.3020 C   0  0  0  0  0  0  0  0  0  0  0  0
   46.0720   35.0080   43.0580 C   0  0  0  0  0  0  0  0  0  0  0  0
   46.3310   34.0220   43.9740 C   0  0  0  0  0  0  0  0  0  0  0  0
   46.7340   34.9800   41.8410 O   0  0  0  0  0  0  0  0  0  0  0  0
   50.1860   31.7350   42.2950 C   0  0  1  0  0  0  0  0  0  0  0  0
   49.6850   31.9490   40.8840 C   0  0  0  0  0  0  0  0  0  0  0  0
   48.7480   31.8070   42.1050 C   0  0  2  0  0  0  0  0  0  0  0  0
   50.8940   28.0870   42.3940 C   0  0  0  0  0  0  0  0  0  0  0  0
   51.9760   28.0350   43.3270 C   0  0  0  0  0  0  0  0  0  0  0  0
   52.4370   29.2580   43.8810 C   0  0  0  0  0  0  0  0  0  0  0  0
   51.8490   30.4030   43.5170 N   0  0  0  0  0  0  0  0  0  0  0  0
   50.8240   30.4150   42.6290 C   0  0  0  0  0  0  0  0  0  0  0  0
   50.3390   29.2600   42.0610 N   0  0  0  0  0  0  0  0  0  0  0  0
   47.8965   33.7213   41.7620 H   0  0  0  0  0  0  0  0  0  0  0  0
   48.1369   31.2722   44.4471 H   0  0  0  0  0  0  0  0  0  0  0  0
   46.9497   31.3516   46.5956 H   0  0  0  0  0  0  0  0  0  0  0  0
   45.3277   33.1771   47.0844 H   0  0  0  0  0  0  0  0  0  0  0  0
   44.2265   35.1396   46.3777 H   0  0  0  0  0  0  0  0  0  0  0  0
   43.7754   36.9113   44.7044 H   0  0  0  0  0  0  0  0  0  0  0  0
   45.0049   36.7953   42.5316 H   0  0  0  0  0  0  0  0  0  0  0  0
   47.3808   34.2563   41.6459 H   0  0  0  0  0  0  0  0  0  0  0  0
   50.8865   32.2712   42.9521 H   0  0  0  0  0  0  0  0  0  0  0  0
   49.7562   31.1442   40.1375 H   0  0  0  0  0  0  0  0  0  0  0  0
   49.8459   32.6875   40.0848 H   0  0  0  0  0  0  0  0  0  0  0  0
   47.9335   31.1485   42.4412 H   0  0  0  0  0  0  0  0  0  0  0  0
   50.5143   27.1568   41.9461 H   0  0  0  0  0  0  0  0  0  0  0  0
   52.4373   27.0765   43.6071 H   0  0  0  0  0  0  0  0  0  0  0  0
   53.2683   29.2640   44.6014 H   0  0  0  0  0  0  0  0  0  0  0  0
  1  2  1  0
  2 11  1  0
  2  3  2  0
  3  4  1  0
  4  5  2  0
  6  7  2  0
  6  5  1  0
  8  7  1  0
  9  8  2  0
 10  9  1  0
 10 11  2  0
 11  6  1  0
 12 10  1  0
 13 20  1  0
 14 15  1  0
 14 13  1  0
 15 13  1  0
 15  1  1  0
 16 17  2  0
 17 18  1  0
 19 18  2  0
 20 19  1  0
 21 16  1  0
 21 20  2  0
  1 22  1  0
  3 23  1  0
  4 24  1  0
  5 25  1  0
  7 26  1  0
  8 27  1  0
  9 28  1  0
 12 29  1  0
 13 30  1  1
 14 31  1  0
 14 32  1  0
 15 33  1  6
 16 34  1  0
 17 35  1  0
 18 36  1  0
M  ISO  8  23  14  24  14  25  14  26  14  27  14  28  14  29   3  30  13
M  ISO  6  31  13  32  13  33  13  34  14  35  14  36  14
M  END
>  <minimizedAffinity>  (1) 
-4.68965197

>  <minimizedRMSD>  (1) 
1.84929705

$$$$
