
     RDKit          3D

 28 30  0  0  0  0  0  0  0  0999 V2000
   45.6920   33.9680   45.5170 C   0  0  0  0  0  0  0  0  0  0  0  0
   44.7700   34.9490   45.6780 C   0  0  0  0  0  0  0  0  0  0  0  0
   44.4570   35.8830   44.7230 C   0  0  0  0  0  0  0  0  0  0  0  0
   45.1310   35.7950   43.5510 N   0  0  0  0  0  0  0  0  0  0  0  0
   46.0470   34.8310   43.3730 C   0  0  0  0  0  0  0  0  0  0  0  0
   46.3410   33.9180   44.3290 N   0  0  0  0  0  0  0  0  0  0  0  0
   47.3540   31.2790   47.3510 C   0  0  0  0  0  0  0  0  0  0  0  0
   46.5670   31.1610   48.5010 C   0  0  0  0  0  0  0  0  0  0  0  0
   45.4680   32.0050   48.6450 C   0  0  0  0  0  0  0  0  0  0  0  0
   45.2120   32.9140   47.6450 N   0  0  0  0  0  0  0  0  0  0  0  0
   46.0020   32.9890   46.5520 C   0  0  0  0  0  0  0  0  0  0  0  0
   47.0620   32.1930   46.3880 N   0  0  0  0  0  0  0  0  0  0  0  0
   45.0680   33.3190   41.1740 F   0  0  0  0  0  0  0  0  0  0  0  0
   46.2490   33.9690   41.0640 C   0  0  0  0  0  0  0  0  0  0  0  0
   46.7820   34.7270   42.1070 C   0  0  0  0  0  0  0  0  0  0  0  0
   48.0090   35.3650   41.9080 C   0  0  0  0  0  0  0  0  0  0  0  0
   48.6830   35.2450   40.6930 C   0  0  0  0  0  0  0  0  0  0  0  0
   48.1470   34.4880   39.6550 C   0  0  0  0  0  0  0  0  0  0  0  0
   46.9210   33.8540   39.8610 C   0  0  0  0  0  0  0  0  0  0  0  0
   44.2371   34.9994   46.6390 H   0  0  0  0  0  0  0  0  0  0  0  0
   43.6998   36.6612   44.8993 H   0  0  0  0  0  0  0  0  0  0  0  0
   48.2255   30.6200   47.2233 H   0  0  0  0  0  0  0  0  0  0  0  0
   46.8104   30.4181   49.2749 H   0  0  0  0  0  0  0  0  0  0  0  0
   44.8228   31.9461   49.5339 H   0  0  0  0  0  0  0  0  0  0  0  0
   48.4474   35.9675   42.7172 H   0  0  0  0  0  0  0  0  0  0  0  0
   49.6482   35.7538   40.5534 H   0  0  0  0  0  0  0  0  0  0  0  0
   48.6769   34.3919   38.6958 H   0  0  0  0  0  0  0  0  0  0  0  0
   46.4814   33.2521   39.0520 H   0  0  0  0  0  0  0  0  0  0  0  0
  1  2  2  0
  1 11  1  0
  3  2  1  0
  4  3  2  0
  5  4  1  0
  5  6  2  0
  6  1  1  0
  7  8  2  0
  8  9  1  0
 10  9  2  0
 11 10  1  0
 12 11  2  0
 12  7  1  0
 14 13  1  0
 14 15  2  0
 15  5  1  0
 16 15  1  0
 17 16  2  0
 18 19  2  0
 18 17  1  0
 19 14  1  0
  2 20  1  0
  3 21  1  0
  7 22  1  0
  8 23  1  0
  9 24  1  0
 16 25  1  0
 17 26  1  0
 18 27  1  0
 19 28  1  0
M  ISO  8  20  14  21  14  22  14  23  14  24  14  25  14  26  14  27  14
M  ISO  1  28  14
M  END
>  <minimizedAffinity>  (1) 
-6.45336294

>  <minimizedRMSD>  (1) 
7.63197184

$$$$
