
     RDKit          3D

 20 21  0  0  0  0  0  0  0  0999 V2000
   46.0540   32.8000   46.3660 C   0  0  0  0  0  0  0  0  0  0  0  0
   47.0510   31.9110   46.1300 C   0  0  0  0  0  0  0  0  0  0  0  0
   47.4070   30.8960   46.9830 C   0  0  0  0  0  0  0  0  0  0  0  0
   46.6850   30.8130   48.1260 N   0  0  0  0  0  0  0  0  0  0  0  0
   45.6880   31.6920   48.3740 C   0  0  0  0  0  0  0  0  0  0  0  0
   45.3380   32.6960   47.5310 N   0  0  0  0  0  0  0  0  0  0  0  0
   44.8730   31.6870   49.5470 N   0  0  0  0  0  0  0  0  0  0  0  0
   44.5020   35.8010   44.9280 C   0  0  0  0  0  0  0  0  0  0  0  0
   45.0950   35.8410   43.6630 C   0  0  0  0  0  0  0  0  0  0  0  0
   46.0170   34.8650   43.2850 C   0  0  0  0  0  0  0  0  0  0  0  0
   46.3060   33.8820   44.2030 N   0  0  0  0  0  0  0  0  0  0  0  0
   45.7180   33.8650   45.4180 C   0  0  0  0  0  0  0  0  0  0  0  0
   44.8270   34.8070   45.7890 N   0  0  0  0  0  0  0  0  0  0  0  0
   47.6133   32.0103   45.1898 H   0  0  0  0  0  0  0  0  0  0  0  0
   48.2244   30.1965   46.7535 H   0  0  0  0  0  0  0  0  0  0  0  0
   44.1315   32.3926   49.6619 H   0  0  0  0  0  0  0  0  0  0  0  0
   45.0268   30.9778   50.2779 H   0  0  0  0  0  0  0  0  0  0  0  0
   43.7754   36.5724   45.2228 H   0  0  0  0  0  0  0  0  0  0  0  0
   44.8331   36.6468   42.9615 H   0  0  0  0  0  0  0  0  0  0  0  0
   46.4934   34.8807   42.2937 H   0  0  0  0  0  0  0  0  0  0  0  0
  1  6  1  0
  2  1  2  0
  2  3  1  0
  3  4  2  0
  4  5  1  0
  5  7  1  0
  6  5  2  0
  8 13  2  0
  9  8  1  0
 10  9  2  0
 10 11  1  0
 11 12  2  0
 12 13  1  0
 12  1  1  0
  2 14  1  0
  3 15  1  0
  7 16  1  0
  7 17  1  0
  8 18  1  0
  9 19  1  0
 10 20  1  0
M  ISO  5  14  14  15  14  18  14  19  14  20  14
M  END
>  <minimizedAffinity>  (1) 
-4.72845697

>  <minimizedRMSD>  (1) 
0.407195121

$$$$
