
     RDKit          3D

 20 21  0  0  0  0  0  0  0  0999 V2000
   45.7380   33.9650   45.4490 C   0  0  0  0  0  0  0  0  0  0  0  0
   44.8030   34.9300   45.5790 C   0  0  0  0  0  0  0  0  0  0  0  0
   44.5030   35.8560   44.6180 C   0  0  0  0  0  0  0  0  0  0  0  0
   45.2230   35.7650   43.4620 N   0  0  0  0  0  0  0  0  0  0  0  0
   46.1490   34.8090   43.3330 C   0  0  0  0  0  0  0  0  0  0  0  0
   46.4540   33.8870   44.2770 N   0  0  0  0  0  0  0  0  0  0  0  0
   47.3580   31.2660   47.3360 C   0  0  0  0  0  0  0  0  0  0  0  0
   46.5480   31.1830   48.4740 C   0  0  0  0  0  0  0  0  0  0  0  0
   45.4590   32.0430   48.5900 C   0  0  0  0  0  0  0  0  0  0  0  0
   45.2300   32.9360   47.5810 N   0  0  0  0  0  0  0  0  0  0  0  0
   46.0410   32.9830   46.4970 C   0  0  0  0  0  0  0  0  0  0  0  0
   47.0820   32.1650   46.3770 N   0  0  0  0  0  0  0  0  0  0  0  0
   46.9160   34.7220   42.0840 C   0  0  0  0  0  0  0  0  0  0  0  0
   47.9620   35.3880   41.8590 O   0  0  0  0  0  0  0  0  0  0  0  0
   44.2428   34.9748   46.5246 H   0  0  0  0  0  0  0  0  0  0  0  0
   43.7307   36.6250   44.7673 H   0  0  0  0  0  0  0  0  0  0  0  0
   48.2220   30.5940   47.2266 H   0  0  0  0  0  0  0  0  0  0  0  0
   46.7680   30.4501   49.2643 H   0  0  0  0  0  0  0  0  0  0  0  0
   44.8005   32.0047   49.4703 H   0  0  0  0  0  0  0  0  0  0  0  0
   46.5577   34.0374   41.3011 H   0  0  0  0  0  0  0  0  0  0  0  0
  1  2  2  0
  1 11  1  0
  3  2  1  0
  4  3  2  0
  5  4  1  0
  5  6  2  0
  6  1  1  0
  7  8  2  0
  8  9  1  0
 10  9  2  0
 11 10  1  0
 12 11  2  0
 12  7  1  0
 13  5  1  0
 14 13  2  0
  2 15  1  0
  3 16  1  0
  7 17  1  0
  8 18  1  0
  9 19  1  0
 13 20  1  0
M  ISO  6  15  14  16  14  17  14  18  14  19  14  20   6
M  END
>  <minimizedAffinity>  (1) 
-4.61654234

>  <minimizedRMSD>  (1) 
5.8043251

$$$$
