
     RDKit          3D

 21 22  0  0  0  0  0  0  0  0999 V2000
   46.1060   32.7990   46.0390 C   0  0  0  0  0  0  0  0  0  0  0  0
   46.9900   31.8570   45.6500 C   0  0  0  0  0  0  0  0  0  0  0  0
   47.3770   30.7800   46.4000 C   0  0  0  0  0  0  0  0  0  0  0  0
   46.7920   30.7120   47.6180 N   0  0  0  0  0  0  0  0  0  0  0  0
   45.9150   31.6330   48.0270 C   0  0  0  0  0  0  0  0  0  0  0  0
   45.5300   32.6990   47.2840 N   0  0  0  0  0  0  0  0  0  0  0  0
   44.4940   35.8870   44.8810 C   0  0  0  0  0  0  0  0  0  0  0  0
   45.0380   36.0280   43.5900 C   0  0  0  0  0  0  0  0  0  0  0  0
   45.9490   35.0690   43.1280 C   0  0  0  0  0  0  0  0  0  0  0  0
   46.2730   34.0300   43.9560 N   0  0  0  0  0  0  0  0  0  0  0  0
   45.7260   33.9320   45.1940 C   0  0  0  0  0  0  0  0  0  0  0  0
   44.8460   34.8460   45.6570 N   0  0  0  0  0  0  0  0  0  0  0  0
   45.2460   31.5940   49.3660 C   0  0  0  0  0  0  0  0  0  0  0  0
   47.4353   31.9633   44.6498 H   0  0  0  0  0  0  0  0  0  0  0  0
   48.1017   30.0334   46.0432 H   0  0  0  0  0  0  0  0  0  0  0  0
   43.7774   36.6320   45.2571 H   0  0  0  0  0  0  0  0  0  0  0  0
   44.7520   36.8784   42.9536 H   0  0  0  0  0  0  0  0  0  0  0  0
   46.3924   35.1498   42.1246 H   0  0  0  0  0  0  0  0  0  0  0  0
   46.0080   31.6384   50.1580 H   0  0  0  0  0  0  0  0  0  0  0  0
   44.5670   32.4541   49.4618 H   0  0  0  0  0  0  0  0  0  0  0  0
   44.6715   30.6608   49.4618 H   0  0  0  0  0  0  0  0  0  0  0  0
  1  6  1  0
  2  1  2  0
  2  3  1  0
  3  4  2  0
  4  5  1  0
  5 13  1  0
  6  5  2  0
  7 12  2  0
  8  7  1  0
  9  8  2  0
  9 10  1  0
 10 11  2  0
 11 12  1  0
 11  1  1  0
  2 14  1  0
  3 15  1  0
  7 16  1  0
  8 17  1  0
  9 18  1  0
 13 19  1  0
 13 20  1  0
 13 21  1  0
M  ISO  8  14  14  15  14  16  14  17  14  18  14  19   8  20   8  21   8
M  END
>  <minimizedAffinity>  (1) 
-4.61420107

>  <minimizedRMSD>  (1) 
0.723215759

$$$$
