
     RDKit          3D

 32 34  0  0  0  0  0  0  0  0999 V2000
   46.5210   32.5000   44.7930 C   0  0  0  0  0  0  0  0  0  0  0  0
   47.4960   31.9930   44.0080 C   0  0  0  0  0  0  0  0  0  0  0  0
   48.1030   30.7710   44.2100 C   0  0  0  0  0  0  0  0  0  0  0  0
   47.6570   30.0570   45.2850 N   0  0  0  0  0  0  0  0  0  0  0  0
   46.6930   30.5580   46.0620 C   0  0  0  0  0  0  0  0  0  0  0  0
   46.1040   31.7600   45.8550 N   0  0  0  0  0  0  0  0  0  0  0  0
   46.3210   29.6590   47.1890 C   0  0  0  0  0  0  0  0  0  0  0  0
   44.8320   29.6210   47.2990 C   0  0  0  0  0  0  0  0  0  0  0  0
   44.3660   28.3000   46.7040 C   0  0  0  0  0  0  0  0  0  0  0  0
   44.8280   27.3130   47.5460 O   0  0  0  0  0  0  0  0  0  0  0  0
   46.2000   27.1710   47.5770 C   0  0  0  0  0  0  0  0  0  0  0  0
   46.9600   28.3200   47.0010 C   0  0  0  0  0  0  0  0  0  0  0  0
   44.5700   35.5600   45.3110 C   0  0  0  0  0  0  0  0  0  0  0  0
   44.7480   36.2280   44.0960 C   0  0  0  0  0  0  0  0  0  0  0  0
   45.5270   35.6430   43.1030 C   0  0  0  0  0  0  0  0  0  0  0  0
   46.0910   34.4180   43.3750 N   0  0  0  0  0  0  0  0  0  0  0  0
   45.9050   33.7990   44.5460 C   0  0  0  0  0  0  0  0  0  0  0  0
   45.1570   34.3680   45.4880 N   0  0  0  0  0  0  0  0  0  0  0  0
   47.8285   32.5952   43.1496 H   0  0  0  0  0  0  0  0  0  0  0  0
   48.8963   30.3954   43.5469 H   0  0  0  0  0  0  0  0  0  0  0  0
   46.7010   30.0356   48.1502 H   0  0  0  0  0  0  0  0  0  0  0  0
   44.5311   29.6847   48.3551 H   0  0  0  0  0  0  0  0  0  0  0  0
   44.3809   30.4692   46.7633 H   0  0  0  0  0  0  0  0  0  0  0  0
   43.2676   28.2724   46.6512 H   0  0  0  0  0  0  0  0  0  0  0  0
   44.7484   28.1648   45.6815 H   0  0  0  0  0  0  0  0  0  0  0  0
   46.5080   27.0479   48.6258 H   0  0  0  0  0  0  0  0  0  0  0  0
   46.4359   26.2978   46.9510 H   0  0  0  0  0  0  0  0  0  0  0  0
   47.0753   28.1457   45.9210 H   0  0  0  0  0  0  0  0  0  0  0  0
   47.9169   28.3576   47.5423 H   0  0  0  0  0  0  0  0  0  0  0  0
   43.9580   36.0055   46.1091 H   0  0  0  0  0  0  0  0  0  0  0  0
   44.2764   37.2072   43.9267 H   0  0  0  0  0  0  0  0  0  0  0  0
   45.6862   36.1417   42.1356 H   0  0  0  0  0  0  0  0  0  0  0  0
  1  6  2  0
  2  3  2  0
  2  1  1  0
  3  4  1  0
  4  5  2  0
  5  7  1  0
  6  5  1  0
  7  8  1  0
  9  8  1  0
  9 10  1  0
 10 11  1  0
 12  7  1  0
 12 11  1  0
 13 18  2  0
 14 13  1  0
 15 16  1  0
 15 14  2  0
 16 17  2  0
 17  1  1  0
 17 18  1  0
  2 19  1  0
  3 20  1  0
  7 21  1  0
  8 22  1  0
  8 23  1  0
  9 24  1  0
  9 25  1  0
 11 26  1  0
 11 27  1  0
 12 28  1  0
 12 29  1  0
 13 30  1  0
 14 31  1  0
 15 32  1  0
M  ISO  8  19  14  20  14  21  13  22  13  23  13  24  13  25  13  26  13
M  ISO  6  27  13  28  13  29  13  30  14  31  14  32  14
M  END
>  <minimizedAffinity>  (1) 
-4.38248062

>  <minimizedRMSD>  (1) 
3.51667309

$$$$
