
     RDKit          3D

 29 31  0  0  0  0  0  0  0  0999 V2000
   45.9110   33.5190   45.8580 C   0  0  0  0  0  0  0  0  0  0  0  0
   44.9760   34.4720   46.0730 C   0  0  0  0  0  0  0  0  0  0  0  0
   44.5960   35.4050   45.1460 C   0  0  0  0  0  0  0  0  0  0  0  0
   45.2240   35.3340   43.9440 N   0  0  0  0  0  0  0  0  0  0  0  0
   46.1490   34.3950   43.7230 C   0  0  0  0  0  0  0  0  0  0  0  0
   46.5210   33.4720   44.6490 N   0  0  0  0  0  0  0  0  0  0  0  0
   46.8290   34.3240   42.4110 C   0  0  0  0  0  0  0  0  0  0  0  0
   46.0920   34.1510   41.2570 C   0  0  0  0  0  0  0  0  0  0  0  0
   46.6260   34.0730   39.9900 C   0  0  0  0  0  0  0  0  0  0  0  0
   48.0200   34.1760   39.8860 C   0  0  0  0  0  0  0  0  0  0  0  0
   48.7570   34.3470   41.0300 C   0  0  0  0  0  0  0  0  0  0  0  0
   48.1930   34.4210   42.2800 C   0  0  0  0  0  0  0  0  0  0  0  0
   48.9860   34.5960   43.4170 O   0  0  0  0  0  0  0  0  0  0  0  0
   45.8070   30.5690   48.0240 C   0  0  0  0  0  0  0  0  0  0  0  0
   46.9500   30.7180   48.7970 C   0  0  0  0  0  0  0  0  0  0  0  0
   47.7680   31.8310   48.5840 C   0  0  0  0  0  0  0  0  0  0  0  0
   47.3950   32.7310   47.6100 N   0  0  0  0  0  0  0  0  0  0  0  0
   46.2780   32.5480   46.8830 C   0  0  0  0  0  0  0  0  0  0  0  0
   45.4920   31.4760   47.0890 N   0  0  0  0  0  0  0  0  0  0  0  0
   44.4882   34.4994   47.0585 H   0  0  0  0  0  0  0  0  0  0  0  0
   43.8300   36.1646   45.3613 H   0  0  0  0  0  0  0  0  0  0  0  0
   44.9995   34.0696   41.3564 H   0  0  0  0  0  0  0  0  0  0  0  0
   45.9898   33.9366   39.1031 H   0  0  0  0  0  0  0  0  0  0  0  0
   48.5139   34.1207   38.9047 H   0  0  0  0  0  0  0  0  0  0  0  0
   49.8504   34.4287   40.9422 H   0  0  0  0  0  0  0  0  0  0  0  0
   48.5645   34.6475   44.3113 H   0  0  0  0  0  0  0  0  0  0  0  0
   45.1534   29.6982   48.1803 H   0  0  0  0  0  0  0  0  0  0  0  0
   47.2077   29.9729   49.5641 H   0  0  0  0  0  0  0  0  0  0  0  0
   48.6822   31.9838   49.1763 H   0  0  0  0  0  0  0  0  0  0  0  0
  1  2  2  0
  1 18  1  0
  3  2  1  0
  4  3  2  0
  5  4  1  0
  5  6  2  0
  6  1  1  0
  7  5  1  0
  8  7  2  0
  9  8  1  0
 10  9  2  0
 10 11  1  0
 11 12  2  0
 12  7  1  0
 12 13  1  0
 14 15  2  0
 16 15  1  0
 17 16  2  0
 18 19  2  0
 18 17  1  0
 19 14  1  0
  2 20  1  0
  3 21  1  0
  8 22  1  0
  9 23  1  0
 10 24  1  0
 11 25  1  0
 13 26  1  0
 14 27  1  0
 15 28  1  0
 16 29  1  0
M  ISO  8  20  14  21  14  22  14  23  14  24  14  25  14  26   3  27  14
M  ISO  2  28  14  29  14
M  END
>  <minimizedAffinity>  (1) 
-5.80625677

>  <minimizedRMSD>  (1) 
0.65142864

$$$$
