
     RDKit          3D

 49 52  0  0  0  0  0  0  0  0999 V2000
   45.3630   33.7510   45.5940 C   0  0  0  0  0  0  0  0  0  0  0  0
   44.8280   34.9720   45.8510 C   0  0  0  0  0  0  0  0  0  0  0  0
   44.3960   35.8420   44.8770 C   0  0  0  0  0  0  0  0  0  0  0  0
   44.5320   35.4110   43.5980 N   0  0  0  0  0  0  0  0  0  0  0  0
   45.0600   34.2040   43.3420 C   0  0  0  0  0  0  0  0  0  0  0  0
   45.4820   33.3560   44.3040 N   0  0  0  0  0  0  0  0  0  0  0  0
   45.6170   32.1270   48.8630 C   0  0  0  0  0  0  0  0  0  0  0  0
   46.6410   31.1840   48.6400 C   0  0  0  0  0  0  0  0  0  0  0  0
   47.2240   31.1130   47.3990 C   0  0  0  0  0  0  0  0  0  0  0  0
   46.7920   31.9600   46.4160 N   0  0  0  0  0  0  0  0  0  0  0  0
   45.8100   32.8550   46.6540 C   0  0  0  0  0  0  0  0  0  0  0  0
   45.2250   32.9420   47.8620 N   0  0  0  0  0  0  0  0  0  0  0  0
   48.2540   30.1910   47.1080 N   0  0  0  0  0  0  0  0  0  0  0  0
   48.4210   29.6670   45.7780 C   0  0  0  0  0  0  0  0  0  0  0  0
   49.7960   29.0910   45.5330 C   0  0  0  0  0  0  0  0  0  0  0  0
   50.2240   28.1270   46.5890 C   0  0  0  0  0  0  0  0  0  0  0  0
   49.4650   28.2870   47.8820 C   0  0  0  0  0  0  0  0  0  0  0  0
   49.1650   29.7490   48.1360 C   0  0  0  0  0  0  0  0  0  0  0  0
   45.1990   33.7540   41.9330 C   0  0  0  0  0  0  0  0  0  0  0  0
   44.2070   32.9730   41.3720 C   0  0  0  0  0  0  0  0  0  0  0  0
   44.2370   32.5020   40.0700 C   0  0  0  0  0  0  0  0  0  0  0  0
   45.3460   32.8510   39.3010 C   0  0  0  0  0  0  0  0  0  0  0  0
   46.3230   33.6220   39.8590 C   0  0  0  0  0  0  0  0  0  0  0  0
   46.2790   34.0850   41.1590 C   0  0  0  0  0  0  0  0  0  0  0  0
   47.2530   34.8670   41.7480 O   0  0  0  0  0  0  0  0  0  0  0  0
   49.6620   35.5300   42.4860 O   0  0  0  0  0  0  0  0  0  0  0  0
   48.9030   34.8780   41.3390 P   0  0  0  0  0  0  0  0  0  0  0  0
   49.5420   33.3860   40.9690 O   0  0  0  0  0  0  0  0  0  0  0  0
   49.1100   35.8840   39.9910 O   0  0  0  0  0  0  0  0  0  0  0  0
   44.7343   35.2845   46.9015 H   0  0  0  0  0  0  0  0  0  0  0  0
   43.9672   36.8254   45.1200 H   0  0  0  0  0  0  0  0  0  0  0  0
   45.1387   32.1981   49.8510 H   0  0  0  0  0  0  0  0  0  0  0  0
   46.9683   30.5144   49.4490 H   0  0  0  0  0  0  0  0  0  0  0  0
   47.6762   28.8733   45.6190 H   0  0  0  0  0  0  0  0  0  0  0  0
   48.2883   30.5049   45.0778 H   0  0  0  0  0  0  0  0  0  0  0  0
   49.7895   28.5692   44.5646 H   0  0  0  0  0  0  0  0  0  0  0  0
   50.5092   29.9284   45.5450 H   0  0  0  0  0  0  0  0  0  0  0  0
   50.0652   27.1050   46.2145 H   0  0  0  0  0  0  0  0  0  0  0  0
   51.2837   28.3279   46.8049 H   0  0  0  0  0  0  0  0  0  0  0  0
   48.5198   27.7278   47.8198 H   0  0  0  0  0  0  0  0  0  0  0  0
   50.0784   27.8982   48.7082 H   0  0  0  0  0  0  0  0  0  0  0  0
   50.0942   30.3360   48.0918 H   0  0  0  0  0  0  0  0  0  0  0  0
   48.7194   29.8851   49.1325 H   0  0  0  0  0  0  0  0  0  0  0  0
   43.3412   32.7094   41.9972 H   0  0  0  0  0  0  0  0  0  0  0  0
   43.4248   31.8823   39.6623 H   0  0  0  0  0  0  0  0  0  0  0  0
   45.4320   32.5094   38.2589 H   0  0  0  0  0  0  0  0  0  0  0  0
   47.1924   33.8892   39.2403 H   0  0  0  0  0  0  0  0  0  0  0  0
   49.7503   32.8995   41.8057 H   0  0  0  0  0  0  0  0  0  0  0  0
   49.2999   36.8071   40.2942 H   0  0  0  0  0  0  0  0  0  0  0  0
  1  2  2  0
  1 11  1  0
  3  2  1  0
  4  3  2  0
  5  4  1  0
  5  6  2  0
  6  1  1  0
  8  7  2  0
  9  8  1  0
 10 11  1  0
 10  9  2  0
 11 12  2  0
 12  7  1  0
 13  9  1  0
 13 18  1  0
 14 13  1  0
 15 14  1  0
 15 16  1  0
 16 17  1  0
 17 18  1  0
 19  5  1  0
 20 19  2  0
 21 20  1  0
 22 23  1  0
 22 21  2  0
 23 24  2  0
 24 25  1  0
 24 19  1  0
 27 25  1  0
 27 26  2  0
 28 27  1  0
 29 27  1  0
  2 30  1  0
  3 31  1  0
  7 32  1  0
  8 33  1  0
 14 34  1  0
 14 35  1  0
 15 36  1  0
 15 37  1  0
 16 38  1  0
 16 39  1  0
 17 40  1  0
 17 41  1  0
 18 42  1  0
 18 43  1  0
 20 44  1  0
 21 45  1  0
 22 46  1  0
 23 47  1  0
 28 48  1  0
 29 49  1  0
M  ISO  8  30  14  31  14  32  14  33  14  34  13  35  13  36  13  37  13
M  ISO  8  38  13  39  13  40  13  41  13  42  13  43  13  44  14  45  14
M  ISO  4  46  14  47  14  48   3  49   3
M  END
>  <minimizedAffinity>  (1) 
-6.72536707

>  <minimizedRMSD>  (1) 
0.502955079

$$$$
