
     RDKit          3D

 38 40  0  0  0  0  0  0  0  0999 V2000
   45.3740   33.7270   45.6080 C   0  0  0  0  0  0  0  0  0  0  0  0
   44.8500   34.9520   45.8710 C   0  0  0  0  0  0  0  0  0  0  0  0
   44.4280   35.8310   44.9030 C   0  0  0  0  0  0  0  0  0  0  0  0
   44.5600   35.4130   43.6330 N   0  0  0  0  0  0  0  0  0  0  0  0
   45.0790   34.1970   43.3640 C   0  0  0  0  0  0  0  0  0  0  0  0
   45.4920   33.3380   44.3240 N   0  0  0  0  0  0  0  0  0  0  0  0
   45.5510   32.0500   48.8560 C   0  0  0  0  0  0  0  0  0  0  0  0
   46.6050   31.1520   48.6620 C   0  0  0  0  0  0  0  0  0  0  0  0
   47.2590   31.1130   47.4340 C   0  0  0  0  0  0  0  0  0  0  0  0
   46.8390   31.9650   46.4440 N   0  0  0  0  0  0  0  0  0  0  0  0
   45.8110   32.8210   46.6750 C   0  0  0  0  0  0  0  0  0  0  0  0
   45.1770   32.8640   47.8590 N   0  0  0  0  0  0  0  0  0  0  0  0
   49.2330   29.7720   48.1880 C   0  0  0  0  0  0  0  0  0  0  0  0
   49.0880   30.1630   49.3570 O   0  0  0  0  0  0  0  0  0  0  0  0
   48.3360   30.2220   47.1800 N   0  0  0  0  0  0  0  0  0  0  0  0
   45.2160   33.7550   41.9630 C   0  0  0  0  0  0  0  0  0  0  0  0
   44.2280   32.9820   41.3920 C   0  0  0  0  0  0  0  0  0  0  0  0
   44.2550   32.5160   40.0910 C   0  0  0  0  0  0  0  0  0  0  0  0
   45.3530   32.8560   39.3250 C   0  0  0  0  0  0  0  0  0  0  0  0
   46.3310   33.6220   39.8880 C   0  0  0  0  0  0  0  0  0  0  0  0
   46.2940   34.0820   41.1870 C   0  0  0  0  0  0  0  0  0  0  0  0
   47.2720   34.8560   41.7770 O   0  0  0  0  0  0  0  0  0  0  0  0
   49.6920   35.5270   42.5000 O   0  0  0  0  0  0  0  0  0  0  0  0
   48.9120   34.8780   41.3530 P   0  0  0  0  0  0  0  0  0  0  0  0
   49.5520   33.3870   40.9830 O   0  0  0  0  0  0  0  0  0  0  0  0
   49.1090   35.8850   40.0090 O   0  0  0  0  0  0  0  0  0  0  0  0
   44.7578   35.2592   46.9232 H   0  0  0  0  0  0  0  0  0  0  0  0
   44.0078   36.8165   45.1525 H   0  0  0  0  0  0  0  0  0  0  0  0
   45.0302   32.0883   49.8241 H   0  0  0  0  0  0  0  0  0  0  0  0
   46.9157   30.4799   49.4755 H   0  0  0  0  0  0  0  0  0  0  0  0
   50.0504   29.0815   47.9330 H   0  0  0  0  0  0  0  0  0  0  0  0
   48.4743   29.8846   46.2167 H   0  0  0  0  0  0  0  0  0  0  0  0
   43.3596   32.7182   42.0135 H   0  0  0  0  0  0  0  0  0  0  0  0
   43.4384   31.9017   39.6838 H   0  0  0  0  0  0  0  0  0  0  0  0
   45.4369   32.5159   38.2823 H   0  0  0  0  0  0  0  0  0  0  0  0
   47.2005   33.8884   39.2691 H   0  0  0  0  0  0  0  0  0  0  0  0
   49.7608   32.9007   41.8197 H   0  0  0  0  0  0  0  0  0  0  0  0
   49.2899   36.8096   40.3131 H   0  0  0  0  0  0  0  0  0  0  0  0
  1  2  2  0
  1 11  1  0
  3  2  1  0
  4  3  2  0
  5  4  1  0
  5  6  2  0
  6  1  1  0
  8  7  2  0
  9  8  1  0
 10 11  1  0
 10  9  2  0
 11 12  2  0
 12  7  1  0
 13 14  2  0
 15  9  1  0
 15 13  1  0
 16  5  1  0
 17 16  2  0
 18 17  1  0
 19 20  1  0
 19 18  2  0
 20 21  2  0
 21 22  1  0
 21 16  1  0
 24 22  1  0
 24 23  2  0
 25 24  1  0
 26 24  1  0
  2 27  1  0
  3 28  1  0
  7 29  1  0
  8 30  1  0
 13 31  1  0
 15 32  1  0
 17 33  1  0
 18 34  1  0
 19 35  1  0
 20 36  1  0
 25 37  1  0
 26 38  1  0
M  ISO  8  27  14  28  14  29  14  30  14  31   6  33  14  34  14  35  14
M  ISO  3  36  14  37   3  38   3
M  END
>  <minimizedAffinity>  (1) 
-6.51813936

>  <minimizedRMSD>  (1) 
0.281023562

$$$$
