
     RDKit          3D

 41 44  0  0  0  0  0  0  0  0999 V2000
   45.3460   33.7880   45.6330 C   0  0  0  0  0  0  0  0  0  0  0  0
   44.8050   34.9960   45.9230 C   0  0  0  0  0  0  0  0  0  0  0  0
   44.3710   35.8910   44.9690 C   0  0  0  0  0  0  0  0  0  0  0  0
   44.5140   35.5000   43.6850 N   0  0  0  0  0  0  0  0  0  0  0  0
   45.0470   34.3100   43.3890 C   0  0  0  0  0  0  0  0  0  0  0  0
   45.4750   33.4260   44.3250 N   0  0  0  0  0  0  0  0  0  0  0  0
   45.1920   33.9020   41.9740 C   0  0  0  0  0  0  0  0  0  0  0  0
   44.1590   33.2440   41.3420 C   0  0  0  0  0  0  0  0  0  0  0  0
   44.1810   32.8170   40.0320 C   0  0  0  0  0  0  0  0  0  0  0  0
   45.3470   33.0850   39.3150 C   0  0  0  0  0  0  0  0  0  0  0  0
   46.3690   33.7330   39.9280 C   0  0  0  0  0  0  0  0  0  0  0  0
   46.3280   34.1550   41.2480 C   0  0  0  0  0  0  0  0  0  0  0  0
   47.3400   34.8100   41.8940 O   0  0  0  0  0  0  0  0  0  0  0  0
   49.7930   35.4450   42.5640 O   0  0  0  0  0  0  0  0  0  0  0  0
   48.9720   34.8430   41.4270 P   0  0  0  0  0  0  0  0  0  0  0  0
   49.5970   33.3530   40.9900 O   0  0  0  0  0  0  0  0  0  0  0  0
   49.1270   35.8990   40.1110 O   0  0  0  0  0  0  0  0  0  0  0  0
   45.6050   32.0830   48.8530 C   0  0  0  0  0  0  0  0  0  0  0  0
   46.6260   31.1330   48.6050 C   0  0  0  0  0  0  0  0  0  0  0  0
   47.1980   31.0960   47.3570 C   0  0  0  0  0  0  0  0  0  0  0  0
   46.7760   31.9660   46.3890 N   0  0  0  0  0  0  0  0  0  0  0  0
   45.7930   32.8650   46.6610 C   0  0  0  0  0  0  0  0  0  0  0  0
   45.2240   32.9120   47.8770 N   0  0  0  0  0  0  0  0  0  0  0  0
   48.2460   30.1400   47.0580 C   0  0  0  0  0  0  0  0  0  0  0  0
   49.1230   29.5030   47.9100 C   0  0  0  0  0  0  0  0  0  0  0  0
   49.9350   28.6960   47.2310 N   0  0  0  0  0  0  0  0  0  0  0  0
   49.5920   28.8020   45.9380 C   0  0  0  0  0  0  0  0  0  0  0  0
   48.5580   29.6850   45.8310 N   0  0  0  0  0  0  0  0  0  0  0  0
   44.7065   35.2788   46.9815 H   0  0  0  0  0  0  0  0  0  0  0  0
   43.9348   36.8644   45.2375 H   0  0  0  0  0  0  0  0  0  0  0  0
   43.2490   33.0448   41.9270 H   0  0  0  0  0  0  0  0  0  0  0  0
   43.3268   32.2940   39.5772 H   0  0  0  0  0  0  0  0  0  0  0  0
   45.4369   32.7742   38.2637 H   0  0  0  0  0  0  0  0  0  0  0  0
   47.2803   33.9347   39.3458 H   0  0  0  0  0  0  0  0  0  0  0  0
   49.8145   32.8345   41.8049 H   0  0  0  0  0  0  0  0  0  0  0  0
   49.2625   36.8219   40.4426 H   0  0  0  0  0  0  0  0  0  0  0  0
   45.1288   32.1379   49.8430 H   0  0  0  0  0  0  0  0  0  0  0  0
   46.9534   30.4404   49.3944 H   0  0  0  0  0  0  0  0  0  0  0  0
   49.1482   29.6425   49.0008 H   0  0  0  0  0  0  0  0  0  0  0  0
   50.6820   28.1046   47.6223 H   0  0  0  0  0  0  0  0  0  0  0  0
   50.0662   28.2657   45.1028 H   0  0  0  0  0  0  0  0  0  0  0  0
  1  2  2  0
  1 22  1  0
  3  2  1  0
  4  3  2  0
  5  4  1  0
  5  6  2  0
  6  1  1  0
  7  5  1  0
  8  7  2  0
  9  8  1  0
 10 11  1  0
 10  9  2  0
 11 12  2  0
 12 13  1  0
 12  7  1  0
 15 13  1  0
 15 14  2  0
 16 15  1  0
 17 15  1  0
 19 18  2  0
 20 19  1  0
 21 22  1  0
 21 20  2  0
 22 23  2  0
 23 18  1  0
 24 20  1  0
 24 25  2  0
 26 25  1  0
 27 26  1  0
 28 27  2  0
 28 24  1  0
  2 29  1  0
  3 30  1  0
  8 31  1  0
  9 32  1  0
 10 33  1  0
 11 34  1  0
 16 35  1  0
 17 36  1  0
 18 37  1  0
 19 38  1  0
 25 39  1  0
 26 40  1  0
 27 41  1  0
M  ISO  8  29  14  30  14  31  14  32  14  33  14  34  14  35   3  36   3
M  ISO  5  37  14  38  14  39  14  40   9  41  14
M  END
>  <minimizedAffinity>  (1) 
-6.30107164

>  <minimizedRMSD>  (1) 
0.566253543

$$$$
