
     RDKit          3D

 37 39  0  0  0  0  0  0  0  0999 V2000
   45.3900   33.7010   45.5930 C   0  0  0  0  0  0  0  0  0  0  0  0
   44.8620   34.9180   45.8810 C   0  0  0  0  0  0  0  0  0  0  0  0
   44.4260   35.8060   44.9200 C   0  0  0  0  0  0  0  0  0  0  0  0
   44.5510   35.3980   43.6390 N   0  0  0  0  0  0  0  0  0  0  0  0
   45.0730   34.1930   43.3550 C   0  0  0  0  0  0  0  0  0  0  0  0
   45.4990   33.3290   44.3000 N   0  0  0  0  0  0  0  0  0  0  0  0
   45.2010   33.7650   41.9440 C   0  0  0  0  0  0  0  0  0  0  0  0
   44.2030   33.0110   41.3730 C   0  0  0  0  0  0  0  0  0  0  0  0
   44.2380   32.5630   40.0510 C   0  0  0  0  0  0  0  0  0  0  0  0
   45.3380   32.9060   39.2970 C   0  0  0  0  0  0  0  0  0  0  0  0
   46.3230   33.6530   39.8680 C   0  0  0  0  0  0  0  0  0  0  0  0
   46.3020   34.1040   41.1770 C   0  0  0  0  0  0  0  0  0  0  0  0
   47.2730   34.8540   41.7770 O   0  0  0  0  0  0  0  0  0  0  0  0
   49.7000   35.5190   42.5050 O   0  0  0  0  0  0  0  0  0  0  0  0
   48.9150   34.8760   41.3540 P   0  0  0  0  0  0  0  0  0  0  0  0
   49.5520   33.3730   40.9820 O   0  0  0  0  0  0  0  0  0  0  0  0
   49.1100   35.8880   40.0070 O   0  0  0  0  0  0  0  0  0  0  0  0
   45.6790   32.0470   48.8530 C   0  0  0  0  0  0  0  0  0  0  0  0
   46.6770   31.0920   48.6040 C   0  0  0  0  0  0  0  0  0  0  0  0
   47.2480   31.0090   47.3410 C   0  0  0  0  0  0  0  0  0  0  0  0
   46.8070   31.8770   46.3720 N   0  0  0  0  0  0  0  0  0  0  0  0
   45.8390   32.7930   46.6380 C   0  0  0  0  0  0  0  0  0  0  0  0
   45.2810   32.8770   47.8670 N   0  0  0  0  0  0  0  0  0  0  0  0
   48.2990   30.0210   47.0350 C   0  0  0  0  0  0  0  0  0  0  0  0
   44.7773   35.2117   46.9377 H   0  0  0  0  0  0  0  0  0  0  0  0
   44.0022   36.7869   45.1812 H   0  0  0  0  0  0  0  0  0  0  0  0
   43.3314   32.7469   41.9899 H   0  0  0  0  0  0  0  0  0  0  0  0
   43.4201   31.9605   39.6290 H   0  0  0  0  0  0  0  0  0  0  0  0
   45.4198   32.5814   38.2492 H   0  0  0  0  0  0  0  0  0  0  0  0
   47.1931   33.9156   39.2483 H   0  0  0  0  0  0  0  0  0  0  0  0
   49.7585   32.8858   41.8187 H   0  0  0  0  0  0  0  0  0  0  0  0
   49.2882   36.8128   40.3121 H   0  0  0  0  0  0  0  0  0  0  0  0
   45.2220   32.1185   49.8510 H   0  0  0  0  0  0  0  0  0  0  0  0
   47.0050   30.4131   49.4049 H   0  0  0  0  0  0  0  0  0  0  0  0
   48.7171   29.6279   47.9734 H   0  0  0  0  0  0  0  0  0  0  0  0
   47.8668   29.1946   46.4517 H   0  0  0  0  0  0  0  0  0  0  0  0
   49.0971   30.5034   46.4517 H   0  0  0  0  0  0  0  0  0  0  0  0
  1  2  2  0
  1 22  1  0
  3  2  1  0
  4  3  2  0
  5  4  1  0
  5  6  2  0
  6  1  1  0
  7  5  1  0
  8  7  2  0
  9  8  1  0
 10 11  1  0
 10  9  2  0
 11 12  2  0
 12 13  1  0
 12  7  1  0
 15 13  1  0
 15 14  2  0
 16 15  1  0
 17 15  1  0
 19 18  2  0
 20 19  1  0
 21 22  1  0
 21 20  2  0
 22 23  2  0
 23 18  1  0
 24 20  1  0
  2 25  1  0
  3 26  1  0
  8 27  1  0
  9 28  1  0
 10 29  1  0
 11 30  1  0
 16 31  1  0
 17 32  1  0
 18 33  1  0
 19 34  1  0
 24 35  1  0
 24 36  1  0
 24 37  1  0
M  ISO  8  25  14  26  14  27  14  28  14  29  14  30  14  31   3  32   3
M  ISO  5  33  14  34  14  35   8  36   8  37   8
M  END
>  <minimizedAffinity>  (1) 
-6.1328311

>  <minimizedRMSD>  (1) 
0.254275918

$$$$
