
     RDKit          3D

 36 38  0  0  0  0  0  0  0  0999 V2000
   45.3660   33.7430   45.6550 C   0  0  0  0  0  0  0  0  0  0  0  0
   44.8220   34.9570   45.9560 C   0  0  0  0  0  0  0  0  0  0  0  0
   44.3830   35.8590   45.0210 C   0  0  0  0  0  0  0  0  0  0  0  0
   44.5210   35.4720   43.7250 N   0  0  0  0  0  0  0  0  0  0  0  0
   45.0540   34.2820   43.4280 C   0  0  0  0  0  0  0  0  0  0  0  0
   45.4870   33.3900   44.3440 N   0  0  0  0  0  0  0  0  0  0  0  0
   45.1930   33.8860   42.0060 C   0  0  0  0  0  0  0  0  0  0  0  0
   44.1610   33.2420   41.3720 C   0  0  0  0  0  0  0  0  0  0  0  0
   44.1890   32.8290   40.0450 C   0  0  0  0  0  0  0  0  0  0  0  0
   45.3420   33.0970   39.3410 C   0  0  0  0  0  0  0  0  0  0  0  0
   46.3720   33.7350   39.9610 C   0  0  0  0  0  0  0  0  0  0  0  0
   46.3370   34.1420   41.2800 C   0  0  0  0  0  0  0  0  0  0  0  0
   47.3570   34.7880   41.9360 O   0  0  0  0  0  0  0  0  0  0  0  0
   49.8050   35.4190   42.6150 O   0  0  0  0  0  0  0  0  0  0  0  0
   48.9780   34.8260   41.4630 P   0  0  0  0  0  0  0  0  0  0  0  0
   49.6030   33.3600   40.9940 O   0  0  0  0  0  0  0  0  0  0  0  0
   49.1330   35.9070   40.1590 O   0  0  0  0  0  0  0  0  0  0  0  0
   45.6560   32.0430   48.8810 C   0  0  0  0  0  0  0  0  0  0  0  0
   46.6540   31.0950   48.6120 C   0  0  0  0  0  0  0  0  0  0  0  0
   47.2190   31.0350   47.3530 C   0  0  0  0  0  0  0  0  0  0  0  0
   46.7770   31.9190   46.3950 N   0  0  0  0  0  0  0  0  0  0  0  0
   45.8170   32.8170   46.6840 C   0  0  0  0  0  0  0  0  0  0  0  0
   45.2550   32.8880   47.9120 N   0  0  0  0  0  0  0  0  0  0  0  0
   48.2600   30.0630   47.0370 C   0  0  0  0  0  0  0  0  0  0  0  0
   49.1600   29.8450   47.8880 O   0  0  0  0  0  0  0  0  0  0  0  0
   44.7294   35.2302   47.0175 H   0  0  0  0  0  0  0  0  0  0  0  0
   43.9485   36.8301   45.3007 H   0  0  0  0  0  0  0  0  0  0  0  0
   43.2494   33.0386   41.9531 H   0  0  0  0  0  0  0  0  0  0  0  0
   43.3344   32.3147   39.5811 H   0  0  0  0  0  0  0  0  0  0  0  0
   45.4297   32.7978   38.2861 H   0  0  0  0  0  0  0  0  0  0  0  0
   47.2831   33.9377   39.3789 H   0  0  0  0  0  0  0  0  0  0  0  0
   49.8305   32.8264   41.7962 H   0  0  0  0  0  0  0  0  0  0  0  0
   49.2646   36.8251   40.5053 H   0  0  0  0  0  0  0  0  0  0  0  0
   45.2017   32.0962   49.8814 H   0  0  0  0  0  0  0  0  0  0  0  0
   46.9852   30.4025   49.3999 H   0  0  0  0  0  0  0  0  0  0  0  0
   48.2578   29.5315   46.0739 H   0  0  0  0  0  0  0  0  0  0  0  0
  1  2  2  0
  1 22  1  0
  3  2  1  0
  4  3  2  0
  5  4  1  0
  5  6  2  0
  6  1  1  0
  7  5  1  0
  8  7  2  0
  9  8  1  0
 10 11  1  0
 10  9  2  0
 11 12  2  0
 12 13  1  0
 12  7  1  0
 15 13  1  0
 15 14  2  0
 16 15  1  0
 17 15  1  0
 19 18  2  0
 20 19  1  0
 21 22  1  0
 21 20  2  0
 22 23  2  0
 23 18  1  0
 24 20  1  0
 24 25  2  0
  2 26  1  0
  3 27  1  0
  8 28  1  0
  9 29  1  0
 10 30  1  0
 11 31  1  0
 16 32  1  0
 17 33  1  0
 18 34  1  0
 19 35  1  0
 24 36  1  0
M  ISO  8  26  14  27  14  28  14  29  14  30  14  31  14  32   3  33   3
M  ISO  3  34  14  35  14  36   6
M  END
>  <minimizedAffinity>  (1) 
-6.01256847

>  <minimizedRMSD>  (1) 
0.412201136

$$$$
