
     RDKit          3D

 27 28  0  0  1  0  0  0  0  0999 V2000
   48.1370   33.4950   42.5670 C   0  0  1  0  0  0  0  0  0  0  0  0
   46.6870   33.7250   42.2920 C   0  0  2  0  0  0  0  0  0  0  0  0
   46.4830   34.6580   41.2670 O   0  0  0  0  0  0  0  0  0  0  0  0
   46.8770   33.9940   40.1020 C   0  0  0  0  0  0  0  0  0  0  0  0
   48.3780   33.9260   40.0950 C   0  0  2  0  0  0  0  0  0  0  0  0
   48.9820   33.3750   41.3470 C   0  0  2  0  0  0  0  0  0  0  0  0
   44.5780   35.7860   44.6640 C   0  0  0  0  0  0  0  0  0  0  0  0
   45.2110   35.3930   43.4760 C   0  0  0  0  0  0  0  0  0  0  0  0
   45.9860   34.2130   43.5020 C   0  0  0  0  0  0  0  0  0  0  0  0
   46.0760   33.5270   44.6740 N   0  0  0  0  0  0  0  0  0  0  0  0
   45.4430   33.9480   45.8030 C   0  0  0  0  0  0  0  0  0  0  0  0
   44.6980   35.0760   45.7910 N   0  0  0  0  0  0  0  0  0  0  0  0
   48.6580   34.4570   43.4630 O   0  0  0  0  0  0  0  0  0  0  0  0
   48.8200   35.2370   39.8450 O   0  0  0  0  0  0  0  0  0  0  0  0
   49.4670   32.0650   41.1890 O   0  0  0  0  0  0  0  0  0  0  0  0
   48.1826   32.5084   43.0512 H   0  0  0  0  0  0  0  0  0  0  0  0
   46.2800   32.7517   41.9804 H   0  0  0  0  0  0  0  0  0  0  0  0
   46.4567   32.9775   40.0907 H   0  0  0  0  0  0  0  0  0  0  0  0
   46.5134   34.5306   39.2133 H   0  0  0  0  0  0  0  0  0  0  0  0
   48.7050   33.2160   39.3211 H   0  0  0  0  0  0  0  0  0  0  0  0
   49.8417   34.0375   41.5258 H   0  0  0  0  0  0  0  0  0  0  0  0
   43.9675   36.7011   44.6691 H   0  0  0  0  0  0  0  0  0  0  0  0
   45.1072   35.9844   42.5543 H   0  0  0  0  0  0  0  0  0  0  0  0
   45.5383   33.3663   46.7317 H   0  0  0  0  0  0  0  0  0  0  0  0
   48.4979   34.1615   44.3942 H   0  0  0  0  0  0  0  0  0  0  0  0
   48.9768   35.7020   40.7048 H   0  0  0  0  0  0  0  0  0  0  0  0
   49.6173   31.6591   42.0794 H   0  0  0  0  0  0  0  0  0  0  0  0
  1 13  1  0
  2  1  1  0
  2  9  1  0
  3  2  1  0
  4  3  1  0
  5 14  1  0
  5  4  1  0
  5  6  1  0
  6 15  1  0
  6  1  1  0
  7 12  2  0
  8  9  2  0
  8  7  1  0
  9 10  1  0
 10 11  2  0
 12 11  1  0
  1 16  1  1
  2 17  1  6
  4 18  1  0
  4 19  1  0
  5 20  1  6
  6 21  1  1
  7 22  1  0
  8 23  1  0
 11 24  1  0
 13 25  1  0
 14 26  1  0
 15 27  1  0
M  ISO  8  16  13  17  13  18  13  19  13  20  13  21  13  22  14  23  14
M  ISO  4  24  14  25   3  26   3  27   3
M  END
>  <minimizedAffinity>  (1) 
-5.06340551

>  <minimizedRMSD>  (1) 
0.57009697

$$$$
