
     RDKit          3D

 42 44  0  0  1  0  0  0  0  0999 V2000
   48.1000   33.4730   42.5130 C   0  0  1  0  0  0  0  0  0  0  0  0
   46.6380   33.7290   42.2390 C   0  0  2  0  0  0  0  0  0  0  0  0
   46.4590   34.6540   41.2280 O   0  0  0  0  0  0  0  0  0  0  0  0
   46.8440   34.0290   40.0540 C   0  0  0  0  0  0  0  0  0  0  0  0
   48.3500   33.9180   40.0460 C   0  0  2  0  0  0  0  0  0  0  0  0
   48.9340   33.3360   41.2830 C   0  0  2  0  0  0  0  0  0  0  0  0
   44.5700   35.8200   44.6320 C   0  0  0  0  0  0  0  0  0  0  0  0
   45.1910   35.3980   43.4440 C   0  0  0  0  0  0  0  0  0  0  0  0
   45.9590   34.1990   43.4580 C   0  0  0  0  0  0  0  0  0  0  0  0
   46.0480   33.5260   44.6240 N   0  0  0  0  0  0  0  0  0  0  0  0
   45.4380   33.9580   45.7550 C   0  0  0  0  0  0  0  0  0  0  0  0
   44.7040   35.0950   45.7590 N   0  0  0  0  0  0  0  0  0  0  0  0
   48.6350   34.3870   43.4280 O   0  0  0  0  0  0  0  0  0  0  0  0
   48.8210   35.2220   39.8200 O   0  0  0  0  0  0  0  0  0  0  0  0
   49.3620   32.0000   41.1110 O   0  0  0  0  0  0  0  0  0  0  0  0
   53.2910   31.0070   40.8130 N   0  0  0  0  0  0  0  0  0  0  0  0
   52.6330   31.3150   39.5830 C   0  0  0  0  0  0  0  0  0  0  0  0
   51.1490   31.4580   39.6950 C   0  0  0  0  0  0  0  0  0  0  0  0
   50.7460   31.8930   41.0900 C   0  0  0  0  0  0  0  0  0  0  0  0
   51.1750   30.7840   42.0360 C   0  0  0  0  0  0  0  0  0  0  0  0
   52.5170   30.2040   41.7100 C   0  0  0  0  0  0  0  0  0  0  0  0
   48.1373   32.4825   42.9900 H   0  0  0  0  0  0  0  0  0  0  0  0
   46.1975   32.7745   41.9151 H   0  0  0  0  0  0  0  0  0  0  0  0
   46.3970   33.0252   40.0035 H   0  0  0  0  0  0  0  0  0  0  0  0
   46.5029   34.6118   39.1857 H   0  0  0  0  0  0  0  0  0  0  0  0
   48.6616   33.2114   39.2627 H   0  0  0  0  0  0  0  0  0  0  0  0
   49.8185   33.9657   41.4597 H   0  0  0  0  0  0  0  0  0  0  0  0
   43.9734   36.7441   44.6414 H   0  0  0  0  0  0  0  0  0  0  0  0
   45.0856   35.9840   42.5190 H   0  0  0  0  0  0  0  0  0  0  0  0
   45.5411   33.3760   46.6827 H   0  0  0  0  0  0  0  0  0  0  0  0
   48.4529   34.0759   44.3500 H   0  0  0  0  0  0  0  0  0  0  0  0
   48.9827   35.6696   40.6881 H   0  0  0  0  0  0  0  0  0  0  0  0
   53.5188   31.8924   41.2875 H   0  0  0  0  0  0  0  0  0  0  0  0
   52.8477   30.5083   38.8666 H   0  0  0  0  0  0  0  0  0  0  0  0
   53.0187   32.2922   39.2570 H   0  0  0  0  0  0  0  0  0  0  0  0
   50.8050   32.2109   38.9706 H   0  0  0  0  0  0  0  0  0  0  0  0
   50.6874   30.4815   39.4867 H   0  0  0  0  0  0  0  0  0  0  0  0
   51.2034   32.8510   41.3781 H   0  0  0  0  0  0  0  0  0  0  0  0
   51.2112   31.1922   43.0568 H   0  0  0  0  0  0  0  0  0  0  0  0
   50.4396   29.9721   41.9361 H   0  0  0  0  0  0  0  0  0  0  0  0
   52.3654   29.2169   41.2489 H   0  0  0  0  0  0  0  0  0  0  0  0
   53.0788   30.1460   42.6540 H   0  0  0  0  0  0  0  0  0  0  0  0
  1 13  1  0
  2  1  1  0
  2  9  1  0
  3  2  1  0
  4  3  1  0
  5  4  1  0
  5  6  1  0
  6  1  1  0
  7 12  2  0
  8  9  2  0
  8  7  1  0
  9 10  1  0
 10 11  2  0
 11 12  1  0
 14  5  1  0
 15  6  1  0
 16 21  1  0
 17 18  1  0
 17 16  1  0
 18 19  1  0
 19 15  1  0
 19 20  1  0
 21 20  1  0
  1 22  1  1
  2 23  1  6
  4 24  1  0
  4 25  1  0
  5 26  1  6
  6 27  1  1
  7 28  1  0
  8 29  1  0
 11 30  1  0
 13 31  1  0
 14 32  1  0
 16 33  1  0
 17 34  1  0
 17 35  1  0
 18 36  1  0
 18 37  1  0
 19 38  1  0
 20 39  1  0
 20 40  1  0
 21 41  1  0
 21 42  1  0
M  ISO  8  22  13  23  13  24  13  25  13  26  13  27  13  28  14  29  14
M  ISO  8  30  14  31   3  32   3  33   5  34  13  35  13  36  13  37  13
M  ISO  5  38  13  39  13  40  13  41  13  42  13
M  END
>  <minimizedAffinity>  (1) 
-5.77065277

>  <minimizedRMSD>  (1) 
1.04689968

$$$$
