
     RDKit          3D

 43 45  0  0  1  0  0  0  0  0999 V2000
   44.1010   33.0300   41.9730 C   0  0  1  0  0  0  0  0  0  0  0  0
   42.9110   33.3110   41.0850 C   0  0  2  0  0  0  0  0  0  0  0  0
   42.1720   34.3850   41.5450 O   0  0  0  0  0  0  0  0  0  0  0  0
   42.9470   35.5110   41.3180 C   0  0  0  0  0  0  0  0  0  0  0  0
   44.0640   35.5230   42.3310 C   0  0  2  0  0  0  0  0  0  0  0  0
   44.8380   34.2400   42.4050 C   0  0  2  0  0  0  0  0  0  0  0  0
   39.9080   31.0160   41.3280 C   0  0  0  0  0  0  0  0  0  0  0  0
   40.6890   32.1770   41.4310 C   0  0  0  0  0  0  0  0  0  0  0  0
   42.0410   32.1240   40.9890 C   0  0  0  0  0  0  0  0  0  0  0  0
   42.5180   30.9590   40.4880 N   0  0  0  0  0  0  0  0  0  0  0  0
   41.7170   29.8510   40.4080 C   0  0  0  0  0  0  0  0  0  0  0  0
   40.4240   29.8850   40.8270 N   0  0  0  0  0  0  0  0  0  0  0  0
   43.7760   32.1820   43.0380 O   0  0  0  0  0  0  0  0  0  0  0  0
   43.4760   35.8470   43.5560 O   0  0  0  0  0  0  0  0  0  0  0  0
   46.0990   34.3350   41.7700 O   0  0  0  0  0  0  0  0  0  0  0  0
   47.0480   34.9660   42.5510 C   0  0  0  0  0  0  0  0  0  0  0  0
   48.1710   35.3840   41.6400 C   0  0  0  0  0  0  0  0  0  0  0  0
   49.5410   35.0540   42.1670 C   0  0  0  0  0  0  0  0  0  0  0  0
   49.7160   33.6060   42.5100 C   0  0  0  0  0  0  0  0  0  0  0  0
   48.3740   32.9530   42.7170 C   0  0  0  0  0  0  0  0  0  0  0  0
   47.5420   33.9120   43.5330 C   0  0  0  0  0  0  0  0  0  0  0  0
   44.8153   32.4868   41.3369 H   0  0  0  0  0  0  0  0  0  0  0  0
   43.3037   33.5603   40.0882 H   0  0  0  0  0  0  0  0  0  0  0  0
   43.3659   35.4766   40.3015 H   0  0  0  0  0  0  0  0  0  0  0  0
   42.3355   36.4203   41.4143 H   0  0  0  0  0  0  0  0  0  0  0  0
   44.8211   36.2631   42.0326 H   0  0  0  0  0  0  0  0  0  0  0  0
   45.0050   34.0961   43.4827 H   0  0  0  0  0  0  0  0  0  0  0  0
   38.8602   31.0342   41.6623 H   0  0  0  0  0  0  0  0  0  0  0  0
   40.2669   33.1054   41.8432 H   0  0  0  0  0  0  0  0  0  0  0  0
   42.1272   28.9166   39.9973 H   0  0  0  0  0  0  0  0  0  0  0  0
   43.9535   32.6453   43.8947 H   0  0  0  0  0  0  0  0  0  0  0  0
   44.0540   35.5285   44.2940 H   0  0  0  0  0  0  0  0  0  0  0  0
   46.6600   35.8473   43.0828 H   0  0  0  0  0  0  0  0  0  0  0  0
   48.1100   36.4724   41.4925 H   0  0  0  0  0  0  0  0  0  0  0  0
   48.0465   34.8221   40.7026 H   0  0  0  0  0  0  0  0  0  0  0  0
   50.2830   35.3225   41.4006 H   0  0  0  0  0  0  0  0  0  0  0  0
   49.6766   35.6257   43.0969 H   0  0  0  0  0  0  0  0  0  0  0  0
   50.2434   33.0994   41.6883 H   0  0  0  0  0  0  0  0  0  0  0  0
   50.3006   33.5258   43.4384 H   0  0  0  0  0  0  0  0  0  0  0  0
   47.8913   32.7643   41.7468 H   0  0  0  0  0  0  0  0  0  0  0  0
   48.4810   31.9871   43.2324 H   0  0  0  0  0  0  0  0  0  0  0  0
   48.1540   34.3774   44.3197 H   0  0  0  0  0  0  0  0  0  0  0  0
   46.7071   33.4006   44.0343 H   0  0  0  0  0  0  0  0  0  0  0  0
  1  6  1  0
  1 13  1  0
  2  3  1  0
  2  1  1  0
  4  3  1  0
  4  5  1  0
  5  6  1  0
  5 14  1  0
  7  8  2  0
  9  2  1  0
  9  8  1  0
 10  9  2  0
 11 10  1  0
 11 12  2  0
 12  7  1  0
 15  6  1  0
 15 16  1  0
 16 21  1  0
 17 18  1  0
 17 16  1  0
 18 19  1  0
 19 20  1  0
 20 21  1  0
  1 22  1  6
  2 23  1  6
  4 24  1  0
  4 25  1  0
  5 26  1  6
  6 27  1  1
  7 28  1  0
  8 29  1  0
 11 30  1  0
 13 31  1  0
 14 32  1  0
 16 33  1  0
 17 34  1  0
 17 35  1  0
 18 36  1  0
 18 37  1  0
 19 38  1  0
 19 39  1  0
 20 40  1  0
 20 41  1  0
 21 42  1  0
 21 43  1  0
M  ISO  8  22  13  23  13  24  13  25  13  26  13  27  13  28  14  29  14
M  ISO  8  30  14  31   3  32   3  33  13  34  13  35  13  36  13  37  13
M  ISO  6  38  13  39  13  40  13  41  13  42  13  43  13
M  END
>  <minimizedAffinity>  (1) 
-5.74814701

>  <minimizedRMSD>  (1) 
5.30172873

$$$$
