
     RDKit          3D

 37 39  0  0  1  0  0  0  0  0999 V2000
   48.1220   33.4860   42.5980 C   0  0  1  0  0  0  0  0  0  0  0  0
   46.6540   33.7270   42.3430 C   0  0  2  0  0  0  0  0  0  0  0  0
   46.4380   34.6730   41.3640 O   0  0  0  0  0  0  0  0  0  0  0  0
   46.8340   34.1050   40.1690 C   0  0  0  0  0  0  0  0  0  0  0  0
   48.3190   34.0040   40.1430 C   0  0  2  0  0  0  0  0  0  0  0  0
   48.9560   33.3940   41.3650 C   0  0  2  0  0  0  0  0  0  0  0  0
   44.5690   35.6890   44.8270 C   0  0  0  0  0  0  0  0  0  0  0  0
   45.1800   35.3240   43.6180 C   0  0  0  0  0  0  0  0  0  0  0  0
   45.9800   34.1490   43.5850 C   0  0  0  0  0  0  0  0  0  0  0  0
   46.1140   33.4330   44.7390 N   0  0  0  0  0  0  0  0  0  0  0  0
   45.5060   33.8240   45.8840 C   0  0  0  0  0  0  0  0  0  0  0  0
   44.7330   34.9470   45.9390 N   0  0  0  0  0  0  0  0  0  0  0  0
   48.6420   34.3890   43.5340 O   0  0  0  0  0  0  0  0  0  0  0  0
   48.7710   35.3300   39.9510 O   0  0  0  0  0  0  0  0  0  0  0  0
   49.3910   32.0910   41.1320 O   0  0  0  0  0  0  0  0  0  0  0  0
   50.3980   31.7570   40.2510 C   0  0  0  0  0  0  0  0  0  0  0  0
   51.6050   31.7510   40.9600 C   0  0  0  0  0  0  0  0  0  0  0  0
   52.8180   31.4460   40.3390 C   0  0  0  0  0  0  0  0  0  0  0  0
   52.8510   31.1420   39.0000 C   0  0  0  0  0  0  0  0  0  0  0  0
   51.6570   31.1510   38.3130 C   0  0  0  0  0  0  0  0  0  0  0  0
   50.4590   31.4490   38.9110 C   0  0  0  0  0  0  0  0  0  0  0  0
   48.1791   32.4808   43.0412 H   0  0  0  0  0  0  0  0  0  0  0  0
   46.2332   32.7739   41.9902 H   0  0  0  0  0  0  0  0  0  0  0  0
   46.3953   33.1006   40.0759 H   0  0  0  0  0  0  0  0  0  0  0  0
   46.4915   34.7303   39.3313 H   0  0  0  0  0  0  0  0  0  0  0  0
   48.6140   33.3095   39.3425 H   0  0  0  0  0  0  0  0  0  0  0  0
   49.8421   34.0142   41.5653 H   0  0  0  0  0  0  0  0  0  0  0  0
   43.9465   36.5950   44.8674 H   0  0  0  0  0  0  0  0  0  0  0  0
   45.0429   35.9348   42.7135 H   0  0  0  0  0  0  0  0  0  0  0  0
   45.6388   33.2203   46.7939 H   0  0  0  0  0  0  0  0  0  0  0  0
   48.4533   34.0612   44.4489 H   0  0  0  0  0  0  0  0  0  0  0  0
   48.9174   35.7594   40.8309 H   0  0  0  0  0  0  0  0  0  0  0  0
   51.5978   31.9926   42.0331 H   0  0  0  0  0  0  0  0  0  0  0  0
   53.7496   31.4492   40.9238 H   0  0  0  0  0  0  0  0  0  0  0  0
   53.7973   30.8999   38.4941 H   0  0  0  0  0  0  0  0  0  0  0  0
   51.6646   30.9091   37.2400 H   0  0  0  0  0  0  0  0  0  0  0  0
   49.5361   31.4417   38.3125 H   0  0  0  0  0  0  0  0  0  0  0  0
  1 13  1  0
  2  1  1  0
  2  9  1  0
  3  2  1  0
  4  3  1  0
  5  4  1  0
  5  6  1  0
  6  1  1  0
  7 12  2  0
  8  7  1  0
  9  8  2  0
  9 10  1  0
 10 11  2  0
 11 12  1  0
 14  5  1  0
 15  6  1  0
 16 17  2  0
 16 15  1  0
 18 17  1  0
 19 18  2  0
 20 21  2  0
 20 19  1  0
 21 16  1  0
  1 22  1  1
  2 23  1  6
  4 24  1  0
  4 25  1  0
  5 26  1  6
  6 27  1  1
  7 28  1  0
  8 29  1  0
 11 30  1  0
 13 31  1  0
 14 32  1  0
 17 33  1  0
 18 34  1  0
 19 35  1  0
 20 36  1  0
 21 37  1  0
M  ISO  8  22  13  23  13  24  13  25  13  26  13  27  13  28  14  29  14
M  ISO  8  30  14  31   3  32   3  33  14  34  14  35  14  36  14  37  14
M  END
>  <minimizedAffinity>  (1) 
-5.70047855

>  <minimizedRMSD>  (1) 
1.18455791

$$$$
