
     RDKit          3D

 30 31  0  0  1  0  0  0  0  0999 V2000
   48.1550   33.5220   42.5460 C   0  0  1  0  0  0  0  0  0  0  0  0
   46.6870   33.7220   42.2610 C   0  0  2  0  0  0  0  0  0  0  0  0
   46.4770   34.6200   41.2330 O   0  0  0  0  0  0  0  0  0  0  0  0
   46.8920   33.9920   40.0710 C   0  0  0  0  0  0  0  0  0  0  0  0
   48.4010   33.9380   40.0780 C   0  0  2  0  0  0  0  0  0  0  0  0
   49.0050   33.3900   41.3320 C   0  0  2  0  0  0  0  0  0  0  0  0
   44.5730   35.8060   44.6200 C   0  0  0  0  0  0  0  0  0  0  0  0
   45.2120   35.3830   43.4460 C   0  0  0  0  0  0  0  0  0  0  0  0
   45.9900   34.1900   43.4690 C   0  0  0  0  0  0  0  0  0  0  0  0
   46.0680   33.5290   44.6410 N   0  0  0  0  0  0  0  0  0  0  0  0
   45.4440   33.9570   45.7620 C   0  0  0  0  0  0  0  0  0  0  0  0
   44.6990   35.0900   45.7540 N   0  0  0  0  0  0  0  0  0  0  0  0
   48.6530   34.4720   43.4470 O   0  0  0  0  0  0  0  0  0  0  0  0
   48.8210   35.2480   39.8200 O   0  0  0  0  0  0  0  0  0  0  0  0
   49.4930   32.0910   41.1610 O   0  0  0  0  0  0  0  0  0  0  0  0
   50.8810   32.0970   41.3060 C   0  0  0  0  0  0  0  0  0  0  0  0
   48.2178   32.5401   43.0378 H   0  0  0  0  0  0  0  0  0  0  0  0
   46.2822   32.7473   41.9511 H   0  0  0  0  0  0  0  0  0  0  0  0
   46.5436   34.5600   39.1958 H   0  0  0  0  0  0  0  0  0  0  0  0
   46.4753   32.9753   40.0185 H   0  0  0  0  0  0  0  0  0  0  0  0
   48.7484   33.2263   39.3146 H   0  0  0  0  0  0  0  0  0  0  0  0
   49.8674   34.0430   41.5313 H   0  0  0  0  0  0  0  0  0  0  0  0
   43.9676   36.7244   44.6151 H   0  0  0  0  0  0  0  0  0  0  0  0
   45.1137   35.9655   42.5181 H   0  0  0  0  0  0  0  0  0  0  0  0
   45.5421   33.3784   46.6924 H   0  0  0  0  0  0  0  0  0  0  0  0
   48.4916   34.1641   44.3739 H   0  0  0  0  0  0  0  0  0  0  0  0
   48.9726   35.7207   40.6766 H   0  0  0  0  0  0  0  0  0  0  0  0
   51.1379   32.0981   42.3756 H   0  0  0  0  0  0  0  0  0  0  0  0
   51.3034   31.2007   40.8284 H   0  0  0  0  0  0  0  0  0  0  0  0
   51.2957   32.9969   40.8284 H   0  0  0  0  0  0  0  0  0  0  0  0
  1 13  1  0
  2  1  1  0
  2  9  1  0
  3  2  1  0
  4  5  1  0
  4  3  1  0
  5  6  1  0
  6  1  1  0
  7 12  2  0
  8  9  2  0
  8  7  1  0
  9 10  1  0
 10 11  2  0
 12 11  1  0
 14  5  1  0
 15 16  1  0
 15  6  1  0
  1 17  1  1
  2 18  1  6
  4 19  1  0
  4 20  1  0
  5 21  1  6
  6 22  1  1
  7 23  1  0
  8 24  1  0
 11 25  1  0
 13 26  1  0
 14 27  1  0
 16 28  1  0
 16 29  1  0
 16 30  1  0
M  ISO  8  17  13  18  13  19  13  20  13  21  13  22  13  23  14  24  14
M  ISO  6  25  14  26   3  27   3  28   8  29   8  30   8
M  END
>  <minimizedAffinity>  (1) 
-5.02958107

>  <minimizedRMSD>  (1) 
0.0334111452

$$$$
