
     RDKit          3D

 46 50  0  0  1  0  0  0  0  0999 V2000
   50.0870   32.4430   41.4130 C   0  0  1  0  0  0  0  0  0  0  0  0
   49.2190   32.2340   40.1950 C   0  0  0  0  0  0  0  0  0  0  0  0
   48.6790   32.1040   41.6380 C   0  0  2  0  0  0  0  0  0  0  0  0
   52.8870   30.0600   41.0120 C   0  0  0  0  0  0  0  0  0  0  0  0
   53.0390   29.5690   42.3360 C   0  0  0  0  0  0  0  0  0  0  0  0
   52.1910   30.0600   43.3330 C   0  0  0  0  0  0  0  0  0  0  0  0
   51.2960   30.9590   42.9640 N   0  0  0  0  0  0  0  0  0  0  0  0
   51.1490   31.4250   41.7170 C   0  0  0  0  0  0  0  0  0  0  0  0
   51.9520   30.9760   40.7140 N   0  0  0  0  0  0  0  0  0  0  0  0
   49.7620   28.6020   44.7390 Cl  0  0  0  0  0  0  0  0  0  0  0  0
   51.2490   29.0710   45.4850 C   0  0  0  0  0  0  0  0  0  0  0  0
   52.2020   29.7010   44.7330 C   0  0  0  0  0  0  0  0  0  0  0  0
   53.3140   30.0370   45.4750 C   0  0  0  0  0  0  0  0  0  0  0  0
   53.4580   29.7720   46.8160 C   0  0  0  0  0  0  0  0  0  0  0  0
   52.4650   29.1340   47.5210 C   0  0  0  0  0  0  0  0  0  0  0  0
   51.3370   28.7820   46.8170 C   0  0  0  0  0  0  0  0  0  0  0  0
   47.7960   33.1490   42.0900 N   0  0  0  0  0  0  0  0  0  0  0  0
   47.1640   33.0880   43.3440 C   0  0  0  0  0  0  0  0  0  0  0  0
   47.4860   32.0820   44.2160 C   0  0  0  0  0  0  0  0  0  0  0  0
   46.9630   31.9980   45.4940 C   0  0  0  0  0  0  0  0  0  0  0  0
   46.0750   32.9480   45.9550 C   0  0  0  0  0  0  0  0  0  0  0  0
   45.7330   33.9690   45.0990 C   0  0  0  0  0  0  0  0  0  0  0  0
   44.8500   34.9410   45.5400 C   0  0  0  0  0  0  0  0  0  0  0  0
   44.4770   35.9790   44.7480 C   0  0  0  0  0  0  0  0  0  0  0  0
   45.0190   36.0250   43.4690 C   0  0  0  0  0  0  0  0  0  0  0  0
   45.8900   35.0620   43.0420 C   0  0  0  0  0  0  0  0  0  0  0  0
   46.2710   34.0210   43.8320 C   0  0  0  0  0  0  0  0  0  0  0  0
   46.3900   35.1480   41.7660 O   0  0  0  0  0  0  0  0  0  0  0  0
   50.7336   33.2604   41.7647 H   0  0  0  0  0  0  0  0  0  0  0  0
   48.9272   33.0875   39.5655 H   0  0  0  0  0  0  0  0  0  0  0  0
   49.2495   31.5967   39.2989 H   0  0  0  0  0  0  0  0  0  0  0  0
   48.1580   31.3263   42.2157 H   0  0  0  0  0  0  0  0  0  0  0  0
   53.5470   29.6831   40.2168 H   0  0  0  0  0  0  0  0  0  0  0  0
   53.8077   28.8183   42.5719 H   0  0  0  0  0  0  0  0  0  0  0  0
   54.1397   30.5505   44.9606 H   0  0  0  0  0  0  0  0  0  0  0  0
   54.3809   30.0747   47.3325 H   0  0  0  0  0  0  0  0  0  0  0  0
   52.5675   28.9160   48.5943 H   0  0  0  0  0  0  0  0  0  0  0  0
   50.5076   28.2689   47.3256 H   0  0  0  0  0  0  0  0  0  0  0  0
   47.6237   33.9604   41.4794 H   0  0  0  0  0  0  0  0  0  0  0  0
   48.1921   31.3061   43.8853 H   0  0  0  0  0  0  0  0  0  0  0  0
   47.2581   31.1653   46.1493 H   0  0  0  0  0  0  0  0  0  0  0  0
   45.6557   32.8910   46.9703 H   0  0  0  0  0  0  0  0  0  0  0  0
   44.4403   34.8701   46.5584 H   0  0  0  0  0  0  0  0  0  0  0  0
   43.7768   36.7495   45.1030 H   0  0  0  0  0  0  0  0  0  0  0  0
   44.7435   36.8469   42.7918 H   0  0  0  0  0  0  0  0  0  0  0  0
   47.0223   34.4620   41.4348 H   0  0  0  0  0  0  0  0  0  0  0  0
  1  3  1  0
  1  8  1  0
  2  1  1  0
  2  3  1  0
  3 17  1  0
  4  5  2  0
  5  6  1  0
  6 12  1  0
  7  6  2  0
  8  7  1  0
  9  4  1  0
  9  8  2  0
 10 11  1  0
 11 16  2  0
 12 13  2  0
 12 11  1  0
 13 14  1  0
 14 15  2  0
 16 15  1  0
 17 18  1  0
 18 27  1  0
 18 19  2  0
 19 20  1  0
 20 21  2  0
 22 23  2  0
 22 21  1  0
 24 23  1  0
 25 24  2  0
 26 25  1  0
 26 27  2  0
 27 22  1  0
 28 26  1  0
  1 29  1  6
  2 30  1  0
  2 31  1  0
  3 32  1  1
  4 33  1  0
  5 34  1  0
 13 35  1  0
 14 36  1  0
 15 37  1  0
 16 38  1  0
 17 39  1  0
 19 40  1  0
 20 41  1  0
 21 42  1  0
 23 43  1  0
 24 44  1  0
 25 45  1  0
 28 46  1  0
M  ISO  8  29  13  30  13  31  13  32  13  33  14  34  14  35  14  36  14
M  ISO  8  37  14  38  14  40  14  41  14  42  14  43  14  44  14  45  14
M  ISO  1  46   3
M  END
>  <minimizedAffinity>  (1) 
-5.4595809

>  <minimizedRMSD>  (1) 
1.7298491

$$$$
