
     RDKit          3D

 41 43  0  0  1  0  0  0  0  0999 V2000
   47.9780   33.4100   42.5100 C   0  0  1  0  0  0  0  0  0  0  0  0
   46.4990   33.6870   42.2340 C   0  0  2  0  0  0  0  0  0  0  0  0
   46.3310   34.5500   41.1910 O   0  0  0  0  0  0  0  0  0  0  0  0
   46.6990   33.9060   40.0400 C   0  0  0  0  0  0  0  0  0  0  0  0
   48.1820   33.7230   40.0250 C   0  0  2  0  0  0  0  0  0  0  0  0
   48.7870   33.1850   41.3080 C   0  0  2  0  0  0  0  0  0  0  0  0
   44.5510   35.9480   44.5740 C   0  0  0  0  0  0  0  0  0  0  0  0
   45.1430   35.4610   43.3970 C   0  0  0  0  0  0  0  0  0  0  0  0
   45.8550   34.2180   43.4460 C   0  0  0  0  0  0  0  0  0  0  0  0
   45.9310   33.5620   44.6210 N   0  0  0  0  0  0  0  0  0  0  0  0
   45.3420   34.0700   45.7430 C   0  0  0  0  0  0  0  0  0  0  0  0
   44.6570   35.2510   45.7280 N   0  0  0  0  0  0  0  0  0  0  0  0
   48.5320   34.3410   43.3730 O   0  0  0  0  0  0  0  0  0  0  0  0
   48.7030   35.0000   39.7350 O   0  0  0  0  0  0  0  0  0  0  0  0
   49.1540   31.8340   41.1240 O   0  0  0  0  0  0  0  0  0  0  0  0
   51.4240   32.2060   41.7050 N   0  0  0  0  0  0  0  0  0  0  0  0
   51.2720   31.1760   42.7550 C   0  0  0  0  0  0  0  0  0  0  0  0
   51.6560   29.9640   41.9390 C   0  0  0  0  0  0  0  0  0  0  0  0
   50.8840   30.2220   40.6560 C   0  0  0  0  0  0  0  0  0  0  0  0
   50.4720   31.6970   40.7520 C   0  0  1  0  0  0  0  0  0  0  0  0
   50.6400   32.2050   39.4030 N   0  0  0  0  0  0  0  0  0  0  0  0
   47.9988   32.4418   43.0318 H   0  0  0  0  0  0  0  0  0  0  0  0
   46.0235   32.7355   41.9536 H   0  0  0  0  0  0  0  0  0  0  0  0
   46.2076   32.9228   39.9966 H   0  0  0  0  0  0  0  0  0  0  0  0
   46.3944   34.5064   39.1701 H   0  0  0  0  0  0  0  0  0  0  0  0
   48.4379   32.9530   39.2823 H   0  0  0  0  0  0  0  0  0  0  0  0
   49.6932   33.7738   41.5130 H   0  0  0  0  0  0  0  0  0  0  0  0
   43.9993   36.8995   44.5570 H   0  0  0  0  0  0  0  0  0  0  0  0
   45.0617   36.0232   42.4550 H   0  0  0  0  0  0  0  0  0  0  0  0
   45.4217   33.5112   46.6872 H   0  0  0  0  0  0  0  0  0  0  0  0
   48.3666   34.0630   44.3087 H   0  0  0  0  0  0  0  0  0  0  0  0
   48.8975   35.4768   40.5805 H   0  0  0  0  0  0  0  0  0  0  0  0
   51.1674   33.1441   42.0440 H   0  0  0  0  0  0  0  0  0  0  0  0
   51.9574   31.3410   43.5994 H   0  0  0  0  0  0  0  0  0  0  0  0
   50.2860   31.1315   43.2405 H   0  0  0  0  0  0  0  0  0  0  0  0
   52.7403   29.9262   41.7574 H   0  0  0  0  0  0  0  0  0  0  0  0
   51.4268   29.0019   42.4205 H   0  0  0  0  0  0  0  0  0  0  0  0
   49.9979   29.5729   40.5971 H   0  0  0  0  0  0  0  0  0  0  0  0
   51.4805   30.0098   39.7565 H   0  0  0  0  0  0  0  0  0  0  0  0
   50.9632   33.1822   39.4419 H   0  0  0  0  0  0  0  0  0  0  0  0
   51.3365   31.6326   38.9048 H   0  0  0  0  0  0  0  0  0  0  0  0
  1 13  1  0
  2  1  1  0
  2  9  1  0
  3  2  1  0
  4  3  1  0
  5  4  1  0
  5  6  1  0
  6  1  1  0
  7 12  2  0
  8  9  2  0
  8  7  1  0
  9 10  1  0
 10 11  2  0
 12 11  1  0
 14  5  1  0
 15  6  1  0
 16 17  1  0
 18 17  1  0
 19 20  1  0
 19 18  1  0
 20 15  1  1
 20 16  1  0
 21 20  1  0
  1 22  1  1
  2 23  1  6
  4 24  1  0
  4 25  1  0
  5 26  1  6
  6 27  1  1
  7 28  1  0
  8 29  1  0
 11 30  1  0
 13 31  1  0
 14 32  1  0
 16 33  1  0
 17 34  1  0
 17 35  1  0
 18 36  1  0
 18 37  1  0
 19 38  1  0
 19 39  1  0
 21 40  1  0
 21 41  1  0
M  ISO  8  22  13  23  13  24  13  25  13  26  13  27  13  28  14  29  14
M  ISO  8  30  14  31   3  32   3  33   5  34  13  35  13  36  13  37  13
M  ISO  4  38  13  39  13  40   5  41   5
M  END
>  <minimizedAffinity>  (1) 
-5.71816778

>  <minimizedRMSD>  (1) 
0.346132845

$$$$
