
     RDKit          3D

 41 43  0  0  1  0  0  0  0  0999 V2000
   47.9520   33.3510   42.4620 C   0  0  1  0  0  0  0  0  0  0  0  0
   46.4800   33.6800   42.2140 C   0  0  2  0  0  0  0  0  0  0  0  0
   46.3190   34.5750   41.1990 O   0  0  0  0  0  0  0  0  0  0  0  0
   46.6610   33.9590   40.0250 C   0  0  0  0  0  0  0  0  0  0  0  0
   48.1370   33.7400   39.9850 C   0  0  2  0  0  0  0  0  0  0  0  0
   48.7410   33.1460   41.2430 C   0  0  2  0  0  0  0  0  0  0  0  0
   44.5290   35.8530   44.6270 C   0  0  0  0  0  0  0  0  0  0  0  0
   45.1040   35.3950   43.4330 C   0  0  0  0  0  0  0  0  0  0  0  0
   45.8590   34.1760   43.4490 C   0  0  0  0  0  0  0  0  0  0  0  0
   45.9890   33.5130   44.6080 N   0  0  0  0  0  0  0  0  0  0  0  0
   45.4120   33.9920   45.7570 C   0  0  0  0  0  0  0  0  0  0  0  0
   44.6940   35.1440   45.7680 N   0  0  0  0  0  0  0  0  0  0  0  0
   48.5390   34.2360   43.3520 O   0  0  0  0  0  0  0  0  0  0  0  0
   48.6860   35.0120   39.7300 O   0  0  0  0  0  0  0  0  0  0  0  0
   49.0760   31.7940   41.0100 O   0  0  0  0  0  0  0  0  0  0  0  0
   51.3300   32.4200   41.4170 N   0  0  0  0  0  0  0  0  0  0  0  0
   51.2430   31.6770   42.6970 C   0  0  0  0  0  0  0  0  0  0  0  0
   51.6930   30.3160   42.2030 C   0  0  0  0  0  0  0  0  0  0  0  0
   50.8870   30.2060   40.9190 C   0  0  0  0  0  0  0  0  0  0  0  0
   50.3950   31.6370   40.6490 C   0  0  1  0  0  0  0  0  0  0  0  0
   50.5900   31.8020   39.1700 C   0  0  0  0  0  0  0  0  0  0  0  0
   51.7370   31.6300   38.7590 O   0  0  0  0  0  0  0  0  0  0  0  0
   47.9538   32.3639   42.9474 H   0  0  0  0  0  0  0  0  0  0  0  0
   45.9771   32.7514   41.9061 H   0  0  0  0  0  0  0  0  0  0  0  0
   46.1453   32.9898   39.9565 H   0  0  0  0  0  0  0  0  0  0  0  0
   46.3634   34.5955   39.1787 H   0  0  0  0  0  0  0  0  0  0  0  0
   48.3662   32.9891   39.2145 H   0  0  0  0  0  0  0  0  0  0  0  0
   49.6623   33.7073   41.4581 H   0  0  0  0  0  0  0  0  0  0  0  0
   43.9457   36.7855   44.6363 H   0  0  0  0  0  0  0  0  0  0  0  0
   44.9779   35.9618   42.4988 H   0  0  0  0  0  0  0  0  0  0  0  0
   45.5344   33.4280   46.6934 H   0  0  0  0  0  0  0  0  0  0  0  0
   48.3474   33.9472   44.2793 H   0  0  0  0  0  0  0  0  0  0  0  0
   48.8816   35.4651   40.5882 H   0  0  0  0  0  0  0  0  0  0  0  0
   51.0265   33.3993   41.5157 H   0  0  0  0  0  0  0  0  0  0  0  0
   51.9222   32.0857   43.4596 H   0  0  0  0  0  0  0  0  0  0  0  0
   50.2632   31.7021   43.1964 H   0  0  0  0  0  0  0  0  0  0  0  0
   52.7750   30.2929   42.0063 H   0  0  0  0  0  0  0  0  0  0  0  0
   51.5329   29.4939   42.9162 H   0  0  0  0  0  0  0  0  0  0  0  0
   51.5194   29.8499   40.0924 H   0  0  0  0  0  0  0  0  0  0  0  0
   50.0579   29.4883   41.0060 H   0  0  0  0  0  0  0  0  0  0  0  0
   49.7600   32.0604   38.4960 H   0  0  0  0  0  0  0  0  0  0  0  0
  1 13  1  0
  2  1  1  0
  2  9  1  0
  3  2  1  0
  4  3  1  0
  5  4  1  0
  5  6  1  0
  6  1  1  0
  7 12  2  0
  8  9  2  0
  8  7  1  0
  9 10  1  0
 10 11  2  0
 11 12  1  0
 14  5  1  0
 15  6  1  0
 16 17  1  0
 18 17  1  0
 19 18  1  0
 20 21  1  0
 20 19  1  0
 20 15  1  1
 20 16  1  0
 22 21  2  0
  1 23  1  1
  2 24  1  6
  4 25  1  0
  4 26  1  0
  5 27  1  6
  6 28  1  1
  7 29  1  0
  8 30  1  0
 11 31  1  0
 13 32  1  0
 14 33  1  0
 16 34  1  0
 17 35  1  0
 17 36  1  0
 18 37  1  0
 18 38  1  0
 19 39  1  0
 19 40  1  0
 21 41  1  0
M  ISO  8  23  13  24  13  25  13  26  13  27  13  28  13  29  14  30  14
M  ISO  8  31  14  32   3  33   3  34   5  35  13  36  13  37  13  38  13
M  ISO  3  39  13  40  13  41   6
M  END
>  <minimizedAffinity>  (1) 
-5.29048491

>  <minimizedRMSD>  (1) 
0.621747553

$$$$
