
     RDKit          3D

 45 47  0  0  1  0  0  0  0  0999 V2000
   47.9550   33.3510   42.4580 C   0  0  1  0  0  0  0  0  0  0  0  0
   46.4850   33.6750   42.2120 C   0  0  2  0  0  0  0  0  0  0  0  0
   46.3230   34.5800   41.2020 O   0  0  0  0  0  0  0  0  0  0  0  0
   46.6530   33.9610   40.0280 C   0  0  0  0  0  0  0  0  0  0  0  0
   48.1330   33.7480   39.9810 C   0  0  2  0  0  0  0  0  0  0  0  0
   48.7480   33.1630   41.2380 C   0  0  2  0  0  0  0  0  0  0  0  0
   44.5320   35.8450   44.6310 C   0  0  0  0  0  0  0  0  0  0  0  0
   45.1040   35.3940   43.4360 C   0  0  0  0  0  0  0  0  0  0  0  0
   45.8610   34.1740   43.4470 C   0  0  0  0  0  0  0  0  0  0  0  0
   45.9980   33.5030   44.6040 N   0  0  0  0  0  0  0  0  0  0  0  0
   45.4190   33.9840   45.7560 C   0  0  0  0  0  0  0  0  0  0  0  0
   44.6980   35.1350   45.7700 N   0  0  0  0  0  0  0  0  0  0  0  0
   48.5390   34.2350   43.3530 O   0  0  0  0  0  0  0  0  0  0  0  0
   48.6780   35.0200   39.7250 O   0  0  0  0  0  0  0  0  0  0  0  0
   49.1020   31.8270   40.9870 O   0  0  0  0  0  0  0  0  0  0  0  0
   51.3510   32.4030   41.4240 N   0  0  0  0  0  0  0  0  0  0  0  0
   51.2590   31.6320   42.6880 C   0  0  0  0  0  0  0  0  0  0  0  0
   51.6890   30.2870   42.1630 C   0  0  0  0  0  0  0  0  0  0  0  0
   50.8630   30.2070   40.8940 C   0  0  0  0  0  0  0  0  0  0  0  0
   50.4110   31.6540   40.6330 C   0  0  1  0  0  0  0  0  0  0  0  0
   50.7170   31.8480   39.1760 C   0  0  0  0  0  0  0  0  0  0  0  0
   49.9880   30.7070   38.4470 C   0  0  0  0  0  0  0  0  0  0  0  0
   47.9580   32.3599   42.9352 H   0  0  0  0  0  0  0  0  0  0  0  0
   45.9882   32.7433   41.9035 H   0  0  0  0  0  0  0  0  0  0  0  0
   46.1398   32.9899   39.9676 H   0  0  0  0  0  0  0  0  0  0  0  0
   46.3439   34.5898   39.1800 H   0  0  0  0  0  0  0  0  0  0  0  0
   48.3566   32.9966   39.2094 H   0  0  0  0  0  0  0  0  0  0  0  0
   49.6580   33.7364   41.4687 H   0  0  0  0  0  0  0  0  0  0  0  0
   43.9475   36.7768   44.6438 H   0  0  0  0  0  0  0  0  0  0  0  0
   44.9758   35.9644   42.5042 H   0  0  0  0  0  0  0  0  0  0  0  0
   45.5437   33.4202   46.6923 H   0  0  0  0  0  0  0  0  0  0  0  0
   48.3459   33.9428   44.2790 H   0  0  0  0  0  0  0  0  0  0  0  0
   48.8727   35.4743   40.5828 H   0  0  0  0  0  0  0  0  0  0  0  0
   51.0576   33.3826   41.5472 H   0  0  0  0  0  0  0  0  0  0  0  0
   51.9453   32.0149   43.4576 H   0  0  0  0  0  0  0  0  0  0  0  0
   50.2816   31.6571   43.1920 H   0  0  0  0  0  0  0  0  0  0  0  0
   52.7674   30.2613   41.9476 H   0  0  0  0  0  0  0  0  0  0  0  0
   51.5355   29.4521   42.8626 H   0  0  0  0  0  0  0  0  0  0  0  0
   51.4717   29.8335   40.0574 H   0  0  0  0  0  0  0  0  0  0  0  0
   50.0129   29.5159   40.9926 H   0  0  0  0  0  0  0  0  0  0  0  0
   50.3444   32.8240   38.8317 H   0  0  0  0  0  0  0  0  0  0  0  0
   51.7994   31.8309   38.9808 H   0  0  0  0  0  0  0  0  0  0  0  0
   49.5495   30.0206   39.1863 H   0  0  0  0  0  0  0  0  0  0  0  0
   49.1897   31.1257   37.8166 H   0  0  0  0  0  0  0  0  0  0  0  0
   50.7034   30.1585   37.8166 H   0  0  0  0  0  0  0  0  0  0  0  0
  1 13  1  0
  2  1  1  0
  2  9  1  0
  3  2  1  0
  4  3  1  0
  5  4  1  0
  5  6  1  0
  6  1  1  0
  7 12  2  0
  8  9  2  0
  8  7  1  0
  9 10  1  0
 10 11  2  0
 11 12  1  0
 14  5  1  0
 15  6  1  0
 16 17  1  0
 18 17  1  0
 19 18  1  0
 20 21  1  0
 20 19  1  0
 20 15  1  6
 20 16  1  0
 22 21  1  0
  1 23  1  1
  2 24  1  6
  4 25  1  0
  4 26  1  0
  5 27  1  6
  6 28  1  1
  7 29  1  0
  8 30  1  0
 11 31  1  0
 13 32  1  0
 14 33  1  0
 16 34  1  0
 17 35  1  0
 17 36  1  0
 18 37  1  0
 18 38  1  0
 19 39  1  0
 19 40  1  0
 21 41  1  0
 21 42  1  0
 22 43  1  0
 22 44  1  0
 22 45  1  0
M  ISO  8  23  13  24  13  25  13  26  13  27  13  28  13  29  14  30  14
M  ISO  8  31  14  32   3  33   3  34   5  35  13  36  13  37  13  38  13
M  ISO  7  39  13  40  13  41   8  42   8  43   8  44   8  45   8
M  END
>  <minimizedAffinity>  (1) 
-5.18883371

>  <minimizedRMSD>  (1) 
0.801807225

$$$$
