
     RDKit          3D

 37 40  0  0  0  0  0  0  0  0999 V2000
   44.4700   35.9180   44.9190 C   0  0  0  0  0  0  0  0  0  0  0  0
   45.0660   35.9040   43.6210 C   0  0  0  0  0  0  0  0  0  0  0  0
   45.9210   34.8550   43.3310 C   0  0  0  0  0  0  0  0  0  0  0  0
   46.1500   33.9120   44.2630 N   0  0  0  0  0  0  0  0  0  0  0  0
   45.5700   33.9520   45.4880 C   0  0  0  0  0  0  0  0  0  0  0  0
   44.7410   34.9440   45.8080 N   0  0  0  0  0  0  0  0  0  0  0  0
   45.8600   32.9200   46.4210 N   0  0  0  0  0  0  0  0  0  0  0  0
   46.7600   31.8310   46.0920 C   0  0  0  0  0  0  0  0  0  0  0  0
   45.9620   30.5560   46.2930 C   0  0  0  0  0  0  0  0  0  0  0  0
   45.3360   30.4690   47.5700 N   0  0  0  0  0  0  0  0  0  0  0  0
   45.5380   31.6030   48.4290 C   0  0  0  0  0  0  0  0  0  0  0  0
   45.2640   32.9190   47.7440 C   0  0  0  0  0  0  0  0  0  0  0  0
   47.8830   35.2120   41.9390 C   0  0  0  0  0  0  0  0  0  0  0  0
   46.6070   34.7000   42.0480 C   0  0  0  0  0  0  0  0  0  0  0  0
   46.0520   34.0780   40.9550 C   0  0  0  0  0  0  0  0  0  0  0  0
   46.7100   33.9400   39.7570 C   0  0  0  0  0  0  0  0  0  0  0  0
   46.3720   33.3770   38.5660 N   0  0  0  0  0  0  0  0  0  0  0  0
   47.4290   33.5320   37.7140 C   0  0  0  0  0  0  0  0  0  0  0  0
   48.4220   34.1980   38.3920 N   0  0  0  0  0  0  0  0  0  0  0  0
   47.9970   34.4560   39.6450 C   0  0  0  0  0  0  0  0  0  0  0  0
   48.5650   35.0810   40.7300 C   0  0  0  0  0  0  0  0  0  0  0  0
   43.7834   36.7320   45.1947 H   0  0  0  0  0  0  0  0  0  0  0  0
   44.8546   36.6927   42.8839 H   0  0  0  0  0  0  0  0  0  0  0  0
   47.6352   31.8435   46.7582 H   0  0  0  0  0  0  0  0  0  0  0  0
   47.1346   31.9144   45.0611 H   0  0  0  0  0  0  0  0  0  0  0  0
   45.1814   30.5089   45.5194 H   0  0  0  0  0  0  0  0  0  0  0  0
   46.6712   29.7179   46.2242 H   0  0  0  0  0  0  0  0  0  0  0  0
   44.3228   30.3584   47.4213 H   0  0  0  0  0  0  0  0  0  0  0  0
   44.8648   31.5115   49.2941 H   0  0  0  0  0  0  0  0  0  0  0  0
   46.5961   31.6031   48.7296 H   0  0  0  0  0  0  0  0  0  0  0  0
   45.6958   33.7370   48.3393 H   0  0  0  0  0  0  0  0  0  0  0  0
   44.1770   33.0602   47.6519 H   0  0  0  0  0  0  0  0  0  0  0  0
   48.3561   35.7168   42.7942 H   0  0  0  0  0  0  0  0  0  0  0  0
   45.0336   33.6719   41.0438 H   0  0  0  0  0  0  0  0  0  0  0  0
   45.4779   32.9156   38.3454 H   0  0  0  0  0  0  0  0  0  0  0  0
   47.4767   33.1855   36.6711 H   0  0  0  0  0  0  0  0  0  0  0  0
   49.5832   35.4879   40.6420 H   0  0  0  0  0  0  0  0  0  0  0  0
  1  6  2  0
  2  1  1  0
  3  2  2  0
  3  4  1  0
  4  5  2  0
  5  6  1  0
  5  7  1  0
  7 12  1  0
  8  9  1  0
  8  7  1  0
  9 10  1  0
 10 11  1  0
 12 11  1  0
 13 14  2  0
 14  3  1  0
 15 14  1  0
 16 15  2  0
 17 16  1  0
 18 19  2  0
 18 17  1  0
 19 20  1  0
 20 16  1  0
 20 21  2  0
 21 13  1  0
  1 22  1  0
  2 23  1  0
  8 24  1  0
  8 25  1  0
  9 26  1  0
  9 27  1  0
 10 28  1  0
 11 29  1  0
 11 30  1  0
 12 31  1  0
 12 32  1  0
 13 33  1  0
 15 34  1  0
 17 35  1  0
 18 36  1  0
 21 37  1  0
M  ISO  8  22  14  23  14  24  13  25  13  26  13  27  13  28   5  29  13
M  ISO  8  30  13  31  13  32  13  33  14  34  14  35   9  36  14  37  14
M  END
>  <minimizedAffinity>  (1) 
-7.1055994

>  <minimizedRMSD>  (1) 
0.0315706059

$$$$
