
     RDKit          3D

 51 55  0  0  1  0  0  0  0  0999 V2000
   49.8060   31.9160   41.0450 C   0  0  1  0  0  0  0  0  0  0  0  0
   48.4740   31.6250   40.4130 C   0  0  0  0  0  0  0  0  0  0  0  0
   48.6470   31.8760   41.9370 C   0  0  2  0  0  0  0  0  0  0  0  0
   51.8460   28.9670   40.1020 C   0  0  0  0  0  0  0  0  0  0  0  0
   52.6730   28.8080   41.2540 C   0  0  0  0  0  0  0  0  0  0  0  0
   52.5110   29.7280   42.3360 C   0  0  0  0  0  0  0  0  0  0  0  0
   51.5970   30.6910   42.2180 N   0  0  0  0  0  0  0  0  0  0  0  0
   50.8310   30.8080   41.1080 C   0  0  0  0  0  0  0  0  0  0  0  0
   50.9430   29.9540   40.0360 N   0  0  0  0  0  0  0  0  0  0  0  0
   53.3270   29.5890   43.5010 N   0  0  0  0  0  0  0  0  0  0  0  0
   54.6580   28.9940   43.3030 C   0  0  0  0  0  0  0  0  0  0  0  0
   55.5990   29.7580   44.2100 C   0  0  0  0  0  0  0  0  0  0  0  0
   55.1240   29.4720   45.6290 C   0  0  0  0  0  0  0  0  0  0  0  0
   53.8150   30.1690   45.8560 C   0  0  0  0  0  0  0  0  0  0  0  0
   52.8180   30.0240   44.7620 C   0  0  0  0  0  0  0  0  0  0  0  0
   48.0920   33.0750   42.4640 N   0  0  0  0  0  0  0  0  0  0  0  0
   47.3160   33.1000   43.6310 C   0  0  0  0  0  0  0  0  0  0  0  0
   47.5240   32.1570   44.5960 C   0  0  0  0  0  0  0  0  0  0  0  0
   46.8370   32.1600   45.8110 C   0  0  0  0  0  0  0  0  0  0  0  0
   45.9020   33.1350   46.0900 C   0  0  0  0  0  0  0  0  0  0  0  0
   45.6790   34.0940   45.1270 C   0  0  0  0  0  0  0  0  0  0  0  0
   44.7540   35.0860   45.3890 C   0  0  0  0  0  0  0  0  0  0  0  0
   44.4890   36.0670   44.4860 C   0  0  0  0  0  0  0  0  0  0  0  0
   45.1810   36.0340   43.2890 C   0  0  0  0  0  0  0  0  0  0  0  0
   46.0940   35.0460   43.0420 C   0  0  0  0  0  0  0  0  0  0  0  0
   46.3720   34.0610   43.9380 C   0  0  0  0  0  0  0  0  0  0  0  0
   46.7520   35.0470   41.8350 O   0  0  0  0  0  0  0  0  0  0  0  0
   50.5909   32.6651   40.8638 H   0  0  0  0  0  0  0  0  0  0  0  0
   47.9829   32.3757   39.7764 H   0  0  0  0  0  0  0  0  0  0  0  0
   48.0512   30.8292   39.7822 H   0  0  0  0  0  0  0  0  0  0  0  0
   48.4250   31.3347   42.8685 H   0  0  0  0  0  0  0  0  0  0  0  0
   51.9515   28.2701   39.2575 H   0  0  0  0  0  0  0  0  0  0  0  0
   53.4158   27.9985   41.3080 H   0  0  0  0  0  0  0  0  0  0  0  0
   54.6445   27.9288   43.5772 H   0  0  0  0  0  0  0  0  0  0  0  0
   54.9740   29.0575   42.2513 H   0  0  0  0  0  0  0  0  0  0  0  0
   56.6327   29.4076   44.0733 H   0  0  0  0  0  0  0  0  0  0  0  0
   55.5922   30.8354   43.9883 H   0  0  0  0  0  0  0  0  0  0  0  0
   54.9926   28.3881   45.7624 H   0  0  0  0  0  0  0  0  0  0  0  0
   55.8694   29.8370   46.3509 H   0  0  0  0  0  0  0  0  0  0  0  0
   53.3699   29.7641   46.7769 H   0  0  0  0  0  0  0  0  0  0  0  0
   54.0486   31.2424   45.9134 H   0  0  0  0  0  0  0  0  0  0  0  0
   52.3396   31.0030   44.6115 H   0  0  0  0  0  0  0  0  0  0  0  0
   52.1307   29.2312   45.0922 H   0  0  0  0  0  0  0  0  0  0  0  0
   48.2674   33.9605   41.9681 H   0  0  0  0  0  0  0  0  0  0  0  0
   48.2623   31.3634   44.4086 H   0  0  0  0  0  0  0  0  0  0  0  0
   47.0435   31.3760   46.5544 H   0  0  0  0  0  0  0  0  0  0  0  0
   45.3556   33.1461   47.0447 H   0  0  0  0  0  0  0  0  0  0  0  0
   44.2196   35.0820   46.3504 H   0  0  0  0  0  0  0  0  0  0  0  0
   43.7529   36.8562   44.6990 H   0  0  0  0  0  0  0  0  0  0  0  0
   44.9957   36.8082   42.5299 H   0  0  0  0  0  0  0  0  0  0  0  0
   47.4173   34.3421   41.6333 H   0  0  0  0  0  0  0  0  0  0  0  0
  1  8  1  0
  1  3  1  0
  2  1  1  0
  2  3  1  0
  3 16  1  0
  4  5  2  0
  5  6  1  0
  6 10  1  0
  7  6  2  0
  8  7  1  0
  9  4  1  0
  9  8  2  0
 10 15  1  0
 11 10  1  0
 11 12  1  0
 12 13  1  0
 13 14  1  0
 15 14  1  0
 16 17  1  0
 17 26  1  0
 17 18  2  0
 18 19  1  0
 19 20  2  0
 21 22  2  0
 21 20  1  0
 23 22  1  0
 24 23  2  0
 25 24  1  0
 25 26  2  0
 26 21  1  0
 27 25  1  0
  1 28  1  6
  2 29  1  0
  2 30  1  0
  3 31  1  1
  4 32  1  0
  5 33  1  0
 11 34  1  0
 11 35  1  0
 12 36  1  0
 12 37  1  0
 13 38  1  0
 13 39  1  0
 14 40  1  0
 14 41  1  0
 15 42  1  0
 15 43  1  0
 16 44  1  0
 18 45  1  0
 19 46  1  0
 20 47  1  0
 22 48  1  0
 23 49  1  0
 24 50  1  0
 27 51  1  0
M  ISO  8  28  13  29  13  30  13  31  13  32  14  33  14  34  13  35  13
M  ISO  8  36  13  37  13  38  13  39  13  40  13  41  13  42  13  43  13
M  ISO  7  45  14  46  14  47  14  48  14  49  14  50  14  51   3
M  END
>  <minimizedAffinity>  (1) 
-5.39409065

>  <minimizedRMSD>  (1) 
1.19588435

$$$$
