
     RDKit          3D

 30 33  0  0  0  0  0  0  0  0999 V2000
   44.4190   35.9820   44.8620 C   0  0  0  0  0  0  0  0  0  0  0  0
   45.0240   35.9020   43.5870 C   0  0  0  0  0  0  0  0  0  0  0  0
   45.9120   34.8630   43.3150 C   0  0  0  0  0  0  0  0  0  0  0  0
   46.1700   33.9590   44.2850 N   0  0  0  0  0  0  0  0  0  0  0  0
   45.5760   34.0540   45.5100 C   0  0  0  0  0  0  0  0  0  0  0  0
   44.7190   35.0500   45.7820 N   0  0  0  0  0  0  0  0  0  0  0  0
   47.8750   35.1990   41.9360 C   0  0  0  0  0  0  0  0  0  0  0  0
   46.5850   34.6940   42.0390 C   0  0  0  0  0  0  0  0  0  0  0  0
   46.0260   34.0770   40.9510 C   0  0  0  0  0  0  0  0  0  0  0  0
   46.7190   33.9440   39.7500 C   0  0  0  0  0  0  0  0  0  0  0  0
   46.3620   33.3760   38.5630 N   0  0  0  0  0  0  0  0  0  0  0  0
   47.4370   33.5280   37.7190 C   0  0  0  0  0  0  0  0  0  0  0  0
   48.4170   34.1770   38.3950 N   0  0  0  0  0  0  0  0  0  0  0  0
   48.0010   34.4440   39.6450 C   0  0  0  0  0  0  0  0  0  0  0  0
   48.5650   35.0630   40.7310 C   0  0  0  0  0  0  0  0  0  0  0  0
   45.9560   32.9970   46.4580 C   0  0  0  0  0  0  0  0  0  0  0  0
   46.8880   31.9860   46.5790 C   0  0  0  0  0  0  0  0  0  0  0  0
   46.6230   31.3750   47.7990 C   0  0  0  0  0  0  0  0  0  0  0  0
   45.5720   32.0030   48.3780 N   0  0  0  0  0  0  0  0  0  0  0  0
   45.1750   32.9720   47.5740 N   0  0  0  0  0  0  0  0  0  0  0  0
   43.7146   36.7935   45.0970 H   0  0  0  0  0  0  0  0  0  0  0  0
   44.7959   36.6531   42.8164 H   0  0  0  0  0  0  0  0  0  0  0  0
   48.3468   35.7001   42.7941 H   0  0  0  0  0  0  0  0  0  0  0  0
   45.0043   33.6766   41.0278 H   0  0  0  0  0  0  0  0  0  0  0  0
   45.4640   32.9224   38.3420 H   0  0  0  0  0  0  0  0  0  0  0  0
   47.4923   33.1828   36.6760 H   0  0  0  0  0  0  0  0  0  0  0  0
   49.5868   35.4622   40.6501 H   0  0  0  0  0  0  0  0  0  0  0  0
   47.6763   31.7194   45.8597 H   0  0  0  0  0  0  0  0  0  0  0  0
   47.1749   30.5234   48.2235 H   0  0  0  0  0  0  0  0  0  0  0  0
   45.1542   31.7655   49.2890 H   0  0  0  0  0  0  0  0  0  0  0  0
  1  6  2  0
  2  1  1  0
  3  2  2  0
  3  4  1  0
  4  5  2  0
  5  6  1  0
  5 16  1  0
  7  8  2  0
  8  3  1  0
  9  8  1  0
 10  9  2  0
 11 10  1  0
 12 13  2  0
 12 11  1  0
 13 14  1  0
 14 10  1  0
 14 15  2  0
 15  7  1  0
 16 17  1  0
 16 20  2  0
 17 18  2  0
 18 19  1  0
 20 19  1  0
  1 21  1  0
  2 22  1  0
  7 23  1  0
  9 24  1  0
 11 25  1  0
 12 26  1  0
 15 27  1  0
 17 28  1  0
 18 29  1  0
 19 30  1  0
M  ISO  8  21  14  22  14  23  14  24  14  25   9  26  14  27  14  28  14
M  ISO  2  29  14  30   9
M  END
>  <minimizedAffinity>  (1) 
-6.60480785

>  <minimizedRMSD>  (1) 
0.100807175

$$$$
