
     RDKit          3D

 27 29  0  0  0  0  0  0  0  0999 V2000
   47.8490   35.2030   41.9430 C   0  0  0  0  0  0  0  0  0  0  0  0
   46.5500   34.7610   42.0360 C   0  0  0  0  0  0  0  0  0  0  0  0
   45.9790   34.1440   40.9420 C   0  0  0  0  0  0  0  0  0  0  0  0
   46.6610   33.9510   39.7530 C   0  0  0  0  0  0  0  0  0  0  0  0
   46.3280   33.3890   38.5730 N   0  0  0  0  0  0  0  0  0  0  0  0
   47.3990   33.4750   37.7430 C   0  0  0  0  0  0  0  0  0  0  0  0
   48.4000   34.0960   38.4250 N   0  0  0  0  0  0  0  0  0  0  0  0
   47.9710   34.3990   39.6640 C   0  0  0  0  0  0  0  0  0  0  0  0
   48.5580   35.0220   40.7540 C   0  0  0  0  0  0  0  0  0  0  0  0
   44.4610   36.2050   44.8320 C   0  0  0  0  0  0  0  0  0  0  0  0
   45.0910   36.1140   43.5730 C   0  0  0  0  0  0  0  0  0  0  0  0
   45.8490   34.9760   43.3030 C   0  0  0  0  0  0  0  0  0  0  0  0
   45.9640   34.0040   44.2330 N   0  0  0  0  0  0  0  0  0  0  0  0
   45.3320   34.1390   45.4450 C   0  0  0  0  0  0  0  0  0  0  0  0
   44.6030   35.2230   45.7160 N   0  0  0  0  0  0  0  0  0  0  0  0
   46.4970   32.1120   46.2240 C   0  0  0  0  0  0  0  0  0  0  0  0
   47.2940   32.1220   45.2540 O   0  0  0  0  0  0  0  0  0  0  0  0
   45.4800   33.0930   46.3930 N   0  0  0  0  0  0  0  0  0  0  0  0
   48.3273   35.6970   42.8016 H   0  0  0  0  0  0  0  0  0  0  0  0
   44.9399   33.7912   41.0177 H   0  0  0  0  0  0  0  0  0  0  0  0
   45.4174   32.9670   38.3413 H   0  0  0  0  0  0  0  0  0  0  0  0
   47.4488   33.1090   36.7069 H   0  0  0  0  0  0  0  0  0  0  0  0
   49.5961   35.3785   40.6814 H   0  0  0  0  0  0  0  0  0  0  0  0
   43.8533   37.0873   45.0815 H   0  0  0  0  0  0  0  0  0  0  0  0
   44.9872   36.9163   42.8276 H   0  0  0  0  0  0  0  0  0  0  0  0
   46.5885   31.3124   46.9738 H   0  0  0  0  0  0  0  0  0  0  0  0
   44.8493   33.0438   47.2058 H   0  0  0  0  0  0  0  0  0  0  0  0
  1  2  2  0
  2 12  1  0
  3  2  1  0
  4  3  2  0
  5  4  1  0
  6  7  2  0
  6  5  1  0
  7  8  1  0
  8  4  1  0
  8  9  2  0
  9  1  1  0
 10 15  2  0
 11 10  1  0
 12 11  2  0
 12 13  1  0
 13 14  2  0
 14 15  1  0
 14 18  1  0
 16 18  1  0
 17 16  2  0
  1 19  1  0
  3 20  1  0
  5 21  1  0
  6 22  1  0
  9 23  1  0
 10 24  1  0
 11 25  1  0
 16 26  1  0
 18 27  1  0
M  ISO  8  19  14  20  14  21   9  22  14  23  14  24  14  25  14  26   6
M  END
>  <minimizedAffinity>  (1) 
-6.34102964

>  <minimizedRMSD>  (1) 
0.219475433

$$$$
