
     RDKit          3D

 25 27  0  0  0  0  0  0  0  0999 V2000
   47.8610   35.2210   41.9100 C   0  0  0  0  0  0  0  0  0  0  0  0
   46.5740   34.7480   42.0080 C   0  0  0  0  0  0  0  0  0  0  0  0
   46.0250   34.1260   40.9150 C   0  0  0  0  0  0  0  0  0  0  0  0
   46.6850   33.9470   39.7220 C   0  0  0  0  0  0  0  0  0  0  0  0
   46.3560   33.3810   38.5430 N   0  0  0  0  0  0  0  0  0  0  0  0
   47.4290   33.4970   37.7090 C   0  0  0  0  0  0  0  0  0  0  0  0
   48.4300   34.1450   38.3930 N   0  0  0  0  0  0  0  0  0  0  0  0
   47.9840   34.4240   39.6220 C   0  0  0  0  0  0  0  0  0  0  0  0
   48.5590   35.0540   40.7110 C   0  0  0  0  0  0  0  0  0  0  0  0
   44.4860   36.0990   44.8490 C   0  0  0  0  0  0  0  0  0  0  0  0
   45.1050   36.0480   43.5740 C   0  0  0  0  0  0  0  0  0  0  0  0
   45.8780   34.9410   43.2760 C   0  0  0  0  0  0  0  0  0  0  0  0
   46.0150   33.9510   44.2060 N   0  0  0  0  0  0  0  0  0  0  0  0
   45.4010   34.0410   45.4210 C   0  0  0  0  0  0  0  0  0  0  0  0
   44.6530   35.1060   45.7190 N   0  0  0  0  0  0  0  0  0  0  0  0
   45.6410   32.9210   46.2890 N   0  0  0  0  0  0  0  0  0  0  0  0
   48.3356   35.7248   42.7650 H   0  0  0  0  0  0  0  0  0  0  0  0
   44.9954   33.7480   40.9981 H   0  0  0  0  0  0  0  0  0  0  0  0
   45.4543   32.9394   38.3131 H   0  0  0  0  0  0  0  0  0  0  0  0
   47.4837   33.1356   36.6715 H   0  0  0  0  0  0  0  0  0  0  0  0
   49.5889   35.4320   40.6314 H   0  0  0  0  0  0  0  0  0  0  0  0
   43.8640   36.9647   45.1204 H   0  0  0  0  0  0  0  0  0  0  0  0
   44.9744   36.8623   42.8461 H   0  0  0  0  0  0  0  0  0  0  0  0
   45.2194   32.8979   47.2285 H   0  0  0  0  0  0  0  0  0  0  0  0
   46.2346   32.1414   45.9716 H   0  0  0  0  0  0  0  0  0  0  0  0
  1  2  2  0
  2 12  1  0
  3  2  1  0
  4  3  2  0
  5  4  1  0
  6  7  2  0
  6  5  1  0
  7  8  1  0
  8  4  1  0
  8  9  2  0
  9  1  1  0
 10 15  2  0
 11 10  1  0
 12 11  2  0
 12 13  1  0
 13 14  2  0
 14 15  1  0
 14 16  1  0
  1 17  1  0
  3 18  1  0
  5 19  1  0
  6 20  1  0
  9 21  1  0
 10 22  1  0
 11 23  1  0
 16 24  1  0
 16 25  1  0
M  ISO  7  17  14  18  14  19   9  20  14  21  14  22  14  23  14
M  END
>  <minimizedAffinity>  (1) 
-5.86558104

>  <minimizedRMSD>  (1) 
0.119841926

$$$$
