
     RDKit          3D

 29 31  0  0  0  0  0  0  0  0999 V2000
   47.9360   35.2120   41.9920 C   0  0  0  0  0  0  0  0  0  0  0  0
   46.6950   34.6070   42.1150 C   0  0  0  0  0  0  0  0  0  0  0  0
   46.1510   33.9900   41.0160 C   0  0  0  0  0  0  0  0  0  0  0  0
   46.7910   33.9490   39.7880 C   0  0  0  0  0  0  0  0  0  0  0  0
   46.4600   33.4150   38.5970 N   0  0  0  0  0  0  0  0  0  0  0  0
   47.4660   33.6690   37.7180 C   0  0  0  0  0  0  0  0  0  0  0  0
   48.4310   34.3750   38.3950 N   0  0  0  0  0  0  0  0  0  0  0  0
   48.0300   34.5520   39.6580 C   0  0  0  0  0  0  0  0  0  0  0  0
   48.5950   35.1780   40.7570 C   0  0  0  0  0  0  0  0  0  0  0  0
   44.5310   35.5680   45.0550 C   0  0  0  0  0  0  0  0  0  0  0  0
   45.0830   35.6050   43.7570 C   0  0  0  0  0  0  0  0  0  0  0  0
   46.0520   34.6700   43.4210 C   0  0  0  0  0  0  0  0  0  0  0  0
   46.4460   33.7470   44.3430 N   0  0  0  0  0  0  0  0  0  0  0  0
   45.8800   33.7510   45.5940 C   0  0  0  0  0  0  0  0  0  0  0  0
   44.9480   34.6430   45.9280 N   0  0  0  0  0  0  0  0  0  0  0  0
   46.3360   32.7200   46.5900 C   0  0  0  0  0  0  0  0  0  0  0  0
   45.3010   32.7150   47.7110 C   0  0  0  0  0  0  0  0  0  0  0  0
   48.3981   35.7134   42.8552 H   0  0  0  0  0  0  0  0  0  0  0  0
   45.1669   33.5085   41.1144 H   0  0  0  0  0  0  0  0  0  0  0  0
   45.5922   32.9014   38.3874 H   0  0  0  0  0  0  0  0  0  0  0  0
   47.5008   33.3656   36.6612 H   0  0  0  0  0  0  0  0  0  0  0  0
   49.5800   35.6575   40.6576 H   0  0  0  0  0  0  0  0  0  0  0  0
   43.7609   36.2966   45.3484 H   0  0  0  0  0  0  0  0  0  0  0  0
   44.7524   36.3587   43.0271 H   0  0  0  0  0  0  0  0  0  0  0  0
   46.3870   31.7291   46.1152 H   0  0  0  0  0  0  0  0  0  0  0  0
   47.3393   32.9547   46.9752 H   0  0  0  0  0  0  0  0  0  0  0  0
   45.8142   32.7175   48.6839 H   0  0  0  0  0  0  0  0  0  0  0  0
   44.6669   33.6101   47.6286 H   0  0  0  0  0  0  0  0  0  0  0  0
   44.6756   31.8138   47.6286 H   0  0  0  0  0  0  0  0  0  0  0  0
  1  2  2  0
  2 12  1  0
  3  2  1  0
  4  3  2  0
  5  4  1  0
  6  7  2  0
  6  5  1  0
  7  8  1  0
  8  4  1  0
  8  9  2  0
  9  1  1  0
 10 15  2  0
 11 10  1  0
 12 11  2  0
 12 13  1  0
 13 14  2  0
 14 15  1  0
 14 16  1  0
 16 17  1  0
  1 18  1  0
  3 19  1  0
  5 20  1  0
  6 21  1  0
  9 22  1  0
 10 23  1  0
 11 24  1  0
 16 25  1  0
 16 26  1  0
 17 27  1  0
 17 28  1  0
 17 29  1  0
M  ISO  8  18  14  19  14  20   9  21  14  22  14  23  14  24  14  25   8
M  ISO  4  26   8  27   8  28   8  29   8
M  END
>  <minimizedAffinity>  (1) 
-5.85796833

>  <minimizedRMSD>  (1) 
0.367005885

$$$$
