
     RDKit          3D

 25 27  0  0  0  0  0  0  0  0999 V2000
   47.8830   35.2180   41.9250 C   0  0  0  0  0  0  0  0  0  0  0  0
   46.6100   34.7130   42.0340 C   0  0  0  0  0  0  0  0  0  0  0  0
   46.0400   34.0810   40.9410 C   0  0  0  0  0  0  0  0  0  0  0  0
   46.7200   33.9460   39.7400 C   0  0  0  0  0  0  0  0  0  0  0  0
   46.3810   33.3830   38.5580 N   0  0  0  0  0  0  0  0  0  0  0  0
   47.4300   33.5300   37.7100 C   0  0  0  0  0  0  0  0  0  0  0  0
   48.4260   34.1950   38.3860 N   0  0  0  0  0  0  0  0  0  0  0  0
   47.9920   34.4510   39.6310 C   0  0  0  0  0  0  0  0  0  0  0  0
   48.5710   35.0850   40.7210 C   0  0  0  0  0  0  0  0  0  0  0  0
   44.4530   35.9540   44.8770 C   0  0  0  0  0  0  0  0  0  0  0  0
   45.0570   35.9050   43.6000 C   0  0  0  0  0  0  0  0  0  0  0  0
   45.9270   34.8720   43.3120 C   0  0  0  0  0  0  0  0  0  0  0  0
   46.1750   33.9310   44.2700 N   0  0  0  0  0  0  0  0  0  0  0  0
   45.5800   33.9980   45.4980 C   0  0  0  0  0  0  0  0  0  0  0  0
   44.7290   35.0130   45.7720 N   0  0  0  0  0  0  0  0  0  0  0  0
   45.8820   32.9540   46.5030 C   0  0  0  0  0  0  0  0  0  0  0  0
   45.1360   33.0120   47.5420 O   0  0  0  0  0  0  0  0  0  0  0  0
   48.3548   35.7229   42.7808 H   0  0  0  0  0  0  0  0  0  0  0  0
   45.0212   33.6756   41.0280 H   0  0  0  0  0  0  0  0  0  0  0  0
   45.4851   32.9239   38.3401 H   0  0  0  0  0  0  0  0  0  0  0  0
   47.4756   33.1799   36.6682 H   0  0  0  0  0  0  0  0  0  0  0  0
   49.5902   35.4893   40.6329 H   0  0  0  0  0  0  0  0  0  0  0  0
   43.7573   36.7682   45.1282 H   0  0  0  0  0  0  0  0  0  0  0  0
   44.8376   36.6771   42.8479 H   0  0  0  0  0  0  0  0  0  0  0  0
   46.6720   32.2002   46.3699 H   0  0  0  0  0  0  0  0  0  0  0  0
  1  2  2  0
  2 12  1  0
  3  2  1  0
  4  3  2  0
  5  4  1  0
  6  7  2  0
  6  5  1  0
  7  8  1  0
  8  4  1  0
  8  9  2  0
  9  1  1  0
 10 15  2  0
 11 10  1  0
 12 11  2  0
 12 13  1  0
 13 14  2  0
 14 15  1  0
 14 16  1  0
 16 17  2  0
  1 18  1  0
  3 19  1  0
  5 20  1  0
  6 21  1  0
  9 22  1  0
 10 23  1  0
 11 24  1  0
 16 25  1  0
M  ISO  8  18  14  19  14  20   9  21  14  22  14  23  14  24  14  25   6
M  END
>  <minimizedAffinity>  (1) 
-5.84819269

>  <minimizedRMSD>  (1) 
0.0415228121

$$$$
