
     RDKit          3D

 24 26  0  0  0  0  0  0  0  0999 V2000
   47.8850   35.2230   41.9200 C   0  0  0  0  0  0  0  0  0  0  0  0
   46.6060   34.7070   42.0310 C   0  0  0  0  0  0  0  0  0  0  0  0
   46.0590   34.0840   40.9410 C   0  0  0  0  0  0  0  0  0  0  0  0
   46.7300   33.9490   39.7390 C   0  0  0  0  0  0  0  0  0  0  0  0
   46.3790   33.3780   38.5560 N   0  0  0  0  0  0  0  0  0  0  0  0
   47.4330   33.5330   37.7030 C   0  0  0  0  0  0  0  0  0  0  0  0
   48.4210   34.2010   38.3770 N   0  0  0  0  0  0  0  0  0  0  0  0
   48.0020   34.4600   39.6230 C   0  0  0  0  0  0  0  0  0  0  0  0
   48.5690   35.0880   40.7040 C   0  0  0  0  0  0  0  0  0  0  0  0
   44.4600   35.9430   44.8820 C   0  0  0  0  0  0  0  0  0  0  0  0
   45.0550   35.9140   43.5920 C   0  0  0  0  0  0  0  0  0  0  0  0
   45.9230   34.8660   43.3150 C   0  0  0  0  0  0  0  0  0  0  0  0
   46.1750   33.9220   44.2600 N   0  0  0  0  0  0  0  0  0  0  0  0
   45.5800   33.9910   45.4860 C   0  0  0  0  0  0  0  0  0  0  0  0
   44.7370   34.9950   45.7770 N   0  0  0  0  0  0  0  0  0  0  0  0
   45.8210   33.0370   46.4730 O   0  0  0  0  0  0  0  0  0  0  0  0
   48.3579   35.7315   42.7731 H   0  0  0  0  0  0  0  0  0  0  0  0
   45.0421   33.6732   41.0250 H   0  0  0  0  0  0  0  0  0  0  0  0
   45.4841   32.9146   38.3432 H   0  0  0  0  0  0  0  0  0  0  0  0
   47.4807   33.1840   36.6609 H   0  0  0  0  0  0  0  0  0  0  0  0
   49.5866   35.4959   40.6136 H   0  0  0  0  0  0  0  0  0  0  0  0
   43.7651   36.7544   45.1441 H   0  0  0  0  0  0  0  0  0  0  0  0
   44.8370   36.6899   42.8434 H   0  0  0  0  0  0  0  0  0  0  0  0
   45.3752   33.1124   47.3537 H   0  0  0  0  0  0  0  0  0  0  0  0
  1  2  2  0
  2 12  1  0
  3  2  1  0
  4  3  2  0
  5  4  1  0
  6  7  2  0
  6  5  1  0
  7  8  1  0
  8  4  1  0
  8  9  2  0
  9  1  1  0
 10 15  2  0
 11 10  1  0
 12 11  2  0
 12 13  1  0
 13 14  2  0
 14 15  1  0
 14 16  1  0
  1 17  1  0
  3 18  1  0
  5 19  1  0
  6 20  1  0
  9 21  1  0
 10 22  1  0
 11 23  1  0
 16 24  1  0
M  ISO  8  17  14  18  14  19   9  20  14  21  14  22  14  23  14  24   3
M  END
>  <minimizedAffinity>  (1) 
-5.75819302

>  <minimizedRMSD>  (1) 
0.0107397046

$$$$
