
     RDKit          3D

 36 40  0  0  0  0  0  0  0  0999 V2000
   44.3980   35.9810   44.7170 C   0  0  0  0  0  0  0  0  0  0  0  0
   45.0080   35.8970   43.4500 C   0  0  0  0  0  0  0  0  0  0  0  0
   45.9290   34.9000   43.1970 C   0  0  0  0  0  0  0  0  0  0  0  0
   46.2240   34.0210   44.1850 N   0  0  0  0  0  0  0  0  0  0  0  0
   45.6250   34.1150   45.4070 C   0  0  0  0  0  0  0  0  0  0  0  0
   44.7270   35.0910   45.6460 N   0  0  0  0  0  0  0  0  0  0  0  0
   47.8920   35.2300   41.8160 C   0  0  0  0  0  0  0  0  0  0  0  0
   46.6150   34.7240   41.9260 C   0  0  0  0  0  0  0  0  0  0  0  0
   46.0720   34.0880   40.8350 C   0  0  0  0  0  0  0  0  0  0  0  0
   46.7420   33.9330   39.6360 C   0  0  0  0  0  0  0  0  0  0  0  0
   46.4080   33.3550   38.4610 N   0  0  0  0  0  0  0  0  0  0  0  0
   47.4720   33.5000   37.6170 C   0  0  0  0  0  0  0  0  0  0  0  0
   48.4520   34.1660   38.2860 N   0  0  0  0  0  0  0  0  0  0  0  0
   48.0300   34.4450   39.5280 C   0  0  0  0  0  0  0  0  0  0  0  0
   48.5850   35.0810   40.6090 C   0  0  0  0  0  0  0  0  0  0  0  0
   45.2250   33.1200   47.6150 C   0  0  0  0  0  0  0  0  0  0  0  0
   45.9610   33.1550   46.4540 C   0  0  0  0  0  0  0  0  0  0  0  0
   47.0190   32.2860   46.2700 C   0  0  0  0  0  0  0  0  0  0  0  0
   47.3250   31.3840   47.2690 C   0  0  0  0  0  0  0  0  0  0  0  0
   48.3260   30.4780   47.2300 N   0  0  0  0  0  0  0  0  0  0  0  0
   48.2400   29.8200   48.4230 C   0  0  0  0  0  0  0  0  0  0  0  0
   47.2060   30.3300   49.1490 N   0  0  0  0  0  0  0  0  0  0  0  0
   46.6150   31.3140   48.4470 C   0  0  0  0  0  0  0  0  0  0  0  0
   45.5670   32.2010   48.5850 C   0  0  0  0  0  0  0  0  0  0  0  0
   43.6623   36.7697   44.9329 H   0  0  0  0  0  0  0  0  0  0  0  0
   44.7514   36.6234   42.6648 H   0  0  0  0  0  0  0  0  0  0  0  0
   48.3614   35.7451   42.6670 H   0  0  0  0  0  0  0  0  0  0  0  0
   45.0532   33.6821   40.9204 H   0  0  0  0  0  0  0  0  0  0  0  0
   45.5151   32.8905   38.2421 H   0  0  0  0  0  0  0  0  0  0  0  0
   47.5270   33.1413   36.5786 H   0  0  0  0  0  0  0  0  0  0  0  0
   49.6044   35.4858   40.5250 H   0  0  0  0  0  0  0  0  0  0  0  0
   44.3818   33.8099   47.7669 H   0  0  0  0  0  0  0  0  0  0  0  0
   47.6085   32.3125   45.3417 H   0  0  0  0  0  0  0  0  0  0  0  0
   49.0029   30.3191   46.4701 H   0  0  0  0  0  0  0  0  0  0  0  0
   48.9028   29.0044   48.7478 H   0  0  0  0  0  0  0  0  0  0  0  0
   44.9763   32.1739   49.5126 H   0  0  0  0  0  0  0  0  0  0  0  0
  1  6  2  0
  2  1  1  0
  3  2  2  0
  3  4  1  0
  4  5  2  0
  5  6  1  0
  5 17  1  0
  7  8  2  0
  8  3  1  0
  9  8  1  0
 10  9  2  0
 11 10  1  0
 12 13  2  0
 12 11  1  0
 13 14  1  0
 14 10  1  0
 14 15  2  0
 15  7  1  0
 16 24  2  0
 17 16  1  0
 18 17  2  0
 18 19  1  0
 19 23  2  0
 20 19  1  0
 20 21  1  0
 21 22  2  0
 23 24  1  0
 23 22  1  0
  1 25  1  0
  2 26  1  0
  7 27  1  0
  9 28  1  0
 11 29  1  0
 12 30  1  0
 15 31  1  0
 16 32  1  0
 18 33  1  0
 20 34  1  0
 21 35  1  0
 24 36  1  0
M  ISO  8  25  14  26  14  27  14  28  14  29   9  30  14  31  14  32  14
M  ISO  4  33  14  34   9  35  14  36  14
M  END
>  <minimizedAffinity>  (1) 
-7.23513937

>  <minimizedRMSD>  (1) 
0.276468754

$$$$
