
     RDKit          3D

 47 51  0  0  1  0  0  0  0  0999 V2000
   50.1720   32.4530   41.3730 C   0  0  1  0  0  0  0  0  0  0  0  0
   49.2230   32.1980   40.2350 C   0  0  0  0  0  0  0  0  0  0  0  0
   48.7880   32.1340   41.7270 C   0  0  2  0  0  0  0  0  0  0  0  0
   53.1320   30.2780   40.8920 C   0  0  0  0  0  0  0  0  0  0  0  0
   53.1920   29.5890   42.1560 C   0  0  0  0  0  0  0  0  0  0  0  0
   52.2180   29.9010   43.1320 C   0  0  0  0  0  0  0  0  0  0  0  0
   51.2930   30.8090   42.8470 N   0  0  0  0  0  0  0  0  0  0  0  0
   51.2600   31.4430   41.6430 C   0  0  0  0  0  0  0  0  0  0  0  0
   52.1800   31.1890   40.6430 N   0  0  0  0  0  0  0  0  0  0  0  0
   52.2880   29.1890   44.4330 C   0  0  2  0  0  0  0  0  0  0  0  0
   50.9680   29.0930   45.1420 C   0  0  0  0  0  0  0  0  0  0  0  0
   51.4280   29.0840   46.5980 C   0  0  0  0  0  0  0  0  0  0  0  0
   52.5820   29.8110   46.6750 O   0  0  0  0  0  0  0  0  0  0  0  0
   53.1150   29.9630   45.4250 C   0  0  0  0  0  0  0  0  0  0  0  0
   47.9370   33.1880   42.1860 N   0  0  0  0  0  0  0  0  0  0  0  0
   47.2510   33.1150   43.4070 C   0  0  0  0  0  0  0  0  0  0  0  0
   47.5410   32.0960   44.2840 C   0  0  0  0  0  0  0  0  0  0  0  0
   46.9660   31.9980   45.5430 C   0  0  0  0  0  0  0  0  0  0  0  0
   46.0630   32.9340   45.9740 C   0  0  0  0  0  0  0  0  0  0  0  0
   45.7510   33.9680   45.1110 C   0  0  0  0  0  0  0  0  0  0  0  0
   44.8420   34.9190   45.5300 C   0  0  0  0  0  0  0  0  0  0  0  0
   44.4780   35.9660   44.7350 C   0  0  0  0  0  0  0  0  0  0  0  0
   45.0650   36.0310   43.4780 C   0  0  0  0  0  0  0  0  0  0  0  0
   45.9690   35.0720   43.0840 C   0  0  0  0  0  0  0  0  0  0  0  0
   46.3380   34.0290   43.8760 C   0  0  0  0  0  0  0  0  0  0  0  0
   46.5170   35.1750   41.8260 O   0  0  0  0  0  0  0  0  0  0  0  0
   50.8439   33.2830   41.6369 H   0  0  0  0  0  0  0  0  0  0  0  0
   48.8887   33.0252   39.5916 H   0  0  0  0  0  0  0  0  0  0  0  0
   49.1865   31.5227   39.3674 H   0  0  0  0  0  0  0  0  0  0  0  0
   48.3167   31.3892   42.3852 H   0  0  0  0  0  0  0  0  0  0  0  0
   53.8802   30.0528   40.1177 H   0  0  0  0  0  0  0  0  0  0  0  0
   53.9736   28.8413   42.3559 H   0  0  0  0  0  0  0  0  0  0  0  0
   52.6887   28.2010   44.1622 H   0  0  0  0  0  0  0  0  0  0  0  0
   50.3273   29.9604   44.9248 H   0  0  0  0  0  0  0  0  0  0  0  0
   50.3559   28.2264   44.8514 H   0  0  0  0  0  0  0  0  0  0  0  0
   50.6563   29.5378   47.2372 H   0  0  0  0  0  0  0  0  0  0  0  0
   51.5994   28.0529   46.9408 H   0  0  0  0  0  0  0  0  0  0  0  0
   54.1476   29.5839   45.4174 H   0  0  0  0  0  0  0  0  0  0  0  0
   53.1154   31.0286   45.1520 H   0  0  0  0  0  0  0  0  0  0  0  0
   47.8243   34.0280   41.6007 H   0  0  0  0  0  0  0  0  0  0  0  0
   48.2608   31.3243   43.9735 H   0  0  0  0  0  0  0  0  0  0  0  0
   47.2379   31.1602   46.2019 H   0  0  0  0  0  0  0  0  0  0  0  0
   45.6029   32.8652   46.9708 H   0  0  0  0  0  0  0  0  0  0  0  0
   44.3990   34.8299   46.5329 H   0  0  0  0  0  0  0  0  0  0  0  0
   43.7544   36.7224   45.0732 H   0  0  0  0  0  0  0  0  0  0  0  0
   44.8059   36.8530   42.7945 H   0  0  0  0  0  0  0  0  0  0  0  0
   47.1705   34.5000   41.5140 H   0  0  0  0  0  0  0  0  0  0  0  0
  1  8  1  0
  1  3  1  0
  2  1  1  0
  2  3  1  0
  3 15  1  0
  4  5  2  0
  5  6  1  0
  7  6  2  0
  8  7  1  0
  9  4  1  0
  9  8  2  0
 10  6  1  0
 10 11  1  0
 10 14  1  0
 11 12  1  0
 12 13  1  0
 14 13  1  0
 15 16  1  0
 16 25  1  0
 16 17  2  0
 17 18  1  0
 18 19  2  0
 20 21  2  0
 20 19  1  0
 22 21  1  0
 23 22  2  0
 24 23  1  0
 24 25  2  0
 25 20  1  0
 26 24  1  0
  1 27  1  6
  2 28  1  0
  2 29  1  0
  3 30  1  1
  4 31  1  0
  5 32  1  0
 10 33  1  6
 11 34  1  0
 11 35  1  0
 12 36  1  0
 12 37  1  0
 14 38  1  0
 14 39  1  0
 15 40  1  0
 17 41  1  0
 18 42  1  0
 19 43  1  0
 21 44  1  0
 22 45  1  0
 23 46  1  0
 26 47  1  0
M  ISO  8  27  13  28  13  29  13  30  13  31  14  32  14  33  13  34  13
M  ISO  8  35  13  36  13  37  13  38  13  39  13  41  14  42  14  43  14
M  ISO  4  44  14  45  14  46  14  47   3
M  END
>  <minimizedAffinity>  (1) 
-5.28796244

>  <minimizedRMSD>  (1) 
1.42614317

$$$$
