
     RDKit          3D

 38 42  0  0  0  0  0  0  0  0999 V2000
   44.6960   35.6910   44.3650 C   0  0  0  0  0  0  0  0  0  0  0  0
   45.2680   35.6800   43.0770 C   0  0  0  0  0  0  0  0  0  0  0  0
   46.1680   34.6990   42.7360 C   0  0  0  0  0  0  0  0  0  0  0  0
   46.4830   33.7600   43.6600 N   0  0  0  0  0  0  0  0  0  0  0  0
   45.9240   33.7800   44.9030 C   0  0  0  0  0  0  0  0  0  0  0  0
   45.0480   34.7390   45.2270 N   0  0  0  0  0  0  0  0  0  0  0  0
   48.0460   35.1830   41.2840 C   0  0  0  0  0  0  0  0  0  0  0  0
   46.8130   34.5980   41.4380 C   0  0  0  0  0  0  0  0  0  0  0  0
   46.2640   33.9520   40.3510 C   0  0  0  0  0  0  0  0  0  0  0  0
   46.8870   33.8630   39.1180 C   0  0  0  0  0  0  0  0  0  0  0  0
   46.5420   33.2930   37.9460 N   0  0  0  0  0  0  0  0  0  0  0  0
   47.5610   33.5260   37.0660 C   0  0  0  0  0  0  0  0  0  0  0  0
   48.5150   34.2320   37.7110 N   0  0  0  0  0  0  0  0  0  0  0  0
   48.1440   34.4640   38.9780 C   0  0  0  0  0  0  0  0  0  0  0  0
   48.6950   35.1050   40.0460 C   0  0  0  0  0  0  0  0  0  0  0  0
   45.8230   32.8310   47.1640 C   0  0  0  0  0  0  0  0  0  0  0  0
   46.2930   32.7450   45.8700 C   0  0  0  0  0  0  0  0  0  0  0  0
   47.1030   31.6950   45.4870 C   0  0  0  0  0  0  0  0  0  0  0  0
   47.4360   30.7350   46.4110 C   0  0  0  0  0  0  0  0  0  0  0  0
   48.2130   29.6540   46.1960 N   0  0  0  0  0  0  0  0  0  0  0  0
   48.2570   29.0040   47.3940 C   0  0  0  0  0  0  0  0  0  0  0  0
   47.5150   29.6930   48.3000 N   0  0  0  0  0  0  0  0  0  0  0  0
   46.9960   30.7740   47.7110 C   0  0  0  0  0  0  0  0  0  0  0  0
   46.1860   31.8450   48.0480 C   0  0  0  0  0  0  0  0  0  0  0  0
   45.7010   31.9170   49.4160 C   0  0  0  0  0  0  0  0  0  0  0  0
   44.7650   31.1690   49.8270 O   0  0  0  0  0  0  0  0  0  0  0  0
   43.9740   36.4696   44.6522 H   0  0  0  0  0  0  0  0  0  0  0  0
   44.9946   36.4552   42.3460 H   0  0  0  0  0  0  0  0  0  0  0  0
   48.5197   35.7084   42.1264 H   0  0  0  0  0  0  0  0  0  0  0  0
   45.2768   33.4815   40.4699 H   0  0  0  0  0  0  0  0  0  0  0  0
   45.6719   32.7776   37.7503 H   0  0  0  0  0  0  0  0  0  0  0  0
   47.5979   33.1967   36.0171 H   0  0  0  0  0  0  0  0  0  0  0  0
   49.6821   35.5768   39.9321 H   0  0  0  0  0  0  0  0  0  0  0  0
   45.1771   33.6641   47.4782 H   0  0  0  0  0  0  0  0  0  0  0  0
   47.4771   31.6280   44.4547 H   0  0  0  0  0  0  0  0  0  0  0  0
   48.6737   29.3787   45.3169 H   0  0  0  0  0  0  0  0  0  0  0  0
   48.8052   28.0717   47.5946 H   0  0  0  0  0  0  0  0  0  0  0  0
   46.1572   32.6377   50.1106 H   0  0  0  0  0  0  0  0  0  0  0  0
  1  6  2  0
  2  1  1  0
  3  2  2  0
  3  4  1  0
  4  5  2  0
  5  6  1  0
  5 17  1  0
  7  8  2  0
  8  3  1  0
  9  8  1  0
 10  9  2  0
 11 10  1  0
 12 13  2  0
 12 11  1  0
 13 14  1  0
 14 10  1  0
 14 15  2  0
 15  7  1  0
 16 24  2  0
 17 16  1  0
 18 17  2  0
 18 19  1  0
 19 23  2  0
 20 19  1  0
 20 21  1  0
 21 22  2  0
 23 24  1  0
 23 22  1  0
 24 25  1  0
 25 26  2  0
  1 27  1  0
  2 28  1  0
  7 29  1  0
  9 30  1  0
 11 31  1  0
 12 32  1  0
 15 33  1  0
 16 34  1  0
 18 35  1  0
 20 36  1  0
 21 37  1  0
 25 38  1  0
M  ISO  8  27  14  28  14  29  14  30  14  31   9  32  14  33  14  34  14
M  ISO  4  35  14  36   9  37  14  38   6
M  END
>  <minimizedAffinity>  (1) 
-6.79730272

>  <minimizedRMSD>  (1) 
0.787857771

$$$$
