
     RDKit          3D

 23 24  0  0  0  0  0  0  0  0999 V2000
   45.6290   34.9600   43.5280 C   0  0  0  0  0  0  0  0  0  0  0  0
   46.7340   34.5210   42.7750 C   0  0  0  0  0  0  0  0  0  0  0  0
   47.5590   33.5340   43.3570 C   0  0  0  0  0  0  0  0  0  0  0  0
   47.2420   33.0680   44.5970 N   0  0  0  0  0  0  0  0  0  0  0  0
   46.1640   33.5310   45.2720 C   0  0  0  0  0  0  0  0  0  0  0  0
   45.3580   34.4750   44.7400 N   0  0  0  0  0  0  0  0  0  0  0  0
   48.7040   33.0160   42.6830 N   0  0  0  0  0  0  0  0  0  0  0  0
   48.7030   31.7460   42.2340 C   0  0  0  0  0  0  0  0  0  0  0  0
   49.8380   31.2710   41.5790 C   0  0  0  0  0  0  0  0  0  0  0  0
   50.8660   32.1850   41.4640 C   0  0  0  0  0  0  0  0  0  0  0  0
   51.9170   31.7810   40.8700 O   0  0  0  0  0  0  0  0  0  0  0  0
   50.8880   33.4570   41.9050 N   0  0  0  0  0  0  0  0  0  0  0  0
   49.7510   33.8580   42.5330 C   0  0  0  0  0  0  0  0  0  0  0  0
   49.7120   35.0520   42.9730 O   0  0  0  0  0  0  0  0  0  0  0  0
   44.7730   36.0070   42.8850 C   0  0  0  0  0  0  0  0  0  0  0  0
   46.9458   34.9294   41.7758 H   0  0  0  0  0  0  0  0  0  0  0  0
   45.9404   33.1311   46.2720 H   0  0  0  0  0  0  0  0  0  0  0  0
   47.8261   31.0983   42.3810 H   0  0  0  0  0  0  0  0  0  0  0  0
   49.9090   30.2468   41.1842 H   0  0  0  0  0  0  0  0  0  0  0  0
   51.7009   34.0764   41.7768 H   0  0  0  0  0  0  0  0  0  0  0  0
   44.2815   36.6081   43.6642 H   0  0  0  0  0  0  0  0  0  0  0  0
   45.3997   36.6595   42.2592 H   0  0  0  0  0  0  0  0  0  0  0  0
   44.0090   35.5225   42.2592 H   0  0  0  0  0  0  0  0  0  0  0  0
  1  6  2  0
  2  3  2  0
  2  1  1  0
  3  4  1  0
  4  5  2  0
  6  5  1  0
  7  3  1  0
  8  7  1  0
  9  8  2  0
 10  9  1  0
 10 12  1  0
 11 10  2  0
 12 13  1  0
 13  7  1  0
 13 14  2  0
 15  1  1  0
  2 16  1  0
  5 17  1  0
  8 18  1  0
  9 19  1  0
 12 20  1  0
 15 21  1  0
 15 22  1  0
 15 23  1  0
M  ISO  8  16  14  17  14  18  14  19  14  20   9  21   8  22   8  23   8
M  END
>  <minimizedAffinity>  (1) 
-4.47753525

>  <minimizedRMSD>  (1) 
1.65326548

$$$$
