
     RDKit          3D

 19 19  0  0  0  0  0  0  0  0999 V2000
   44.7640   34.8770   43.2720 C   0  0  0  0  0  0  0  0  0  0  0  0
   45.3860   33.6730   43.6050 C   0  0  0  0  0  0  0  0  0  0  0  0
   45.6010   33.3910   44.9670 C   0  0  0  0  0  0  0  0  0  0  0  0
   45.1900   34.3070   45.8700 N   0  0  0  0  0  0  0  0  0  0  0  0
   44.5880   35.4690   45.5090 C   0  0  0  0  0  0  0  0  0  0  0  0
   44.3750   35.7530   44.2130 N   0  0  0  0  0  0  0  0  0  0  0  0
   44.5430   35.1620   41.8260 C   0  0  0  0  0  0  0  0  0  0  0  0
   46.2180   32.2010   45.3500 O   0  0  0  0  0  0  0  0  0  0  0  0
   46.9800   30.6350   47.3900 O   0  0  0  0  0  0  0  0  0  0  0  0
   46.3870   31.9850   47.0580 P   0  0  0  0  0  0  0  0  0  0  0  0
   47.3650   33.2540   47.6110 O   0  0  0  0  0  0  0  0  0  0  0  0
   44.8000   32.1330   47.6770 O   0  0  0  0  0  0  0  0  0  0  0  0
   45.6996   32.9640   42.8246 H   0  0  0  0  0  0  0  0  0  0  0  0
   44.2721   36.1836   46.2834 H   0  0  0  0  0  0  0  0  0  0  0  0
   43.8720   36.0273   41.7212 H   0  0  0  0  0  0  0  0  0  0  0  0
   45.5067   35.3849   41.3447 H   0  0  0  0  0  0  0  0  0  0  0  0
   44.0872   34.2841   41.3447 H   0  0  0  0  0  0  0  0  0  0  0  0
   47.3695   33.2599   48.6010 H   0  0  0  0  0  0  0  0  0  0  0  0
   44.8302   32.1302   48.6665 H   0  0  0  0  0  0  0  0  0  0  0  0
  1  2  2  0
  1  6  1  0
  2  3  1  0
  3  8  1  0
  3  4  2  0
  5  4  1  0
  6  5  2  0
  7  1  1  0
  8 10  1  0
 10  9  2  0
 10 11  1  0
 10 12  1  0
  2 13  1  0
  5 14  1  0
  7 15  1  0
  7 16  1  0
  7 17  1  0
 11 18  1  0
 12 19  1  0
M  ISO  7  13  14  14  14  15   8  16   8  17   8  18   3  19   3
M  END
>  <minimizedAffinity>  (1) 
-4.29686689

>  <minimizedRMSD>  (1) 
2.38089585

$$$$
