
     RDKit          3D

 23 24  0  0  0  0  0  0  0  0999 V2000
   45.4780   34.3670   45.2720 C   0  0  0  0  0  0  0  0  0  0  0  0
   45.8970   34.7460   43.9990 C   0  0  0  0  0  0  0  0  0  0  0  0
   46.8800   33.9720   43.3770 C   0  0  0  0  0  0  0  0  0  0  0  0
   47.3810   32.9010   44.0240 N   0  0  0  0  0  0  0  0  0  0  0  0
   46.9420   32.5590   45.2780 C   0  0  0  0  0  0  0  0  0  0  0  0
   45.9840   33.3070   45.8910 N   0  0  0  0  0  0  0  0  0  0  0  0
   47.4010   34.2660   42.0480 C   0  0  0  0  0  0  0  0  0  0  0  0
   46.9070   33.5190   40.9990 C   0  0  0  0  0  0  0  0  0  0  0  0
   47.3800   33.7690   39.7050 C   0  0  0  0  0  0  0  0  0  0  0  0
   48.3380   34.7620   39.4710 C   0  0  0  0  0  0  0  0  0  0  0  0
   48.8280   35.5060   40.5310 C   0  0  0  0  0  0  0  0  0  0  0  0
   48.3440   35.2340   41.7800 C   0  0  0  0  0  0  0  0  0  0  0  0
   44.4290   35.1960   45.9310 C   0  0  0  0  0  0  0  0  0  0  0  0
   45.4676   35.6268   43.4991 H   0  0  0  0  0  0  0  0  0  0  0  0
   47.3641   31.6805   45.7880 H   0  0  0  0  0  0  0  0  0  0  0  0
   46.1526   32.7384   41.1763 H   0  0  0  0  0  0  0  0  0  0  0  0
   46.9938   33.1775   38.8618 H   0  0  0  0  0  0  0  0  0  0  0  0
   48.7001   34.9506   38.4496 H   0  0  0  0  0  0  0  0  0  0  0  0
   49.5825   36.2907   40.3730 H   0  0  0  0  0  0  0  0  0  0  0  0
   48.7314   35.8245   42.6234 H   0  0  0  0  0  0  0  0  0  0  0  0
   44.5307   35.1156   47.0233 H   0  0  0  0  0  0  0  0  0  0  0  0
   44.5480   36.2467   45.6280 H   0  0  0  0  0  0  0  0  0  0  0  0
   43.4342   34.8374   45.6280 H   0  0  0  0  0  0  0  0  0  0  0  0
  1  6  2  0
  1 13  1  0
  2  1  1  0
  3  2  2  0
  3  4  1  0
  4  5  2  0
  5  6  1  0
  7  3  1  0
  8  7  2  0
  9  8  1  0
 10  9  2  0
 10 11  1  0
 11 12  2  0
 12  7  1  0
  2 14  1  0
  5 15  1  0
  8 16  1  0
  9 17  1  0
 10 18  1  0
 11 19  1  0
 12 20  1  0
 13 21  1  0
 13 22  1  0
 13 23  1  0
M  ISO  8  14  14  15  14  16  14  17  14  18  14  19  14  20  14  21   8
M  ISO  2  22   8  23   8
M  END
>  <minimizedAffinity>  (1) 
-4.27163315

>  <minimizedRMSD>  (1) 
3.34966969

$$$$
