
     RDKit          3D

 28 29  0  0  0  0  0  0  0  0999 V2000
   45.4630   34.5400   44.9900 C   0  0  0  0  0  0  0  0  0  0  0  0
   46.1900   34.6170   43.7920 C   0  0  0  0  0  0  0  0  0  0  0  0
   47.1510   33.6250   43.5650 C   0  0  0  0  0  0  0  0  0  0  0  0
   47.3360   32.6560   44.4870 N   0  0  0  0  0  0  0  0  0  0  0  0
   46.6040   32.6220   45.6360 C   0  0  0  0  0  0  0  0  0  0  0  0
   45.6710   33.5670   45.8790 N   0  0  0  0  0  0  0  0  0  0  0  0
   47.9170   33.6580   42.3660 N   0  0  0  0  0  0  0  0  0  0  0  0
   47.6160   32.7700   41.2850 C   0  0  0  0  0  0  0  0  0  0  0  0
   48.4390   33.2500   40.0820 C   0  0  0  0  0  0  0  0  0  0  0  0
   48.2360   34.7360   39.8720 C   0  0  0  0  0  0  0  0  0  0  0  0
   48.8250   35.5010   41.0270 C   0  0  0  0  0  0  0  0  0  0  0  0
   49.0040   34.6020   42.2540 C   0  0  0  0  0  0  0  0  0  0  0  0
   44.4360   35.5970   45.2340 C   0  0  0  0  0  0  0  0  0  0  0  0
   46.0124   35.4217   43.0634 H   0  0  0  0  0  0  0  0  0  0  0  0
   46.7743   31.8201   46.3695 H   0  0  0  0  0  0  0  0  0  0  0  0
   47.8967   31.7400   41.5504 H   0  0  0  0  0  0  0  0  0  0  0  0
   46.5400   32.7732   41.0565 H   0  0  0  0  0  0  0  0  0  0  0  0
   49.5048   33.0511   40.2677 H   0  0  0  0  0  0  0  0  0  0  0  0
   48.1089   32.7108   39.1818 H   0  0  0  0  0  0  0  0  0  0  0  0
   48.7319   35.0439   38.9396 H   0  0  0  0  0  0  0  0  0  0  0  0
   47.1588   34.9492   39.8077 H   0  0  0  0  0  0  0  0  0  0  0  0
   49.8055   35.9011   40.7294 H   0  0  0  0  0  0  0  0  0  0  0  0
   48.1365   36.3172   41.2911 H   0  0  0  0  0  0  0  0  0  0  0  0
   49.9513   34.0506   42.1610 H   0  0  0  0  0  0  0  0  0  0  0  0
   49.0134   35.2345   43.1539 H   0  0  0  0  0  0  0  0  0  0  0  0
   44.3020   35.7349   46.3171 H   0  0  0  0  0  0  0  0  0  0  0  0
   44.7691   36.5431   44.7823 H   0  0  0  0  0  0  0  0  0  0  0  0
   43.4807   35.2913   44.7823 H   0  0  0  0  0  0  0  0  0  0  0  0
  1 13  1  0
  1  6  2  0
  2  1  1  0
  3  2  2  0
  3  4  1  0
  4  5  2  0
  5  6  1  0
  7  3  1  0
  8  7  1  0
  9  8  1  0
 10  9  1  0
 10 11  1  0
 11 12  1  0
 12  7  1  0
  2 14  1  0
  5 15  1  0
  8 16  1  0
  8 17  1  0
  9 18  1  0
  9 19  1  0
 10 20  1  0
 10 21  1  0
 11 22  1  0
 11 23  1  0
 12 24  1  0
 12 25  1  0
 13 26  1  0
 13 27  1  0
 13 28  1  0
M  ISO  8  14  14  15  14  16  13  17  13  18  13  19  13  20  13  21  13
M  ISO  7  22  13  23  13  24  13  25  13  26   8  27   8  28   8
M  END
>  <minimizedAffinity>  (1) 
-4.2693305

>  <minimizedRMSD>  (1) 
2.33026886

$$$$
