
     RDKit          3D

 22 23  0  0  0  0  0  0  0  0999 V2000
   45.5170   34.3560   45.2080 C   0  0  0  0  0  0  0  0  0  0  0  0
   45.9490   34.6720   43.9130 C   0  0  0  0  0  0  0  0  0  0  0  0
   46.9240   33.8480   43.3460 C   0  0  0  0  0  0  0  0  0  0  0  0
   47.4030   32.8010   44.0470 N   0  0  0  0  0  0  0  0  0  0  0  0
   46.9520   32.5290   45.3070 C   0  0  0  0  0  0  0  0  0  0  0  0
   46.0170   33.3020   45.8810 N   0  0  0  0  0  0  0  0  0  0  0  0
   47.4050   34.1390   42.0000 C   0  0  0  0  0  0  0  0  0  0  0  0
   48.2930   35.1790   41.8220 C   0  0  0  0  0  0  0  0  0  0  0  0
   48.7550   35.4600   40.5430 C   0  0  0  0  0  0  0  0  0  0  0  0
   48.2930   34.6670   39.4930 C   0  0  0  0  0  0  0  0  0  0  0  0
   47.4000   33.6270   39.7000 C   0  0  0  0  0  0  0  0  0  0  0  0
   46.9760   33.3920   40.9750 N   0  0  0  0  0  0  0  0  0  0  0  0
   44.4710   35.2300   45.8330 C   0  0  0  0  0  0  0  0  0  0  0  0
   45.5375   35.5330   43.3658 H   0  0  0  0  0  0  0  0  0  0  0  0
   47.3591   31.6677   45.8570 H   0  0  0  0  0  0  0  0  0  0  0  0
   48.6305   35.7775   42.6810 H   0  0  0  0  0  0  0  0  0  0  0  0
   49.4632   36.2824   40.3637 H   0  0  0  0  0  0  0  0  0  0  0  0
   48.6470   34.8724   38.4720 H   0  0  0  0  0  0  0  0  0  0  0  0
   47.0442   33.0101   38.8616 H   0  0  0  0  0  0  0  0  0  0  0  0
   44.5469   35.1665   46.9285 H   0  0  0  0  0  0  0  0  0  0  0  0
   44.6253   36.2715   45.5145 H   0  0  0  0  0  0  0  0  0  0  0  0
   43.4735   34.8931   45.5145 H   0  0  0  0  0  0  0  0  0  0  0  0
  1 13  1  0
  1  6  2  0
  2  1  1  0
  3  2  2  0
  3  4  1  0
  4  5  2  0
  5  6  1  0
  7  3  1  0
  8  7  2  0
  9  8  1  0
 10 11  1  0
 10  9  2  0
 11 12  2  0
 12  7  1  0
  2 14  1  0
  5 15  1  0
  8 16  1  0
  9 17  1  0
 10 18  1  0
 11 19  1  0
 13 20  1  0
 13 21  1  0
 13 22  1  0
M  ISO  8  14  14  15  14  16  14  17  14  18  14  19  14  20   8  21   8
M  ISO  1  22   8
M  END
>  <minimizedAffinity>  (1) 
-4.16503811

>  <minimizedRMSD>  (1) 
3.15282273

$$$$
