
     RDKit          3D

 27 28  0  0  0  0  0  0  0  0999 V2000
   45.3910   35.2080   43.5560 C   0  0  0  0  0  0  0  0  0  0  0  0
   46.5790   34.7690   42.9660 C   0  0  0  0  0  0  0  0  0  0  0  0
   47.3290   33.7960   43.6360 C   0  0  0  0  0  0  0  0  0  0  0  0
   46.8500   33.3340   44.8280 N   0  0  0  0  0  0  0  0  0  0  0  0
   45.6940   33.7880   45.3600 C   0  0  0  0  0  0  0  0  0  0  0  0
   44.9540   34.7330   44.7230 N   0  0  0  0  0  0  0  0  0  0  0  0
   48.5470   33.3270   43.0610 N   0  0  0  0  0  0  0  0  0  0  0  0
   49.5770   34.3340   42.8790 C   0  0  0  0  0  0  0  0  0  0  0  0
   50.7670   33.6770   42.1990 C   0  0  0  0  0  0  0  0  0  0  0  0
   50.2670   32.7050   41.2180 N   0  0  0  0  0  0  0  0  0  0  0  0
   49.8520   31.5430   41.9810 C   0  0  0  0  0  0  0  0  0  0  0  0
   48.6110   31.9150   42.7300 C   0  0  0  0  0  0  0  0  0  0  0  0
   44.6080   36.2530   42.8150 C   0  0  0  0  0  0  0  0  0  0  0  0
   46.9154   35.1770   42.0014 H   0  0  0  0  0  0  0  0  0  0  0  0
   45.3466   33.3865   46.3234 H   0  0  0  0  0  0  0  0  0  0  0  0
   49.1927   35.1506   42.2502 H   0  0  0  0  0  0  0  0  0  0  0  0
   49.8772   34.7513   43.8515 H   0  0  0  0  0  0  0  0  0  0  0  0
   51.3711   34.4416   41.6886 H   0  0  0  0  0  0  0  0  0  0  0  0
   51.3940   33.1687   42.9464 H   0  0  0  0  0  0  0  0  0  0  0  0
   51.0128   32.4499   40.5550 H   0  0  0  0  0  0  0  0  0  0  0  0
   49.6431   30.7031   41.3020 H   0  0  0  0  0  0  0  0  0  0  0  0
   50.6457   31.2333   42.6768 H   0  0  0  0  0  0  0  0  0  0  0  0
   47.7386   31.6609   42.1101 H   0  0  0  0  0  0  0  0  0  0  0  0
   48.6200   31.3562   43.6775 H   0  0  0  0  0  0  0  0  0  0  0  0
   44.1099   36.9178   43.5360 H   0  0  0  0  0  0  0  0  0  0  0  0
   45.2890   36.8420   42.1830 H   0  0  0  0  0  0  0  0  0  0  0  0
   43.8515   35.7648   42.1830 H   0  0  0  0  0  0  0  0  0  0  0  0
  1  6  2  0
  2  1  1  0
  2  3  2  0
  3  4  1  0
  4  5  2  0
  6  5  1  0
  7  3  1  0
  8  7  1  0
  9  8  1  0
 10 11  1  0
 10  9  1  0
 11 12  1  0
 12  7  1  0
 13  1  1  0
  2 14  1  0
  5 15  1  0
  8 16  1  0
  8 17  1  0
  9 18  1  0
  9 19  1  0
 10 20  1  0
 11 21  1  0
 11 22  1  0
 12 23  1  0
 12 24  1  0
 13 25  1  0
 13 26  1  0
 13 27  1  0
M  ISO  8  14  14  15  14  16  13  17  13  18  13  19  13  20   5  21  13
M  ISO  6  22  13  23  13  24  13  25   8  26   8  27   8
M  END
>  <minimizedAffinity>  (1) 
-3.92865324

>  <minimizedRMSD>  (1) 
1.34355509

$$$$
