
     RDKit          3D

 25 26  0  0  0  0  0  0  0  0999 V2000
   44.4020   35.1350   42.6860 C   0  0  0  0  0  0  0  0  0  0  0  0
   43.4510   35.4580   41.7170 C   0  0  0  0  0  0  0  0  0  0  0  0
   42.8100   34.4110   41.0470 C   0  0  0  0  0  0  0  0  0  0  0  0
   43.1360   33.1400   41.3640 N   0  0  0  0  0  0  0  0  0  0  0  0
   44.0770   32.8670   42.3230 C   0  0  0  0  0  0  0  0  0  0  0  0
   44.7060   33.8720   42.9810 N   0  0  0  0  0  0  0  0  0  0  0  0
   41.8370   34.7150   40.0540 N   0  0  0  0  0  0  0  0  0  0  0  0
   40.4730   35.0780   40.3410 C   0  0  0  0  0  0  0  0  0  0  0  0
   39.7850   34.7550   39.0080 C   0  0  0  0  0  0  0  0  0  0  0  0
   40.8260   35.3420   38.0780 C   0  0  0  0  0  0  0  0  0  0  0  0
   42.0840   34.7030   38.6280 C   0  0  0  0  0  0  0  0  0  0  0  0
   45.0810   36.2690   43.3960 C   0  0  0  0  0  0  0  0  0  0  0  0
   43.2123   36.5068   41.4866 H   0  0  0  0  0  0  0  0  0  0  0  0
   44.3243   31.8219   42.5611 H   0  0  0  0  0  0  0  0  0  0  0  0
   40.0607   34.4743   41.1629 H   0  0  0  0  0  0  0  0  0  0  0  0
   40.3455   36.1195   40.6713 H   0  0  0  0  0  0  0  0  0  0  0  0
   39.6567   33.6728   38.8581 H   0  0  0  0  0  0  0  0  0  0  0  0
   38.7622   35.1420   38.8893 H   0  0  0  0  0  0  0  0  0  0  0  0
   40.8629   36.4389   38.1513 H   0  0  0  0  0  0  0  0  0  0  0  0
   40.6451   35.1501   37.0101 H   0  0  0  0  0  0  0  0  0  0  0  0
   42.2059   33.6760   38.2533 H   0  0  0  0  0  0  0  0  0  0  0  0
   43.0073   35.2249   38.3362 H   0  0  0  0  0  0  0  0  0  0  0  0
   44.9948   36.1251   44.4831 H   0  0  0  0  0  0  0  0  0  0  0  0
   46.1436   36.2953   43.1127 H   0  0  0  0  0  0  0  0  0  0  0  0
   44.6024   37.2181   43.1127 H   0  0  0  0  0  0  0  0  0  0  0  0
  1  6  2  0
  1 12  1  0
  2  1  1  0
  3  4  1  0
  3  2  2  0
  4  5  2  0
  5  6  1  0
  7  8  1  0
  7  3  1  0
  9  8  1  0
 10 11  1  0
 10  9  1  0
 11  7  1  0
  2 13  1  0
  5 14  1  0
  8 15  1  0
  8 16  1  0
  9 17  1  0
  9 18  1  0
 10 19  1  0
 10 20  1  0
 11 21  1  0
 11 22  1  0
 12 23  1  0
 12 24  1  0
 12 25  1  0
M  ISO  8  13  14  14  14  15  13  16  13  17  13  18  13  19  13  20  13
M  ISO  5  21  13  22  13  23   8  24   8  25   8
M  END
>  <minimizedAffinity>  (1) 
-3.89817739

>  <minimizedRMSD>  (1) 
6.90954876

$$$$
