
     RDKit          3D

 20 20  0  0  0  0  0  0  0  0999 V2000
   45.4170   35.2500   43.6040 C   0  0  0  0  0  0  0  0  0  0  0  0
   46.5700   34.7580   42.9880 C   0  0  0  0  0  0  0  0  0  0  0  0
   47.2720   33.7460   43.6610 C   0  0  0  0  0  0  0  0  0  0  0  0
   46.7950   33.3170   44.8480 N   0  0  0  0  0  0  0  0  0  0  0  0
   45.6740   33.8220   45.4070 C   0  0  0  0  0  0  0  0  0  0  0  0
   44.9810   34.7990   44.7740 N   0  0  0  0  0  0  0  0  0  0  0  0
   44.6740   36.3330   42.8720 C   0  0  0  0  0  0  0  0  0  0  0  0
   48.4880   33.1600   43.1110 C   0  0  0  0  0  0  0  0  0  0  0  0
   49.5050   33.9390   42.7730 C   0  0  0  0  0  0  0  0  0  0  0  0
   50.7490   33.3590   42.2140 C   0  0  0  0  0  0  0  0  0  0  0  0
   46.9129   35.1467   42.0178 H   0  0  0  0  0  0  0  0  0  0  0  0
   45.3234   33.4397   46.3770 H   0  0  0  0  0  0  0  0  0  0  0  0
   44.2072   37.0134   43.5994 H   0  0  0  0  0  0  0  0  0  0  0  0
   45.3762   36.8970   42.2405 H   0  0  0  0  0  0  0  0  0  0  0  0
   43.8950   35.8808   42.2405 H   0  0  0  0  0  0  0  0  0  0  0  0
   48.5613   32.0707   42.9765 H   0  0  0  0  0  0  0  0  0  0  0  0
   49.4252   35.0277   42.9087 H   0  0  0  0  0  0  0  0  0  0  0  0
   51.4113   33.0502   43.0362 H   0  0  0  0  0  0  0  0  0  0  0  0
   50.5000   32.4841   41.5955 H   0  0  0  0  0  0  0  0  0  0  0  0
   51.2590   34.1122   41.5955 H   0  0  0  0  0  0  0  0  0  0  0  0
  1  6  2  0
  2  1  1  0
  2  3  2  0
  3  4  1  0
  4  5  2  0
  6  5  1  0
  7  1  1  0
  8  3  1  0
  9  8  2  0
 10  9  1  0
  2 11  1  0
  5 12  1  0
  7 13  1  0
  7 14  1  0
  7 15  1  0
  8 16  1  0
  9 17  1  0
 10 18  1  0
 10 19  1  0
 10 20  1  0
M  ISO  8  11  14  12  14  13   8  14   8  15   8  18   8  19   8  20   8
M  END
>  <minimizedAffinity>  (1) 
-3.52215624

>  <minimizedRMSD>  (1) 
1.33750927

$$$$
