
     RDKit          3D

 26 27  0  0  1  0  0  0  0  0999 V2000
   45.2870   35.3410   43.6830 C   0  0  0  0  0  0  0  0  0  0  0  0
   46.3710   34.6160   43.1630 C   0  0  0  0  0  0  0  0  0  0  0  0
   46.9540   33.6440   43.9850 C   0  0  0  0  0  0  0  0  0  0  0  0
   46.4470   33.4580   45.2240 N   0  0  0  0  0  0  0  0  0  0  0  0
   45.3960   34.1850   45.6840 C   0  0  0  0  0  0  0  0  0  0  0  0
   44.8210   35.1220   44.9140 N   0  0  0  0  0  0  0  0  0  0  0  0
   49.0010   33.7210   42.5700 C   0  0  2  0  0  0  0  0  0  0  0  0
   48.0800   32.8890   43.4470 C   0  0  2  0  0  0  0  0  0  0  0  0
   47.7250   31.8910   42.5390 O   0  0  0  0  0  0  0  0  0  0  0  0
   48.9190   31.4610   42.0100 C   0  0  0  0  0  0  0  0  0  0  0  0
   49.9140   32.5920   42.0730 C   0  0  1  0  0  0  0  0  0  0  0  0
   49.6910   34.6770   43.2960 O   0  0  0  0  0  0  0  0  0  0  0  0
   50.4600   32.9360   40.8600 O   0  0  0  0  0  0  0  0  0  0  0  0
   44.6560   36.3890   42.8010 C   0  0  0  0  0  0  0  0  0  0  0  0
   46.7484   34.8047   42.1471 H   0  0  0  0  0  0  0  0  0  0  0  0
   45.0118   34.0039   46.6987 H   0  0  0  0  0  0  0  0  0  0  0  0
   48.5104   34.3178   41.7870 H   0  0  0  0  0  0  0  0  0  0  0  0
   48.5341   32.5112   44.3749 H   0  0  0  0  0  0  0  0  0  0  0  0
   48.7713   31.1565   40.9634 H   0  0  0  0  0  0  0  0  0  0  0  0
   49.2940   30.6010   42.5843 H   0  0  0  0  0  0  0  0  0  0  0  0
   50.7929   32.3502   42.6888 H   0  0  0  0  0  0  0  0  0  0  0  0
   49.5690   34.5080   44.2638 H   0  0  0  0  0  0  0  0  0  0  0  0
   51.2883   33.4579   41.0071 H   0  0  0  0  0  0  0  0  0  0  0  0
   44.1897   37.1634   43.4278 H   0  0  0  0  0  0  0  0  0  0  0  0
   45.4285   36.8473   42.1659 H   0  0  0  0  0  0  0  0  0  0  0  0
   43.8896   35.9207   42.1659 H   0  0  0  0  0  0  0  0  0  0  0  0
  1  6  2  0
  2  1  1  0
  2  3  2  0
  3  4  1  0
  4  5  2  0
  6  5  1  0
  7 12  1  0
  7  8  1  0
  8  3  1  0
  9  8  1  0
 10 11  1  0
 10  9  1  0
 11 13  1  0
 11  7  1  0
 14  1  1  0
  2 15  1  0
  5 16  1  0
  7 17  1  6
  8 18  1  1
 10 19  1  0
 10 20  1  0
 11 21  1  1
 12 22  1  0
 13 23  1  0
 14 24  1  0
 14 25  1  0
 14 26  1  0
M  ISO  8  15  14  16  14  17  13  18  13  19  13  20  13  21  13  22   3
M  ISO  4  23   3  24   8  25   8  26   8
M  END
>  <minimizedAffinity>  (1) 
-4.49152851

>  <minimizedRMSD>  (1) 
0.756692529

$$$$
