
     RDKit          3D

 32 33  0  0  1  0  0  0  0  0999 V2000
   46.3680   34.0120   43.9790 C   0  0  0  0  0  0  0  0  0  0  0  0
   46.4220   33.1950   45.1220 C   0  0  0  0  0  0  0  0  0  0  0  0
   45.6040   33.5000   46.2010 C   0  0  0  0  0  0  0  0  0  0  0  0
   44.7980   34.5710   46.0950 N   0  0  0  0  0  0  0  0  0  0  0  0
   44.7710   35.3410   44.9720 C   0  0  0  0  0  0  0  0  0  0  0  0
   45.5530   35.0600   43.9200 N   0  0  0  0  0  0  0  0  0  0  0  0
   47.0820   32.2440   47.7560 C   0  0  2  0  0  0  0  0  0  0  0  0
   45.6810   32.6350   47.3740 C   0  0  2  0  0  0  0  0  0  0  0  0
   45.1070   31.3610   47.1900 O   0  0  0  0  0  0  0  0  0  0  0  0
   45.4400   30.7130   48.3600 C   0  0  0  0  0  0  0  0  0  0  0  0
   46.7390   31.2590   48.8830 C   0  0  1  0  0  0  0  0  0  0  0  0
   47.8530   33.2970   48.1790 O   0  0  0  0  0  0  0  0  0  0  0  0
   47.7380   30.3090   48.9940 O   0  0  0  0  0  0  0  0  0  0  0  0
   47.2810   33.6600   42.8180 C   0  0  0  0  0  0  0  0  0  0  0  0
   48.5610   33.3730   43.2940 O   0  0  0  0  0  0  0  0  0  0  0  0
   49.6070   35.5790   42.3280 O   0  0  0  0  0  0  0  0  0  0  0  0
   49.7070   34.0680   42.2870 P   0  0  0  0  0  0  0  0  0  0  0  0
   51.2540   33.5420   42.6740 O   0  0  0  0  0  0  0  0  0  0  0  0
   49.3490   33.5910   40.7110 O   0  0  0  0  0  0  0  0  0  0  0  0
   47.1002   32.3298   45.1604 H   0  0  0  0  0  0  0  0  0  0  0  0
   44.0960   36.2084   44.9274 H   0  0  0  0  0  0  0  0  0  0  0  0
   47.6978   31.8431   46.9374 H   0  0  0  0  0  0  0  0  0  0  0  0
   45.1652   33.2598   48.1180 H   0  0  0  0  0  0  0  0  0  0  0  0
   44.6479   30.8734   49.1062 H   0  0  0  0  0  0  0  0  0  0  0  0
   45.5472   29.6358   48.1648 H   0  0  0  0  0  0  0  0  0  0  0  0
   46.6564   31.6734   49.8986 H   0  0  0  0  0  0  0  0  0  0  0  0
   47.8684   33.3181   49.1687 H   0  0  0  0  0  0  0  0  0  0  0  0
   47.9221   30.1340   49.9509 H   0  0  0  0  0  0  0  0  0  0  0  0
   47.3321   34.5108   42.1226 H   0  0  0  0  0  0  0  0  0  0  0  0
   46.8813   32.7782   42.2958 H   0  0  0  0  0  0  0  0  0  0  0  0
   51.3544   33.5079   43.6583 H   0  0  0  0  0  0  0  0  0  0  0  0
   48.7549   32.7994   40.7327 H   0  0  0  0  0  0  0  0  0  0  0  0
  1  2  2  0
  2  3  1  0
  3  8  1  0
  4  3  2  0
  5  4  1  0
  6  1  1  0
  6  5  2  0
  7 12  1  0
  7 11  1  0
  8  7  1  0
  9  8  1  0
  9 10  1  0
 10 11  1  0
 11 13  1  0
 14 15  1  0
 14  1  1  0
 17 16  2  0
 17 18  1  0
 17 15  1  0
 19 17  1  0
  2 20  1  0
  5 21  1  0
  7 22  1  6
  8 23  1  1
 10 24  1  0
 10 25  1  0
 11 26  1  1
 12 27  1  0
 13 28  1  0
 14 29  1  0
 14 30  1  0
 18 31  1  0
 19 32  1  0
M  ISO  8  20  14  21  14  22  13  23  13  24  13  25  13  26  13  27   3
M  ISO  5  28   3  29   8  30   8  31   3  32   3
M  END
>  <minimizedAffinity>  (1) 
-5.96356344

>  <minimizedRMSD>  (1) 
4.89131784

$$$$
