
     RDKit          3D

 42 44  0  0  1  0  0  0  0  0999 V2000
   44.6220   35.2320   42.6920 C   0  0  0  0  0  0  0  0  0  0  0  0
   45.7380   34.4310   42.4340 C   0  0  0  0  0  0  0  0  0  0  0  0
   46.4810   33.9620   43.5240 C   0  0  0  0  0  0  0  0  0  0  0  0
   46.0840   34.3060   44.7570 N   0  0  0  0  0  0  0  0  0  0  0  0
   44.9920   35.0870   44.9680 C   0  0  0  0  0  0  0  0  0  0  0  0
   44.2700   35.5450   43.9410 N   0  0  0  0  0  0  0  0  0  0  0  0
   48.7750   33.8580   42.5630 C   0  0  2  0  0  0  0  0  0  0  0  0
   47.6370   33.1300   43.2220 C   0  0  2  0  0  0  0  0  0  0  0  0
   47.3960   32.1150   42.2750 O   0  0  0  0  0  0  0  0  0  0  0  0
   48.6450   31.5940   42.0100 C   0  0  0  0  0  0  0  0  0  0  0  0
   49.6790   32.6420   42.2790 C   0  0  1  0  0  0  0  0  0  0  0  0
   49.3630   34.8000   43.3690 O   0  0  0  0  0  0  0  0  0  0  0  0
   50.4880   32.9280   41.1930 O   0  0  0  0  0  0  0  0  0  0  0  0
   43.8290   35.7450   41.5040 C   0  0  0  0  0  0  0  0  0  0  0  0
   42.6160   34.8640   41.3230 C   0  0  0  0  0  0  0  0  0  0  0  0
   41.3280   35.6320   41.4920 C   0  0  0  0  0  0  0  0  0  0  0  0
   40.3000   35.1860   40.4560 C   0  0  0  0  0  0  0  0  0  0  0  0
   40.7630   35.4960   39.0550 C   0  0  0  0  0  0  0  0  0  0  0  0
   42.2520   35.2650   38.9040 C   0  0  0  0  0  0  0  0  0  0  0  0
   42.6620   34.2550   39.9600 C   0  0  0  0  0  0  0  0  0  0  0  0
   46.0246   34.1761   41.4030 H   0  0  0  0  0  0  0  0  0  0  0  0
   44.6990   35.3452   45.9963 H   0  0  0  0  0  0  0  0  0  0  0  0
   48.5069   34.4680   41.6878 H   0  0  0  0  0  0  0  0  0  0  0  0
   47.8691   32.7557   44.2300 H   0  0  0  0  0  0  0  0  0  0  0  0
   48.8259   30.7231   42.6572 H   0  0  0  0  0  0  0  0  0  0  0  0
   48.7002   31.2800   40.9572 H   0  0  0  0  0  0  0  0  0  0  0  0
   50.3818   32.3426   43.0704 H   0  0  0  0  0  0  0  0  0  0  0  0
   49.2141   34.5614   44.3182 H   0  0  0  0  0  0  0  0  0  0  0  0
   51.3714   33.2403   41.5127 H   0  0  0  0  0  0  0  0  0  0  0  0
   43.5108   36.7815   41.6896 H   0  0  0  0  0  0  0  0  0  0  0  0
   44.4508   35.7223   40.5969 H   0  0  0  0  0  0  0  0  0  0  0  0
   42.6381   34.0841   42.0985 H   0  0  0  0  0  0  0  0  0  0  0  0
   40.9279   35.4504   42.5004 H   0  0  0  0  0  0  0  0  0  0  0  0
   41.5319   36.7039   41.3523 H   0  0  0  0  0  0  0  0  0  0  0  0
   40.1443   34.1011   40.5499 H   0  0  0  0  0  0  0  0  0  0  0  0
   39.3627   35.7315   40.6402 H   0  0  0  0  0  0  0  0  0  0  0  0
   40.2261   34.8463   38.3482 H   0  0  0  0  0  0  0  0  0  0  0  0
   40.5530   36.5554   38.8463 H   0  0  0  0  0  0  0  0  0  0  0  0
   42.4719   34.8709   37.9008 H   0  0  0  0  0  0  0  0  0  0  0  0
   42.8067   36.2066   39.0298 H   0  0  0  0  0  0  0  0  0  0  0  0
   41.9742   33.3973   39.9249 H   0  0  0  0  0  0  0  0  0  0  0  0
   43.6921   33.9286   39.7544 H   0  0  0  0  0  0  0  0  0  0  0  0
  1  6  1  0
  2  1  2  0
  2  3  1  0
  3  4  2  0
  4  5  1  0
  6  5  2  0
  7  8  1  0
  7 12  1  0
  8  3  1  0
  9  8  1  0
 10  9  1  0
 10 11  1  0
 11  7  1  0
 13 11  1  0
 14  1  1  0
 15 16  1  0
 15 14  1  0
 17 16  1  0
 18 17  1  0
 19 18  1  0
 19 20  1  0
 20 15  1  0
  2 21  1  0
  5 22  1  0
  7 23  1  6
  8 24  1  1
 10 25  1  0
 10 26  1  0
 11 27  1  1
 12 28  1  0
 13 29  1  0
 14 30  1  0
 14 31  1  0
 15 32  1  0
 16 33  1  0
 16 34  1  0
 17 35  1  0
 17 36  1  0
 18 37  1  0
 18 38  1  0
 19 39  1  0
 19 40  1  0
 20 41  1  0
 20 42  1  0
M  ISO  8  21  14  22  14  23  13  24  13  25  13  26  13  27  13  28   3
M  ISO  8  29   3  30   8  31   8  32  13  33  13  34  13  35  13  36  13
M  ISO  6  37  13  38  13  39  13  40  13  41  13  42  13
M  END
>  <minimizedAffinity>  (1) 
-5.78744507

>  <minimizedRMSD>  (1) 
2.61105394

$$$$
