
     RDKit          3D

 36 38  0  0  1  0  0  0  0  0999 V2000
   45.2800   34.3470   42.1260 C   0  0  0  0  0  0  0  0  0  0  0  0
   46.5590   33.7580   42.0880 C   0  0  0  0  0  0  0  0  0  0  0  0
   47.2550   33.5990   43.2870 C   0  0  0  0  0  0  0  0  0  0  0  0
   46.6690   34.0140   44.4200 N   0  0  0  0  0  0  0  0  0  0  0  0
   45.4330   34.5790   44.4310 C   0  0  0  0  0  0  0  0  0  0  0  0
   44.7500   34.7390   43.2750 N   0  0  0  0  0  0  0  0  0  0  0  0
   49.6130   33.8360   42.5330 C   0  0  2  0  0  0  0  0  0  0  0  0
   48.5710   32.9870   43.2030 C   0  0  2  0  0  0  0  0  0  0  0  0
   48.6260   31.8310   42.4010 O   0  0  0  0  0  0  0  0  0  0  0  0
   49.9700   31.5360   42.3450 C   0  0  0  0  0  0  0  0  0  0  0  0
   50.7610   32.8090   42.5020 C   0  0  1  0  0  0  0  0  0  0  0  0
   49.9200   34.9780   43.2300 O   0  0  0  0  0  0  0  0  0  0  0  0
   51.5970   33.0850   41.4340 O   0  0  0  0  0  0  0  0  0  0  0  0
   44.5360   34.5290   40.8310 C   0  0  0  0  0  0  0  0  0  0  0  0
   43.3620   31.6030   40.8160 Br  0  0  0  0  0  0  0  0  0  0  0  0
   42.3910   33.2190   41.0570 C   0  0  0  0  0  0  0  0  0  0  0  0
   43.0700   34.4150   41.0360 C   0  0  0  0  0  0  0  0  0  0  0  0
   42.3130   35.5760   41.2180 C   0  0  0  0  0  0  0  0  0  0  0  0
   40.9470   35.5500   41.4120 C   0  0  0  0  0  0  0  0  0  0  0  0
   40.2900   34.3170   41.4290 C   0  0  0  0  0  0  0  0  0  0  0  0
   41.0300   33.1470   41.2480 C   0  0  0  0  0  0  0  0  0  0  0  0
   46.9993   33.4307   41.1346 H   0  0  0  0  0  0  0  0  0  0  0  0
   44.9875   34.9067   45.3819 H   0  0  0  0  0  0  0  0  0  0  0  0
   49.3256   34.2541   41.5570 H   0  0  0  0  0  0  0  0  0  0  0  0
   48.7630   32.8028   44.2703 H   0  0  0  0  0  0  0  0  0  0  0  0
   50.2284   30.8394   43.1561 H   0  0  0  0  0  0  0  0  0  0  0  0
   50.2070   31.0692   41.3776 H   0  0  0  0  0  0  0  0  0  0  0  0
   51.4365   32.7874   43.3699 H   0  0  0  0  0  0  0  0  0  0  0  0
   49.8708   34.7948   44.2017 H   0  0  0  0  0  0  0  0  0  0  0  0
   52.4802   33.3766   41.7731 H   0  0  0  0  0  0  0  0  0  0  0  0
   44.8603   33.7560   40.1187 H   0  0  0  0  0  0  0  0  0  0  0  0
   44.7569   35.5329   40.4394 H   0  0  0  0  0  0  0  0  0  0  0  0
   42.8265   36.5487   41.2061 H   0  0  0  0  0  0  0  0  0  0  0  0
   40.3844   36.4850   41.5510 H   0  0  0  0  0  0  0  0  0  0  0  0
   39.2019   34.2686   41.5833 H   0  0  0  0  0  0  0  0  0  0  0  0
   40.5260   32.1693   41.2580 H   0  0  0  0  0  0  0  0  0  0  0  0
  1  6  1  0
  2  1  2  0
  2  3  1  0
  3  4  2  0
  4  5  1  0
  6  5  2  0
  7  8  1  0
  7 12  1  0
  8  3  1  0
  9  8  1  0
 10  9  1  0
 10 11  1  0
 11  7  1  0
 13 11  1  0
 14 17  1  0
 14  1  1  0
 15 16  1  0
 16 21  2  0
 17 16  1  0
 17 18  2  0
 18 19  1  0
 19 20  2  0
 21 20  1  0
  2 22  1  0
  5 23  1  0
  7 24  1  6
  8 25  1  1
 10 26  1  0
 10 27  1  0
 11 28  1  1
 12 29  1  0
 13 30  1  0
 14 31  1  0
 14 32  1  0
 18 33  1  0
 19 34  1  0
 20 35  1  0
 21 36  1  0
M  ISO  8  22  14  23  14  24  13  25  13  26  13  27  13  28  13  29   3
M  ISO  7  30   3  31   8  32   8  33  14  34  14  35  14  36  14
M  END
>  <minimizedAffinity>  (1) 
-5.69121885

>  <minimizedRMSD>  (1) 
1.53344059

$$$$
