
     RDKit          3D

 36 38  0  0  1  0  0  0  0  0999 V2000
   45.0470   35.2750   43.1860 C   0  0  0  0  0  0  0  0  0  0  0  0
   46.1810   34.5120   42.8760 C   0  0  0  0  0  0  0  0  0  0  0  0
   46.8130   33.7770   43.8700 C   0  0  0  0  0  0  0  0  0  0  0  0
   46.3040   33.8280   45.1090 N   0  0  0  0  0  0  0  0  0  0  0  0
   45.1970   34.5790   45.3870 C   0  0  0  0  0  0  0  0  0  0  0  0
   44.5770   35.2910   44.4440 N   0  0  0  0  0  0  0  0  0  0  0  0
   48.9890   33.7590   42.6610 C   0  0  2  0  0  0  0  0  0  0  0  0
   47.9870   32.9970   43.4830 C   0  0  2  0  0  0  0  0  0  0  0  0
   47.7020   31.9280   42.6070 O   0  0  0  0  0  0  0  0  0  0  0  0
   48.9470   31.4670   42.2450 C   0  0  0  0  0  0  0  0  0  0  0  0
   49.9450   32.5910   42.3370 C   0  0  1  0  0  0  0  0  0  0  0  0
   49.5960   34.7800   43.3500 O   0  0  0  0  0  0  0  0  0  0  0  0
   50.6050   32.8630   41.1500 O   0  0  0  0  0  0  0  0  0  0  0  0
   44.3760   36.0690   42.1100 C   0  0  0  0  0  0  0  0  0  0  0  0
   44.7300   34.1760   39.9580 F   0  0  0  0  0  0  0  0  0  0  0  0
   43.4880   34.4140   40.3760 C   0  0  0  0  0  0  0  0  0  0  0  0
   43.3200   35.3190   41.4000 C   0  0  0  0  0  0  0  0  0  0  0  0
   41.9870   35.5180   41.7830 C   0  0  0  0  0  0  0  0  0  0  0  0
   40.9330   34.8630   41.1820 C   0  0  0  0  0  0  0  0  0  0  0  0
   41.1560   33.9650   40.1600 C   0  0  0  0  0  0  0  0  0  0  0  0
   42.4520   33.7530   39.7680 C   0  0  0  0  0  0  0  0  0  0  0  0
   46.5696   34.4955   41.8471 H   0  0  0  0  0  0  0  0  0  0  0  0
   44.8066   34.5972   46.4152 H   0  0  0  0  0  0  0  0  0  0  0  0
   48.5803   34.2971   41.7930 H   0  0  0  0  0  0  0  0  0  0  0  0
   48.3578   32.6873   44.4712 H   0  0  0  0  0  0  0  0  0  0  0  0
   48.9126   31.0909   41.2119 H   0  0  0  0  0  0  0  0  0  0  0  0
   49.2477   30.6535   42.9216 H   0  0  0  0  0  0  0  0  0  0  0  0
   50.7562   32.3829   43.0502 H   0  0  0  0  0  0  0  0  0  0  0  0
   49.5025   34.6228   44.3230 H   0  0  0  0  0  0  0  0  0  0  0  0
   51.5018   33.2326   41.3482 H   0  0  0  0  0  0  0  0  0  0  0  0
   43.9231   36.9616   42.5662 H   0  0  0  0  0  0  0  0  0  0  0  0
   45.1462   36.3268   41.3681 H   0  0  0  0  0  0  0  0  0  0  0  0
   41.7725   36.2262   42.5969 H   0  0  0  0  0  0  0  0  0  0  0  0
   39.9050   35.0587   41.5210 H   0  0  0  0  0  0  0  0  0  0  0  0
   40.3218   33.4364   39.6755 H   0  0  0  0  0  0  0  0  0  0  0  0
   42.6639   33.0432   38.9548 H   0  0  0  0  0  0  0  0  0  0  0  0
  1  6  1  0
  2  1  2  0
  2  3  1  0
  3  4  2  0
  4  5  1  0
  6  5  2  0
  7 12  1  0
  7  8  1  0
  8  3  1  0
  9  8  1  0
 10 11  1  0
 10  9  1  0
 11  7  1  0
 13 11  1  0
 14  1  1  0
 15 16  1  0
 16 17  2  0
 17 18  1  0
 17 14  1  0
 19 18  2  0
 20 19  1  0
 21 20  2  0
 21 16  1  0
  2 22  1  0
  5 23  1  0
  7 24  1  6
  8 25  1  1
 10 26  1  0
 10 27  1  0
 11 28  1  1
 12 29  1  0
 13 30  1  0
 14 31  1  0
 14 32  1  0
 18 33  1  0
 19 34  1  0
 20 35  1  0
 21 36  1  0
M  ISO  8  22  14  23  14  24  13  25  13  26  13  27  13  28  13  29   3
M  ISO  7  30   3  31   8  32   8  33  14  34  14  35  14  36  14
M  END
>  <minimizedAffinity>  (1) 
-5.68419504

>  <minimizedRMSD>  (1) 
0.772356093

$$$$
