
     RDKit          3D

 39 42  0  0  1  0  0  0  0  0999 V2000
   48.0250   33.2180   42.2870 N   0  0  0  0  0  0  0  0  0  0  0  0
   47.3010   33.1410   43.4860 C   0  0  0  0  0  0  0  0  0  0  0  0
   47.5730   32.1260   44.3740 C   0  0  0  0  0  0  0  0  0  0  0  0
   46.9590   32.0220   45.6110 C   0  0  0  0  0  0  0  0  0  0  0  0
   46.0240   32.9560   46.0160 C   0  0  0  0  0  0  0  0  0  0  0  0
   45.7350   33.9830   45.1390 C   0  0  0  0  0  0  0  0  0  0  0  0
   44.8080   34.9290   45.5290 C   0  0  0  0  0  0  0  0  0  0  0  0
   44.4740   35.9730   44.7180 C   0  0  0  0  0  0  0  0  0  0  0  0
   45.1000   36.0490   43.4820 C   0  0  0  0  0  0  0  0  0  0  0  0
   46.0180   35.0960   43.1160 C   0  0  0  0  0  0  0  0  0  0  0  0
   46.3640   34.0520   43.9160 C   0  0  0  0  0  0  0  0  0  0  0  0
   46.6090   35.2020   41.8780 O   0  0  0  0  0  0  0  0  0  0  0  0
   50.0670   32.4180   41.1110 C   0  0  1  0  0  0  0  0  0  0  0  0
   48.9110   31.9630   40.2660 C   0  0  0  0  0  0  0  0  0  0  0  0
   48.8150   32.1220   41.8100 C   0  0  2  0  0  0  0  0  0  0  0  0
   53.2710   30.6620   40.4770 C   0  0  0  0  0  0  0  0  0  0  0  0
   53.3480   29.7890   41.6190 C   0  0  0  0  0  0  0  0  0  0  0  0
   52.3000   29.8320   42.5730 C   0  0  0  0  0  0  0  0  0  0  0  0
   51.2910   30.6740   42.3750 N   0  0  0  0  0  0  0  0  0  0  0  0
   51.2470   31.4870   41.2810 C   0  0  0  0  0  0  0  0  0  0  0  0
   52.2290   31.4930   40.3240 N   0  0  0  0  0  0  0  0  0  0  0  0
   52.3850   28.9300   43.7490 C   0  0  0  0  0  0  0  0  0  0  0  0
   47.9877   34.0863   41.7343 H   0  0  0  0  0  0  0  0  0  0  0  0
   48.3116   31.3625   44.0886 H   0  0  0  0  0  0  0  0  0  0  0  0
   47.2182   31.1870   46.2785 H   0  0  0  0  0  0  0  0  0  0  0  0
   45.5304   32.8843   46.9964 H   0  0  0  0  0  0  0  0  0  0  0  0
   44.3287   34.8385   46.5149 H   0  0  0  0  0  0  0  0  0  0  0  0
   43.7363   36.7263   45.0317 H   0  0  0  0  0  0  0  0  0  0  0  0
   44.8605   36.8737   42.7946 H   0  0  0  0  0  0  0  0  0  0  0  0
   47.2745   34.5289   41.5879 H   0  0  0  0  0  0  0  0  0  0  0  0
   50.7289   33.2963   41.0895 H   0  0  0  0  0  0  0  0  0  0  0  0
   48.3952   32.6699   39.5995 H   0  0  0  0  0  0  0  0  0  0  0  0
   48.7278   31.1592   39.5377 H   0  0  0  0  0  0  0  0  0  0  0  0
   48.5424   31.4769   42.6583 H   0  0  0  0  0  0  0  0  0  0  0  0
   54.0727   30.6476   39.7240 H   0  0  0  0  0  0  0  0  0  0  0  0
   54.1996   29.1049   41.7484 H   0  0  0  0  0  0  0  0  0  0  0  0
   52.3289   29.5251   44.6724 H   0  0  0  0  0  0  0  0  0  0  0  0
   51.5504   28.2140   43.7230 H   0  0  0  0  0  0  0  0  0  0  0  0
   53.3387   28.3825   43.7230 H   0  0  0  0  0  0  0  0  0  0  0  0
  1  2  1  0
  2 11  1  0
  2  3  2  0
  3  4  1  0
  4  5  2  0
  6  7  2  0
  6  5  1  0
  8  7  1  0
  9  8  2  0
 10  9  1  0
 10 11  2  0
 11  6  1  0
 12 10  1  0
 13 20  1  0
 13 15  1  0
 14 13  1  0
 14 15  1  0
 15  1  1  0
 16 17  2  0
 17 18  1  0
 18 22  1  0
 19 18  2  0
 20 19  1  0
 21 16  1  0
 21 20  2  0
  1 23  1  0
  3 24  1  0
  4 25  1  0
  5 26  1  0
  7 27  1  0
  8 28  1  0
  9 29  1  0
 12 30  1  0
 13 31  1  6
 14 32  1  0
 14 33  1  0
 15 34  1  1
 16 35  1  0
 17 36  1  0
 22 37  1  0
 22 38  1  0
 22 39  1  0
M  ISO  8  24  14  25  14  26  14  27  14  28  14  29  14  30   3  31  13
M  ISO  8  32  13  33  13  34  13  35  14  36  14  37   8  38   8  39   8
M  END
>  <minimizedAffinity>  (1) 
-5.13948774

>  <minimizedRMSD>  (1) 
1.48518372

$$$$
