
     RDKit          3D

 36 38  0  0  1  0  0  0  0  0999 V2000
   46.9560   32.0320   42.5680 C   0  0  0  0  0  0  0  0  0  0  0  0
   47.1850   32.3810   41.2210 C   0  0  0  0  0  0  0  0  0  0  0  0
   48.5170   32.4300   40.7730 C   0  0  0  0  0  0  0  0  0  0  0  0
   49.4860   32.1400   41.6590 N   0  0  0  0  0  0  0  0  0  0  0  0
   49.2270   31.8070   42.9500 C   0  0  0  0  0  0  0  0  0  0  0  0
   47.9750   31.7540   43.3990 N   0  0  0  0  0  0  0  0  0  0  0  0
   48.1390   34.1020   38.9780 C   0  0  2  0  0  0  0  0  0  0  0  0
   48.7400   32.7860   39.3830 C   0  0  2  0  0  0  0  0  0  0  0  0
   48.1130   31.9230   38.4590 O   0  0  0  0  0  0  0  0  0  0  0  0
   48.2940   32.5530   37.2450 C   0  0  0  0  0  0  0  0  0  0  0  0
   48.4270   34.0350   37.4680 C   0  0  1  0  0  0  0  0  0  0  0  0
   48.7150   35.1820   39.5970 O   0  0  0  0  0  0  0  0  0  0  0  0
   47.4950   34.7950   36.7830 O   0  0  0  0  0  0  0  0  0  0  0  0
   45.5190   31.9930   43.0340 C   0  0  0  0  0  0  0  0  0  0  0  0
   45.8950   32.5630   46.0320 Cl  0  0  0  0  0  0  0  0  0  0  0  0
   45.3450   33.6730   44.7990 C   0  0  0  0  0  0  0  0  0  0  0  0
   45.1810   33.3810   43.4410 C   0  0  0  0  0  0  0  0  0  0  0  0
   44.7330   34.3870   42.6120 C   0  0  0  0  0  0  0  0  0  0  0  0
   44.4500   35.6550   43.1010 C   0  0  0  0  0  0  0  0  0  0  0  0
   44.6090   35.9650   44.4560 C   0  0  0  0  0  0  0  0  0  0  0  0
   45.0540   34.9590   45.2680 C   0  0  0  0  0  0  0  0  0  0  0  0
   46.3490   32.6075   40.5429 H   0  0  0  0  0  0  0  0  0  0  0  0
   50.0600   31.5789   43.6312 H   0  0  0  0  0  0  0  0  0  0  0  0
   47.0825   34.2406   39.2512 H   0  0  0  0  0  0  0  0  0  0  0  0
   49.8392   32.7648   39.3467 H   0  0  0  0  0  0  0  0  0  0  0  0
   47.4281   32.3555   36.5959 H   0  0  0  0  0  0  0  0  0  0  0  0
   49.2059   32.1698   36.7637 H   0  0  0  0  0  0  0  0  0  0  0  0
   49.3925   34.4342   37.1239 H   0  0  0  0  0  0  0  0  0  0  0  0
   48.6554   35.0702   40.5789 H   0  0  0  0  0  0  0  0  0  0  0  0
   46.9148   35.2682   37.4307 H   0  0  0  0  0  0  0  0  0  0  0  0
   44.8611   31.6639   42.2162 H   0  0  0  0  0  0  0  0  0  0  0  0
   45.3850   31.2860   43.8660 H   0  0  0  0  0  0  0  0  0  0  0  0
   44.5968   34.1807   41.5401 H   0  0  0  0  0  0  0  0  0  0  0  0
   44.0934   36.4320   42.4089 H   0  0  0  0  0  0  0  0  0  0  0  0
   44.3870   36.9683   44.8486 H   0  0  0  0  0  0  0  0  0  0  0  0
   45.1895   35.1702   46.3390 H   0  0  0  0  0  0  0  0  0  0  0  0
  1 14  1  0
  1  6  1  0
  2  1  2  0
  3  2  1  0
  3  4  2  0
  4  5  1  0
  5  6  2  0
  7  8  1  0
  7 12  1  0
  8  3  1  0
  9  8  1  0
 10 11  1  0
 10  9  1  0
 11  7  1  0
 13 11  1  0
 14 17  1  0
 16 21  2  0
 16 15  1  0
 17 16  1  0
 18 19  1  0
 18 17  2  0
 19 20  2  0
 20 21  1  0
  2 22  1  0
  5 23  1  0
  7 24  1  6
  8 25  1  6
 10 26  1  0
 10 27  1  0
 11 28  1  1
 12 29  1  0
 13 30  1  0
 14 31  1  0
 14 32  1  0
 18 33  1  0
 19 34  1  0
 20 35  1  0
 21 36  1  0
M  ISO  8  22  14  23  14  24  13  25  13  26  13  27  13  28  13  29   3
M  ISO  7  30   3  31   8  32   8  33  14  34  14  35  14  36  14
M  END
>  <minimizedAffinity>  (1) 
-5.31322336

>  <minimizedRMSD>  (1) 
4.39688778

$$$$
